13
gdb 33524	2.26272	1.65008	1.22569	3.1615	67.65	-0.2738	-0.0342	0.2396	1005.0235	0.090437	-411.805038	-411.797249	-411.796305	-411.837718	27.923	
N	-0.1812127195	-1.2048581018	-0.0830711719	-0.316747
C	-0.0921219815	-0.0540767378	-0.0527175103	 0.292746
C	 0.0094520328	 1.4109333357	 0.0221771909	-0.020496
C	-0.54767597	 1.9815785465	 1.40759003	-0.201524
N	 0.4456558411	 2.947444321	 1.8603586758	-0.219983
C	 1.4561333177	 2.8333920948	 1.0982927172	 0.076721
N	 1.402753995	 1.8614342472	 0.1005484555	-0.315901
C	-0.6911076979	 2.0140767094	-1.1292897636	 0.277223
N	-1.2174359647	 2.5247553098	-2.0217624849	-0.311873
H	-1.528501181	 2.4412523145	 1.2753074969	 0.157687
H	-0.6406896277	 1.1623765256	 2.1269227588	 0.156153
H	 2.3681417061	 3.4114434441	 1.2068859237	 0.154402
H	 1.9117705897	 1.9900945912	-0.762628238	 0.271591
