18
gdb 80190	2.30578	1.72041	1.4394	1.9924	71.11	-0.2351	-0.0355	0.1996	991.49	0.147233	-439.075117	-439.066807	-439.065863	-439.107803	31.693	
C	-0.4791346405	 1.3333890575	-0.055278879	-0.334558
N	 0.003050312	-0.032601519	 0.0977194256	-0.084971
C	 1.345578751	-0.4600885196	-0.2539711402	-0.047666
C	 2.4538111088	 0.5738438073	-0.4227814325	-0.346246
C	 2.4337860647	 1.3569161071	 0.8841437099	 0.344125
O	 2.8380807673	 2.4750773423	 1.0875626397	-0.329025
C	 1.7042526348	 0.5349304648	 1.9576227421	 0.049674
O	 0.9905069353	 1.3618316378	 2.8422227657	-0.438136
C	 0.8667163496	-0.4625222395	 1.1799952452	-0.066019
H	 0.2520362621	 2.1297658615	 0.1342850604	 0.125217
H	-0.8534686567	 1.4535325071	-1.0769162876	 0.123763
H	-1.3127940305	 1.48122181	 0.6358353792	 0.14133
H	 1.40809808	-1.3717175423	-0.8417383582	 0.09789
H	 3.4247413916	 0.0747546532	-0.5361463206	 0.138999
H	 2.3367988482	 1.2467499386	-1.2772209944	 0.140231
H	 2.4813916054	-0.0417207265	 2.4975139102	 0.093375
H	 1.4644398536	 2.2068268633	 2.8492377461	 0.292395
H	 0.5612755732	-1.3710591637	 1.6913370088	 0.099624
