14
gdb 25284	7.74187	0.66806	0.61499	5.5196	96.39	-0.2223	-0.0658	0.1565	1686.3056	0.101903	-399.57108	-399.563111	-399.562167	-399.604594	28.297	
O	-0.1624651045	 0.01873232	 0.000934695	-0.2451
C	-0.0246365014	 1.2246144056	 0.0091190198	-0.011332
C	 1.231069017	 1.9067837556	-0.0002472485	 0.158259
C	 2.2859284095	 2.5101796454	-0.0077703227	-0.032942
C	 3.501300313	 3.1950382212	-0.0159748379	 0.155772
C	 4.8135297689	 2.7263144521	-0.0348138889	-0.240285
C	 5.6697103912	 3.8443353945	-0.0354346179	-0.125149
C	 4.8723720543	 4.9758358655	-0.0169374632	-0.086702
N	 3.5727963677	 4.5792549815	-0.0053577527	-0.299946
H	-0.9016980631	 1.9053297489	 0.0251157624	 0.0885
H	 5.0927023241	 1.6846824671	-0.0465964264	 0.119468
H	 6.7481844162	 3.8344977313	-0.0478876644	 0.112056
H	 5.1348729913	 6.0217763717	-0.0113196374	 0.133165
H	 2.7699149958	 5.1848009596	 0.0088105129	 0.274236
