15
gdb 26640	3.25444	1.27284	0.92021	5.5947	75.23	-0.208	-0.0042	0.2039	1182.9867	0.112859	-416.868259	-416.859384	-416.85844	-416.902419	31.622	
C	 0.0526807149	 1.5035937851	 0.0453379971	-0.52085
C	 0.0399329736	 0.0071190222	 0.0190914783	 0.014079
C	 0.0003890169	-0.8150791769	-1.0786854769	 0.344132
O	-0.0463133418	-0.5812580754	-2.4117283306	-0.432159
N	 0.0063995717	-2.1244059916	-0.6736262449	-0.300433
C	 0.0511891271	-2.1829440591	 0.6934358414	-0.184472
C	 0.0741941963	-0.883229167	 1.1553205623	 0.107679
C	 0.1162757174	-0.4867852925	 2.5128699766	 0.20032
N	 0.1492571407	-0.1353143742	 3.6171791488	-0.362005
H	 1.0338011471	 1.9060547801	 0.3233077623	 0.143491
H	-0.2086294425	 1.9277058872	-0.9313449789	 0.100752
H	-0.6717599417	 1.8948630643	 0.7667625542	 0.151526
H	-0.0004183732	 0.3688085088	-2.5590094073	 0.31145
H	-0.0198528391	-2.908099416	-1.3033076956	 0.27779
H	 0.0603308924	-3.1187530248	 1.2248454331	 0.1487
