20
gdb 15664	2.79257	1.81177	1.24605	1.2385	75.73	-0.2316	0.0295	0.2611	1024.3867	0.177735	-349.012151	-349.003818	-349.002873	-349.044678	31.742	
C	-0.6772868116	 1.3815220823	-0.0227494223	-0.408145
C	 0.0414198061	 0.0258502245	-0.050468775	-0.029277
C	 1.2037277366	-0.0487561644	-1.0208745927	-0.059054
C	 2.2137496121	-0.7716247993	-0.5424655374	-0.075665
C	 1.9152981901	-1.3072858335	 0.8370592291	-0.260765
C	 0.6833874791	-0.471673749	 1.2861077205	 0.004602
C	 1.1241328779	 0.6656708565	 2.2083712062	-0.087767
O	 1.6805965002	 0.0772953331	 3.3789493709	-0.422771
H	 0.0018509239	 2.2043915495	 0.2213853657	 0.117556
H	-1.1102165989	 1.5975023875	-1.0053716451	 0.110308
H	-1.4960023475	 1.388690125	 0.704423438	 0.114074
H	-0.7076997432	-0.7203659618	-0.3594388691	 0.080148
H	 1.1643047402	 0.4107112587	-2.0034546897	 0.084021
H	 3.1324307751	-0.9957323326	-1.0740216445	 0.086843
H	 1.6791289187	-2.3798056259	 0.7923096285	 0.099333
H	 2.7459243656	-1.2066641401	 1.5423599329	 0.115523
H	-0.023458581	-1.0841183209	 1.8545528926	 0.07308
H	 1.8644325611	 1.2995300508	 1.6944481856	 0.088923
H	 0.2646463571	 1.3004638874	 2.4675499956	 0.084562
H	 2.0170649885	 0.783988732	 3.9370345003	 0.284471
