22
gdb 40292	2.45973	1.54619	1.17238	1.2689	81.65	-0.2437	0.071	0.3148	1144.8822	0.19707	-404.324872	-404.316464	-404.31552	-404.358031	32.921	
C	-0.0366025257	 1.5389977672	-0.058026314	-0.297377
N	 1.2322296323	 0.7963212937	 0.0141015881	-0.344782
C	-0.0408774426	 0.05299396	 0.0250429763	 0.344376
C	-0.3772107601	-0.6423690232	 1.3347592902	-0.27873
C	 0.6070122488	-1.756206151	 1.7581176688	-0.184995
C	 1.2363739426	-2.5893164859	 0.6222328425	-0.199009
C	 0.3575489035	-2.8691282309	-0.6035715171	-0.0706
O	 0.3749393785	-1.8095501685	-1.5504084975	-0.240748
C	-0.4391929525	-0.6981244742	-1.2374554691	-0.161461
H	-0.2737359596	 2.1271198049	 0.8246626495	 0.115157
H	-0.3176662545	 2.007656159	-0.9982920989	 0.108277
H	 1.6580813822	 0.7342591611	-0.9083216528	 0.233107
H	-0.4258090026	 0.0986256353	 2.1390079229	 0.099688
H	-1.3902523782	-1.054157968	 1.2422168818	 0.094377
H	 1.4232367121	-1.3054126684	 2.3310217953	 0.112453
H	 0.0805825145	-2.4218124895	 2.452587248	 0.092228
H	 2.1332858453	-2.085381547	 0.2459236628	 0.117506
H	 1.5718091544	-3.5476998791	 1.036685061	 0.090421
H	 0.7529086757	-3.7350821491	-1.1442023706	 0.10506
H	-0.6796747014	-3.1078130204	-0.3137537012	 0.08307
H	-1.4940033508	-1.0119196915	-1.1501790483	 0.087288
H	-0.359669012	-0.0343372344	-2.1054353378	 0.094696
