16
gdb 63721	3.75486	1.1428	1.03659	4.991	70.87	-0.2804	-0.0039	0.2764	1160.2446	0.121891	-437.856455	-437.847928	-437.846984	-437.889306	32.211	
C	-0.0274673458	 1.5740568003	 0.0823959438	-0.461381
C	 0.0067551321	 0.0585304166	-0.0063659051	 0.38272
O	-1.2753081714	-0.5128312748	-0.1559261274	-0.474462
C	 1.0723500501	-0.5900727229	-0.9839281168	-0.361815
C	 1.6783852565	-1.3020910533	 0.2334978165	 0.31818
O	 2.0605315229	-0.2847576145	 1.1750843095	-0.268001
C	 0.6971334006	-0.6897650499	 1.1551854473	-0.065249
C	 2.3488730157	-2.5636349629	 0.2864091955	 0.201941
N	 2.880610231	-3.5904483931	 0.2849704086	-0.336056
H	 0.9647482813	 1.9662309932	 0.3177167165	 0.144836
H	-0.345780455	 2.0086652399	-0.8729207098	 0.115932
H	-0.7316404474	 1.8931360256	 0.8565545276	 0.131955
H	-1.7075074524	-0.0957699109	-0.9091227213	 0.286209
H	 0.5823096149	-1.2764359934	-1.6759627289	 0.133042
H	 1.7604261682	 0.0735773128	-1.5113256719	 0.119481
H	 0.2532331387	-1.0715761824	 2.0672886658	 0.132668
