12
gdb 129445	4.44908	1.12567	0.89837	5.6198	58.04	-0.2798	-0.0693	0.2104	1166.1671	0.077963	-505.973124	-505.965384	-505.96444	-506.005895	27.743	
N	 0.3573725144	 0.3703330472	 1.1209794913	-0.532384
C	-0.1509764276	 0.2289953835	-0.1284329735	 0.332275
O	 0.2357071162	 0.8015074458	-1.1227509834	-0.333709
C	-1.2918628396	-0.7495198849	-0.1660872427	 0.373505
N	-1.7960033197	-1.4234804273	 0.8301283093	-0.413538
C	-2.7881504475	-2.1328648405	 0.2042628069	 0.447543
O	-3.5895272832	-2.9791171808	 0.8442557147	-0.397042
N	-2.9008573443	-1.9226560752	-1.0860316967	-0.179621
O	-1.8861726222	-0.9868538681	-1.3276179941	-0.17791
H	 1.1264983185	 1.00396804	 1.2602214169	 0.276112
H	-0.0251698495	-0.1448799161	 1.8960278434	 0.282426
H	-3.3325918555	-2.9786339037	 1.774260208	 0.322342
