19
gdb 122497	4.67301	0.62441	0.57741	2.6356	75.4	-0.2616	-0.0433	0.2184	1912.5323	0.155473	-460.136301	-460.126217	-460.125273	-460.172967	34.458	
C	 0.28417199	 1.5357272546	-0.0102443043	-0.385758
C	 0.2295318638	 0.0212850016	 0.0872196047	-0.029507
O	 0.6337377804	-0.5239728324	-1.155824588	-0.245897
C	 0.611399853	-1.9302908528	-1.1802300646	-0.091386
C	 1.0391547294	-2.3631815897	-2.5594697243	 0.062677
O	 2.4140158548	-2.617050631	-2.7968001396	-0.235161
C	 1.5162723493	-3.7282783348	-2.8918223106	-0.05893
C	 1.6684483983	-4.7847129649	-1.8450202963	 0.138896
O	 1.2725306933	-5.913321578	-1.9861021896	-0.243117
H	 1.2992916326	 1.8677637671	-0.2446066067	 0.132114
H	-0.3847338906	 1.8943506222	-0.7975616492	 0.128516
H	-0.0202324435	 1.9884745267	 0.9379260174	 0.118161
H	 0.8920359952	-0.3407570249	 0.8910132056	 0.091651
H	-0.7910640542	-0.3176045116	 0.3333287961	 0.088893
H	 1.2852933826	-2.3521621364	-0.4188295762	 0.098796
H	-0.40526194	-2.3098578183	-0.9748651446	 0.099874
H	 0.5380952554	-1.8181395854	-3.3607122384	 0.116422
H	 1.3260704363	-4.1097690648	-3.8941797624	 0.120173
H	 2.1926798439	-4.4473693471	-0.9249967389	 0.093582
