17
gdb 80941	2.60004	1.34256	1.22122	1.2984	74.83	-0.2537	0.031	0.2847	1101.2366	0.133435	-421.729243	-421.720753	-421.719809	-421.761989	32.935	
C	 0.0784080559	 1.4227682522	-0.0401466047	-0.521583
C	 0.0179003058	-0.0621623154	 0.0993637808	 0.351504
O	 0.6245416121	-0.9098738249	-0.9783562228	-0.373118
C	 0.0854760775	-1.8771358436	 0.0087401578	-0.015993
C	 0.7201561691	-1.0092950209	 1.12810532	 0.135636
O	 2.102405176	-0.9517481923	 1.208658454	-0.445972
C	-1.2142756279	-1.0253865759	 0.0747781194	-0.219326
C	-2.1197595757	-1.1048163612	 1.1997690931	 0.294579
C	-2.8809927546	-1.161544174	 2.1292578173	-0.437383
H	 1.1141138263	 1.767481887	 0.0386710296	 0.138813
H	-0.3278729834	 1.7421509999	-1.0042183242	 0.138056
H	-0.5036722396	 1.8927599926	 0.7584692083	 0.141502
H	 0.1927701061	-2.9375026849	-0.2185389719	 0.103912
H	 0.3018861819	-1.0749197615	 2.1325565478	 0.107002
H	 2.4073066225	-0.9132540813	 0.2899206227	 0.287049
H	-1.7279426768	-1.000100098	-0.8884542877	 0.115607
H	-3.5528134351	-1.2156255678	 2.9501739606	 0.199716
