19
gdb 35337	3.61365	1.35436	1.21645	0.6988	87.84	-0.2331	0.0439	0.277	1079.6886	0.159489	-348.599836	-348.592398	-348.591454	-348.631319	30.954	
C	-0.1652438093	-1.3149184672	-0.0439918734	-0.480515
C	-0.0804573408	-0.114791932	-0.0058226398	 0.365662
C	-0.0261722444	 1.3307063583	 0.0163702004	-0.250783
C	-0.2947894316	 2.0602587253	 1.4250357771	-0.349795
C	 1.2197399045	 2.3459699403	 1.4538403497	 0.302919
C	 2.4780498697	 3.2682348682	 1.3950741892	-0.307806
C	 2.8013620829	 1.9705534253	 0.5168942065	-0.085574
C	 2.2024622051	 1.1460066255	 1.6711260119	-0.249349
C	 1.3530002923	 2.1423253384	-0.0533178685	-0.009247
H	-0.2239086995	-2.3745687053	-0.0743282124	 0.194826
H	-0.6945931338	 1.7082895365	-0.7627725479	 0.111327
H	-0.9194094837	 2.9453061429	 1.2781938121	 0.110452
H	-0.7093818027	 1.4457955728	 2.2272673355	 0.113531
H	 2.3647376038	 4.2100694116	 0.8514792769	 0.096133
H	 3.0847135892	 3.3925251785	 2.297877887	 0.093939
H	 3.7372865753	 1.7853166591	-0.0177943348	 0.070893
H	 2.7518820018	 1.1531710079	 2.6167966687	 0.083847
H	 1.8406013051	 0.1481767177	 1.4302697066	 0.120352
H	 1.2077080061	 3.0289955063	-0.6766677848	 0.069186
