20
gdb 12968	2.24007	2.17287	1.75713	1.4761	74.84	-0.236	0.0724	0.3083	919.8137	0.176349	-348.979661	-348.971165	-348.970221	-349.011783	32.801	
C	-0.1546120385	 1.5188925527	-0.114911183	-0.42041
C	 0.1228035244	 0.0186138732	-0.0766415701	-0.003035
C	 1.2885365366	-0.5810988499	-0.9291277876	-0.248503
C	 1.8328436326	-1.2813394851	 0.3213310848	-0.139815
C	 2.1779063046	-0.2788667058	 1.3649967807	 0.057622
O	 2.7766418333	 0.9354522307	 0.9945457757	-0.418963
C	 0.7217959704	-0.6225200594	 1.1922925067	 0.269721
C	-0.1126030491	-1.1876048282	 2.3088198642	-0.497257
H	 0.7626472313	 2.0922660946	 0.0356030326	 0.120269
H	-0.5800929666	 1.8107366531	-1.0818180557	 0.110329
H	-0.8752689377	 1.8078523567	 0.6592526327	 0.105081
H	-0.8005555797	-0.5199276153	-0.3202751194	 0.068061
H	 0.9414610685	-1.2722590888	-1.6996614058	 0.094587
H	 1.9698302233	 0.1444727263	-1.3809344666	 0.109853
H	 2.2233076311	-2.292667999	 0.3517667697	 0.081375
H	 2.6092031656	-0.7198715812	 2.266176574	 0.079269
H	 2.5280489254	 1.5984300055	 1.6470359484	 0.284304
H	-0.6217033372	-0.3927099974	 2.8690586763	 0.115814
H	-0.8861506371	-1.8643875893	 1.9266759884	 0.116083
H	 0.4981780689	-1.7514081433	 3.0219783238	 0.115615
