23
gdb 110931	2.60043	1.07355	0.92353	1.4933	85.95	-0.2306	0.0755	0.3061	1433.1358	0.204962	-388.254941	-388.24524	-388.244296	-388.289891	36.311	
C	-0.4429930476	 1.7569928399	 0.3553823183	-0.382292
C	-0.5060921985	 0.2464334761	 0.0956402614	-0.209884
C	 0.2217353694	-0.5371787674	 1.1710485727	-0.00115
C	-0.4491925475	-1.1561619922	 2.3549188205	 0.071108
O	-1.7261639668	-1.7037950707	 2.0049822532	-0.310278
C	-1.0753675939	-2.7295868973	 1.1947561836	 0.156527
C	-1.7094761747	-2.9812495085	-0.1625428561	-0.210095
C	-1.006219087	-4.1195121973	-0.9104098584	-0.383845
C	 0.2835737317	-2.0477075398	 1.3707473647	-0.203025
H	 0.5920236668	 2.1171397824	 0.3636765524	 0.110429
H	-0.9825660822	 2.3137148669	-0.4169285371	 0.110822
H	-0.8896760406	 2.0076937007	 1.3232370065	 0.120961
H	-1.5516998808	-0.071394264	 0.0692849455	 0.120391
H	-0.0753680519	 0.0243692325	-0.8889096469	 0.092477
H	 1.1838034857	-0.1033481183	 1.4475668045	 0.083202
H	-0.2761962823	-0.9182820339	 3.3987008405	 0.09743
H	-1.080970727	-3.667333062	 1.7708144629	 0.078359
H	-2.7650097953	-3.2340487894	-0.0005932646	 0.105574
H	-1.6913149828	-2.0707252951	-0.7662416991	 0.10577
H	 0.0462968733	-3.8798462062	-1.0962705	 0.121232
H	-1.0390281409	-5.0539917825	-0.3391775497	 0.116081
H	-1.4805365447	-4.3050246687	-1.8781867076	 0.117536
H	 1.2251651977	-2.5697318152	 1.4797289528	 0.092668
