19
gdb 118699	2.24907	1.06143	0.95281	3.5006	67.67	-0.236	0.0433	0.2793	1332.105	0.156043	-497.254038	-497.243714	-497.24277	-497.289433	37.793	
O	 0.0427284218	 1.4367255376	 0.0534185792	-0.417899
C	-0.0831306437	 0.0471772117	 0.3064206743	-0.06752
C	-1.3455983579	-0.5566871822	-0.3180820016	-0.261795
C	-1.430567799	-2.0581115029	-0.1538371542	 0.296811
O	-0.530682172	-2.8113665088	-0.928082053	-0.462731
C	-1.7983326164	-2.6896219484	 1.17627264	-0.052942
O	-2.1516674983	-1.8111783736	 2.2187939598	-0.428328
C	-2.7672406536	-2.7498712301	 0.0089951815	 0.05328
O	-3.9407547268	-2.0072395426	 0.1080403231	-0.428821
H	-0.708465305	 1.8763947381	 0.4645142632	 0.281102
H	 0.8112922559	-0.4058816137	-0.1378005208	 0.095904
H	-0.064247977	-0.1721053409	 1.3847391749	 0.102381
H	-2.2297959803	-0.0905949342	 0.1283276059	 0.093329
H	-1.3653083332	-0.3255462462	-1.3888140162	 0.117653
H	 0.3510787769	-2.7142380462	-0.5508177963	 0.284036
H	-1.2526533139	-3.5829375219	 1.4727639381	 0.096631
H	-2.6111042152	-2.3234142018	 2.8939134707	 0.299721
H	-2.8964018215	-3.6880881474	-0.5217200326	 0.114882
H	-3.9101602709	-1.5659611564	 0.9681650239	 0.284307
