21
gdb 101860	5.48185	0.53681	0.50832	5.2864	80.92	-0.2471	0.0224	0.2695	2103.3294	0.181042	-420.401832	-420.390883	-420.389939	-420.439007	37.94	
C	-0.067918446	 1.5707998639	-0.0697526785	-0.406332
C	 0.0242805575	 0.0395917838	-0.0177546832	 0.021341
C	 0.7258847331	-0.5061803966	-1.2636552011	-0.0771
O	-0.0413888682	-0.1405826357	-2.4000901213	-0.421072
C	 0.7392604153	-0.4686935944	 1.2401636534	-0.136155
N	 0.0182281171	-0.1069332106	 2.458353183	-0.305653
C	 0.6753307174	-0.6051536518	 3.6595389285	-0.25904
C	-0.0361348598	-0.17883993	 4.868048327	 0.255586
N	-0.5810387358	 0.1754726507	 5.822711797	-0.29753
H	 0.9243906858	 2.0279725555	 0.0339031588	 0.106658
H	-0.4858529062	 1.8854789525	-1.0279508089	 0.143748
H	-0.7124666438	 1.9693622376	 0.7198315721	 0.116486
H	-0.9922325417	-0.3726189484	-0.0120219049	 0.100315
H	 1.7474504173	-0.0941148985	-1.3244375992	 0.083865
H	 0.8173602863	-1.6017066079	-1.186189039	 0.084884
H	 0.4327794356	-0.4193617488	-3.1884123982	 0.288815
H	 0.7971157581	-1.5649585709	 1.207775025	 0.102781
H	 1.7847341949	-0.1005896461	 1.2448881256	 0.079263
H	-0.070073684	 0.901465683	 2.5225777918	 0.233767
H	 0.6800851941	-1.7022781015	 3.6317406775	 0.155798
H	 1.732004693	-0.2933739258	 3.7616376244	 0.129574
