17
gdb 35809	2.48443	1.72058	1.30273	1.4596	72.09	-0.2533	0.0289	0.2822	1003.3797	0.136438	-421.763742	-421.756029	-421.755085	-421.796521	29.28	
C	-0.3508359211	-1.1403639525	 0.1772086075	-0.480448
C	-0.1693448466	 0.0393643974	 0.0335935717	 0.370424
C	 0.0248781937	 1.4813970293	-0.1452495989	-0.109183
O	-0.6850018478	 2.23583666	 0.8400530812	-0.243033
C	 0.1636495303	 2.4011254395	 1.9737213204	-0.106865
C	 1.5865600119	 2.5273854565	 1.4078082193	 0.110058
O	 2.4992758554	 1.4856167348	 1.8155062729	-0.290967
C	 2.5926141121	 0.9846326386	 0.4623489195	-0.091742
C	 1.502226821	 1.958964823	-0.0253064351	-0.102251
H	-0.5195890818	-2.1814304657	 0.3041938117	 0.204138
H	-0.4006293294	 1.7724222542	-1.1110067875	 0.113879
H	-0.1858997164	 3.2879346163	 2.5076621332	 0.111744
H	 0.1230034062	 1.5304853932	 2.6426380334	 0.115382
H	 2.0258549667	 3.5215900808	 1.5394733834	 0.084992
H	 3.5823091352	 1.178698211	 0.0315907483	 0.099675
H	 2.3633905166	-0.0828731444	 0.3961438702	 0.121863
H	 1.7708640039	 2.6149358278	-0.8518891515	 0.092336
