19
gdb 93054	2.49092	1.58643	1.02093	3.2952	86.37	-0.2387	-0.0692	0.1695	1169.3638	0.16032	-385.929917	-385.921559	-385.920615	-385.963041	31.936	
C	-0.0386692859	 1.6332855006	-0.0152041091	-0.390222
C	 0.1560054589	 0.1148450545	 0.0052273874	-0.103842
C	 0.6237530304	-0.419433433	-1.3670934984	-0.27006
C	 0.314122382	-1.8684828184	-1.6115520321	-0.074019
C	 0.5732273824	-2.8747741436	-0.7626203258	-0.072621
C	 1.2563380402	-2.7804815118	 0.5168853226	-0.068171
C	 1.5221170574	-1.7077339107	 1.2906955907	-0.148954
C	 1.1078059028	-0.297080208	 1.1343388853	 0.352023
O	 1.5024083816	 0.5221542602	 1.9453981125	-0.33145
H	 0.8932066144	 2.1415836447	-0.2823750311	 0.123061
H	-0.8033671082	 1.9087588332	-0.748036181	 0.102825
H	-0.339316714	 2.0032871238	 0.9660956107	 0.133736
H	-0.8080389414	-0.3655807745	 0.2327988068	 0.100451
H	 0.1529936384	 0.1820624025	-2.1506459489	 0.110973
H	 1.7078123022	-0.2510335159	-1.4718096972	 0.124567
H	-0.1430195021	-2.1151226296	-2.5665313149	 0.102478
H	 0.3158600855	-3.883894419	-1.0735597861	 0.095758
H	 1.6242347184	-3.7343383343	 0.8917535598	 0.105814
H	 2.0988941771	-1.8568268907	 2.1992530887	 0.107653
