13
gdb 124024	3.7941	1.69122	1.17837	6.8181	66.14	-0.2381	-0.0449	0.1932	937.5229	0.092861	-448.897884	-448.891548	-448.890604	-448.928927	23.982	
C	 0.002136434	 1.4781792485	 0.1807235668	-0.272235
N	 1.3137072964	 1.9764896272	-0.2460554299	-0.301007
C	 2.3464496134	 1.203959031	-0.6802086025	 0.096957
N	 2.3858146655	-0.0822686703	-0.8024004092	-0.34516
C	 1.204053901	-0.6899352878	-0.4309855687	 0.344748
N	 0.952270988	-1.9755375728	-0.448963965	-0.177262
O	-0.3397669126	-2.0935283544	 0.0030203009	-0.156414
N	-0.8937726939	-0.8683370961	 0.3039733311	-0.179695
C	 0.0411637471	-0.0097132016	 0.0418476539	 0.292994
H	-0.1990585088	 1.7741282781	 1.2187800452	 0.149854
H	-0.791871806	 1.9134225531	-0.4403640281	 0.149848
H	 1.4604977506	 2.9714217645	-0.2149855003	 0.264693
H	 3.2330818053	 1.7756530306	-0.9491061142	 0.132678
