21
gdb 109108	2.70407	1.1948	0.93954	2.7531	85.07	-0.2369	-0.0144	0.2225	1326.5376	0.181395	-387.137658	-387.128075	-387.127131	-387.1726	35.376	
C	-0.2940853299	 1.4467789938	-0.0589760835	-0.376759
C	 0.1696809784	-0.0172189076	 0.0462001044	-0.290567
C	 0.833364865	-0.5254242972	-1.200515652	 0.3391
C	 2.1097853584	-0.9104524382	-1.3119648716	-0.195656
C	 2.4845048726	-1.3565015299	-2.6973492597	-0.373126
C	 1.1545045834	-1.2600064927	-3.4565554728	 0.396632
O	 0.9533885627	-1.6255295778	-4.5854212119	-0.313957
C	 0.0954080606	-0.6441132634	-2.521186679	-0.200557
C	-1.1986771954	-1.4725636989	-2.5063818512	-0.398979
H	 0.5519369756	 2.1111876996	-0.2608724274	 0.121532
H	-1.0238542699	 1.581303807	-0.8637807804	 0.121266
H	-0.765758377	 1.7709051549	 0.8734837539	 0.116797
H	 0.8625283086	-0.1220168479	 0.8887706486	 0.102711
H	-0.7003813846	-0.6456154624	 0.2804489246	 0.108278
H	 2.819538036	-0.9023736251	-0.4911773159	 0.091151
H	 3.2352417294	-0.714813415	-3.1793249865	 0.134078
H	 2.8800295586	-2.3785325721	-2.7548645583	 0.134157
H	-0.1466379909	 0.3519519075	-2.9228124791	 0.107061
H	-1.0306385277	-2.4541631748	-2.0515118281	 0.119676
H	-1.9899250805	-0.9681655895	-1.9444762194	 0.116662
H	-1.5443233934	-1.6265626503	-3.5318721347	 0.1405
