18
gdb 112306	3.10807	1.24874	0.97591	2.8051	72.86	-0.2373	-0.0189	0.2184	1210.2502	0.147742	-439.072376	-439.064083	-439.063138	-439.10561	30.99	
C	 0.0737851938	 1.3128172118	 0.1578423713	-0.237467
O	-0.164088565	-0.0526415579	-0.1048224179	-0.247053
C	 0.5427534114	-0.5526104217	-1.2137974863	 0.15887
C	 2.0707589318	-0.7296101261	-1.0151117873	-0.382358
C	 2.4302174069	-1.9422111592	-1.8830678102	 0.447622
O	 3.4687603991	-2.132309285	-2.4617384831	-0.323386
C	 1.1965873911	-2.7968349309	-1.9743092266	-0.168316
N	 0.5649452517	-2.9673313442	-0.6326244426	-0.321092
C	 0.043270569	-1.9508070507	-1.5472399212	-0.07602
H	 1.1183450959	 1.5058766702	 0.4420435843	 0.111954
H	-0.1692771584	 1.9422487404	-0.7130162794	 0.104381
H	-0.5734279451	 1.597554144	 0.9904458088	 0.130858
H	 0.3660350509	 0.094764565	-2.0903845347	 0.072792
H	 2.6747056173	 0.1345533321	-1.2926528266	 0.121895
H	 2.2639811152	-0.9801186778	 0.0333776306	 0.153961
H	 1.129046558	-3.5826691022	-2.7168755526	 0.107931
H	-0.0327873885	-3.7900724446	-0.6705964434	 0.244163
H	-0.9436515852	-2.0732412132	-1.980193243	 0.101264
