18
gdb 66504	3.42096	1.91876	1.72988	2.259	79.74	-0.202	-0.0833	0.1188	862.5102	0.148324	-364.655532	-364.648866	-364.647921	-364.685972	28.232	
C	 0.0213087297	 1.4829993364	 0.0622502574	-0.519707
C	-0.0310112708	-0.0060045243	-0.071868068	 0.379675
C	 0.6716177831	-0.8542953843	-1.0633049513	-0.111155
N	 1.0582145539	-0.9250188285	 0.3884279323	-0.186902
C	 0.0433845735	-1.953676038	 0.7952387955	-0.033674
C	-0.106642907	-2.9289329149	-0.3318424043	-0.063663
C	-0.2276077152	-2.0543895293	-1.3916871034	-0.0434
C	-1.6739491038	-1.5511624201	-1.0838971665	-0.25112
C	-1.1914144423	-0.9509792495	 0.3193280505	-0.121796
H	 1.0052515547	 1.8568141409	-0.2375376461	 0.132843
H	-0.7320770513	 1.9596149759	-0.5757359219	 0.122164
H	-0.161370158	 1.7993458606	 1.094998755	 0.123779
H	 1.4249676298	-0.4732340865	-1.742012162	 0.089344
H	 0.1083510854	-2.2719146019	 1.8346734684	 0.082795
H	-0.7921783652	-3.7672213129	-0.2143335761	 0.111394
H	-2.0502509365	-0.7607527	-1.7428268411	 0.106192
H	-2.419618119	-2.3434846838	-0.9950965533	 0.111019
H	-1.9366966211	-0.5716105794	 1.0233495651	 0.07221
