17
gdb 23550	2.15808	1.66256	1.03122	2.2015	73.6	-0.2316	0.0001	0.2317	1147.4652	0.134468	-455.026607	-455.017861	-455.016916	-455.060286	32.094	
C	 0.0474885692	 1.3683357049	-0.1205948366	-0.245125
O	-0.23306364	 0.0069098562	 0.1551121305	-0.239115
C	 0.6030843263	-0.5787557193	 1.0946271697	 0.074062
C	 0.1787154932	-1.9761497563	 1.5627388348	-0.098017
N	 0.2997298224	-2.8842039824	 0.409485843	-0.316757
C	 1.5209804794	-2.5540621266	 1.210707066	-0.166737
C	 1.9737960903	-1.2273668404	 0.7129958434	 0.437098
N	 3.1272006059	-0.8560377767	 0.3508746671	-0.270097
O	 3.1637511446	 0.5215988863	 0.0541526785	-0.388117
H	 1.0444345531	 1.4963864283	-0.5560858243	 0.138039
H	-0.7126550815	 1.7067140106	-0.8281023793	 0.124641
H	-0.0176659318	 1.9810485229	 0.7921302572	 0.099996
H	 0.7767871827	 0.0873789718	 1.9565031643	 0.088725
H	-0.4625941449	-2.2060679084	 2.4034606121	 0.106144
H	-0.0073238039	-3.8045903609	 0.7273299207	 0.235383
H	 2.1018446708	-3.3213273433	 1.703404274	 0.112291
H	 4.082124154	 0.6478292133	-0.2076360911	 0.307586
