17
gdb 12982	2.71368	2.63787	1.61501	2.9864	69.37	-0.2515	0.0296	0.2811	832.8194	0.143603	-363.879151	-363.871941	-363.870997	-363.910292	27.776	
C	-0.0910822429	 1.5114431233	-0.0270714833	-0.475522
C	 0.03767825	 0.0106852612	 0.0077937509	 0.262836
C	-0.7889151781	-0.8371012162	 0.9615359903	-0.320686
C	 0.7045491392	-0.8014170697	 1.1010147723	-0.107636
C	 1.4532786514	-1.9147569178	 0.3967368359	-0.107088
O	 1.0106634969	-1.8877986067	-0.9724939811	-0.251547
C	 0.3766687501	-0.7045189772	-1.2569476714	 0.370026
N	 0.12318879	-0.2895272327	-2.4228290771	-0.553038
H	 0.8394096589	 1.9810662102	-0.3605814044	 0.126249
H	-0.8772673102	 1.8049987336	-0.7281350378	 0.146864
H	-0.3415221612	 1.9053297393	 0.9623445503	 0.109553
H	-1.3716556185	-0.2911112529	 1.6953672338	 0.119624
H	-1.2605660324	-1.7412518852	 0.5890457367	 0.126224
H	 1.161725498	-0.3270500608	 1.9608337125	 0.099879
H	 2.5376051274	-1.7503609334	 0.4234645718	 0.114337
H	 1.2403748183	-2.9127748239	 0.7933857473	 0.118582
H	 0.487830813	-0.9386428911	-3.1217616869	 0.221342
