17
gdb 119447	4.6691	0.89996	0.85729	4.5668	69.9	-0.2728	0.0028	0.2756	1371.495	0.134375	-458.945763	-458.937129	-458.936185	-458.979905	30.928	
C	-0.6169432649	 1.3588979846	-0.4933194427	-0.225667
O	-0.8000949257	-0.0354294647	-0.6083035959	-0.239476
C	-0.6789869777	-0.7073544087	 0.6223067444	-0.176966
C	-0.8562024047	-2.1684026387	 0.3569111319	 0.44773
C	-0.4501712063	-2.9688487216	-0.8177891933	-0.326301
C	-1.927421909	-2.9448554949	-0.3693861076	-0.310047
C	-2.0276219796	-3.714147906	 0.9177966772	 0.458199
O	-2.7143876951	-4.5463420956	 1.4107995716	-0.320773
O	-0.9586333282	-3.0418016598	 1.5182160894	-0.305649
H	-0.7301549497	 1.782916671	-1.493236731	 0.135013
H	-1.3646536449	 1.8123646166	 0.1747714701	 0.113851
H	 0.3849230256	 1.6057491429	-0.1104261948	 0.113112
H	 0.3097891453	-0.5283942132	 1.0788565914	 0.10837
H	-1.4393414805	-0.369432796	 1.3454491686	 0.110425
H	-0.2729914746	-2.4064247299	-1.7283203789	 0.148632
H	 0.1442509241	-3.8669537342	-0.6856253665	 0.134844
H	-2.736342094	-2.6349694019	-1.013504904	 0.134703
