20
gdb 99853	2.07856	1.36325	1.04686	4.3872	75.09	-0.2825	0.0359	0.3184	1234.7971	0.167954	-440.295535	-440.284746	-440.283801	-440.330843	39.141	
C	-0.0674684022	 1.567762415	 0.1685007974	-0.427992
C	-0.0199636349	 0.0499325644	-0.0183598861	 0.110058
O	-1.3278152297	-0.5008836128	-0.083304478	-0.430817
C	 0.6975899249	-0.4184873166	-1.3157287745	 0.062077
C	-0.0524088977	-0.0039017177	-2.5983193399	-0.417657
C	 2.166778765	 0.0976339484	-1.3553494707	-0.092552
O	 2.9089607752	-0.4498097448	-2.4198058788	-0.418522
C	 0.7863875989	-1.889241345	-1.2679927759	 0.282821
N	 0.9488683852	-3.034095279	-1.2515623362	-0.358519
H	 0.9322335831	 2.0011721492	 0.2650526969	 0.128546
H	-0.5892611129	 2.0566981771	-0.6578300054	 0.136281
H	-0.610753284	 1.7999194598	 1.0909183935	 0.115826
H	 0.5319847341	-0.3887230235	 0.8279237168	 0.084886
H	-1.7635991059	-0.35144589	 0.7613498667	 0.290077
H	-0.1106686178	 1.0859721817	-2.6633532557	 0.119458
H	 0.4918711983	-0.3652002248	-3.4724058752	 0.144371
H	-1.0640451593	-0.4100988771	-2.6032599048	 0.150795
H	 2.153602578	 1.1780571254	-1.5215413064	 0.119929
H	 2.6462115181	-0.0931010045	-0.3828907093	 0.101468
H	 2.9824041735	-1.4010930752	-2.2747036944	 0.299467
