18
gdb 26695	2.246	1.55745	0.93274	1.2116	75.67	-0.1669	0.0553	0.2223	1229.9201	0.144839	-439.122802	-439.112198	-439.111253	-439.158447	36.994	
C	 0.0073997691	 1.5320510906	 0.0189391044	-0.512489
C	 0.0315669236	 0.0355737745	 0.0125738753	 0.106603
C	 0.0172439578	-0.7688466732	-1.093716505	 0.225993
O	-0.0784091566	-0.4878502208	-2.4284286688	-0.437025
N	 0.0488045429	-2.0911679702	-0.6846490544	-0.350196
C	 0.0725304265	-2.1200336827	 0.6830858543	 0.299607
O	 0.0915576936	-3.3436043641	 1.2807463738	-0.440618
C	 0.0770882009	-0.8357371421	 1.1671563129	 0.052664
C	 0.1163674624	-0.4106118827	 2.6031227278	-0.512097
H	 0.9318214243	 1.96451167	 0.4237720114	 0.1157
H	-0.123921444	 1.9174568538	-0.9965022164	 0.118415
H	-0.8169449511	 1.9235792949	 0.6275791437	 0.121514
H	 0.7648164647	-0.1437827516	-2.7425239508	 0.301817
H	-0.0246268774	-2.8921549558	-1.2869104906	 0.264238
H	 0.026471111	-3.2122506986	 2.2315223702	 0.30219
H	 0.9984982462	 0.2009533267	 2.831156357	 0.12543
H	-0.7633435712	 0.1813042764	 2.8859150694	 0.126167
H	 0.1489294873	-1.2704847953	 3.2835933459	 0.092087
