19
gdb 66192	3.55423	1.16603	1.10934	2.976	76.86	-0.2492	0.006	0.2551	1173.206	0.158759	-423.008879	-423.000248	-422.999304	-423.042746	32.498	
O	 0.1113727302	 1.2836685481	 0.2503368562	-0.474277
C	-0.0847880715	-0.1283002811	 0.1355564498	 0.343133
C	 0.5077697714	-0.711098164	-1.1860624131	-0.269177
C	 1.8190758936	-1.4400838756	-0.7980724695	-0.269218
C	 1.7325230871	-1.5375220357	 0.7054607491	-0.072097
C	 0.6967689905	-0.8657145087	 1.2059205654	-0.142735
C	-1.5789890577	-0.3761977151	 0.2423403177	 0.063652
C	-2.5142409042	 0.5882887326	 0.8299058634	-0.183843
O	-2.435569431	 0.4024562197	-0.5879640969	-0.246498
H	 1.0527459654	 1.4291506535	 0.3881317515	 0.274759
H	-0.1972802355	-1.4211701029	-1.6274174827	 0.111717
H	 0.6493999184	 0.0938908982	-1.9094284922	 0.117893
H	 1.8977366313	-2.4262817327	-1.2696538749	 0.11258
H	 2.719790212	-0.8908753261	-1.1036176134	 0.109188
H	 2.4601121059	-2.0865722775	 1.2945903762	 0.100763
H	 0.4439327318	-0.7713974739	 2.2563143819	 0.098738
H	-1.8346723029	-1.43690659	 0.2786198934	 0.089537
H	-3.4316279804	 0.2304933827	 1.296067444	 0.105542
H	-2.1312742042	 1.5390758883	 1.1887253641	 0.130342
