16
gdb 31194	2.02665	1.64145	0.95937	7.4364	78.11	-0.2414	-0.0135	0.2279	1197.7993	0.126316	-396.995854	-396.987545	-396.9866	-397.02954	29.977	
C	 0.0441087541	 1.5622929385	 0.348654648	-0.374787
C	-0.0193993469	 0.0995334692	-0.1273692264	-0.318459
C	-1.3975309297	-0.4739077994	-0.1257963798	 0.249971
C	-2.2268156858	-0.8890252244	-1.1509385302	 0.108755
N	-3.439195774	-1.3453163425	-0.6647193705	-0.305259
C	-3.3504606175	-1.2105421379	 0.6312227454	 0.006002
N	-2.1410727974	-0.6886203118	 1.008005485	-0.295998
C	-1.9091860207	-0.865019173	-2.5344951874	 0.219117
N	-1.6119929761	-0.8290154495	-3.6534079026	-0.355365
H	 1.0735457481	 1.9292573694	 0.3131187828	 0.129302
H	-0.5720392522	 2.2052919626	-0.2857456253	 0.140126
H	-0.311223983	 1.6683731532	 1.3791931608	 0.109871
H	 0.3656146034	 0.0270396726	-1.1486483221	 0.148829
H	 0.6394834106	-0.5187374662	 0.4965135975	 0.119188
H	-4.1148187226	-1.4686032748	 1.3487089658	 0.144203
H	-1.8402056203	-0.5009104158	 1.9507047993	 0.274504
