16
gdb 7131	7.52875	0.85902	0.77847	3.5999	64.99	-0.2415	-0.0128	0.2287	1393.9195	0.129315	-417.077518	-417.068243	-417.067299	-417.113141	31.005	
O	-0.2888255139	 1.5521981326	 0.0133369253	-0.426486
C	 0.0121237894	 0.164294346	 0.0025905256	-0.072733
C	-1.3170721961	-0.5764295101	 0.0115365255	-0.319201
C	-1.1283848122	-2.0901232707	 0.0007408048	 0.430115
O	-0.0468277908	-2.623725551	-0.0141420599	-0.310706
N	-2.3430855318	-2.7795264976	 0.0104306693	-0.330733
C	-2.5800558181	-4.1527588947	 0.0050626758	 0.086004
N	-1.6768137183	-5.0403533374	-0.0090530151	-0.397332
H	 0.5420365785	 2.0358689663	 0.0084672721	 0.2888
H	 0.5871726937	-0.1237147648	-0.888087577	 0.108374
H	 0.6046015871	-0.1335857256	 0.8784875315	 0.108317
H	-1.8950235282	-0.2813737513	 0.89669887	 0.130467
H	-1.9124024443	-0.2711878525	-0.8585354263	 0.130543
H	-3.1713869798	-2.2054760385	 0.0227086451	 0.253374
H	-3.6608820755	-4.3470568826	 0.0152844482	 0.092519
H	-2.1080934499	-5.9635225782	-0.0096578747	 0.228681
