17
gdb 80279	2.52176	1.58741	1.27742	3.7842	68.14	-0.2302	0.0547	0.285	1033.6589	0.136246	-455.172145	-455.163716	-455.162772	-455.204676	32.435	
C	-0.0236239554	 1.5519473086	 0.0146805198	-0.47116
C	 0.0093180759	 0.0460572852	 0.0215815411	 0.283926
N	-1.2384628021	-0.6370501289	-0.1693374806	-0.379493
C	-1.3560667484	-1.8079119609	 0.5627848348	 0.422473
O	-2.2752596673	-2.592434782	 0.5563356373	-0.399357
N	-0.166289199	-1.9252697395	 1.294615614	-0.37119
C	 0.7011598613	-0.7977371683	 1.0845306531	-0.127913
C	 1.2814381176	-0.7391646949	-0.3154970141	 0.06833
O	 1.2404167234	-1.8638663039	-1.1229798599	-0.434261
H	 0.9629187899	 1.9606389647	 0.2524346315	 0.12394
H	-0.3072154311	 1.9339027011	-0.9728593212	 0.126824
H	-0.7417337743	 1.9333900615	 0.7477821061	 0.129931
H	-1.7822170601	-0.5465991054	-1.0120116545	 0.259706
H	-0.1767117823	-2.4469545891	 2.1548426296	 0.261146
H	 1.2073828966	-0.3791986928	 1.9468571806	 0.106198
H	 2.1823192793	-0.1446066173	-0.4469863203	 0.103347
H	 0.9553953759	-2.6036599979	-0.5680404973	 0.297553
