21
gdb 72450	2.26776	2.11549	1.48245	1.43	80.11	-0.2445	0.0747	0.3191	975.5803	0.186093	-387.093439	-387.086293	-387.085349	-387.124284	31.081	
O	-0.0847714327	 1.3788767436	 0.0422335485	-0.509362
C	 0.0160853152	-0.0243234829	 0.0451519509	 0.428401
C	 0.7619051868	-0.6507342514	-1.1697951062	-0.252818
C	 1.0648347587	-2.1061671942	-0.688517834	-0.20367
C	 0.4523237578	-2.1367100838	 0.743173813	-0.031284
C	 0.7710653486	-0.7047409316	 1.2142006289	-0.305777
C	-1.0669796629	-2.1079239201	 0.5448576463	-0.013747
C	-1.9295733845	-1.1910026217	 1.3752732063	-0.338941
C	-1.3565919094	-0.6908404235	 0.0748919422	-0.034002
H	 0.8004931703	 1.7406265563	-0.0726902348	 0.27104
H	 0.1555341304	-0.6123001468	-2.0787599029	 0.098608
H	 1.6857818354	-0.0942894252	-1.3691593176	 0.078639
H	 0.6171750343	-2.863585467	-1.3384364633	 0.094395
H	 2.141373315	-2.3001734002	-0.6559130683	 0.091554
H	 0.8257628543	-2.9503931936	 1.3687206526	 0.058146
H	 1.8441670923	-0.4883048095	 1.1898429435	 0.080205
H	 0.3902804945	-0.4405562056	 2.2006522157	 0.101907
H	-1.5302922024	-2.964328055	 0.0659503699	 0.080374
H	-2.9919443751	-1.4108586898	 1.3567814134	 0.108632
H	-1.5903842263	-0.8019605428	 2.3278370399	 0.114123
H	-2.0233425204	-0.4826461451	-0.7547014241	 0.083578
