23
gdb 88541	3.24372	1.12668	1.05481	0.2905	89.93	-0.232	0.0897	0.3217	1290.3489	0.206363	-351.117775	-351.10888	-351.107935	-351.151572	34.912	
C	 0.2851285219	 1.5236905084	-0.3986059521	-0.411469
C	 0.0519779915	 0.0645116102	-0.0734922888	 0.019298
C	 1.1948667363	-0.9184873807	-0.0683132992	-0.312356
C	 0.5151136868	-0.5578371967	 1.2337475837	-0.146509
C	 1.1718074217	 0.2272143938	 2.3147537511	 0.403625
C	 2.5752453924	 0.7700831118	 2.2869688994	-0.324497
C	 2.2059813325	-0.2035387208	 3.3720722917	-0.110388
C	 1.4246838542	 0.5135265117	 4.4757978079	-0.219895
C	 0.377487086	 0.9699250405	 3.4085002364	-0.288787
H	 1.2417895742	 1.8756660649	-0.003919449	 0.126158
H	 0.2918489922	 1.6855176683	-1.4825260057	 0.111932
H	-0.5020304754	 2.157293703	 0.0256175058	 0.114436
H	-0.8931861981	-0.3227788468	-0.4464366487	 0.078444
H	 1.0391217498	-1.9137122741	-0.4706685152	 0.106336
H	 2.1882657328	-0.5213482439	-0.2498073263	 0.107893
H	-0.1580887589	-1.3214155961	 1.6204221854	 0.076281
H	 3.2216967466	 0.3689493108	 1.5136817883	 0.10929
H	 2.7687525155	 1.814657228	 2.5275317967	 0.096667
H	 2.7173918271	-1.1543385674	 3.469546958	 0.081716
H	 0.992907944	-0.1663232524	 5.2138945959	 0.099557
H	 1.9654235988	 1.3037353353	 5.00822373	 0.092094
H	 0.2519017462	 2.0481566557	 3.2611732806	 0.090844
H	-0.6075045579	 0.5289784566	 3.5823248242	 0.09933
