19
gdb 45365	2.65053	1.64326	1.48682	1.9784	73.39	-0.2398	-0.0162	0.2236	978.9964	0.162285	-423.07249	-423.06525	-423.064306	-423.10444	28.898	
O	 0.0011220189	-0.0824564246	-0.1305587614	-0.310634
C	-0.0133874844	 1.121845402	-0.0311224104	 0.379924
C	-1.3048393738	 1.9285822971	 0.0653898104	-0.306879
C	-1.1506750531	 3.0746038764	 1.0880892462	 0.07672
C	-0.7760032829	 2.562740261	 2.4984442322	-0.232143
C	 0.7785725883	 2.5831372362	 2.4775922376	-0.232152
C	 1.1017326465	 3.1042213665	 1.057895975	 0.076724
C	 1.2585197123	 1.9623075757	 0.0310083131	-0.306879
O	-0.039923242	 3.8842993301	 0.6999822425	-0.256499
H	-1.5034490281	 2.3742041956	-0.917664337	 0.126547
H	-2.1312656362	 1.2553649649	 0.3086398715	 0.118139
H	-2.0375877081	 3.7121118656	 1.0838044232	 0.085055
H	-1.1643363941	 3.2377388662	 3.2640498641	 0.110696
H	-1.1839314494	 1.5684046489	 2.6959567347	 0.115471
H	 1.1694647865	 3.2683078927	 3.2327882422	 0.110696
H	 1.2175866813	 1.5998991209	 2.6636826394	 0.115474
H	 1.9711418368	 3.7648293236	 1.0300899973	 0.085055
H	 2.1085957482	 1.3111474396	 0.2517651654	 0.118139
H	 1.4189038234	 2.4126679117	-0.9568540259	 0.126547
