17
gdb 88885	3.76047	0.96874	0.83747	3.8371	75.03	-0.233	-0.0566	0.1764	1352.2855	0.134622	-455.13142	-455.122306	-455.121361	-455.16583	33.583	
N	-0.0362837608	 0.5962988816	 1.0607365046	-0.552192
C	-0.2022025651	-0.2449445191	-0.0005511023	 0.267018
C	 1.0783240959	-0.8393595346	-0.5204691784	 0.147302
O	 2.1514057927	-0.6552227947	 0.0014090663	-0.269396
N	-1.2488951035	-0.5895437318	-0.6587298696	-0.296542
C	-2.5441003235	-0.0453643947	-0.3832061265	 0.018357
C	-3.6838570698	-0.9796739198	-0.0410006088	-0.328118
C	-3.2317760749	 0.0593639175	 0.9582983875	 0.054076
O	-2.5129721891	-0.3393103894	 2.0939879614	-0.420119
H	 0.8917937194	 0.5540091865	 1.4606315348	 0.261953
H	-0.801612695	 0.6659593608	 1.7166717024	 0.2769
H	 0.9342869893	-1.4629061968	-1.4222138941	 0.105718
H	-2.7920128395	 0.7559425692	-1.0785789841	 0.110329
H	-4.6449416782	-0.8703736337	-0.5311619562	 0.113543
H	-3.3856485559	-2.0000194306	 0.1771201043	 0.124709
H	-3.8738006198	 0.9260742286	 1.1178137993	 0.090319
H	-3.1177400122	-0.761089499	 2.7128078192	 0.296142
