19
gdb 80344	2.18349	1.48492	1.35712	3.6455	80.42	-0.247	0.0252	0.2723	1092.0988	0.158678	-382.044958	-382.036014	-382.03507	-382.078256	33.516	
C	-0.191216963	 1.4496587105	-0.1509430062	-0.332988
N	 0.0957562989	 0.0350336445	 0.0419123794	-0.107069
C	 1.3842395709	-0.57255419	-0.1844764665	-0.097483
C	 2.5539949812	 0.3082071282	 0.291484593	-0.273636
C	 1.9359324351	 0.2966264046	 1.7317631798	-0.196687
C	 1.6635794207	 1.5501122831	 2.4193365654	 0.272966
N	 1.4457469332	 2.542576734	 2.9725489266	-0.341448
C	 0.7368974095	-0.549557503	 1.1883085158	 0.307381
C	 0.0313714152	-1.5886958556	 2.008236057	-0.487949
H	 0.6248251865	 2.1350699049	 0.1090214193	 0.126135
H	-0.448728481	 1.6055692911	-1.2029434504	 0.12537
H	-1.0595517816	 1.7180287712	 0.4568349076	 0.137315
H	 1.4633911678	-1.3841405818	-0.9003775697	 0.100523
H	 3.5192042305	-0.1995540568	 0.264421628	 0.120551
H	 2.6553929797	 1.284813083	-0.1865131084	 0.123737
H	 2.5472354099	-0.3245256881	 2.3924859789	 0.129345
H	-0.6014307977	-1.1188240974	 2.7703051169	 0.135666
H	-0.6091698241	-2.1990345914	 1.3673162549	 0.138921
H	 0.7442690783	-2.2420901509	 2.5222661887	 0.119351
