15
gdb 12773	4.01376	1.68511	1.3243	1.4637	64.89	-0.2455	0.0151	0.2606	929.2172	0.117313	-399.754047	-399.746278	-399.745333	-399.786199	28.322	
C	-0.0054059941	 1.3953100579	-0.0522531354	-0.340345
N	-0.0587760031	-0.0602939333	-0.0649061831	-0.349236
C	 0.6054812041	-0.6909882995	-0.9127350416	 0.398657
O	 1.4150026526	-0.2415119823	-1.9689533871	-0.285866
C	 1.4791127347	-1.5885041907	-2.5093258401	 0.004848
C	 2.184600541	-2.4717133568	-1.5292796461	-0.325875
C	 0.725911296	-2.1326164651	-1.2965444412	 0.247211
O	-0.1988853648	-3.1184546991	-1.0857321087	-0.436796
H	 0.5192643726	 1.828251571	-0.9115545531	 0.130814
H	-1.0267697547	 1.7883689571	-0.0218502204	 0.127677
H	 0.4922142082	 1.7268060091	 0.8658906966	 0.133472
H	 1.3782580096	-1.7067247818	-3.5786588127	 0.129193
H	 2.3167064846	-3.4993551074	-1.8570460522	 0.13526
H	 2.9736629029	-2.0748456916	-0.8971429205	 0.130549
H	-1.0763560497	-2.7247200776	-1.1626192745	 0.300436
