19
gdb 118812	2.26993	1.03124	0.80494	0.974	78.68	-0.2426	0.0425	0.2851	1448.1788	0.155897	-422.968657	-422.958489	-422.957545	-423.003906	37.485	
O	 0.1288532085	 1.3906644699	 0.1850028797	-0.417607
C	 0.0338452214	-0.0206658172	 0.2663431401	-0.063676
C	-1.3236508376	-0.5503028098	-0.205902958	-0.266981
C	-1.4400462548	-2.0561703273	-0.0999110831	 0.393964
O	-0.5810082534	-2.7749201234	-0.9501473118	-0.470663
C	-1.80816683	-2.7115516752	 1.2026967535	-0.349661
C	-2.7987513428	-2.719280752	 0.0354366155	-0.257082
C	-4.0117287689	-1.9607429882	 0.0979798378	 0.333394
C	-5.034659402	-1.3291381974	 0.1487425772	-0.453912
H	 0.0229731211	 1.6395704472	-0.7389378533	 0.28263
H	 0.8449707378	-0.5050358287	-0.3020624291	 0.078151
H	 0.185508585	-0.2672717451	 1.3231495851	 0.113251
H	-2.1165018599	-0.0718789901	 0.3759510046	 0.121983
H	-1.4779602119	-0.2674590864	-1.2561315939	 0.100265
H	 0.295068004	-2.7885623353	-0.5498060493	 0.286425
H	-1.3385285141	-3.6589092598	 1.4418534291	 0.119471
H	-2.0505116101	-2.0815588456	 2.0510105864	 0.128781
H	-2.8641006636	-3.6625971586	-0.4979880359	 0.125853
H	-5.9379104086	-0.772855087	 0.1904925054	 0.195416
