14
gdb 19248	3.32935	2.02284	1.60368	1.9173	62.7	-0.2495	0.036	0.2855	810.3188	0.10561	-382.456693	-382.449472	-382.448528	-382.48813	27.304	
O	 0.0112237397	 1.3825626645	 0.2301438271	-0.419917
C	 0.0236515182	 0.0067763564	 0.0455192279	 0.125118
C	-1.3333785646	-0.7147728125	 0.0456317405	-0.024286
O	-2.0646939631	-0.1495575439	-1.0546045538	-0.247375
C	-1.1401531675	-1.2048340702	-1.3270420854	 0.029679
C	 0.2584606849	-0.5689434728	-1.4393897404	-0.302667
C	 0.4771354504	 0.385948176	-2.5022409854	 0.336667
C	 0.6463578227	 1.2070667105	-3.3642361402	-0.435695
H	-0.6441677478	 1.7383188561	-0.3844097382	 0.295752
H	 0.7461436351	-0.4160810082	 0.746676958	 0.103494
H	-1.9099666019	-1.1133151154	 0.8720194713	 0.113661
H	-1.5202099182	-2.0898778793	-1.8222660629	 0.117635
H	 1.0456094538	-1.3293138227	-1.4187757799	 0.108815
H	 0.7998357282	 1.9225943617	-4.1337328785	 0.199117
