15
gdb 35626	2.14533	1.73202	1.09172	6.4891	74.2	-0.288	-0.0246	0.2634	1076.8438	0.114087	-379.705943	-379.698059	-379.697115	-379.738912	28.696	
N	-0.6699329221	-0.8342436934	-0.943309292	-0.313098
C	-0.3743759677	 0.1764007709	-0.4679942842	 0.280562
C	-0.0349567896	 1.4585651319	 0.1361887153	-0.162594
C	-0.2635085878	 1.5312834708	 1.6734072257	-0.266513
C	 0.7580086121	 2.5546097628	 2.0998828605	-0.057099
C	 1.6752803404	 2.7869382976	 1.1657364178	-0.070961
C	 1.4465800441	 1.9391069253	-0.078471651	-0.210782
C	 2.43072639	 0.8531777672	-0.1569703066	 0.286976
N	 3.2289291037	 0.0189495671	-0.2026713292	-0.312353
H	-0.6659934464	 2.2216578216	-0.3308335656	 0.146245
H	-1.294007597	 1.8124423641	 1.9078100225	 0.134004
H	-0.078336695	 0.5630806554	 2.154293518	 0.150935
H	 0.7430626139	 3.0126680433	 3.0817482134	 0.121439
H	 2.53368254	 3.4405436806	 1.2511141363	 0.129038
H	 1.5237519614	 2.5160962647	-1.0059839707	 0.1442
