16
gdb 125337	5.18952	1.24784	1.0186	5.6356	78.89	-0.2363	-0.0281	0.2082	1129.2957	0.12663	-396.942349	-396.935249	-396.934305	-396.973804	27.274	
C	-0.019754876	 1.4731199946	 0.0215420007	-0.487135
C	 0.0005024607	-0.0186853184	-0.0157486942	 0.257871
C	-0.0362151585	-0.8114647506	-1.0971966	-0.105994
N	 0.0024888908	-2.1566567835	-0.6791113184	 0.065992
N	-0.0077862732	-3.3430652916	-1.3035981426	-0.177626
N	 0.0479448624	-4.2458669251	-0.3535969703	-0.193193
C	 0.0937877067	-3.6336205615	 0.8696431357	-0.2115
C	 0.0647756221	-2.2737972092	 0.6725832262	 0.350694
C	 0.069814018	-0.8858069335	 1.2445231461	-0.473567
H	 0.8781649497	 1.8719770429	 0.5094563613	 0.136153
H	-0.0725149214	 1.8950106899	-0.9852988304	 0.13618
H	-0.8801384486	 1.8460625963	 0.5907807826	 0.136117
H	-0.0868629325	-0.5737674249	-2.1481975862	 0.15042
H	 0.1430582069	-4.2085066598	 1.7794616961	 0.122978
H	 0.9728119948	-0.6718056057	 1.8298111736	 0.146304
H	-0.7832359819	-0.6978317299	 1.9084040599	 0.146305
