17
gdb 57088	3.60509	1.1148	1.04299	2.0965	75.65	-0.2427	0.0073	0.25	1191.9884	0.134418	-421.782522	-421.773806	-421.772861	-421.816361	32.289	
O	 0.2949574612	 1.5268229699	-0.0076628313	-0.414657
C	 0.1013203393	 0.1270639835	-0.0382512102	-0.083883
C	 0.6238042931	-0.4813974482	-1.2686799635	 0.328939
C	 1.062948981	-0.978236284	-2.270989789	-0.453364
C	 0.7318385024	-0.5316885726	 1.2184721863	 0.071844
O	 2.085378071	-0.0770291649	 1.3201242975	-0.288079
C	 2.345263211	 0.4103172559	 2.6392689261	-0.120831
C	 1.0087003743	 0.4073663117	 3.3242640309	-0.096532
C	 0.0968153947	-0.1230115376	 2.5199294357	-0.088771
H	 1.2459353094	 1.644463409	 0.1192632282	 0.288983
H	-0.9831271324	-0.0332453741	 0.0029272507	 0.114946
H	 1.4461822139	-1.4123069946	-3.1612624857	 0.197004
H	 0.7109760054	-1.6243766234	 1.0794218772	 0.095858
H	 3.0731716923	-0.24420715	 3.1448202913	 0.111598
H	 2.7960579055	 1.4107661423	 2.5753333077	 0.112393
H	 0.8578352828	 0.7770862995	 4.3301970267	 0.112568
H	-0.9534696051	-0.2756499823	 2.7322627413	 0.111983
