14
gdb 9448	2.85006	1.80472	1.73165	5.6395	64.07	-0.253	-0.0011	0.2519	841.8208	0.10805	-374.891639	-374.883782	-374.882838	-374.923725	28.431	
N	 0.1567404813	 1.5003461018	 0.1422535521	-0.550591
C	 0.021965625	 0.0631632573	 0.0036663669	 0.075473
C	-1.4514741499	-0.4665350803	-0.1370827179	-0.1873
N	-1.0131446823	-1.1807550835	-1.3440608926	-0.32418
C	 0.2359269406	-0.583253828	-1.4004816109	 0.333214
N	 1.1931267121	-0.4642830572	-2.2111396916	-0.53698
C	 0.7765341082	-0.6159668883	 1.056320368	 0.288142
N	 1.3738755824	-1.1615937332	 1.8809081093	-0.329329
H	 1.1433257774	 1.7442596469	 0.1669141667	 0.258651
H	-0.2247317203	 1.949823886	-0.6861090971	 0.241201
H	-1.8193914873	-1.1077118241	 0.6663446601	 0.139932
H	-2.1521742264	 0.3565264472	-0.3144711378	 0.122279
H	-1.5876117252	-1.4723752332	-2.1211426814	 0.249676
H	 1.0203043344	-0.9364354914	-3.0996891638	 0.219812
