12
gdb 131447	3.60567	1.78071	1.19202	4.2623	61.09	-0.2344	-0.0118	0.2227	916.1078	0.080137	-468.801191	-468.795006	-468.794062	-468.831719	24.054	
O	-0.031814576	 1.3187477013	 0.0096713013	-0.403032
C	 0.0026100938	-0.0082636903	 0.0022871431	 0.488785
N	 1.0769963439	-0.7411250422	-0.0064238543	-0.25176
O	 0.6233414784	-2.0946418295	-0.0118069688	-0.251802
C	-0.7205454315	-2.0587498535	-0.0057168503	 0.542562
N	-1.6741191654	-2.9366832308	-0.0062911529	-0.395847
C	-2.8152930246	-2.1359018872	 0.0030840171	-0.072953
C	-2.5351139425	-0.7935368841	 0.0091498344	-0.162175
N	-1.1407632974	-0.7527343035	 0.003232271	-0.107541
H	 0.8801287125	 1.6425464268	 0.0074264429	 0.332879
H	-3.7952962007	-2.5887511616	 0.0049345551	 0.127834
H	-3.1446554004	 0.0915154345	 0.0166331415	 0.15305
