19
gdb 45559	3.48556	1.302	1.11837	3.4813	74.43	-0.2378	-0.0145	0.2233	1120.5454	0.16114	-423.069593	-423.061857	-423.060913	-423.103014	29.445	
O	 0.1606591407	 0.0872743852	 0.4345747163	-0.309621
C	 0.0830990418	 1.2236027629	 0.0486641603	 0.401274
C	-1.2177565342	 1.9963130499	-0.2062891185	-0.330253
C	-0.8205451767	 3.2795668732	-0.9597166066	-0.019553
C	-1.5072470205	 4.5752101592	-0.4788387959	-0.265723
C	-0.4764872711	 5.186879212	 0.5104516817	-0.069442
O	 0.5648478551	 4.2285123417	 0.6637679888	-0.26497
C	 0.6617225086	 3.5038653776	-0.556572167	 0.102026
C	 1.2702636062	 2.1368941022	-0.2845046722	-0.346067
H	-1.9411821498	 1.3671207065	-0.7302466096	 0.127547
H	-1.6502625636	 2.2271027808	 0.7748708051	 0.135812
H	-0.9267242433	 3.1363388265	-2.0382542897	 0.078296
H	-1.6996142766	 5.2578793032	-1.3104952235	 0.106666
H	-2.4677202775	 4.3700372562	 0.0005185192	 0.111072
H	-0.071183509	 6.1295514145	 0.1133955283	 0.094799
H	-0.8873581856	 5.3880680874	 1.5034018202	 0.111599
H	 1.21749118	 4.086211117	-1.3067882315	 0.063334
H	 2.0003591188	 2.1501831367	 0.5278887114	 0.144504
H	 1.772823997	 1.7370768075	-1.1732736167	 0.128699
