18
gdb 84136	2.12984	1.37796	0.97445	5.0507	78.65	-0.262	-0.0034	0.2586	1247.5014	0.14756	-401.981435	-401.972456	-401.971512	-402.015742	33.036	
C	-0.237025233	 1.365976076	 0.0968723412	-0.491634
C	-0.0233504199	-0.1105991601	-0.0061665402	 0.33451
C	-0.2874363252	-0.8971193484	-1.0529848717	-0.217664
C	 0.1248269331	-2.3287041294	-0.8452489546	 0.086558
O	 1.2344633803	-2.7022129253	-1.6509236529	-0.42468
C	 0.4532874027	-2.379155515	 0.6966574513	-0.181797
C	 0.5602998858	-0.8923185379	 1.1513011224	-0.325788
C	-0.5829030177	-3.0896279937	 1.4391920213	 0.267312
N	-1.4151200728	-3.6474625606	 2.0165751267	-0.329488
H	 0.7032040596	 1.8845297899	 0.3230021652	 0.131549
H	-0.6439639702	 1.7816829569	-0.8279993179	 0.132642
H	-0.9279865709	 1.6048660905	 0.9146245324	 0.139238
H	-0.6954410394	-0.5605986648	-1.999700813	 0.102119
H	-0.6570102088	-3.0512843678	-1.0941676647	 0.114053
H	 1.8339821839	-1.9481426833	-1.6856001975	 0.277734
H	 1.3935656582	-2.9213972711	 0.8266246952	 0.132716
H	 1.6005158346	-0.6010385229	 1.344363707	 0.117623
H	 0.0146910198	-0.7149424931	 2.08361223	 0.134997
