18
gdb 14843	3.24768	1.44885	1.08555	4.3802	73.62	-0.2384	0.0154	0.2538	1110.9482	0.154009	-343.977309	-343.968985	-343.968041	-344.010405	29.989	
C	-0.0250301092	 1.5462228351	-0.1007514655	-0.386777
C	 0.0416319788	 0.0289416027	 0.0524402664	-0.12984
N	-1.2846726054	-0.5542932263	 0.1474931049	-0.05937
C	-2.0914248138	-0.3510582119	 1.3703460166	-0.167003
C	-2.6180086427	-1.7981212081	 1.226159349	-0.251912
C	-1.3933127664	-2.017100631	 0.2923987764	-0.108781
C	-1.5747192668	-2.7656519925	-0.9512679581	 0.291527
N	-1.7225532634	-3.3650859716	-1.9283209277	-0.325765
H	 0.9807778446	 1.9668587416	-0.1890479313	 0.119945
H	-0.597964489	 1.817507844	-0.9916899451	 0.13284
H	-0.5046391587	 2.0113754748	 0.7669616142	 0.12036
H	 0.5336868385	-0.4131055505	-0.8221638167	 0.117392
H	 0.6587815542	-0.2326752392	 0.935195855	 0.076215
H	-1.4762150458	-0.2233192691	 2.2763450457	 0.092591
H	-2.8158826419	 0.4657346153	 1.3144260673	 0.116609
H	-2.6598093417	-2.4170513478	 2.1211538304	 0.121887
H	-3.5618678124	-1.8570911879	 0.684640672	 0.137399
H	-0.5488539288	-2.4619682076	 0.8455957066	 0.102685
