21
gdb 68858	2.38409	1.80203	1.35975	0.4913	81.83	-0.2266	0.0834	0.31	1049.8119	0.183899	-383.243942	-383.235584	-383.23464	-383.276135	33.652	
C	-0.1671501387	 1.5166994119	 0.0092963267	-0.497582
C	 0.0940310019	 0.0330480513	-0.0115182936	 0.294695
C	 0.3813905199	-0.6290620987	-1.3642962256	-0.263047
C	 1.2791684136	-1.8096641322	-1.0205324993	-0.022577
N	 2.5888425844	-1.3998940341	-0.4540077908	-0.350431
C	 1.5070280852	-1.8702944686	 0.4399666118	-0.097873
C	 0.777519678	-0.7208078867	 1.0815858702	 0.315058
C	 1.3418169341	-0.1203616172	 2.3416997206	-0.502503
N	-0.6865222114	-0.869456492	 0.8800201181	-0.42142
H	 0.6629751404	 2.0650931775	-0.4489587391	 0.128813
H	-1.0752685225	 1.7572752787	-0.5564137262	 0.122762
H	-0.3019476393	 1.8971880669	 1.0263213522	 0.111563
H	-0.5486587073	-0.962211393	-1.8371942441	 0.102124
H	 0.8851658916	 0.065682196	-2.045249255	 0.100291
H	 1.2371340917	-2.7129593197	-1.6196721263	 0.083425
H	 3.2564634707	-2.1555251568	-0.5909969284	 0.22751
H	 1.6162567949	-2.8111662262	 0.9719489172	 0.083071
H	 2.3957824365	 0.1383589089	 2.1967974832	 0.137976
H	 0.8067069884	 0.7850902916	 2.6425597081	 0.11237
H	 1.2815446406	-0.8327151594	 3.1732406984	 0.119174
H	-1.1663737228	-0.298460448	 1.575049192	 0.216601
