13
gdb 29105	3.10356	1.50082	1.01712	4.3723	64.83	-0.2425	-0.0613	0.1812	1071.0026	0.089041	-489.905687	-489.897797	-489.896853	-489.938947	28.473	
N	-0.0867086992	 1.4347629332	 0.173740209	-0.568759
C	-0.1135712834	 0.0448743363	 0.0408916037	 0.22446
C	-1.1943870629	-0.640144203	-0.3131346733	-0.017329
O	-1.2085795627	-2.0051131626	-0.4385849491	-0.218657
C	-0.0682565956	-2.7232311301	-0.1952077304	 0.26117
N	-0.027640773	-3.9792031833	-0.2957634826	-0.459462
C	 1.1885027005	-1.9707455422	 0.2101026833	 0.367064
O	 2.2265292585	-2.5088269324	 0.4403602063	-0.274639
O	 1.0871828722	-0.612537401	 0.305984736	-0.223469
H	 0.5947979279	 1.8557338855	-0.4518173735	 0.255698
H	 0.1565836544	 1.7143913892	 1.1201163362	 0.255765
H	-2.1445291388	-0.1786586015	-0.5292021274	 0.158461
H	-0.941353638	-4.344087208	-0.5741433683	 0.239697
