20
gdb 81785	2.12238	1.83618	1.21512	3.204	78.88	-0.229	0.0704	0.2994	1090.9423	0.170465	-403.090719	-403.081916	-403.080972	-403.123648	34.258	
C	-0.0085538062	 1.5447774773	 0.0439533082	-0.511294
C	 0.0463178831	 0.0450949464	 0.0047119986	 0.287297
C	-0.8662838628	-0.8594704271	 0.7870660382	-0.34807
C	 0.6223596964	-0.9582645846	 1.0196126972	-0.149616
C	 1.3049174082	-1.7421485083	-0.1090612903	 0.080478
O	 1.1132301073	-3.1309296273	-0.2170346956	-0.432538
C	 0.6449366603	-0.7820985968	-1.1256896587	 0.25822
C	 0.0984830781	-1.0608321158	-2.4701115682	-0.318598
N	 1.3553196462	-0.2911699977	-2.2990911567	-0.38119
H	 0.9601438002	 1.988655681	-0.212512553	 0.124908
H	-0.7542759121	 1.9391991166	-0.6577431962	 0.120843
H	-0.2829862471	 1.9007171221	 1.0419327413	 0.125034
H	-1.4222494979	-0.3883654641	 1.5923498528	 0.113384
H	-1.4200234409	-1.6523400663	 0.2866869236	 0.097717
H	 1.0532948679	-0.7617873993	 1.9943247632	 0.088679
H	 2.3872165396	-1.5877538541	-0.1116492283	 0.104158
H	 0.172328196	-3.3097718907	-0.1151425896	 0.279447
H	 0.2313874131	-2.0452617112	-2.9106522914	 0.124785
H	-0.7993822916	-0.5330582045	-2.7833986922	 0.107896
H	 1.1684601923	 0.7012150944	-2.4320561228	 0.228461
