19
gdb 97628	2.95348	0.679	0.58009	1.4258	87.09	-0.2543	0.0266	0.2809	1925.3951	0.155771	-385.8204	-385.809427	-385.808483	-385.858359	38.116	
C	-0.1084886238	 1.5381497461	-0.069470806	-0.393382
C	-0.0361645026	 0.0117231036	-0.0740489054	-0.165119
C	 0.8267600155	-0.5554091807	-1.2401066999	-0.343944
C	 2.2206093662	-0.1026828137	-1.1559827366	 0.350049
C	 3.355657226	 0.2824665957	-1.0742658459	-0.471875
C	 0.7432001273	-2.0189260162	-1.2898072314	 0.032805
C	 0.6396969177	-3.2185729758	-1.3069700615	 0.109673
C	 0.566363746	-4.6779218197	-1.3789663963	-0.194196
O	 0.5633557214	-5.1802524745	-2.7081170382	-0.401854
H	 0.8868387413	 1.9801765444	 0.0301702196	 0.134921
H	-0.55410153	 1.9175011911	-0.9959263197	 0.115751
H	-0.7225883141	 1.891183882	 0.7640789093	 0.116818
H	 0.3794430325	-0.3569808544	 0.8690511184	 0.117482
H	-1.0375578138	-0.419507425	-0.172550389	 0.111644
H	 0.4031650339	-0.1610237982	-2.1764508287	 0.134392
H	 4.3623469301	 0.6143727316	-1.0097875082	 0.199477
H	 1.3894963308	-5.1108842075	-0.7881427366	 0.119418
H	-0.3663236506	-5.0317768855	-0.9256911375	 0.139592
H	 1.3176753662	-4.7913493533	-3.1631478263	 0.288347
