22
gdb 58479	2.13217	1.31031	1.06593	4.2162	86.83	-0.2792	0.0319	0.3111	1274.7893	0.192534	-367.232837	-367.222581	-367.221637	-367.267582	38.356	
C	 0.1118356156	 1.4277460654	-0.3152958549	-0.403337
C	 0.0229260692	-0.0291217581	 0.1647938271	-0.030503
C	 0.645665292	-0.198097502	 1.5588436541	-0.404324
C	-1.414754831	-0.5546658599	 0.1000775668	 0.364974
C	-2.4351518343	 0.1027007119	 1.0133473652	-0.473034
C	-1.9057413558	-1.0523596202	-1.2286776405	-0.332259
C	-1.6190005635	-2.0579187073	-0.119165979	-0.228955
C	-0.5045349394	-2.9542512004	-0.2363164303	 0.295169
N	 0.3936363465	-3.6798845895	-0.3211542167	-0.355443
H	 1.157038481	 1.7477509834	-0.368068132	 0.118157
H	-0.3285541438	 1.5489560026	-1.3101846546	 0.114514
H	-0.4043230066	 2.1111124546	 0.3675172458	 0.116879
H	 0.6134317968	-0.6393104753	-0.5298220188	 0.094371
H	 0.5987661679	-1.2385702051	 1.8933704383	 0.13062
H	 1.6988638455	 0.0986594799	 1.5426871879	 0.118159
H	 0.1419460854	 0.4257208178	 2.3050638079	 0.113076
H	-2.5231179611	 1.1722955139	 0.7983679699	 0.12859
H	-3.4260489881	-0.3409533895	 0.8763984065	 0.117396
H	-2.1647274135	-0.0082400225	 2.0677033722	 0.130727
H	-2.9468497704	-0.9100560738	-1.4973604844	 0.12321
H	-1.2173180091	-1.0430701637	-2.0663875923	 0.134409
H	-2.4798403234	-2.5026551923	 0.3695297818	 0.127604
