22
gdb 26403	3.92383	0.88122	0.8048	1.9552	89.05	-0.1988	0.0476	0.2463	1519.9132	0.194949	-367.260931	-367.251434	-367.25049	-367.295761	36.012	
C	-0.0534353177	 1.5843169586	 0.0035081011	-0.387551
C	 0.0327306859	 0.0530666791	 0.036679195	 0.063285
C	 0.8675387199	-0.4220772523	 1.2316148976	-0.381522
C	-1.3863949773	-0.5674999579	 0.0304007573	-0.320219
C	-1.4263402762	-2.0641811448	-0.1035014449	 0.279968
C	-1.4155186208	-2.779769239	-1.2828279433	-0.179245
N	-1.4397370179	-4.1175178383	-0.976126761	-0.229903
C	-1.4706104666	-4.2797992498	 0.3845483757	-0.080876
C	-1.463508867	-3.0269430342	 0.9511990946	-0.236238
H	 0.9429115997	 2.0378850698	-0.0286757578	 0.105744
H	-0.6117377826	 1.9366381717	-0.8707130638	 0.104706
H	-0.5614327891	 1.966330576	 0.8975206249	 0.109018
H	 0.5355835952	-0.2819587283	-0.8813693935	 0.068385
H	 0.4139068177	-0.0980607748	 2.1769023221	 0.103099
H	 0.9470270597	-1.5121807917	 1.255184359	 0.123767
H	 1.8804845605	-0.0071454963	 1.1930548209	 0.103291
H	-1.9014391924	-0.2684639424	 0.9534449866	 0.091978
H	-1.9525765255	-0.1137119626	-0.7927839834	 0.091161
H	-1.3989716417	-2.4450904179	-2.3083079675	 0.109406
H	-1.4513887907	-4.8638706913	-1.6481610914	 0.259001
H	-1.5023876423	-5.2621195039	 0.827713768	 0.114487
H	-1.4882619006	-2.8108735898	 2.008945154	 0.088259
