18
gdb 18040	3.76694	2.06118	1.49439	2.0214	72.3	-0.2402	0.0128	0.253	864.8021	0.156753	-347.798955	-347.792339	-347.791395	-347.829749	26.119	
C	 0.0473326335	 1.5707907063	 0.1108000266	-0.088647
O	 1.4678102641	 1.5608622092	-0.1459966835	-0.300813
C	 1.4125335756	 0.1507857218	-0.5075897417	 0.116901
C	 2.4629648198	-0.7132870382	 0.107160617	-0.082303
C	 2.1499006675	-1.7207280122	 0.922859151	-0.048443
C	 0.7386018333	-1.9863765629	 1.3881944691	-0.259328
C	-0.0793630575	-0.6845399548	 1.4065823579	-0.216165
C	-0.0236291593	 0.0300305235	 0.0537031306	-0.060276
H	-0.1943439742	 2.0411662901	 1.0713747184	 0.100685
H	-0.5069029477	 2.0821619127	-0.6885556999	 0.092349
H	 1.448373874	 0.0553743066	-1.6044413966	 0.073378
H	 3.4936735229	-0.5228890662	-0.1810646855	 0.093267
H	 2.9323220999	-2.3774784723	 1.2956179763	 0.090764
H	 0.2567125441	-2.7352237582	 0.7424318315	 0.110027
H	 0.7577027461	-2.4298290002	 2.3901823106	 0.104133
H	-1.1177932389	-0.8798277351	 1.694866835	 0.093893
H	 0.349569452	-0.0305744349	 2.1748413431	 0.109814
H	-0.7539963451	-0.3878198451	-0.6435946298	 0.070763
