15
gdb 48102	2.76254	1.13427	1.01441	1.4478	74.54	-0.2502	-0.0955	0.1547	1206.029	0.109478	-420.596547	-420.587658	-420.586713	-420.630901	31.69	
O	-0.9441037338	 1.4809270155	-0.253133156	-0.221177
C	 0.1066945659	 1.048623734	 0.1418467897	 0.092153
C	 1.3543321916	 1.9099847575	 0.3763847345	 0.287763
O	 2.3424303625	 1.3693670828	 0.8253346211	-0.296747
C	 1.2453372105	 3.3426458186	 0.0281574568	-0.134662
C	 2.2372879201	 4.3109601173	 0.6235385016	-0.295038
C	 2.3649835996	 3.9854161489	-0.8359231395	-0.189599
C	 3.4581771726	 3.2114455853	-1.3404453345	 0.355353
C	 4.3772058258	 2.5840082675	-1.7951775344	-0.456597
H	 0.2771924995	-0.0199658749	 0.3893588974	 0.109849
H	 0.2418572386	 3.6818082017	-0.1955240813	 0.126858
H	 1.8760086115	 5.295013481	 0.897917666	 0.131717
H	 2.9763531972	 3.8711797094	 1.2832078686	 0.154712
H	 1.9805267952	 4.7299964096	-1.526927904	 0.131382
H	 5.1926680332	 2.0240589858	-2.1812342961	 0.204035
