15
gdb 44126	2.54479	1.65495	1.33754	4.0377	70.17	-0.2567	0.0043	0.261	977.5103	0.112362	-420.620465	-420.613007	-420.612062	-420.65261	28.682	
O	 0.0401701991	 0.2645760318	-0.6447679124	-0.318619
C	-0.0462538081	 1.3263477776	-0.1106867914	 0.430722
C	-1.3097230049	 2.12042832	 0.2430627573	-0.387297
C	-0.7970754609	 3.3952724529	 0.8710990687	-0.101762
C	 0.6954802645	 3.2539205269	 0.8802707778	 0.083982
O	 1.0635040833	 2.036108179	 0.2874007669	-0.21049
C	 0.0643370255	 4.3091224562	-0.0144632615	-0.269147
C	 0.0585814355	 4.1800633789	-1.4393359329	 0.327049
C	 0.0353596413	 4.0554495724	-2.6353146627	-0.426151
H	-1.8925108023	 2.2694129548	-0.6699039539	 0.158526
H	-1.9168493271	 1.5320896182	 0.9366542408	 0.14462
H	-1.3332340301	 3.8480057561	 1.6950707819	 0.112454
H	 1.3456950998	 3.5377620181	 1.6977153413	 0.12464
H	 0.1650601505	 5.3232751678	 0.3626785477	 0.125071
H	 0.033792194	 3.9468654892	-3.6917954073	 0.206403
