20
gdb 91209	2.0314	1.61847	1.55664	2.5684	79.63	-0.2565	0.0297	0.2862	1057.3142	0.170439	-403.146609	-403.137758	-403.136814	-403.179908	33.663	
C	-0.528871162	 1.3924271413	 0.0935354218	-0.408222
C	 0.0578408275	-0.005680687	-0.0313498211	-0.023778
C	 1.3713754231	-0.1999203396	-0.8589921574	-0.261801
C	 2.0427916349	-0.843606154	 0.3662464796	 0.062563
O	 2.7290605664	 0.1533902785	 1.1901381674	-0.277462
C	 1.6139880717	 0.3155951799	 1.9924504925	 0.40317
N	 1.442914407	 1.025669034	 3.0128698968	-0.558413
C	 0.7519196781	-0.6622216926	 1.2224238631	 0.187828
C	 0.0084149107	-1.7218391712	 2.0017719051	-0.496378
H	 0.2152931713	 2.1094581759	 0.4527279388	 0.131074
H	-0.896047301	 1.7425014438	-0.877408259	 0.113836
H	-1.3683985478	 1.4094057362	 0.7962523837	 0.124702
H	-0.7134140611	-0.695603595	-0.388987367	 0.078867
H	 1.2625918657	-0.8718997371	-1.7135456267	 0.107348
H	 1.8678554207	 0.7157977822	-1.1889950682	 0.115695
H	 2.6299341469	-1.7577648267	 0.2788723784	 0.090687
H	 2.2862272955	 1.554063233	 3.2445448517	 0.225195
H	-0.8086310271	-1.266131528	 2.5710051608	 0.141953
H	-0.4215803931	-2.4753635684	 1.33378765	 0.115005
H	 0.6641879225	-2.2284861651	 2.7166950697	 0.128131
