21
gdb 92543	2.26764	1.7075	1.39693	2.4755	76.13	-0.2491	0.0505	0.2996	1041.1099	0.184649	-424.22326	-424.215082	-424.214138	-424.255656	32.988	
O	 0.0331588749	 1.414877822	 0.3227200117	-0.44656
C	 0.0428671271	 0.0165855874	 0.0029373968	 0.074601
C	 0.7613430038	-0.8641658173	 1.0342306864	-0.270464
C	-0.3009040921	-1.258677771	 2.0810752937	-0.004584
C	-0.6680086327	-0.1920441614	 3.1577229798	-0.244259
C	-2.0419601371	 0.0467883593	 2.4646877487	-0.233825
C	-1.697477352	-1.0342406501	 1.4022169937	-0.029888
C	-1.4096898201	-0.5318696158	-0.0331761153	 0.11878
O	-2.3238201019	 0.4175238286	-0.5293648163	-0.444592
H	-0.0581125045	 1.5167126591	 1.2751050887	 0.290392
H	 0.5088824177	-0.0310606302	-0.984802602	 0.089465
H	 1.1333882012	-1.7620840578	 0.5277100877	 0.107707
H	 1.6323926467	-0.3575964854	 1.4639112038	 0.104525
H	-0.107845282	-2.2498387311	 2.4954207566	 0.067346
H	-0.7489045585	-0.5965850358	 4.1693944903	 0.104991
H	 0.0089918767	 0.6687931052	 3.2174486113	 0.086974
H	-2.9024645501	-0.1988998118	 3.0902108669	 0.104271
H	-2.2144276976	 1.0450125356	 2.0548924828	 0.094661
H	-2.3816950497	-1.8840765692	 1.3947219287	 0.066695
H	-1.4316664572	-1.3968622043	-0.7095767256	 0.077189
H	-1.9014007927	 1.2759387342	-0.3816082886	 0.286575
