17
gdb 74574	3.4813	1.26786	1.10047	4.3527	74.39	-0.2441	-0.0013	0.2428	1131.2906	0.136863	-421.876551	-421.868966	-421.868022	-421.908749	29.004	
C	-0.0279430745	 1.489887254	-0.0200928867	-0.489751
C	 0.0034232599	-0.0043913159	-0.0632276875	 0.32798
C	 0.1752907014	-0.7760026016	-1.1424827968	-0.184181
C	 0.1018238623	-2.2448762357	-0.8252187925	-0.263124
C	-0.2052255338	-2.2743914989	 0.6920113661	 0.11109
C	-0.1680557217	-0.8321969857	 1.1974478032	-0.324937
O	-1.5681467518	-2.7451739966	 0.4051576509	-0.258735
C	-1.3203379121	-2.8241074815	-0.9457669199	 0.452688
O	-2.0509817036	-3.2150175363	-1.7960545053	-0.323264
H	 0.7344962899	 1.8822796599	 0.6647209469	 0.128447
H	 0.1414926253	 1.9263442121	-1.0076009749	 0.130425
H	-0.9952319114	 1.8510349625	 0.351120375	 0.135495
H	 0.3112807406	-0.4103547407	-2.1534602486	 0.10579
H	 0.8960495724	-2.8670839259	-1.2418673195	 0.109165
H	 0.3085850271	-3.0064932035	 1.3148765427	 0.099041
H	 0.6595605656	-0.6696612224	 1.9003145669	 0.113493
H	-1.0917384654	-0.592620874	 1.7387406002	 0.130377
