19
gdb 47732	2.52287	1.65288	1.13653	1.9478	75.68	-0.221	-0.0274	0.1936	1091.7514	0.162135	-419.203332	-419.195437	-419.194493	-419.235793	30.831	
O	 0.0676144422	 0.02897745	 0.3469339558	-0.33401
C	 0.0199523225	 1.2147938937	 0.0908760318	 0.319143
C	-1.3051852487	 1.9539195632	-0.1022044961	-0.276431
N	-1.2730879184	 3.0897775859	-1.0205019558	-0.282858
C	-0.1482363747	 3.987500625	-0.7512068097	-0.173633
C	 1.2159385966	 3.2913217957	-0.8685236622	-0.288975
C	 1.272611022	 2.0485862092	 0.0042042985	 0.240931
C	 2.1025907649	 1.9994791956	 1.2571953376	-0.26062
N	 2.5395342665	 1.3124900916	 0.0467067708	-0.354157
H	-2.0634027813	 1.2305393821	-0.4131523149	 0.131826
H	-1.6061463254	 2.3194705902	 0.8920471077	 0.132562
H	-1.209299028	 2.7490189537	-1.9754196237	 0.221246
H	-0.2030098561	 4.8348860948	-1.4418146436	 0.107856
H	-0.2800654639	 4.3924476481	 0.2611912805	 0.107786
H	 1.3778128886	 2.9947258173	-1.9136322442	 0.106673
H	 2.0350854299	 3.9705397281	-0.6075871748	 0.105927
H	 2.6768491118	 2.8816971509	 1.5292281586	 0.121821
H	 1.7336450927	 1.4058358981	 2.0892642342	 0.128054
H	 2.3055557788	 0.3220426166	 0.1330478396	 0.246858
