14
gdb 28977	3.02609	1.53391	1.01816	4.5604	78.89	-0.2445	-0.0496	0.1949	1074.9234	0.103991	-395.812764	-395.805261	-395.804317	-395.84465	28.28	
N	-0.0065727336	 1.3783046309	 0.0965355951	-0.606316
C	-0.0011731046	 0.0204894528	 0.0321422936	 0.311636
C	-1.184849463	-0.7355185763	 0.0223314989	-0.193682
C	-1.1076473909	-2.1157834706	-0.0085564979	 0.021226
N	 0.0358967702	-2.8200594596	-0.0315082734	-0.294598
C	 1.1582412208	-2.1121433841	-0.0251393112	-0.044349
C	 1.2116008593	-0.7127441288	 0.0039864965	 0.060414
C	 2.4515836789	-0.0153021622	-0.0010020879	 0.20635
N	 3.4304155207	 0.6064141259	-0.0093962082	-0.353869
H	 0.8521003215	 1.8840494781	-0.0510309303	 0.280482
H	-0.8630449956	 1.8782871288	-0.0669745183	 0.266181
H	-2.1492404226	-0.2391627837	 0.041913836	 0.098412
H	-2.0240271029	-2.7010394885	-0.0161061135	 0.118112
H	 2.0917217217	-2.6688391627	-0.0464904592	 0.130002
