20
gdb 6770	6.56752	0.69735	0.66474	3.5525	73.41	-0.2416	0.0608	0.3024	1724.2652	0.176892	-382.372684	-382.362739	-382.361795	-382.408833	34.962	
C	-0.2678148873	 1.5104415126	-0.1315165329	-0.380164
C	 0.0946457645	 0.0314516229	 0.026252042	-0.160483
C	 0.7588107678	-0.5600881295	-1.2211468813	-0.164257
C	 1.1233268213	-2.0374298478	-1.0510827881	-0.155044
N	 1.7633288766	-2.5917879732	-2.23257788	-0.340687
C	 1.3559699667	-3.7872341771	-2.7778895145	 0.446471
N	 2.1805903044	-4.2419242488	-3.806836098	-0.565054
O	 0.3844361815	-4.4133787494	-2.3961395855	-0.389462
H	 0.6221056295	 2.117012467	-0.3338696561	 0.112144
H	-0.9649267511	 1.6602208402	-0.9633255189	 0.11593
H	-0.7402061991	 1.9045699068	 0.7735723612	 0.112955
H	 0.7642871309	-0.0919625976	 0.8879092482	 0.095218
H	-0.8092660626	-0.5455011026	 0.2611783462	 0.10302
H	 0.0925367531	-0.4574414842	-2.0867763296	 0.102996
H	 1.6641069503	 0.0168637534	-1.45974104	 0.082198
H	 1.7700745984	-2.1620040419	-0.1698945378	 0.097225
H	 0.2294263182	-2.6421197357	-0.8813782395	 0.149887
H	 2.6949057264	-2.2736257462	-2.4469998269	 0.235377
H	 2.617802188	-3.5425699858	-4.389280799	 0.243163
H	 1.7443424227	-4.9841684531	-4.3333480293	 0.258568
