16
gdb 34056	3.36824	1.35041	1.11347	3.9092	69.49	-0.2757	-0.0037	0.272	1076.1682	0.125432	-437.879324	-437.871799	-437.870855	-437.911384	28.544	
N	-0.0294805048	-1.1307488301	 0.0974457091	-0.326293
C	 0.0105237414	 0.0235264002	 0.049979059	 0.246243
C	 0.0281304234	 1.4696103277	-0.0392983563	 0.208309
C	-1.1835364969	 2.113977945	-0.721699186	-0.15554
O	-0.8430128329	 3.1983923502	-1.5531150991	-0.24049
C	 0.0212120497	 4.1330748132	-0.9251696793	-0.09036
C	 1.4142527541	 3.5243939135	-0.7372548774	-0.246633
C	 1.3247386024	 2.1897558856	-0.0366516759	 0.016325
O	 0.5136792611	 2.1362503771	 1.1369049288	-0.270169
H	-1.6825293065	 1.3795030499	-1.3586565549	 0.137583
H	-1.8851149339	 2.4222832655	 0.0699251992	 0.121367
H	 0.0653914768	 5.0023891267	-1.5849952903	 0.119846
H	-0.3905118789	 4.4509952125	 0.043644963	 0.112633
H	 1.8868726842	 3.3696987494	-1.7137926157	 0.126406
H	 2.0562734375	 4.201110206	-0.1613173548	 0.122002
H	 2.2371986533	 1.5979125975	 0.0232587108	 0.118771
