14
gdb 123638	4.02315	1.59841	1.24585	5.1689	67.94	-0.2465	-0.0397	0.2067	936.1713	0.1027	-432.812215	-432.80566	-432.804716	-432.843159	25.236	
C	-0.0623131729	 1.5198632109	 0.0090955434	-0.351908
C	 1.4384262088	 1.886429194	-0.033667434	-0.023612
N	 2.2016981485	 1.4555806919	 1.1468083582	-0.315306
C	 2.2919922165	 0.6478759827	-0.0985560464	-0.224292
C	 1.3045223216	-0.4545049458	-0.0679817911	 0.452905
C	 0.0292386529	 0.0218076569	 0.0196477918	 0.219504
N	-0.7881645369	-1.0646740098	 0.1061117772	-0.174644
N	-0.1669726452	-2.1362401442	 0.0571814081	-0.044647
O	 1.348975203	-1.7528085219	-0.0621912358	-0.271149
H	-0.5386828858	 1.9349740654	 0.9026781717	 0.141018
H	-0.5881197747	 1.9121806019	-0.8683602639	 0.125362
H	 1.7412957408	 2.7922291268	-0.5472433493	 0.10555
H	 3.0431925909	 2.0234261485	 1.2287011475	 0.242066
H	 3.2237513624	 0.5841741027	-0.6460147774	 0.119154
