25
gdb 59211	2.99046	1.15953	1.04262	0.1003	92.1	-0.2789	0.0841	0.363	1327.1355	0.230813	-352.356616	-352.347645	-352.346701	-352.390111	35.964	
C	-0.117965753	 1.4848907362	-0.0119973345	-0.388463
C	-0.1266284716	-0.051592476	 0.0016871358	-0.012431
C	-1.569114798	-0.5807604348	-0.0140069485	-0.388463
C	 0.6683849031	-0.6089060659	-1.1842588389	 0.084437
C	 2.2267406641	-0.4500095007	-1.1827304346	-0.03304
C	 2.2777658169	-1.7407705851	-0.314896396	-0.231018
C	 1.0470432633	-2.128881797	-1.1846635478	-0.033051
C	 1.6886046932	-2.2827825925	-2.5779776606	-0.215393
C	 2.5904816317	-0.9992854027	-2.5764986267	-0.215395
H	 0.899248545	 1.8846936673	 0.0389573894	 0.112584
H	-0.5816691606	 1.8697957357	-0.9283618099	 0.109637
H	-0.6795934899	 1.8886576631	 0.8370988438	 0.107218
H	 0.3367880904	-0.3780549679	 0.940991969	 0.070407
H	-2.0875835352	-0.2739770875	-0.9305065913	 0.109636
H	-1.6003322862	-1.6733369488	 0.0356302401	 0.112585
H	-2.1402232319	-0.1903326098	 0.8350040804	 0.107218
H	 0.1812462172	-0.265553973	-2.1084128576	 0.047885
H	 2.7137612778	 0.4749172364	-0.8698805363	 0.05346
H	 3.1715572762	-2.3687250519	-0.3889969562	 0.082257
H	 2.0368023392	-1.5726621593	 0.7346729018	 0.097867
H	 0.3415859176	-2.9010439702	-0.8737814682	 0.053461
H	 2.2693877573	-3.2054028184	-2.668889433	 0.091837
H	 0.9457227737	-2.2735602938	-3.3811080297	 0.092462
H	 2.3309010174	-0.3022545546	-3.3788342371	 0.092463
H	 3.6554321623	-1.2328681586	-2.6666184632	 0.091837
