19
gdb 68680	2.34121	1.77262	1.37906	2.4141	74.45	-0.2368	-0.0161	0.2208	1011.4893	0.160667	-423.045444	-423.037476	-423.036531	-423.077554	31.487	
O	 0.2189500421	 1.4445281287	-0.1526305282	-0.486166
C	 0.0599343073	 0.063102582	-0.080152959	 0.315005
C	-1.365166069	-0.6135621348	 0.0119849933	-0.306409
C	-0.6918317313	-1.7367019233	 0.8710112642	-0.140696
C	 0.0333352875	-2.7691271698	-0.0271240611	-0.215375
C	 0.4887136562	-2.1124035556	-1.3503122977	-0.215677
C	 0.9003025816	-0.6348729101	-1.1713510578	-0.243575
C	 0.2959108349	-0.6325358074	 1.2578837528	 0.362335
O	 0.8193626448	-0.2624144268	 2.2737974407	-0.342525
H	 0.2972688488	 1.7745496758	 0.7513331183	 0.291931
H	-2.0514557462	-0.0040653431	 0.6034785749	 0.112196
H	-1.8379112664	-0.9045886406	-0.9268704228	 0.110121
H	-1.261213907	-2.1972904668	 1.6789510521	 0.091419
H	 0.8871890971	-3.1791789607	 0.5242748356	 0.115483
H	-0.6335597705	-3.6112585892	-0.2397218211	 0.106177
H	 1.3072410858	-2.6835672694	-1.7979917289	 0.104467
H	-0.3369029351	-2.1628900857	-2.0668588144	 0.111199
H	 0.7650068781	-0.0804860577	-2.1061651377	 0.11496
H	 1.9575573015	-0.5400705254	-0.8999304033	 0.11513
