20
gdb 40930	3.8232	1.27057	1.15599	2.5371	77.75	-0.2168	0.0592	0.2761	1123.1254	0.172193	-403.075876	-403.0681	-403.067156	-403.108779	30.013	
C	 0.1512734591	 1.6189913685	-0.362104932	-0.243628
C	 1.516918932	 1.4558647361	 0.3577705093	-0.175548
N	 1.1986295479	 0.0369842335	 0.7428279604	-0.173802
C	-0.0759547567	 0.119612667	-0.0835144958	 0.043605
C	 0.4922594338	-0.8874000029	-1.1086114747	-0.339211
C	 1.7449263299	-0.9820807305	-0.2001596704	 0.294705
C	 3.1883095184	-0.9246301724	-0.7381398269	-0.12912
O	 3.4593299348	-2.2663205125	-0.2927495648	-0.276978
C	 2.1869229705	-2.3381247128	 0.3855249486	-0.123854
H	-0.5475991742	 2.275920947	 0.1599929383	 0.110313
H	 0.1831388001	 1.9110044647	-1.4149987392	 0.102852
H	 2.3974189928	 1.559844426	-0.284912772	 0.104852
H	 1.6631896009	 2.091174889	 1.2355440822	 0.10986
H	-1.0094662594	-0.1634189512	 0.4100310408	 0.076297
H	-0.0679428543	-1.8192164529	-1.2214939433	 0.10825
H	 0.67493588	-0.470447816	-2.1038735724	 0.103971
H	 3.3020387932	-0.8150672993	-1.8239905579	 0.100757
H	 3.829369966	-0.1885713533	-0.2332949586	 0.101875
H	 2.2929669719	-2.3208455654	 1.4771931232	 0.107397
H	 1.6086363734	-3.2191358226	 0.0806011854	 0.097409
