12
gdb 133255	3.26568	1.49951	1.03715	6.3751	60.93	-0.2631	-0.0887	0.1744	1030.9164	0.076177	-510.079836	-510.072179	-510.071235	-510.113381	26.523	
C	-0.0646985351	 1.4818146598	 0.0141306537	-0.340218
N	-0.0199058226	 0.0256916258	 0.0557610589	-0.102288
N	 0.0334593377	-0.6233130738	-1.1737234693	-0.030006
N	 0.0720958817	-1.8672366522	-1.2048469212	-0.192877
C	 0.0161589929	-2.6648435629	 0.0212560029	 0.4336
O	-0.1059882577	-3.8520440351	-0.0745389708	-0.303367
N	 0.1230720964	-1.9834663142	 1.2373228862	-0.382353
C	 0.0831688249	-0.7153618616	 1.1793615565	 0.456797
F	 0.1589086304	 0.0067770846	 2.2820884905	-0.045177
H	 0.8276827929	 1.9101797175	 0.4762395641	 0.164534
H	-0.1058039123	 1.759250131	-1.0389140296	 0.176651
H	-0.9530187893	 1.8516892911	 0.530817048	 0.164702
