19
gdb 105155	2.46769	1.1484	0.97537	2.479	84.63	-0.2498	-0.0279	0.2219	1294.8744	0.156205	-385.863581	-385.853837	-385.852893	-385.898117	35.916	
C	 0.2583980391	 1.506958825	 0.3174042433	-0.386881
C	-0.2034356296	 0.1151472755	-0.132532297	-0.264871
C	 0.6182758424	-0.4405306506	-1.2795147746	 0.235202
C	 2.0090259744	-0.9904954327	-1.0309849	-0.325503
C	 0.9162094148	-1.9614208126	-1.3813684831	-0.2666
C	 0.3773050347	-2.8665522373	-0.4121423183	 0.319788
C	-0.0767528391	-3.6406623656	 0.3888344854	-0.425254
C	 0.4064826333	 0.1795237182	-2.6150415644	 0.125377
O	-0.3855908036	 1.0575482946	-2.8509494306	-0.26571
H	 1.3036910547	 1.4928474177	 0.6447448682	 0.109548
H	 0.1638786568	 2.2309904955	-0.4954408853	 0.140919
H	-0.3489103528	 1.8592336289	 1.1565185925	 0.114468
H	-0.1607572237	-0.5862568457	 0.7059892248	 0.110829
H	-1.2496994188	 0.1633228137	-0.4526653702	 0.119008
H	 2.7807531457	-0.8133056855	-1.7730697866	 0.127315
H	 2.3519892627	-0.9748661353	-0.003135188	 0.139924
H	 0.941918866	-2.3524642068	-2.3955398587	 0.123625
H	-0.4770195365	-4.3240827239	 1.0961924269	 0.20138
H	 1.0510073796	-0.2444752931	-3.4225257644	 0.067435
