23
gdb 76917	2.52715	1.21522	1.11633	1.5104	86.38	-0.2511	0.0804	0.3315	1271.4883	0.203778	-388.262295	-388.252147	-388.251203	-388.296775	38.168	
C	-0.1358562431	 1.4249070395	-0.2667176772	-0.427591
C	 0.0681060218	-0.0622581784	-0.0537770291	-0.06107
C	 1.3863479243	-0.8007994425	-0.212178122	-0.099518
C	 2.7069792181	-0.2005963582	-0.5834656457	 0.060244
C	 2.9042936859	 0.6679215203	-1.7552650421	-0.180505
O	 2.9371263813	 1.2036538312	-0.4300455828	-0.227862
C	 0.7501586232	-0.6625277715	 1.163386738	 0.305842
C	 1.391616664	 0.2455846306	 2.1986867035	-0.46459
C	 0.1252302146	-1.9088693964	 1.7655647075	-0.446635
H	 0.7357692288	 2.0127844684	 0.0172318117	 0.147443
H	-0.3473638651	 1.6373537105	-1.3211810039	 0.108037
H	-0.9986134104	 1.7757088122	 0.3111968842	 0.109445
H	-0.7829593693	-0.6462675571	-0.4007967995	 0.075917
H	 1.2988760108	-1.7953726153	-0.6489143717	 0.080282
H	 3.5649804905	-0.8041638035	-0.2775058086	 0.092817
H	 3.8588645776	 0.6699770528	-2.2794267415	 0.11362
H	 2.0407610832	 0.957975092	-2.3507586688	 0.116487
H	 1.8883586374	 1.108462974	 1.7550610834	 0.148183
H	 0.6393845674	 0.6098781599	 2.9086220566	 0.109258
H	 2.1420087707	-0.3061873631	 2.777523112	 0.1089
H	 0.8727746355	-2.5108310301	 2.2966784844	 0.110667
H	-0.6577668418	-1.6457983048	 2.4873005273	 0.112697
H	-0.3300257054	-2.5433846603	 0.9982314343	 0.107931
