18
gdb 45408	2.62352	1.76443	1.73955	3.3089	76.29	-0.247	-0.005	0.242	914.8555	0.151858	-401.979699	-401.972997	-401.972053	-402.010519	27.865	
N	-0.0616048911	 1.2901998472	 0.017547708	-0.551667
C	-0.02620737	 0.0250876233	 0.0026655188	 0.429225
O	 1.127053852	-0.7029815908	 0.0229589554	-0.262075
C	 0.8976150428	-2.1424445487	-0.0012753367	 0.049562
C	 0.1462650361	-2.4893637869	 1.3033055872	-0.211925
C	-1.1985097618	-1.7160716703	 1.2876517317	-0.218945
C	-1.2600162121	-0.8535564867	-0.0151008616	-0.136231
C	-1.1163997069	-1.7954263887	-1.1925161072	-0.082681
C	 0.0239155851	-2.4848238849	-1.1820227537	-0.074853
H	 0.8886395586	 1.667525959	 0.0417090261	 0.215884
H	 1.8911495044	-2.5877106594	-0.0434294452	 0.087108
H	-0.0035051818	-3.5703384818	 1.3664158631	 0.108503
H	 0.7657319707	-2.1884265841	 2.1529243162	 0.113553
H	-2.0521733482	-2.397791338	 1.3020058648	 0.107563
H	-1.283319427	-1.0595852789	 2.1574129952	 0.119263
H	-2.1507514452	-0.2302024673	-0.0516586035	 0.095791
H	-1.8859703908	-1.8733648547	-1.9513090099	 0.107697
H	 0.3233483452	-3.2208667383	-1.9179955886	 0.104226
