19
gdb 115493	2.479	1.18471	0.8609	4.3657	73.36	-0.233	0.0135	0.2465	1341.3076	0.160229	-456.350245	-456.340994	-456.34005	-456.384839	33.642	
O	 0.0642036746	 1.3797728169	 0.2332972263	-0.422881
C	 0.0055326899	-0.0146308709	 0.0380675076	-0.04938
C	-1.4450124809	-0.5132897008	 0.0098110054	 0.010541
C	-1.5612952498	-2.0643083262	-0.0617255088	-0.212762
N	-1.9458275763	-2.3914832598	 1.3187422458	-0.34157
C	-2.3422370985	-1.2168180531	 1.9184832244	 0.347943
C	-2.9801320027	-1.1981768503	 3.2814039902	-0.127136
O	-3.3319410406	 0.1024745854	 3.6651105422	-0.418593
N	-2.100004041	-0.1327885293	 1.2792798292	-0.346761
H	-0.5295018034	 1.56428236	 0.9722309827	 0.289754
H	 0.4952228714	-0.2279756454	-0.919120131	 0.103034
H	 0.5545384601	-0.5625865354	 0.8237259007	 0.085387
H	-1.9580108312	-0.0221141207	-0.8231524297	 0.092331
H	-2.3258310975	-2.3860172358	-0.7792078071	 0.111861
H	-0.6147640041	-2.5443355999	-0.3325331719	 0.117047
H	-2.4567586326	-3.2414466691	 1.5040904474	 0.246578
H	-3.8688651678	-1.8513181672	 3.2685911603	 0.103278
H	-2.2767293239	-1.6450677476	 4.0023288986	 0.118803
H	-3.0380079357	 0.6740160993	 2.9388570278	 0.292525
