14
gdb 29501	3.38349	1.67374	1.12856	2.6713	70.02	-0.2246	-0.0271	0.1975	991.9007	0.104464	-432.898065	-432.891402	-432.890458	-432.928967	26.086	
N	 0.0060958308	 1.3693827556	 0.1349069585	-0.581349
C	 0.0219213842	 0.002309705	 0.0360717878	 0.282225
N	-1.0392629588	-0.7433961371	 0.0160028079	-0.324789
C	-0.6330471928	-2.164948428	-0.0107241102	-0.279792
C	 0.8648824749	-2.1226213814	-0.0211324932	 0.219596
C	 1.2219026131	-0.8220674166	 0.0098318077	 0.244897
O	 2.578795871	-0.726531688	 0.0090308262	-0.205957
C	 2.9622717557	-2.0432048208	-0.0233126744	 0.032838
N	 1.997706696	-2.9146207136	-0.0410677758	-0.340731
H	 0.7931896938	 1.8623405141	-0.256493792	 0.259925
H	-0.8910642212	 1.7899689596	-0.0591949398	 0.262526
H	-1.0425857065	-2.6844238132	 0.8641562135	 0.139025
H	-1.0600165123	-2.6517732032	-0.8956873859	 0.137606
H	 4.0258677822	-2.2244050624	-0.0316470204	 0.15398
