17
gdb 69267	2.79703	1.55596	1.14343	5.0889	68.35	-0.2639	-0.0146	0.2493	1072.0751	0.135946	-458.986216	-458.978253	-458.977309	-459.018779	30.088	
C	 0.0314379599	 1.5295281579	-0.0801722021	-0.475939
C	-0.0391401467	 0.0279425231	 0.049958988	 0.398799
C	-1.1907689551	-0.7002057668	-0.6373980044	-0.287066
C	-1.8729462599	-1.6626103977	 0.3271194201	-0.08522
O	-0.9542273843	-2.5522014671	 0.9860387675	-0.23023
C	 0.1002932993	-2.0220471451	 1.6503979166	 0.444963
O	 0.6607520847	-2.6491191519	 2.5055257553	-0.324717
C	 0.5662333183	-0.6546047674	 1.2125878857	-0.181864
O	 1.2130942255	-0.6546024097	-0.0712073289	-0.271763
H	 0.9147613617	 1.9197802076	 0.430908501	 0.137001
H	 0.0898668091	 1.8163981588	-1.1357773923	 0.135271
H	-0.8602502842	 1.999756322	 0.347653402	 0.126674
H	-1.935718402	 0.0121125706	-1.0066687296	 0.112957
H	-0.7923215248	-1.2429052648	-1.5001063899	 0.135807
H	-2.4280162612	-1.1062426522	 1.0936569691	 0.116249
H	-2.5772547656	-2.3180404537	-0.1888501314	 0.131325
H	 1.0842709653	-0.0979325335	 1.9899819032	 0.117754
