16
gdb 128181	3.92319	1.16309	0.90477	3.3011	81.57	-0.2055	-0.0427	0.1628	1246.5774	0.124816	-434.041235	-434.032809	-434.031864	-434.074677	30.68	
C	-0.0834435932	 1.4721954215	 0.0963225133	-0.325847
N	 0.1569933366	 0.0429817387	-0.0392976412	-0.359991
C	 0.6672689962	-0.7267055027	 0.9648577965	 0.5046
C	 0.6308620235	-2.084890001	 1.0190561935	-0.32032
C	 1.2650950787	-2.7684927982	 2.1079884268	 0.291646
N	 1.28392619	-4.0516365439	 2.2403609804	-0.550442
C	 1.8872465383	-1.8312578207	 3.0600604466	-0.015808
N	 1.9041601244	-0.5518287316	 3.0067447578	-0.071636
O	 1.2611883412	 0.0418055986	 1.9132530054	-0.279366
H	 0.8362487442	 1.982155632	 0.3871069129	 0.160519
H	-0.3984411891	 1.8568860869	-0.8754544846	 0.133462
H	-0.8579832035	 1.7088430937	 0.8379715263	 0.132843
H	-0.4421604071	-0.4561948935	-0.6766129384	 0.25843
H	 0.1346641774	-2.6517950173	 0.2417404096	 0.102256
H	 1.7886803467	-4.313284549	 3.0894507505	 0.203861
H	 2.4037711458	-2.2290364137	 3.9323560845	 0.135793
