17
gdb 42965	2.58415	2.08628	1.39959	4.9351	71.13	-0.2439	0.0197	0.2636	928.7421	0.139073	-417.996648	-417.989853	-417.988909	-418.027892	26.867	
O	-0.0629492674	 0.0898140204	 0.5893525914	-0.351819
C	-0.0573989465	 1.2168398448	 0.1721645004	 0.366208
N	-1.2446211129	 1.9694022973	-0.1941253404	-0.145663
C	-1.6451504373	 2.8195015594	 0.950909997	-0.255302
C	-0.8526185463	 3.3992762716	-0.1589478106	-0.04845
C	 0.6698241426	 3.4466193364	-0.0802197055	 0.016174
C	 1.5001217591	 3.7248486032	 1.2116293611	-0.265846
C	 2.0269937271	 2.2620025306	 1.0929783336	-0.177561
N	 1.0600530202	 2.0254414704	-0.012863645	-0.0981
H	-2.7098463029	 3.020722271	 1.0136740284	 0.133689
H	-1.1636140331	 2.6353782642	 1.9081630438	 0.13088
H	-1.3439289327	 4.0381133329	-0.8850552834	 0.108304
H	 1.0744649321	 3.9519931249	-0.9630907163	 0.093628
H	 2.2464000447	 4.517098716	 1.1363492139	 0.116332
H	 0.8833716744	 3.8941735461	 2.0968994506	 0.117451
H	 3.0640396	 2.1823279921	 0.757343	 0.123692
H	 1.8713021888	 1.5956268787	 1.9446152912	 0.136381
