12
gdb 49207	3.48528	1.30525	0.94961	7.1986	66.68	-0.2487	-0.1147	0.134	1107.9777	0.07708	-472.680683	-472.673088	-472.672144	-472.713213	26.971	
O	-0.2051923146	-0.0124923694	 0.0018292764	-0.260994
C	-0.0576019742	 1.1856088936	 0.0098198809	 0.080842
C	 1.2240260426	 1.8864521274	 0.0014315784	 0.038688
C	 1.3460309618	 3.2446508498	 0.0108648947	-0.046865
N	 2.6452338311	 3.68512127	 0.0002400022	-0.350496
C	 3.5350194693	 2.5989907582	-0.0179844304	 0.370259
O	 4.7295998422	 2.6588461003	-0.0304575315	-0.292509
C	 2.5929118239	 1.3331173586	-0.0178117277	 0.202894
O	 3.0053983952	 0.2060898137	-0.0312468249	-0.258423
H	-0.9345331843	 1.8766465993	 0.0245226102	 0.062623
H	 0.5375435331	 3.9664500566	 0.0253634754	 0.1694
H	 2.9385666137	 4.6490402118	 0.0048269563	 0.284582
