18
gdb 45049	2.53187	1.81333	1.26079	3.8151	76.29	-0.2397	-0.0132	0.2265	1018.7264	0.14892	-401.944951	-401.937437	-401.936493	-401.976998	29.805	
O	 0.050993782	 0.1253124832	-0.5224237635	-0.33309
C	-0.0060164552	 1.2500357477	-0.0903619212	 0.331941
C	-1.2812934566	 1.9578925748	 0.4063078522	-0.327505
C	-0.8017680511	 3.2821209598	 0.9625230999	-0.045577
N	 0.145359789	 3.1247524836	 2.0848515121	-0.339664
C	 0.6650632544	 3.4223926132	 0.7304205848	-0.179668
C	 1.1573137919	 2.20092612	 0.0227383359	 0.303477
C	 2.5464708251	 1.6201756265	 0.1660533861	-0.288109
C	 2.1480095396	 2.2439959	-1.1309324249	-0.314158
H	-1.9592200334	 2.0929951482	-0.4447312023	 0.12792
H	-1.7935149139	 1.3330595178	 1.143032556	 0.139967
H	-1.4578561031	 4.1457823374	 0.9448312354	 0.092464
H	 0.150142008	 3.974925028	 2.643683383	 0.231989
H	 1.1228899148	 4.3873088696	 0.5375893276	 0.089908
H	 3.2373330932	 2.1503013723	 0.811869881	 0.120001
H	 2.5989863394	 0.5376026599	 0.2085937557	 0.138055
H	 1.9377534835	 1.5878451167	-1.9683453937	 0.135388
H	 2.5566341523	 3.2146360113	-1.3925596939	 0.11666
