12
gdb 133518	3.41193	1.01148	0.90397	4.8081	51.68	-0.2664	-0.0457	0.2206	1213.599	0.073483	-600.325882	-600.317352	-600.316408	-600.361304	28.929	
F	 0.7894313713	 0.436640171	 0.2011628986	-0.056283
C	-0.0570381603	 1.4281224079	-0.0593829729	 0.2482
F	 0.6689717947	 2.4983064671	-0.4528202949	-0.093558
F	-0.834692074	 1.0688774965	-1.0760307934	-0.056253
C	-0.9300418833	 1.7246914697	 1.1976138616	 0.263429
O	-1.62310718	 0.8542643884	 1.6470918239	-0.292246
N	-0.784227663	 3.0159042416	 1.6527531359	-0.333122
C	-1.4089285933	 3.6222598152	 2.7480748984	 0.084243
N	-2.2326422263	 3.0301401941	 3.501746582	-0.384607
H	-0.1460695048	 3.5928772291	 1.1273876939	 0.272066
H	-1.0779450065	 4.6633490379	 2.8437764138	 0.109097
H	-2.5564505244	 3.6660031614	 4.2290904132	 0.239034
