16
gdb 70769	3.96207	1.31673	1.1199	4.8511	74.8	-0.2583	0.0107	0.2691	1076.5992	0.123503	-400.674731	-400.667129	-400.666184	-400.706638	29.308	
C	 0.0039398624	 1.4730910781	-0.0348539249	-0.524086
C	 0.0396544552	-0.0244269501	-0.0855676275	 0.280224
C	 0.5543168308	-0.9788341103	-1.1894169678	-0.357194
C	 0.0622934432	-1.9584833776	-0.0999045523	 0.198465
C	 0.0701089402	-3.3937837117	-0.0910980962	 0.152598
N	 0.0798301646	-4.5504822278	-0.0917436788	-0.342337
C	 0.5020841048	-0.9934962727	 1.0595231421	 0.017613
O	-0.7858438916	-1.0064022815	 1.7305764178	-0.313999
C	-1.1167324167	-1.0069428397	 0.316461519	 0.017606
H	 1.0110584016	 1.8951203884	-0.1147216827	 0.13065
H	-0.5970029966	 1.8817994254	-0.8537548087	 0.13065
H	-0.4339165165	 1.8049110831	 0.9119244134	 0.143322
H	-0.003179687	-0.989923656	-2.1292564029	 0.118605
H	 1.6304956824	-0.9763701845	-1.3793160499	 0.118608
H	 1.41398598	-1.0138823062	 1.6551919227	 0.114638
H	-2.1625206267	-1.0435962368	 0.0134998967	 0.11464
