21
gdb 61544	3.4155	0.93953	0.86961	3.6118	80.81	-0.2465	0.0262	0.2726	1408.2315	0.181716	-420.407202	-420.397208	-420.396264	-420.442497	36.198	
C	-0.2131338879	 1.3477198316	 0.1614895981	-0.35651
N	 0.0088012313	-0.0746564648	-0.0426293391	-0.023535
C	-0.0715426402	-0.9694558048	 1.0974951328	-0.260882
C	-1.4604677981	-1.0709659877	 1.7166567681	 0.337955
C	-2.5641518107	-1.5157871127	 0.7811119372	-0.449004
C	-1.5243522879	-1.4240125946	 3.158047385	-0.281477
N	-1.862795563	-0.0591950311	 2.7155765093	-0.342954
C	 0.3486260817	-0.5329534058	-1.2838904857	 0.154577
O	 0.4652007388	 0.1463715416	-2.281149832	-0.341091
H	 0.4873078783	 1.7428141947	 0.9088209709	 0.117618
H	-0.0435999115	 1.8480444587	-0.7919190642	 0.170261
H	-1.2342084729	 1.5460618486	 0.5028884544	 0.146316
H	 0.2487354751	-1.9617545112	 0.7586016075	 0.121806
H	 0.6423638559	-0.6469644064	 1.8709795883	 0.096734
H	-2.3742465168	-2.5278907129	 0.4060243964	 0.115383
H	-3.5239297129	-1.5117541931	 1.3018160294	 0.132546
H	-2.6426860641	-0.8470443787	-0.0816358041	 0.133069
H	-2.3614296329	-2.006646925	 3.5322456849	 0.121068
H	-0.5913494936	-1.5815154896	 3.694590212	 0.110099
H	-1.0861944292	 0.5654149816	 2.9213595607	 0.226213
H	 0.5112746905	-1.6289972683	-1.28220873	 0.071809
