24
gdb 100042	2.45336	1.19874	1.00107	2.5738	85.57	-0.2459	0.066	0.3119	1349.4265	0.215819	-405.537613	-405.52708	-405.526136	-405.572475	40.395	
C	 1.5614048672	 1.9569495226	-1.0941835567	-0.393835
C	 1.0329604922	 0.5415000343	-0.8410219763	-0.176039
C	 1.7879571985	-0.5681849941	-1.5944452697	 0.359496
C	 1.6894369491	-0.4038273374	-3.1232887898	-0.418239
O	 3.1569484305	-0.5009213735	-1.2082028773	-0.473244
C	 1.2104281511	-1.9416871447	-1.2266873333	-0.060958
N	 2.1971214958	-3.0333091429	-1.1669180852	-0.367507
C	 1.4341134296	-2.6807805195	 0.0482013289	 0.010418
C	 2.1950775296	-2.1771795317	 1.2531068889	-0.412175
H	 2.6308749496	 2.0100987604	-0.8752162922	 0.138143
H	 1.4119933338	 2.2717674458	-2.1314821672	 0.112271
H	 1.0444068321	 2.6794471339	-0.4550610966	 0.105424
H	 1.0979217584	 0.3194740151	 0.2294183825	 0.100807
H	-0.0298739325	 0.4823958323	-1.1088642614	 0.084759
H	 2.1976916114	 0.509042871	-3.4409634439	 0.124387
H	 2.1752395585	-1.2492327421	-3.6216854715	 0.111169
H	 0.6477295397	-0.3600891025	-3.4606948803	 0.102259
H	 3.4982422011	-1.400857934	-1.3319673857	 0.284615
H	 0.2668490036	-2.1545435153	-1.7280174713	 0.076234
H	 1.8538276362	-3.8850699295	-1.5988888672	 0.234132
H	 0.6287346832	-3.3706373577	 0.3028332997	 0.082525
H	 2.9481657197	-1.4427179228	 0.9686674366	 0.148303
H	 1.5059535289	-1.7102976722	 1.9654771583	 0.114501
H	 2.6860723331	-3.0120773358	 1.7653712508	 0.112554
