21
gdb 60618	2.76678	1.09853	0.86859	2.8673	79.59	-0.2555	-0.0239	0.2316	1386.68	0.179647	-424.237387	-424.227065	-424.22612	-424.273315	37.373	
C	 0.0757151861	 1.5649820009	-0.2192108641	-0.400659
C	 0.1437424506	 0.0622505737	-0.0558423895	-0.0001
C	 1.4594716868	-0.6751431285	-0.0859690253	-0.30922
C	 0.6632345919	-0.6004490192	 1.199149981	-0.01287
C	 1.1388562016	 0.2236132672	 2.3841381201	 0.027282
O	 0.0519362668	 0.795352024	 3.0633204286	-0.44144
C	 1.9609741693	-0.6288842683	 3.3622656695	 0.361657
C	 3.2083408239	-1.3148048574	 2.8593701085	-0.474427
O	 1.5852009899	-0.7230953943	 4.5123017197	-0.321924
H	 0.9630146335	 2.0624824025	 0.1828357443	 0.114124
H	 0.0042794356	 1.8337977004	-1.2786699374	 0.112695
H	-0.7958716397	 1.977304825	 0.2983742031	 0.135809
H	-0.6904037938	-0.4629622017	-0.5139143905	 0.088275
H	 1.5281898566	-1.6262136284	-0.602682227	 0.111322
H	 2.3608888557	-0.0724135927	-0.1519339143	 0.107949
H	 0.1365845008	-1.5037199309	 1.4980300347	 0.087441
H	 1.8163149542	 1.0149019746	 2.0185556054	 0.079843
H	 0.1349833896	 0.4818822417	 3.9794798843	 0.290004
H	 3.8480636567	-0.6101323555	 2.3188586751	 0.141034
H	 3.7533735987	-1.7494084439	 3.6981222371	 0.145407
H	 2.9376047955	-2.1035045492	 2.1497439167	 0.157799
