20
gdb 126645	6.31272	0.68062	0.62216	3.7943	82.85	-0.1964	0.0418	0.2382	1798.2533	0.17278	-399.347009	-399.337706	-399.336762	-399.38199	33.789	
C	-0.0484400352	 1.5292397464	-0.0560115218	-0.38127
C	-0.0545777169	 0.0014064437	 0.0324364899	-0.194304
C	 0.764811644	-0.519875035	 1.2115177691	-0.109674
N	 0.7092926006	-1.9762289293	 1.2794656625	-0.417726
C	 1.3905790439	-2.593579646	 2.3200816308	 0.456932
C	 2.0275798686	-2.0936276904	 3.4441550975	-0.300566
C	 2.4610096392	-3.2451444099	 4.1416626842	-0.004718
N	 2.1382548376	-4.3706550106	 3.5223918661	-0.235607
N	 1.4806789494	-3.9472097762	 2.4084151269	-0.284805
H	 0.969120114	 1.9179625242	-0.1712415357	 0.119643
H	-0.6361396943	 1.8764761864	-0.9105023554	 0.118965
H	-0.4753767582	 1.9792434511	 0.84668169	 0.12116
H	-1.0815098726	-0.3703771369	 0.1247782732	 0.112532
H	 0.3464827526	-0.4207417224	-0.8997871273	 0.094083
H	 1.8019030526	-0.1492600939	 1.141714497	 0.096613
H	 0.3540127823	-0.1279659892	 2.1495811794	 0.119705
H	 0.8858538399	-2.4062309765	 0.3796877616	 0.229903
H	 2.1697067464	-1.0596548212	 3.7084366069	 0.093999
H	 3.0069907683	-3.2882966468	 5.0734045323	 0.103098
H	 1.0710652179	-4.6282586375	 1.7927938929	 0.262037
