17
gdb 123437	4.82062	0.98765	0.8917	2.8806	73.59	-0.2352	0.0066	0.2418	1293.9105	0.139354	-414.185926	-414.17817	-414.177226	-414.219569	28.362	
C	-0.0381866365	 1.5728544532	 0.3921361686	-0.345363
C	-0.1769171915	 0.0612258684	 0.2877081096	 0.033321
C	-1.3425121684	-0.5326960935	-0.412660019	-0.245236
N	 0.0024326234	-0.6066448326	-1.0070266256	-0.308598
C	 1.3615005345	 2.0345428389	 0.1336401731	 0.361682
N	 2.1954468119	 2.4064749915	 1.0934850553	-0.266259
N	 3.3231615703	 2.695557695	 0.3983094664	-0.179161
C	 3.1261271502	 2.4932852004	-0.9182386182	 0.021081
N	 1.8946389859	 2.0754266742	-1.1279443339	-0.301158
H	-0.6992504032	 2.0481870912	-0.3414680182	 0.113429
H	-0.3463590411	 1.90658758	 1.3875053874	 0.1245
H	 0.2655517218	-0.4849164811	 1.1189058382	 0.096379
H	-1.7535297112	-1.4848409596	-0.0884838807	 0.115022
H	-2.0726006154	 0.1495684857	-0.8425539429	 0.107205
H	 0.1188349293	 0.0934205163	-1.7365911263	 0.242055
H	 4.1433176573	 3.0200553241	 0.8833188003	 0.283012
H	 3.8866901429	 2.6632666377	-1.6655200142	 0.148092
