17
gdb 86924	3.54086	1.00226	0.82794	2.4036	72.38	-0.2549	0.0149	0.2698	1361.0917	0.135643	-455.188678	-455.17933	-455.178386	-455.224247	31.86	
C	-0.3441309019	 1.3750276659	 0.1509435985	-0.344452
N	 0.0112556907	-0.0193095085	 0.0991008765	-0.079164
C	-0.7854935579	-1.2493831103	 0.2014630854	-0.178279
C	 0.5436830915	-2.0362723217	-0.0104726743	-0.08946
N	 0.6700006826	-2.8717430031	-1.1765696792	-0.292866
C	 0.0559941365	-4.0827182487	-1.2519275521	 0.153627
O	-0.7125236065	-4.5060097781	-0.4146239931	-0.322309
C	 1.1947607925	-0.6409177089	-0.1831748515	 0.37875
O	 2.2882608589	-0.237760053	-0.4905579308	-0.380513
H	 0.5640621896	 1.9574189604	-0.0210302179	 0.163971
H	-1.0797379979	 1.6296423124	-0.6216940941	 0.133382
H	-0.7600267704	 1.6445906357	 1.1287904533	 0.134794
H	-1.2707690432	-1.3964916876	 1.1706835972	 0.122335
H	-1.5130008322	-1.3758356764	-0.6059666172	 0.123105
H	 0.8604785831	-2.5651453544	 0.8932728184	 0.126843
H	 1.3670680417	-2.6198953453	-1.8612594817	 0.265325
H	 0.3252919429	-4.6358514982	-2.1727034674	 0.084911
