20
gdb 90834	3.07048	1.84848	1.42095	1.6209	82.05	-0.2141	0.0806	0.2947	973.5934	0.173056	-365.908699	-365.901773	-365.900829	-365.939592	29.156	
C	-0.2271883079	 1.507774967	-0.0729297666	-0.404827
C	 0.0509951802	 0.0116327386	 0.0648089334	-0.138841
C	 1.1059823232	-0.5577364107	-0.9953202704	-0.177177
N	 2.2342470451	-1.1586743951	-0.2068688289	-0.167338
C	 1.5070058089	-1.7948138103	 0.9541587906	-0.016236
C	 2.3850534348	-1.2296812169	 2.0974149587	-0.100228
C	 1.1475386986	-0.5606372974	 2.7870435181	-0.366889
C	 0.8644988706	-0.415369014	 1.2681554004	 0.332388
C	 2.3728194728	-0.1942132266	 0.945579371	-0.011523
H	 0.6974297159	 2.0906374386	 0.003869396	 0.112832
H	-0.6831476277	 1.7358244947	-1.0422519085	 0.115294
H	-0.9109629465	 1.8605660904	 0.7062896818	 0.116125
H	-0.8907432505	-0.5440966931	-0.006646613	 0.071491
H	 0.6661698833	-1.3248208407	-1.6391150745	 0.103461
H	 1.4956311594	 0.2415655874	-1.6339204518	 0.103096
H	 1.0025569669	-2.7611205237	 0.8857529536	 0.072872
H	 3.2514233612	-1.6942221407	 2.5674662641	 0.080164
H	 0.4864834868	-1.2231516492	 3.353778937	 0.100332
H	 1.3381961196	 0.3593294499	 3.3474423691	 0.100898
H	 2.9101056554	 0.7532451618	 0.87056337	 0.074106
