21
gdb 58018	1.85048	1.44325	0.9419	2.1711	85.18	-0.2428	-0.0209	0.2219	1341.9115	0.177841	-387.086318	-387.075266	-387.074322	-387.122579	39.806	
C	-0.2031589008	 1.6035862048	 0.076801165	-0.405472
C	-0.1076123419	 0.0825502777	-0.088050897	 0.043908
C	 0.4163396259	-0.2808169797	-1.4845086809	-0.407329
C	 0.7857334781	-0.5558834577	 1.0076966355	-0.257221
C	 0.4227155791	-0.1556366908	 2.3661344741	 0.314356
C	 0.1096274999	 0.12370216	 3.4935157938	-0.450351
C	 0.7364062713	-2.1106387645	 0.9855940093	 0.385552
C	 1.9104763153	-2.8146987347	 1.632992175	-0.479303
O	-0.1886793198	-2.7035377122	 0.4893314655	-0.29339
H	 0.781521202	 2.0753963989	-0.0293067083	 0.108381
H	-0.8560687922	 2.0276244982	-0.6926122006	 0.112611
H	-0.6039292472	 1.8796528969	 1.0550427318	 0.12877
H	-1.1049707575	-0.3537229573	 0.030726007	 0.10379
H	 1.4287485546	 0.1133808658	-1.6383045438	 0.105335
H	 0.4371113351	-1.3614803007	-1.6407841366	 0.132154
H	-0.2249074472	 0.1552821231	-2.256670583	 0.114656
H	 1.8297707174	-0.2548989053	 0.8333949948	 0.105307
H	-0.1648797108	 0.389143446	 4.4845753556	 0.199753
H	 2.8025863191	-2.6760818018	 1.009978862	 0.142583
H	 2.1292611038	-2.3790580673	 2.6121814162	 0.151899
H	 1.7011795157	-3.8806839494	 1.7279108247	 0.144012
