16
gdb 6820	3.0767	1.73457	1.44328	3.4452	65.34	-0.2551	0.012	0.2671	910.033	0.129998	-379.911012	-379.902907	-379.901963	-379.943203	30.066	
C	 0.2271612481	 1.5246879149	-0.2239838686	-0.457396
C	-0.0314585639	 0.0345298809	-0.0800640266	 0.379577
O	-1.3953615793	-0.2846820521	-0.0804737718	-0.460203
C	 0.7820031876	-0.8553220805	-1.050774901	-0.202467
N	 1.8046719391	-1.0396167561	 0.0075076333	-0.31091
C	 0.8280044183	-0.6675833521	 1.0513312644	-0.178446
C	 1.3452257684	 0.1281750382	 2.1606252936	 0.290238
N	 1.7186672379	 0.7808928791	 3.0390487859	-0.332085
H	 1.2996908872	 1.7304243571	-0.2610186978	 0.153265
H	-0.2360724865	 1.891907101	-1.144819494	 0.128154
H	-0.1879796291	 2.0787375077	 0.6261172914	 0.129228
H	-1.8765243233	 0.4098832165	 0.3823461778	 0.287357
H	 0.211062114	-1.7578727315	-1.3026574508	 0.111404
H	 1.1570950301	-0.3889135097	-1.9665942691	 0.112782
H	 2.1885533272	-1.9735468861	 0.0968390825	 0.233187
H	 0.2416797841	-1.5043134373	 1.4543583708	 0.116314
