16
gdb 4844	4.65771	1.47721	1.15984	2.6091	69.5	-0.1905	0.0259	0.2164	1032.2745	0.131022	-379.95504	-379.946935	-379.945991	-379.988002	28.607	
C	-0.0415110913	 1.4490720075	 0.162304497	-0.333107
N	 0.4048333612	 0.081857548	-0.1057517236	-0.391828
C	 0.7145217192	-0.7288665086	 0.9679607984	 0.376029
C	 0.5198219505	-2.0386995185	 1.2758912382	-0.223317
N	 1.179594807	-2.3212472548	 2.4714180259	-0.29117
C	 1.7134469133	-1.2050894388	 2.8354872473	 0.379235
C	 2.5105050084	-0.8940030783	 4.0486271846	-0.487822
O	 1.4756300643	-0.1745106053	 1.9560719396	-0.206447
H	 0.7326703166	 1.9761699346	 0.7228534062	 0.152241
H	-0.1818821793	 1.9636589405	-0.7909205838	 0.127821
H	-0.97933534	 1.5002191367	 0.7356698383	 0.116173
H	-0.1863228621	-0.4037662996	-0.7657853188	 0.245296
H	-0.0332859444	-2.788207573	 0.7339641314	 0.104578
H	 3.5058052652	-0.5172618145	 3.7889462376	 0.139722
H	 2.0210479517	-0.1312374527	 4.6645403784	 0.137944
H	 2.6192642496	-1.8057291633	 4.6368497432	 0.154654
