18
gdb 110790	2.52426	1.41728	1.19565	3.2807	71.11	-0.2295	-0.0236	0.2059	1093.3966	0.147808	-439.072777	-439.064555	-439.063611	-439.105918	31.194	
O	 0.1439893218	 1.2198439805	 0.9807106074	-0.408901
C	-0.0426076669	 0.2741573885	-0.0649439982	-0.103608
C	-1.3480873897	-0.4817353257	 0.0669102916	-0.038364
C	-1.5022655607	-1.9454910919	-0.1715464575	-0.055052
C	-0.2765984547	-2.8282812436	-0.2486339065	-0.355444
C	 0.4249460274	-2.6439152331	 1.1101537257	 0.380051
O	 1.49132664	-3.0998398596	 1.4230998614	-0.301925
C	-0.4932703934	-1.7863254339	 1.9938562639	-0.280475
N	-1.6544446557	-1.3749469189	 1.1989367489	-0.117098
H	-0.6486508221	 1.7640339526	 1.0361078929	 0.287607
H	-0.0206582384	 0.7606106381	-1.0529779729	 0.100532
H	 0.832419525	-0.378811878	-0.0195231345	 0.126007
H	-2.2110628403	 0.1352356969	-0.1893719045	 0.090902
H	-2.4191260767	-2.3041026396	-0.6303777725	 0.098471
H	-0.5552698999	-3.8828130723	-0.3548989732	 0.140926
H	 0.4151971881	-2.6000582167	-1.0643122442	 0.140806
H	-0.8333120029	-2.3921914193	 2.8420697617	 0.134644
H	 0.0523764692	-0.9271102241	 2.3940614704	 0.160921
