16
gdb 125002	2.96207	1.27374	0.92825	1.0741	67.96	-0.2471	-0.0067	0.2405	1208.1029	0.123564	-475.020231	-475.011364	-475.01042	-475.054181	31.919	
C	 0.2117981587	 1.5253239097	-0.0318602498	-0.519689
C	 0.1163840662	 0.0330229204	-0.0419135457	-0.015991
C	 0.0041777035	-0.8378784897	-1.0842637825	 0.324968
C	-0.0428731466	-0.6551600215	-2.5714891677	-0.175744
O	 0.8795458372	 0.3166039193	-3.0385359823	-0.400388
O	-0.0618890014	-2.1106654193	-0.6403505499	-0.225147
N	-0.0036827041	-2.1118427316	 0.7554821147	-0.266032
C	 0.1030354511	-0.8469837768	 1.0809853892	 0.409247
O	 0.1911870852	-0.4424541608	 2.3585637159	-0.417497
H	 1.0386946893	 1.8609504436	 0.6025731701	 0.136763
H	 0.3751996018	 1.9025995492	-1.0426368514	 0.148904
H	-0.7010349806	 1.9821403049	 0.3670448876	 0.136767
H	 0.1053759641	-1.6363899404	-3.0444703768	 0.123955
H	-1.0292135888	-0.2916727207	-2.8800944435	 0.137843
H	 1.7611753243	 0.0382548253	-2.7678743383	 0.290235
H	 0.16274358	-1.2292070016	 2.9193894504	 0.311806
