21
gdb 93521	2.80253	1.36283	1.06112	3.5448	80.68	-0.2327	0.0276	0.2603	1203.2145	0.183806	-420.422563	-420.413556	-420.412611	-420.456038	34.637	
C	-0.1587333512	 1.5033848475	-0.0431334731	-0.427418
C	 0.0546498858	-0.0077950862	-0.0076528102	 0.043595
N	 0.7634069312	-0.4598668417	-1.2010138711	-0.312659
C	 0.7629017106	-1.9167637265	-1.2767844398	-0.240661
C	 1.3287407019	-2.5365945439	-0.0174296255	 0.397778
N	 1.9182570408	-3.6559092995	-0.0640800624	-0.510814
O	 1.0675477782	-1.9076821545	 1.1629119233	-0.271317
C	 0.8740775907	-0.4717720379	 1.2046692606	 0.136471
C	 2.2325916648	 0.2066608073	 1.3606528394	-0.397912
H	 0.7850045488	 2.0308028427	-0.2035445961	 0.135156
H	-0.8383636957	 1.7710279903	-0.8592395274	 0.116709
H	-0.6065457318	 1.859688211	 0.8895806189	 0.122236
H	-0.9359993361	-0.496314198	 0.0797862772	 0.06082
H	 0.335936458	-0.0710587104	-2.0344646504	 0.221913
H	-0.2555710356	-2.3332746043	-1.4021548247	 0.104959
H	 1.3653248204	-2.2593384187	-2.1192091766	 0.135815
H	 2.1795153043	-3.9490344679	 0.8800056191	 0.215731
H	 0.2779709993	-0.3181338342	 2.1101228316	 0.087221
H	 2.7990365289	 0.1486713358	 0.4280610094	 0.140326
H	 2.1152046441	 1.2592493253	 1.6339597599	 0.116556
H	 2.7983352525	-0.2895056461	 2.1531175478	 0.125496
