20
gdb 116634	4.468	0.91465	0.78497	2.9972	89.14	-0.2339	-0.0268	0.207	1504.2575	0.171637	-403.174543	-403.165659	-403.164715	-403.208988	32.888	
C	-0.5681640035	 1.4888131161	-0.139398264	-0.370398
C	 0.3463881174	 0.2946642575	 0.1241641399	-0.118026
N	 1.0424169233	-0.0876250689	-1.0964292077	-0.321708
C	 2.0938833296	-0.7951334479	-1.0147720048	 0.39846
O	 2.5666228726	-1.2517431424	 0.1872720336	-0.270205
C	 3.9405815756	-1.6560929342	 0.2350571682	-0.081802
C	 4.2927667043	-2.6429744224	-0.8731972046	-0.271121
C	 3.8050470121	-2.1031039588	-2.1885293822	-0.082114
C	 2.8040612328	-1.2193480854	-2.225747104	-0.112716
H	 0.0132575893	 2.3570300503	-0.4650459863	 0.114923
H	-1.2888195938	 1.2553702309	-0.9286678905	 0.119404
H	-1.1192541583	 1.7645372336	 0.7656246601	 0.101664
H	 1.0517707313	 0.5195093047	 0.9361332739	 0.099643
H	-0.2531516687	-0.5581037532	 0.4758486144	 0.104873
H	 4.5780119027	-0.7654472523	 0.1519012223	 0.111281
H	 4.0808482576	-2.0878863853	 1.2285951457	 0.117307
H	 5.3783700506	-2.7950899479	-0.8871533071	 0.114832
H	 3.8445509086	-3.6265184486	-0.6736833764	 0.126746
H	 4.2721975762	-2.4517843596	-3.104645648	 0.103712
H	 2.4187739604	-0.8042924864	-3.1489318827	 0.115244
