19
gdb 119795	5.44919	0.91212	0.83568	1.6456	77.54	-0.2126	0.058	0.2706	1427.2937	0.160125	-419.208891	-419.200371	-419.199427	-419.242476	32.112	
C	-0.1221820789	 1.4962747228	 0.0428305446	-0.392322
C	-0.0037803217	-0.0147706298	 0.0017226596	-0.035575
O	-1.3355685429	-0.5558344445	 0.0692256241	-0.271035
C	-1.4158142566	-1.8866656516	 0.0506326171	 0.473009
N	-0.4345646998	-2.7152832267	 0.0183078388	-0.362943
C	-1.0194657305	-4.0317167145	-0.0039389752	-0.007692
C	-1.8319635338	-4.4771981526	 1.1960440637	-0.295107
C	-2.5411947661	-3.8484386479	 0.0258235099	-0.024363
N	-2.6984093664	-2.413072716	 0.1114021694	-0.366897
H	 0.8735314758	 1.9468377214	-0.005224963	 0.12229
H	-0.7090133478	 1.8660675274	-0.802931221	 0.126405
H	-0.60566989	 1.8249224119	 0.9671562155	 0.129555
H	 0.4758719495	-0.3653497877	-0.9181269018	 0.120426
H	 0.5778523782	-0.407002987	 0.84203746	 0.124641
H	-0.5033029479	-4.7781882739	-0.5977444138	 0.088697
H	-1.962100684	-5.5466503152	 1.3246753641	 0.109806
H	-1.750952362	-3.9062191961	 2.115501477	 0.117183
H	-3.2649556542	-4.3925948574	-0.5683048962	 0.097197
H	-3.4328211709	-1.9514337726	-0.4034317328	 0.246724
