17
gdb 98340	3.59149	0.86284	0.75578	3.9	70.17	-0.2548	-0.0118	0.243	1481.3505	0.134681	-455.183092	-455.172994	-455.17205	-455.219446	34.334	
C	-0.024107096	 1.340577837	 0.0308752026	-0.246058
O	-0.0275478667	-0.0916001486	-0.088826037	-0.231691
C	 0.6008543441	-0.5816976782	-1.1679218765	 0.461243
O	 1.1460165098	 0.0906192951	-2.0056992933	-0.360095
C	 0.5928304597	-2.1069886991	-1.1645862545	-0.083197
N	 0.6584575979	-2.5688288059	-2.5329665643	-0.515156
C	 1.7706836145	-2.5607563776	-0.2335142691	-0.353624
C	 1.8846726044	-4.0140695404	-0.2027664543	 0.254365
N	 1.9467171256	-5.1683054777	-0.2156468877	-0.303726
H	 0.9997264905	 1.7189861518	 0.0793421395	 0.14495
H	-0.5290768885	 1.7945147688	-0.8247590567	 0.150869
H	-0.5599602632	 1.560575036	 0.9535663335	 0.141471
H	-0.3385043651	-2.4491241721	-0.7030409056	 0.125219
H	 1.3801764219	-2.0603981393	-3.0342551418	 0.245449
H	 0.8602294646	-3.5621346866	-2.5750592252	 0.24857
H	 2.7110871961	-2.1386676224	-0.6061428752	 0.159894
H	 1.6151395105	-2.1866067107	 0.7840822954	 0.161516
