20
gdb 56157	3.64247	0.84222	0.78553	2.2675	77.45	-0.2485	0.029	0.2775	1539.6144	0.168786	-440.280337	-440.270341	-440.269397	-440.316181	36.34	
C	 0.2931982057	 1.3972733577	-0.1793167856	-0.461614
C	 0.1194991675	-0.0789450025	 0.073089291	 0.401698
N	 0.006196709	-0.6893884954	 1.1801906044	-0.516417
O	 0.0967204273	-0.7507899066	-1.0978130876	-0.260618
C	-0.1010896764	-2.1763204341	-1.0287355869	-0.123144
C	-0.1012512789	-2.6693884237	-2.4483814194	 0.421384
O	-1.1161855056	-2.1109890849	-3.2375082948	-0.473075
C	 1.2023243176	-3.0265324674	-3.1230740802	-0.316791
C	 0.2069877552	-4.1036924214	-2.7345485794	-0.312275
H	 0.3415725168	 1.9515048227	 0.759113781	 0.128663
H	 1.2088901426	 1.577387151	-0.7505278892	 0.146948
H	-0.5410822367	 1.7788423135	-0.776281409	 0.1445
H	 0.0472699214	-0.0331289415	 1.9563826423	 0.220413
H	 0.6943206569	-2.6314659278	-0.4315836558	 0.116782
H	-1.0572112903	-2.3775987532	-0.5351514588	 0.124603
H	-0.9959606887	-1.1549450289	-3.1940793803	 0.285172
H	 1.2824731191	-2.784414248	-4.1763143217	 0.117389
H	 2.1253020049	-2.9447678337	-2.5591439592	 0.112454
H	 0.4464532261	-4.7622828547	-1.9067033734	 0.116559
H	-0.3686950335	-4.5619395211	-3.5302052774	 0.12737
