15
gdb 32504	2.21887	1.59433	0.93325	7.1344	75.63	-0.2195	-0.0037	0.2158	1186.0142	0.114052	-416.848526	-416.840357	-416.839412	-416.881528	29.9	
C	 0.0423821946	 1.3310888361	 0.0070218695	-0.250945
O	 0.0041518728	-0.0845290185	 0.0025417501	-0.254457
C	-1.2249113409	-0.6353167502	 0.0102019527	 0.265829
C	-2.4647703547	-0.0369212802	 0.0221526898	-0.210908
N	-3.4027831869	-1.0555912228	 0.0258118948	-0.24852
C	-2.795198117	-2.2659336849	 0.0164881853	-0.143246
C	-1.4248869062	-2.0555490869	 0.0067332494	 0.052909
C	-0.4222431132	-3.051828392	-0.0046809175	 0.201852
N	 0.3973126107	-3.8708870581	-0.0141074205	-0.361948
H	 1.0953755789	 1.6144150375	-0.0003309408	 0.144112
H	-0.4539002751	 1.7431488637	-0.8819248688	 0.122423
H	-0.4397751479	 1.7371121004	 0.9064602534	 0.122421
H	-2.7605043088	 0.9967602972	 0.0282464729	 0.13469
H	-4.3972888348	-0.9136671534	 0.0341316967	 0.27449
H	-3.3511316415	-3.188456888	 0.0173897931	 0.151298
