17
gdb 79213	2.67748	1.67142	1.32417	1.7758	78.41	-0.237	0.0156	0.2526	1009.1377	0.134324	-384.58881	-384.580999	-384.580055	-384.620781	31.01	
C	 0.0374875112	 1.5724289076	 0.0290845079	-0.424779
C	 0.0666300565	 0.0561557862	-0.0521610365	-0.017003
C	 0.806368009	-0.6597085828	-1.1848605455	-0.153949
C	 2.2569252549	-0.7877428911	-0.6863656193	 0.092233
O	 2.3557656143	-0.1318545795	 0.5774299253	-0.32717
C	 1.0518256405	-0.7237822178	 0.8913365912	 0.339158
C	 0.7898273827	-0.9421612529	 2.2807062561	 0.06204
C	 0.5329447094	-1.134914973	 3.4392504427	-0.319911
C	 1.2464214511	-1.7917700442	-0.2646709063	-0.209837
H	 1.0516608202	 1.976596983	-0.004639134	 0.135569
H	-0.533463812	 1.9937202624	-0.8053303902	 0.112403
H	-0.4361943532	 1.9049922093	 0.9590471363	 0.120968
H	-0.9308134689	-0.3793835097	 0.0621666501	 0.086216
H	 0.5393156496	-0.7181443837	-2.2322237499	 0.093646
H	 3.135082635	-0.8501508471	-1.3139691026	 0.113554
H	 0.3151975965	-1.3025559203	 4.4652093199	 0.187507
H	 1.1720485034	-2.8687162364	-0.307372325	 0.109356
