16
gdb 19504	3.95205	1.56972	1.55487	3.4128	70.36	-0.2297	-0.0183	0.2114	884.8361	0.131442	-346.609145	-346.602363	-346.601418	-346.640228	26.001	
O	 0.0368916493	-0.0515077842	 0.3550043221	-0.27555
C	 0.0028202461	 1.1148533634	 0.0352527149	 0.147723
C	 1.2132415057	 1.9624399525	-0.0577103692	-0.110004
C	 1.4831786555	 2.9582226379	-1.1867024541	-0.069096
C	 0.3467056718	 3.4269701112	-2.0993816459	-0.276894
C	-0.5913771382	 4.1475321688	-1.1538912841	-0.073121
C	-0.1129086026	 4.1813313445	 0.0923702365	-0.076721
C	 1.201991503	 3.4805571609	 0.1966895255	-0.098915
H	-0.9594440153	 1.6128036475	-0.1991025561	 0.078148
H	 2.0997181703	 1.4431243186	 0.2931660853	 0.107381
H	 2.4902142067	 2.9360160321	-1.5850569137	 0.101526
H	 0.7303934195	 4.1027801307	-2.875084359	 0.11702
H	-0.1470490809	 2.6042149275	-2.6310239807	 0.122053
H	-1.5449619107	 4.5515558109	-1.4736887252	 0.10244
H	-0.6033173347	 4.635814941	 0.9451445523	 0.10329
H	 1.9735738045	 3.8639207069	 0.8552302815	 0.10072
