21
gdb 101276	2.63167	0.98312	0.85517	2.0901	85.51	-0.24	0.0496	0.2896	1465.0075	0.179662	-387.04582	-387.035432	-387.034488	-387.081436	38.393	
C	 0.0601855861	 1.5631698594	-0.0479711417	-0.382061
C	 0.2350653956	 0.0431595641	-0.0296381503	-0.183555
C	 0.5578949813	-0.5070201304	 1.3673908072	 0.118486
O	-0.4504828421	-0.1576377905	 2.3132659484	-0.431878
C	 0.7893290396	-2.0040553167	 1.3400562051	-0.022
C	 2.1193024211	-2.5788388285	 0.947470617	-0.299878
C	 1.6486348181	-2.695182232	 2.3908827624	-0.2049
C	 2.3082271209	-1.9501834848	 3.4232671186	 0.342974
C	 2.873127222	-1.3421660507	 4.2942235709	-0.470386
H	 0.9907439767	 2.0680724605	 0.2339375237	 0.115242
H	-0.2248216801	 1.9182296254	-1.0428495935	 0.107398
H	-0.7101226218	 1.8700606145	 0.6641317505	 0.127963
H	-0.6818973072	-0.4444190994	-0.3936437316	 0.080868
H	 1.0325718609	-0.2582555274	-0.7195672475	 0.099834
H	 1.4639852173	-0.0191648398	 1.745811322	 0.096304
H	-1.2725799487	-0.5743913868	 2.0310521175	 0.273238
H	-0.0839897805	-2.5762208338	 1.0297227763	 0.080626
H	 2.1489033689	-3.4828853324	 0.3498600077	 0.117708
H	 2.9323254188	-1.8857692984	 0.7602391559	 0.127449
H	 1.3054722272	-3.6792580888	 2.6971317963	 0.111952
H	 3.3588214561	-0.7991044735	 5.066240185	 0.194616
