17
gdb 80247	2.40322	1.65851	1.28876	4.2214	67.95	-0.2601	0.0103	0.2703	1023.3838	0.136328	-458.97487	-458.967082	-458.966137	-459.00687	30.248	
C	-0.0774113192	 1.6399669331	-0.0106285799	-0.442354
C	 0.0113532264	 0.1248646522	 0.0094880605	 0.020317
C	 1.1566602191	-0.6166810378	-0.7270596249	 0.022985
O	 2.362104121	-0.0501148671	-0.1410685656	-0.244479
C	 2.0519575359	-0.0422591791	 1.2056309972	 0.445479
O	 2.7855847029	 0.3551560022	 2.0576859951	-0.349677
C	 0.6555285993	-0.6406685901	 1.230458876	-0.227329
C	 0.9111767965	-1.8223290897	 0.2318177146	 0.121613
O	-0.2443650053	-2.5861945986	 0.0242939696	-0.43189
H	 0.8882631993	 2.1126187676	 0.1876427609	 0.1444
H	-0.4286090185	 1.9894175061	-0.9872698634	 0.12242
H	-0.7890903945	 1.9938047326	 0.7422044133	 0.127479
H	-0.9445913823	-0.33908669	-0.2349860963	 0.109552
H	 1.2693586749	-0.6846912162	-1.8078336472	 0.090946
H	 0.1830513105	-0.7678717051	 2.2003979556	 0.101645
H	 1.7945690786	-2.4431643891	 0.4265522973	 0.094841
H	-0.0524040344	-3.248749061	-0.6473288329	 0.294052
