19
gdb 122946	3.86437	0.66754	0.62616	1.505	69.38	-0.2623	-0.0427	0.2196	1772.6849	0.156265	-497.284238	-497.273962	-497.273018	-497.321372	35.62	
O	 0.1216040517	 1.1525007887	-0.6148704784	-0.418784
C	-0.2663737244	-0.0624514072	-0.0070120134	-0.055916
C	-1.7632141524	-0.0711957811	 0.2871831787	-0.084192
O	-2.5180278372	 0.170664012	-0.8980988183	-0.266832
C	-2.7451978068	-0.9695775318	-1.7042207085	-0.106112
C	-3.6737798385	-0.5508214817	-2.8556529887	 0.036399
O	-3.7871313517	-1.5945960096	-3.7787581435	-0.434133
C	-5.0394361968	-0.150789052	-2.329921082	 0.138467
O	-6.0441923595	-0.6886246416	-2.7316492359	-0.262402
H	-0.543683296	 1.3352211042	-1.2893291695	 0.286181
H	 0.0033534309	-0.930123983	-0.631798456	 0.091331
H	 0.2906784794	-0.1541722535	 0.931973531	 0.112521
H	-2.070971812	-1.0160636449	 0.7588220664	 0.096518
H	-2.0048685174	 0.7548200728	 0.9633842376	 0.119818
H	-1.8203731867	-1.3686535463	-2.1421233958	 0.120836
H	-3.2132291978	-1.776586503	-1.1193489684	 0.106902
H	-3.2334442402	 0.3500508032	-3.3192181199	 0.102488
H	-4.7393277531	-1.7687093442	-3.8561568506	 0.29766
H	-5.0599548714	 0.646075119	-1.5644198948	 0.119249
