21
gdb 114855	4.37876	0.96843	0.86012	1.6109	85.86	-0.2355	0.0068	0.2423	1407.4976	0.183163	-387.060966	-387.052486	-387.051541	-387.094179	32.699	
C	 0.028151278	 1.6198582433	-0.1394865428	-0.386786
C	 0.0173538447	 0.0927653443	-0.0235484541	-0.179784
C	-1.3883065581	-0.5119173268	 0.1021439756	 0.001051
C	-1.3962477892	-2.0813221437	 0.0210941452	-0.278878
C	-2.6387556565	-2.4561309364	 0.8389118788	 0.104813
O	-2.5793926536	-3.3657153487	 1.996502296	-0.308994
C	-3.0951789544	-2.3179618601	 2.8755677783	-0.155459
C	-2.7790074731	-1.3174379355	 1.7933225304	 0.18682
C	-2.0507299071	-0.2584697892	 1.4645674972	-0.211587
H	 1.0493866056	 2.0017324281	-0.2338826379	 0.11398
H	-0.5344707163	 1.9521814098	-1.0190358768	 0.115845
H	-0.4218069853	 2.0968587093	 0.7376466858	 0.11763
H	 0.5029085212	-0.3397277182	-0.9078028428	 0.097382
H	 0.6187189185	-0.222099665	 0.8396324339	 0.096659
H	-2.0014788582	-0.1023935648	-0.7154903126	 0.077699
H	-1.3960569442	-2.4571055937	-1.0063890103	 0.093722
H	-0.5071940772	-2.4674455359	 0.5324555787	 0.114795
H	-3.5059817774	-2.7209339668	 0.2190545572	 0.077493
H	-4.1596410179	-2.4775942785	 3.0937801495	 0.106124
H	-2.5364614765	-2.2367464128	 3.8139732341	 0.118544
H	-1.8270350531	 0.6063966714	 2.0782288164	 0.098933
