21
gdb 39014	2.89483	1.6644	1.23664	0.2235	88.16	-0.2265	0.0261	0.2526	1072.8983	0.185752	-349.945908	-349.938599	-349.937655	-349.977294	30.559	
C	 0.0418991972	 1.4185613113	-0.2976764931	-0.295525
C	 1.3600814862	 0.7432432022	-0.0128278051	-0.01945
C	 2.1013760564	 1.0188489663	 1.2983066805	-0.262579
C	 1.2098716129	 0.9479185168	 2.5194757078	-0.26423
C	 0.141028599	 0.1635100706	 2.5054246483	 0.361711
C	-1.1451382186	-0.0216187914	 3.2845880788	-0.322427
C	-1.8184115797	-0.3781048585	 1.9141194	-0.241193
C	-0.3874295261	-0.6026574154	 1.3157268452	-0.058456
C	 0.0746142497	-0.0659826781	-0.0203187024	-0.046561
H	-0.3629391242	 2.0690056535	 0.4710111358	 0.111197
H	-0.1649454517	 1.7431362396	-1.3116010032	 0.103776
H	 2.019644257	 0.6048265162	-0.8647516762	 0.07808
H	 2.9337177208	 0.3055789733	 1.3914280656	 0.107023
H	 2.5708861786	 2.0099254551	 1.2450178292	 0.101422
H	 1.4452310877	 1.5806718041	 3.371550309	 0.080478
H	-1.1178370793	-0.8860627726	 3.9580038783	 0.107413
H	-1.5330519827	 0.8364418799	 3.8401378763	 0.105877
H	-2.5095296732	-1.2239570887	 1.899448838	 0.094158
H	-2.3044276987	 0.4928704805	 1.4677226622	 0.10806
H	-0.1278462373	-1.6678631716	 1.3848193977	 0.076588
H	-0.0851911541	-0.717038123	-0.8752651028	 0.074637
