25
gdb 60457	4.64565	0.58688	0.56595	0.7579	91.15	-0.2483	0.088	0.3363	2111.1311	0.22703	-389.478722	-389.467757	-389.466813	-389.515866	39.702	
C	 0.0583480258	 1.4329699889	-0.2382151292	-0.379214
C	-0.0744378943	-0.0812014768	-0.0356009843	 0.022802
C	 0.6980456279	-0.5585141046	 1.1999402707	-0.392589
C	-1.5415026467	-0.4988206814	 0.0622943272	-0.034704
O	-2.2016790855	-0.1651907054	-1.139719255	-0.250608
C	-3.5812516789	-0.4692929707	-1.1261763196	-0.065125
C	-4.1962667625	-0.0345624928	-2.4275250767	 0.011585
C	-4.12422545	-0.9357368205	-3.6321224671	-0.246662
C	-5.4411073835	-0.7221771528	-2.9290871856	-0.272898
H	 1.1040210414	 1.7193990438	-0.3905625913	 0.105476
H	-0.5210360477	 1.7587824834	-1.1048734027	 0.129468
H	-0.3106708575	 1.9767187226	 0.6404349932	 0.104646
H	 0.3376328605	-0.5843242337	-0.9206432498	 0.081849
H	 0.3037386435	-0.0987550114	 2.1142173365	 0.11219
H	 0.6376765887	-1.6455814379	 1.3199557852	 0.110132
H	 1.7560292429	-0.2881937535	 1.1264934753	 0.113591
H	-1.6167218682	-1.5844263008	 0.2497385541	 0.077062
H	-2.0225049159	 0.0090195333	 0.9186638641	 0.077016
H	-3.7347867416	-1.5538105355	-0.9815552557	 0.076451
H	-4.0716581208	 0.0387105533	-0.2772575348	 0.083519
H	-4.1202387604	 1.0324269471	-2.6155664384	 0.088498
H	-3.9782390468	-0.4815557055	-4.605656984	 0.112029
H	-3.6343533373	-1.8964230965	-3.5124537024	 0.11302
H	-5.8422628403	-1.5419031707	-2.341592886	 0.110248
H	-6.1978724627	-0.1180250722	-3.4166072141	 0.112218
