19
gdb 84069	2.34601	1.5518	1.04634	2.9394	78.87	-0.2458	-0.0488	0.1969	1181.9614	0.158221	-423.072099	-423.062799	-423.061855	-423.106115	34.282	
C	 0.0928632176	 1.5840457504	-0.0062453624	-0.377117
C	-0.0415614358	 0.0524744686	 0.0327673266	-0.08898
C	 0.6558375347	-0.6129323182	-1.1348465337	-0.150599
C	 1.7938827067	-1.2534605277	-0.8152354784	 0.20635
C	 2.7846507037	-1.9387224438	-1.698653435	-0.496795
C	 1.9937039865	-1.1079883307	 0.6432476385	 0.287208
O	 3.0009073753	-1.2961580034	 1.293399985	-0.353187
C	 0.6837422371	-0.5896873336	 1.2418824537	 0.041805
O	 0.9048274179	 0.2547039027	 2.3397949024	-0.43519
H	 1.1444251814	 1.8845345124	-0.003403007	 0.122643
H	-0.3774020101	 1.9889657335	-0.907848215	 0.109252
H	-0.3848656896	 2.0281478554	 0.8695557263	 0.138637
H	-1.1093225099	-0.1979505643	 0.0314660834	 0.085401
H	 0.2686189243	-0.5237294444	-2.1462852907	 0.108837
H	 3.7845842778	-1.5203984262	-1.541799632	 0.148936
H	 2.8537430196	-3.00531184	-1.4564288928	 0.140563
H	 2.5225753381	-1.8402134562	-2.7549426276	 0.124548
H	 0.110323678	-1.482756599	 1.5492529144	 0.095129
H	 1.7839523767	 0.0189112845	 2.6721809745	 0.292562
