19
gdb 126647	6.4188	0.68067	0.62323	5.9521	79.21	-0.2123	0.0171	0.2294	1772.9501	0.160614	-415.382968	-415.373832	-415.372888	-415.417851	32.81	
C	-0.0388451863	 1.5357142683	 0.0665258515	-0.382169
C	-0.0614483829	 0.0086103541	-0.031360434	-0.1952
C	 0.7491704991	-0.5124292917	-1.2161910134	-0.116326
N	 0.6785860965	-1.9696447113	-1.2924718047	-0.416107
C	 1.3374764489	-2.5842141622	-2.3403252978	 0.418886
C	 1.9538110117	-2.1070615521	-3.4818002498	-0.144221
N	 2.3860783195	-3.1707488272	-4.2202016877	-0.183972
N	 2.0887789697	-4.2762789728	-3.6174980017	-0.126048
N	 1.4418684527	-3.9310280808	-2.4667058144	-0.275424
H	 0.9829682233	 1.9130457324	 0.1810096795	 0.121591
H	-0.4645587083	 1.9958168001	-0.8314981816	 0.123253
H	-0.6200785169	 1.8824688134	 0.9254289569	 0.121399
H	 0.3384942581	-0.4238834654	 0.8965335756	 0.096166
H	-1.0924553556	-0.3516730108	-0.1233983105	 0.114645
H	 0.3395372498	-0.1118910506	-2.1510289999	 0.123996
H	 1.7906772856	-0.1563649294	-1.1470998802	 0.102371
H	 0.8350855187	-2.4132052936	-0.3961737689	 0.235182
H	 2.1082793684	-1.0909146098	-3.802055722	 0.111871
H	 1.0842205479	-4.6526991205	-1.8626904567	 0.270108
