16
gdb 2042	4.57056	2.4829	2.21724	2.551	59.86	-0.2286	0.0684	0.297	669.6086	0.136195	-325.725266	-325.718471	-325.717527	-325.755329	26.471	
C	-0.0749127017	 1.5838479013	 0.0118431949	-0.455889
C	 0.0458887414	 0.0660821578	 0.0159732508	 0.403612
O	-1.2287580098	-0.5391288274	-0.1437151417	-0.47363
C	 1.1356164408	-0.6211866713	-0.8663819267	-0.218919
N	 1.6885717652	-1.3905814409	 0.3067838067	-0.124786
C	 2.1734925126	-0.3659026239	 1.2463843306	-0.248983
C	 0.7228364856	-0.6275554706	 1.1981822103	-0.050577
H	 0.8852721635	 2.0719337572	 0.1991034373	 0.118183
H	-0.4374862966	 1.9367642018	-0.9623146211	 0.108079
H	-0.7873934427	 1.9072106681	 0.7768534362	 0.128749
H	-1.6230464275	-0.1911968467	-0.950995568	 0.27685
H	 0.6952967704	-1.3067017801	-1.5928288764	 0.111064
H	 1.8755965806	 0.02074201	-1.3580999376	 0.093092
H	 2.7265294121	-0.7843365449	 2.0819891761	 0.12336
H	 2.5850766367	 0.5628021317	 0.8557826724	 0.107928
H	 0.1731092595	-1.1126040721	 1.9981005261	 0.101868
