15
gdb 51699	3.6198	1.05124	0.9093	3.8605	65.58	-0.2676	0.003	0.2706	1257.5157	0.113009	-491.096891	-491.088803	-491.087858	-491.130988	28.306	
N	-0.0568265443	 1.1816448266	-0.4171481309	-0.425123
C	-0.0415038891	-0.0474078028	-0.1522097546	 0.129968
O	-1.2050411371	-0.7524993781	-0.2091847276	-0.191868
C	-1.1164097863	-2.1277116366	 0.0710889686	 0.168688
C	-2.5272790819	-2.7183745064	 0.0464583352	-0.128733
O	-2.6166705319	-3.2972772395	-1.2550788996	-0.244731
C	-1.3719142762	-3.3906886596	-1.7990236582	 0.493169
N	-1.0442050568	-3.9150297256	-2.8883584241	-0.567913
O	-0.4517980074	-2.825293359	-0.9616748783	-0.218446
H	 0.8784476468	 1.5727268749	-0.323849342	 0.238836
H	 0.8251702686	-0.6547540421	 0.134162656	 0.1093
H	-0.5609840122	-2.2986861245	 0.9978782256	 0.112639
H	-2.6585134426	-3.4944070052	 0.8070667441	 0.130879
H	-3.2888703374	-1.9459266197	 0.1554872326	 0.154572
H	-1.8580052221	-4.3132804524	-3.3504405566	 0.238764
