16
gdb 12212	4.06224	1.53756	1.20191	4.5237	68.68	-0.2549	-0.0256	0.2293	995.6389	0.130617	-379.947451	-379.939451	-379.938506	-379.98013	28.321	
C	-0.5848388093	 1.3877619346	 0.1336848782	-0.40075
C	 0.0108424928	-0.0033567737	-0.0384264	-0.084917
C	 0.9943967863	-0.2328166895	-1.2351217195	-0.200776
N	 2.0312946884	-0.5727606575	-0.2434489869	-0.098868
C	 3.3452386041	-0.9329843396	-0.3344154132	 0.136738
O	 4.0534845778	-1.1575079519	 0.6227156135	-0.304359
C	 1.1867681295	-0.3546540757	 0.8741690657	 0.39715
N	 1.3377296001	-0.4056928332	 2.120802564	-0.5406
H	 0.1897532597	 2.1592143699	 0.0758114293	 0.12521
H	-1.3333880488	 1.5936866721	-0.6377997534	 0.121084
H	-1.0664308786	 1.4710118833	 1.1116363985	 0.147861
H	-0.7711760355	-0.7667876624	 0.0024222893	 0.111287
H	 0.7409558377	-1.055642479	-1.9086143345	 0.126375
H	 1.2248111022	 0.6654810984	-1.8157018053	 0.125088
H	 3.6937813419	-0.9989637293	-1.3839392831	 0.088861
H	 2.2943069019	-0.6732912364	 2.3585474275	 0.250617
