23
gdb 92485	2.36376	1.56955	1.54603	1.3378	82.98	-0.2554	0.0709	0.3262	1054.1026	0.210377	-388.32313	-388.315159	-388.314215	-388.355552	32.67	
O	-0.0141994981	 1.4161357521	-0.1409677616	-0.448567
C	 0.0115222811	-0.0014776635	 0.0008760911	 0.150127
C	 0.7266069903	-0.463928029	 1.3043803801	-0.249497
C	-0.1944721863	-1.3989025666	 2.1111902727	 0.013677
C	-1.4446327069	-0.6145424936	 2.5520340005	-0.203181
C	-2.1350567042	 0.0084544036	 1.3038762923	-0.208649
C	-1.4420117132	-0.4943863221	 0.0235471954	 0.004623
C	-1.4360811043	-2.034297897	 0.0019934522	-0.220214
C	-0.6265200024	-2.5763012791	 1.2169252218	-0.201994
H	 0.8913769671	 1.7363315947	-0.0840898434	 0.277583
H	 0.5136241864	-0.4449052035	-0.8737287395	 0.053869
H	 1.6733466397	-0.9651369795	 1.0731370129	 0.086694
H	 0.9649319683	 0.4239953927	 1.9023197902	 0.089229
H	 0.3397547709	-1.7759132114	 2.989856518	 0.053295
H	-2.1274441639	-1.2880259115	 3.0822745755	 0.087181
H	-1.1613729732	 0.1663601434	 3.266134247	 0.090646
H	-3.1977314915	-0.2538205342	 1.2741354441	 0.085357
H	-2.0751266123	 1.0989739561	 1.3317193813	 0.112455
H	-1.9555485544	-0.1027964148	-0.8601230284	 0.062795
H	-2.4693507203	-2.3958376357	 0.0322163833	 0.093512
H	-1.0097388619	-2.3950094732	-0.9406921801	 0.091428
H	 0.2584173452	-3.1271125605	 0.8786309541	 0.088039
H	-1.227582946	-3.2823987474	 1.7997378204	 0.09159
