16
gdb 37205	2.80701	2.08304	1.76375	1.3425	66.08	-0.2233	0.0383	0.2616	827.1237	0.125213	-437.747343	-437.740875	-437.73993	-437.777783	26.68	
C	-0.0033421662	 1.5237972516	-0.0173131569	-0.23963
N	 1.5099239767	 1.5499128211	 0.0150091061	-0.369225
C	 1.5446203421	 0.0646720495	-0.0479492711	 0.151203
C	 1.5002122623	-0.6900068003	 1.3001517808	-0.130113
O	 0.0343530296	-0.7359119175	 1.258932626	-0.33042
C	 0.037545836	-0.0304531702	 0.0106223535	 0.325295
C	 0.0443138511	-0.8891881823	-1.2683025208	-0.05248
O	 0.6800394853	-0.087591746	-2.2633360638	-0.226835
C	 1.5333029887	-0.7724994522	-1.3403658838	-0.050107
H	-0.4487034681	 1.982886267	 0.8689882149	 0.118133
H	-0.4490847016	 1.9439614835	-0.9228511684	 0.119101
H	 1.9135267396	 1.9935642989	-0.8027842417	 0.230493
H	 1.931495726	-1.696713675	 1.328554877	 0.10836
H	 1.8625803075	-0.0986216884	 2.1459502769	 0.123631
H	-0.6313693162	-1.6681330213	-1.6042836989	 0.113941
H	 2.2856104472	-1.4268258383	-1.7685409297	 0.108653
