20
gdb 63249	2.63391	1.45233	1.19866	1.7992	82.39	-0.2385	0.0025	0.2409	1132.8137	0.170712	-403.151877	-403.142935	-403.141991	-403.18572	34.075	
C	 0.569541919	 1.1716621578	 0.0270500394	-0.381813
C	-0.2709573759	-0.1271639477	-0.0256581158	 0.200228
C	-1.7705952069	 0.2477186933	 0.0221995283	-0.386143
C	 0.0008826069	-0.8219433528	-1.3480729213	-0.029934
C	 0.8731437402	-1.7916568668	-1.601468453	-0.122035
C	 1.7955942486	-2.4090979271	-0.5899258169	-0.138415
O	 1.1840643065	-2.853147771	 0.6262392374	-0.21844
C	 0.5304887	-1.9655506304	 1.4179843533	 0.115427
N	-0.0259906161	-0.8556740739	 1.2143009328	-0.282279
H	 1.6383672544	 0.9428631167	-0.0082869495	 0.113471
H	 0.3289403183	 1.8233444106	-0.8186439218	 0.11138
H	 0.3605574734	 1.7078297546	 0.9570323719	 0.126291
H	-2.0384610932	 0.8888556522	-0.82406777	 0.1048
H	-2.3916236501	-0.6520403562	-0.0148199581	 0.119176
H	-1.9901743862	 0.7767092558	 0.9522789293	 0.12382
H	-0.582182423	-0.4314472019	-2.1808162601	 0.088889
H	 0.9725122502	-2.1598630674	-2.6193698792	 0.096773
H	 2.2627479506	-3.3084196256	-0.9974763485	 0.122442
H	 2.6039619301	-1.7096204659	-0.3305011292	 0.120409
H	 0.5121733732	-2.3764003543	 2.4294931808	 0.115954
