22
gdb 8155	3.70421	1.56537	1.32074	0.2647	81.51	-0.2495	0.082	0.3315	1049.5544	0.201234	-313.082578	-313.074355	-313.073411	-313.114711	32.571	
C	 0.014687241	 1.5624072688	-0.0206727391	-0.406192
C	 0.0701258143	 0.0361689657	-0.0275087621	 0.072149
C	 0.8858518992	-0.5774121832	-1.1943047339	-0.241166
C	 1.3325514454	-1.9489802198	-0.6905229378	-0.071893
C	 2.5597195037	-1.9995075405	 0.189285058	-0.324721
C	 1.190011797	-1.9804778295	 0.8229073879	 0.37913
C	 0.690997323	-3.196513044	 1.5677172732	-0.484131
C	 0.6777753544	-0.5966057853	 1.2494316841	-0.30181
H	 1.0205229416	 1.9897341598	 0.0699729977	 0.109958
H	-0.4290095535	 1.9507200363	-0.9439701978	 0.110305
H	-0.5825702566	 1.9383465182	 0.8171676877	 0.11021
H	-0.9551007291	-0.3482787092	-0.1178592434	 0.068912
H	 0.2862766126	-0.6516033213	-2.1068147218	 0.094072
H	 1.7482693199	 0.0580304832	-1.4366613529	 0.091578
H	 1.096774476	-2.8274970312	-1.2824694486	 0.075878
H	 3.1167771085	-2.9311768879	 0.2235281641	 0.100289
H	 3.1805783423	-1.1097241646	 0.257040869	 0.09862
H	 1.043592397	-4.1212265	 1.0989430659	 0.110645
H	 1.0393848755	-3.2013549853	 2.6077900995	 0.114038
H	-0.4051067517	-3.2301751301	 1.5872065814	 0.110964
H	 1.4933027821	 0.0275897136	 1.6378349955	 0.090828
H	-0.0654759625	-0.6739131335	 2.0497542136	 0.092335
