19
gdb 41295	3.59316	1.69711	1.59696	1.6895	78.01	-0.2341	0.0823	0.3164	912.7719	0.162283	-385.80997	-385.803825	-385.802881	-385.840024	27.102	
C	-0.0268502914	 1.4747749214	 0.2496484963	-0.259055
C	 1.4797437995	 1.6119534919	-0.1794881909	-0.342741
C	 1.3305506963	 0.2288141531	-0.8198476822	 0.312054
C	 2.0241735434	-1.1149588466	-0.9940421541	-0.321681
C	 0.7852665322	-1.6961973611	-1.7494689208	 0.056637
O	 0.8303889167	-0.9030626574	-2.9702357489	-0.28828
C	 0.3623459544	 0.1471600322	-2.1281731026	 0.065918
C	-0.4389738328	-0.788297895	-1.2115332956	-0.096974
C	 0.0717202284	-0.0790513969	 0.0332441424	-0.045496
H	-0.2675873385	 1.7862168057	 1.2674571713	 0.103119
H	-0.7159898473	 1.9770066996	-0.4337323265	 0.109101
H	 1.7560528688	 2.4469967128	-0.8299782459	 0.098484
H	 2.144216997	 1.6099452159	 0.6904184865	 0.106013
H	 2.8920192736	-1.1530568211	-1.6563643669	 0.108291
H	 2.2557402159	-1.5964318967	-0.0401800693	 0.095463
H	 0.7057058742	-2.7691651113	-1.9197129111	 0.083121
H	 0.035233244	 1.0513220078	-2.6388540036	 0.082654
H	-1.4460828926	-1.1514990282	-1.4236422664	 0.068852
H	 0.1788369283	-0.6430565762	 0.9633970581	 0.064521
