16
gdb 22632	4.1794	1.10741	0.9892	1.9546	76.84	-0.2238	-0.0374	0.1864	1180.629	0.123783	-437.834744	-437.82679	-437.825846	-437.866876	31.177	
O	-0.0676300069	 1.3149489122	-0.0056889012	-0.389868
N	 0.0342840262	-0.0836042098	 0.0406604593	-0.246592
C	-1.1187275823	-0.6388749172	 0.0163165121	 0.398344
C	-2.4621120592	-0.0405912531	-0.0185054249	-0.157086
C	-3.3902521686	-1.0082003457	 0.045266838	-0.16243
C	-2.7689330087	-2.3726423239	 0.0868302561	 0.363276
O	-3.3058226781	-3.3493514392	 0.9220465937	-0.464129
C	-1.9918036531	-2.7617948411	-1.1518665652	-0.340375
C	-1.279558939	-2.1244858622	 0.0393891507	-0.184796
H	 0.8555853884	 1.5859079854	 0.0282879947	 0.308055
H	-2.6330676419	 1.0218277723	-0.1095993486	 0.125069
H	-4.4645863737	-0.8619583365	 0.043972154	 0.107608
H	-3.9912791227	-3.8183599825	 0.4342794175	 0.286479
H	-1.8003798085	-3.8221530956	-1.2833717207	 0.119416
H	-2.1235365266	-2.191229159	-2.0647183723	 0.121411
H	-0.5861875153	-2.7365491841	 0.6000312666	 0.115617
