22
gdb 108587	2.51736	1.34416	1.17939	1.9824	81.38	-0.2222	0.0727	0.2949	1186.1119	0.195	-404.328171	-404.318795	-404.317851	-404.362617	35.089	
C	-0.0886900488	 1.5059591446	 0.2540785203	-0.32455
N	 0.1101381119	 0.0654221208	 0.2486642721	-0.136629
C	 1.328515462	-0.5645619053	-0.250368092	-0.084917
C	 2.6040599616	 0.2504789711	-0.4130815899	-0.236883
C	 2.9366924665	 0.8421039329	 0.985346587	-0.222401
C	 1.9919038282	 0.1530401057	 2.0087308211	-0.276575
C	 0.9690916816	-0.6429159493	 1.202746195	 0.301034
C	 0.3020145847	-1.8391981326	 1.8393994312	-0.133993
O	-0.6311840242	-1.4482781456	 2.8378663258	-0.42323
H	 0.7969206998	 2.1189154855	 0.4678879394	 0.10739
H	-0.4750418594	 1.8071506741	-0.7252759033	 0.124572
H	-0.8517930074	 1.7540217094	 0.9991404276	 0.119543
H	 1.1644811139	-1.3925985869	-0.9376793318	 0.081853
H	 3.3985026443	-0.4195473474	-0.7591081583	 0.105063
H	 2.503772805	 1.0304220848	-1.1763795248	 0.103651
H	 3.9854767675	 0.6703127298	 1.2430379711	 0.101659
H	 2.7978773176	 1.9265241437	 0.9932942644	 0.10904
H	 2.5444250343	-0.5421447804	 2.649511644	 0.103793
H	 1.5134573254	 0.8732021304	 2.6804461365	 0.1079
H	-0.1825771152	-2.4410393282	 1.0571417614	 0.087946
H	 1.0401499307	-2.470519357	 2.3464589212	 0.100303
H	-1.29116713	-0.9096669999	 2.3866884421	 0.285432
