19
gdb 73619	2.26323	1.46038	1.16899	3.8123	77.13	-0.2346	-0.0181	0.2165	1142.1675	0.158483	-423.02949	-423.020712	-423.019767	-423.063262	32.28	
C	 0.0343032771	 1.5872934291	 0.0659319326	-0.456938
C	-0.0057193196	 0.0868017058	 0.1447531282	 0.409844
O	-1.2894324618	-0.4313126163	-0.083867915	-0.292663
C	-1.5069584927	-1.6217486332	 0.6837720073	-0.092009
C	-0.261580529	-1.8424259294	 1.5788335763	-0.261581
C	 0.7163532256	-0.7724989817	 1.1155243392	-0.140559
C	 1.1910460016	-0.7511722387	-0.3510854173	-0.187242
C	 1.0473347766	-1.8827164236	-1.2892773445	 0.162534
O	 1.8521573772	-2.1334000786	-2.1566601788	-0.277531
H	 1.0449835744	 1.9593622024	 0.2511444105	 0.123943
H	-0.2808317037	 1.9274976355	-0.925098366	 0.139131
H	-0.6431843282	 2.0234107407	 0.8070257457	 0.127595
H	-2.4234767954	-1.4892767407	 1.2692434207	 0.111551
H	-1.6683803699	-2.4622528955	-0.0011993426	 0.116048
H	-0.4983615746	-1.6727424224	 2.6331592799	 0.118358
H	 0.1280566888	-2.8605378524	 1.493646777	 0.119859
H	 1.4082705507	-0.3579709442	 1.8395244112	 0.104616
H	 2.1058608415	-0.1910383214	-0.5192739602	 0.104937
H	 0.1384958114	-2.5089252756	-1.1715573543	 0.070107
