15
gdb 48809	2.2402	1.54066	1.13738	5.9104	72.48	-0.2697	-0.0499	0.2198	1080.1297	0.112498	-416.783457	-416.775565	-416.774621	-416.816314	28.844	
O	-0.1396205869	 0.0226953177	 0.171161411	-0.257262
C	-0.0141246449	 1.2126471373	 0.0148499558	 0.05984
C	 1.2769452815	 1.9071897033	-0.0123148575	 0.245674
N	 1.4390485179	 3.3407101862	 0.316978075	-0.344107
C	 1.7374399578	 2.9194247569	-1.0436876833	-0.094997
C	 3.1509536462	 2.3272079368	-1.0375740011	-0.232237
C	 2.671187786	 1.2620404512	 0.0251914456	-0.211455
C	 3.3596976785	 1.2227211363	 1.3063050391	 0.292234
N	 3.9222562446	 1.1887144913	 2.3150116191	-0.326085
H	-0.8906478091	 1.8827151942	-0.1505425758	 0.072159
H	 0.5142036016	 3.772031038	 0.339310499	 0.247248
H	 1.1834357485	 3.3018125615	-1.892139794	 0.124086
H	 3.4337509118	 1.8574795049	-1.9797858279	 0.130424
H	 3.9318957267	 3.012161849	-0.7053278604	 0.143446
H	 2.6343074899	 0.2581208955	-0.4022398047	 0.151034
