16
gdb 132761	2.34185	1.79055	1.022	1.7632	75.85	-0.216	-0.0051	0.2109	1093.5082	0.125338	-442.109053	-442.101129	-442.100185	-442.141202	30.626	
C	-0.0534505952	 1.5441653015	-0.0129359233	-0.52938
C	-0.0103898765	 0.0410210612	-0.008618867	 0.07338
C	 0.0121748495	-0.7071716503	-1.1732480905	 0.272164
F	 0.0133867786	-0.0716865949	-2.3505098211	-0.079526
C	 0.0267957505	-2.0976749386	-1.1647098305	-0.278784
C	 0.0224840672	-2.7066797541	 0.0806946574	-0.001049
N	 0.0116703006	-2.0435911973	 1.2389153888	-0.346186
C	-0.0075749671	-0.7069612148	 1.1912643013	 0.317124
N	-0.0786045743	-0.0594531375	 2.4106749721	-0.561289
H	 0.856776353	 1.9788378153	 0.4220798183	 0.126269
H	-0.1454312491	 1.9278504686	-1.0295637174	 0.144313
H	-0.9019768536	 1.9147667741	 0.5738583	 0.139478
H	 0.0429248183	-2.6588460308	-2.089409982	 0.106532
H	 0.0335428794	-3.7913385799	 0.1547878368	 0.110102
H	 0.1421937072	-0.6602093606	 3.1911865546	 0.255724
H	 0.3239425115	 0.8623947382	 2.4683561326	 0.251128
