17
gdb 25689	6.29979	0.71664	0.64762	1.882	90.82	-0.1825	0.0276	0.2101	1709.444	0.136435	-380.886775	-380.877256	-380.876312	-380.923537	33.683	
C	-0.0226609372	 1.4691923173	 0.0333443923	-0.508376
C	 0.0004186083	 0.0143770926	 0.0289218171	 0.20271
C	 0.0231897974	-1.1926880454	 0.0261782738	-0.124614
C	 0.0279386065	-2.6078497519	 0.0221621824	 0.182636
C	 1.1439842792	-3.4251772735	 0.0198695509	-0.216526
N	 0.7113093583	-4.7256009036	 0.0116125443	-0.261357
C	-0.6634736222	-4.7682333676	 0.000699905	 0.307021
N	-1.3091595827	-6.0218505336	 0.0426083116	-0.615797
C	-1.1196842536	-3.4726261149	 0.0040657024	-0.356877
H	 0.4972933057	 1.8836219244	-0.8385571165	 0.142572
H	-1.0504993889	 1.8490870083	 0.0127430254	 0.144116
H	 0.4600425867	 1.8782696126	 0.9288961523	 0.14275
H	 2.1916670838	-3.1753795514	 0.0195537969	 0.120179
H	 1.2911457888	-5.5427062901	 0.0949125936	 0.260978
H	-2.2550221923	-5.9215148348	 0.3903224983	 0.248066
H	-1.3665002313	-6.456058493	-0.8746964381	 0.244119
H	-2.1508094864	-3.1567975254	-0.0207066316	 0.088399
