20
gdb 18522	5.20766	1.15581	1.08211	0.9812	75.69	-0.2414	0.087	0.3284	1183.0443	0.176916	-348.970465	-348.962266	-348.961322	-349.003498	30.632	
C	 0.0488356716	 1.4988813151	-0.0216997447	-0.384
C	-0.1136184749	-0.0010167684	-0.2028082515	-0.034947
O	 0.945921142	-0.473664753	-1.0122299876	-0.254881
C	 0.9073584054	-1.8588456863	-1.2413049114	 0.14939
C	-0.1259225604	-2.4270807916	-2.284473717	-0.271107
C	 1.0549347888	-2.978401131	-3.0901650261	-0.042509
C	 1.9594362905	-1.8521645657	-3.4943673906	-0.26734
C	 2.0557505323	-2.3832536042	-2.0903352385	-0.079785
H	 1.0078466162	 1.7254320439	 0.4528207006	 0.126137
H	 0.0186904168	 2.0072098221	-0.9897174064	 0.12512
H	-0.7538122207	 1.8980589293	 0.6057304721	 0.112246
H	-0.0992671928	-0.5126864533	 0.7749582362	 0.083059
H	-1.0861934411	-0.2289374958	-0.6689091459	 0.087931
H	 0.8251919712	-2.3981715752	-0.285772765	 0.063686
H	-0.7760437584	-3.1938552727	-1.8573799833	 0.099363
H	-0.7413799621	-1.6814686556	-2.7986477769	 0.096839
H	 1.0878423553	-3.9474337521	-3.571807272	 0.084678
H	 2.7890815474	-2.1238543502	-4.1389956879	 0.108303
H	 1.5569665098	-0.8590248372	-3.6730045922	 0.115734
H	 2.9742898532	-2.8037546482	-1.6999480717	 0.082083
