13
gdb 3280	5.49452	2.56783	2.07208	1.9615	53.68	-0.2494	-0.031	0.2184	622.9238	0.1018	-344.430692	-344.424922	-344.423977	-344.46045	21.393	
O	 0.0213081673	 0.0164762465	-0.4008562535	-0.288093
C	 0.0156427113	 1.165713006	-0.0726803084	 0.401268
C	-1.0909838263	 2.1540677884	 0.3617376465	-0.360322
C	 0.0061650669	 3.2348807516	 0.517330129	 0.115255
O	 0.5724115411	 3.2595813969	 1.841280232	-0.285862
C	 1.6710250736	 2.4090960997	 1.4466709545	-0.08399
C	 1.1073092651	 2.2464383354	 0.0142606841	-0.208507
H	-1.7866375768	 2.348052837	-0.4629726329	 0.135499
H	-1.6583151899	 1.9068335207	 1.2619020119	 0.142005
H	-0.1789710281	 4.2310872621	 0.1127472986	 0.090051
H	 2.6242410203	 2.9496013882	 1.4787810587	 0.116132
H	 1.7491360451	 1.5023581003	 2.0568101922	 0.121549
H	 1.7799715205	 2.3825668372	-0.8309532328	 0.105016
