19
gdb 33245	5.70043	0.68929	0.65356	3.6738	78.91	-0.2201	0.0328	0.2529	1725.449	0.160333	-419.236188	-419.22709	-419.226146	-419.271409	32.229	
C	-0.0429793885	 1.3814345625	 0.0210603374	-0.226105
O	-0.0554553207	-0.0232820567	-0.0226802797	-0.230465
C	 0.6740076192	-0.543282942	-1.1140743317	-0.042421
C	 0.572199691	-2.0678903893	-1.0784120183	-0.322199
C	 1.2856608621	-2.7081943565	-2.2267101001	 0.281108
C	 2.3836879442	-3.5300750407	-2.20551139	-0.194037
N	 2.6465035818	-3.8339453472	-3.5245035811	-0.229721
C	 1.7113136506	-3.1908937856	-4.2772779864	 0.011471
N	 0.8779489696	-2.5049157459	-3.5317635597	-0.30249
H	 0.9793736098	 1.7803506723	 0.1254324764	 0.098699
H	-0.4888485291	 1.8243826063	-0.8840903866	 0.102745
H	-0.6305206295	 1.6895440498	 0.8898545179	 0.122284
H	 0.2744388252	-0.167089361	-2.0688226371	 0.107366
H	 1.7311086221	-0.230682631	-1.0564222315	 0.078785
H	 0.9811697696	-2.432050565	-0.1303612466	 0.103042
H	-0.4900908244	-2.3368563033	-1.0976164388	 0.120227
H	 2.9833029072	-3.9200503765	-1.39982897	 0.127221
H	 3.3853966153	-4.4264400579	-3.8631920453	 0.266198
H	 1.6889254043	-3.2635457121	-5.3545841387	 0.128292
