15
gdb 50270	2.45149	1.35575	1.02549	4.4581	72.08	-0.2503	-0.0409	0.2094	1143.6545	0.112404	-416.778043	-416.770031	-416.769086	-416.811369	29.036	
O	-0.0982281292	-0.0385351515	-0.2505457737	-0.246866
C	-0.0009787813	 1.0813711379	 0.1823352023	 0.150642
C	 1.2538734869	 1.9146770178	 0.0553987053	-0.151364
C	 1.1857973532	 3.1835463324	-0.8868538253	-0.241691
C	 1.5136909013	 4.0694660212	 0.3172687003	-0.100575
N	 0.4463529549	 3.8455421675	 1.2996977	-0.354739
C	 1.5754341929	 2.8741610883	 1.2239661787	 0.220376
C	 2.4198813312	 2.6233254419	 2.3428073876	 0.17953
N	 3.1103268557	 2.4103353695	 3.2473816454	-0.334995
H	-0.8447439084	 1.5889926702	 0.6931134019	 0.107201
H	 2.0944596484	 1.2702118451	-0.2024739217	 0.119988
H	 1.9719528825	 3.1559319671	-1.6415821869	 0.133795
H	 0.2233113961	 3.3915190357	-1.358554062	 0.132568
H	 2.1195026368	 4.9660014936	 0.3431344929	 0.130291
H	 0.614469729	 4.4502794832	 2.1036777353	 0.255837
