20
gdb 83156	2.74705	1.43144	1.21099	3.195	80.07	-0.247	0.0316	0.2787	1117.7995	0.172808	-403.157884	-403.149669	-403.148724	-403.190822	31.955	
C	-0.533939913	 1.3822744402	 0.1514595257	-0.411565
C	-0.0961578101	-0.0558041984	-0.0096356215	-0.046315
C	 0.6933744567	-0.5545726545	-1.2106224489	-0.076688
C	 1.2693256834	 0.3674450336	-2.275704668	-0.249815
C	 2.7881307508	 0.4738832775	-2.0550156398	-0.274395
C	 3.1003259935	 0.9920452732	-0.6741006847	 0.40056
N	 4.0332201109	 1.8206404731	-0.4621413346	-0.515351
O	 2.2966515536	 0.5621704406	 0.352684903	-0.248251
C	 1.3475925955	-0.4610811526	 0.1428362891	 0.069612
H	 0.2647460996	 2.0850577381	-0.0943975679	 0.134529
H	-1.3963970022	 1.6068787366	-0.4851173788	 0.119037
H	-0.8247702046	 1.575656964	 1.189059381	 0.123676
H	-0.8041924272	-0.7802452334	 0.3848934855	 0.088987
H	 0.458629804	-1.5587817494	-1.5499266177	 0.09235
H	 1.059861877	-0.0275546785	-3.2733272115	 0.108291
H	 0.8190848445	 1.3643539311	-2.2348063602	 0.115839
H	 3.2344442831	-0.5224079119	-2.1708783688	 0.121118
H	 3.2780128761	 1.1372126101	-2.7690544194	 0.132506
H	 4.0820784914	 2.0423559821	 0.5351231188	 0.215655
H	 1.6018836469	-1.3584512115	 0.6989042288	 0.10022
