19
gdb 114981	3.20471	1.09972	0.86079	4.0596	79.41	-0.2405	-0.0507	0.1898	1338.4609	0.159164	-423.054607	-423.045856	-423.044912	-423.08849	32.319	
C	 0.0556824113	 1.37800801	 0.1589255649	-0.244416
O	-0.1213253825	 0.0003240845	-0.087335856	-0.243293
C	 0.6065542692	-0.5052341155	-1.1896964196	 0.111404
C	 2.1021265989	-0.6885089412	-0.880022615	-0.280058
C	 2.7990769957	-1.4762418869	-1.9547458986	-0.05445
C	 2.1629333631	-2.2974325418	-2.7997447057	-0.138383
C	 0.7033561157	-2.5275230572	-2.726064581	 0.363154
O	 0.1255045594	-3.2437792647	-3.5181200975	-0.330918
C	-0.0240776762	-1.8425151233	-1.5739867776	-0.327596
H	 1.0759501946	 1.6229004926	 0.4881598014	 0.10727
H	-0.1740841697	 1.9812374104	-0.7330001714	 0.108329
H	-0.6385171902	 1.6517283149	 0.9569771099	 0.132468
H	 0.5139706608	 0.1911151946	-2.0411235515	 0.075428
H	 2.5993433368	 0.2792785464	-0.7529538098	 0.111993
H	 2.1967965478	-1.2081972951	 0.0849828828	 0.130341
H	 3.8772703479	-1.3560805728	-2.0331371489	 0.110653
H	 2.6887768275	-2.8443259993	-3.5758589894	 0.108764
H	 0.0201916862	-2.510455161	-0.7021192017	 0.130491
H	-1.0770509664	-1.7234541946	-1.8371572652	 0.128819
