22
gdb 104697	2.01086	1.40939	1.02813	2.9833	83.54	-0.2564	0.0314	0.2878	1295.8852	0.192838	-404.367927	-404.357994	-404.35705	-404.402941	37.069	
C	-0.1104140116	 1.5997733078	-0.1042334027	-0.393184
C	-0.2111183074	 0.0772817107	 0.0387758646	-0.225235
C	 0.7554029612	-0.5381765742	 1.0510355796	 0.416254
C	 0.5299651995	-0.0604872098	 2.4850576879	-0.232477
C	 1.5562810639	-0.539146328	 3.516369646	-0.403149
C	 1.008488894	-2.0545006914	 0.8358813403	-0.425071
C	 2.3863297938	-1.6144195131	 0.3989740587	 0.439341
N	 3.4097292679	-2.2054310277	-0.0230542105	-0.547807
O	 2.1560189934	-0.2748736823	 0.6204548666	-0.290038
H	 0.9218626746	 1.8964739168	-0.3110528283	 0.137732
H	-0.7349414999	 1.9456379545	-0.9329237282	 0.116486
H	-0.4421277116	 2.1246300321	 0.7961249638	 0.119802
H	-1.2313924555	-0.2146360876	 0.3200182306	 0.101779
H	-0.0136200755	-0.3859372316	-0.9350244282	 0.104713
H	 0.5193880322	 1.0347410943	 2.484379431	 0.11325
H	-0.4792257204	-0.3765035197	 2.7804327433	 0.104141
H	 1.5516571748	-1.6266374215	 3.6383986885	 0.120705
H	 2.5660561365	-0.2356042963	 3.2292746764	 0.138845
H	 1.3371208673	-0.1021966474	 4.4948568868	 0.116856
H	 0.9945884304	-2.6818636187	 1.7276546922	 0.132927
H	 0.4068049541	-2.5243772237	 0.0557879839	 0.130391
H	 4.1614886385	-1.5416240931	-0.2186447923	 0.223739
