18
gdb 14532	4.33954	1.55536	1.4036	0.8963	78.61	-0.2369	0.0545	0.2914	951.7274	0.153063	-310.607109	-310.599273	-310.598329	-310.638658	30.732	
C	-0.0253230559	 1.5340393263	 0.0141742394	-0.473012
C	 0.0631755603	 0.0138634231	 0.0373885077	 0.143458
C	-1.1088838778	-0.6313362419	-0.5048647163	 0.252529
C	-2.0978542277	-1.142085709	-0.9619460348	-0.435061
C	 1.3461871826	-0.7658662079	-0.2253077494	-0.07616
C	 2.5773911022	-0.0351716131	 0.3241427745	-0.252626
C	 1.9281819541	-0.0517147592	 1.7474520109	-0.252578
C	 0.7123657516	-0.7817063746	 1.1638338169	-0.076221
H	 0.8671987728	 2.0070896008	 0.4276481787	 0.120637
H	-0.1524248853	 1.8915534066	-1.0122459762	 0.126807
H	-0.8877967463	 1.8732887998	 0.5960252415	 0.126813
H	-2.9689843567	-1.5957277783	-1.3647284129	 0.18713
H	 1.3587140609	-1.5443834911	-0.9779545487	 0.095563
H	 3.4759259355	-0.6542468157	 0.2793034603	 0.107649
H	 2.8104372464	 0.9392082723	-0.1155135027	 0.100932
H	 2.4887298585	-0.6795631166	 2.4433198947	 0.107666
H	 1.7406728642	 0.9119354866	 2.2303966716	 0.100917
H	 0.1588153205	-1.5743544182	 1.6516980549	 0.095559
