14
gdb 26018	5.22213	1.00561	0.8439	2.805	65.01	-0.2163	0.0042	0.2205	1261.7638	0.102933	-470.074628	-470.066848	-470.065904	-470.107441	28.684	
N	-0.1700475017	 1.4011612925	 0.1172752894	-0.575049
C	 0.0878247742	 0.0422024926	 0.03617057	 0.461422
O	 1.210215087	-0.4249513738	 0.014457902	-0.37917
N	-1.0489367966	-0.740652382	 0.0250696475	-0.458061
C	-1.0217911214	-2.1278063146	 0.0045756389	 0.339558
C	 0.0083773554	-3.0110144758	-0.0575794485	-0.097293
O	-0.5525956287	-4.2698846763	-0.0598915199	-0.140536
C	-1.8750004224	-4.0586275749	 0.0039893137	 0.083361
N	-2.2262063913	-2.8120476383	 0.044166446	-0.340186
H	 0.6451340989	 1.9624893552	-0.0760063389	 0.266754
H	-1.0231186957	 1.7553960454	-0.2879245179	 0.252371
H	-1.9598150029	-0.3356602014	 0.17206926	 0.260136
H	 1.0759233639	-2.931940054	-0.0988872736	 0.174457
H	-2.5143044787	-4.9270276047	 0.0160632512	 0.152237
