15
gdb 33609	5.08488	1.32549	1.31788	5.2629	74.24	-0.2521	-0.0014	0.2507	966.1917	0.115017	-379.592935	-379.586721	-379.585777	-379.623515	25.081	
N	 0.0996866844	-1.1272981201	 0.0488714069	-0.354778
C	 0.0420657735	 0.0288403152	 0.0220317914	 0.130599
C	-0.0207466082	 1.4445140488	-0.0023754632	 0.327872
C	-0.0401929808	 2.4998048226	 1.0788204484	-0.148716
C	 1.0318011076	 2.5284960595	-0.0127032528	-0.148749
C	 0.2604091962	 3.2908521571	-1.1012777829	-0.004383
C	-0.5361702727	 4.4232654822	-0.4309439808	-0.250803
C	-1.1620603884	 3.2533325628	 0.3474641002	-0.004393
N	-0.9229447655	 2.3222818603	-0.8650416342	-0.213116
H	 0.180733254	 2.3912721786	 2.1315688869	 0.118207
H	 2.0909207082	 2.4424476244	 0.1866242488	 0.118203
H	 0.6764079178	 3.3593500643	-2.1050374196	 0.096164
H	 0.0024864325	 5.1984565243	 0.1180011679	 0.111027
H	-1.2545001468	 4.8669846264	-1.1248625647	 0.126718
H	-2.1593476216	 3.2846088437	 0.7830267179	 0.096148
