14
gdb 2761	3.7004	2.64369	1.85821	3.5437	57.27	-0.2787	0.0209	0.2996	695.493	0.114188	-324.57985	-324.573162	-324.572218	-324.610462	24.543	
O	 0.4814026187	 0.967884334	-0.6658800974	-0.41734
C	 0.0603424655	-0.1651822261	 0.0191712824	 0.167371
C	-0.0213004143	-0.1867702782	 1.567741773	-0.258759
C	-1.2895828678	-1.0719948277	 1.4518108403	-0.227794
C	-1.4606320466	-0.6025382853	-0.030794639	-0.211831
C	-2.3260837219	 0.5549736964	-0.1731047272	 0.267197
N	-2.9560569316	 1.5201899257	-0.2782985023	-0.32909
H	-0.0978732888	 1.704631836	-0.4337506678	 0.296182
H	 0.6693882653	-0.9936246585	-0.3527921896	 0.1071
H	 0.8380632574	-0.5777252596	 2.1149196393	 0.113418
H	-0.2658118505	 0.8078062222	 1.9537239794	 0.119478
H	-1.0607366617	-2.1390587437	 1.485620373	 0.12065
H	-2.1177733174	-0.8623728803	 2.1280728392	 0.129937
H	-1.7305535464	-1.358074605	-0.7716461933	 0.123481
