17
gdb 111714	2.60105	1.25411	0.97162	3.7555	75.52	-0.2304	0.0081	0.2385	1234.5004	0.136011	-417.956628	-417.947949	-417.947005	-417.991256	31.188	
C	-0.2210987371	 1.3990428268	 0.0682414292	-0.325257
N	 0.1734938109	-0.0019712461	-0.0798777019	-0.298391
C	 0.7731694644	-0.5612582426	 1.090926404	-0.032947
C	 0.1551440287	-1.6512963719	 1.9051490364	 0.022795
O	-0.6428609377	-2.4879899225	 1.0711196487	-0.289133
C	 0.5249068571	-2.9135171639	 0.3151736575	-0.145238
C	 1.428273326	-1.9491234114	 1.0856116597	 0.107531
C	 2.770764245	-2.1913523509	 1.4803641167	 0.181432
N	 3.8675508283	-2.3818315108	 1.800528887	-0.349534
H	 0.6707554448	 2.0150141226	 0.2227953763	 0.132711
H	-0.6957089202	 1.732119318	-0.8583730475	 0.129465
H	-0.9172184107	 1.5913538965	 0.9009286695	 0.107772
H	-0.6367794865	-0.5625882193	-0.3263472419	 0.238387
H	 1.3579707707	 0.1487024187	 1.6693266171	 0.123964
H	-0.0289734865	-1.6694140559	 2.9737711338	 0.127662
H	 0.7460295185	-3.964966455	 0.5169711945	 0.138049
H	 0.4199581442	-2.7404371521	-0.760440239	 0.130732
