21
gdb 88752	3.32052	1.12926	1.10119	1.6003	81.55	-0.2311	0.0738	0.3049	1230.5087	0.182425	-387.029437	-387.020951	-387.020007	-387.06279	33.069	
C	 1.0863841383	 1.3286885335	-0.2503475406	-0.409943
C	 0.1383989062	 0.1663905908	-0.0431679499	-0.002672
C	 0.6559252906	-1.1880942606	 0.3767041535	-0.299053
C	-0.1825201262	-0.3744707697	 1.3328398755	-0.037109
C	 0.3566549044	 0.2547475674	 2.5942811033	 0.123316
O	-0.080208335	-0.4483736753	 3.8034392199	-0.306832
C	 1.256348735	-0.4419600856	 4.3043753735	 0.100526
C	 2.1491794985	-1.2746886775	 3.4471391743	-0.293158
C	 1.8211783785	 0.1506890838	 3.0355469743	-0.154585
H	 1.9324668882	 1.2889194508	 0.4422357074	 0.120681
H	 1.4952858157	 1.320667116	-1.2667292637	 0.11701
H	 0.5818007076	 2.290708548	-0.1050781754	 0.116412
H	-0.6947132794	 0.1534958089	-0.7417118797	 0.082807
H	 0.223838934	-2.0794685265	-0.0653260243	 0.10854
H	 1.7181236533	-1.263455067	 0.5858939117	 0.117405
H	-1.2071313647	-0.7089597086	 1.4754247366	 0.097023
H	 0.012696246	 1.2953260374	 2.6724906754	 0.08313
H	 1.4077803295	-0.2112227407	 5.3523392036	 0.102094
H	 3.163120112	-1.4055774954	 3.8130333375	 0.112043
H	 1.7334649266	-2.1221509074	 2.9117809775	 0.124419
H	 2.5757270009	 0.9124748976	 2.8954807096	 0.097947
