16
gdb 53805	2.95766	1.33379	1.01077	2.4626	67.94	-0.2396	-0.0732	0.1664	1152.407	0.122845	-475.057488	-475.048731	-475.047787	-475.091283	32.953	
N	-0.5356448068	 0.4810132361	-2.2144673104	-0.510116
C	-0.4693857106	-0.8067353793	-1.8362890832	 0.352985
O	 0.1432240635	-1.6855395346	-2.4296688327	-0.380397
C	-1.3044749944	-1.0792572023	-0.5570488877	 0.213677
O	-2.0501968789	-0.2073838546	-0.153025836	-0.3374
C	-1.2163551357	-2.4353957175	 0.0430755524	 0.324253
O	-0.1254719608	-3.2353025967	-0.2585811416	-0.474057
C	-1.8071279433	-2.6198529657	 1.4176877666	-0.29309
C	-2.589492721	-3.1145908719	 0.2430226805	-0.297014
H	-0.0905328177	 0.7789149059	-3.0662350577	 0.27453
H	-1.147215307	 1.0967987963	-1.701329685	 0.285791
H	 0.1038652216	-3.0557924144	-1.1873208407	 0.303105
H	-1.2907300945	-3.3501912528	 2.0293187152	 0.13551
H	-2.1539833831	-1.7263848949	 1.9228111468	 0.138016
H	-3.4738793377	-2.5654620264	-0.058776074	 0.130583
H	-2.5850574436	-4.1777696573	 0.0340486576	 0.133624
