17
gdb 82580	3.51339	1.37225	1.20168	2.281	67.08	-0.244	0.0507	0.2947	1041.9428	0.13534	-458.882629	-458.874966	-458.874022	-458.91507	29.394	
O	-0.059868048	 1.4076216881	 0.0453396557	-0.434619
C	-0.0782736321	 0.018043525	-0.0303717393	 0.122356
C	-0.4670827724	-0.8205564828	 1.1366218408	 0.012137
O	-1.4290887904	-0.0891543468	 1.9164452776	-0.335302
C	-2.3839153405	-0.1464345876	 0.8210118662	 0.360831
C	-3.7459904024	-0.7906819547	 1.1247191935	-0.133271
O	-4.4418727158	 0.3910531665	 0.6799146059	-0.274271
C	-3.2038727144	 1.1095306577	 0.4882592176	-0.128558
C	-1.3626072982	-0.7962783614	-0.0960424198	-0.267498
H	-0.3493811239	 1.6324435475	 0.9401397079	 0.297261
H	 0.7227535091	-0.37394248	-0.6511378917	 0.114481
H	 0.1071784976	-1.5908506933	 1.6378767894	 0.11062
H	-4.0122458921	-1.6767826161	 0.5359670685	 0.106293
H	-3.8957033384	-0.9957478095	 2.1921090183	 0.113443
H	-3.0759558794	 1.9209825731	 1.2165513902	 0.106915
H	-3.1000820796	 1.5050428159	-0.5271057477	 0.121091
H	-1.5717837994	-1.5448867916	-0.848678713	 0.108089
