18
gdb 85263	2.55661	1.63626	1.20298	2.0305	73.79	-0.2455	0.0215	0.267	1075.8527	0.147189	-439.095267	-439.086986	-439.086042	-439.128434	31.568	
C	 0.5849489313	 1.2908888008	 0.1161014723	-0.399704
C	-0.1906132287	-0.007549013	-0.0258265454	 0.198227
O	 0.2552027056	-0.7325559937	-1.1827519775	-0.254757
C	 0.980868401	-1.8145557156	-0.7787427808	 0.340298
N	 1.5881260221	-2.6327473981	-1.5219089188	-0.557578
C	 0.9243613859	-1.8456044074	 0.7066285453	 0.339733
C	 1.0360314662	-3.105943827	 1.4993373988	-0.320282
C	 2.1598246174	-2.0933200366	 1.5378730411	-0.31541
O	-0.0192107881	-0.8705056374	 1.0818201021	-0.296907
H	 1.6524927091	 1.0850080215	 0.2338659585	 0.132646
H	 0.4391982984	 1.9152198505	-0.7697217506	 0.13127
H	 0.2299318748	 1.8356790958	 0.9950215144	 0.132281
H	-1.2637705077	 0.177035246	-0.1468685974	 0.103021
H	 1.4922745237	-2.3817354249	-2.5055979607	 0.227004
H	 0.3983327049	-3.1823768947	 2.3726897625	 0.129591
H	 1.1847515363	-4.0204643825	 0.9367157681	 0.145868
H	 3.0777090962	-2.3198487283	 1.0074884522	 0.139032
H	 2.2619247517	-1.4936869854	 2.4353301358	 0.125667
