17
gdb 68145	4.00952	1.22644	1.10773	1.5445	75.22	-0.2422	0.025	0.2672	1104.8163	0.134837	-421.763711	-421.755802	-421.754858	-421.795599	31.866	
O	-0.0561051072	 1.401055842	-0.0536133966	-0.476283
C	-0.0131647956	 0.0168767886	 0.018993165	 0.317747
C	 0.339869261	-0.7965921521	 1.3109173391	-0.334092
C	-0.3859962161	-1.9042592233	 0.4940090477	 0.317879
C	-1.3381336204	-0.7853618034	-0.0264568701	-0.300516
O	 0.5104864045	-2.1136199611	-0.6295504147	-0.318313
C	 0.8098283576	-0.7631279499	-1.0240752347	-0.134735
C	-0.8446781278	-3.1434183291	 1.059878452	 0.144061
C	-1.2461411662	-4.1614635422	 1.5557175697	-0.338154
H	 0.8450153992	 1.7411320197	-0.0206751367	 0.284966
H	 1.3886352991	-0.9806999105	 1.5548134871	 0.103453
H	-0.227512217	-0.4655511926	 2.180980762	 0.116903
H	-2.0557977051	-0.45532292	 0.7247983475	 0.118726
H	-1.8141982574	-0.9548355805	-0.9940006507	 0.1111
H	 0.4782676666	-0.5746871323	-2.0517643304	 0.108208
H	 1.8893384305	-0.5743572543	-0.9520448979	 0.092782
H	-1.5965790555	-5.0655472589	 1.9890573318	 0.186269
