18
gdb 46767	2.47681	1.89149	1.28247	2.2534	75.49	-0.2196	-0.0188	0.2008	998.7141	0.15054	-401.979139	-401.971916	-401.970972	-402.011105	28.576	
O	-0.208334678	 0.3980323782	 0.8930607693	-0.315104
C	-0.1354680201	 1.432541473	 0.2823283874	 0.393658
C	-1.3213060849	 2.2853348162	-0.1933674393	-0.286625
N	-0.7783065825	 3.3757161146	-1.0051233913	-0.304924
C	 0.6473686461	 3.5246471155	-0.63017394	-0.05869
C	 0.8729517813	 4.424113609	 0.5665336279	-0.054762
C	 1.6233750476	 3.8444833301	 1.5027000004	-0.064892
C	 2.0452161659	 2.4420514237	 1.1256901867	-0.26619
C	 1.1635829704	 2.1555613103	-0.1107319543	-0.145022
H	-2.0505656803	 1.6815328136	-0.7397503391	 0.129948
H	-1.8304586205	 2.6689633979	 0.7017902669	 0.139674
H	-0.8301770899	 3.1186628035	-1.9841870823	 0.221926
H	 1.1891999533	 3.9017764698	-1.5049583008	 0.081249
H	 0.4681679129	 5.4288630424	 0.6038473313	 0.100111
H	 1.9375431195	 4.3120498369	 2.4296330211	 0.098452
H	 3.1137857767	 2.4028058868	 0.8782345091	 0.108989
H	 1.8796476747	 1.7051839119	 1.9198625884	 0.127113
H	 1.6745003477	 1.5564078166	-0.8706299214	 0.095091
