16
gdb 74466	3.02554	1.42313	1.04073	4.4772	73.46	-0.2199	-0.0253	0.1946	1131.5753	0.123635	-437.912597	-437.904403	-437.903459	-437.945259	30.726	
C	 0.0396385192	 1.5123215003	-0.0134887575	-0.4961
C	-0.0583764292	 0.026413038	 0.0041360245	 0.366805
C	-1.1361453872	-0.7700645829	 0.0930548798	-0.365006
C	-0.6694931661	-2.1731099706	 0.0857664276	 0.329062
C	-1.2749117748	-3.340232354	 0.7563129437	-0.228023
O	-1.3386342578	-3.2012444534	-0.6550918362	-0.260977
C	 0.8509548977	-2.09880226	-0.0629119026	 0.375687
O	 1.6424083745	-3.0062680347	-0.1439117448	-0.363424
N	 1.1231620871	-0.743661961	-0.0680970308	-0.416128
H	 0.6303815906	 1.8817443043	 0.8333797999	 0.141076
H	 0.5306415336	 1.8634618569	-0.9293624831	 0.140757
H	-0.9537113006	 1.9615597367	 0.0374410132	 0.145739
H	-2.1636345761	-0.450200422	 0.1677237694	 0.1146
H	-0.6129082996	-4.1255520691	 1.1181951067	 0.136675
H	-2.2153829043	-3.2102543077	 1.2902152696	 0.11864
H	 2.0480843128	-0.3729404109	-0.2115942394	 0.260616
