21
gdb 120683	2.40606	0.77849	0.62679	1.9554	89.3	-0.2434	0.0305	0.2739	1864.2261	0.179539	-387.054932	-387.044079	-387.043135	-387.093217	37.339	
C	 0.1628857917	 1.5069188211	 0.0146032101	-0.381523
C	-0.0311091844	 0.0051743959	 0.2364625154	-0.158776
C	-1.2821171503	-0.5442833378	-0.463603546	-0.219251
C	-1.4595510951	-2.0235691328	-0.235096221	 0.077223
O	-1.8799715119	-2.4362509464	 1.0656328269	-0.249461
C	-2.7784517677	-2.6679993338	-0.0372102151	-0.172511
C	-4.0176493968	-1.9391859123	-0.0610681495	 0.086341
C	-5.0765109483	-1.3653974843	-0.0954392378	 0.106694
C	-6.3524243463	-0.666919162	-0.126971236	-0.501483
H	 1.0578815478	 1.8726240473	 0.5273404059	 0.112643
H	 0.2699613864	 1.741003874	-1.0506644107	 0.112011
H	-0.6936524111	 2.0759946272	 0.3925944015	 0.116362
H	 0.8544262532	-0.5372381493	-0.1205889954	 0.09304
H	-0.1096249403	-0.2075645677	 1.3089816368	 0.115977
H	-2.1746195037	-0.0188899892	-0.1081435437	 0.113019
H	-1.2138381907	-0.3641355073	-1.5453666667	 0.096801
H	-0.6753995765	-2.6568383351	-0.6587521836	 0.088105
H	-2.8626373122	-3.7202554694	-0.3107425164	 0.10721
H	-6.4254172149	-0.0066378938	-0.9981906671	 0.150597
H	-7.1897877543	-1.3717848659	-0.1712272904	 0.152131
H	-6.4843470446	-0.0505697783	 0.7690521229	 0.154849
