19
gdb 30703	3.81085	0.9577	0.9129	3.662	76.69	-0.2199	0.0337	0.2536	1337.6739	0.160246	-419.237268	-419.228207	-419.227263	-419.271934	32.873	
C	 0.0305760897	 1.6063046102	-0.0487699474	-0.393854
C	 0.0513008828	 0.0774816839	-0.0054895565	 0.01562
C	 0.6874571929	-0.5341050956	-1.2614749044	-0.073596
O	-0.1048203068	-0.1409849278	-2.367370936	-0.415321
N	 0.7221239464	-0.4342435218	 1.1886822115	 0.014311
C	 0.2224493901	-1.3784671656	 2.0614954494	-0.12764
C	 1.2055488415	-1.5864435782	 2.9920511468	-0.097949
N	 2.3009603941	-0.8025829387	 2.7185678509	-0.275982
C	 1.9780660149	-0.1305368444	 1.6356213252	-0.000103
H	 1.043686046	 2.0179875783	-0.0966225342	 0.121893
H	-0.5074997569	 1.9336602047	-0.940448097	 0.145365
H	-0.4629242569	 2.0124545094	 0.8377858134	 0.129058
H	-0.9799120915	-0.2860308411	 0.0422349675	 0.107879
H	 1.7255296902	-0.1776438513	-1.3558857372	 0.095067
H	 0.7187013438	-1.6277131923	-1.1476470424	 0.103543
H	 0.2910834378	-0.4952880018	-3.1684889444	 0.295304
H	-0.765200245	-1.7910211842	 1.9348736188	 0.125118
H	 1.1854244043	-2.2501712978	 3.8431469582	 0.106385
H	 2.6069142926	 0.5898795041	 1.1351295477	 0.1249
