18
gdb 127855	3.7535	1.12299	0.87383	3.7928	89.73	-0.1956	-0.0295	0.1661	1329.9142	0.148322	-398.140493	-398.131613	-398.130668	-398.174161	32.518	
C	 0.0369382786	 1.4685614885	-0.0527687372	-0.321659
N	 0.1040361439	 0.0187913971	-0.1011025264	-0.32166
C	 0.5971376501	-0.612284242	 0.9091842331	 0.295635
C	 1.1195840871	-0.0194945384	 2.1514481691	-0.072733
N	 1.6104169831	-0.6787908049	 3.1537999759	-0.187998
N	 1.6454023633	-2.0182862436	 3.0491812488	-0.295261
C	 1.1995877846	-2.7333502044	 1.9605401849	 0.423183
C	 1.3342616679	-4.2241943948	 2.0571174047	-0.492385
C	 0.684329881	-2.0608109631	 0.9057283419	-0.286041
H	 1.0262376561	 1.9427678087	 0.0477189311	 0.106273
H	-0.4041994663	 1.834728793	-0.9841599374	 0.114966
H	-0.5878656368	 1.8438632297	 0.7733409409	 0.10628
H	 1.1135102331	 1.0562102947	 2.2839174613	 0.122205
H	 2.0338649356	-2.4839994639	 3.852372781	 0.268652
H	 2.381722337	-4.5212995701	 2.1866502056	 0.140491
H	 0.7710354921	-4.6198589313	 2.9106197222	 0.140463
H	 0.9555035124	-4.6971151642	 1.1501626269	 0.151184
H	 0.3252237772	-2.5934233509	 0.0338932036	 0.108404
