19
gdb 24584	4.82161	0.99265	0.94635	3.3824	82.57	-0.2128	0.0308	0.2436	1300.6417	0.162527	-382.102944	-382.095168	-382.094224	-382.136162	29.791	
C	-0.145399945	 1.4818889491	-0.0027842722	-0.212415
C	 1.3885343854	 1.4945501034	-0.2329715109	-0.231523
C	 1.475979539	 0.1355831689	 0.5335791121	-0.050823
C	-0.0526771282	-0.0435031219	 0.2630765528	-0.231525
C	 2.4458761162	-0.9083712119	 0.1146231457	 0.329196
N	 3.3358911663	-1.4911402778	 0.8936800103	-0.302825
C	 4.0127949119	-2.3829451814	 0.0946957845	-0.090227
C	 3.5312408102	-2.344635061	-1.1854301174	-0.112769
N	 2.5294196711	-1.3985366971	-1.1621171931	-0.285356
H	-0.4203744744	 2.031322021	 0.9018881623	 0.108932
H	-0.7862648915	 1.8186662233	-0.8205266266	 0.097035
H	 1.6381338182	 1.372666718	-1.2923806554	 0.089177
H	 1.9698898596	 2.330306126	 0.1625220136	 0.108149
H	 1.650344164	 0.3149542076	 1.5963363288	 0.101599
H	-0.6560160875	-0.4720458869	 1.0663266794	 0.10815
H	-0.2320396509	-0.623170816	-0.6486897472	 0.089174
H	 4.8066610505	-3.0001283529	 0.4872705888	 0.103247
H	 3.7916526423	-2.8784900169	-2.0842074681	 0.122859
H	 1.9634673726	-1.1211286037	-1.9459938574	 0.259946
