17
gdb 83394	2.80509	1.31182	1.11966	2.5251	69.63	-0.2431	-0.0227	0.2204	1129.8409	0.133697	-458.930828	-458.922052	-458.921108	-458.964769	32.063	
C	-0.5229945006	 1.3918062991	 0.1381613052	-0.496808
C	 0.1698520469	 0.0466337799	 0.025552139	 0.279753
O	 0.7784776	-0.4483852617	 0.9539217031	-0.32545
C	 0.0857924701	-0.6440586598	-1.2781394414	 0.124872
C	-0.831375816	-0.4177448027	-2.4739677683	-0.174294
O	-0.9185593804	-1.8539643497	-2.7321738353	-0.302532
C	-0.1436396718	-2.1421780033	-1.5652325673	-0.008536
C	 1.215580221	-1.6000096986	-1.7370058019	 0.086858
O	 1.7990097764	-1.4931569887	-2.9864313388	-0.427521
H	-0.1788784991	 2.0705816584	-0.6506585727	 0.141089
H	-1.6055565047	 1.2752264652	 0.010864763	 0.14131
H	-0.3188964465	 1.8266787402	 1.1170084995	 0.146738
H	-1.8214804869	-0.0255878303	-2.2217186081	 0.122001
H	-0.4149283457	 0.1288136773	-3.326884903	 0.121124
H	-0.467625063	-2.9466764452	-0.9144375962	 0.126195
H	 1.9201922228	-1.7904565853	-0.9340779567	 0.144476
H	 1.1476426574	-1.8225094549	-3.6213085301	 0.300725
