21
gdb 79349	2.67886	1.75214	1.56168	1.4995	80.37	-0.2289	0.0836	0.3125	984.7949	0.185998	-387.102478	-387.095129	-387.094184	-387.133904	30.286	
C	-0.1827293107	 1.4709165166	-0.0136230273	-0.411367
C	 0.0551888139	-0.0420531877	-0.0034888175	 0.00919
C	 0.9396314109	-0.5062749973	-1.1561038933	-0.058043
C	 2.3676356421	-0.60831674	-0.6353095004	-0.062023
C	 2.3431669725	-0.2299226263	 0.8386658087	-0.240144
C	 0.8789505104	-0.5445161633	 1.2073151625	 0.088204
O	 0.7062939995	-1.9528688078	 1.3553229749	-0.283733
C	 1.100389616	-2.7163744226	 0.214598675	-0.093463
C	 1.5773265941	-1.8574533298	-0.9427248727	-0.072839
H	 0.7585827396	 2.0299512296	-0.0165753648	 0.117601
H	-0.7424420837	 1.7692384578	-0.9065038556	 0.114259
H	-0.7607918966	 1.7858799105	 0.8618427849	 0.11271
H	-0.9131183767	-0.5564160622	 0.0048925652	 0.074772
H	 0.7298888592	-0.1677445424	-2.1651317989	 0.074646
H	 3.2171242383	-0.3461123076	-1.2552298744	 0.077405
H	 3.0310207714	-0.8109682476	 1.4610028089	 0.102738
H	 2.5743991919	 0.8315906335	 0.9803395024	 0.098271
H	 0.5595085125	-0.1126148991	 2.1583789663	 0.072643
H	 1.8983755929	-3.4101566321	 0.5189210006	 0.096661
H	 0.2439142963	-3.3305519282	-0.0992924199	 0.098632
H	 1.8585498161	-2.418458524	-1.8289802346	 0.083879
