20
gdb 79393	2.13046	1.76873	1.55505	1.3754	79.47	-0.2266	0.064	0.2906	1019.8764	0.169396	-403.060265	-403.051467	-403.050523	-403.092907	34.252	
C	 0.0426616121	 1.5462706706	-0.0558605665	-0.529034
C	 0.0350639527	 0.039805435	-0.0556326375	 0.287493
C	 0.5185916237	-0.9462333084	-1.1170280568	-0.236503
N	 0.0279790029	-1.9245837101	-0.0557771564	-0.201146
C	 0.5482733444	-0.9557444857	 1.0368851839	-0.102038
C	-0.8021642819	-1.0343598391	 1.7590481402	 0.064848
O	-1.248544908	 0.0571301599	 2.5276388591	-0.442612
C	-1.1497981487	-0.9522344899	 0.2731564913	 0.310241
C	-2.4934667216	-1.0698826022	-0.3798626049	-0.531373
H	 1.0620055231	 1.9322831044	-0.1727673164	 0.114475
H	-0.5559768798	 1.9404709382	-0.885263445	 0.115776
H	-0.3691821304	 1.9324182467	 0.8796463977	 0.138776
H	-0.0296609764	-1.010791676	-2.0635162528	 0.094746
H	 1.5966844867	-1.0150434645	-1.3019389245	 0.093664
H	 1.5665710735	-1.0599963232	 1.418543852	 0.070906
H	-1.0198298027	-2.0023962679	 2.2318194513	 0.076206
H	-0.8846336921	-0.026074351	 3.4144017623	 0.287687
H	-3.153348526	-0.2689012393	-0.030715458	 0.134489
H	-2.4203071353	-1.0003116044	-1.4701136005	 0.122732
H	-2.9582581561	-2.0294285131	-0.1306711886	 0.130666
