19
gdb 70410	2.24853	1.57482	1.41686	3.4336	75.52	-0.2352	-0.0293	0.2059	1055.9731	0.155905	-422.995246	-422.986057	-422.985113	-423.028915	34.306	
C	-0.0790186415	 1.5667701543	 0.0690765425	-0.506962
C	 0.0150949733	 0.0677518969	 0.0306517465	 0.220987
C	-0.819390263	-0.8518727727	 0.9089164221	-0.364112
C	 0.6734602434	-0.9387388254	 0.9436047008	 0.074342
O	 1.1404369985	-1.7467428683	-0.1394961001	-0.314966
C	 0.6525081983	-0.783894678	-1.1029091358	 0.270779
C	-0.2245106969	-1.3941351706	-2.1856144602	-0.462124
C	 1.8184598421	-0.017746028	-1.7269131565	 0.124039
O	 2.9554471425	-0.0651202871	-1.3461343533	-0.241367
H	 0.8658502446	 2.0441460744	-0.2118140777	 0.134953
H	-0.8597573124	 1.9378204739	-0.605648749	 0.124726
H	-0.3321531532	 1.9080151156	 1.077509564	 0.127495
H	-1.2840316633	-0.3410664608	 1.7476303319	 0.116242
H	-1.3934114598	-1.6798650286	 0.503742237	 0.116792
H	 1.3108147183	-0.8385319767	 1.813864333	 0.112058
H	-1.1202745232	-1.8448036686	-1.7544275107	 0.132037
H	-0.5336060979	-0.6323765598	-2.9091399814	 0.123388
H	 0.3257306193	-2.1734190464	-2.7231918141	 0.140401
H	 1.5173208807	 0.6289453958	-2.5852963091	 0.07129
