17
gdb 106443	2.61277	1.35115	1.06694	4.1551	73.51	-0.26	0.0206	0.2806	1141.2491	0.136752	-417.942009	-417.933769	-417.932825	-417.975297	30.732	
O	 0.0228815902	 1.3505673475	 0.0181361921	-0.409504
C	-0.0233429085	-0.0623455197	 0.1354046201	-0.215956
C	-1.4437275041	-0.5618590103	 0.1483584242	 0.327785
C	-2.5874262748	-0.3189386415	 1.1762514538	-0.28059
C	-3.1860542676	-1.1023793224	-0.0201027957	-0.025604
N	-2.4033859659	-0.2410884643	-0.994993699	-0.35246
C	-1.944941548	-2.0420164851	 0.0351385545	-0.192448
C	-1.5865524639	-2.8008036707	-1.1506735659	 0.284463
N	-1.2781444086	-3.4514610208	-2.0549476588	-0.331116
H	-0.1634931153	 1.5700500227	-0.9005511204	 0.296043
H	 0.5274337782	-0.5595402243	-0.6754984306	 0.121998
H	 0.4674157558	-0.31785852	 1.0807877451	 0.121692
H	-2.5261997892	-0.8146537461	 2.1505205635	 0.102099
H	-2.9134185866	 0.7189129561	 1.2691313868	 0.113679
H	-4.2175611125	-1.3963080387	-0.2105436341	 0.106422
H	-2.715068535	 0.7297742744	-0.8929024598	 0.212882
H	-1.8451035842	-2.649449267	 0.9360006942	 0.120615
