20
gdb 99101	3.69317	0.90674	0.8695	1.647	75.68	-0.2443	0.0148	0.259	1442.1515	0.168996	-440.301857	-440.291732	-440.290788	-440.337594	36.467	
C	-0.051913163	 1.6212438523	-0.7031888148	-0.46423
C	-0.0565589566	 0.2117545655	-0.166345716	 0.466089
C	 1.1609801965	-0.6591463827	-0.2455986223	-0.319231
C	 0.6622833849	-0.1579064313	 1.0961007316	-0.297992
O	-1.2642259762	-0.5040386644	-0.4406740096	-0.286835
C	-2.3681137616	-0.1700605979	 0.2641152289	 0.401727
O	-2.4157608174	 0.6879180187	 1.1082052797	-0.359878
C	-3.5518071503	-1.0376240218	-0.160793317	-0.271661
N	-4.8026551432	-0.7521379311	 0.518523268	-0.486292
H	 0.9291779644	 2.0789104024	-0.5480314324	 0.119318
H	-0.2610993943	 1.6234102213	-1.7781499596	 0.121746
H	-0.8013995519	 2.2315243752	-0.1941601908	 0.148063
H	 1.0026230246	-1.705983206	-0.4775163144	 0.124032
H	 2.0658711682	-0.2315510141	-0.662906637	 0.116121
H	 1.2189922513	 0.6192746868	 1.6076825111	 0.121167
H	 0.1848385908	-0.8750496216	 1.7529010858	 0.122875
H	-3.6794964529	-0.9265110245	-1.2438446801	 0.138118
H	-3.2721881185	-2.0864471415	-0.0050674202	 0.136542
H	-4.6573690759	-0.8294596032	 1.5216765173	 0.235382
H	-5.0427728688	 0.2244092678	 0.370195182	 0.234937
