14
gdb 49831	1.96758	1.73238	1.12296	4.7906	68.27	-0.2662	-0.0588	0.2074	1067.3915	0.100439	-432.870004	-432.861783	-432.860839	-432.903503	29.181	
N	-0.1587359408	 1.2759749533	-0.3809752426	-0.516428
C	-0.0204684614	 0.057586728	-0.1139526139	 0.401826
N	 1.0275208399	-0.8358368392	 0.14471956	-0.328601
C	 0.1386683505	-1.9148918495	 0.5793364765	-0.080371
C	 0.1639926153	-2.1852914051	 2.0724332856	 0.156733
O	 0.9731675762	-1.6776755391	 2.8039385333	-0.235754
C	-1.075497385	-1.0622365238	 0.0455867285	-0.27314
C	-2.1805612355	-0.8189076406	 0.9534156709	 0.306346
N	-3.0545804508	-0.6512396697	 1.6905773618	-0.319528
H	 0.7312401273	 1.7759759884	-0.3966105584	 0.230409
H	 1.838596838	-0.5885278611	 0.699869845	 0.261393
H	 0.2771694967	-2.8649944023	 0.0477500907	 0.122979
H	-0.5950903523	-2.906749156	 2.438405713	 0.113799
H	-1.4516767482	-1.4216660634	-0.9148936605	 0.160335
