21
gdb 92547	3.31685	1.28308	1.02932	2.0239	83.79	-0.2404	0.0111	0.2515	1217.2367	0.184611	-387.089081	-387.081033	-387.080089	-387.121662	31.736	
C	-0.328787962	 1.5265681079	 0.0455130515	-0.403213
C	-0.0081388438	 0.0261361263	 0.0106415819	-0.028043
C	 0.7299798118	-0.363637492	-1.2844043575	-0.211327
C	 1.1221629943	-1.8427631969	-1.2993281147	-0.083617
C	 2.4884968094	-2.1711859519	-1.9383868245	-0.088858
O	 3.1123566929	-2.3114701886	-0.6443738262	-0.300725
C	 1.809443456	-2.3008131755	 0.0072803647	 0.115601
C	 1.6910115126	-1.3966860142	 1.1880994566	-0.1096
C	 0.8265091257	-0.3820923188	 1.2062501113	-0.033848
H	 0.5897736434	 2.1235052892	 0.0187228153	 0.12003
H	-0.9443130058	 1.8177576586	-0.8116725036	 0.112148
H	-0.8738118217	 1.7933118087	 0.9571180577	 0.113063
H	-0.9652669056	-0.5178889227	 0.0447586137	 0.083728
H	 0.1187935254	-0.1213948237	-2.1613909922	 0.091829
H	 1.636163489	 0.2519355671	-1.3468865172	 0.104676
H	 0.2859077687	-2.4689221867	-1.6198670539	 0.071094
H	 2.511846481	-3.1124070217	-2.5050720997	 0.092388
H	 2.9563606013	-1.3810884694	-2.5378396378	 0.100654
H	 1.5381170548	-3.3287050693	 0.2952788028	 0.073641
H	 2.2999703535	-1.6309336532	 2.0577060277	 0.093846
H	 0.7146812691	 0.2157735467	 2.108977054	 0.086534
