13
gdb 42506	6.25342	0.63284	0.57883	1.2971	65.55	-0.3334	-0.0856	0.2478	1728.3272	0.0878	-452.78524	-452.776194	-452.77525	-452.821052	29.591	
O	-0.0967321046	-0.1147462525	 0.0029322891	-0.31718
C	-0.0076013029	 1.0805212823	 0.0060899111	 0.364472
O	 1.1218593722	 1.7951514549	-0.0024821238	-0.22772
C	 2.3408184308	 1.0233706998	-0.0161737949	-0.073967
C	 3.4795929065	 2.0445896912	-0.0202212094	-0.347824
C	 4.7809040535	 1.3823580069	-0.0343356015	 0.252015
N	 5.8016738259	 0.8424620261	-0.0454527413	-0.284222
C	-1.1663953565	 1.9793903647	 0.0192397564	 0.257921
N	-2.1115437581	 2.6424612773	 0.0298969039	-0.296318
H	 2.3743461017	 0.3796736718	 0.8662662623	 0.161158
H	 2.3601033922	 0.3887079322	-0.9055784841	 0.161099
H	 3.3932401405	 2.6935369367	-0.8978999528	 0.175291
H	 3.4076366089	 2.6844178085	 0.8654148451	 0.175275
