19
gdb 10760	3.58053	1.45182	1.32477	2.5114	67.04	-0.2368	0.0554	0.2921	1008.0842	0.164392	-402.167829	-402.158825	-402.15788	-402.200869	33.723	
C	-0.1140735776	 1.6446286246	-0.029267637	-0.417459
C	 0.0218709736	 0.1153328411	-0.0393380303	 0.333128
O	 0.7436005119	-0.3239138979	 1.1093335484	-0.479397
C	-1.3596145758	-0.5613203812	-0.0182226044	-0.114363
O	-1.9369469768	-0.2784182893	 1.2558492713	-0.43668
C	 0.7878606774	-0.3514977862	-1.2692605317	-0.003472
C	 2.2671196194	-0.4025706498	-1.2661898421	-0.246419
N	 1.4742348713	-1.6498266257	-1.2579579479	-0.337654
H	 0.8733894155	 2.1010140464	 0.0717507758	 0.123919
H	-0.5717264496	 2.0062929107	-0.9564762786	 0.108651
H	-0.7395465874	 1.965532681	 0.8081221678	 0.12625
H	 0.0942855316	-0.3565263013	 1.82403827	 0.289277
H	-1.9874462395	-0.1752748773	-0.8339289625	 0.095412
H	-1.2310058003	-1.642563587	-0.1596349058	 0.105701
H	-2.673844938	-0.8775238659	 1.4013211601	 0.29729
H	 0.2796250671	-0.1275759463	-2.2058778976	 0.08242
H	 2.8179137789	-0.2122087284	-2.1829243651	 0.110787
H	 2.7755436744	-0.1208337621	-0.3497251017	 0.127109
H	 1.4572499439	-1.9868311955	-0.2959681588	 0.235499
