23
gdb 102693	3.12441	0.69232	0.59692	2.9394	84.45	-0.2454	-0.0166	0.2288	1895.7468	0.201924	-425.432609	-425.421102	-425.420158	-425.470834	39.384	
C	-0.7586780662	 1.9926659857	-0.6175487895	-0.393907
C	-0.3376904586	 0.522019588	-0.58305283	-0.168588
C	-1.4994406752	-0.4565474081	-0.3711892321	 0.12134
C	-1.0100638888	-1.9110310067	-0.3727403324	-0.200802
C	-2.1443431643	-2.9294915817	-0.1804194862	-0.281248
C	-1.6200646021	-4.3358636262	-0.0236997247	 0.158184
O	-1.9514252459	-5.2805842943	-0.6930079268	-0.241238
O	-2.1350588094	-0.1966506084	 0.8814949605	-0.253031
C	-3.4531392698	 0.3023741163	 0.8015660352	-0.238894
H	 0.107579418	 2.6433501105	-0.7703319815	 0.114339
H	-1.466909156	 2.1887369715	-1.430628374	 0.110709
H	-1.2323985363	 2.2831704948	 0.3241346636	 0.129916
H	 0.1708058214	 0.2566796837	-1.5184713477	 0.094782
H	 0.3887331422	 0.3662352789	 0.224311185	 0.104292
H	-2.2321409769	-0.3272299221	-1.1832990124	 0.068298
H	-0.4837020931	-2.1087177111	-1.3139116353	 0.107842
H	-0.2749695714	-2.0252277488	 0.4344092847	 0.109296
H	-2.6781669756	-2.6680189768	 0.7434169899	 0.132484
H	-2.8558107498	-2.9126023602	-1.0117583239	 0.113619
H	-0.8650637391	-4.4505583337	 0.7908429683	 0.068869
H	-3.5010556397	 1.2750259484	 0.2920667949	 0.10971
H	-4.1270374095	-0.3936693985	 0.280118796	 0.106824
H	-3.8095747238	 0.4288737788	 1.8275302883	 0.127205
