21
gdb 75010	3.22811	1.28709	1.12604	1.4943	84.21	-0.229	0.0302	0.2592	1183.9789	0.184981	-387.118285	-387.110205	-387.10926	-387.151391	31.319	
C	 0.1176401676	 1.5056213972	 0.1350183509	-0.488835
C	-0.0068635147	 0.0170479253	 0.0506823896	 0.338306
C	 0.1122180562	-0.7450767207	-1.0369949966	-0.175187
C	-0.0418201499	-2.2175133797	-0.7664212157	-0.072175
C	 1.2663735095	-3.0326637429	-0.9291513065	-0.08944
O	 1.8976599717	-3.0010481246	 0.3398815528	-0.240429
C	 0.8518547252	-3.1550963974	 1.2874754104	-0.089931
C	-0.3154443544	-2.2869397833	 0.7782749134	-0.03387
C	-0.3010049275	-0.8164665826	 1.2775756518	-0.314045
H	 0.9286578644	 1.7953079126	 0.8154800868	 0.126603
H	 0.3190911908	 1.9521554121	-0.8424139695	 0.122282
H	-0.7985990078	 1.9587310021	 0.5352778171	 0.122332
H	 0.3224189032	-0.3652947071	-2.0325786487	 0.081243
H	-0.8424729539	-2.663999851	-1.3666551359	 0.071812
H	 1.0386969355	-4.0720036999	-1.2209421099	 0.079169
H	 1.9583796357	-2.6093621831	-1.6620729276	 0.104949
H	 0.5445512591	-4.2130977343	 1.3491778386	 0.080593
H	 1.2359548995	-2.8513506466	 2.2651405007	 0.104244
H	-1.2715292664	-2.7635273684	 1.0041608051	 0.071766
H	 0.4565458114	-0.6565501284	 2.057263302	 0.1024
H	-1.2594997852	-0.528347089	 1.7302032611	 0.098211
