10
gdb 130838	4.72752	1.15221	0.92642	1.7467	55.59	-0.3076	-0.1475	0.1601	1103.0292	0.052048	-500.862536	-500.855186	-500.854242	-500.895912	24.066	
O	-0.0802692945	-0.0032498129	 0.0019522934	-0.176928
C	-0.0446192067	 1.1918048714	 0.008748951	 0.071324
C	 1.3399440613	 1.8914573096	-0.0009654317	 0.375402
O	 2.3838680582	 1.3250449436	-0.0147749229	-0.212175
N	 1.278126361	 3.3379008427	 0.0081664098	 0.043626
N	 0.1385143596	 4.0465495006	 0.0232986312	-0.094818
N	 0.4985895346	 5.2752804932	 0.0276737974	-0.05679
N	 1.8696985555	 5.3360829955	 0.014132131	-0.051411
N	 2.346868213	 4.1471188682	 0.0019825604	-0.059478
H	-0.933661692	 1.842816098	 0.0214832203	 0.161248
