18
gdb 83912	2.61811	1.41055	1.2187	4.9425	76.53	-0.2693	0.0326	0.3019	1088.7021	0.149214	-401.963974	-401.955734	-401.95479	-401.996592	31.405	
O	-0.4284198078	 1.5186079961	 0.0319526848	-0.413063
C	-0.1831085906	 0.1463151524	 0.0447970073	 0.054303
C	-0.4497330088	-0.7247416809	 1.242721537	-0.134427
C	-1.2579715254	-0.1759987146	 2.4088729893	-0.227391
C	-2.5152463195	 0.4848751452	 1.793657664	-0.219206
C	-2.7425806701	-0.211661584	 0.4319534215	-0.270135
C	-1.3815291769	-0.7806643984	 0.0170452571	 0.148896
C	-1.3589943369	-1.8876893203	-0.8955405905	 0.207512
N	-1.3447196471	-2.7829959062	-1.6290171297	-0.350599
H	 0.2837493885	 1.9544633921	 0.5124582315	 0.296635
H	 0.6464671905	-0.1700012998	-0.5869642375	 0.111909
H	 0.2460953019	-1.5360410046	 1.4268461187	 0.107595
H	-1.5330825002	-1.0124485183	 3.0603099998	 0.114442
H	-0.6838949219	 0.5273610471	 3.0219399318	 0.102472
H	-3.3859874207	 0.3876174768	 2.4470155276	 0.101971
H	-2.3352272002	 1.5477260311	 1.633735998	 0.122707
H	-3.4444112364	-1.046297912	 0.5248062172	 0.120932
H	-3.1443148884	 0.4723134982	-0.3200088977	 0.125449
