20
gdb 12922	3.30044	1.53564	1.28807	1.2496	74.83	-0.2419	0.0821	0.324	1045.5245	0.176585	-348.975678	-348.967206	-348.966262	-349.008482	32.254	
C	 0.0220369639	 1.4246364288	-0.2981884014	-0.368771
C	-0.0098534375	-0.0092940356	 0.2445952002	-0.211357
C	-1.3857540002	-0.6388638226	 0.1416749297	-0.058794
C	-1.9896852038	-1.2460309199	-1.115550474	-0.12516
C	-0.939568217	-2.0301213613	-1.9136363106	-0.225117
C	-0.6751695222	-2.930563963	-0.6621175086	-0.294068
C	-1.7112346725	-2.1065642376	 0.1151206623	 0.362137
O	-2.6441474374	-2.6752209948	 0.9692571054	-0.460909
H	 1.0197603741	 1.8649001562	-0.2043082991	 0.108465
H	-0.2609082152	 1.4496601154	-1.3557311552	 0.120272
H	-0.6791405516	 2.0682832601	 0.2445985477	 0.112554
H	 0.7283947958	-0.6168268433	-0.2896335785	 0.10056
H	 0.3076503834	-0.0090706058	 1.2960278682	 0.090246
H	-2.1505913632	-0.0992586384	 0.7006019035	 0.081667
H	-2.9394862255	-0.8973587566	-1.5029222423	 0.086775
H	-1.3700802404	-2.59188451	-2.7450098559	 0.104398
H	-0.0881317409	-1.4554782266	-2.291144786	 0.096626
H	-1.0279228017	-3.9525132493	-0.8172441723	 0.10916
H	 0.3438618954	-2.9657076179	-0.2624196913	 0.088538
H	-2.3154315633	-2.5993106078	 1.8714632681	 0.282779
