14
gdb 51142	3.23179	1.24112	0.98424	3.9358	64.6	-0.2813	-0.0118	0.2696	1139.5129	0.099218	-473.797546	-473.789666	-473.788721	-473.831067	28.241	
N	 0.1121267196	 1.2401674442	-0.0522567497	-0.552537
C	 0.0497636741	-0.0046962931	 0.023474961	 0.398011
O	 1.0313450866	-0.97969968	 0.2014054128	-0.267172
C	 0.0499001174	-2.0282722928	-0.0370135994	 0.006312
C	-0.9661779351	-2.0039732687	 1.0558239954	-0.34847
C	-1.0538064211	-1.0111876265	-0.107215396	 0.285231
O	-2.1326650367	-0.9350340532	-0.9683412722	-0.221899
C	-3.1035304859	-0.031003297	-0.6329409526	 0.161025
O	-4.0815120994	 0.1034915342	-1.295901009	-0.256435
H	 1.0663211762	 1.5883971343	 0.0481985019	 0.243552
H	 0.3308864108	-2.8455235165	-0.685046237	 0.149186
H	-1.7227112301	-2.7812806751	 0.997421039	 0.147628
H	-0.6883337244	-1.6813664738	 2.0541310684	 0.143123
H	-2.8615556621	 0.531394944	 0.2843005576	 0.112445
