16
gdb 44068	3.39679	1.52074	1.41175	2.4201	69.44	-0.2384	-0.0279	0.2105	943.9428	0.124725	-437.75477	-437.748043	-437.747099	-437.785703	27.632	
O	 0.0003430878	-0.0175175323	 0.148095223	-0.321979
C	 0.0136885358	 1.1803031156	 0.1110168328	 0.472724
C	-1.1347791745	 2.1983945687	 0.1664438169	-0.386517
C	-0.2793280106	 3.4683708251	-0.0250171514	 0.362661
C	-0.894131417	 4.5389196817	-0.9712759195	-0.280366
N	-0.2937580755	 3.7129688758	-2.1362265629	-0.373655
C	 0.712508837	 3.2218206146	-1.0760513911	 0.012944
C	 1.1909032581	 2.1380251287	-0.0188373694	-0.123334
O	 0.8030200328	 3.1688738727	 1.0009122324	-0.363366
H	-1.8930762223	 2.0075395159	-0.5985804536	 0.121826
H	-1.6234776522	 2.2053199928	 1.1443432334	 0.146881
H	-1.9813663267	 4.6506506979	-0.9912575395	 0.12285
H	-0.4051977254	 5.5137662268	-0.9437280691	 0.141624
H	-0.9628391832	 2.9816509716	-2.3737934676	 0.232907
H	 1.4984874835	 3.9790346707	-1.0670600233	 0.123891
H	 2.2140895723	 1.7801965436	 0.0740824691	 0.110909
