17
gdb 13682	5.06151	1.00221	0.96196	4.9185	66.23	-0.2628	0.0136	0.2765	1234.7978	0.141374	-400.994159	-400.985605	-400.98466	-401.028162	29.85	
C	 0.2916666584	 1.3649941295	-0.3352322017	-0.397021
C	 0.1912571871	-0.0653149381	 0.1416860337	 0.000492
N	 1.4326940359	-0.7320087934	 0.5658990829	-0.336962
C	 0.3615067529	-0.514182601	 1.5526423152	-0.018335
C	 0.70533075	 0.4035927992	 2.6963964737	-0.101807
O	 1.4382506193	-0.3110066149	 3.7034027284	-0.183579
C	 2.7828939369	-0.3304523879	 3.5863721909	 0.174901
O	 3.4789174899	-0.9611878259	 4.3241621852	-0.278671
H	 1.0477294223	 1.9236058324	 0.2202424473	 0.127353
H	 0.5757430456	 1.389778739	-1.3923920423	 0.1284
H	-0.6697853926	 1.8796140832	-0.2338414786	 0.121729
H	-0.5091117447	-0.6692738545	-0.4347508688	 0.091149
H	 1.4552604324	-1.7014665948	 0.2635794413	 0.239593
H	-0.2227748285	-1.3803950983	 1.8585881806	 0.099718
H	 1.2877889222	 1.2620639137	 2.348059748	 0.116755
H	-0.1955319416	 0.7715133441	 3.1945537368	 0.125354
H	 3.1516753546	 0.2982444576	 2.7554963675	 0.090931
