17
gdb 16876	4.11362	1.82278	1.39483	2.9841	67.91	-0.2215	-0.0088	0.2127	885.9743	0.14421	-363.865671	-363.85886	-363.857916	-363.896639	26.989	
O	 0.0129370133	 0.6874085488	-1.3664763861	-0.308836
C	-0.0375976384	 1.2897727346	-0.3219520677	 0.401842
C	-1.3596949336	 1.8539921524	 0.2155265325	-0.263694
N	-1.1676676409	 2.4246579846	 1.5428884656	-0.303376
C	-0.1966049615	 3.4855701668	 1.5484755796	 0.002924
C	 0.962247314	 3.3592950638	 2.5051857301	-0.30082
C	 1.1481613602	 3.0151389285	 1.0464021483	-0.022576
C	 1.1805433279	 1.5715694834	 0.5545070786	-0.325995
H	-1.741348084	 2.5623619039	-0.5424457548	 0.109926
H	-2.0781235731	 1.0287542237	 0.2651618361	 0.130095
H	-2.0416136961	 2.6913586626	 1.9771723427	 0.226594
H	-0.5243804698	 4.4882081152	 1.2660737101	 0.074982
H	 1.4260080077	 4.2681535315	 2.8727938306	 0.111178
H	 0.9185234982	 2.5420626491	 3.2165629148	 0.118106
H	 1.7176228759	 3.717374776	 0.4472022017	 0.097734
H	 1.1378995647	 0.8781538694	 1.4028582364	 0.131325
H	 2.0820882255	 1.3424519258	-0.0171544485	 0.12059
