19
gdb 91726	2.56364	1.55722	1.44863	3.563	73.88	-0.2295	-0.0061	0.2234	1004.4836	0.161563	-423.064978	-423.057487	-423.056543	-423.096825	30.314	
O	-0.0017207714	 1.4319388674	-0.0773585974	-0.436954
C	 0.0167379281	 0.0178206543	 0.0153086389	 0.140608
C	 0.643542868	-0.5387027346	 1.3380107662	-0.26899
C	-0.505520693	-1.3834912253	 1.9609876242	-0.109464
C	-1.2036051612	-1.9198739959	 0.6898210799	-0.245451
C	-1.4275444752	-0.5240253361	 0.0623514794	-0.039698
C	-2.1905696938	 0.2076723951	 1.1854577179	-0.324962
C	-1.5385249056	-0.367851016	 2.4547547572	 0.423042
O	-1.7864887216	-0.0736459521	 3.5946550655	-0.335014
H	 0.9071516044	 1.7464931996	-0.0901743616	 0.28574
H	 0.5358292131	-0.4065171755	-0.8559785799	 0.067695
H	 1.5107852202	-1.174648774	 1.1377996084	 0.103328
H	 0.9662874661	 0.2781762482	 1.9899770323	 0.114634
H	-0.1938187434	-2.0924002327	 2.7267853209	 0.079003
H	-0.5567205993	-2.5674364113	 0.089865301	 0.100646
H	-2.1375061778	-2.4516240173	 0.8951375231	 0.105805
H	-1.9288785301	-0.5047188421	-0.9058517938	 0.071312
H	-2.0995314701	 1.2944031314	 1.1534092729	 0.147327
H	-3.2566855275	-0.0453968732	 1.1800051247	 0.121394
