14
gdb 129254	3.36052	1.80963	1.18504	4.5309	71.17	-0.2586	-0.0222	0.2364	955.2363	0.104767	-432.896034	-432.889654	-432.88871	-432.926943	24.581	
N	-0.1302335506	 1.2977192087	 0.0098287046	-0.544415
C	-0.0540779416	 0.0461269167	 0.0029548526	 0.501475
O	 1.0746330118	-0.731028649	-0.0062618812	-0.265638
C	 0.7524510849	-2.1427150452	-0.0121501861	-0.209551
C	-0.739990909	-2.1509910873	-0.0053669346	 0.385978
C	-1.8849921027	-2.906300543	-0.0040829361	-0.401832
C	-2.9232310694	-1.9302122362	 0.0057442203	 0.031307
N	-2.4677128011	-0.6805085021	 0.0101927742	-0.255225
N	-1.1324885522	-0.8507702894	 0.0032117861	-0.029296
H	 0.7986368459	 1.714898003	 0.0077525238	 0.240137
H	 1.1929157597	-2.5960461504	-0.9064595812	 0.149457
H	 1.2010579358	-2.6053254399	 0.8733164758	 0.149457
H	-1.983708413	-3.9788830025	-0.0092258855	 0.120546
H	-3.9897993385	-2.1040550235	 0.0097025773	 0.1276
