14
gdb 42327	5.63368	0.66787	0.62249	2.9808	91.4	-0.2629	-0.0884	0.1745	1707.3231	0.099308	-399.477494	-399.46875	-399.467806	-399.511851	30.913	
O	-0.0621469436	 0.1273622163	-0.5340466141	-0.316776
C	 0.0042066362	 1.3261213277	-0.3245593473	 0.147162
C	 1.2660574919	 2.0047270157	-0.1434867801	 0.372651
C	 2.3210648756	 2.5841312911	 0.0093987538	-0.17252
C	 3.5025778335	 3.2295780274	 0.1796115687	 0.296712
C	 4.5532275846	 3.8053981511	 0.331484858	-0.540312
C	-1.2183405551	 2.182488354	-0.2464791648	-0.111206
C	-2.197815382	 2.0258585721	-1.3744289204	-0.217887
N	-2.5006853934	 1.4943385128	-0.0546972372	-0.299323
H	 5.4784401593	 4.3103585156	 0.4651027259	 0.208039
H	-1.11055604	 3.1469395719	 0.2387419666	 0.112414
H	-2.7784283236	 2.8919098593	-1.6778331367	 0.132164
H	-1.9251990821	 1.3350975974	-2.1673398915	 0.137118
H	-2.3011267314	 0.4929272777	-0.0515618911	 0.251763
