18
gdb 41646	3.13484	2.02629	1.63958	1.8452	72.43	-0.2439	0.0726	0.3165	861.077	0.152046	-401.897232	-401.891238	-401.890294	-401.927251	25.725	
C	-0.0324601791	 1.4079915557	-0.2031919261	-0.072637
C	 1.3682583803	 2.0095639484	-0.0317169823	-0.248848
C	 2.0166855951	 1.4996487197	 1.2553718367	-0.015923
C	 1.2175817092	 1.4641536699	 2.5588299193	-0.060716
C	 0.2958826989	 0.2901143336	 2.5010486555	-0.105691
C	 0.55537849	-0.4229236503	 1.1773425505	 0.139192
O	-0.0541687644	-0.0038911091	-0.0173361222	-0.271374
C	 2.0266713688	-0.0336317127	 1.425806987	-0.052082
N	 1.7264463203	 0.1061898525	 2.9453425877	-0.172172
H	-0.7264152577	 1.8857037538	 0.5043733471	 0.097428
H	-0.4138215726	 1.5803524938	-1.2130504539	 0.108244
H	 2.0005728218	 1.7289600646	-0.8831673123	 0.107343
H	 1.2916999481	 3.1035139677	-0.0327572843	 0.101127
H	 3.0080988808	 1.9269060671	 1.4266514293	 0.081702
H	 1.096690295	 2.2496232102	 3.2963658627	 0.09393
H	-0.5289730705	 0.1607579702	 3.1916988879	 0.095197
H	 0.388097541	-1.49844312	 1.26031645	 0.095937
H	 2.8533897049	-0.652761495	 1.0840561975	 0.079343
