20
gdb 22453	2.4241	1.0257	0.79876	2.5429	74.3	-0.2542	-0.0061	0.2481	1454.4165	0.168301	-477.368366	-477.357669	-477.356725	-477.404407	38.567	
C	-0.0341389607	 1.5202899269	 0.1715717362	-0.41002
C	 0.015752768	 0.005189322	-0.0421830005	-0.073696
C	-1.4047583131	-0.5940702184	-0.2006544215	-0.072677
O	-2.1800672103	-0.4893790587	 0.9794892976	-0.419012
C	 0.855535473	-0.4252613045	-1.2214297796	 0.326324
C	 1.3110043489	-1.8727748157	-1.3156875764	-0.144603
O	 0.7534326466	-2.5461835261	-2.430309755	-0.421012
N	 1.1125233994	 0.4419508742	-2.1240939197	-0.174135
O	 1.8684269946	-0.1218255336	-3.1805317328	-0.413953
H	 0.9686617544	 1.9347026262	 0.3017718003	 0.125662
H	-0.4890880166	 2.0247598978	-0.6854551721	 0.130618
H	-0.6120845473	 1.7572419992	 1.0706661515	 0.101629
H	 0.4455196404	-0.4669399469	 0.8527333102	 0.093659
H	-1.8982858909	-0.1108125025	-1.0578527909	 0.098978
H	-1.3410935735	-1.6626263718	-0.4261961859	 0.129262
H	-2.4296883205	 0.4323507015	 1.0927282824	 0.286774
H	 2.4116466065	-1.8883304266	-1.3402782516	 0.113605
H	 0.9915964127	-2.4232484747	-0.4269556255	 0.114068
H	 1.0482409914	-2.0534699115	-3.2060366622	 0.297653
H	 1.9825199573	 0.627406623	-3.7739350046	 0.310876
