20
gdb 39486	2.23283	1.85381	1.25657	2.5997	80.54	-0.2318	0.0057	0.2375	1057.5962	0.174024	-403.111471	-403.103735	-403.102791	-403.143398	31.046	
C	-0.0288734772	 1.2176648383	-0.2252849364	-0.061667
C	 1.4309008792	 1.5749307839	 0.1181729607	-0.236099
C	 1.8691055511	 1.4573668045	 1.5746555958	-0.018732
N	 0.9059655148	 0.9697893604	 2.5663686551	-0.334392
C	 2.099445811	 0.1490871998	 2.2820394894	-0.064909
C	 1.9842575142	-1.1650866121	 1.6092443434	-0.012932
C	 0.9724316334	-1.6718531236	 0.900653047	-0.097447
C	-0.3616021378	-1.0212193454	 0.6140664273	-0.131432
O	-0.2962982012	-0.1406356711	-0.5102443387	-0.250214
H	-0.6927489273	 1.5851208423	 0.5699825168	 0.101027
H	-0.2864137339	 1.7421966472	-1.1517150487	 0.097575
H	 2.0918701162	 0.9802499062	-0.522935549	 0.11752
H	 1.574923293	 2.6218251313	-0.1771503425	 0.097477
H	 2.5301115025	 2.2606538693	 1.897560135	 0.083748
H	 1.0166282614	 1.4496181929	 3.4543481405	 0.233864
H	 2.8888385846	 0.179431797	 3.031144513	 0.081198
H	 2.8973754763	-1.7550555743	 1.6744505091	 0.084582
H	 1.1329655233	-2.6394054882	 0.430315621	 0.088795
H	-1.0867954463	-1.7932850466	 0.3369345676	 0.094293
H	-0.7359290472	-0.488712672	 1.4916357038	 0.127744
