13
gdb 4311	4.2302	1.89821	1.31097	3.1504	66.69	-0.2072	-0.0355	0.1717	860.3662	0.097713	-394.823764	-394.817104	-394.81616	-394.854418	25.564	
N	 0.0520424673	 1.3610211756	 0.1356371638	-0.564628
C	-0.0445095728	 0.0021215652	 0.0514942583	 0.386761
C	-1.2145566734	-0.6963930882	 0.0308457517	-0.247379
C	-1.2063437749	-2.1281731395	-0.0043423617	 0.388983
N	-2.2165032593	-2.8932574737	-0.0219459748	-0.552952
O	 0.1003929468	-2.7008204071	-0.0231785821	-0.221987
C	 1.1726377624	-1.9073250897	-0.0110072058	 0.146394
N	 1.1996044005	-0.6319011902	 0.0249387877	-0.334354
H	 0.948217936	 1.7535763558	-0.1020252446	 0.26569
H	-0.7573764359	 1.918791394	-0.0781897659	 0.263213
H	-2.1814435511	-0.2114782515	 0.0464773011	 0.106148
H	-1.9350999272	-3.8720144254	-0.0485017186	 0.219711
H	 2.0938759916	-2.4835588752	-0.037140569	 0.144399
