19
gdb 81629	4.1019	0.86205	0.81198	2.5701	76.9	-0.2506	-0.0232	0.2274	1427.5334	0.158462	-422.973148	-422.96456	-422.963616	-423.007605	32.106	
O	 0.0845820016	 1.4331335002	-0.2640892775	-0.450258
C	-0.0651877761	 0.0494460079	-0.1372054143	 0.199329
C	-0.0820145319	-0.6526260985	 1.26117159	-0.110292
C	-1.5280195476	-0.0981877488	 1.439459136	-0.258161
C	-1.4747563641	-0.6191457328	-0.0297386345	-0.117223
C	-0.7571135764	-1.8780215423	 0.5556837981	 0.040388
C	 0.0117477688	-2.8647750062	-0.3311568317	-0.336895
C	 0.8990383487	-3.7601583664	 0.5066112316	 0.165053
O	 0.7902007937	-4.956149272	 0.5903264736	-0.238211
H	-0.4977106688	 1.8813133777	 0.3571211613	 0.283902
H	 0.6124207511	-0.3707348423	-0.8799028862	 0.077731
H	 0.7114401432	-0.670608395	 2.0098562939	 0.078441
H	-2.1782544981	-0.6454261267	 2.1263808568	 0.102777
H	-1.6475947899	 0.9772396584	 1.5979389609	 0.08069
H	-2.2796492552	-0.6073086798	-0.766363234	 0.077681
H	-1.4019298827	-2.4436939903	 1.2359370589	 0.085218
H	-0.6885607047	-3.4974869177	-0.8849526694	 0.122871
H	 0.6528222778	-2.3504730956	-1.05611837	 0.122526
H	 1.6885491205	-3.2174152798	 1.0773817764	 0.074434
