20
gdb 92338	2.3434	1.77891	1.17598	2.1827	74.5	-0.2261	0.0707	0.2968	1086.3496	0.172338	-440.259633	-440.251483	-440.250539	-440.292317	31.699	
C	-0.0219675541	 1.4443458602	-0.0719962334	-0.331705
N	 0.116660865	 0.0060521575	 0.0486698533	-0.099896
C	-1.1121095629	-0.7855109973	 0.313997629	-0.203888
C	-0.3940405695	-1.5205591787	 1.4805154828	 0.098608
O	 0.0836989049	-2.828232284	 1.2409224727	-0.264364
C	 1.2753775194	-2.7415920126	 0.4663393371	-0.121723
C	 1.9763349419	-1.4207178857	 0.8702891326	 0.120873
O	 2.7507548948	-0.8593508235	-0.1609277655	-0.437699
C	 0.7777222012	-0.534688748	 1.2646691128	-0.050036
H	 0.9685757303	 1.9060350074	-0.1299753174	 0.130284
H	-0.5628585403	 1.6889086056	-0.9920964325	 0.125173
H	-0.5664781441	 1.9008766309	 0.7751783305	 0.096581
H	-1.9539946702	-0.1696778724	 0.6609608556	 0.094591
H	-1.4440566195	-1.4081381063	-0.5234058785	 0.111422
H	-0.9278876808	-1.5280080508	 2.4311230808	 0.089984
H	 1.8708497573	-3.6350665787	 0.6679024676	 0.112541
H	 1.0542969773	-2.7068840184	-0.6112365182	 0.094549
H	 2.6392602971	-1.579760303	 1.7259792067	 0.090823
H	 2.0938985929	-0.5115019222	-0.7850197082	 0.277805
H	 0.9927962493	 0.2041518401	 2.0424314919	 0.066076
