17
gdb 77685	2.02127	1.66849	1.62466	2.1994	62.98	-0.2294	0.0454	0.2748	970.1114	0.135146	-496.065175	-496.056759	-496.055815	-496.097452	32.745	
O	 0.1624066493	 1.4295383552	-0.0336214721	-0.430492
C	-0.0149901537	 0.0483687173	-0.0067959989	 0.000316
C	-0.4650242949	-0.7058824725	 1.230626601	 0.19522
O	 0.0692945476	-1.9474521556	 1.5769074351	-0.465884
C	-1.19049799	 0.1120891623	 2.2852840528	-0.153785
O	-2.117466891	 0.9188509901	 1.548236975	-0.275585
C	-2.55884254	 0.1726302693	 0.4029940195	-0.154272
C	-1.3564229198	-0.6572090701	-0.0010526944	 0.293177
O	-1.5622552989	-1.7935123528	-0.7705414773	-0.475338
H	-0.5720757112	 1.8204995452	 0.4602838697	 0.300636
H	 0.7384408337	-0.4566617073	-0.6047876551	 0.112659
H	 1.0201971148	-1.8575472547	 1.6985173428	 0.297678
H	-1.7023488343	-0.5662961191	 2.9837432906	 0.112193
H	-0.5578955515	 0.7991979712	 2.8560567041	 0.115255
H	-3.39819817	-0.4939664496	 0.6484070282	 0.111312
H	-2.8894817447	 0.9016443383	-0.3422121232	 0.123066
H	-1.1901222852	-2.5358638772	-0.2746245978	 0.293843
