9
gdb 128877	2.07883	1.90518	0.99411	1.8457	64.48	-0.3237	-0.1305	0.1932	1028.8825	0.042406	-446.50805	-446.501142	-446.500198	-446.539967	23.942	
N	 0.1210356523	-1.1694481857	-0.0053414657	-0.298803
C	 0.0506759943	-0.0150949298	 0.0018877044	 0.279504
C	-0.053767879	 1.3933919435	 0.0113655998	 0.286588
C	-1.1422620209	 2.2291586174	 0.031254405	 0.088798
N	-0.6391809519	 3.5158394367	 0.0316069241	-0.138865
N	 0.6104165814	 3.5031882181	 0.0141593625	 0.03337
O	 1.0495326139	 2.1354825042	 0.0004490871	-0.203305
C	-2.5228787756	 1.9258851916	 0.0486605806	 0.258702
N	-3.6493042744	 1.6649849641	 0.0627838822	-0.305988
