11
gdb 129155	2.87307	1.55695	1.01584	3.0594	64.97	-0.2734	-0.1176	0.1558	1035.0133	0.062742	-484.759917	-484.752125	-484.751181	-484.793327	26.799	
N	-0.0923078822	 1.3058149492	-0.1129829305	-0.468711
C	-0.0638741651	 0.0408408631	-0.0265223043	 0.314618
N	 1.1971511318	-0.6569769688	 0.0881157023	-0.111289
N	 1.2948687095	-1.8243638303	 0.3842952338	 0.060249
O	-0.0084663102	-2.6107607549	 0.5913910857	-0.23092
N	-1.1769794607	-2.073909017	 0.2585195773	-0.053279
C	-1.2348617475	-0.8131374908	-0.0460291419	 0.210404
C	-2.5837850661	-0.2689907664	-0.4353038907	 0.122608
O	-3.5878662416	-0.9297653849	-0.4256828174	-0.22807
H	 0.8566771017	 1.6880073418	-0.0926471517	 0.251846
H	-2.5635771098	 0.7955788191	-0.7299943726	 0.132545
