22
gdb 66163	3.46404	0.92652	0.87442	3.5965	83.37	-0.2493	0.0315	0.2808	1428.5147	0.193914	-404.370902	-404.361074	-404.36013	-404.406409	36.196	
C	-0.6110897182	 1.4810775061	 0.0708440942	-0.455604
C	-0.0206670512	 0.0782766178	-0.0085956123	 0.344436
C	-1.0936297853	-0.9659899123	-0.3610759947	-0.215526
N	-1.7420736476	-0.7447748404	-1.6447254285	-0.27349
C	-3.0262786345	-0.3142310008	-1.7688294827	 0.155412
O	-3.7792483049	-0.0716486946	-0.8492790164	-0.325314
C	 1.2749690779	-0.0851604699	-0.8716112438	-0.257823
C	 1.9190268954	-0.9100569763	 0.2739841486	-0.208221
C	 0.8041481806	-0.4052032186	 1.2287550609	-0.254955
H	 0.1547959655	 2.2079473438	 0.360273896	 0.104671
H	-1.0222665512	 1.793548176	-0.8945267267	 0.11652
H	-1.4232834329	 1.5291051751	 0.8043234601	 0.128498
H	-0.6524986504	-1.9705788817	-0.3553544321	 0.101016
H	-1.8888461404	-0.946809898	 0.3888251468	 0.144879
H	-1.2151527421	-0.8989712997	-2.4893792756	 0.246427
H	-3.3210817293	-0.2111456615	-2.8326678786	 0.071699
H	 1.174735256	-0.573811981	-1.8467354965	 0.077792
H	 1.7775483845	 0.8735716193	-1.0278425129	 0.100949
H	 1.8644802863	-1.9877341202	 0.0983060289	 0.102393
H	 2.948912933	-0.6637834014	 0.5407206696	 0.100195
H	 1.1321122944	 0.4340809693	 1.8481496951	 0.099574
H	 0.3272216745	-1.1444968711	 1.8794071705	 0.096472
