19
gdb 48265	2.61999	1.03317	0.79083	2.3514	82.7	-0.249	-0.0288	0.2202	1446.6285	0.156294	-385.84891	-385.839114	-385.83817	-385.884617	35.179	
O	-0.3214061994	 0.1643750392	-0.161118063	-0.246131
C	-0.1158467914	 1.3430862836	-0.0689028968	 0.184921
C	 1.277622436	 1.9787143397	-0.0061319023	-0.253613
C	 1.5337664162	 2.8548116381	-1.2656701068	-0.226929
C	 1.5627747823	 2.05530936	-2.54901503	 0.027882
C	 0.2997955004	 1.8092172131	-3.3390829605	-0.249265
C	 1.3564320947	 2.7431413956	-3.8743293232	-0.288331
C	 1.370097399	 2.7670633093	 1.2173082723	 0.288713
C	 1.3986674457	 3.430755681	 2.2194603484	-0.431141
H	-0.94441053	 2.0849811281	-0.0186283818	 0.08517
H	 2.0000240295	 1.1546865375	 0.0174012368	 0.123519
H	 0.7600835471	 3.6308280766	-1.3210191648	 0.109223
H	 2.484305035	 3.3785727083	-1.1150098859	 0.120889
H	 2.2818950541	 1.239782937	-2.5479885315	 0.090451
H	 0.1689607648	 0.8436721458	-3.8137096666	 0.122176
H	-0.6228032238	 2.2505914892	-2.9759035635	 0.111618
H	 1.1436568178	 3.807319289	-3.8646559661	 0.113049
H	 1.9528639665	 2.4191982799	-4.7197970187	 0.11592
H	 1.4447203754	 4.0063056591	 3.1108644741	 0.201879
