25
gdb 58241	2.53238	1.05883	0.84333	1.4142	89.08	-0.2519	0.0769	0.3288	1492.9424	0.226869	-389.481001	-389.470064	-389.46912	-389.516748	41.355	
C	 0.068407721	 1.5569669859	 0.0463462683	-0.39922
C	-0.0057543745	 0.0216221384	 0.0649972487	 0.04637
C	 0.6400851725	-0.5035274255	 1.3566889213	-0.390487
C	-1.4542919978	-0.4978012753	-0.134139368	 0.038095
C	-2.0868776423	 0.0158088434	-1.440714156	-0.411818
C	-1.5186064829	-2.0202854425	-0.1206383076	-0.010368
C	-1.7614544258	-2.8125766116	 1.1512983605	-0.338237
C	-2.8237239121	-2.7362706302	 0.0851731298	 0.076507
O	-3.9557064466	-1.9386564298	 0.2974892253	-0.417347
H	 1.0929869193	 1.8935844425	 0.2365796761	 0.105782
H	-0.2425166197	 1.9810640154	-0.9112691216	 0.114229
H	-0.5697615919	 1.9885362503	 0.8274186691	 0.109027
H	 0.5909247298	-0.3515448182	-0.7818280498	 0.063603
H	 0.0688037969	-0.1850916116	 2.2373966152	 0.10524
H	 0.6999175837	-1.5937432323	 1.3758005213	 0.119029
H	 1.6560974153	-0.1091963434	 1.4651758438	 0.103225
H	-2.0642544414	-0.1279958163	 0.7004165624	 0.072195
H	-3.0947575048	-0.3899543062	-1.5524715624	 0.134794
H	-2.1621823474	 1.1058995001	-1.4609193661	 0.108644
H	-1.4947735236	-0.2938610527	-2.3110674481	 0.101298
H	-0.8557040353	-2.4895683043	-0.8458805854	 0.080463
H	-1.2340603226	-3.7478600417	 1.3080246275	 0.106535
H	-1.9456945693	-2.2391834269	 2.0542012763	 0.112993
H	-3.0085631553	-3.6293016538	-0.5121182568	 0.081721
H	-4.5088472251	-2.3755912337	 0.9529645761	 0.287729
