16
gdb 49483	3.34555	1.12772	1.00858	2.9599	71.36	-0.2563	-0.0531	0.2031	1178.8969	0.122739	-437.842162	-437.83394	-437.832996	-437.875835	29.334	
O	-0.4946380223	 0.4929309575	 0.6896694648	-0.264715
C	 0.0533515372	 1.1630710542	-0.1536199067	 0.145862
C	 1.3001541841	 1.9637731253	 0.0137666164	-0.094911
C	 1.5831038912	 2.8602955558	 1.1765290345	-0.066155
C	 1.0519207876	 2.3204508589	 2.5100672706	-0.105453
C	 1.9177249631	 1.0610084325	 2.1916991859	-0.188618
N	 2.4475631016	 1.6639277683	 0.9131720572	-0.142537
C	 1.5660711844	 3.0896322788	 3.7003278731	 0.161711
O	 0.8868720158	 3.4635502215	 4.6199534163	-0.251142
H	-0.3710338903	 1.2397080491	-1.1792192637	 0.094448
H	 1.6717950332	 2.3543511726	-0.9307172435	 0.115412
H	 1.9280513571	 3.8754544788	 1.0008643815	 0.115312
H	-0.0249743071	 2.1774195461	 2.5943810705	 0.12121
H	 2.7595428971	 0.9280825402	 2.8749799733	 0.12469
H	 1.3746569352	 0.126188166	 2.0736260622	 0.153042
H	 2.6644906621	 3.2860712544	 3.6764552876	 0.081844
