14
gdb 42515	3.17245	1.24352	1.05424	4.3458	69.42	-0.2763	-0.0588	0.2175	1123.7568	0.099146	-436.668976	-436.661001	-436.660057	-436.702093	28.855	
O	 0.0441711684	-0.0253945331	 0.4014168426	-0.266277
C	-0.01563092	 1.1505686106	 0.2458800837	 0.281048
C	-1.1626909836	 2.2181004626	 0.1102730405	-0.132597
O	-0.1489362951	 3.2390220568	-0.0114925354	-0.310206
C	 0.9282582427	 2.2973183943	 0.1095648448	 0.329868
C	 2.2116737553	 2.5817922641	 0.8339274248	-0.326388
C	 2.213070993	 2.3931881406	-0.6622332347	-0.316244
C	-2.022944865	 2.1062379572	-1.0587700962	 0.292085
N	-2.6989197712	 1.9959030471	-1.9896072745	-0.308201
H	-1.7612759255	 2.3361513509	 1.020795669	 0.159783
H	 2.3204063845	 3.5912045023	 1.2150888866	 0.14902
H	 2.6114458841	 1.796597458	 1.4664233692	 0.147123
H	 2.612149552	 1.4752481355	-1.0796674825	 0.149257
H	 2.3192894804	 3.2758645131	-1.2829951579	 0.151729
