14
gdb 130366	7.20609	0.82395	0.7394	12.1964	81.2	-0.1714	-0.0583	0.1131	1425.0939	0.102282	-466.176292	-466.167702	-466.166758	-466.210226	30.123	
N	 0.0022506717	 1.3567013317	-0.0082638807	-0.515864
C	 0.0303473169	 0.0163548312	-0.0281110793	 0.195165
N	 1.1116274969	-0.7075358437	 0.031048022	-0.323921
H	 2.0291501337	-0.2802447668	 0.0982574731	 0.28293
C	 1.1437124485	-2.1159462166	 0.0101047004	 0.395816
N	 2.3171603171	-2.7693537437	 0.0764467844	-0.476436
C	 1.829632439	-4.0247940497	 0.0242303378	 0.387133
O	 2.6205407811	-5.1193789905	 0.0584928124	-0.426028
N	 0.4992714014	-4.1334629293	-0.0648477842	-0.297185
N	 0.0437310368	-2.8416072713	-0.0741341108	-0.316213
H	 0.8363265126	 1.9165372575	 0.0562186858	 0.286294
H	-0.8784109843	 1.8366996977	-0.0575138155	 0.300478
H	-0.9029549225	-0.5326917836	-0.0983692704	 0.212883
H	 3.5253387211	-4.794823443	 0.123078035	 0.294949
