17
gdb 55875	3.36295	0.89315	0.75646	3.3175	75.31	-0.2513	-0.0163	0.2349	1482.9725	0.131464	-421.788642	-421.77887	-421.777926	-421.824952	34.283	
C	-0.0506025069	 1.4398038468	 0.3246427354	-0.477087
C	 0.1151513307	-0.0408831304	 0.047772386	 0.391237
O	 1.1905852334	-0.59112523	 0.0882734191	-0.291347
C	-1.163088241	-0.801091064	-0.3124418727	-0.359782
C	-1.0283094624	-2.289904068	-0.1234915707	 0.091932
O	-1.4199726838	-2.8149749817	 1.1434424206	-0.243014
C	-2.2046626415	-3.1788689954	-0.0054171402	-0.166666
C	-3.5549086085	-2.6859395601	-0.0763122459	 0.339612
C	-4.6914516713	-2.302508835	-0.1580420547	-0.43428
H	 0.9262983643	 1.9166729344	 0.4108962608	 0.145319
H	-0.6386288341	 1.921538045	-0.4642843393	 0.136537
H	-0.6056038502	 1.5752208587	 1.2606360402	 0.149937
H	-2.0157041043	-0.420473855	 0.2570153492	 0.135868
H	-1.3763934252	-0.5774894241	-1.3685172781	 0.138491
H	-0.1106749899	-2.7208513147	-0.5202013474	 0.118991
H	-2.0822226276	-4.2179346869	-0.3105235437	 0.119532
H	-5.6965194217	-1.9647160095	-0.2214982985	 0.20472
