16
gdb 123834	3.64967	1.58762	1.13649	4.4403	78.11	-0.2171	-0.0326	0.1845	1020.0859	0.128582	-396.951131	-396.944508	-396.943564	-396.982078	26.351	
C	-0.0148601303	 1.487410866	 0.088775764	-0.270204
C	 1.3839210473	 2.1388684067	-0.0514102043	-0.330607
C	 2.1872796616	 1.3849806265	-1.0635305123	 0.256742
C	 1.956957491	 0.0454097077	-1.303755553	 0.332457
N	 2.9117153392	-0.2828624138	-2.2050987131	-0.303861
N	 3.6844725388	 0.7845132883	-2.5131281638	-0.129588
N	 3.2427866065	 1.7949735677	-1.8085424351	-0.275177
C	 0.9087204979	-0.7174757699	-0.66218328	-0.172693
C	-0.0098941745	-0.0277956855	 0.0321398188	-0.067932
H	-0.4884876163	 1.8258320076	 1.0154190853	 0.112145
H	-0.6641904612	 1.8454557411	-0.7256490597	 0.124976
H	 1.2866903807	 3.1932195064	-0.3233247868	 0.126577
H	 1.9030586619	 2.1125221357	 0.9172965829	 0.119385
H	 3.088090221	-1.1617888512	-2.6647502097	 0.276609
H	 0.8773747103	-1.7988457922	-0.7414666352	 0.097863
H	-0.823729704	-0.551728021	 0.5238804519	 0.103307
