16
gdb 67097	2.74623	2.15716	1.81295	1.4442	72.39	-0.2174	-0.0007	0.2167	821.2167	0.125346	-400.611117	-400.604773	-400.603829	-400.64126	27.208	
O	 0.2114464903	 1.3598653274	-0.0731023851	-0.470526
C	 0.1582177671	-0.0052456209	-0.0619094095	 0.473186
C	 0.4170903255	-0.9847005673	 1.117090979	-0.175677
N	-1.0478301406	-0.8662536052	 1.570147228	-0.441571
C	-1.1050446946	-0.9395386804	 0.0694015456	 0.23573
C	-1.8496161279	-0.878472902	-1.2431910492	-0.251386
C	-0.8232567232	-0.8693274963	-2.1127472664	-0.073187
C	 0.4769440341	-0.9208311721	-1.2698792669	-0.213162
C	 0.1076916566	-1.8957417216	-0.1008627688	-0.043611
H	-0.1880153751	 1.6731847795	 0.7488714181	 0.297854
H	 1.2288942535	-1.0305618376	 1.842807647	 0.082014
H	-1.3575122585	-1.7496082099	 1.98592831	 0.210625
H	-2.9120212445	-0.8363577298	-1.4290789214	 0.113599
H	-0.8680819068	-0.8368265263	-3.1921405375	 0.105725
H	 1.4374912764	-0.930022889	-1.7849375873	 0.068468
H	 0.0455450576	-2.9835940286	-0.1195440656	 0.081923
