20
gdb 109445	2.34875	1.36191	0.95766	2.4074	79.79	-0.2376	-0.0242	0.2134	1272.6187	0.169605	-403.132108	-403.122935	-403.121991	-403.166496	34.2	
C	 0.0422888386	 1.6339943598	-0.13381566	-0.387951
C	-0.2221590556	 0.1300266025	-0.2677973267	-0.197371
C	 0.7426582853	-0.5491289349	-1.2391075525	-0.18084
C	 2.2124575332	-0.7248932937	-0.7952381078	 0.399143
O	 2.9953746066	-0.0015838988	-0.2484266058	-0.299425
C	 2.2380515262	-2.204150454	-1.2156438885	-0.416274
C	 0.7218666602	-2.0834208954	-1.4396029423	 0.326901
C	-0.3382335656	-3.0220435687	-1.0164977355	-0.30032
N	-0.0087397794	-2.838613918	-2.4478092385	-0.364721
H	 1.0678972483	 1.8156451629	 0.1975327781	 0.150789
H	-0.0960407375	 2.1451033387	-1.0931030069	 0.112639
H	-0.6413695272	 2.0889838336	 0.5890785528	 0.112522
H	-0.139240654	-0.3516509679	 0.7139657479	 0.104317
H	-1.2520555116	-0.0408367131	-0.6086914388	 0.0956
H	 0.7226860779	-0.0345956208	-2.2119168539	 0.101378
H	 2.8017489929	-2.3713205569	-2.1399228063	 0.140683
H	 2.5900177405	-2.9072821646	-0.4558812524	 0.133378
H	-0.0726538307	-3.9941901002	-0.6093146695	 0.122142
H	-1.271814021	-2.6125831866	-0.6389855654	 0.116119
H	-0.7108211271	-2.2494262941	-2.890839228	 0.231295
