21
gdb 50517	2.51676	1.30936	1.03383	2.941	83.06	-0.2422	-0.0193	0.2229	1235.2454	0.182159	-387.078813	-387.069989	-387.069045	-387.113101	33.103	
O	-0.2439493811	 0.0632230637	-0.3633589516	-0.263735
C	-0.1364935071	 1.2473010728	-0.1642321467	 0.17176
C	 1.1560223031	 2.0123900126	-0.184006358	-0.170255
C	 1.0178836484	 3.4429580105	-0.79334084	-0.240226
C	 0.9471724077	 4.036205678	 0.6367867631	-0.283675
C	 1.4718021311	 2.6868593871	 1.1971606931	 0.37091
C	 1.0014940976	 2.1718983583	 2.5812215836	-0.29249
C	 2.3563416047	 2.6409761769	 3.1765422273	-0.21289
C	 2.9289989331	 2.6775343023	 1.7338286438	-0.276432
H	-1.0358004912	 1.8668100037	 0.0711239785	 0.065139
H	 1.9413774264	 1.3656765477	-0.5823390691	 0.082903
H	 1.921930695	 3.7333781956	-1.3323109293	 0.114989
H	 0.1576846091	 3.6154343211	-1.4457667333	 0.105779
H	 1.5482249318	 4.9262878375	 0.8421798942	 0.101379
H	-0.0823684242	 4.2377647296	 0.9497897898	 0.103561
H	 0.0838867828	 2.6062495112	 2.9881322703	 0.097468
H	 0.9066318331	 1.0813833618	 2.5961295451	 0.114375
H	 2.2866974348	 3.6399468176	 3.6152269915	 0.105716
H	 2.8474335181	 1.9809949815	 3.8945723941	 0.10194
H	 3.4425210086	 1.74477474	 1.4802057508	 0.106203
H	 3.5714422081	 3.5173922507	 1.4536818029	 0.097583
