19
gdb 113016	5.32951	0.84237	0.76617	3.5653	80.84	-0.2439	-0.0228	0.2211	1497.7028	0.160088	-419.253152	-419.244171	-419.243227	-419.2878	32.05	
C	 0.0252041811	 1.5863290446	 0.054949645	-0.383342
C	 0.0237242455	 0.0568779027	 0.0260309855	-0.177207
C	 0.647721002	-0.5229539351	-1.2481591701	 0.045509
C	 0.7084952759	-2.0845342558	-1.2538555498	-0.231018
N	 0.0395003656	-2.4039241911	-2.5212713866	-0.080557
C	-0.1593568733	-3.6500580609	-3.0589236416	 0.151379
O	-0.7361606373	-3.8644938134	-4.1008576381	-0.312287
C	-0.4127476089	-1.2050834751	-3.0804743177	 0.085533
N	-0.1257960367	-0.140923922	-2.4489547653	-0.263292
H	 1.0471681039	 1.9799652914	 0.0195566365	 0.112942
H	-0.5173866067	 1.9881525461	-0.8040290194	 0.145404
H	-0.4448599622	 1.9610487311	 0.9689613931	 0.111721
H	 0.5754968747	-0.3374639169	 0.889409233	 0.096441
H	-1.0033529685	-0.3209150435	 0.1112302892	 0.10255
H	 1.6559556855	-0.1041521058	-1.3615781009	 0.093746
H	 1.7310269368	-2.4705312423	-1.239710083	 0.127964
H	 0.1621793581	-2.5154327842	-0.4073458548	 0.123033
H	 0.2751006946	-4.4475367484	-2.4264042754	 0.084946
H	-0.9724735201	-1.2571246914	-4.0060846997	 0.166536
