18
gdb 89331	1.95449	1.78421	1.10987	4.3004	78.09	-0.2685	0.	0.2685	1144.6679	0.145858	-401.940112	-401.931164	-401.93022	-401.973494	33.345	
C	-0.0569940289	 1.5734082403	 0.0952262803	-0.412784
C	 0.0169165265	 0.0604593675	-0.0352289852	-0.058309
C	 1.1046498538	-0.5669086187	-0.9835472416	-0.305758
C	 1.6929571504	-1.3170463147	 0.2233579537	 0.322167
C	 2.400461558	-2.630166444	 0.2642286598	-0.495898
O	 2.060581292	-0.3139811041	 1.1793324702	-0.304979
C	 0.6807041193	-0.7092598606	 1.1281390907	 0.248237
C	 0.0744175841	-1.2065095674	 2.3231721798	 0.203607
N	-0.4588583493	-1.610441231	 3.2671647513	-0.343341
H	 0.9200412125	 1.9810981585	 0.3682764641	 0.137611
H	-0.3664482412	 2.027385898	-0.851599412	 0.12189
H	-0.7809388641	 1.8692109353	 0.8614282478	 0.12964
H	-0.9655322507	-0.3680828681	-0.2523343133	 0.09658
H	 0.6764775794	-1.2266334631	-1.7412022815	 0.115855
H	 1.796263055	 0.1354632977	-1.4547026232	 0.117957
H	 3.3958380412	-2.5390541269	-0.184310969	 0.140998
H	 2.5172912157	-2.9696551934	 1.2962491513	 0.151252
H	 1.8439955063	-3.3858035153	-0.2981794532	 0.135274
