16
gdb 53914	2.03071	1.49541	1.03176	5.309	70.36	-0.262	-0.0043	0.2577	1171.3211	0.123713	-434.072213	-434.063149	-434.062204	-434.106842	32.295	
N	 0.7337849524	-0.0393972851	-0.5828504816	-0.506762
C	-0.2567735443	 0.2271906397	 0.2966941397	 0.391063
O	-0.2488095684	 1.1012112425	 1.1339605506	-0.348715
C	-1.4913435041	-0.710709046	 0.1325773883	-0.22761
C	-2.4585753488	-0.0796034042	-0.7750018922	 0.312163
N	-3.2245380387	 0.405116001	-1.4908924094	-0.315956
N	-1.1024073127	-2.0167917746	-0.3983702586	-0.082909
C	-0.8128249546	-3.0461097965	 0.6045357186	-0.22873
C	-2.0579768444	-3.1082914958	-0.206595253	-0.212475
H	 1.5702084858	 0.5196845237	-0.5627279733	 0.270432
H	 0.6504495277	-0.8252238353	-1.2075171779	 0.278326
H	-1.9524191961	-0.762942747	 1.1309761494	 0.133604
H	 0.0277387563	-3.6932480826	 0.3757712946	 0.132204
H	-0.9078634814	-2.7718686236	 1.6529037742	 0.133835
H	-2.9957500547	-2.8768975364	 0.2930098439	 0.134752
H	-2.1419608139	-3.7999301298	-1.0383387833	 0.136778
