22
gdb 106314	2.30783	1.32999	1.05448	2.7863	82.96	-0.2427	0.0834	0.3261	1268.1424	0.193498	-404.303993	-404.294517	-404.293572	-404.337905	36.177	
C	-0.0389483805	 1.5474882021	 0.4705500307	-0.40905
C	 0.0122246859	 0.0577124837	 0.1524271312	 0.014688
C	 0.9112077074	-0.314304085	-1.0745663177	-0.332034
C	 1.855081636	-1.0737166534	-0.1250068128	 0.309196
C	 3.3549337958	-1.1905992782	-0.2294713006	-0.153993
O	 3.8999920124	-1.7973141067	 0.9197472767	-0.422104
C	 0.9819102343	-0.7315481895	 1.0597649874	-0.096546
N	 1.1745206558	-2.1070125608	 0.6354361844	-0.143308
C	 0.1077824705	-2.9455877454	 0.1077578261	-0.325026
H	 0.9689741117	 1.9737730874	 0.5295206415	 0.119081
H	-0.5921436909	 2.0970326583	-0.298257524	 0.117257
H	-0.5317964979	 1.7275112728	 1.4323188294	 0.117477
H	-1.005803983	-0.3456029592	 0.1169400105	 0.071349
H	 0.4578211078	-0.8964735183	-1.8825146004	 0.097661
H	 1.3863838248	 0.5691932582	-1.5093730985	 0.10796
H	 3.608877359	-1.7551223052	-1.1457632192	 0.081642
H	 3.8028376686	-0.1943943673	-0.3352310549	 0.101603
H	 3.2112801966	-2.4094625707	 1.2219227796	 0.284343
H	 1.2563372354	-0.4626863128	 2.0755952851	 0.095312
H	-0.5990931774	-2.4339647727	-0.5584438337	 0.111881
H	 0.5546081967	-3.7767802737	-0.4462542249	 0.125909
H	-0.4575963789	-3.3633094336	 0.946502044	 0.126703
