16
gdb 81312	2.40242	1.74909	1.6467	2.7244	65.26	-0.2607	-0.0008	0.26	913.1657	0.12599	-475.005244	-474.998036	-474.997092	-475.036839	28.189	
O	 0.089720479	 1.4370901642	 0.1873203103	-0.428103
C	 0.0026461226	 0.061154267	 0.0019381355	 0.124177
C	-1.3601167121	-0.6667830154	-0.1455894397	 0.015423
C	-2.3098926893	 0.1381342364	-1.0110738669	-0.09797
O	-1.6155018932	 0.7085975967	-2.147699139	-0.285874
C	-0.3640820014	 0.2316952821	-2.4574766986	 0.42466
N	 0.2396337874	 0.5383098613	-3.5221855847	-0.520729
C	 0.2507651212	-0.6171651458	-1.3775224045	-0.057672
O	-0.7110019305	-1.6439635304	-1.0017325508	-0.288424
H	-0.3557554936	 1.8830259961	-0.5429797038	 0.301107
H	 0.6119387857	-0.4141550352	 0.7712195697	 0.119973
H	-1.8561630127	-1.1097612665	 0.7217622969	 0.095425
H	-3.1131338395	-0.5016134737	-1.3911708996	 0.134382
H	-2.7498756101	 0.973803251	-0.4569588578	 0.126103
H	-0.3458944704	 1.1368739617	-4.1098799341	 0.225326
H	 1.226029277	-1.0052145594	-1.665913303	 0.112197
