19
gdb 61415	3.22883	0.86267	0.79299	0.6067	72.13	-0.2413	0.0303	0.2716	1481.725	0.157042	-456.423133	-456.411938	-456.410993	-456.461654	38.193	
C	 0.2845265012	 1.696066975	-0.0137325561	-0.397613
C	 0.0848030093	 0.1688271711	 0.0316217809	-0.074863
C	 0.6022717892	-0.5143295177	-1.2389973212	-0.311827
C	-0.2391269902	-0.176926606	-2.467301762	 0.403202
N	 0.3983241311	-0.3579698858	-3.6597277391	-0.522627
O	-1.3946651277	 0.2019663859	-2.4006336002	-0.366818
C	 0.8180700572	-0.3950335454	 1.2497608445	 0.400497
N	 0.0601825446	-0.5022997669	 2.3793790411	-0.527082
O	 1.9980847397	-0.6953631365	 1.2275781507	-0.376644
H	 1.3484322098	 1.9403034388	-0.0967070297	 0.128216
H	-0.2477477296	 2.1177910147	-0.8692311214	 0.141195
H	-0.0996876156	 2.1706651452	 0.8942652031	 0.113011
H	-0.988441009	-0.0342878599	 0.108507898	 0.09523
H	 1.6556015355	-0.2632642911	-1.3971352881	 0.124978
H	 0.5706783929	-1.6043387635	-1.1143521396	 0.132045
H	 1.3401576732	-0.7024967517	-3.7184456954	 0.260572
H	-0.1269802375	-0.2271965309	-4.508506569	 0.25962
H	-0.9200419952	-0.2841306771	 2.3931732055	 0.260314
H	 0.500206611	-0.8283387683	 3.224244558	 0.258593
