18
gdb 6812	3.02447	1.71765	1.4367	1.9818	73.68	-0.25	0.0205	0.2705	959.1716	0.151203	-347.754696	-347.745961	-347.745017	-347.78792	32.347	
C	-0.1956827787	 1.5478522335	-0.023234222	-0.442469
C	-0.0458489464	 0.029348618	-0.026936638	 0.258234
C	-1.3546706876	-0.6701928731	-0.3745544478	-0.45602
C	 1.2158211818	-0.4587206908	-0.7823559981	-0.101219
O	 1.8974883874	-0.782136128	 0.4470824829	-0.285301
C	 0.6999847595	-0.553907221	 1.2274870858	-0.079659
C	 0.9091148159	 0.2860603358	 2.3926811611	 0.332116
C	 1.064767806	 0.9764839843	 3.364713102	-0.445608
H	 0.746039147	 2.0407563937	 0.233015815	 0.132041
H	-0.5085575594	 1.898610747	-1.0130496372	 0.111514
H	-0.9483495234	 1.8689376202	 0.7037957817	 0.1221
H	-1.7095486061	-0.3626246225	-1.3645275558	 0.119258
H	-1.2388470575	-1.758845338	-0.3829543942	 0.118045
H	-2.137714214	-0.4190581334	 0.3496062382	 0.123066
H	 1.0607993569	-1.3478323257	-1.4084315481	 0.09445
H	 1.7579958948	 0.2978998129	-1.3612998751	 0.104429
H	 0.2643780883	-1.5118616292	 1.5483163991	 0.094387
H	 1.2103564754	 1.5840350863	 4.2236973606	 0.200635
