17
gdb 19929	3.7825	2.29398	1.87579	1.3654	65.9	-0.2301	0.0609	0.291	757.0972	0.145142	-363.816218	-363.81009	-363.809146	-363.846525	24.448	
C	-0.0040356632	 1.4889971297	 0.216542733	-0.241687
C	 1.2534274518	 0.7218605872	 0.0348697407	-0.041355
C	 1.9959351439	 0.3344710972	 1.3018977869	 0.106994
O	 1.9272304808	 1.2893909763	 2.3933646746	-0.290081
C	 1.1365775108	 0.3875961098	 3.1959469524	-0.087695
C	 1.0754216999	-0.6570584822	 2.0625401969	-0.077174
C	-0.2055678028	-0.7821863218	 1.2101110403	-0.187626
N	-0.0652015304	 0.0441589628	-0.0108702164	-0.095399
H	-0.1978837678	 1.8840838651	 1.2102319603	 0.12503
H	-0.3934172039	 2.0938754367	-0.5976291078	 0.115031
H	 1.8066050127	 0.768427927	-0.8984037365	 0.08941
H	 3.0311754373	 0.039186585	 1.1047289941	 0.077777
H	 1.6822620227	 0.0652044044	 4.0911754071	 0.103446
H	 0.1797832804	 0.8302760495	 3.5023076323	 0.099351
H	 1.4983500815	-1.6298351048	 2.3157885873	 0.085075
H	-0.345567529	-1.8179907669	 0.8859321566	 0.111296
H	-1.1058055649	-0.4890026148	 1.7619863381	 0.107606
