17
gdb 72304	2.29243	1.97675	1.54282	2.9186	74.05	-0.2249	-0.0485	0.1763	935.8546	0.1346	-417.866302	-417.858408	-417.857464	-417.898055	31.186	
C	-0.1806602833	 1.5940247385	-0.0722218733	-0.520944
C	-0.0866481606	 0.104904	 0.0460955082	 0.195739
C	-0.0713043891	-1.0234948489	-0.9181697558	-0.142945
N	 1.4090986996	-1.4524166895	-0.6715563896	-0.347433
C	 1.037743059	-0.8377009336	 0.6145440511	 0.091115
N	 0.7622676659	-1.6275852825	 1.5762214429	-0.161954
C	-0.7063049101	-1.5197460772	 1.728806908	-0.241023
C	-1.0955719702	-0.9348712108	 0.3491884007	 0.332276
O	-2.4171625957	-0.6933953903	 0.0250461063	-0.465829
H	 0.6661826568	 2.0080120619	-0.6301681841	 0.122157
H	-1.1014417357	 1.8705686539	-0.5948839139	 0.141232
H	-0.1975584984	 2.0704409545	 0.9135746269	 0.133279
H	-0.4735532648	-1.0936764673	-1.9250872628	 0.111622
H	 1.9240192287	-0.7789434813	-1.2510260492	 0.223428
H	-1.0761710461	-2.5345081797	 1.916967363	 0.118616
H	-1.0768451863	-0.871267584	 2.5366320536	 0.115649
H	-2.8700016397	-1.5391721737	-0.0689167421	 0.295015
