17
gdb 15689	3.27388	1.83591	1.31237	4.771	64.65	-0.2439	0.0581	0.302	954.0514	0.143578	-401.054724	-401.046773	-401.045829	-401.087958	27.956	
C	-0.0298178872	 1.5057634531	 0.1288076177	-0.385805
C	-0.0577695128	-0.0164978545	-0.0442636249	-0.151499
N	-1.3877792704	-0.5952223109	 0.0133939477	-0.130143
C	-2.2159079856	-0.6178407807	 1.2005141736	-0.193441
C	-3.4652113028	-1.3325714964	 0.6522773576	-0.089112
O	-3.404189304	-1.1500018989	-0.7664268144	-0.244942
C	-2.1341267577	-0.78351861	-1.1254060228	 0.490135
O	-1.7785378547	-0.663201086	-2.2673114562	-0.407169
H	 0.9994123656	 1.8713123838	 0.0613535717	 0.123239
H	-0.6171780545	 1.9916237459	-0.6555759444	 0.14017
H	-0.4276838971	 1.8137137984	 1.101123792	 0.116594
H	 0.3465530984	-0.288438698	-1.0222711948	 0.14682
H	 0.5630410104	-0.4987224462	 0.720594518	 0.104149
H	-1.7452307458	-1.1742276995	 2.0181399573	 0.118165
H	-2.4467730318	 0.3933030557	 1.5655589704	 0.113165
H	-3.4441742308	-2.4057974978	 0.8726704803	 0.121983
H	-4.4024499193	-0.9108562278	 1.0196477613	 0.12769
