19
gdb 61526	2.54714	1.10013	0.93901	4.1306	75.27	-0.2615	0.0204	0.2819	1325.2592	0.158023	-419.192975	-419.18318	-419.182236	-419.227965	35.643	
C	 0.3329382871	 0.0824113174	-1.8332809338	-0.454187
C	-0.1171028723	 0.3120873024	-0.4062877305	 0.398468
C	-1.5621316514	-0.0872076286	-0.1380450326	-0.279894
C	-2.1067027149	 0.1984925849	 1.2850733872	-0.13114
N	-3.5664354966	 0.2815817962	 1.3931649965	-0.506942
C	-1.6369190119	-0.8186499984	 2.241171548	 0.30335
N	-1.2609495857	-1.638000668	 2.9642436364	-0.332522
C	 0.8956481469	 0.3935286594	 0.6572717609	-0.228128
O	 0.2685571197	 1.5801249095	 0.148391268	-0.270163
H	 1.3494897366	 0.4550811318	-1.9782709951	 0.132817
H	 0.3129375167	-0.9842884628	-2.0806545647	 0.126845
H	-0.325921062	 0.6038690064	-2.5362321278	 0.125285
H	-2.19156795	 0.4852867429	-0.8317673329	 0.106313
H	-1.7044397429	-1.1453007659	-0.3870858679	 0.119712
H	-1.697736174	 1.1639673517	 1.6046143984	 0.153663
H	-3.8986282804	 1.0525656914	 0.8218426204	 0.239398
H	-3.9934035221	-0.5650026354	 1.0273865139	 0.23894
H	 0.6557591506	 0.1376862467	 1.6857300314	 0.141484
H	 1.9454778763	 0.2765244483	 0.3915102141	 0.116699
