17
gdb 108799	3.26231	1.13594	0.8837	1.1444	70.68	-0.2567	-0.0198	0.2369	1280.8175	0.135823	-455.199718	-455.190815	-455.189871	-455.233603	32.218	
C	-0.0227970193	 1.5235541076	-0.0923328932	-0.385877
C	 0.0570761534	-0.0041078498	-0.0949752539	-0.107673
N	 0.8605178644	-0.5341798025	-1.2039804834	-0.317851
C	 1.7824757426	-1.2539278154	-0.6867972637	 0.355363
C	 2.8072833412	-1.9641697585	-1.524382331	-0.13061
O	 2.61136596	-1.7074503259	-2.8852170072	-0.415023
N	 1.7630621916	-1.3331110482	 0.6996545408	-0.388198
C	 0.7111088004	-0.555757223	 1.1857355127	 0.416184
O	 0.4234514426	-0.3770785447	 2.3412660005	-0.35987
H	 0.9782848251	 1.9630835632	-0.060629093	 0.12718
H	-0.5248400234	 1.876054508	-0.9960607913	 0.133067
H	-0.5793336512	 1.8606007095	 0.7858658937	 0.142386
H	-0.9577343941	-0.4173671726	-0.1620529208	 0.128655
H	 3.8122519097	-1.6411732537	-1.2049968026	 0.115335
H	 2.7466661037	-3.045252571	-1.3143244242	 0.116561
H	 1.8329850209	-1.1303047766	-2.9359992397	 0.299909
H	 2.4207442024	-1.8202696263	 1.2874415362	 0.270462
