15
gdb 27560	4.3965	1.11458	0.95505	1.5637	68.45	-0.2191	0.0236	0.2427	1189.4895	0.113519	-453.941398	-453.933898	-453.932954	-453.973877	28.214	
O	 0.0652901968	 1.2947247966	 0.1700550818	-0.402588
C	-0.0196368312	-0.0313337707	 0.0900529068	 0.483541
N	-1.060446074	-0.7511938076	 0.3264625454	-0.394496
C	-0.6061724005	-2.0588753961	 0.0959485219	 0.318735
C	 0.6942369892	-2.0307725952	-0.2670077893	-0.144647
O	 1.0928804412	-0.6984190342	-0.2753029502	-0.202759
N	-1.4038638617	-3.2032763463	 0.2302880697	-0.200374
C	-2.4253633213	-3.1731037363	 1.2932990874	-0.223477
C	-2.8269020486	-3.0603756915	-0.1285020126	-0.22345
H	 0.9643166759	 1.5579391438	-0.062536512	 0.318079
H	 1.4324645732	-2.7643375179	-0.5319791204	 0.150476
H	-2.5456879848	-4.1104931594	 1.8277860549	 0.119068
H	-2.4850178547	-2.2712345553	 1.894759455	 0.141381
H	-3.1534594916	-2.0836193231	-0.4719759019	 0.14145
H	-3.2461987778	-3.9138883968	-0.6524926864	 0.11906
