21
gdb 86452	1.75908	1.59835	0.8931	1.6643	79.24	-0.2377	-0.0142	0.2235	1321.5294	0.182567	-424.269798	-424.260661	-424.259717	-424.303515	35.055	
C	-0.00234819	 1.5513668415	 0.0090215283	-0.400243
C	 0.0192114717	 0.0200215749	-0.018023585	 0.005224
C	 0.6710272368	-0.5175424238	-1.301101989	-0.181713
C	 0.6786428046	-2.0435838069	-1.3472950907	 0.099211
O	 1.3238247273	-2.4270867791	-2.5526767304	-0.43395
C	 1.3910872419	-2.6282144471	-0.1123125725	-0.318564
C	 0.8263802513	-2.0666787078	 1.1868097217	 0.365068
O	 0.4702255035	-2.7731726654	 2.1006889885	-0.304414
C	 0.7305060828	-0.548689435	 1.2295502935	-0.287659
H	 1.0156656211	 1.9572651381	-0.0187223407	 0.116111
H	-0.5457092753	 1.9537972895	-0.8521000408	 0.116192
H	-0.4859505973	 1.9252231491	 0.9172086259	 0.116819
H	-1.0218656722	-0.3337743597	 0.005845502	 0.084213
H	 0.1465601123	-0.1379712773	-2.1842589453	 0.106251
H	 1.7083405902	-0.1624629284	-1.3723437481	 0.101414
H	-0.3656932018	-2.399237156	-1.3480511188	 0.075106
H	 1.3085536316	-3.388035282	-2.6093663994	 0.283034
H	 1.3219918571	-3.7196084226	-0.0821732133	 0.106666
H	 2.4518398302	-2.3514366407	-0.1828983877	 0.122304
H	 1.7531952533	-0.1444828318	 1.2664536665	 0.112538
H	 0.2234878607	-0.2582972494	 2.1531853753	 0.116393
