17
gdb 31266	2.6112	1.34678	0.93099	1.1722	73.61	-0.185	0.0131	0.1982	1256.8074	0.135927	-455.151702	-455.142509	-455.141565	-455.187141	31.742	
C	-0.319277632	 1.2918491111	-0.1288178218	-0.331368
N	 0.6753547861	 0.2486249496	 0.1479664964	-0.395769
C	 0.9888045028	-0.6125300965	-0.8892479454	 0.249632
C	 0.8681619328	-1.9542675487	-1.1011215218	 0.274934
O	 0.2670034956	-2.8283915138	-0.2652305171	-0.282879
C	 0.2962258648	-4.1928387859	-0.669434974	-0.237876
N	 1.4713305531	-2.30074697	-2.2920244604	-0.340761
C	 1.9117704769	-1.1751517699	-2.7603716135	 0.060408
O	 1.6747854823	-0.1068208208	-1.9706188631	-0.164332
H	 0.0463695701	 1.9263865588	-0.9396334117	 0.144262
H	-1.3040154664	 0.8941352538	-0.4165411422	 0.113521
H	-0.434001423	 1.9149302302	 0.7616371711	 0.124951
H	 0.4423280548	-0.2870841333	 0.9741329128	 0.247698
H	-0.2084335805	-4.3335772171	-1.6310111075	 0.132428
H	 1.3242970655	-4.559365942	-0.7596511199	 0.131823
H	-0.2287963892	-4.7456717867	 0.1112002706	 0.126131
H	 2.4146132462	-0.991551709	-3.6958257226	 0.147197
