19
gdb 115491	3.75455	0.9117	0.78569	0.7065	74.84	-0.2527	0.009	0.2616	1473.6912	0.158077	-460.152712	-460.143295	-460.142351	-460.187543	33.551	
C	 0.0870373472	 1.2310119134	-0.2774796858	-0.238983
O	-0.0444628287	-0.1676348414	-0.0981628872	-0.241105
C	-1.3578144177	-0.5728399897	 0.1910760183	 0.189198
O	-2.2378101822	-0.3980939123	-0.9123308286	-0.270222
C	-2.5391794217	-1.6614911548	-1.4931216404	-0.167131
C	-2.0076164767	-2.6829496149	-0.5193228363	 0.257533
C	-2.1879426114	-4.157249171	-0.710306904	-0.166502
O	-1.4321378957	-4.9472983246	 0.1858228225	-0.404421
C	-1.3604487585	-2.0518018223	 0.4558365681	-0.236692
H	 1.147439091	 1.4349383154	-0.4417075571	 0.124229
H	-0.4886506063	 1.5809623689	-1.1427298314	 0.124937
H	-0.2483588461	 1.7831155422	 0.6141142574	 0.103745
H	-1.7493649545	 0.0480526987	 1.0141368264	 0.069682
H	-3.6267764428	-1.7315523157	-1.6343235167	 0.113274
H	-2.0729111738	-1.7650195777	-2.4859676178	 0.109896
H	-3.2373634466	-4.4311256185	-0.5396841329	 0.130791
H	-1.97453855	-4.4165742032	-1.7622491008	 0.100572
H	-0.5044063803	-4.7232932882	 0.0550604314	 0.287366
H	-0.8548664551	-2.4990241643	 1.2997640949	 0.113834
