17
gdb 47020	3.61821	1.3704	1.03655	5.2055	78.85	-0.217	-0.0214	0.1956	1109.7846	0.139121	-418.006452	-417.99921	-417.998266	-418.038122	28.574	
O	 0.0166084426	-0.0533519714	 0.0121243891	-0.3572
C	 0.0119916514	 1.1643183256	 0.0300137109	 0.409806
C	-1.3409662275	 1.9046753973	 0.1677129893	-0.283789
N	-1.2403024839	 3.2573786025	 0.7491190592	-0.325461
C	-0.3057223933	 4.0236731844	-0.0395363889	-0.06049
C	 0.519964722	 5.2115412318	 0.5601195162	-0.203717
N	 1.7302542691	 4.4861101266	 0.0844644526	-0.372219
C	 1.0228836865	 3.3144268916	-0.0760551285	 0.454846
C	 1.2173172146	 1.9856462384	-0.0462565703	-0.391018
H	-1.7954742882	 1.9114237091	-0.8415728565	 0.102864
H	-1.9742847104	 1.2814235841	 0.8024271932	 0.129734
H	-2.1590526907	 3.6900471162	 0.7560678451	 0.22373
H	-0.6617536816	 4.2799985913	-1.0523963577	 0.085033
H	 0.384489408	 6.2026149467	 0.1208317039	 0.115065
H	 0.4389435425	 5.2525784712	 1.6506577757	 0.12629
H	 2.6396776015	 4.5367658608	 0.5233186119	 0.251097
H	 2.1848381774	 1.5031102436	 0.0281596648	 0.095429
