18
gdb 90912	3.499	1.54616	1.45479	1.7879	76.95	-0.2223	-0.0011	0.2211	956.2201	0.148502	-401.822894	-401.816045	-401.815101	-401.853643	29.279	
O	 0.3689778732	 1.3151733896	-0.2698923831	-0.429666
C	 0.1450227017	-0.04174085	-0.030707167	 0.074846
C	 0.2115238765	-0.4561399393	 1.5103458879	-0.239138
N	-1.2484147993	-0.1267986389	 1.536280037	-0.098478
C	-2.5852977619	-0.8378705764	 1.6541340469	-0.08186
C	-2.8763242394	-0.1119977322	 0.2487709659	-0.281453
C	-1.3446915004	-0.5064085825	 0.1289371483	 0.185422
C	-1.4952897064	-2.0675957551	 0.1421421168	-0.137715
C	-2.318025777	-2.2677412686	 1.1703828742	-0.070794
H	-0.1994647482	 1.7943479671	 0.3467112557	 0.287128
H	 0.7718136447	-0.6039611101	-0.7264530273	 0.086715
H	 0.4663058188	-1.5163443585	 1.6314662709	 0.107029
H	 0.8232317931	 0.1692996916	 2.1650431452	 0.104171
H	-3.1947978005	-0.6588157566	 2.5397836765	 0.076145
H	-3.5989412754	-0.5963547987	-0.4100017861	 0.101437
H	-3.0497033827	 0.9614435744	 0.346262004	 0.107072
H	-1.0602659677	-2.7645538215	-0.560762986	 0.100921
H	-2.7417586989	-3.1763423743	 1.5734849401	 0.108216
