23
gdb 103599	3.03263	1.04611	0.94236	0.3898	82.02	-0.2482	0.0667	0.3149	1382.714	0.202633	-425.427418	-425.416976	-425.416032	-425.46203	40.372	
C	-0.3646488891	 1.7966665316	 0.326232924	-0.404557
C	-0.0546032843	 0.2990541949	 0.4241288659	-0.219854
C	-1.1518179289	-0.5948616476	-0.1491622272	 0.410377
O	-2.3815057998	-0.4289117115	 0.5577509815	-0.488119
C	-1.3610954241	-0.5912898848	-1.6963898037	-0.313033
C	-1.472182798	-2.1370248539	-1.6681992286	 0.4223
C	-2.8983808113	-2.6693592144	-1.7306479742	-0.456261
O	-0.6594154983	-2.7167842435	-2.6745938479	-0.478848
C	-0.8666718121	-2.1159145679	-0.2273357867	-0.310219
H	 0.4610035514	 2.3958374022	 0.7208082621	 0.119259
H	-0.5303332281	 2.1055797078	-0.7121397887	 0.120063
H	-1.2568192	 2.0589520143	 0.9056534402	 0.11088
H	 0.8817806213	 0.0822590689	-0.1034123126	 0.095011
H	 0.0995018537	 0.0209815648	 1.4742189974	 0.101691
H	-2.7204295734	 0.450222484	 0.3585541769	 0.276482
H	-2.2201016922	-0.0335470728	-2.0804516297	 0.087611
H	-0.459948423	-0.2900133089	-2.2363059089	 0.106365
H	-3.3274764128	-2.4918988912	-2.7223343267	 0.11544
H	-2.9159986624	-3.7498248949	-1.5355621451	 0.099732
H	-3.5224434288	-2.1830931329	-0.9772297886	 0.137907
H	-0.786257694	-3.6714540833	-2.6461219242	 0.271266
H	 0.2039160267	-2.3314121789	-0.2577932753	 0.096595
H	-1.3523706425	-2.7210867222	 0.5416382903	 0.099912
