18
gdb 82710	2.3243	2.08951	1.60146	4.029	74.5	-0.2311	-0.006	0.2251	918.5001	0.149321	-401.920456	-401.913295	-401.912351	-401.95183	28.565	
C	-0.1412591939	 1.5768316689	 0.1053623082	-0.421216
C	 0.0818159549	 0.0778127622	-0.0085381506	 0.026867
C	 0.7678123041	-0.5597890578	-1.2568584082	-0.082703
C	 2.1448868401	 0.0474733134	-1.6144927251	-0.198499
N	 2.77326917	-0.6536523508	-0.4279603947	-0.171562
C	 1.5333238532	-1.5045552648	-0.2781646673	 0.010399
C	 1.1000919059	-0.6564028539	 0.9543668966	-0.223771
C	 2.4376775338	 0.0557288374	 0.7873908331	 0.409293
O	 3.0135729478	 0.9520952097	 1.3296939975	-0.325038
H	 0.7969603759	 2.137126206	 0.062114552	 0.139474
H	-0.790151904	 1.9318768676	-0.7029292569	 0.117943
H	-0.6241023486	 1.8261409979	 1.0560561574	 0.126289
H	-0.8698138048	-0.4502786039	 0.1159633509	 0.092487
H	 0.1142066245	-0.8774255672	-2.069319301	 0.076598
H	 2.5562387901	-0.3541832633	-2.5445654385	 0.120473
H	 2.2698882821	 1.1340343977	-1.6063743816	 0.126442
H	 1.6264562717	-2.5862958887	-0.3280112753	 0.086707
H	 0.7397150971	-0.9922158402	 1.9256417536	 0.089816
