17
gdb 50508	4.58973	0.95918	0.88106	0.9242	68.26	-0.2472	-0.0411	0.206	1284.6157	0.134034	-458.982907	-458.974187	-458.973243	-459.017783	30.505	
O	-0.680242844	 1.1013593306	 1.2471102849	-0.23533
C	 0.2232411321	 0.7216941984	 0.5496606924	 0.137502
C	 1.220271944	 1.6464013245	-0.1487535032	 0.026795
C	 1.5603770412	 2.8999150867	 0.6649118458	-0.251839
C	 2.7981260801	 2.445627184	 1.4575902309	-0.251845
C	 3.4697590422	 1.4756337892	 0.4792846488	 0.026808
O	 2.4400251106	 0.9238950815	-0.3482602137	-0.289015
C	 4.5049466147	 2.1452806351	-0.4245286919	 0.137478
O	 5.2168618364	 3.0529672435	-0.0837171705	-0.235335
H	 0.4085755338	-0.3566700108	 0.3484948562	 0.095301
H	 0.7976049742	 1.8873255472	-1.1345471808	 0.114095
H	 1.8086761392	 3.7314546963	-0.0002116875	 0.118799
H	 0.7196966187	 3.1935548928	 1.2952156141	 0.139186
H	 3.4734757409	 3.260935923	 1.7210810155	 0.139184
H	 2.5036981707	 1.9233068295	 2.3719153429	 0.118811
H	 3.9798600456	 0.647853394	 0.9921752022	 0.114107
H	 4.5454374495	 1.7070468545	-1.4462900762	 0.0953
