17
gdb 112467	2.50358	1.47993	1.0307	3.3286	71.03	-0.2634	-0.0048	0.2586	1161.1419	0.13539	-458.997836	-458.989277	-458.988333	-459.03221	30.663	
C	-0.0718278393	 1.2958077206	-0.3209522045	-0.245505
O	-0.146007884	-0.1245939239	-0.3440420272	-0.230169
C	-1.3077781653	-0.6442754648	 0.2210245642	 0.17275
O	-2.4552641124	-0.2761823076	-0.5655728616	-0.240069
C	-2.9740205348	-1.062841727	-1.5427047005	 0.414959
O	-3.7776935022	-0.5995306669	-2.3025451331	-0.32243
C	-2.5490785118	-2.5226726486	-1.591646825	-0.408155
C	-1.7002826732	-2.9833582464	-0.4482171483	-0.057272
C	-1.1294652546	-2.1221136399	 0.3820289261	-0.092119
H	 0.9048131011	 1.5639387656	-0.7276552379	 0.13378
H	-0.8602136823	 1.7483545361	-0.9314540734	 0.140892
H	-0.1519123507	 1.6784888248	 0.7068099413	 0.111425
H	-1.508021931	-0.1582599189	 1.1879976987	 0.087737
H	-3.468072534	-3.1125489068	-1.6805238748	 0.151629
H	-2.0238128227	-2.6697436395	-2.5450754555	 0.160237
H	-1.5544024721	-4.0533613198	-0.3306366993	 0.109647
H	-0.4865002309	-2.4363756568	 1.1963803507	 0.112664
