19
gdb 85437	2.50549	1.43849	1.12059	3.0533	74.73	-0.2416	-0.0203	0.2213	1138.8617	0.158026	-423.043401	-423.034868	-423.033924	-423.076783	32.571	
C	 0.5324357225	 1.54292116	-0.2699638749	-0.39854
C	-0.0244690557	 0.161264492	 0.1008807654	-0.078051
C	 0.2093963491	-0.8769317551	-1.0152923717	-0.335018
C	 1.5800866448	-1.4957859609	-0.713068691	 0.402862
O	 2.2626929676	-2.1162770994	-1.4840388634	-0.308483
C	 1.9385768623	-1.1817591892	 0.7486332066	-0.407543
C	 0.716319829	-0.4627463332	 1.2891371558	 0.429453
C	 0.5573463992	-0.0123274088	 2.6718897389	-0.25808
O	-0.0941499456	-1.2025048795	 2.2149620241	-0.281625
H	 1.5943600955	 1.4938981805	-0.5373766199	 0.121489
H	-0.0022731007	 1.9544808004	-1.1315736889	 0.123904
H	 0.4306414539	 2.2487261026	 0.5599477581	 0.119959
H	-1.083714304	 0.250437875	 0.3565068803	 0.090958
H	-0.5274418113	-1.6880245548	-0.9499929808	 0.141335
H	 0.171467456	-0.4810754395	-2.0328303395	 0.124921
H	 2.1682816663	-2.0933196431	 1.3054394945	 0.146859
H	 2.8355922815	-0.5515343023	 0.759288653	 0.138192
H	 1.3632047141	-0.1654377628	 3.3890482516	 0.114996
H	-0.1038543243	 0.8246371778	 2.8962773418	 0.112411
