16
gdb 14623	4.69805	1.07946	0.91297	4.9344	64.16	-0.2397	0.0021	0.2418	1205.0165	0.130902	-417.084928	-417.076533	-417.075589	-417.119114	28.887	
N	-0.8538680071	 0.1224180057	-1.0263892168	-0.474302
C	-0.3596491976	-0.0279651467	 0.1327915758	 0.14586
O	-0.4292215275	-1.1473140569	 0.8520845372	-0.201565
C	-0.9623875031	-2.3494376736	 0.2492007989	-0.087824
C	-2.4877718181	-2.4215659142	 0.2334071111	-0.150058
N	-3.0754474217	-1.7937062531	-0.9341748432	-0.27809
C	-4.1472403111	-2.3262343721	-1.5680375389	 0.150709
O	-4.7533984997	-3.3186737097	-1.2129833494	-0.335925
H	-0.6603030327	 1.0553279389	-1.3808571206	 0.239261
H	 0.1881080459	 0.7286310183	 0.701764014	 0.122967
H	-0.5557775672	-2.4568463072	-0.7607235188	 0.136044
H	-0.5678973625	-3.1419860993	 0.8879439596	 0.129075
H	-2.7981769206	-3.4708481653	 0.2223970131	 0.14611
H	-2.8692254417	-1.9862921904	 1.1675943662	 0.119561
H	-2.5800072421	-0.9973071214	-1.3201462762	 0.2679
H	-4.420423013	-1.744743543	-2.4709831622	 0.070278
