21
gdb 40362	3.60165	1.22659	1.15952	1.729	81.82	-0.2611	0.0866	0.3477	1154.5005	0.18496	-387.060153	-387.052568	-387.051624	-387.092438	30.679	
C	 0.1800717386	 1.4678626532	-0.0370285839	-0.185107
O	 1.2022376897	 0.4833659904	-0.1917553096	-0.238011
C	-0.1441114068	 0.0345959165	 0.0201775535	-0.057132
C	-0.4321809599	-0.7074747598	 1.2852844721	 0.37945
C	-1.8985169613	-1.0151002403	 1.7304094533	-0.2678
C	-1.2028144035	-2.1288456832	 2.5646190778	-0.019258
C	-0.2087755845	-2.253085258	 1.3770962558	-0.259965
C	-0.3817952258	-1.307834295	 3.5776455945	-0.217307
C	 0.201142782	-0.2259511274	 2.6094491306	-0.266185
H	 0.2305507175	 2.052524964	 0.8793319223	 0.112084
H	-0.0631927163	 2.0354192697	-0.9346989568	 0.111935
H	-0.5977535403	-0.4015559891	-0.8728000398	 0.081874
H	-2.447229205	-0.2308051231	 2.2617396805	 0.087519
H	-2.5079625647	-1.4160011867	 0.9163002426	 0.094221
H	-1.7552798835	-2.9886425614	 2.9441063334	 0.058869
H	-0.633069196	-2.7841799953	 0.5210762095	 0.092813
H	 0.8044774607	-2.612174436	 1.5805389748	 0.094227
H	-1.0051312094	-0.8743612945	 4.3651520574	 0.09437
H	 0.3985144983	-1.9045166415	 4.0589242009	 0.097291
H	 1.2921865215	-0.231687325	 2.5608133113	 0.113275
H	-0.1200476113	 0.7845208325	 2.8786022297	 0.092836
