20
gdb 120148	2.93283	1.06075	0.94213	2.757	75.9	-0.2356	0.0556	0.2912	1337.9319	0.170061	-440.210903	-440.201596	-440.200651	-440.245743	33.893	
C	-0.8633601716	 1.3957624293	 0.9297682033	-0.222821
O	-0.7165773888	-0.0031256403	 0.9368706653	-0.231637
C	 0.5793002074	-0.4122200778	 1.3286563249	-0.108781
C	 0.6468150514	-1.9143642865	 1.200313022	-0.004637
C	 1.5291827797	-2.8139317343	 1.9767258177	-0.111621
C	 1.6747438714	-2.4195109261	 3.4496665643	 0.101881
O	 2.3383080457	-1.2229545437	 3.8015888228	-0.422507
C	 0.1352343471	-2.357474205	 3.5092018698	-0.18781
N	 0.0034387021	-2.8859067347	 2.1043374088	-0.139196
H	-0.1727601046	 1.8770017194	 0.218089547	 0.100501
H	-1.8902352718	 1.6160071587	 0.627825019	 0.12697
H	-0.6838352545	 1.833200412	 1.9250678876	 0.103388
H	 1.3405391651	 0.0232663847	 0.6569040779	 0.083771
H	 0.8170410365	-0.062360651	 2.3396423873	 0.117582
H	 0.4961494676	-2.237990602	 0.1717083295	 0.103089
H	 2.0931776235	-3.6094961754	 1.4975031996	 0.088491
H	 2.0617861602	-3.2641369369	 4.0340671224	 0.08374
H	 3.2840579499	-1.347383166	 3.6700649807	 0.283733
H	-0.3105372657	-3.0630369539	 4.21175587	 0.113169
H	-0.3010984008	-1.3688326104	 3.6669030401	 0.122699
