22
gdb 115838	2.65921	1.22233	1.08429	2.3019	81.25	-0.2162	0.0746	0.2908	1237.517	0.19546	-404.323778	-404.314668	-404.313724	-404.357473	34.769	
C	-0.1449218274	 1.5474765942	 0.0830794305	-0.429159
C	-0.0073373291	 0.0465221413	-0.0552727524	 0.022905
C	 0.6365302102	-0.72042166	-1.1623625229	-0.086979
C	 1.5867606753	-0.0781302918	-2.166414027	 0.039297
C	 0.9070487508	 0.7686884704	-3.2350864394	-0.097152
O	 1.9105751029	 1.1983122358	-4.1459325028	-0.422626
C	 2.6235990091	 0.6805648901	-1.3025913262	-0.248421
C	 2.4900690958	 0.0551261524	 0.1099447629	-0.162971
N	 1.2318230222	-0.7162591631	 0.1921890419	-0.123008
H	 0.6528742902	 2.1178763264	-0.3907746764	 0.123631
H	-1.0939703061	 1.8730125349	-0.3569750341	 0.120515
H	-0.1681458863	 1.8238403254	 1.1436570012	 0.12339
H	-0.8558847613	-0.4655421246	 0.4003006742	 0.087482
H	 0.1700344704	-1.6537398043	-1.4721369974	 0.08261
H	 2.0950930073	-0.8952224414	-2.6937994079	 0.086424
H	 0.1367913655	 0.1696769834	-3.7473663339	 0.085261
H	 0.398836392	 1.6279526333	-2.7709815224	 0.085961
H	 1.4947436048	 1.7483086719	-4.8161550239	 0.286347
H	 3.6343007213	 0.5726930745	-1.7020647205	 0.109676
H	 2.4107070034	 1.7531760176	-1.296404526	 0.106923
H	 3.3031834837	-0.6540232458	 0.2961028276	 0.107652
H	 2.5300156353	 0.8037502893	 0.9082822047	 0.102243
