15
gdb 11607	6.51752	0.95654	0.86841	1.1567	58.64	-0.2696	0.0535	0.3231	1266.1296	0.117931	-436.951821	-436.943487	-436.942543	-436.986417	28.786	
N	-0.2052135251	 1.2724077947	 0.1258948134	-0.562482
C	 0.0389220004	-0.0553704312	-0.08148204	 0.502602
O	 1.1050723607	-0.5348776068	-0.3876190498	-0.39668
O	-1.1107681423	-0.762177537	 0.0711127494	-0.263176
C	-0.9870742871	-2.1739590528	-0.1455844057	-0.078879
C	-2.3727560152	-2.7418965039	-0.2346229282	 0.076523
C	-2.6432217799	-4.1297612386	 0.1575244571	-0.181079
O	-3.0302187084	-3.0433595286	 0.9970904272	-0.228006
H	 0.6035320708	 1.8578093191	 0.2438832472	 0.269611
H	-1.055044249	 1.5404335451	 0.5926101192	 0.267073
H	-0.4260828351	-2.3531401473	-1.0682380142	 0.131339
H	-0.4392053262	-2.6313256749	 0.6848224585	 0.121628
H	-3.0150040207	-2.2775404875	-0.9834200548	 0.102529
H	-3.4568088177	-4.67284053	-0.3204643059	 0.120173
H	-1.8332005652	-4.7504474603	 0.5391040565	 0.118826
