21
gdb 64256	3.20234	1.14902	1.10525	1.9639	78.16	-0.2542	0.064	0.3182	1219.9975	0.181528	-424.226707	-424.217766	-424.216821	-424.260432	35.205	
C	-0.3363180386	 1.5198244893	-0.0306323128	-0.447987
C	 0.0985897056	 0.0572569892	 0.0128138294	 0.377789
O	-1.0472872152	-0.794209562	 0.168097121	-0.474176
C	 0.9188967174	-0.3962708906	-1.2169234081	-0.252169
C	 1.5623617111	-1.7124305444	-0.7547122548	-0.284351
C	 1.9095628587	-1.4381921482	 0.7072316588	 0.447668
C	 2.5368394503	-2.4275107955	 1.5857232007	-0.255143
O	 3.303328459	-1.3477970826	 1.0433690931	-0.279525
C	 1.0195532851	-0.2928044853	 1.1999267419	-0.303099
H	 0.5252373192	 2.1902182202	-0.1083928175	 0.117149
H	-0.9827449128	 1.7062914953	-0.8970203404	 0.102963
H	-0.8990751471	 1.7775030301	 0.8714213699	 0.124504
H	-1.6166232375	-0.6599747585	-0.5975148021	 0.273472
H	 0.2930768444	-0.5002468521	-2.1098700809	 0.082848
H	 1.6907227073	 0.3498236124	-1.4402936854	 0.104187
H	 0.8282917564	-2.5218984262	-0.8138900685	 0.112751
H	 2.448951392	-2.0028691846	-1.3223355595	 0.108041
H	 2.3624128447	-2.3852319328	 2.6608095452	 0.10852
H	 2.7833341416	-3.4172463246	 1.2002081177	 0.106925
H	 1.6565629967	 0.5563183913	 1.4639546646	 0.1136
H	 0.4202180117	-0.5566663603	 2.0743301377	 0.116035
