16
gdb 12427	3.41519	1.99469	1.3602	3.5734	72.58	-0.2308	-0.0485	0.1823	893.0875	0.131679	-346.631402	-346.624327	-346.623383	-346.662997	26.74	
O	-0.2574451559	 1.3484066575	-1.6961978024	-0.321313
C	-0.1117768268	 1.6060435706	-0.5180521277	 0.368635
C	-1.303497354	 1.6120125573	 0.4398849252	-0.361322
C	-1.4755770574	 2.9277994197	 1.160628354	-0.066008
C	-0.5859379669	 3.4256408068	 2.0134930906	-0.048356
C	 0.714258246	 2.7459130046	 2.3831140505	-0.318896
C	 1.5923082958	 2.2950146028	 1.2425666564	-0.039959
C	 1.2442961689	 1.8537735847	 0.0264465527	-0.132399
H	-2.1871497068	 1.3554455407	-0.1460289211	 0.124255
H	-1.1420024515	 0.8065246606	 1.1719138361	 0.124225
H	-2.3801830231	 3.4877606416	 0.9427066458	 0.103376
H	-0.7859926066	 4.3756453789	 2.5007148616	 0.098133
H	 1.3038736028	 3.4120825921	 3.0202631119	 0.118345
H	 0.5000014644	 1.8697372811	 3.020571929	 0.13808
H	 2.6592528938	 2.3520110875	 1.4532156852	 0.107905
H	 2.0265550273	 1.6169788135	-0.6902296178	 0.1053
