18
gdb 84524	2.2434	1.77547	1.44886	1.2104	82.7	-0.2175	0.005	0.2225	1004.3639	0.147083	-364.754338	-364.746175	-364.745231	-364.786584	32.122	
C	-0.5876346268	 1.4257460683	 0.0443108527	-0.407927
C	-0.0858956133	-0.0188128665	 0.0097964608	 0.012142
C	 0.6038025392	-0.4816636029	-1.2594444167	-0.084715
C	 1.730178861	-1.1336158853	-0.9745806475	-0.085589
C	 1.9680863114	-1.1085574364	 0.4968593012	-0.08531
C	 2.2198958599	 0.2513275463	 1.0964323977	-0.208587
C	 2.6511177877	 1.3662583767	 0.2997869396	 0.366273
C	 3.087781413	 2.3159414032	-0.2968596402	-0.468149
N	 0.8607177845	-0.3543213882	 1.1090161915	-0.136225
H	 0.2150886905	 2.1395079212	-0.1437975631	 0.142883
H	-1.3633182906	 1.5672798536	-0.7150585709	 0.112745
H	-1.0274716116	 1.6428736179	 1.0217180543	 0.126699
H	-0.959684369	-0.6658664932	 0.1845173526	 0.096532
H	 0.2032400144	-0.2976666772	-2.2496444094	 0.101398
H	 2.4090151451	-1.5974402789	-1.6786331235	 0.104981
H	 2.3384599191	-1.9903789368	 1.0144692157	 0.09834
H	 2.6282000502	 0.2677849806	 2.1053264567	 0.118022
H	 3.4580064754	 3.1513903077	-0.8376957815	 0.196485
