18
gdb 40547	3.8275	1.30004	1.08091	2.2459	78.52	-0.2317	0.0137	0.2454	1133.4424	0.150179	-398.081002	-398.073571	-398.072626	-398.113192	28.825	
C	-0.0870084137	 1.1820871586	 0.3511901898	-0.240564
C	 1.1590351422	 0.454740589	-0.0403858359	-0.214332
N	-0.120147083	 0.0783354042	-0.612571476	-0.143278
C	-0.7028816295	-1.1293924926	-0.2509496962	 0.410615
N	-0.0523958602	-2.1909463213	 0.0422932553	-0.286817
C	-1.0094548516	-3.2946361574	 0.22578738	-0.157357
C	-2.4068655738	-2.6960570012	 0.0925271606	-0.045799
N	-2.6724320123	-1.65564445	 1.1087966625	-0.333966
C	-2.1957288007	-1.268593834	-0.2515990561	-0.167356
H	-0.4873725722	 0.9898894137	 1.3429049712	 0.140682
H	-0.3001379695	 2.1658047852	-0.0565045648	 0.121468
H	 1.8573636904	 0.9192738152	-0.7298772434	 0.121469
H	 1.5934886346	-0.2354289997	 0.6760018226	 0.144835
H	-0.8295735382	-4.0647085437	-0.5351196137	 0.106537
H	-0.8533677222	-3.7583015201	 1.206063397	 0.11813
H	-3.2345947395	-3.2751139919	-0.3020119282	 0.093742
H	-3.6779872752	-1.4943870671	 1.1440821133	 0.231402
H	-2.8281932958	-0.677830347	-0.903397068	 0.10059
