19
gdb 63147	2.3504	2.01782	1.587	1.6012	68.9	-0.2482	0.0761	0.3243	930.906	0.160777	-460.167631	-460.160017	-460.159073	-460.199136	30.955	
C	-0.0806640993	 1.572824724	-0.0068016916	-0.45632
C	 0.0232600191	 0.0562665022	 0.0026312984	 0.414465
O	-1.2902388885	-0.4537003754	-0.1138680786	-0.507044
C	 1.0445509956	-0.5906535956	-0.9920916754	-0.139213
C	 2.3672334908	-0.0763539184	-0.4094065383	-0.091676
O	 2.1251627001	-0.1056576656	 1.0209897266	-0.268998
C	 0.8063046446	-0.5719643841	 1.1751247698	 0.161665
O	 0.7175515156	-1.9648713019	 0.8836318908	-0.297939
C	 0.9316367655	-2.0612236537	-0.5528669073	-0.106087
H	 0.8802833421	 2.0565675095	 0.1722212779	 0.13244
H	-0.4785127243	 1.917273041	-0.9661522522	 0.125632
H	-0.778097923	 1.8892277224	 0.7736727046	 0.128679
H	-1.2938779793	-1.3213074443	 0.3089051279	 0.290621
H	 0.8844856891	-0.4040266074	-2.0531943486	 0.084124
H	 3.2188626661	-0.7254618502	-0.6424429684	 0.108337
H	 2.6129367996	 0.9448275032	-0.7207070318	 0.105729
H	 0.4742167577	-0.4043098508	 2.1986450064	 0.096616
H	 0.0829439445	-2.5787384434	-1.0109310539	 0.108258
H	 1.8437682541	-2.6355712416	-0.7459245163	 0.110709
