21
gdb 98423	2.51216	1.25214	1.00713	1.513	80.67	-0.2624	0.0152	0.2776	1296.9802	0.180392	-424.260211	-424.24997	-424.249026	-424.295326	37.176	
C	-0.3010305986	 1.3772887549	 0.2532598752	-0.239844
O	-0.2933000551	-0.0469907401	 0.3980716336	-0.236793
C	 0.8538088518	-0.5705046818	 0.8839854753	 0.418258
O	 1.8081085936	 0.1141727948	 1.1771729779	-0.383973
C	 0.7716837895	-2.0575737728	 1.0036559004	 0.168443
C	-0.384967318	-2.7473866386	 0.3040089605	-0.464025
C	 2.1152769471	-2.7686774057	 1.076815341	-0.312595
C	 1.2796743289	-2.6817475411	 2.3143683899	-0.008743
C	 1.7119486122	-1.8829211121	 3.5231406424	-0.427558
H	 0.4926391311	 1.7013922989	-0.4246147572	 0.140131
H	-1.2798622941	 1.6284009054	-0.1559090053	 0.13054
H	-0.1536377149	 1.8651199845	 1.2202049622	 0.138982
H	-0.3841097689	-2.5393565168	-0.770549174	 0.122359
H	-0.3105880709	-3.8308645517	 0.4366592713	 0.1097
H	-1.3489667482	-2.4203828619	 0.7031473373	 0.12748
H	 2.1986728895	-3.7156887255	 0.5542867253	 0.110619
H	 2.989032599	-2.1289823281	 1.0242111698	 0.135535
H	 0.727238689	-3.5857218245	 2.5616765983	 0.088936
H	 2.2332622153	-0.9700368423	 3.2322580025	 0.155082
H	 0.8519183301	-1.6054188616	 4.1429023721	 0.112633
H	 2.3868078915	-2.4825188941	 4.1440998915	 0.11483
