13
gdb 27580	3.65045	1.28495	0.956	4.1861	72.51	-0.2935	-0.0973	0.1962	1140.6929	0.090442	-411.853148	-411.845463	-411.844519	-411.887012	26.529	
C	-0.0229277834	 1.4882153334	 0.0001182763	-0.464797
C	 0.0138015163	-0.0081313895	-0.0074876475	 0.358462
N	-0.0505363281	-0.6372557182	-1.1880428716	-0.292835
C	-0.0121820171	-1.9680863673	-1.1133630863	 0.248317
N	 0.0814163486	-2.6993411036	-0.0028830913	-0.269234
C	 0.1385037281	-1.9637582063	 1.1100102545	 0.073816
N	 0.1097127726	-0.6372943556	 1.1747117691	-0.261273
C	-0.0791575409	-2.6896052311	-2.3667823007	 0.298255
N	-0.1326610777	-3.2642141429	-3.3674865737	-0.309093
H	 0.8820680958	 1.8781381971	 0.4763539653	 0.158708
H	-0.1041362204	 1.875009691	-1.0150324219	 0.153236
H	-0.8699482274	 1.8346510065	 0.6003692251	 0.158663
H	 0.2157645935	-2.5059503636	 2.0493941026	 0.147775
