12
gdb 3455	4.81015	2.96431	2.82556	3.0142	55.09	-0.2432	-0.0084	0.2349	543.4531	0.091811	-323.340989	-323.335884	-323.33494	-323.369664	20.004	
O	-0.0005021227	 0.0158016413	-0.1590409751	-0.289729
C	-0.014888168	 1.1890954508	-0.041252642	 0.455174
C	-1.0534987913	 2.3960042165	 0.0920092141	-0.166072
N	-0.0241403706	 2.9306771502	 1.0339750375	-0.288562
C	 0.993702607	 2.4238708449	 0.0644975121	-0.166073
C	 0.6184091736	 3.0615596661	-1.2607844312	-0.090252
C	-0.7314419618	 3.0431443109	-1.2426640313	-0.090251
H	-2.0790420091	 2.2919956196	 0.4376263851	 0.09361
H	-0.0379779951	 3.9543729224	 1.041076726	 0.211374
H	 2.0306118079	 2.3479338473	 0.382397269	 0.093608
H	 1.2914453972	 3.3200503207	-2.0655815338	 0.118586
H	-1.4326375171	 3.2828931392	-2.0290095005	 0.118587
