16
gdb 6348	3.75416	1.30346	1.02877	3.0943	63.35	-0.2405	0.0118	0.2523	1123.6545	0.129968	-417.132543	-417.123317	-417.122373	-417.167535	31.434	
C	-0.6001703783	 1.3607736374	 0.3700323391	-0.33234
N	-0.9017326096	-0.05530782	 0.4125557911	-0.296339
C	-0.7889971642	-0.8525454704	-0.6749714932	 0.3941
O	-0.3873448639	-0.4947562502	-1.7687342935	-0.379658
C	-1.1524237553	-2.3315364761	-0.4297280133	-0.416439
C	-2.3556030534	-2.5771098303	 0.4717946507	 0.41406
N	-3.2824134676	-3.4397971979	-0.0172042402	-0.509663
O	-2.4775153723	-2.05153975	 1.5697573802	-0.376273
H	 0.1196624631	 1.6312031552	 1.1500614088	 0.123927
H	-0.169965736	 1.5814349318	-0.6075270095	 0.164164
H	-1.5026439035	 1.9683303319	 0.5063839797	 0.125143
H	-1.3391731875	-0.4659437849	 1.2300170655	 0.26938
H	-1.2618442682	-2.7913187118	-1.4127966307	 0.125592
H	-0.2909929552	-2.8006776931	 0.0611873878	 0.158926
H	-3.2091358631	-3.8493282213	-0.9311897484	 0.26874
H	-4.097140565	-3.6346444504	 0.5421224259	 0.26668
