12
gdb 128733	2.42352	1.56615	0.95714	4.1214	63.88	-0.2944	-0.0855	0.2089	1120.3904	0.077255	-468.758382	-468.750731	-468.749787	-468.791136	26.562	
C	-0.0374082068	 1.3389932173	 0.0520324453	-0.256285
O	 0.0120570112	-0.097241677	-0.0151740844	-0.250952
C	 0.6161609787	-0.6067851717	-1.0712466843	 0.353048
N	 1.1667659126	 0.0635530937	-2.0487532482	-0.176096
O	 1.6608697931	-0.9014399861	-2.9051660431	-0.147858
N	 1.4165876921	-2.1517939329	-2.4596045826	-0.129785
C	 0.7716245537	-2.0104780623	-1.3268889466	 0.177545
C	 0.3302002828	-3.1021094854	-0.5366412445	 0.27871
N	-0.0451102502	-3.9652962926	 0.1344449294	-0.318217
H	 0.9748406855	 1.7517980248	 0.0721690267	 0.156838
H	-0.5763829295	 1.739693911	-0.8107516929	 0.156852
H	-0.5651672231	 1.5690481011	 0.976151095	 0.1562
