21
gdb 73156	2.55298	1.56983	1.35062	1.2891	82.12	-0.2353	0.0808	0.3161	1072.6659	0.182812	-387.052826	-387.044547	-387.043603	-387.085479	33.459	
O	 0.2313175125	 1.5157918018	 0.0784788037	-0.473778
C	 0.1025465471	 0.1263491367	 0.1044495035	 0.353222
C	-1.3560828678	-0.3494123292	-0.0399127518	-0.26603
C	-1.156666776	-1.3357096841	 1.151779222	-0.217121
C	 0.29321921	-0.8220699466	 1.364909548	-0.098497
C	 1.3751254065	-1.6226421529	 0.5899123274	-0.323475
C	 1.1583747468	-0.715110827	-0.6342142819	 0.306266
C	 1.186081647	-1.0727733567	-2.0898670046	-0.32537
C	 2.2296937307	-0.140691309	-1.5200433101	-0.340464
H	 1.1673011816	 1.728674711	 0.1660935687	 0.276105
H	-2.0510030477	 0.4604979804	 0.1937532179	 0.109496
H	-1.6286426353	-0.7804710957	-1.0069625482	 0.095016
H	-1.82545809	-1.143151007	 1.9933566412	 0.102115
H	-1.2264503598	-2.3970107015	 0.8979187435	 0.09577
H	 0.5532621702	-0.4544192128	 2.3579422824	 0.063257
H	 2.3784937351	-1.5407272772	 1.0195262707	 0.096008
H	 1.149294733	-2.6838108872	 0.4438348625	 0.096474
H	 1.4916008117	-2.0778816328	-2.3632771561	 0.111401
H	 0.4248425295	-0.6450501238	-2.7353688671	 0.116241
H	 2.1602662352	 0.9095576508	-1.788751716	 0.112187
H	 3.2440975897	-0.5090492373	-1.4013599657	 0.111177
