20
gdb 105419	2.10745	1.43214	1.09103	3.1855	75.34	-0.2494	0.0207	0.2701	1195.3341	0.170528	-440.295823	-440.286345	-440.285401	-440.330265	34.982	
O	-0.1442225391	 1.2985021968	-0.7476520244	-0.426354
C	-0.132857256	-0.0290199665	-0.2520642213	-0.110343
C	-1.5380296499	-0.5222787157	 0.1181852414	 0.335568
C	-2.4575138842	-0.6732611732	-1.1215168607	-0.281543
C	-2.1275314064	-2.192379466	-1.1419660909	-0.218803
C	-1.5873027719	-2.0668698181	 0.3093738507	-0.246256
N	-2.0966625905	 0.3119834546	 1.1815595121	-0.355424
C	-1.6724467544	 0.2700557541	 2.4735855086	 0.139785
O	-0.7266883272	-0.375482596	 2.875601671	-0.324863
H	-0.4400004918	 1.8628725316	-0.0253767219	 0.280946
H	 0.2686362521	-0.6517103642	-1.0578972236	 0.106971
H	 0.5212142838	-0.1368858733	 0.6223925468	 0.125807
H	-3.508832938	-0.4939142448	-0.8733800869	 0.092218
H	-2.1900650695	-0.0663261106	-1.9886055681	 0.121715
H	-2.9654541215	-2.8734184472	-1.3004088181	 0.103915
H	-1.3453569956	-2.4394261946	-1.8635893792	 0.112085
H	-0.6422756715	-2.556625522	 0.5529217461	 0.113002
H	-2.3300232132	-2.3519047211	 1.0574878758	 0.107146
H	-2.9538058611	 0.8070194383	 0.9882430021	 0.246641
H	-2.2922906841	 0.9101361279	 3.1346203605	 0.077786
