17
gdb 109456	2.32885	1.4859	1.00435	0.6532	69.75	-0.2329	-0.0383	0.1946	1178.179	0.13285	-458.924716	-458.915847	-458.914903	-458.958778	31.91	
C	-0.2842612013	 1.4918585138	-0.1280502305	-0.247523
O	-0.222300391	 0.2060945974	 0.4726371244	-0.247203
C	-1.2820965328	-0.6218668098	 0.1173287918	-0.040356
C	-1.2569434823	-1.3607843758	-1.252451388	 0.370844
O	-0.9552891285	-1.0318910415	-2.3623021489	-0.294947
C	-1.6143301184	-2.7059581624	-0.5849875098	-0.451963
C	-1.2985622769	-2.0190144902	 0.7536816384	 0.397953
C	-0.4782231073	-2.4843953829	 1.8678067053	-0.247748
O	-1.9029469228	-2.3156293475	 1.9904898053	-0.273
H	 0.5806094951	 2.051351663	 0.2339679006	 0.13255
H	-0.2447428883	 1.4257248743	-1.2213603407	 0.141695
H	-1.2034858846	 2.0212514223	 0.1650763801	 0.110911
H	-2.2618833158	-0.1277199248	 0.2552444017	 0.098349
H	-2.673280245	-2.9631226139	-0.697358263	 0.148021
H	-1.0058142621	-3.5639738065	-0.8784716614	 0.144114
H	-0.1294791965	-3.5156724185	 1.884080708	 0.121008
H	 0.1236685083	-1.765897277	 2.4192476267	 0.137297
