27
gdb 123252	9.09889	0.37478	0.36649	0.8884	95.57	-0.2472	0.0899	0.3371	3115.6818	0.249818	-390.701215	-390.688975	-390.68803	-390.740388	42.333	
C	-0.0020219618	 1.5800356126	 0.0459947979	-0.378867
C	 0.0191394203	 0.0491896504	 0.0279078786	-0.16461
C	 0.7390947358	-0.5514942452	 1.2392837138	-0.177739
C	 0.7601676871	-2.0736538354	 1.2212333601	-0.049463
O	 1.4397012969	-2.5344572817	 2.3686448958	-0.249031
C	 1.5157388621	-3.9410498766	 2.4484866121	-0.049463
C	 2.2649459739	-4.3226271286	 3.7176702166	-0.177739
C	 2.4009389789	-5.8378638746	 3.8969787504	-0.16461
C	 3.1546449275	-6.2216540319	 5.1732610185	-0.378867
H	 1.0142952353	 1.9891935252	 0.0487730294	 0.114982
H	-0.5214002985	 1.9829753282	-0.8290480439	 0.110499
H	-0.5111309648	 1.9575827114	 0.9396299067	 0.114983
H	-1.0107564783	-0.3300964608	-0.0098508812	 0.095339
H	 0.5034668928	-0.2987166816	-0.8942415804	 0.095338
H	 1.7733434917	-0.1879451568	 1.2805614924	 0.102335
H	 0.2561138796	-0.2194893923	 2.1666698123	 0.10234
H	-0.2702321558	-2.4714520623	 1.2000542205	 0.079688
H	 1.2599997616	-2.4396829587	 0.3065745937	 0.079689
H	 0.5020908882	-4.3802509344	 2.4545266189	 0.079687
H	 2.0322216707	-4.3482518475	 1.5608821515	 0.07969
H	 3.2576356146	-3.8563495156	 3.6913032901	 0.102333
H	 1.7404233021	-3.8876582251	 4.5774494035	 0.102342
H	 1.4025441375	-6.2950146259	 3.9107143576	 0.095341
H	 2.9165699989	-6.2638423241	 3.025979117	 0.095336
H	 3.2375144793	-7.308001324	 5.2771675934	 0.110499
H	 4.1691266215	-5.8079606701	 5.1725249385	 0.114982
H	 2.6439602928	-5.8390564745	 6.0638452762	 0.114983
