17
gdb 123804	3.90788	1.13631	1.08552	2.5761	73.22	-0.2318	0.0263	0.2581	1159.8242	0.137524	-417.992596	-417.984793	-417.983848	-418.026142	29.255	
C	-0.4939116124	 0.8676964469	-0.3083214849	-0.297752
C	 0.2916449864	 0.8283469158	 0.9947997597	-0.292563
C	 0.6215351952	-0.1127087283	-0.1197425767	 0.127802
O	 0.4118868001	-1.5189195513	-0.0568107844	-0.278771
C	-0.6582809739	-1.9940101868	 0.6111164148	 0.41933
C	-0.9065338601	-2.2295799329	 1.9496956983	-0.321329
C	-2.1835455419	-2.8324912866	 1.9602648285	 0.002475
N	-2.6918783675	-2.969104135	 0.7388463217	-0.230524
N	-1.7479621957	-2.4408927367	-0.0684300221	-0.244103
H	-1.5089011279	 0.4874953372	-0.2644924774	 0.132184
H	-0.3492071622	 1.6899684333	-1.0001729386	 0.118806
H	 0.9972665954	 1.621034851	 1.2175804604	 0.119563
H	-0.2336080091	 0.4313632665	 1.8554643416	 0.134083
H	 1.5431030437	 0.0430594959	-0.666866132	 0.110875
H	-0.2506300297	-2.0167877609	 2.776872114	 0.111516
H	-2.7497607361	-3.1781747722	 2.8130222596	 0.11255
H	-1.8665397144	-2.4565325357	-1.0678342726	 0.275858
