20
gdb 76123	2.9593	1.29871	1.0903	4.3817	83.1	-0.2687	0.0306	0.2992	1182.4969	0.170464	-366.01234	-366.003237	-366.002292	-366.04584	34.384	
C	-0.1710851584	 1.580072717	 0.0811382849	-0.418151
C	 0.0389255015	 0.0736430798	 0.0382430682	-0.052075
C	 1.1409449925	-0.5435925258	-0.9223808138	-0.182544
C	 1.9868349754	 0.3784565845	-1.6698920377	 0.286504
N	 2.6531594801	 1.1289728813	-2.2450283584	-0.3441
C	 1.7714002172	-1.2418469011	 0.2943836078	-0.105251
C	 2.1568517542	-0.2262959461	 1.3335251016	-0.340073
C	 0.7140553718	-0.640457994	 1.2260393755	 0.362077
C	-0.0456373419	-1.2748011722	 2.3559957206	-0.501568
H	 0.7589383771	 2.1187665223	 0.2805002387	 0.13413
H	-0.5667574697	 1.9485287499	-0.8707237333	 0.128539
H	-0.8888330905	 1.8410003948	 0.8661454987	 0.118452
H	-0.9105966697	-0.4203540633	-0.1912857481	 0.083799
H	 0.6923358881	-1.2507641139	-1.6236976712	 0.121493
H	 2.1872943062	-2.2415803902	 0.2706324773	 0.097879
H	 2.6829413555	-0.6339392759	 2.1910317682	 0.117074
H	 2.5003020353	 0.7615145553	 1.038307313	 0.127511
H	-0.4808794837	-0.5165368451	 3.0179235434	 0.126106
H	-0.8654055452	-1.9007700704	 1.9847956337	 0.117704
H	 0.6077848941	-1.906045967	 2.9667690907	 0.122494
