27
gdb 122878	3.85878	0.54968	0.54133	1.2585	93.5	-0.2587	0.0658	0.3246	2256.6597	0.248801	-390.713036	-390.700883	-390.699939	-390.750727	44.563	
C	 0.058331291	 1.6408242305	 0.0857672224	-0.379172
C	-0.0094392912	 0.1130821559	 0.0121040482	-0.162982
C	 0.7035252626	-0.465988162	-1.2147092196	-0.161745
C	 0.6375420589	-1.9952796331	-1.2909551547	-0.183684
C	 1.3442358087	-2.5657523526	-2.5253003599	-0.207377
C	 1.4768108098	-4.1054845551	-2.5606719002	 0.344342
C	 0.1157423229	-4.8056634496	-2.5282381572	-0.390131
C	 2.2643811709	-4.5303703695	-3.8087057435	-0.415819
O	 2.1588042434	-4.5682092296	-1.3854191487	-0.456774
H	 1.0962159476	 1.989562375	 0.1317993674	 0.111674
H	-0.4039545932	 2.1005515498	-0.7950727112	 0.111858
H	-0.4602130452	 2.0230967672	 0.9707335926	 0.109774
H	 0.4294609698	-0.3187477317	 0.9213045616	 0.09436
H	-1.0599256753	-0.2070877293	 0.0038165215	 0.093166
H	 0.2652182215	-0.033320648	-2.1254724113	 0.088105
H	 1.7550968758	-0.1450234802	-1.2071723797	 0.086752
H	 1.0890802015	-2.4335481797	-0.3931757637	 0.104755
H	-0.4152544518	-2.3045381979	-1.2865500299	 0.093137
H	 0.8326891311	-2.23215372	-3.4380270636	 0.090191
H	 2.3589779041	-2.1429421609	-2.5812797327	 0.075898
H	-0.508831816	-4.4817190316	-3.3660785846	 0.108066
H	 0.2509140984	-5.8889216887	-2.5937346335	 0.116898
H	-0.4105644304	-4.5894933984	-1.5959827657	 0.124994
H	 3.2505863503	-4.0506115061	-3.8286874692	 0.099504
H	 2.4119144364	-5.6141841437	-3.812157344	 0.118815
H	 1.7415341935	-4.2476079919	-4.7282133103	 0.112803
H	 3.048210875	-4.1980402289	-1.3997351004	 0.272591
