18
gdb 108845	2.43303	1.31452	0.90246	2.0396	77.65	-0.2408	-0.0204	0.2204	1289.0083	0.147243	-439.112736	-439.10372	-439.102776	-439.146721	32.988	
C	-0.0572970798	 1.5610288579	-0.0634583412	-0.391518
C	 0.0196272329	 0.0381857275	 0.015879515	 0.062854
O	 0.7872510251	-0.469648792	-1.0950925439	-0.255717
C	 1.8323701494	-1.2218361435	-0.6301311795	 0.335353
N	 2.6949604407	-1.8141084575	-1.3460353854	-0.558609
C	 1.781190447	-1.2250340906	 0.8411673094	 0.257286
C	 2.7892655305	-1.950997841	 1.6628888361	-0.182522
O	 2.4847040804	-1.7646499021	 3.0338090598	-0.422024
C	 0.7296777747	-0.5008127392	 1.2258126439	-0.218375
H	 0.9417886397	 1.9985620701	 0.0133229187	 0.130468
H	-0.5059189117	 1.8684825797	-1.01173635	 0.132444
H	-0.6735803957	 1.9496371379	 0.7533073141	 0.122465
H	-0.9931449938	-0.3819859353	-0.0697195472	 0.103656
H	 2.5123405479	-1.6570154845	-2.3380873807	 0.221136
H	 2.7796364157	-3.0147211578	 1.3765726549	 0.119045
H	 3.7926835855	-1.5756136048	 1.4062516513	 0.11888
H	 3.134585162	-2.2488450801	 3.5504878808	 0.293238
H	 0.4143922096	-0.3088862847	 2.2416267339	 0.131939
