19
gdb 32987	4.6212	0.86255	0.77693	2.8092	84.03	-0.2468	-0.0369	0.21	1505.4187	0.161448	-382.133539	-382.125048	-382.124103	-382.16775	30.846	
C	-0.0342533397	 1.5801259575	 0.0386171486	-0.380135
C	 0.000102882	 0.0507226709	 0.0056314539	-0.156897
C	 0.7121775641	-0.5030100633	-1.244609467	-0.30865
C	 0.7476383835	-2.0084933397	-1.2803609313	 0.230422
C	 1.7816724116	-2.750236258	-0.7077596512	-0.041795
N	 1.8112319772	-4.0838677101	-0.7004588345	-0.247345
C	 0.7769778009	-4.6905530114	-1.2842313428	 0.074986
N	-0.2653955965	-4.1048925278	-1.8749831566	-0.247343
C	-0.2643680429	-2.77094825	-1.8649820238	-0.041812
H	 0.9777037223	 1.9999631153	 0.0358923505	 0.117431
H	-0.5619263263	 1.9841286103	-0.8323921235	 0.117442
H	-0.5437896826	 1.9449199029	 0.9354787241	 0.118087
H	 0.5042531774	-0.3318118127	 0.9016829104	 0.105463
H	-1.0215112257	-0.3474703463	 0.039615375	 0.105464
H	 0.2059536826	-0.1268195972	-2.1421063544	 0.1085
H	 1.7362695887	-0.1112829297	-1.2773311515	 0.108508
H	 2.6260061193	-2.2446988991	-0.2399727366	 0.109629
H	 0.7871453113	-5.7778528759	-1.282739318	 0.118414
H	-1.1079585872	-2.2824965558	-2.3518709111	 0.10963
