20
gdb 112778	2.43956	1.27929	0.94844	3.2628	80.53	-0.2296	0.0166	0.2462	1302.3608	0.170749	-399.303045	-399.293322	-399.292378	-399.337799	34.964	
C	-0.0594608732	 1.5173202615	-0.1937553429	-0.322895
N	-0.0368460914	 0.1331469096	 0.2628163029	-0.289682
C	-1.2792532712	-0.5605208262	 0.1159025511	 0.051184
C	-1.8260429656	-1.0784648678	-1.2563833587	-0.204444
N	-2.2537621167	-2.3069123764	-0.5638247901	-0.060567
C	-2.254506026	-3.5746783773	-1.2648276444	-0.332126
C	-1.3296117249	-2.0612910544	 0.5603263512	-0.172429
C	-0.020278423	-2.722737472	 0.4396118619	 0.280795
N	 0.9975665477	-3.2537330848	 0.2955468677	-0.34307
H	 0.9257300251	 1.9647140698	-0.0372922639	 0.128026
H	-0.3283787154	 1.6445093912	-1.2562764461	 0.103639
H	-0.7822396469	 2.0858021325	 0.4023149472	 0.125666
H	 0.7181518293	-0.3788807528	-0.1812897313	 0.234423
H	-2.059358651	-0.0079452108	 0.6469021615	 0.105655
H	-2.6359332591	-0.5281604836	-1.7455559861	 0.107167
H	-1.0071885241	-1.2384120565	-1.97851823	 0.092081
H	-1.2736107028	-3.8437818679	-1.6911378827	 0.118835
H	-2.5639020622	-4.3744664719	-0.5841667316	 0.128989
H	-2.9839923295	-3.5255576439	-2.0791216525	 0.127576
H	-1.7428511594	-2.2785829782	 1.5506664669	 0.121175
