20
gdb 89194	2.50284	1.5087	1.21696	2.3106	79.16	-0.2246	-0.024	0.2006	1121.7732	0.169479	-403.131383	-403.122459	-403.121515	-403.164993	33.988	
C	-0.9258138019	 1.1207679787	-0.0254381815	-0.417846
C	-0.0024444718	-0.0847095102	 0.0032789083	 0.084505
C	 1.1966843104	-0.1259222371	-0.9830932871	-0.334865
C	 2.1028275229	-0.4107481759	 0.2480939009	 0.238154
C	 2.9381248457	-1.670157737	 0.2651787535	-0.470493
N	 0.9077204317	-0.278396237	 1.1968871358	-0.184552
C	 1.4698028991	 0.9761101535	 1.7871205186	-0.31261
C	 2.7047762877	 0.8567215275	 0.8774369365	 0.354605
O	 3.7285786313	 1.4585923477	 0.7408512108	-0.294998
H	-0.3823044788	 2.0690535211	-0.0805068127	 0.120824
H	-1.5725297437	 1.0659412461	-0.9074638234	 0.124076
H	-1.5693063405	 1.1425385181	 0.8608506257	 0.128929
H	-0.6143605098	-0.9892317401	-0.0796801376	 0.087178
H	 1.177766675	-0.9288163027	-1.7237646904	 0.111028
H	 1.4072059899	 0.8152529863	-1.498769143	 0.114729
H	 3.7782855376	-1.5691671367	-0.4303861971	 0.134455
H	 3.3427886461	-1.8625520161	 1.2634318726	 0.127244
H	 2.3419042016	-2.5375037839	-0.0353490775	 0.123297
H	 0.8784043688	 1.8892545795	 1.6728815044	 0.128931
H	 1.7027074687	 0.8561991082	 2.8514640632	 0.137409
