25
gdb 118841	2.50168	0.8243	0.69674	1.3636	90.33	-0.255	0.0788	0.3339	1757.2777	0.226892	-389.481657	-389.470361	-389.469417	-389.518515	41.192	
C	 0.1293179094	 1.5879538196	-0.1056381354	-0.380533
C	 0.2336490892	 0.0602104142	-0.1120442221	-0.164805
C	 0.4415392427	-0.5239411454	 1.29396481	-0.250216
C	 0.6347420504	-2.036151005	 1.3243109333	 0.342315
C	-0.5567226113	-2.8381432896	 0.8253142988	-0.459632
C	 2.0118243057	-2.5931327234	 1.0347320506	-0.318571
C	 1.4448452669	-2.684511896	 2.4321238226	-0.031435
C	 2.071994764	-1.9371199611	 3.5797493515	-0.110623
O	 3.1244840551	-2.7466686365	 4.0947819703	-0.419965
H	 1.0373959332	 2.0460002969	 0.3027087939	 0.111666
H	-0.0169630558	 1.9831113995	-1.1158072604	 0.110444
H	-0.7133130156	 1.9256806899	 0.5083615437	 0.112555
H	-0.6730798156	-0.3607586443	-0.5616050635	 0.098273
H	 1.0667235567	-0.2514270282	-0.754955654	 0.098481
H	 1.3109007087	-0.0293852738	 1.7412298506	 0.090002
H	-0.4186274867	-0.254366527	 1.9241860467	 0.088457
H	-0.7751316139	-2.6295521847	-0.2273046808	 0.117262
H	-0.3717154587	-3.9129674977	 0.913595241	 0.112917
H	-1.4590727614	-2.6066943787	 1.404480888	 0.110611
H	 2.0996409791	-3.5010619882	 0.4470946953	 0.105226
H	 2.8200508064	-1.8850688696	 0.8760203659	 0.104957
H	 1.0964985512	-3.669086631	 2.7350822788	 0.084526
H	 2.4583710042	-0.9624367859	 3.2473773653	 0.081995
H	 1.315684415	-1.7399324431	 4.3575323331	 0.083256
H	 3.4840635012	-2.3060079211	 4.8705112569	 0.282836
