23
gdb 95279	2.01755	1.76121	1.34451	1.4854	83.81	-0.2497	0.0675	0.3172	1108.9352	0.206872	-388.301217	-388.292367	-388.291422	-388.334167	35.429	
C	-0.0174573334	 1.5282675915	-0.0897213789	-0.489295
C	 0.0038520838	 0.0119873352	 0.0176962514	 0.360175
C	-1.35773353	-0.6344239302	 0.4345067547	-0.284567
C	-0.7002372894	-1.2079821488	 1.7190882849	-0.217417
C	 0.6802694919	-0.6436916751	 1.2785951329	-0.045047
C	 1.6837154041	-1.6842571438	 0.7436411643	-0.227814
C	 1.1831873941	-2.0195172407	-0.6727759669	-0.257011
C	 0.6802889359	-0.6636290232	-1.1981837959	 0.095878
O	-0.1087926695	-0.7144049377	-2.3723278419	-0.443094
H	 0.9987074218	 1.9350204758	-0.1553876223	 0.109425
H	-0.5599370843	 1.8380886765	-0.9902536305	 0.125186
H	-0.5067741056	 1.9892461624	 0.7752496301	 0.10587
H	-2.1580787493	 0.0894723331	 0.6065666758	 0.10037
H	-1.7486307089	-1.394504027	-0.2512388324	 0.074732
H	-1.0826939876	-0.7703928593	 2.6442541985	 0.099803
H	-0.7398950303	-2.2967913178	 1.821270108	 0.094026
H	 1.137258378	 0.0421272109	 1.9961293559	 0.058379
H	 2.6841319655	-1.2392357599	 0.6834197896	 0.09752
H	 1.7632091795	-2.5631210323	 1.3917704145	 0.094715
H	 1.9470661944	-2.4617470183	-1.3173545677	 0.100741
H	 0.3460580571	-2.729996811	-0.630893438	 0.088936
H	 1.5486578435	-0.0541008291	-1.4809084201	 0.082309
H	-0.8855993813	-1.2514263811	-2.182022686	 0.276179
