21
gdb 90663	4.14751	1.04552	1.03807	1.5509	83.05	-0.2202	0.0791	0.2993	1280.0765	0.182566	-387.040441	-387.032009	-387.031065	-387.073625	32.643	
C	-0.1529206569	 1.4619528346	 0.1259656249	-0.404394
C	 0.0047332005	-0.0531552558	 0.1013504252	 0.026959
C	 1.0594268565	-0.5745264675	-0.9367882935	-0.25664
C	 1.9066493166	-1.1377160152	 0.2063203108	-0.139395
C	 0.8637914618	-0.6264957362	 1.2384884382	-0.149772
C	 1.1036384504	-2.0829980159	 1.0349147133	 0.474664
C	 0.1856818015	-3.256939508	 0.6912146198	-0.364774
C	 0.9560561947	-3.9729152379	 1.8210542587	-0.077997
O	 1.7755915063	-2.8073315747	 2.0701490887	-0.324585
H	 0.8198389347	 1.9551495224	 0.2328484125	 0.116526
H	-0.6150496712	 1.8229411835	-0.7995614565	 0.111864
H	-0.7823900516	 1.7820385442	 0.9637374761	 0.1134
H	-0.983729014	-0.5219826438	 0.0122342269	 0.063473
H	 0.7082602768	-1.2980633733	-1.6813237788	 0.090788
H	 1.5460985583	 0.2514026683	-1.4621956684	 0.103993
H	 2.9885928988	-1.1461779345	 0.2692865725	 0.090793
H	 1.0208732171	-0.1741083549	 2.211684998	 0.088056
H	-0.8772998469	-3.0930610419	 0.8790371058	 0.113159
H	 0.3168719483	-3.6796822572	-0.3068451661	 0.113373
H	 0.3638854642	-4.2456130068	 2.7019864626	 0.105292
H	 1.560870274	-4.8335007394	 1.5135305194	 0.105216
