18
gdb 83671	2.25401	1.6698	1.11985	5.5101	77.38	-0.2295	0.0194	0.2488	1113.8922	0.148353	-398.078669	-398.070374	-398.06943	-398.111639	31.06	
C	 0.0210430797	 1.5729039881	 0.0981713114	-0.336971
N	 0.0195306112	 0.1284322054	 0.1660884925	-0.068772
C	-1.0310454107	-0.5696430074	 0.9399833089	-0.006823
C	-1.6113555473	-1.8001516475	 0.2064682446	-0.166273
N	-0.3829013102	-2.5632695807	 0.5662774734	-0.296796
C	 0.0505677761	-1.5259741531	 1.5133614477	-0.047402
C	 1.1013793924	-0.5345841127	 0.926024535	-0.122204
C	 2.2113391914	-1.0633557955	 0.1351847058	 0.309523
N	 3.1086392294	-1.4755986359	-0.4648819944	-0.331046
H	 0.8950250149	 1.9111633453	-0.4673061979	 0.13925
H	-0.8723434313	 1.9154741755	-0.4329788335	 0.129706
H	 0.0429269714	 2.062612671	 1.0901335081	 0.093923
H	-1.6888563524	 0.0663538056	 1.5371695556	 0.078195
H	-2.5286768066	-2.1745428864	 0.6799880256	 0.094724
H	-1.7710533641	-1.689411403	-0.8701900032	 0.115996
H	-0.5330962924	-3.4794776808	 0.9671716927	 0.22876
H	 0.1685767339	-1.8068117769	 2.5602394787	 0.085199
H	 1.5122717446	 0.103330209	 1.7263007991	 0.101012
