15
gdb 2888	5.5842	2.00849	1.74844	1.6996	62.21	-0.2521	0.0367	0.2888	747.6915	0.125538	-308.486687	-308.479867	-308.478923	-308.518704	24.83	
C	 0.1361849895	-1.1450856756	-0.3253665142	-0.48181
C	 0.0343782052	 0.0384089913	-0.1403953336	 0.346413
C	-0.0934674686	 1.4789602009	 0.0929507331	-0.048712
C	-0.6495815167	 1.8079931724	 1.5164990876	-0.250404
C	 0.3965847031	 2.7804319709	 2.0940225962	-0.208453
C	 1.6486221865	 2.400883714	 1.3015602159	-0.077335
O	 1.1726833414	 2.1409204877	-0.0131444845	-0.244703
H	 0.2286517887	-2.1887183793	-0.4986955913	 0.198525
H	-0.7299297953	 1.9078384204	-0.689399964	 0.108467
H	-1.6506122612	 2.2399556425	 1.4631034495	 0.113557
H	-0.710029435	 0.8952425552	 2.1127007465	 0.121441
H	 0.1236843335	 3.8181442612	 1.8796826174	 0.110428
H	 0.5212736091	 2.6749699018	 3.1745253166	 0.104647
H	 2.3939099245	 3.1970862558	 1.229973947	 0.110995
H	 2.1312718254	 1.5074789607	 1.7287813177	 0.096944
