18
gdb 65999	2.84491	1.28749	1.16255	1.9482	72.84	-0.2466	0.0169	0.2635	1126.0094	0.149197	-435.222128	-435.213595	-435.212651	-435.255533	31.947	
N	-0.1331756616	 1.501117376	 0.0793036626	-0.575205
C	-0.0385172691	 0.0486257205	 0.0683780128	 0.124787
C	 0.8870049432	-0.5327619295	-1.0349623378	-0.111675
O	 1.7390947886	-1.1424639763	-0.0159060075	-0.257948
C	 0.9834551367	-0.6048725367	 1.0050202589	 0.394797
N	 1.1367188766	-0.6295155733	 2.2479299647	-0.548592
C	-1.4108670166	-0.5977173175	 0.1106984653	 0.0074
C	-2.5722413425	 0.0564914644	 0.7550922283	-0.247981
N	-2.4954742242	-0.0482367985	-0.7141275815	-0.33043
H	-0.3353540778	 1.8135048504	 1.0254859595	 0.253074
H	 0.7625085772	 1.9126122109	-0.1645928253	 0.239033
H	 0.4460444413	-1.2878850608	-1.6884478215	 0.13461
H	 1.4419307559	 0.2048231784	-1.6218215201	 0.11826
H	 1.9745407097	-1.1470466742	 2.5196241842	 0.230569
H	-1.3701851891	-1.6851786522	 0.1189950611	 0.09573
H	-3.3353707619	-0.5565865608	 1.2250668424	 0.122949
H	-2.4398849359	 1.0358549395	 1.204403749	 0.110544
H	-2.1794900605	 0.8545013597	-1.0691147152	 0.240078
