23
gdb 115946	3.00945	1.23596	1.01369	1.6314	84.74	-0.2413	0.0781	0.3194	1283.7175	0.20766	-388.297487	-388.288817	-388.287873	-388.330917	33.597	
C	-0.0092530652	 1.5275899073	 0.1082196928	-0.38629
C	-0.0959877111	 0.0097205143	-0.0793881919	-0.186444
C	 0.7867044988	-0.5316308413	-1.2083270729	 0.031489
C	 2.3067167731	-0.3035994276	-1.0497840925	-0.224689
C	 2.9448142652	-1.3134748596	-2.0260973364	-0.232318
C	 2.0359635108	-2.5512091643	-1.9610121193	-0.069966
C	 2.104111147	-3.3726907067	-0.6580589998	-0.076211
O	 0.8853412016	-2.7837415118	-0.159163427	-0.297751
C	 0.679246572	-2.0494280775	-1.3935950676	 0.113603
H	 1.0023083452	 1.8436178789	 0.3834061969	 0.116447
H	-0.283273217	 2.0595614336	-0.8102562768	 0.10898
H	-0.6858151972	 1.8641408284	 0.9000897289	 0.110933
H	 0.1799706778	-0.5019023	 0.8492568687	 0.114117
H	-1.1384472135	-0.2694467026	-0.2819199056	 0.089856
H	 0.4684336573	-0.0769851382	-2.1598425435	 0.063002
H	 2.6102576249	 0.7260635544	-1.2552344037	 0.095743
H	 2.602757041	-0.5291885449	-0.0181091259	 0.107759
H	 2.9336152877	-0.9057337532	-3.0438503958	 0.097974
H	 3.9878124358	-1.5435485484	-1.784669679	 0.095751
H	 2.0241520963	-3.1359634514	-2.881427641	 0.071624
H	 2.0054161248	-4.458448005	-0.7861156405	 0.096391
H	 2.9607551211	-3.169784763	-0.0016775019	 0.09618
H	-0.2472252663	-2.3663384912	-1.8866002264	 0.063821
