27
gdb 117717	3.3268	0.70136	0.6757	0.9291	93.7	-0.2512	0.0781	0.3293	1885.8281	0.249064	-390.695861	-390.68375	-390.682805	-390.73326	43.834	
C	-0.1453315135	 1.6353387743	 0.0122970835	-0.375969
C	 0.0036114209	 0.1104663418	 0.0026308327	-0.189606
C	-1.3538241414	-0.6047189964	 0.0117012728	-0.180372
C	-1.3283421932	-2.1530492867	 0.003134352	 0.22771
C	-0.646189396	-2.6926974011	-1.2680926682	-0.409977
C	-0.6221089156	-2.7062637304	 1.2552369735	-0.409974
C	-2.7967906287	-2.6146360467	 0.0146751946	-0.06058
O	-2.863465943	-4.0256068444	 0.0078656223	-0.239343
C	-4.1811381637	-4.5143298127	 0.0178799174	-0.226173
H	 0.8301257114	 2.1317682636	 0.0056485257	 0.109683
H	-0.7029990662	 1.9850914798	-0.8638693008	 0.112334
H	-0.6861019626	 1.9755449383	 0.9026980632	 0.112335
H	 0.5784262735	-0.1886611244	-0.8815783199	 0.099162
H	 0.5951489259	-0.1981473228	 0.8724333215	 0.099163
H	-1.9152130178	-0.2706523618	 0.8962377267	 0.085627
H	-1.9319064047	-0.2612167625	-0.8583496757	 0.085627
H	 0.4214114743	-2.4555312711	-1.2809961772	 0.108535
H	-0.7541440095	-3.77835428	-1.3241283619	 0.128575
H	-1.0970419817	-2.26232069	-2.1700991711	 0.101118
H	-1.0555979946	-2.2856304483	 2.1702571769	 0.101117
H	-0.7291196314	-3.7924687036	 1.3016578223	 0.128579
H	 0.445576197	-2.4691769763	 1.2502996034	 0.108533
H	-3.3079791407	-2.2185363905	 0.9099498932	 0.077532
H	-3.3248977778	-2.2091488077	-0.8664655928	 0.077534
H	-4.1273479952	-5.6059412034	 0.0116591427	 0.124797
H	-4.7315066921	-4.1908986282	 0.9161399859	 0.102016
H	-4.7485094933	-4.1815783887	-0.8662870126	 0.102016
