22
gdb 119338	3.91007	0.98176	0.94118	1.6874	86.07	-0.2295	0.0888	0.3183	1390.704	0.195114	-367.156072	-367.147482	-367.146537	-367.189787	33.092	
C	-0.017172263	 1.5918030376	 0.2134414524	-0.381462
C	-0.0100574116	 0.0618840558	 0.1757701339	-0.165918
C	-1.3812172191	-0.5318193211	-0.1816536494	-0.357059
C	-1.3987887668	-2.023609433	-0.2155598161	 0.393743
C	-2.4547027969	-3.0504183776	-0.0423529505	-0.099904
C	-1.9622148151	-3.8625177287	-1.236690786	-0.241132
C	-0.6036062175	-3.1457194593	-1.0170069458	-0.126263
C	-0.1912474553	-3.65416947	 0.3713498209	-0.14785
N	-1.3468630601	-2.9179141988	 0.9805924577	-0.188506
H	 0.9697608236	 1.9888981176	 0.470115517	 0.111979
H	-0.3030047046	 2.0117918026	-0.7576362285	 0.112515
H	-0.729973168	 1.9656219315	 0.9568713478	 0.116445
H	 0.7353410628	-0.2848666798	-0.5516749147	 0.095354
H	 0.3004287888	-0.3337426851	 1.1500910122	 0.113226
H	-2.1271054937	-0.2022290088	 0.5534878398	 0.109509
H	-1.7103649339	-0.1408813769	-1.1548216071	 0.097941
H	-3.4613564709	-2.9399989929	 0.3402383349	 0.093973
H	-1.9714402082	-4.9570286419	-1.182742871	 0.092302
H	-2.4559361085	-3.5337415859	-2.1550518788	 0.103825
H	 0.1028023457	-3.0170330138	-1.8354669002	 0.070017
H	-0.1805240749	-4.7377409591	 0.5428550499	 0.091604
H	 0.7349208574	-3.2118472425	 0.7470320518	 0.105661
