14
gdb 2980	5.22091	1.87203	1.6063	2.3395	58.88	-0.2457	0.0185	0.2643	774.9456	0.112535	-324.502042	-324.494694	-324.49375	-324.53337	26.678	
O	-0.7929156472	 0.8546766451	 0.1288380789	-0.423233
C	-0.171990312	-0.4086251245	-0.1049818702	-0.064879
C	 0.8717763819	-0.3255024625	-1.1265730069	 0.293466
C	 1.7493381098	-0.2279829979	-1.9422870522	-0.455121
C	 0.373167117	-1.0213903537	 1.1883053114	 0.019715
C	 0.9618996669	-0.1621257008	 2.2383698669	-0.235021
N	-0.3560744647	-0.7986183613	 2.4369973269	-0.32845
H	-0.1183392471	 1.5353735972	 0.0344086736	 0.295145
H	-0.9789565766	-1.0581044125	-0.4696072876	 0.12658
H	 2.5166771131	-0.1513280803	-2.673012466	 0.206804
H	 0.7533167729	-2.0318526033	 1.0559862637	 0.103159
H	 1.7610344452	-0.5427002235	 2.8672099057	 0.120751
H	 0.9886513725	 0.9106637238	 2.0682331945	 0.09993
H	-1.0724421016	-0.0957288858	 2.2579852915	 0.241157
