25
gdb 105228	1.63966	1.41065	1.06422	1.4747	88.76	-0.2583	0.075	0.3332	1370.8175	0.226583	-389.486215	-389.475024	-389.47408	-389.522063	41.951	
C	 1.0317490829	 1.566245411	 0.2867891952	-0.378547
C	 0.1777124469	 0.3443304478	-0.0782359811	-0.258715
C	 0.6484177039	-0.3861493976	-1.3340256679	 0.342114
C	 1.9287772344	-1.188231616	-1.2526591122	-0.348042
C	 0.6088747752	-1.9081547795	-1.3863155511	-0.051197
C	 0.0630447264	-2.7886622868	-0.2810113671	-0.416132
C	 0.2721669859	 0.3639229311	-2.6173058204	 0.071423
C	 0.9824055977	-0.064096087	-3.9038080543	-0.425078
O	-1.1482182197	 0.3324593582	-2.7934191482	-0.433995
H	 2.0737808417	 1.2813415615	 0.4674320866	 0.113181
H	 1.02851564	 2.3226749227	-0.5044581865	 0.118719
H	 0.6528569692	 2.045135719	 1.1952483186	 0.110197
H	 0.1722955061	-0.3400378718	 0.775098021	 0.088449
H	-0.8620673978	 0.6532619408	-0.2346236973	 0.11181
H	 2.616644832	-1.1962684274	-2.0902115079	 0.106968
H	 2.4189193023	-1.229425187	-0.2837874432	 0.10471
H	 0.4224701236	-2.3203683029	-2.3762853269	 0.075141
H	 0.3611619621	-2.442023928	 0.7117469714	 0.121102
H	-1.0319107849	-2.8356468253	-0.3013108208	 0.114771
H	 0.4394539073	-3.8118627962	-0.3909718686	 0.117191
H	 0.4898725991	 1.4275625133	-2.4649787573	 0.085057
H	 0.5669640729	 0.5077683864	-4.7374874124	 0.125051
H	 2.0574178012	 0.1324680227	-3.8561446928	 0.118232
H	 0.8383640475	-1.1271081587	-4.1271442388	 0.112751
H	-1.4092054659	-0.5954456499	-2.7957285377	 0.27484
