17
gdb 42325	3.21592	1.20267	0.90352	5.7382	75.25	-0.2632	-0.0462	0.217	1245.2284	0.137816	-418.058619	-418.050207	-418.049263	-418.092466	30.064	
O	-0.0186965838	-0.0402503001	 0.1060987184	-0.360863
C	-0.0777198106	 1.1746412354	 0.0659960767	 0.339507
C	 1.1552829716	 1.9904962076	 0.1199278068	 0.21496
N	 2.1429472631	 2.5889373345	 0.1649823938	-0.33246
N	-1.2136148075	 1.8963259562	-0.0271157481	-0.102265
C	-1.3286287775	 3.3618540342	-0.0878499173	-0.167595
C	-2.7733335433	 3.57025426	-0.5643837416	-0.22197
C	-3.5215834534	 2.3728545778	 0.0462622802	-0.229219
C	-2.5169225003	 1.2192478536	-0.0835339547	-0.154714
H	-1.1708969396	 3.8015717218	 0.9050803014	 0.128105
H	-0.5844056634	 3.7865622138	-0.7651442655	 0.143437
H	-3.173623789	 4.537103292	-0.253140996	 0.118066
H	-2.814041644	 3.5247238204	-1.6577711015	 0.119896
H	-3.73928691	 2.5636742269	 1.1024565142	 0.118211
H	-4.4669835385	 2.155044909	-0.4543308554	 0.117877
H	-2.6171905263	 0.6886675729	-1.0381420859	 0.129594
H	-2.5899090476	 0.4736165941	 0.7118335743	 0.139432
