21
gdb 52511	2.74037	0.94403	0.83562	3.3686	89.37	-0.2474	-0.044	0.2034	1523.5355	0.177824	-387.097598	-387.086087	-387.085143	-387.136717	40.062	
C	 0.0109695964	 1.4774555567	 0.0059004059	-0.506277
C	 0.0342581884	 0.0245843911	-0.004798088	 0.138362
C	 0.0362742726	-1.1828593462	-0.0124945916	 0.008509
C	-0.0040902709	-2.6362503209	-0.0218002808	 0.207066
O	-1.066495302	-3.2232407341	-0.0238097855	-0.312205
C	 1.3514199306	-3.3633909824	-0.0287144461	 0.14695
C	 1.1102262992	-4.8782614832	-0.0384238186	-0.40495
C	 2.1345827497	-2.9364150345	-1.2888526969	-0.414847
C	 2.1384128346	-2.9531937853	 1.234616102	-0.41486
H	 1.0148082067	 1.8986788331	-0.1104635355	 0.156025
H	-0.6160350613	 1.8623379169	-0.8056202918	 0.163255
H	-0.4048138651	 1.8497457407	 0.9486448634	 0.163382
H	 0.5407066801	-5.1821114798	-0.9203205862	 0.122885
H	 2.0678856598	-5.4088127044	-0.0433499844	 0.101457
H	 0.5432852924	-5.1938009792	 0.8410232292	 0.122896
H	 2.2968673006	-1.8553167695	-1.3123920738	 0.123199
H	 3.1127563121	-3.4283409552	-1.3018223527	 0.116436
H	 1.6018459413	-3.2215773049	-2.2018464566	 0.12157
H	 1.6085822927	-3.250801427	 2.145329644	 0.121534
H	 3.1167371895	-3.4449798799	 1.2379249347	 0.116427
H	 2.3004489725	-1.872462842	 1.2721752191	 0.123188
