16
gdb 52591	2.5702	1.00754	0.79975	4.3053	77.8	-0.2677	0.0139	0.2816	1450.4811	0.121885	-400.705104	-400.695383	-400.694438	-400.742113	32.652	
C	-0.0675530867	 1.4335683291	-0.1463210225	-0.499314
C	-0.0286991661	-0.0182899632	-0.0571664058	 0.094417
C	-0.0074154777	-1.2181527168	 0.0166856092	 0.090113
C	 0.0508117258	-2.6796734725	 0.0848846263	-0.369662
C	-1.2976635334	-3.2693661743	 0.135929372	 0.314114
N	-2.3430839523	-3.7558169183	 0.1966153756	-0.33306
C	 0.8808107164	-3.2591088143	-1.0712876851	 0.095262
C	 0.6217434168	-4.573705966	-1.6661543998	-0.192369
O	 0.2532016953	-3.358007098	-2.3331659351	-0.213366
H	 0.9433741999	 1.8539477487	-0.1720963247	 0.15441
H	-0.5886921513	 1.7573426942	-1.0532209055	 0.160761
H	-0.5886436371	 1.8669258406	 0.7138118176	 0.157695
H	 0.5586992489	-2.9743379118	 1.0159557981	 0.156785
H	 1.8936388049	-2.8561948965	-1.0867839856	 0.114213
H	 1.4449416765	-5.1231591316	-2.1189063484	 0.125021
H	-0.21228977	-5.1737367092	-1.3097278762	 0.144982
