19
gdb 96190	2.25397	1.91282	1.19514	1.6776	70.75	-0.2514	0.0615	0.3128	1047.2855	0.161131	-460.142427	-460.134697	-460.133752	-460.174692	30.256	
O	 0.0682782099	 1.3972584014	-0.0955288408	-0.443797
C	 0.0696052418	-0.0078395228	 0.0708885546	 0.11597
C	 0.788018242	-0.4673049689	 1.3441148869	-0.237517
C	 0.5440578724	-1.9605376327	 1.5502242482	-0.084488
O	-0.8281979496	-2.2067087297	 1.8260128552	-0.266219
C	-1.729907453	-1.8182864595	 0.8124054939	 0.057195
C	-2.8498154966	-0.9454952042	 1.4030439936	-0.086895
O	-2.2487293011	 0.2581714058	 0.8649624995	-0.310683
C	-1.3640655035	-0.530189026	 0.0280117248	 0.082565
H	-0.6200109831	 1.7348052551	 0.4929314125	 0.29426
H	 0.6055292101	-0.417241711	-0.7956497462	 0.08623
H	 1.8573347948	-0.2468007395	 1.2668853945	 0.103732
H	 0.3926471138	 0.0750308363	 2.2104705626	 0.109044
H	 0.8769537746	-2.5346576126	 0.6684650312	 0.088057
H	 1.0897362609	-2.3418448772	 2.4171848639	 0.114485
H	-2.02666011	-2.6844801972	 0.2090168546	 0.07852
H	-3.8453807313	-1.1194928281	 0.9763777788	 0.102278
H	-2.8977976601	-0.9392145125	 2.4952181605	 0.119964
H	-1.7391803419	-0.5434194466	-1.0039260082	 0.0773
