18
gdb 75174	3.27804	1.05658	0.84962	0.798	78.72	-0.2436	0.0275	0.2711	1359.2492	0.146472	-401.943836	-401.934714	-401.93377	-401.978536	33.025	
C	 0.0946046423	 1.3858130323	 0.2117444902	-0.471967
C	-0.0475589786	-0.0805127136	-0.0105020083	 0.404549
N	 0.2042506455	-0.7121494227	-1.0839216319	-0.303627
C	-0.1042230913	-2.1220363713	-0.818695794	-0.20867
C	-0.5073917039	-2.1729665415	 0.6805691336	 0.090223
C	 0.479586952	-2.9581141212	 1.5572182964	-0.370371
C	 0.1213786443	-2.9802723693	 2.9690120293	 0.300693
C	-0.1925286868	-3.0035697924	 4.1284662538	-0.432231
O	-0.5022893629	-0.7810787282	 1.0692886851	-0.253688
H	 0.7887702232	 1.5788993316	 1.0355001773	 0.146177
H	 0.4603280942	 1.8609796621	-0.69767594	 0.151877
H	-0.8701404898	 1.82004465	 0.4923290012	 0.146551
H	-0.9107624854	-2.459506405	-1.4786354062	 0.115582
H	 0.7699732948	-2.749017695	-1.0316753573	 0.111681
H	-1.5207532941	-2.5513723495	 0.8390413976	 0.101885
H	 0.5298471688	-3.9847373916	 1.1706350418	 0.135324
H	 1.479987403	-2.526494306	 1.4248616025	 0.138795
H	-0.4630583854	-3.0192745388	 5.1550168389	 0.197217
