17
gdb 108603	2.86739	1.29174	0.90584	6.1129	72.83	-0.2601	-0.0295	0.2305	1233.031	0.134753	-459.013415	-459.004133	-459.003189	-459.049015	32.239	
C	 0.1743866331	 1.5860129877	 0.0282545588	-0.499601
C	-0.0079544008	 0.1033544097	 0.0385766175	 0.031941
C	-1.0860115047	-0.6903362166	-0.0087906993	 0.174854
C	-2.5494659999	-0.4021458481	-0.0969255931	-0.175415
O	-2.8098830498	 0.98357997	-0.0204388432	-0.403493
C	-0.6299003528	-2.1282065433	 0.0342261478	-0.166745
O	 0.7878712566	-2.0832014534	 0.1066100991	-0.233413
C	 1.1953419506	-0.7714624381	 0.1131290768	 0.416068
O	 2.3510179893	-0.4570632595	 0.1688641227	-0.349439
H	 0.8534842299	 1.8697816866	-0.7829816323	 0.14048
H	-0.772727984	 2.1076287662	-0.0854213867	 0.152134
H	 0.6584836927	 1.9102711106	 0.9563319186	 0.140558
H	-2.930178523	-0.8318327846	-1.0410433627	 0.110827
H	-3.0607985083	-0.9517263747	 0.7137771881	 0.108032
H	-3.7568259546	 1.1175127806	-0.118647322	 0.296268
H	-1.0180312139	-2.6645730274	 0.910580513	 0.128739
H	-0.9261471904	-2.6920671256	-0.8606177929	 0.128204
