19
gdb 77829	2.50678	1.49975	1.32908	3.9261	76.25	-0.2316	0.0195	0.2511	1071.0236	0.159525	-419.225561	-419.216798	-419.215854	-419.258588	33.151	
C	-0.1956360283	 1.4980461104	 0.0013429566	-0.328347
N	 0.0624706324	 0.0668714109	 0.0949002373	-0.124633
C	 1.3760361666	-0.5160731423	-0.1928459835	-0.210723
C	 2.5842455251	 0.3953211524	-0.1546334289	 0.410669
O	 3.3627958838	 0.6271835002	-1.0536430192	-0.381311
N	 2.6337752372	 0.9211446425	 1.1131175093	-0.311711
C	 1.6742272992	 0.3745670294	 2.053558366	-0.240857
C	 0.7929568412	-0.5408781618	 1.1921354341	 0.315835
C	 0.1736703516	-1.7476262355	 1.8514205919	-0.473586
H	 0.6165085006	 2.1477334262	 0.3543059057	 0.117108
H	-0.3974265616	 1.7432468712	-1.0452177062	 0.136133
H	-1.0975835738	 1.7217987682	 0.5796986888	 0.123469
H	 1.4006094529	-1.3549627867	-0.880759478	 0.106078
H	 3.3444908609	 1.5904397598	 1.3628479648	 0.251905
H	 2.1653239147	-0.2104110336	 2.8419810425	 0.115158
H	 1.0872879173	 1.1634447155	 2.5432135985	 0.114186
H	-0.5014064813	-1.4468417587	 2.6614218279	 0.12211
H	-0.4095640538	-2.3137835037	 1.1222411784	 0.137362
H	 0.9402234451	-2.4028337044	 2.278549614	 0.121156
