15
gdb 124022	3.76349	1.65179	1.15619	4.9552	74.04	-0.1942	0.0089	0.2031	982.078	0.117899	-413.021604	-413.014807	-413.013863	-413.053194	26.069	
C	 0.0113099465	 1.534373516	 0.1927052313	-0.292021
N	 1.3336815478	 1.9838193918	-0.2495813698	-0.299134
C	 2.3402779669	 1.1652959854	-0.6773136743	 0.086704
N	 2.3277668067	-0.1179440128	-0.7739914602	-0.343887
C	 1.120722984	-0.6836524635	-0.3828797167	 0.339673
N	 0.893137139	-1.995796806	-0.4046232217	-0.311865
N	-0.3749657676	-2.1081067612	 0.043813565	-0.184297
C	-0.956228776	-0.9174912356	 0.3481463245	-0.169917
C	-0.0086550365	 0.0409812529	 0.0820744267	 0.177652
H	-0.1702484911	 1.8725089182	 1.2250387864	 0.115851
H	-0.7677670724	 2.0029739933	-0.4289445008	 0.115866
H	 1.5158133431	 2.9726144789	-0.2373827185	 0.249619
H	 3.2436676447	 1.704381966	-0.9610004452	 0.111447
H	-0.7808253081	-3.0242774834	 0.1195446196	 0.274241
H	-1.968622367	-0.8600653999	 0.7177359239	 0.130068
