17
gdb 45139	2.80805	1.64329	1.1327	4.5298	74.45	-0.2614	-0.0456	0.2158	1055.7276	0.137443	-421.844654	-421.837299	-421.836355	-421.876555	28.813	
O	-0.0060785194	-0.0577655726	-0.1525164185	-0.318333
C	 0.0099445007	 1.1443968952	-0.1240057684	 0.381003
O	-1.1848887216	 1.8134394756	-0.0372947798	-0.239696
C	-1.3533023017	 3.0848931157	-0.6264986411	 0.110226
C	-2.1068133777	 4.0953041031	 0.1883920985	-0.324187
C	-0.6258870056	 4.2686720182	-0.0666539375	-0.029943
C	 0.4035992464	 3.9921464428	 1.0182013736	-0.299225
C	 1.4956263863	 3.0963645606	 0.4873824183	-0.064653
C	 1.2898639239	 1.8986537987	-0.0707113526	-0.152701
H	-1.5379950922	 3.0249788867	-1.6952972495	 0.107202
H	-2.8110780905	 4.7454210484	-0.3178890441	 0.121896
H	-2.4094946967	 3.7798100754	 1.1809068327	 0.131859
H	-0.3326951324	 5.0240445869	-0.7900290197	 0.097388
H	 0.8224073819	 4.9290712993	 1.3955349011	 0.113097
H	-0.085503941	 3.5043643902	 1.869249044	 0.133755
H	 2.5202086325	 3.4528858256	 0.5627266338	 0.111412
H	 2.1294556571	 1.3005044601	-0.4086600408	 0.120899
