21
gdb 31694	4.55151	0.82531	0.75489	0.5789	87.27	-0.2074	0.0267	0.234	1613.8923	0.182303	-387.137867	-387.128249	-387.127305	-387.173224	34.993	
C	 0.0887897918	 1.533421112	 0.2244983997	-0.370702
C	-0.0168062492	 0.0337735339	-0.1029490256	-0.290333
C	-1.421150174	-0.4563530852	-0.1942786885	 0.38985
C	-2.1743910192	-0.9696097979	-1.2039908119	-0.395331
C	-3.4812614305	-1.2449342149	-0.6635652575	 0.276543
C	-4.6619515088	-1.8325976924	-1.3787275364	-0.299825
C	-4.4454738838	-3.2912684383	-1.8151302665	-0.364497
C	-3.4083798462	-0.8716884834	 0.640931441	-0.129351
O	-2.1694763165	-0.3914850043	 0.9460747652	-0.187904
H	 1.1361287414	 1.8401396304	 0.3041438038	 0.111315
H	-0.3875035294	 2.1373939026	-0.5537966339	 0.120601
H	-0.4059498949	 1.7571386385	 1.173539267	 0.131861
H	 0.4753920259	-0.1793452948	-1.0572612061	 0.11191
H	 0.5217314513	-0.5405605038	 0.6623806682	 0.1153
H	-1.844582229	-1.1326836566	-2.2192315432	 0.100629
H	-5.5422284215	-1.7737192454	-0.7284315602	 0.100728
H	-4.8951872455	-1.2260702805	-2.2635228412	 0.10577
H	-3.5850162369	-3.3794921277	-2.4859701998	 0.118279
H	-4.2566732386	-3.9330022901	-0.9490181814	 0.119938
H	-5.3240526029	-3.6766808617	-2.3422309419	 0.10978
H	-4.1209733935	-0.8802844404	 1.449891129	 0.125439
