14
gdb 131577	7.20091	0.63847	0.60698	1.6052	77.42	-0.2427	-0.0251	0.2175	1741.0061	0.102242	-432.830153	-432.821789	-432.820845	-432.865343	28.581	
O	 0.301444459	 0.7472113807	 0.9475091915	-0.407694
C	-0.0827855329	 0.17867098	-0.2978464397	-0.22917
C	-1.4258591652	-0.3743203163	-0.1919538174	 0.239844
C	-2.5381834373	-0.834318219	-0.136019425	-0.054989
C	-3.8289109981	-1.4012971387	-0.0402449386	 0.200506
N	-4.8992435029	-0.9111066114	-0.6919482802	-0.271328
N	-5.8707817088	-1.7269921311	-0.3235848412	-0.09871
N	-5.5538141977	-2.7107144316	 0.5103785682	-0.170693
C	-4.2522509626	-2.5249832464	 0.7063865195	-0.174515
H	 1.1890601774	 1.1036737021	 0.8379145594	 0.291655
H	-0.0742437855	 0.9306837398	-1.1034788803	 0.124343
H	 0.6104377829	-0.6226648325	-0.6024955096	 0.120529
H	-6.8123301531	-1.6065896024	-0.6617676831	 0.29644
H	-3.6802117951	-3.171870253	 1.3508774268	 0.133781
