22
gdb 6846	3.12035	1.7841	1.54569	0.1441	82.47	-0.2352	0.0332	0.2684	969.7418	0.201366	-313.099736	-313.091536	-313.090592	-313.131387	33.036	
C	-0.1503183678	 1.5706066846	 0.0350133612	-0.411431
C	-0.0199672794	 0.0355893405	 0.0032793762	 0.277549
C	-1.4249224365	-0.5854757412	 0.0041765538	-0.422139
C	 0.7427032615	-0.4197190416	-1.2610772054	-0.205404
C	 2.1782651519	 0.1222949433	-1.3284721463	-0.270377
C	 2.8856801909	 0.0090304048	-0.004669228	-0.037163
C	 2.2528389913	-0.249122159	 1.1391709878	-0.060059
C	 0.7626658643	-0.4509378046	 1.2461618375	-0.257219
H	 0.8220382713	 2.0605884194	 0.13575529	 0.120796
H	-0.6253323849	 1.9433346044	-0.8796011333	 0.104953
H	-0.7686475745	 1.8872874502	 0.8823024897	 0.106048
H	-2.0179015099	-0.2229738174	-0.8432287358	 0.106323
H	-1.3761076076	-1.6779080906	-0.0650800043	 0.10634
H	-1.9679749224	-0.3324565473	 0.9220380919	 0.106172
H	 0.7788767923	-1.5169796592	-1.2642257408	 0.09165
H	 0.185488854	-0.1235477679	-2.1582549816	 0.08535
H	 2.7425496665	-0.4181321438	-2.0994320816	 0.099111
H	 2.1790755113	 1.1721671744	-1.6569221486	 0.106808
H	 3.9636305477	 0.1544397078	-0.0046414186	 0.079386
H	 2.8225847471	-0.3303436314	 2.0624072097	 0.079606
H	 0.3840239487	 0.0607620934	 2.1416730904	 0.095001
H	 0.5557126239	-1.5184324188	 1.4167116261	 0.098699
