17
gdb 84641	2.77347	1.81837	1.17892	3.7819	76.	-0.2122	-0.008	0.2041	1027.8691	0.137386	-418.023741	-418.01577	-418.014826	-418.056699	29.63	
C	-0.1368767199	 1.4996627282	-0.0270186174	-0.346596
N	-0.0777363354	 0.0439732738	-0.0102750334	-0.13513
C	-0.0205640742	-0.6494645699	-1.2242450414	 0.027122
C	 0.0680502336	-1.9783863261	-1.3055730997	-0.160836
C	 0.0567250919	-2.7678088495	-0.0570157802	-0.061147
C	 1.2303673763	-2.8067576847	 0.8768623232	-0.25284
N	 0.0443849246	-2.0076509529	 1.1992352616	-0.159974
C	 0.1459988116	-0.5955315272	 1.2043637248	 0.437393
O	 0.3648520824	 0.0140419389	 2.2258541275	-0.366161
H	 0.8258543861	 1.941410403	-0.311944813	 0.130936
H	-0.9019384966	 1.8287537085	-0.7361974376	 0.127813
H	-0.3899434981	 1.8432263638	 0.9742995138	 0.170761
H	-0.0417070018	-0.0113046215	-2.1002263757	 0.118901
H	 0.1010166182	-2.4745458212	-2.2666573772	 0.103422
H	-0.6071952944	-3.6317601423	-0.039767232	 0.108143
H	 1.3936397105	-3.6664181072	 1.5201912196	 0.128789
H	 2.128139735	-2.2766033336	 0.5709673372	 0.129405
