19
gdb 31834	4.92239	0.98626	0.83164	1.7002	90.27	-0.1947	-0.0075	0.1872	1409.4742	0.160737	-382.141737	-382.132736	-382.131792	-382.175833	32.929	
C	 0.0321273426	 1.4337680695	-0.1539829983	-0.322045
N	-0.1152386547	 0.0240838226	 0.1201982962	-0.343682
C	 0.57298375	-0.6333411966	 1.1112036242	 0.402467
N	 0.5408298275	-1.9725527351	 1.0446617361	-0.353441
C	 1.162845813	-2.6623468145	 1.9998447931	-0.06684
C	 1.8569703418	-2.1043248702	 3.072406315	 0.256025
C	 2.5354885961	-2.9578345433	 4.1120592869	-0.499074
C	 1.8857064476	-0.7062190187	 3.1162712243	-0.141106
C	 1.2509303715	 0.0449371528	 2.1425543721	-0.203315
H	 1.0740229651	 1.7307225412	-0.3499734002	 0.118577
H	-0.5655978067	 1.6858269058	-1.0322976639	 0.128818
H	-0.3388972874	 2.0407847059	 0.6807121752	 0.131214
H	-0.3919775702	-0.58058166	-0.6366208648	 0.243497
H	 1.1086124157	-3.7464585596	 1.9041336353	 0.093031
H	 3.6126707017	-2.7596860822	 4.1620013932	 0.125722
H	 2.1300781665	-2.7773044361	 5.1146554213	 0.126407
H	 2.4061814432	-4.0214505549	 3.8915372342	 0.123034
H	 2.4133888396	-0.2007338873	 3.9210256395	 0.091984
H	 1.2743068069	 1.1270166408	 2.1770506705	 0.088729
