21
gdb 74413	2.69908	1.36922	1.08908	1.4421	85.21	-0.2128	0.0244	0.2373	1211.2521	0.181149	-387.099736	-387.090513	-387.089569	-387.132837	36.161	
C	 0.0349031551	 1.492418709	 0.0873933875	-0.48557
C	-0.0177594285	-0.0002088707	 0.0020316691	 0.308892
C	-0.0636087957	-0.7500262586	-1.1064735789	-0.240844
C	-0.062270898	-2.2171006941	-0.8225974585	 0.244959
C	-0.8793776743	-3.1724732864	-1.6572411143	-0.49145
C	 1.2058166212	-2.7087229824	-0.1206258251	-0.35432
C	 0.0254217807	-2.2975791028	 0.7017557782	 0.372823
O	-0.5768793771	-3.3207418694	 1.4362062052	-0.470934
C	-0.0177651409	-0.8709730417	 1.2462036134	-0.390046
H	 0.956957572	 1.8360149714	 0.5739632351	 0.124182
H	-0.0134466759	 1.951722571	-0.9039054845	 0.12218
H	-0.7960160688	 1.8868574045	 0.6870870832	 0.120719
H	-0.0798605561	-0.3526238399	-2.1171990308	 0.083534
H	-0.4430163215	-3.3147325628	-2.6525826543	 0.117105
H	-0.9357634741	-4.1516115022	-1.172316649	 0.126009
H	-1.9032761661	-2.8056237775	-1.7953302043	 0.110308
H	 1.388912653	-3.7783463452	-0.1501871286	 0.115361
H	 2.0939761691	-2.0851256813	-0.1423773744	 0.104873
H	-1.5167906702	-3.1195907861	 1.5110795074	 0.278625
H	 0.8263347251	-0.6529379663	 1.9129254819	 0.111938
H	-0.927723219	-0.7095050484	 1.8456671619	 0.091657
