21
gdb 117407	5.98952	0.54422	0.50659	2.306	86.2	-0.2452	-0.014	0.2311	2176.4147	0.178451	-387.088724	-387.077611	-387.076666	-387.127024	38.538	
C	 0.0139958096	 1.6160779735	-0.0544270296	-0.387172
C	-0.0047764477	 0.0872577025	 0.0136132896	-0.159243
C	 0.6781577886	-0.5639404786	-1.1891923642	-0.280076
C	 0.6772487479	-2.0861769025	-1.1544736267	 0.36341
O	 0.1721312357	-2.7109231308	-0.2486102965	-0.297213
C	 1.3500831933	-2.7868977366	-2.3291423819	-0.292788
C	 1.2979223592	-4.3190659368	-2.2182126345	-0.357147
C	 1.9452129914	-4.9786679671	-3.3449498653	 0.285075
C	 2.485147616	-5.499370937	-4.2842901508	-0.4305
H	 1.0391298646	 2.0024786384	-0.0846803949	 0.11309
H	-0.5021072111	 1.9829262124	-0.9489562359	 0.113101
H	-0.4803167856	 2.0556937446	 0.8171187624	 0.116749
H	 0.4854438712	-0.2569195115	 0.9304985132	 0.112661
H	-1.0358896212	-0.2762980342	 0.0771077256	 0.112834
H	 0.2028347288	-0.2474427699	-2.1291701415	 0.119121
H	 1.7218190763	-0.2283835991	-1.2773509056	 0.118932
H	 0.8745973513	-2.4518265389	-3.2595827116	 0.132826
H	 2.3894649759	-2.4414474782	-2.3967626753	 0.133085
H	 1.7669907607	-4.6283856786	-1.2777294323	 0.145332
H	 0.2531132771	-4.6396039318	-2.1413239218	 0.145061
H	 2.958503908	-5.9753042596	-5.1066784425	 0.192861
