25
gdb 122160	2.86745	0.73959	0.66471	1.2661	90.08	-0.2501	0.0829	0.333	1846.4767	0.226622	-389.48616	-389.474952	-389.474008	-389.522977	41.258	
C	-0.4219128475	 1.4831387721	 0.0661810351	-0.380733
C	 0.0914536257	 0.0462453423	-0.0597692642	-0.159416
C	 0.655838068	-0.5112910101	 1.251799169	-0.16089
C	 1.1629807714	-1.953852489	 1.1196593587	-0.260274
C	 1.6870728443	-2.5562656613	 2.4154166099	 0.336689
C	 2.9756463267	-1.9564513703	 2.9480809708	-0.460072
C	 0.6659836993	-3.0380787395	 3.4368876114	-0.365207
C	 1.4840482294	-4.0313592467	 2.6465148344	 0.052645
O	 0.8770259173	-4.7802451361	 1.6318312303	-0.420094
H	 0.3781862319	 2.1637402023	 0.3786165845	 0.11167
H	-0.8193277709	 1.8520631267	-0.8847563635	 0.109104
H	-1.2225195643	 1.5537272462	 0.8111567576	 0.111482
H	-0.7211654193	-0.6048913217	-0.4085868999	 0.093164
H	 0.8669369915	 0.0009265811	-0.8360335716	 0.09327
H	 1.4656427884	 0.1441661189	 1.5986812841	 0.090464
H	-0.1199183687	-0.4701123688	 2.0286716371	 0.09055
H	 0.3605963603	-2.5902829091	 0.7341117064	 0.107414
H	 1.9625796289	-1.9886716705	 0.3660582546	 0.089315
H	 2.8475802059	-0.9031449104	 3.2201578774	 0.118914
H	 3.3202804519	-2.4844980782	 3.8429711949	 0.109204
H	 3.7737473776	-2.0136933687	 2.198380262	 0.1155
H	 0.8710864831	-2.9090487149	 4.4949524483	 0.103951
H	-0.3818358438	-2.9526884717	 3.1655095288	 0.107372
H	 2.2816825048	-4.5577874061	 3.1727981939	 0.079395
H	 0.2689767984	-5.4007130667	 2.0463933198	 0.286586
