19
gdb 90151	3.19531	1.49886	1.39185	1.2457	73.71	-0.2247	0.0722	0.2969	1019.1793	0.159347	-422.969564	-422.961825	-422.960881	-423.001425	30.779	
C	-0.2146634607	 1.4536002288	 0.0079633679	-0.405505
C	 0.0859016671	-0.0344734711	 0.1105554387	-0.037275
C	 1.1470085949	-0.6837960125	-0.8632817323	-0.318775
C	 1.9141954028	-1.1965693271	 0.3680925353	 0.302048
C	 2.3773845455	-0.1199763236	 1.3130213147	-0.377322
C	 0.9300305847	-0.5492964128	 1.2987757829	 0.286417
O	 0.5378198284	-1.5305228519	 2.2191728452	-0.290204
C	 0.904261268	-2.7717053032	 1.6094540058	-0.000965
O	 2.041614962	-2.5302988247	 0.7745664332	-0.289997
H	 0.7006862583	 2.0528344092	 0.0600057284	 0.116315
H	-0.7102382158	 1.6883800265	-0.940297832	 0.115292
H	-0.8715313833	 1.7779044796	 0.8217868559	 0.12401
H	-0.8448888999	-0.607942789	 0.0699704181	 0.088713
H	 0.7318305965	-1.4907926007	-1.4695637739	 0.115461
H	 1.7025089295	-0.0014479459	-1.5145109329	 0.103255
H	 2.9365967438	-0.4785010745	 2.1678885836	 0.133058
H	 2.6744764577	 0.8542593205	 0.9338494142	 0.114937
H	 1.1792390015	-3.4857246477	 2.3900463396	 0.124847
H	 0.0675475789	-3.1618332099	 1.0072223675	 0.095688
