17
gdb 103006	2.18798	1.4264	1.19727	1.1206	71.7	-0.2309	0.0167	0.2476	1119.7858	0.13222	-458.883933	-458.874275	-458.873331	-458.917998	35.647	
C	 0.2307807828	 1.1152390691	 0.3524434391	-0.260384
O	-0.1620021011	-0.1445576727	-0.1941137396	-0.300075
C	 0.6159097076	-0.5680175902	-1.2730960538	 0.11374
C	 0.4256806697	 0.107991901	-2.5236360508	 0.312871
C	 0.295681621	 0.6788973509	-3.5753020086	-0.440128
C	 2.0030307662	-1.1803245248	-0.9530239272	 0.022184
O	 2.4582662193	-1.1558967623	 0.3533545513	-0.425429
C	 0.8312215384	-2.0799972751	-1.2461167355	-0.017712
O	 0.3214755251	-2.751061481	-0.1327819256	-0.438639
H	 1.2587860738	 1.0711717497	 0.7238502555	 0.143509
H	 0.1383170114	 1.9070804861	-0.4002294427	 0.127083
H	-0.4555577743	 1.3202085078	 1.1765110169	 0.128592
H	 0.1714762817	 1.1802180369	-4.5032520643	 0.198117
H	 2.7806429045	-1.0430325598	-1.6980240486	 0.116434
H	 1.9789340289	-1.866008353	 0.8090533408	 0.292825
H	 0.7665101422	-2.6393651741	-2.173686396	 0.119088
H	-0.3175329972	-2.1487710385	 0.277629229	 0.307924
