17
gdb 51021	2.15122	1.42164	1.00551	4.3462	77.15	-0.2362	0.0147	0.2509	1208.8116	0.134318	-417.931532	-417.92244	-417.921496	-417.965936	32.904	
N	-0.1214121268	 1.3022171461	 0.0698736438	-0.438563
C	-0.0408054964	 0.0439417337	 0.0396585836	 0.116916
O	-1.167218387	-0.69027385	-0.1106005221	-0.226251
C	-1.0294234512	-2.1121921231	-0.0424818146	 0.221565
C	-0.8420654832	-2.6469198786	 1.4153270823	-0.215548
N	-2.3013800185	-2.8612802156	 1.5079009298	-0.312123
C	-2.4544994238	-2.7267722452	 0.0420015907	-0.207697
C	-0.1317490765	-2.6274391942	-1.0635001785	 0.297878
C	 0.609948902	-3.0654020779	-1.9021835026	-0.469037
H	 0.8075326618	 1.7053751269	 0.1749416864	 0.229759
H	 0.8737990754	-0.5564446857	 0.1104474734	 0.100134
H	-0.228284125	-3.5558236034	 1.437268687	 0.10801
H	-0.4421722214	-1.9204550162	 2.1307871855	 0.120571
H	-2.5770351467	-3.7591347268	 1.88647649	 0.225684
H	-3.2502578611	-2.0463265269	-0.2734565436	 0.13326
H	-2.5261682504	-3.6685963275	-0.5142503661	 0.108429
H	 1.2611229788	-3.4478696957	-2.6495182949	 0.207014
