18
gdb 24597	4.86256	0.96727	0.91398	2.8058	79.05	-0.2018	0.0372	0.239	1297.0328	0.150107	-401.958481	-401.950662	-401.949717	-401.992094	29.254	
C	 0.0850283511	 1.5688874532	-0.0421871008	-0.078719
O	 1.5201737628	 1.4773437629	 0.0334490613	-0.272465
C	 1.4554349007	 0.0702993227	 0.333079683	-0.078717
C	-0.06819221	 0.0241497478	 0.0306956474	-0.157999
C	-0.9966190644	-0.5760305247	 1.0243837229	 0.30628
C	-1.1437884077	-0.3703874217	 2.3828694154	-0.226654
C	-2.1914567158	-1.2134956675	 2.8422780962	-0.134782
C	-2.6606716117	-1.9145922065	 1.7559709148	-0.100699
N	-1.9309482683	-1.5207913489	 0.6636965129	-0.299565
H	-0.343601075	 2.0913532717	 0.8229322077	 0.104867
H	-0.2513213811	 2.0581382862	-0.9636015172	 0.101923
H	 2.1087592301	-0.5226945558	-0.3173260482	 0.101923
H	 1.6988678287	-0.1421598	 1.3822346999	 0.104867
H	-0.2586639292	-0.3982181006	-0.9604194416	 0.069089
H	-0.5599049737	 0.3133349628	 2.9808302083	 0.095293
H	-2.558159025	-1.2955479691	 3.853875668	 0.093372
H	-3.4422633658	-2.6516633437	 1.6668871581	 0.115404
H	-2.0558213156	-1.8690955388	-0.2712124582	 0.256583
