17
gdb 81516	2.31489	1.95637	1.22398	3.658	73.42	-0.2641	0.0306	0.2946	1008.1081	0.136431	-417.952109	-417.943855	-417.942911	-417.98447	31.929	
N	-0.0260629818	 1.4623840733	-0.047439692	-0.558598
C	 0.0110710274	 0.0007030273	-0.0323715684	 0.207376
C	 1.0059750257	-0.4698636456	-1.0063195935	 0.216563
N	 1.8385638402	-0.6547850615	-1.7889046164	-0.359695
C	-0.0231704264	-0.6811655475	 1.3818447621	-0.142219
C	-1.4817703616	-0.1576665165	 1.5174256427	-0.247746
C	-1.383429475	-0.7227185674	 0.0688943813	-0.108667
C	-0.6678707383	-1.9389729472	 0.705914412	 0.144105
O	 0.0488838903	-2.7593303547	-0.1678344648	-0.420366
H	 0.9056152947	 1.8242540157	 0.1398497083	 0.242361
H	-0.2616359831	 1.7816007129	-0.9838007873	 0.243262
H	 0.7750438659	-0.650644256	 2.1251416568	 0.083007
H	-2.1263365424	-0.7148893644	 2.1997470801	 0.099498
H	-1.5989586679	 0.9170343333	 1.6072536306	 0.137736
H	-2.1521946092	-0.7393626195	-0.7036935555	 0.090496
H	-1.2974681512	-2.5272828475	 1.3849862575	 0.0802
H	 0.7291237627	-3.2315385647	 0.3228157363	 0.292685
