14
gdb 128547	2.36794	1.53876	0.93827	3.5201	76.92	-0.2246	-0.0418	0.1829	1176.1188	0.099505	-436.627537	-436.619326	-436.618381	-436.660821	29.554	
C	-0.0176799891	 1.4329640039	 0.0147783274	-0.258701
O	-0.0030443138	 0.0124161613	 0.0037286356	-0.255576
C	 0.5986346197	-0.5644718095	-1.0494201632	 0.137629
C	 0.7195341281	-1.9198482983	-1.246012994	 0.203401
O	 1.3847118575	-2.1285928625	-2.4158057563	-0.210748
N	 1.7020199304	-0.9212789992	-2.9898299573	-0.119307
C	 1.2378629797	 0.0060100559	-2.1828865285	-0.105493
C	 0.2994640799	-3.0241914393	-0.4922473052	 0.250876
C	-0.0664557042	-3.964999936	 0.1642732767	-0.393861
H	 1.000610345	 1.8414624044	 0.0295672708	 0.131556
H	-0.5562577326	 1.8323041294	-0.8538266064	 0.131549
H	-0.5373332865	 1.7255458068	 0.9275266662	 0.148099
H	 1.3758995843	 1.0456583911	-2.4387668367	 0.138316
H	-0.3887977384	-4.7949953581	 0.7430166409	 0.20226
