14
gdb 42173	2.15261	1.69776	1.03872	2.5634	76.35	-0.2573	-0.0751	0.1822	1104.4172	0.097825	-399.458846	-399.450044	-399.4491	-399.492591	32.135	
O	 0.1445867629	 0.7616061393	 1.4663227952	-0.320089
C	 0.0036853124	 1.446434484	 0.4714999634	 0.223743
C	 1.1121996341	 1.7726723997	-0.3938841874	 0.268074
C	 2.0535301757	 2.0166027928	-1.102389442	-0.420216
C	-1.3629701957	 1.9706909757	 0.0885184061	 0.039266
C	-2.4323509174	 0.8958014317	 0.0940724176	-0.24207
N	-2.3812918615	 1.8754862486	 1.1588178185	-0.32763
C	-1.449645895	 3.0815639681	-0.8175494873	 0.188422
C	-1.5212505289	 4.0030720663	-1.5849522364	-0.361799
H	 2.8837852196	 2.2360548572	-1.7291659751	 0.21977
H	-3.2512322257	 1.0074845603	-0.6095808865	 0.142799
H	-2.0989322056	-0.1192437387	 0.291340255	 0.139243
H	-1.9074238876	 1.4599540027	 1.963300951	 0.255677
H	-1.5843785074	 4.8236439123	-2.2561062219	 0.194812
