21
gdb 70274	3.63949	1.0164	0.90888	2.9803	83.51	-0.2477	-0.019	0.2287	1344.4955	0.182685	-387.111247	-387.102507	-387.101563	-387.144821	33.565	
C	 0.0663658444	 1.5038611331	-0.0551652632	-0.480311
C	 0.0245847554	-0.0042526952	 0.0106858908	 0.361289
C	-0.8206129944	-0.6909650692	 1.0599747493	-0.331008
C	 0.6866079454	-0.8031035847	 1.1134911396	-0.066554
C	 1.3180788749	-2.0469570987	 0.5105418656	-0.246765
C	 0.6222539933	-2.2211258876	-0.8691763202	-0.075411
C	 0.2284490279	-0.7793758941	-1.2881570068	-0.295507
C	 1.5352474759	-2.8725302295	-1.8793557599	 0.149353
O	 1.3185178215	-3.9046297823	-2.4586648869	-0.250475
H	 1.0037051079	 1.8570546541	-0.501612179	 0.114257
H	-0.7575481902	 1.899219807	-0.6610326843	 0.119069
H	-0.017172636	 1.9473903202	 0.9420080501	 0.115956
H	-1.2906564801	-0.0526381137	 1.8008240045	 0.108109
H	-1.4118151718	-1.5622333453	 0.795911188	 0.110815
H	 1.2091312788	-0.3039774247	 1.9229987603	 0.082438
H	 2.3949243564	-1.8787838289	 0.3721177928	 0.101242
H	 1.2098395642	-2.9445189319	 1.1278904054	 0.112849
H	-0.2627615388	-2.854520154	-0.7774454444	 0.096441
H	-0.6496072903	-0.775779329	-1.9427760376	 0.110433
H	 1.049696851	-0.3137401326	-1.8518819816	 0.097526
H	 2.4779274846	-2.2990706431	-2.0606111525	 0.066253
