13
gdb 129896	5.60406	1.3403	1.08279	2.1761	68.83	-0.2	-0.0222	0.1778	1011.1554	0.092701	-445.088722	-445.082024	-445.08108	-445.119507	26.136	
N	 0.0262624549	 1.3521882366	 0.163150036	-0.5903
C	-0.0319681083	-0.0268161486	 0.0560803379	 0.315002
C	-1.1614667325	-0.8341032708	 0.0330142838	-0.234419
N	-0.6272596085	-2.1163765473	-0.0093767522	 0.048046
N	-0.9971668246	-3.417507248	-0.0558582823	-0.145565
N	 0.084718319	-4.1169836623	-0.0840978709	-0.084441
N	 1.1551267751	-3.2710593435	-0.0580208448	-0.371884
C	 0.730310753	-1.9843290677	-0.0105784502	 0.560488
N	 1.1556085142	-0.7433900279	 0.0252701395	-0.44217
H	 0.9132515028	 1.7214838685	-0.1497304657	 0.257581
H	-0.7549378973	 1.8450248121	-0.2439527576	 0.251062
H	-2.2161242591	-0.6344435392	 0.0579132508	 0.1381
H	 2.0872602913	-3.6459168318	-0.0714308844	 0.2985
