19
gdb 73586	2.37076	1.95027	1.473	1.3423	73.43	-0.2389	0.075	0.3139	963.0753	0.160668	-422.993808	-422.986419	-422.985475	-423.025214	30.376	
O	-0.0707590849	 1.356095601	-0.0211945917	-0.489225
C	-0.0057631043	-0.0521139209	-0.0485689218	 0.415266
C	-1.3654872782	-0.6218055646	-0.4730255722	-0.288187
C	-1.8765601362	-1.2560320673	 0.8401063435	-0.076049
O	-0.7164268892	-1.7048976126	 1.5482341668	-0.26646
C	 0.3037900356	-0.7576252956	 1.307109962	 0.037281
C	 1.6354149142	-1.2826165934	 0.7459664205	-0.076974
C	 1.3864160728	-2.113581177	-0.4746374676	-0.290991
C	 1.3216646847	-0.6183773223	-0.6068131406	-0.145991
H	 0.7690556234	 1.6858430902	 0.3182433762	 0.275897
H	-2.022059058	 0.1687597716	-0.8412461216	 0.116433
H	-1.257451465	-1.377841881	-1.2542106644	 0.109468
H	-2.4230439629	-0.5093446922	 1.4364057222	 0.09914
H	-2.527548407	-2.1217483858	 0.6924347318	 0.107575
H	 0.4188255501	-0.0536991443	 2.142610908	 0.065797
H	 2.568285294	-1.3214064312	 1.2939239116	 0.086376
H	 2.2680308372	-2.574285701	-0.9082795676	 0.114095
H	 0.4896634869	-2.7217830888	-0.537619125	 0.11954
H	 1.9757046168	-0.0671238248	-1.2731655799	 0.08701
