18
gdb 16489	2.73034	2.58442	1.74086	1.1156	70.62	-0.2367	0.077	0.3137	821.2645	0.153967	-347.750439	-347.743235	-347.742291	-347.781262	28.947	
C	-0.0205557865	 1.6201706735	-0.0686447245	-0.434737
C	 0.0762276643	 0.1010750035	-0.0070155662	-0.022901
C	 1.1247037074	-0.6944899827	-0.8554866883	-0.08378
C	 2.5172039029	-0.1374499438	-0.442767192	-0.236517
C	 2.2258425094	-0.7412893146	 0.9271523657	-0.136476
C	 1.2325848593	-1.7295080644	 0.3377786092	-0.131795
C	 0.7071271672	-0.6134420751	 1.1877664486	 0.382986
O	 0.1782304634	-0.7499473406	 2.4567982351	-0.468554
H	 0.936256981	 2.1052644561	 0.1459188347	 0.114697
H	-0.3545873918	 1.9567736272	-1.056493788	 0.114876
H	-0.7480346175	 1.9869439567	 0.6643627768	 0.114965
H	-0.9100846899	-0.3444170196	-0.1840290945	 0.074279
H	 0.9056362439	-0.9417196525	-1.8920989307	 0.067825
H	 3.3220454868	-0.6782782567	-0.9496246636	 0.098321
H	 2.6939180464	 0.9399061194	-0.5349142082	 0.085851
H	 2.8991438543	-0.9135596043	 1.7581129499	 0.081394
H	 1.1440779932	-2.8030517941	 0.4101008528	 0.094246
H	 0.4613225663	 0.0031745619	 2.9866580928	 0.285321
