17
gdb 68819	2.6626	1.40528	1.15023	3.2655	70.41	-0.2372	-0.0301	0.2072	1106.3208	0.132456	-458.922441	-458.913489	-458.912545	-458.956016	32.918	
C	-0.0353783742	 1.5131423889	 0.059368243	-0.494006
C	-0.0003949478	 0.0227141109	 0.0821135169	 0.421114
C	 1.1127389114	-0.8754713673	-0.4019819889	-0.409374
C	 0.5830443332	-1.01433349	 1.0117172771	 0.231275
O	 1.3287156898	-0.8713568879	 2.157457527	-0.450006
C	-0.8252296366	-1.6592084331	 0.9494069412	-0.016491
O	-1.2531619137	-0.6795965808	-0.0119349438	-0.313089
C	-0.858569635	-3.0924401084	 0.4919063872	 0.135041
O	-1.0013518007	-3.4581542924	-0.646207234	-0.246044
H	 0.9582089357	 1.9193827685	 0.2669997712	 0.13186
H	-0.3535755175	 1.8753061507	-0.9243019085	 0.138802
H	-0.7346559666	 1.8956989165	 0.8086942824	 0.134674
H	 0.9166941112	-1.6311572872	-1.157165316	 0.142027
H	 2.0866931418	-0.3965826875	-0.4468859549	 0.119594
H	 2.0694317702	-1.4869366518	 2.1252110233	 0.295675
H	-1.3574005444	-1.5458459354	 1.9036261111	 0.105312
H	-0.6772144567	-3.8174816938	 1.3215309659	 0.073636
