14
gdb 84420	3.33301	1.28369	0.96996	2.5292	66.36	-0.2537	-0.0511	0.2026	1131.9327	0.100648	-473.874651	-473.866673	-473.865729	-473.907587	28.807	
O	 0.1774079453	 1.4124096636	-0.2065870426	-0.405073
C	 0.0771321448	 0.0190035124	-0.0179746482	-0.023812
C	 0.648607221	-0.5372815363	 1.2638813524	-0.209186
C	-0.2676567498	-1.2811426176	 1.8846106387	-0.001461
N	-1.4919410096	-1.3007610953	 1.1753762875	-0.13807
C	-2.6421943429	-1.9587003808	 1.5890320079	 0.163408
O	-2.7002998599	-2.619077554	 2.5967531397	-0.303555
C	-1.3910135783	-0.4925768891	 0.0193202364	 0.381773
O	-2.2872361552	-0.2546924585	-0.7428904761	-0.325937
H	-0.2093390176	 1.8495876891	 0.5607480648	 0.289918
H	 0.558588988	-0.4255235076	-0.8984675714	 0.139342
H	 1.6617736754	-0.3676475736	 1.5962090017	 0.13057
H	-0.2167670197	-1.8473560924	 2.8024315655	 0.169898
H	-3.4721200515	-1.8010301799	 0.8837806438	 0.132184
