19
gdb 119938	2.53141	0.96859	0.85555	4.2807	76.97	-0.2483	0.0137	0.2621	1417.5443	0.157817	-419.178754	-419.168776	-419.167832	-419.214211	35.238	
C	-1.7620033378	 0.8259467577	-0.6454808013	-0.328833
N	-0.7961191061	-0.257805488	-0.4938544231	-0.095666
C	 0.3782067828	-0.3480828068	-1.3520800384	-0.011892
C	 0.7067920285	 0.6170993448	-2.4702859674	-0.21413
C	-0.0055486566	 0.2567212135	-3.7724277472	-0.073105
O	 0.4572873371	 1.153856365	-4.7659817179	-0.416928
C	 0.5155403509	 0.029658179	 0.1017341374	-0.189632
C	 0.8891156187	 1.3798882874	 0.4466809894	 0.29729
N	 1.1764193856	 2.4592940934	 0.7491100575	-0.343285
H	-1.3317867752	 1.8044662618	-0.8933411007	 0.133999
H	-2.4729969773	 0.5440555381	-1.427288674	 0.131199
H	-2.3121596554	 0.9275443465	 0.294198071	 0.139212
H	 0.6402962438	-1.3822006991	-1.5784088053	 0.1057
H	 0.4696503947	 1.6493862823	-2.2020422003	 0.132706
H	 1.7875612269	 0.586088217	-2.6519487541	 0.125763
H	 0.217053071	-0.7898790483	-4.0386461972	 0.08927
H	-1.0963279556	 0.3318953683	-3.6385031126	 0.093479
H	 0.0088840774	 0.9505422892	-5.591952235	 0.289616
H	 0.8656164265	-0.7098405016	 0.8176728691	 0.135237
