17
gdb 49232	3.3852	1.36764	1.1418	3.9605	75.77	-0.2441	-0.062	0.1821	1077.1662	0.137295	-421.827417	-421.820267	-421.819323	-421.859098	27.996	
O	-0.0833083744	-0.0214303797	-0.009094813	-0.27746
C	-0.0016118808	 1.1861726911	 0.0441492171	 0.066108
C	 1.2584562819	 1.9338916856	 0.0177091739	 0.268882
C	 1.2953402884	 3.275499502	 0.0450741313	-0.143596
C	 2.6349279069	 3.9680773707	-0.0031771864	-0.268307
C	 3.7415221723	 2.9030353726	-0.1015894868	 0.086844
C	 3.4421240387	 1.8488257488	-1.1908461446	-0.245592
C	 2.6043756422	 1.2363562197	-0.0446114335	-0.028759
O	 3.4892273868	 1.893513155	 0.9167371678	-0.294128
H	-0.9118342591	 1.8239281835	 0.1162639673	 0.068683
H	 0.3856727235	 3.8687539777	 0.1091463702	 0.110125
H	 2.6801435224	 4.6642825162	-0.8517871247	 0.119789
H	 2.7745027532	 4.5757332644	 0.9007367386	 0.130894
H	 4.7455765881	 3.32806401	-0.0288051237	 0.082424
H	 2.9308105169	 2.152627923	-2.1063324409	 0.103154
H	 4.3250537905	 1.2496945698	-1.4169424386	 0.116851
H	 2.5405138925	 0.1576461397	 0.0924264058	 0.10409
