18
gdb 38509	3.71972	1.42643	1.13075	2.7477	77.37	-0.2194	0.0167	0.2361	1075.1286	0.150667	-401.924667	-401.917627	-401.916683	-401.956181	27.782	
C	-0.0691506013	 1.4719329869	 0.0266010694	-0.181761
O	 1.2637857834	 1.8945733324	-0.291314063	-0.274562
C	 2.1001197249	 0.7684165158	-0.5903226214	-0.191809
C	 1.2421469164	-0.415327557	-0.2784535021	 0.292379
C	 0.0206298921	-0.0196230529	 0.0780251793	 0.221629
C	-0.9218277125	-1.1665016871	 0.3446869255	-0.353902
C	-0.0394635908	-2.3774124036	 0.0063890231	-0.020455
N	 0.3950213179	-2.4343621735	-1.4044968663	-0.328966
C	 1.3261381345	-1.8954847424	-0.3695814549	-0.222275
H	-0.371265317	 1.9296381091	 0.9808221258	 0.104274
H	-0.775007531	 1.8285064224	-0.7420209198	 0.104225
H	 2.4119428279	 0.7962211773	-1.6472864347	 0.107774
H	 3.0131329761	 0.8305982963	 0.0204733431	 0.103838
H	-1.2655529181	-1.1965771244	 1.3868980007	 0.108223
H	-1.8157894126	-1.1350476329	-0.289466538	 0.123762
H	-0.1867547068	-3.3109401381	 0.5389999707	 0.089836
H	 0.662797034	-3.3950328363	-1.614924424	 0.22767
H	 2.229844033	-2.4485939719	-0.1372415535	 0.090121
