18
gdb 14931	4.31281	1.43525	1.12536	3.5225	76.6	-0.2455	-0.0474	0.1981	1053.393	0.155423	-347.847508	-347.840115	-347.839171	-347.879239	28.068	
O	-0.1034612343	-0.0299092527	-0.0012373907	-0.277892
C	-0.0286979871	 1.1787101272	 0.0145301325	 0.088928
C	 1.2330722261	 1.9384723311	 0.0100470273	 0.225278
C	 1.1741289406	 3.2794455267	 0.0189221112	-0.118902
C	 2.3801471735	 4.1719317842	 0.0296090665	-0.251069
C	 3.6740080301	 3.4025314337	 0.3396797628	-0.200156
C	 3.7136062535	 2.0672904947	-0.4149960531	-0.208331
C	 2.5333641815	 1.1731670663	-0.011650844	-0.292097
H	-0.945983918	 1.8112518267	 0.0340298466	 0.062137
H	 0.1966114175	 3.7608456007	 0.0110226035	 0.096316
H	 2.455057965	 4.668525104	-0.9502063979	 0.120761
H	 2.2284645322	 4.9858072345	 0.7501402864	 0.113694
H	 4.543965952	 4.0180713813	 0.0892700548	 0.097351
H	 3.7263845927	 3.2071594044	 1.4183922016	 0.103606
H	 3.6703051548	 2.2614928844	-1.4947716131	 0.100121
H	 4.6590897993	 1.5482827604	-0.2274998374	 0.098417
H	 2.7071460373	 0.7356518296	 0.9811721854	 0.117429
H	 2.4304682834	 0.3173256327	-0.6866977224	 0.12441
