15
gdb 35399	3.12942	1.68269	1.38885	2.9594	69.76	-0.2507	0.0181	0.2688	930.3822	0.111359	-420.503369	-420.496294	-420.49535	-420.534828	27.848	
C	-0.1684065103	-1.270553769	-0.1352719986	-0.440342
C	-0.0474064878	-0.0837749551	 0.0097518861	 0.352978
C	 0.0505780862	 1.3596200587	 0.1028139203	-0.069826
O	-0.1513756496	 1.9183439195	 1.43825629	-0.292659
C	 1.0702943284	 2.6699022014	 1.3622723495	 0.087459
C	 2.3299088153	 1.9797772132	 1.9686466528	-0.005246
O	 2.2043940957	 0.5829295845	 1.7240112043	-0.210248
C	 2.6576079832	 1.3950036472	 0.6467154323	 0.016832
C	 1.4313288421	 2.0717188356	-0.0137960678	-0.150628
H	-0.2563209925	-2.3238477024	-0.2391022218	 0.199307
H	-0.676488237	 1.8136310934	-0.5837698619	 0.10797
H	 0.9519558425	 3.7378072785	 1.5573769144	 0.087364
H	 2.9549029286	 2.2876290325	 2.7993342311	 0.109101
H	 3.6075048564	 1.1382382186	 0.1929453238	 0.112784
H	 1.6245720587	 2.6801372535	-0.8945675247	 0.095153
