20
gdb 5874	4.02179	1.05112	1.04614	3.9496	72.65	-0.2777	0.0091	0.2869	1235.6048	0.17384	-386.176398	-386.166605	-386.165661	-386.211202	34.984	
C	-0.0734780447	 1.5909161883	 0.0630522359	-0.40433
C	 0.0139064246	 0.0621284614	-0.0904364905	 0.24558
C	 0.9259307885	-0.525872961	 1.0000393774	-0.413876
C	-1.3913386093	-0.5572429726	 0.012094564	-0.411351
C	 0.5652608204	-0.2873412976	-1.4822048802	-0.084095
O	 1.8660180719	 0.2810793407	-1.6878842343	-0.184636
C	 2.8930290005	-0.5401446984	-1.9696695107	 0.172062
O	 4.0054183756	-0.1472301384	-2.1538993015	-0.276567
H	 0.9096789108	 2.0538936206	-0.0539103902	 0.136529
H	-0.7431249741	 2.0256537317	-0.6874052535	 0.109549
H	-0.4621147732	 1.8564540534	 1.0514809024	 0.112197
H	 0.5241608452	-0.3069644898	 1.99443621	 0.117347
H	 1.0070059304	-1.6152158631	 0.9079630386	 0.106439
H	 1.9332243463	-0.1031899392	 0.9474256364	 0.132963
H	-2.058157862	-0.1692423817	-0.7659264822	 0.114351
H	-1.3586989536	-1.6483966971	-0.0840004267	 0.112315
H	-1.8419370349	-0.3231193839	 0.9815992942	 0.120504
H	 0.6147295284	-1.377038784	-1.6120480084	 0.103261
H	-0.0859592118	 0.1196879752	-2.2636448925	 0.116032
H	 2.5901484611	-1.6052671746	-2.0122159782	 0.075727
