15
gdb 123769	4.8679	1.05678	0.96958	3.9507	66.4	-0.2712	-0.0479	0.2233	1186.8155	0.113518	-453.879444	-453.872134	-453.87119	-453.912747	26.009	
C	-0.2200080274	 0.9889530148	 0.3099401109	-0.065455
C	 1.032766839	 1.1890966922	-0.5640655996	-0.28927
C	 1.7714984016	 0.4630796558	 0.5925340624	 0.042672
O	 0.5193109271	 0.1719448696	 1.2500643734	-0.290241
C	 2.5278533462	-0.7822834286	 0.2740721869	 0.325335
N	 3.8243601298	-0.8135496521	 0.1161501174	-0.162382
O	 4.1322853959	-2.1089722944	-0.1907598721	-0.144953
N	 3.0150346351	-2.8957805461	-0.2092395018	-0.062652
C	 2.0227547823	-2.0992951565	 0.0721457785	-0.100433
H	-0.6030634656	 1.9003808406	 0.7840201591	 0.113387
H	-1.0551169578	 0.4396273634	-0.1366415347	 0.115145
H	 1.0249768983	 0.6308900497	-1.5012263413	 0.124662
H	 1.3458629137	 2.2154692642	-0.7548038404	 0.127152
H	 2.402343176	 1.130491651	 1.1914654626	 0.108186
H	 1.0093319258	-2.4593868235	 0.1417492088	 0.158846
