18
gdb 112053	2.64184	1.44358	1.05264	2.4154	72.18	-0.2408	0.0105	0.2513	1144.346	0.14836	-439.077633	-439.069502	-439.068558	-439.110777	30.889	
O	 0.0354545333	 1.4720745159	-0.2514045129	-0.423693
C	 0.1177823934	 0.0723790689	-0.1124640156	-0.048284
C	-1.2708352323	-0.5310594506	 0.1339327712	-0.104418
N	-2.151673809	-0.1512841645	-0.993517794	-0.293129
C	-2.5778817525	-1.2388688847	-1.4866764861	 0.107814
O	-2.2087654961	-2.4168506918	-0.9413184113	-0.244179
C	-1.3430390183	-2.0635928968	 0.1546254361	 0.417144
C	-0.2291882931	-3.0201379417	 0.4446439088	-0.331154
C	-1.4328159047	-2.9279784125	 1.3683576699	-0.324184
H	-0.6936104435	 1.6316136858	-0.8650880078	 0.295528
H	 0.5613043261	-0.4063871911	-1.0011670683	 0.086951
H	 0.7784088799	-0.127148281	 0.7387563869	 0.101891
H	-1.6747505865	-0.0933690861	 1.0548484322	 0.099256
H	-3.239556862	-1.3280335123	-2.3412210234	 0.145331
H	-0.1549073097	-3.8942957986	-0.1921526943	 0.132271
H	 0.7211026247	-2.6234535399	 0.7843385991	 0.128238
H	-1.3095264608	-2.4546930506	 2.3374236718	 0.124246
H	-2.1459551786	-3.7440682085	 1.3445426576	 0.130369
