21
gdb 109906	2.19676	1.52822	0.99322	3.4352	84.84	-0.2324	-0.0428	0.1897	1251.9712	0.182524	-387.135873	-387.12665	-387.125706	-387.170073	34.716	
C	-0.0811964049	 1.7035299267	-0.1991800902	-0.39489
C	 0.0423038297	 0.1804917688	-0.0727034237	-0.184491
C	-1.3045876674	-0.5226158263	 0.1567846231	-0.109436
C	-1.3604599204	-2.0697733109	-0.027233537	-0.07716
C	-0.0123642227	-2.8080459519	 0.0842571559	-0.389577
C	-2.2954225971	-2.5152013705	 1.0739684261	-0.048699
C	-2.5875021644	-1.5484476576	 1.9496319941	-0.173854
C	-1.9250890197	-0.2854569861	 1.5498056432	 0.374327
O	-1.8852061889	 0.7411191558	 2.1917750914	-0.338893
H	 0.9001910212	 2.1584124512	-0.3666046096	 0.104613
H	-0.7215882394	 1.9741267735	-1.0469613521	 0.105505
H	-0.5171872111	 2.1326669903	 0.7042292506	 0.155071
H	 0.4970619794	-0.2202857619	-0.9867242594	 0.093195
H	 0.7298694895	-0.0642363596	 0.745459451	 0.102483
H	-2.0300612318	-0.0878794171	-0.5468579304	 0.104073
H	-1.7914601366	-2.3224823016	-1.0047716087	 0.08612
H	 0.4798872937	-2.5943011288	 1.0377931987	 0.126008
H	-0.1658179243	-3.890442704	 0.0236569427	 0.114545
H	 0.6662209192	-2.5228758587	-0.7238755425	 0.124708
H	-2.6369477714	-3.5441272827	 1.1390388016	 0.111981
H	-3.1891273126	-1.6305659087	 2.8458353351	 0.114373
