19
gdb 50715	3.06195	1.19022	0.90164	2.8112	78.02	-0.244	-0.0258	0.2182	1272.9397	0.15931	-423.030789	-423.022212	-423.021268	-423.064772	31.527	
O	-0.897484746	 1.1834591594	-0.884696719	-0.246073
C	-0.0620130259	 1.1361916763	-0.0181805376	 0.150666
C	 1.2172617538	 1.9511222181	 0.0105475978	-0.097131
C	 1.312732715	 2.9176292474	-1.1729149985	-0.092292
O	 2.6553788851	 3.2529309572	-1.4605968708	-0.236845
C	 3.1969887509	 4.3195184297	-0.7165690172	-0.133249
C	 3.3303620689	 4.1465051468	 0.7766764606	-0.051335
C	 2.5903299856	 3.4463522471	 1.6366057805	-0.070165
C	 1.3615374688	 2.6079966273	 1.3951876536	-0.271034
H	-0.1884574703	 0.4561697127	 0.8573907012	 0.078325
H	 2.0409127797	 1.2287079723	-0.1024134287	 0.113694
H	 0.9122426746	 2.431566936	-2.0657703374	 0.127072
H	 0.7079798936	 3.8201893467	-0.9909225268	 0.093051
H	 4.1933604274	 4.4843405923	-1.1410514024	 0.116726
H	 2.6213531157	 5.2457078846	-0.9083114019	 0.101601
H	 4.141551692	 4.7406586448	 1.1960652798	 0.092043
H	 2.8637417761	 3.5217987445	 2.6877094119	 0.09203
H	 0.477233418	 3.2392772167	 1.581245657	 0.123493
H	 1.3172252268	 1.8240765799	 2.1621566878	 0.109423
