16
gdb 10156	2.82216	1.33848	0.95273	3.4738	68.92	-0.2502	-0.0284	0.2219	1196.0892	0.126452	-383.696972	-383.687608	-383.686664	-383.73176	31.724	
C	-0.0463860566	 1.4128264455	 0.0127689618	-0.231546
O	-0.0018496137	 0.0033562903	-0.0011510103	-0.230628
C	 0.7182878217	-0.5159525885	-1.091061516	-0.068734
C	 0.6535186196	-2.0480963176	-0.9889093731	-0.253044
C	-0.8149884814	-2.5039260582	-1.020778777	 0.183649
O	-1.320081183	-3.214790928	-0.1994648997	-0.234947
C	 1.3609664167	-2.6747063795	-2.0984414704	 0.286626
C	 1.9039580774	-3.1846826679	-3.0418097414	-0.444607
H	 0.9616027664	 1.8492508904	 0.0852068032	 0.110649
H	-0.5320315899	 1.813089606	-0.8904645689	 0.109938
H	-0.6259096976	 1.7099185827	 0.8893129487	 0.137055
H	 0.2809231559	-0.1884032008	-2.0493947693	 0.101462
H	 1.7684449706	-0.185845266	-1.0794801378	 0.109204
H	 1.0704107054	-2.3664836935	-0.0277975938	 0.134579
H	-1.376406531	-2.1230121901	-1.9032923579	 0.084899
H	 2.3991028495	-3.6455701047	-3.8607704581	 0.205449
