18
gdb 22823	2.37583	1.49936	0.95633	1.7292	79.95	-0.2339	-0.0369	0.197	1201.5688	0.148343	-439.065791	-439.057413	-439.056469	-439.098547	32.453	
O	-0.0173301492	 1.3332095885	 0.0089948004	-0.395368
N	 0.0441185295	-0.0625246899	-0.0028582572	-0.237708
C	-1.107708236	-0.6247629136	-0.0097371429	 0.330943
C	-2.4069913221	 0.0365569269	 0.0123447502	-0.12389
C	-3.5386126697	-0.6539352306	-0.1874821907	-0.058453
C	-3.5707977891	-2.127392963	-0.4886875399	-0.276243
C	-2.2005270669	-2.6608166447	-0.9305535241	-0.224368
C	-1.0932135451	-2.1443196338	-0.0077201553	 0.080059
O	 0.1496590845	-2.680941339	-0.3908188171	-0.447393
H	 0.9127205349	 1.5816008462	 0.0340563743	 0.309089
H	-2.4221523304	 1.1028371827	 0.201436201	 0.11729
H	-4.4937155511	-0.1368353041	-0.1336961262	 0.102074
H	-3.9169211946	-2.6642856048	 0.4081672777	 0.120804
H	-4.3273535124	-2.330828064	-1.2557783066	 0.114392
H	-2.1858594907	-3.7545232496	-0.9314503555	 0.108987
H	-1.9786776996	-2.3299656767	-1.9516694554	 0.111342
H	-1.3357402765	-2.4618800317	 1.0245378224	 0.08087
H	 0.7925944046	-1.9641368889	-0.2982932252	 0.287573
