21
gdb 92556	2.45785	1.75718	1.69525	1.6224	80.14	-0.238	0.078	0.316	972.7372	0.185652	-387.094484	-387.086975	-387.086031	-387.126562	30.337	
C	-0.0293254905	 1.5466318314	-0.114652612	-0.402753
C	-0.0421209534	 0.0148400275	-0.0140485455	 0.013615
C	 0.4122681743	-0.7179207243	-1.311760153	-0.226554
C	 1.8231803035	-1.239963323	-1.0018117688	 0.098892
O	 2.7637722307	-0.1613021174	-1.1453093964	-0.279916
C	 3.1365614225	 0.3659233242	 0.1227620578	-0.096207
C	 2.3565378068	-0.4054838377	 1.1644358686	-0.065179
C	 0.8469405965	-0.5936843797	 1.0832512115	-0.060922
C	 1.7861251553	-1.617640035	 0.4864677368	-0.108064
H	 0.9281572533	 1.9204602942	-0.4853760133	 0.131582
H	-0.8049785229	 1.892005419	-0.8066878492	 0.109939
H	-0.2229166433	 2.0095706394	 0.8588453191	 0.107902
H	-1.0714719013	-0.2842291546	 0.2160921208	 0.069604
H	-0.2501145567	-1.5684104346	-1.5106319954	 0.089472
H	 0.4109405098	-0.0768290998	-2.1977321046	 0.101749
H	 2.1398586334	-2.0535191035	-1.6609552268	 0.07242
H	 4.2148007141	 0.2148052916	 0.2827450822	 0.093917
H	 2.949067786	 1.4468567926	 0.1381048987	 0.098793
H	 2.7951223077	-0.4879284381	 2.1533809439	 0.086926
H	 0.3756276517	-0.7959742011	 2.0400696962	 0.079917
H	 1.9109772826	-2.637049331	 0.8282893494	 0.084868
