14
gdb 2784	4.36381	2.37775	1.64887	4.3844	53.74	-0.2386	0.0057	0.2443	740.3857	0.113942	-361.718361	-361.711458	-361.710514	-361.74953	24.096	
C	-0.2004826571	 1.4293574129	-0.1469517477	-0.327155
N	 0.2072207317	 0.0430859529	 0.0872327143	-0.29563
C	 0.8191183835	-0.5686062128	-1.0737021173	-0.157342
C	 1.0551496152	-2.0874065748	-0.9919428095	-0.101841
O	 0.1065917631	-2.3082950615	-2.0865721396	-0.235202
C	-0.184068796	-0.9720981527	-2.1711598377	 0.482846
O	-0.9720901009	-0.4396293306	-2.8840603634	-0.322233
H	 0.6281168652	 2.0915607096	-0.4527491334	 0.098895
H	-0.9560575871	 1.45206938	-0.9360305283	 0.161038
H	-0.6454111534	 1.8307399989	 0.7671691007	 0.123855
H	 0.8623624227	 0.0079526892	 0.8620361453	 0.225517
H	 1.6742612341	-0.0111869543	-1.4950478682	 0.091055
H	 2.0486002103	-2.4493470483	-1.2620648607	 0.125047
H	 0.6957106388	-2.5521451086	-0.0720935943	 0.131149
