18
gdb 116714	4.00573	0.91888	0.8222	1.9798	75.96	-0.2356	0.0216	0.2572	1422.9606	0.146046	-439.028537	-439.019613	-439.018669	-439.063394	31.593	
C	-0.5831014875	 0.7562602247	-0.0333976081	-0.250624
O	 0.6881986739	 0.1345903245	-0.1805080776	-0.192469
C	 0.737534379	-0.8815267325	-1.0632647556	 0.140357
N	 1.8021222247	-1.5383876919	-1.2091202922	-0.250176
C	 1.8360404451	-2.6099701523	-2.165210323	 0.040027
C	 1.8769349538	-4.0835991753	-1.5960488175	-0.262407
C	 0.6987678848	-4.410235306	-2.5172805472	 0.037879
O	-0.3872883163	-3.5600086841	-2.1322853375	-0.247779
C	 0.6110664294	-3.0277475925	-3.0164392608	-0.03595
H	-0.9504105724	 1.1526341969	-0.9880513287	 0.125343
H	-1.3244135642	 0.0605846127	 0.3773580365	 0.132501
H	-0.4420958121	 1.5824162465	 0.6644724929	 0.144902
H	-0.1985151203	-1.0566759715	-1.60861984	 0.096191
H	 2.6995559449	-2.4618266078	-2.8231851588	 0.090715
H	 2.8034659537	-4.6076291626	-1.8384832714	 0.108042
H	 1.6595831678	-4.1766073686	-0.5307583975	 0.118806
H	 0.4459401145	-5.3421344362	-3.0090051518	 0.105597
H	 0.2690825111	-2.6418311441	-3.9707727317	 0.099045
