19
gdb 121709	4.77151	0.56281	0.53532	2.3843	75.15	-0.2519	-0.0402	0.2117	2049.0793	0.154741	-460.176404	-460.165701	-460.164757	-460.214691	35.479	
C	 0.1575305169	 1.2723643361	 0.3596125214	-0.229872
O	 0.0143604715	-0.1243372369	 0.2500413782	-0.235538
C	-1.3063272699	-0.5148011134	-0.0517849487	-0.051946
C	-1.327466079	-2.0330321731	-0.1445341969	-0.322779
C	-2.6903019316	-2.5975042733	-0.4802278604	 0.362379
O	-3.668299001	-1.9034246154	-0.6467362316	-0.30765
C	-2.7982274119	-4.1204300816	-0.5817892186	-0.375103
C	-3.8946198485	-4.6458324242	 0.3360701974	 0.163017
O	-3.7701237404	-5.6089818793	 1.0436294443	-0.230359
H	 1.2051493757	 1.4761640424	 0.5933649797	 0.128473
H	-0.1043612193	 1.7844846165	-0.5796900996	 0.106383
H	-0.4736143535	 1.6859108013	 1.1619053144	 0.107077
H	-2.0082867444	-0.1710505142	 0.724056318	 0.103301
H	-1.6431811544	-0.0704019436	-1.0016036971	 0.102332
H	-0.6072504676	-2.3779878418	-0.8988200702	 0.13878
H	-0.9873593263	-2.4791742236	 0.8001314299	 0.142021
H	-3.1111787415	-4.3450596493	-1.6106155188	 0.158821
H	-1.8619836916	-4.6417280289	-0.374314512	 0.130774
H	-4.8322131931	-4.0540588177	 0.2967569307	 0.109887
