15
gdb 28918	2.38631	1.86273	1.05191	1.6074	70.76	-0.2326	-0.0036	0.229	1055.7929	0.115347	-454.019337	-454.011642	-454.010698	-454.051566	29.414	
N	-0.2486865938	 1.4376307644	-0.0779657448	-0.628203
C	-0.0717630299	 0.0135212404	-0.0582872296	 0.000702
C	-1.2279307188	-0.7735440802	-0.0624064117	 0.408787
O	-2.4300699001	-0.1788491669	-0.0841247226	-0.426576
C	-1.1107245108	-2.1685077778	-0.0437824255	-0.237913
C	 0.1657936059	-2.7013229991	-0.0218985411	 0.001969
N	 1.2928093848	-1.9731974001	-0.0173599097	-0.388595
C	 1.1550132342	-0.6534778007	-0.035322345	 0.375032
O	 2.2831207495	 0.0944019814	-0.0309984695	-0.425216
H	 0.2060059818	 1.8475541837	-0.8893554548	 0.253852
H	 0.1873618564	 1.8676403905	 0.7332573852	 0.253857
H	-2.2315511372	 0.7775855362	-0.0934382288	 0.29869
H	-1.9933781405	-2.7948728585	-0.0466160081	 0.105237
H	 0.3028418673	-3.7794999146	-0.0069456109	 0.11113
H	 3.0125979313	-0.5412108388	-0.014358453	 0.297246
