21
gdb 70632	2.36699	1.53923	1.14566	0.7656	87.77	-0.251	0.0572	0.3082	1160.0527	0.182821	-349.932539	-349.923808	-349.922864	-349.965396	34.766	
C	-0.4622593619	 1.2838033611	-0.094905422	-0.486052
C	-0.0021514235	-0.142297017	 0.0801694563	 0.370229
C	-0.5596945375	-0.9918857747	 1.1957938777	-0.335362
C	 0.9011728934	-0.6005610701	 1.2050740602	-0.079834
C	 1.9031382711	-1.6062383574	 0.6587926081	-0.227727
C	 1.2796722509	-2.1027530074	-0.6634394256	-0.244087
C	 0.438749293	-0.9017760759	-1.1844865726	-0.219631
C	-0.6568586165	-1.2877390945	-2.06575285	 0.32724
C	-1.5693117072	-1.6073980955	-2.7812412852	-0.46439
H	 0.3072608058	 1.8940115246	-0.5835751049	 0.11113
H	-1.3658404817	 1.3309370047	-0.7131175655	 0.129169
H	-0.6927325556	 1.7461412219	 0.8698760257	 0.112934
H	-1.2075056294	-0.4907137721	 1.9073695864	 0.106654
H	-0.8392677811	-2.0226857378	 1.0038461783	 0.112786
H	 1.235492249	 0.104566964	 1.9594956741	 0.078859
H	 2.8571730147	-1.1001125178	 0.4671198992	 0.099073
H	 2.1106114954	-2.4324830703	 1.3476224047	 0.098799
H	 2.0247933071	-2.4225974401	-1.3953769437	 0.105995
H	 0.6223449992	-2.9579937556	-0.4868974974	 0.11715
H	 1.1051834715	-0.2277495573	-1.7423860791	 0.096593
H	-2.3732025668	-1.8874972629	-3.4156244845	 0.190473
