21
gdb 126736	3.90516	0.914	0.8155	1.9152	87.13	-0.2283	0.0293	0.2576	1519.868	0.183396	-383.309014	-383.299465	-383.298521	-383.344811	34.483	
C	-0.0462524733	 1.5286191335	-0.5417005666	-0.371092
C	-0.0157629093	 0.1411197194	 0.1004759164	-0.140165
N	-1.3228503457	-0.4923833617	 0.1244241996	 0.060763
C	-1.7739724725	-1.5130935313	-0.6445126521	-0.022612
C	-3.0927853352	-1.72066191	-0.3016588342	-0.316039
C	-3.361214421	-0.758705661	 0.7009648875	 0.355187
C	-4.6297707368	-0.5396399419	 1.4707305878	-0.281328
C	-4.8778179979	-1.613806048	 2.5433014946	-0.367691
N	-2.2798556252	-0.0173698052	 0.9490098015	-0.334627
H	 0.949149958	 1.9820484937	-0.5086666009	 0.116732
H	-0.3654263466	 1.469343671	-1.5865403128	 0.123272
H	-0.7435629255	 2.1745338188	-0.0034034875	 0.148927
H	 0.6574568425	-0.527899994	-0.4432496988	 0.115651
H	 0.3417800841	 0.2081889913	 1.1324859465	 0.129521
H	-1.1318144781	-2.0007927736	-1.3616721468	 0.124454
H	-3.7630645349	-2.4599420384	-0.7104658485	 0.097016
H	-4.5770942557	 0.4467545412	 1.9416825767	 0.113945
H	-5.4790377467	-0.5182675437	 0.7769349062	 0.100915
H	-5.8121297585	-1.4217451253	 3.0805849394	 0.108338
H	-4.9439559495	-2.6112078503	 2.0967925956	 0.114911
H	-4.0613816321	-1.6285993047	 3.2716785463	 0.123923
