20
gdb 122611	3.62624	0.73845	0.6434	3.8047	76.39	-0.2487	0.0316	0.2804	1715.8824	0.170695	-440.303544	-440.293727	-440.292783	-440.339328	34.796	
O	 0.0683920121	 1.4467686996	 0.0506531002	-0.419525
C	 0.048268284	 0.0313310311	-0.0342961802	-0.058714
C	-1.3676909685	-0.5439351971	-0.0184929329	-0.203374
C	-1.3935678896	-2.0694688386	-0.1825114591	-0.21519
C	-2.8036116419	-2.6391347819	-0.0537879161	-0.14108
C	-2.9720406602	-4.1888883558	 0.0201246222	-0.189869
N	-3.5625558233	-3.9950979006	 1.3473690844	-0.318861
C	-3.4047589562	-2.6319910115	 1.378776457	 0.430825
O	-3.6287384829	-1.7997362559	 2.2190398085	-0.367228
H	-0.3585092085	 1.6944540349	 0.8772609484	 0.282205
H	 0.5466792019	-0.2136377643	-0.9795624324	 0.105908
H	 0.6462810664	-0.4266601693	 0.7713982392	 0.084751
H	-1.8614377581	-0.2799416156	 0.9253023373	 0.124723
H	-1.9465751525	-0.0696807491	-0.820691738	 0.103564
H	-0.9753626595	-2.3485514427	-1.1586981565	 0.101309
H	-0.7478192289	-2.534627608	 0.5750823982	 0.101388
H	-3.4791625623	-2.1748393656	-0.7787895954	 0.102656
H	-3.6522361184	-4.6292007289	-0.715426619	 0.113491
H	-2.0288887932	-4.745979472	 0.0280785677	 0.11235
H	-3.8722793905	-4.6478951186	 2.0519410866	 0.250672
