21
gdb 32622	2.91794	1.24128	0.94918	1.3735	87.31	-0.1847	0.055	0.2397	1316.2526	0.182668	-383.312068	-383.301915	-383.300971	-383.34782	36.718	
C	-0.099398339	 1.5800712578	 0.0271225419	-0.36997
C	 0.0240417306	 0.0541087238	-0.0172636163	-0.147833
N	 0.6957981267	-0.432995066	-1.2096343263	 0.001576
C	 0.1045389959	-0.6505746037	-2.4284450993	-0.103804
C	 1.0676852877	-1.0806908352	-3.3097761784	-0.269724
C	 2.3093491428	-1.1172341684	-2.6123095283	 0.24768
C	 3.6446300403	-1.5254153613	-3.1568092809	-0.505284
C	 2.0476756028	-0.7085541937	-1.3169206216	 0.143048
N	 2.8709592053	-0.5842215076	-0.1719341854	-0.616696
H	 0.8886917059	 2.0498482343	 0.0260463824	 0.121303
H	-0.654290455	 1.9553421502	-0.8379335799	 0.124344
H	-0.625346996	 1.8927184424	 0.9350587346	 0.11491
H	 0.5973016286	-0.3020795806	 0.8415291448	 0.134728
H	-0.9685982284	-0.4065985396	 0.0227248036	 0.108891
H	-0.9526397578	-0.4819230891	-2.5620352239	 0.107337
H	 0.9052931195	-1.3437341236	-4.3447233333	 0.084366
H	 3.8861458275	-0.9890879069	-4.0818170191	 0.122184
H	 4.444127308	-1.3128934188	-2.4390583131	 0.098238
H	 3.6911834036	-2.5968796463	-3.3894489669	 0.120925
H	 3.4154158436	 0.2732167544	-0.1712515721	 0.240055
H	 3.5215306076	-1.357356712	-0.0991501825	 0.243727
