18
gdb 91162	2.70425	1.64897	1.52729	3.1712	76.72	-0.2098	-0.0028	0.2071	968.7599	0.14923	-401.949043	-401.941603	-401.940659	-401.9807	29.474	
C	-0.2545221681	 1.4454974082	-0.0232968651	-0.324665
N	 0.0755230117	 0.0331590487	 0.006056194	-0.06235
C	 0.8355879379	-0.4514290086	-1.1667624997	-0.16774
C	 1.9168877777	-1.380986891	-0.5403718401	-0.183397
C	 2.8841403162	-0.4969479972	 0.2162756648	-0.085289
C	 2.2342679741	 0.0740675116	 1.24801789	-0.086954
C	 0.8074721839	-0.4355797937	 1.2129182381	-0.155656
C	 1.1170245391	-1.865909316	 0.7014917101	 0.449136
O	 0.8685330409	-2.9512856839	 1.1241661181	-0.322546
H	 0.6294089159	 2.1060989441	-0.0687999845	 0.09843
H	-0.875723677	 1.6546605912	-0.9003673788	 0.124075
H	-0.8359390716	 1.7073710018	 0.866651677	 0.120199
H	 0.1824092936	-1.0009833521	-1.855271921	 0.112277
H	 1.3086050379	 0.3712673988	-1.7220482877	 0.093083
H	 2.3319375333	-2.1402934475	-1.1990772378	 0.087745
H	 3.9221838785	-0.362731719	-0.0600028674	 0.109341
H	 2.6427918702	 0.7673425663	 1.9720382967	 0.108979
H	 0.203508776	-0.3474209618	 2.1137194133	 0.08533
