16
gdb 4194	4.53514	1.58602	1.30265	1.7299	68.5	-0.2305	0.0103	0.2408	929.1474	0.132158	-379.867929	-379.860969	-379.860025	-379.899011	27.096	
O	-0.0920516472	 1.3155990761	-0.0358601314	-0.392642
N	 0.0226769468	-0.0868582126	-0.0353288674	-0.255681
C	-1.118187009	-0.6458785628	 0.0440007423	 0.477594
C	-2.494039599	-0.0216803194	 0.1658548565	-0.317054
C	-3.3583955936	-1.108038994	 0.8606876004	-0.217056
C	-2.6261299469	-2.4179842411	 0.6058896287	-0.027671
N	-2.3033904151	-2.6228099516	-0.8154278887	-0.34008
C	-1.2500607804	-2.1211037967	 0.1190346998	-0.139942
H	 0.8297394902	 1.5927954311	-0.0607993055	 0.305427
H	-2.4536842225	 0.919998313	 0.7158918197	 0.129209
H	-2.8745559985	 0.2036333266	-0.8352619099	 0.139819
H	-3.4023833979	-0.9290562073	 1.9406116516	 0.106343
H	-4.3851570557	-1.1275292491	 0.4844186534	 0.109393
H	-2.8278756995	-3.2814882098	 1.2317039015	 0.089651
H	-2.1297859206	-3.6121341318	-0.9792585288	 0.235099
H	-0.3853493511	-2.7363486606	 0.3339062178	 0.09759
