20
gdb 68447	2.83114	1.69559	1.29438	2.2207	79.	-0.2397	0.034	0.2736	1032.2895	0.172782	-403.153256	-403.145535	-403.144591	-403.184883	31.296	
C	-0.0312232779	 1.5628469273	 0.2061533666	-0.465461
C	 0.0238221686	 0.0617900272	-0.046967173	 0.284874
C	 1.1842333393	-0.4748405233	-0.9397099396	-0.282774
C	 1.3215521135	-1.6673517907	 0.0369109642	 0.122368
C	 0.5626905563	-0.8421894502	 1.1036647991	-0.28277
O	 0.6402799726	-2.8475138268	-0.382478957	-0.23454
C	-0.6618406419	-2.7903067632	-0.7683167854	 0.120086
N	-1.5062437428	-1.8585838892	-0.8576536104	-0.270581
C	-1.3311914494	-0.4535242867	-0.5517669481	-0.18439
H	 0.9330513856	 1.9363548274	 0.5665758376	 0.109916
H	-0.2804011363	 2.1121175799	-0.7091622386	 0.117456
H	-0.7877975179	 1.8121770806	 0.9591612687	 0.117456
H	 0.9643195561	-0.7131985269	-1.9834785904	 0.111376
H	 2.0677960228	 0.1684947514	-0.8974626489	 0.100641
H	 2.3274906825	-2.010625525	 0.281179148	 0.087637
H	 1.2611934997	-0.3082229283	 1.7542964448	 0.100641
H	-0.1623734846	-1.3791096739	 1.7206162748	 0.111374
H	-0.9646403827	-3.8013592851	-1.0421477439	 0.118535
H	-2.1027056746	-0.1933846318	 0.1877017788	 0.109078
H	-1.601187159	 0.1030907474	-1.4611629374	 0.109077
