16
gdb 19731	4.12298	2.60134	2.31954	1.397	67.7	-0.2391	0.0072	0.2463	667.9221	0.134017	-346.579887	-346.574718	-346.573774	-346.608705	22.719	
C	-0.0405142178	 1.5709480132	 0.0690806954	-0.244141
C	 1.4886476284	 1.3794553502	 0.0106051392	 0.086353
O	 1.7681236393	 0.7764880497	 1.261849104	-0.278541
C	 0.9048892991	-0.4218542381	 1.1669783749	 0.04964
C	 1.8030671423	-1.4729972839	 0.5569606962	-0.086099
C	 2.0342951121	-1.0945723476	-0.7089153944	-0.079789
C	 1.2158497	 0.1214343322	-0.9760663744	-0.085176
C	-0.008550773	 0.02815623	-0.0061406951	-0.062684
H	-0.4381952051	 2.0527999491	 0.9645595562	 0.098952
H	-0.4618069155	 2.0114652147	-0.8376579605	 0.098094
H	 2.2108304059	 2.1626997965	-0.2121100562	 0.082046
H	 0.457312004	-0.6173650398	 2.1403249144	 0.074107
H	 2.2929332023	-2.2628850756	 1.1113884902	 0.100205
H	 2.7477884843	-1.5291088618	-1.3982143796	 0.100233
H	 1.010893644	 0.4131962965	-2.004655229	 0.071781
H	-0.8706186301	-0.5977849653	-0.2346977714	 0.07502
