17
gdb 66260	2.05623	1.63488	1.4272	4.0423	73.5	-0.2586	-0.0003	0.2583	1035.6655	0.135013	-421.841354	-421.832697	-421.831753	-421.874463	32.398	
C	-0.2302546838	 1.6350518877	 0.0489545326	-0.436409
C	 0.0548690231	 0.1289391066	-0.0372277853	-0.059138
C	 0.9849668327	-0.3031260566	-1.194121143	-0.260224
C	 1.6722342296	-1.5399760207	-0.6086235502	-0.0909
O	 1.7724287275	-1.2847694469	 0.8055262676	-0.222011
C	 0.8807139556	-0.3417297478	 1.1935258306	 0.446389
O	 0.7879812243	 0.0479287338	 2.3185885496	-0.341595
C	-1.1873505157	-0.6451056311	-0.0557180876	 0.350207
C	-2.2036164709	-1.2866424447	-0.079850066	-0.498714
H	 0.7065123986	 2.1999011018	 0.0369335251	 0.122917
H	-0.8485394156	 1.9568992394	-0.7925927314	 0.126765
H	-0.7539833431	 1.8582969242	 0.9804910437	 0.154166
H	 0.4514647942	-0.5128602288	-2.1219152278	 0.125851
H	 1.7195982375	 0.4867772497	-1.3804802522	 0.117426
H	 1.0789714362	-2.4481519009	-0.7586470003	 0.131146
H	 2.6827132735	-1.7048154174	-0.9864343258	 0.128475
H	-3.1060886336	-1.8468032684	-0.0888266695	 0.205649
