25
gdb 76749	2.14224	1.49333	1.31076	0.1651	91.8	-0.2526	0.0762	0.3288	1199.3952	0.228719	-352.343239	-352.33355	-352.332605	-352.377098	38.209	
C	-0.0301640286	 1.6447500333	 0.0673509735	-0.415924
C	 0.0519721377	 0.1233971427	 0.0359047462	 0.031436
C	 1.0547099636	-0.6075807115	-0.9328309347	-0.05644
C	 2.1110734249	 0.2242876509	-1.6526941959	-0.411535
C	 1.5023524328	-1.5426067385	 0.2506815488	 0.382503
C	 1.2704219456	-3.024288413	 0.0421747672	-0.495486
C	 2.7954925454	-1.1119568104	 0.9907813946	-0.279799
C	 1.9725948553	-0.1086149287	 1.8506529095	-0.230094
C	 0.6501729762	-0.6539072663	 1.2358795766	-0.085711
H	 0.9419416264	 2.1174738591	 0.2354015289	 0.114819
H	-0.4250346455	 2.0370692328	-0.8765534923	 0.1113
H	-0.6998990155	 1.9783384978	 0.8682458543	 0.111284
H	-0.9556521641	-0.2637847283	-0.1538349946	 0.067144
H	 0.5148075045	-1.1879439003	-1.6892203534	 0.062392
H	 2.6733742353	 0.8754888119	-0.9769194332	 0.115933
H	 2.8339905478	-0.4206172177	-2.1651092713	 0.111715
H	 1.6480730408	 0.8649094545	-2.4112686941	 0.1109
H	 1.9593277452	-3.4297324446	-0.7104022226	 0.111978
H	 1.4256071013	-3.5889970748	 0.9687676744	 0.108151
H	 0.2503206996	-3.2258948432	-0.3052672215	 0.10967
H	 3.2040273902	-1.9316433572	 1.5898913594	 0.091399
H	 3.6099367599	-0.7039739013	 0.3862179184	 0.091268
H	 2.0617692608	-0.2583138336	 2.9291877797	 0.096819
H	 2.1741167352	 0.9462191286	 1.6473541992	 0.095067
H	-0.0586653047	-1.0807271223	 1.9496780529	 0.051213
