21
gdb 102845	3.14964	0.8359	0.73233	2.1423	85.11	-0.2519	-0.0257	0.2262	1573.0553	0.178763	-387.071864	-387.061047	-387.060102	-387.108994	38.241	
C	 0.5405008914	-0.8544415368	 1.3717447345	-0.38937
C	-0.035485488	-0.1776508162	 0.1217378895	-0.189295
C	 0.7464644006	-0.4068218242	-1.189539477	 0.003251
C	 2.2268050333	 0.0270469064	-1.0926306197	-0.286992
C	 2.3670449804	 1.4810534355	-0.7080463344	 0.15654
O	 2.9230879884	 1.8832345623	 0.281884474	-0.242248
C	 0.675319941	-1.873679515	-1.6869596944	-0.366124
C	-0.6819621735	-2.334376421	-1.9521879293	 0.297581
C	-1.8071100157	-2.6955022179	-2.1738334548	-0.434475
H	 0.6321482732	-1.9385540143	 1.2482544864	 0.117022
H	 1.5256107712	-0.4558633868	 1.6316946844	 0.135085
H	-0.1171580247	-0.6821183184	 2.2289206385	 0.119228
H	-1.0637780434	-0.5182517738	-0.0394220262	 0.115668
H	-0.0972598305	 0.9024848376	 0.3033501748	 0.103755
H	 0.267420505	 0.2106971361	-1.9609236521	 0.089287
H	 2.7812897871	-0.5794710035	-0.3709266777	 0.123616
H	 2.697524041	-0.1021203183	-2.0777030637	 0.114224
H	 1.895451273	 2.1932808616	-1.4264101059	 0.073869
H	 1.2717445701	-1.9670313003	-2.6035785232	 0.127939
H	 1.149897876	-2.5360985862	-0.9519912189	 0.134823
H	-2.7967443259	-3.0258608768	-2.3711586147	 0.196616
