19
gdb 35770	3.74158	1.18176	1.00455	1.601	81.29	-0.2489	0.0372	0.2861	1207.0668	0.160147	-385.84389	-385.835875	-385.834931	-385.876362	31.746	
C	 0.0758020828	-1.2015021987	 0.0389338941	-0.410814
C	 0.0719384995	-0.0004847542	 0.0228782379	 0.290505
C	 0.0168468273	 1.457759389	 0.0263069686	-0.050711
C	-0.7656355944	 2.0037210062	 1.2390128678	-0.232703
C	-0.5426835632	 3.5033899746	 1.4202330299	-0.043006
C	 0.7121130914	 3.9908620194	 2.1082726615	-0.28013
C	 0.5519994392	 4.1903278456	 0.626865567	-0.030094
C	 1.3663401412	 3.3454931692	-0.3317336634	-0.097562
O	 1.3487551767	 1.9689165417	 0.0144186326	-0.259125
H	 0.0917443624	-2.263379572	 0.043445519	 0.195698
H	-0.4905880375	 1.7906718302	-0.8961827456	 0.092127
H	-1.8285062267	 1.7897316803	 1.0891109005	 0.109264
H	-0.4536525908	 1.4538357178	 2.1326240372	 0.116816
H	-1.4418988504	 4.0825230948	 1.6025535883	 0.085036
H	 0.6443876945	 4.8564266746	 2.7579065022	 0.107602
H	 1.4175481663	 3.2319774411	 2.432260615	 0.122934
H	 0.3539301623	 5.1988043552	 0.2755911058	 0.084359
H	 0.9850360843	 3.4750261674	-1.359435712	 0.088904
H	 2.4210480453	 3.6397621479	-0.3256136464	 0.110901
