20
gdb 12564	3.13891	1.85112	1.28863	0.6758	71.57	-0.2395	0.0858	0.3253	994.0236	0.178069	-386.138518	-386.130524	-386.12958	-386.170679	30.501	
C	 0.0124081054	 1.556569127	 0.0845235499	-0.396868
C	-0.0086594885	 0.033888284	 0.0028636051	 0.14296
C	 0.6620676046	-0.4819875837	-1.2831635484	-0.228692
C	 0.2760661603	-1.917772767	-1.6896088022	-0.08196
O	-0.0681670919	-2.7831671305	-0.6210564134	-0.2451
C	 0.8319231431	-2.8099152814	 0.4718189773	-0.089788
C	 0.4542965063	-1.7710330679	 1.5272534247	-0.066933
O	 0.6966343867	-0.4321792763	 1.1542662612	-0.259376
H	 1.0407527855	 1.9279883718	 0.0263393814	 0.121751
H	-0.5621548109	 1.9977176603	-0.7352956619	 0.110723
H	-0.4164101452	 1.8898218138	 1.0330120978	 0.121106
H	-1.050479004	-0.3214968343	 0.0473806511	 0.0743
H	 0.418448841	 0.1797539454	-2.1229479987	 0.097662
H	 1.7430325182	-0.3987718416	-1.1254600882	 0.109305
H	-0.6183106515	-1.9002921581	-2.3210243591	 0.108924
H	 1.0894630211	-2.3571076169	-2.2897276049	 0.089364
H	 0.7532560892	-3.808349772	 0.9199089921	 0.103966
H	 1.8726658423	-2.6692620177	 0.1444721214	 0.095631
H	-0.609359718	-1.9184201436	 1.7772799754	 0.092874
H	 1.0451522362	-1.9394710014	 2.4351732294	 0.100152
