15
gdb 49968	2.08356	1.3915	0.98508	2.6347	69.24	-0.2596	-0.0762	0.1834	1180.7224	0.108889	-457.776362	-457.767361	-457.766417	-457.810742	31.062	
O	 0.092988427	 0.1813336308	-0.3773221267	-0.251656
C	 0.0533615442	 1.3167245172	 0.0265954145	 0.144403
C	 1.2768810347	 2.1715731899	 0.0953020271	-0.118691
C	 1.1901187098	 3.6426443147	-0.0616896155	-0.307701
C	 1.5343515015	 3.1139529658	 1.326341317	 0.095563
C	 0.5128126083	 3.2411361449	 2.401093357	 0.088363
O	-0.6775902875	 3.3355213542	 2.2226733007	-0.26661
C	 2.9660304818	 3.18393113	 1.7383570291	 0.094738
O	 3.8939630257	 3.1552911616	 0.9681954716	-0.260507
H	-0.888935514	 1.7995141269	 0.3443338252	 0.122449
H	 2.1859839122	 1.6862616707	-0.2441515858	 0.14722
H	 2.0007855701	 4.1397506539	-0.5812754252	 0.162706
H	 0.2028018141	 4.0860127442	-0.1401380463	 0.15922
H	 0.9365844391	 3.2627002356	 3.4294222599	 0.09541
H	 3.130601443	 3.2685278796	 2.8346538674	 0.095094
