17
gdb 74127	1.97589	1.73356	0.93391	1.9248	81.05	-0.251	-0.0396	0.2115	1215.2054	0.13732	-418.082589	-418.074336	-418.073392	-418.115741	30.998	
C	 0.0797655423	 1.5138342496	 0.0269515901	-0.474305
C	-0.0107177268	 0.017170773	-0.0356320337	 0.282641
C	 0.0815729326	-0.665993878	-1.1817798104	-0.170842
C	-0.004212612	-2.1240085324	-1.2589518249	 0.389165
N	 0.092115175	-2.7131476006	-2.3899038056	-0.522659
N	-0.1927255745	-2.7812073442	-0.0355859859	-0.405752
C	-0.3047141989	-2.21180471	 1.2173433008	 0.4143
O	-0.4662916514	-2.8930814727	 2.2062534959	-0.358626
C	-0.2137184095	-0.6951448645	 1.2731486198	-0.441073
H	 0.9117269719	 1.8285114584	 0.6696324866	 0.1356
H	 0.2246712092	 1.9508374846	-0.9633884238	 0.135933
H	-0.8303593416	 1.9425562413	 0.4651788028	 0.135517
H	 0.2275236466	-0.1733274828	-2.1355239212	 0.114847
H	 0.0148160694	-3.7279416595	-2.2961567399	 0.208017
H	-0.2573853614	-3.7910745809	-0.0409387862	 0.250635
H	 0.5942682042	-0.449962525	 1.9755261365	 0.153274
H	-1.1270750052	-0.3391365761	 1.7685206192	 0.153328
