18
gdb 22217	3.45814	0.8521	0.72399	1.5327	77.8	-0.2527	-0.0011	0.2515	1536.4601	0.143106	-439.008658	-438.998	-438.997056	-439.045098	37.887	
C	-1.34178157	 0.9640614616	 0.3708216617	-0.47858
C	-0.1298175546	 0.1800915657	-0.0502091788	 0.333962
N	 0.8549372989	-0.1109547569	 0.7092327655	-0.149203
O	 0.6809786961	 0.3759942629	 2.0105244781	-0.408223
C	-0.0574236009	-0.2886873524	-1.4938853838	 0.036679
O	-0.160031624	 0.8299746438	-2.3684836301	-0.417396
C	 1.1750438106	-1.1614269981	-1.8028122857	-0.403225
C	 1.1769215849	-1.6558059026	-3.1731690983	 0.307868
C	 1.1727837686	-2.0743390976	-4.2994833205	-0.424603
H	-1.0549147421	 1.8022016073	 1.010239511	 0.148307
H	-1.8751118798	 1.3355731326	-0.504917581	 0.143134
H	-2.0172756613	 0.331888558	 0.9591183405	 0.143542
H	 1.4953658046	 0.0982803513	 2.443442619	 0.306542
H	-0.9599184299	-0.8754729459	-1.7064035321	 0.110336
H	 0.6301879996	 1.369124218	-2.2460128081	 0.284037
H	 2.0834368586	-0.5798203292	-1.6036080042	 0.131205
H	 1.2031963182	-1.9977778686	-1.0963921969	 0.144285
H	 1.1711658925	-2.4407226401	-5.2958514463	 0.191332
