23
gdb 59564	3.24962	1.1124	1.0822	1.3219	84.85	-0.2326	0.0819	0.3145	1285.0356	0.205943	-388.288256	-388.279101	-388.278157	-388.322222	35.496	
C	 0.0003201822	 1.5067058472	-0.0248144299	-0.3917
C	 0.0157080627	-0.0221972144	 0.1261174601	 0.013437
C	 0.7506056389	-0.4323735008	 1.4100294475	-0.39184
C	-1.4116922571	-0.5797854781	 0.0466808351	 0.166218
C	-1.5719648955	-2.1187349237	-0.0100236852	-0.287547
C	-2.8788030132	-2.362368038	 0.7434892984	-0.064421
C	-2.8376992972	-2.2742968068	 2.2583685967	-0.305287
C	-3.1946709472	-1.0671218527	 1.4354687156	 0.102231
O	-2.1575132806	-0.1519200053	 1.2005896794	-0.278333
H	 1.0168354413	 1.9126388201	-0.0116868602	 0.105457
H	-0.4712432857	 1.8095104455	-0.9658885302	 0.105841
H	-0.5610906093	 1.9660412464	 0.794397347	 0.133145
H	 0.5526918789	-0.4450771228	-0.7351686651	 0.070468
H	 0.8400228498	-1.5183696201	 1.5108196208	 0.107698
H	 1.7643414725	-0.0195847457	 1.4165723993	 0.10746
H	 0.2219358258	-0.0545973173	 2.2892621907	 0.132369
H	-1.8944470392	-0.1535090668	-0.8487612825	 0.060978
H	-1.6327542539	-2.4652380988	-1.0454433282	 0.1026
H	-0.7283679774	-2.6347823524	 0.4590268625	 0.105111
H	-3.6535574002	-2.9594155628	 0.2778017641	 0.089311
H	-3.6296677621	-2.7696946486	 2.8110124242	 0.108198
H	-1.869325271	-2.2691405273	 2.7477694835	 0.116918
H	-4.1871761123	-0.628595897	 1.4729838163	 0.091686
