20
gdb 79631	2.12911	1.94837	1.56736	0.7862	77.8	-0.2156	0.0678	0.2834	989.8405	0.171401	-403.102742	-403.094644	-403.0937	-403.134841	32.103	
C	-0.5869175111	 1.3490198244	 0.2482574512	-0.43869
C	-0.0968877338	-0.0714934565	 0.0504725291	 0.020405
C	 0.5667365205	-0.650412463	-1.1571899116	-0.086412
C	 1.3376647119	 0.1993178687	-2.1386295406	 0.028362
O	 1.4686110553	 1.595083501	-1.8204217476	-0.251547
C	 2.5337739457	 0.7129401799	-1.4553116811	 0.022054
C	 2.4977340419	 0.2183398214	-0.009920344	 0.016751
C	 2.6740878331	 1.2911712803	 1.0641450376	-0.401221
N	 1.2749657014	-0.6140673038	 0.1447025316	-0.140416
H	 0.0031244332	 2.0901114712	-0.2808345767	 0.160075
H	-1.6200684967	 1.4113501533	-0.1130036969	 0.115697
H	-0.6057915067	 1.5887312465	 1.3172500304	 0.116459
H	-0.7682580032	-0.7746414018	 0.5475954309	 0.091908
H	 0.2657053122	-1.6271006221	-1.5335492694	 0.085075
H	 1.3017685025	-0.0326136797	-3.1992548995	 0.100466
H	 3.4856964261	 0.9033713623	-1.9481249905	 0.09594
H	 3.3309016156	-0.4931320515	 0.0853738749	 0.088437
H	 1.9617410299	 2.1088796884	 0.9425293231	 0.133545
H	 2.5364878635	 0.8536890145	 2.0567445586	 0.127661
H	 3.6840643487	 1.7105515967	 1.0160084205	 0.115452
