14
gdb 34841	3.61677	1.17086	0.98149	4.2403	71.89	-0.2858	-0.0095	0.2762	1139.9233	0.102567	-395.675591	-395.668328	-395.667384	-395.707638	27.033	
N	-0.0330498258	-1.2248139419	-0.0536837123	-0.315147
C	 0.0022071324	-0.0713990849	 0.0009121715	 0.293188
C	-0.0157278553	 1.3803300981	 0.0103085599	-0.157266
C	 0.0847691922	 2.1092660743	 1.3859680522	-0.031876
N	 1.505329334	 1.5991634806	 1.4655963576	-0.304422
C	 1.3496193042	 2.1334651665	 0.0603158979	-0.031877
C	 0.5906725772	 3.3846018005	 0.6254829172	-0.16105
C	-0.3080053485	 4.1569111422	-0.217881232	 0.268728
N	-1.0259871676	 4.7628610927	-0.891870798	-0.321335
H	-0.7557134684	 1.7719469606	-0.6885876585	 0.153866
H	-0.6119686073	 2.0594446278	 2.2211114792	 0.12554
H	 2.0797277055	 2.2361678314	 2.0252770101	 0.225341
H	 2.1518006447	 2.112321022	-0.6755157729	 0.12554
H	 1.2158052427	 4.04192925	 1.2339416781	 0.130771
