19
gdb 22171	2.37535	1.4826	1.13787	2.2689	83.1	-0.1865	-0.01	0.1765	1144.2194	0.158471	-419.188708	-419.179552	-419.178607	-419.221939	35.293	
C	-0.0566785476	 1.5728863762	 0.0915066672	-0.39869
C	 0.0215422388	 0.0437106175	 0.0300486191	 0.189724
C	-1.375135728	-0.5863731811	-0.0824274222	-0.414793
N	 0.8818605747	-0.3900210537	-1.1009602852	-0.326005
C	 1.8204785407	-1.2836076283	-0.6290980052	-0.009973
C	 1.846167083	-1.3785112351	 0.7206191357	-0.254647
C	 0.7795308221	-0.5429555628	 1.2304544001	 0.381486
N	 0.4098678813	-0.2484972965	 2.4216481253	-0.277199
O	 1.2388987629	-0.8817690706	 3.3754644622	-0.400196
H	 0.9463762511	 2.0051105182	 0.1196230865	 0.12451
H	-0.5815745304	 1.9718895531	-0.782981791	 0.102124
H	-0.5893218731	 1.877099002	 0.9961775155	 0.135378
H	-1.9033831478	-0.2144402261	-0.9680857563	 0.105473
H	-1.305425623	-1.6763824122	-0.1452145514	 0.123324
H	-1.9626267452	-0.3339656502	 0.8043168833	 0.140795
H	 0.4203027305	-0.5988976158	-1.9748290759	 0.23736
H	 2.4642267111	-1.7903585149	-1.33812852	 0.123619
H	 2.5458065523	-1.9346237718	 1.3209137705	 0.117739
H	 0.8611136567	-0.5707259179	 4.2042065718	 0.299972
