25
gdb 58505	2.4716	1.2959	1.18958	0.1942	91.66	-0.2475	0.0822	0.3296	1250.4452	0.228365	-352.336854	-352.327118	-352.326174	-352.370587	38.787	
C	 0.0831935387	 1.5238832215	-0.0799080252	-0.402382
C	 0.0342587985	-0.0014746118	 0.0979344015	-0.005889
C	 0.7745769896	-0.4336030881	 1.37217751	-0.402403
C	-1.4020616188	-0.5648412662	 0.0279618783	 0.361972
C	-2.3315339787	 0.0024739774	 1.1061387232	-0.459361
C	-2.1019322497	-0.5081796346	-1.3846879904	-0.301521
C	-2.2826663142	-2.0299004802	-1.3454066244	-0.037903
C	-0.945979642	-2.7082788604	-1.2620221203	-0.300542
C	-1.533451829	-2.1063222476	-0.0152703724	-0.078675
H	 1.1176639764	 1.8659051438	-0.1897688723	 0.108054
H	-0.4687567548	 1.8448525577	-0.9696330367	 0.112547
H	-0.3415034297	 2.0469226276	 0.7835295935	 0.113757
H	 0.5791333122	-0.4360943391	-0.7503105047	 0.065847
H	 0.3346238099	 0.0142525418	 2.2697736833	 0.112428
H	 0.7550390301	-1.5213226263	 1.4938237449	 0.116405
H	 1.8234079636	-0.12079767	 1.3342851227	 0.107432
H	-2.4546665508	 1.0853769958	 1.0063599036	 0.112603
H	-3.3238778038	-0.4534488385	 1.0265506904	 0.112346
H	-1.9577763499	-0.2042102532	 2.114567365	 0.111645
H	-3.039316998	 0.0526880812	-1.3627145918	 0.096549
H	-1.4922310218	-0.1317725333	-2.2138579209	 0.088158
H	-3.1742664423	-2.5631291216	-1.6521563561	 0.080987
H	-0.9709830102	-3.793218665	-1.2964539802	 0.107499
H	-0.07539356	-2.276003723	-1.7492000668	 0.105012
H	-1.7580016454	-2.7188069578	 0.8514765557	 0.075434
