16
gdb 70164	2.60525	1.72285	1.19044	3.6029	70.24	-0.2313	-0.0927	0.1386	1026.2747	0.123234	-437.893073	-437.885004	-437.88406	-437.925734	30.151	
C	-0.1201706224	 1.5409266157	 0.0890694271	-0.476904
C	 0.007130104	 0.0443589892	-0.0074021843	 0.200048
C	-0.795924335	-0.8854102716	 0.8599372354	-0.280049
N	 0.6250400178	-0.7257905845	 1.1180610934	-0.136474
C	 1.4125456925	-1.8461941404	 0.5616839141	-0.288826
C	 1.1909242501	-1.8788759836	-0.9465970204	 0.295091
O	 1.5831700574	-2.6864098296	-1.7421069121	-0.271222
C	 0.4126906246	-0.5742898812	-1.2999869916	 0.271239
O	 0.2605212403	-0.1418951321	-2.4126986404	-0.295634
H	 0.8223963205	 2.0295039894	-0.1751123353	 0.136688
H	-0.8869750699	 1.8950492851	-0.6060168096	 0.144842
H	-0.3919682056	 1.840188569	 1.1037644542	 0.132109
H	-1.4638150879	-0.4329765684	 1.5873522921	 0.139134
H	-1.1491129994	-1.8287857042	 0.4444083533	 0.128911
H	 2.4772232793	-1.6635063476	 0.7524592513	 0.15348
H	 1.1475825938	-2.7933384753	 1.0398799728	 0.147566
