16
gdb 15241	2.36089	2.08589	1.43415	4.5358	66.02	-0.2416	0.0262	0.2677	924.32	0.129841	-379.896601	-379.887889	-379.886945	-379.929964	30.435	
C	 0.1018690617	 1.0694765438	 0.3602071035	-0.243723
O	-0.1799478553	-0.0134993801	-0.5173882306	-0.233098
C	-1.3878138008	-0.6290218777	-0.2733661036	 0.08822
C	-1.4875527294	-2.0639133527	-0.6987534101	-0.028227
N	-0.3993271221	-2.7858096592	-1.2908311229	-0.508624
C	-1.4525343551	-1.7452315605	 0.7974468926	-0.260964
C	-0.2708272326	-2.0453915826	 1.5476671539	 0.309962
N	 0.6902604188	-2.2781035197	 2.1499728778	-0.352182
H	 1.063218019	 1.4827761803	 0.050099698	 0.138653
H	-0.6683837762	 1.8497274947	 0.2831215844	 0.112282
H	 0.1713091121	 0.7320309525	 1.4009155925	 0.136777
H	-2.2661990468	 0.0162844329	-0.3331392118	 0.097547
H	-2.4580963054	-2.3920080928	-1.0590693829	 0.114198
H	-0.3836526896	-2.6094851671	-2.2915220493	 0.239887
H	 0.4851954471	-2.4435561779	-0.9268047332	 0.25485
H	-2.3780842055	-1.8565617139	 1.3519937916	 0.134442
