12
gdb 8970	5.55919	1.03882	0.88003	1.6396	64.91	-0.28	-0.0478	0.2323	1204.5497	0.080144	-381.286965	-381.27865	-381.277706	-381.320713	28.557	
O	 0.0002808842	-0.084297756	 0.0031948268	-0.353114
C	 0.0009195553	 1.1215962055	 0.0053138775	 0.310338
O	 1.108695148	 1.8861618128	-0.002735538	-0.228274
C	 2.3468111753	 1.1386087304	-0.0146995397	-0.237389
C	 3.4553266743	 2.0755506147	-0.0192765805	 0.28905
C	 4.3955105036	 2.8215199768	-0.0233526323	-0.406994
C	-1.1886578111	 1.9424416145	 0.0175319652	 0.231126
C	-2.2092328618	 2.5757380115	 0.0278510184	-0.34676
H	 2.378195652	 0.4849314306	 0.863556648	 0.158955
H	 2.3652510861	 0.4917951068	-0.8984146215	 0.158865
H	 5.224906065	 3.4849618045	-0.026879188	 0.208564
H	-3.1117293909	 3.1371355879	 0.0369624342	 0.215634
