14
gdb 57041	2.57276	1.33581	0.92116	5.0567	61.95	-0.2913	-0.0131	0.2782	1172.8202	0.100176	-473.841908	-473.833445	-473.832501	-473.875928	29.437	
O	-0.0129075139	 1.4575186429	-0.055533657	-0.406366
C	 0.0512443547	 0.0443760053	-0.0452588045	-0.030009
C	 0.7284615191	-0.4737940592	-1.248847178	 0.272261
N	 1.2948231	-0.8299502743	-2.1903391224	-0.303019
C	 0.7224637951	-0.4839161868	 1.2310206053	-0.216614
C	-0.0103951344	-0.1844818579	 2.5489057614	-0.103187
O	-0.2061775697	-1.6188576784	 2.775730179	-0.232235
C	 0.4300277063	-1.9484865623	 1.6070513453	 0.453141
O	 0.6113138727	-3.025462817	 1.1456560201	-0.301061
H	 0.8735119096	 1.8063403933	-0.2078901198	 0.301354
H	-0.9913869476	-0.2924976865	-0.0681542646	 0.154935
H	 1.7897285351	-0.2491145339	 1.2293809533	 0.130261
H	 0.5881511574	 0.2565075481	 3.3469106238	 0.136937
H	-0.9676876042	 0.3310220866	 2.4532942379	 0.143602
