15
gdb 14830	4.00838	1.41252	1.17302	1.9211	65.3	-0.257	-0.0382	0.2189	1023.5564	0.117373	-399.796968	-399.788781	-399.787836	-399.830519	27.606	
C	-0.0233708694	 1.4733593195	 0.1437033269	-0.341794
N	 0.2535898645	 0.0549733165	-0.0445516505	-0.322569
C	 0.5827170585	-0.6416670056	 0.9365931397	 0.459686
O	 0.7481393141	-0.3320172474	 2.2737325768	-0.262662
C	 1.1113918729	-1.7142333302	 2.5960838182	-0.094338
C	 0.9236289493	-2.1170489697	 1.1254624533	-0.258433
C	-0.2192307445	-3.056533223	 0.8040470887	 0.147827
O	-0.863479124	-3.6435026634	 1.6337220088	-0.232023
H	 0.6645324115	 2.0561958354	-0.4781708767	 0.131778
H	-1.0364809477	 1.6873425601	-0.2126221995	 0.133193
H	 0.0656181014	 1.8124676669	 1.1818910478	 0.130703
H	 2.1288794278	-1.7678819984	 2.9873988218	 0.12522
H	 0.3959678504	-2.1627843596	 3.2865734674	 0.147956
H	 1.8204294944	-2.4247258478	 0.5799165304	 0.129086
H	-0.4359807493	-3.151306673	-0.2803455031	 0.106371
