20
gdb 93525	2.37595	1.53284	1.0913	3.8554	76.99	-0.2508	0.0257	0.2765	1162.5909	0.171494	-440.309903	-440.300977	-440.300033	-440.343371	34.075	
C	 0.2162872489	 1.5336738398	-0.1534082247	-0.400138
C	 0.1345336091	 0.024343322	 0.0094204435	 0.138471
O	 0.6108481746	-0.542735455	-1.2285874989	-0.269692
C	 0.9278126729	-1.8697523109	-1.3177985373	 0.381879
N	 0.80808481	-2.5039905488	-2.4075790097	-0.504721
C	 1.5385198048	-2.5122699052	-0.0967927932	-0.253747
C	 0.8880260382	-2.0354700497	 1.2056015291	-0.26579
C	 0.8797449027	-0.5044387286	 1.237436998	 0.105401
O	 2.1958118116	 0.0328276763	 1.222017037	-0.430971
H	 1.2583140716	 1.8468290905	-0.2355185447	 0.148209
H	-0.3228547937	 1.8415845488	-1.052492022	 0.124381
H	-0.2326138972	 2.032302589	 0.7110568268	 0.112975
H	-0.9171015779	-0.2782660222	 0.1263867851	 0.081053
H	 0.4137237018	-1.8870916775	-3.1218108836	 0.214628
H	 1.4870707173	-3.5945359928	-0.2185486152	 0.127614
H	 2.5967948504	-2.2263955489	-0.0805398455	 0.132406
H	-0.143355855	-2.4012546857	 1.2832185366	 0.108929
H	 1.4283646202	-2.4323686781	 2.0732969943	 0.092685
H	 0.327758132	-0.148853378	 2.1222328947	 0.069438
H	 2.6635463577	-0.298100715	 1.9951312597	 0.28699
