15
gdb 47079	3.22929	1.5874	1.13106	1.8294	69.03	-0.2465	-0.0681	0.1784	1017.3235	0.113452	-457.770185	-457.763104	-457.76216	-457.802115	26.407	
O	 0.0152545166	-0.0140063743	-0.0513755463	-0.304441
C	 0.0357917782	 1.1892970512	-0.0467760838	 0.296918
C	-1.1496803234	 2.1281020896	 0.2930215309	-0.185472
O	-0.6306212505	 3.4547537596	 0.3915452219	-0.269306
C	 0.5173327537	 3.5063839191	-0.4614560982	 0.171422
O	 1.4846723906	 4.4335841712	-0.0687330205	-0.266505
C	 2.7038173023	 3.7523348391	 0.2536456547	-0.113103
C	 2.3864409311	 2.2842564138	 0.1465294471	-0.193633
C	 1.1350742177	 2.1479676508	-0.2871112793	 0.105178
H	-1.9090951215	 2.044408033	-0.5011568234	 0.127112
H	-1.6144244835	 1.847238151	 1.2417572893	 0.146921
H	 0.1808667249	 3.7569774231	-1.4811700377	 0.082517
H	 3.4968396757	 4.0861021289	-0.4311259713	 0.129058
H	 3.0219326093	 4.007226413	 1.2743961738	 0.133306
H	 3.0424086388	 1.5030739909	 0.5100232931	 0.140029
