19
gdb 91392	2.89081	1.36183	1.3536	2.6346	75.38	-0.234	-0.0215	0.2125	1070.5126	0.160058	-423.031973	-423.024137	-423.023192	-423.064105	30.912	
C	-0.6924652185	 1.2354987548	 0.0728864732	-0.410937
C	 0.2053624242	 0.0123953059	 0.0054894251	 0.153156
C	 0.9195382721	-0.1618306041	-1.3542438954	-0.240875
C	 2.1651296429	-1.0606366513	-1.1776066719	-0.146011
C	 3.1501716836	-0.3238330768	-0.2134178384	-0.252047
C	 2.2373436419	-0.7777966962	 0.9647854665	 0.018393
O	 1.1372196005	 0.1078653829	 1.0928375346	-0.288553
C	 1.9031355729	-1.9835179815	 0.0305233131	 0.383974
O	 1.7514947385	-3.1579949804	 0.188250641	-0.312496
H	-0.1086285527	 2.1478254014	-0.083550089	 0.123675
H	-1.4698949993	 1.1823478018	-0.6953261334	 0.118252
H	-1.1753711954	 1.2998019984	 1.0514230451	 0.130528
H	-0.4029712662	-0.8921468298	 0.1709250096	 0.090735
H	 0.2147243125	-0.6100433366	-2.0623142352	 0.113903
H	 1.2272470631	 0.8079133986	-1.7628296494	 0.10743
H	 2.5292190077	-1.4941884333	-2.1094753942	 0.088378
H	 4.1377766055	-0.7901798669	-0.1811517585	 0.114976
H	 3.2365894937	 0.7573913578	-0.3352720624	 0.111149
H	 2.6567990429	-0.9534104145	 1.9559513296	 0.096371
