16
gdb 133072	3.57577	1.14829	0.87452	3.2548	77.43	-0.2056	-0.0103	0.1953	1258.9535	0.125331	-442.104376	-442.096334	-442.09539	-442.13738	29.848	
C	 0.0800309933	 1.4253871358	 0.0735659402	-0.323018
N	-0.0603396734	-0.0023771567	-0.0774384085	-0.347004
C	-1.2502398246	-0.670339944	-0.0291391438	 0.434929
C	-2.4939741627	-0.0121769836	-0.001751426	-0.229889
C	-3.6422572685	-0.7911149718	 0.0234148946	-0.046989
C	-3.5541949902	-2.1800264091	 0.024900112	-0.297669
C	-2.2664222255	-2.7031360932	 0.0022979623	 0.338022
F	-2.1211106856	-4.0283671937	 0.0083046025	-0.080311
N	-1.1522842115	-2.0139988025	-0.0221909207	-0.399892
H	 1.1404639649	 1.6804255968	 0.0309926451	 0.133313
H	-0.4248182587	 1.9660328161	-0.7367262297	 0.133597
H	-0.3227480444	 1.7927599465	 1.0286466267	 0.125894
H	 0.7511710407	-0.5892130355	 0.0217496197	 0.251621
H	-2.5537274983	 1.0677904484	-0.0025602208	 0.093051
H	-4.6157917378	-0.3118701459	 0.0436086533	 0.107579
H	-4.4182555077	-2.8294900575	 0.0458782832	 0.106767
