17
gdb 17362	3.93277	1.5479	1.49179	3.5494	68.34	-0.2265	-0.0055	0.221	917.7383	0.142046	-363.831667	-363.824103	-363.823159	-363.863928	28.4	
C	 0.7170971815	 0.5283053531	 0.5907663976	-0.491021
C	-0.518598115	 0.1621401867	-0.2028394849	 0.379298
O	-1.6026654991	 0.6512825196	 0.0309748755	-0.314686
C	-0.3925927563	-0.8840917974	-1.3046604276	-0.074427
C	 0.9482444996	-1.180757145	-2.0779014081	-0.264578
C	 0.8419594775	-2.6432944887	-1.6321531188	-0.038257
N	 0.8815335265	-2.6240388314	-0.1509952837	-0.325373
C	-0.3960301362	-2.3644228715	-0.8575961826	-0.062919
H	 1.4249104399	 1.0691135973	-0.0490982426	 0.132734
H	 0.436336195	 1.16455992	 1.4312725331	 0.130337
H	 1.2250699818	-0.3802925444	 0.9282962302	 0.166867
H	-1.214753034	-0.7120420661	-2.0020708972	 0.100622
H	 0.8294109798	-1.0375336121	-3.153371317	 0.112103
H	 1.8469685768	-0.6621375204	-1.7383295856	 0.112563
H	 1.1350376358	-3.5295073078	-2.18069408	 0.099153
H	 0.8501824126	-3.5915392009	 0.1687741883	 0.233482
H	-1.269029606	-2.9756449111	-0.6666579267	 0.104103
