19
gdb 66621	2.65689	1.93822	1.45597	2.0417	77.87	-0.2388	0.0831	0.3219	968.3529	0.158998	-385.819588	-385.811981	-385.811037	-385.851138	30.676	
C	 0.0941902418	 1.5570459201	 0.0032849927	-0.522301
C	-0.0125896379	 0.0667827463	 0.0004201903	 0.28473
C	 0.7145618539	-0.9986962366	-0.7904478035	-0.153856
C	 0.7556980592	-1.0046805679	 0.7428142351	-0.153854
C	-0.4924722514	-1.8909200008	 0.9872508187	 0.020023
O	-0.4928726875	-2.9482271756	 0.0015918159	-0.29782
C	-0.5450769642	-1.8833188835	-0.9744671733	 0.020017
C	-1.2499530027	-0.9053363176	 0.0297985484	 0.27549
C	-2.711881513	-0.5780846911	 0.0702954794	-0.538965
H	 1.1431636572	 1.8720694472	-0.0205679959	 0.123838
H	-0.4024134482	 1.9989128035	-0.8685558651	 0.12006
H	-0.360162335	 1.992348734	 0.9010867815	 0.120054
H	 1.6048538665	-0.9206082557	-1.4001235726	 0.087944
H	 1.6774142949	-0.9311288479	 1.3044704381	 0.087939
H	-0.7876882368	-2.2062785648	 1.9874578672	 0.075414
H	-0.8935320661	-2.1909943648	-1.9598266457	 0.075412
H	-3.3074522423	-1.4975937426	 0.0828687442	 0.133509
H	-2.9678571503	 0.0019080544	 0.9642763607	 0.121183
H	-3.015378118	 0.0085214535	-0.8042890163	 0.121185
