16
gdb 123425	4.95164	0.97925	0.91576	5.1679	69.86	-0.3112	-0.0416	0.2696	1269.7536	0.125511	-430.182619	-430.174964	-430.17402	-430.216432	27.248	
C	-0.0763617687	 1.5387670115	-0.2757706017	-0.188105
C	-0.1338607421	 0.0304192733	-0.2509622606	 0.011454
C	-0.1282714702	-0.6963997777	 1.0694266561	-0.252526
C	-1.389111885	-0.642641303	 0.2466480016	-0.269599
N	 1.284542973	 2.0432561789	-0.0791929953	 0.176374
N	 1.7972821297	 2.3546282225	 1.1004259526	-0.119887
N	 3.0268910017	 2.6955958127	 0.8560280565	-0.083955
N	 3.2569362684	 2.5874746603	-0.4652775583	-0.084732
N	 2.171390012	 2.1786872945	-1.0510876321	-0.122287
H	-0.4181109983	 1.9427354569	-1.2313471982	 0.156132
H	-0.6771871909	 1.9715140845	 0.5267878217	 0.150972
H	 0.3851955254	-0.443649366	-1.0780359541	 0.113797
H	 0.4125478837	-1.6335730431	 1.1274513601	 0.12854
H	-0.0822939179	-0.0996706731	 1.973991736	 0.135034
H	-2.1996261339	-0.0126931446	 0.5983081571	 0.120993
H	-1.7170532268	-1.5401787975	-0.2644799715	 0.127795
