19
gdb 70198	3.37474	1.29308	1.11194	4.4572	75.47	-0.2554	0.0119	0.2673	1141.1243	0.159962	-423.062086	-423.054	-423.053056	-423.094512	31.696	
C	-0.1515595352	 1.5561385246	 0.045684279	-0.464077
C	-0.0293030137	 0.0470958108	 0.0003298734	 0.28636
C	-0.8006496117	-0.7711142188	 1.0281176104	-0.364105
C	 0.6974026749	-0.6500061722	 1.1123927839	 0.09924
O	 1.5506196835	-1.7523405474	 0.8710443748	-0.224932
C	 1.5488510242	-2.4345767314	-0.304133356	 0.412473
O	 2.3429123733	-3.3208337264	-0.4618649336	-0.322843
C	 0.5035144434	-2.0443892237	-1.3356385137	-0.369563
C	 0.1932120346	-0.5427506136	-1.3810024989	-0.268739
H	 0.7268237784	 2.0373796052	-0.399423644	 0.123047
H	-1.0349491458	 1.8931051618	-0.5091455127	 0.122336
H	-0.2483734634	 1.919107569	 1.0734590689	 0.118212
H	-1.3903182713	-0.2388645832	 1.7669578032	 0.118742
H	-1.2169121143	-1.7288624882	 0.7381070996	 0.121513
H	 1.1251598646	-0.0661655241	 1.9193513917	 0.11249
H	 0.8600949102	-2.4112600654	-2.2995431868	 0.138268
H	-0.4038643758	-2.615137276	-1.1044490292	 0.138268
H	-0.6771344338	-0.3630629113	-2.0232201742	 0.109268
H	 1.0358530579	-0.0151517496	-1.8466480959	 0.114043
