11
gdb 131977	2.93653	1.68306	1.07018	3.9749	61.39	-0.263	-0.1119	0.1511	983.2948	0.065	-521.884172	-521.876899	-521.875955	-521.916199	26.116	
N	 0.0412059746	 1.3878483825	 0.1096909523	-0.59624
C	-0.0340761086	 0.0483487948	 0.0362936776	 0.318587
C	-1.114047355	-0.7985890282	 0.0169008941	 0.422733
O	-0.6721299623	-2.0686472497	-0.0198022704	-0.179136
N	 0.714767537	-1.9884401933	-0.0292258844	 0.028972
N	 1.0754447283	-0.7725261232	 0.00362783	-0.181658
N	-2.4913905021	-0.5012992971	 0.0104182425	 0.364021
O	-2.7625497527	 0.7094991155	 0.0277666177	-0.412456
O	-3.2988517603	-1.4172551654	-0.0137090256	-0.345274
H	 0.9230400489	 1.8309384545	-0.0846560369	 0.285246
H	-0.8177011577	 1.9003316496	-0.0154015368	 0.295205
