21
gdb 84918	2.19923	1.82276	1.28595	1.4946	83.51	-0.2439	0.0093	0.2532	1073.0385	0.184802	-387.082517	-387.074324	-387.07338	-387.114722	33.017	
O	-0.0526311601	 1.3281405491	-0.41473342	-0.432133
C	-0.058755635	-0.0566930323	-0.0280604823	 0.072573
C	 0.7885843438	-0.2864526256	 1.210978343	-0.131102
C	 0.4805508739	-0.0030035599	 2.4809789779	-0.017404
C	-0.7745165097	 0.5794193727	 3.0815726196	-0.244269
C	-1.8295107853	 1.1286552649	 2.1089681316	-0.234202
C	-2.3847575226	 0.0520380174	 1.1995718679	 0.007618
C	-2.672828093	 0.3169606592	-0.25988473	-0.32144
C	-1.4943639576	-0.5368635228	 0.1361942838	-0.008842
H	 0.7792330476	 1.702070346	-0.1080027183	 0.278018
H	 0.3897374836	-0.6365780584	-0.8493124306	 0.064361
H	 1.7760779507	-0.7040457046	 1.0216261315	 0.083015
H	 1.2464044197	-0.2270393672	 3.2243520701	 0.087791
H	-1.2288982829	-0.194517683	 3.7203349788	 0.109034
H	-0.4729200905	 1.3716115287	 3.7819369605	 0.100854
H	-2.6420236408	 1.5852067452	 2.6876453161	 0.085542
H	-1.3816268404	 1.9213293539	 1.504595639	 0.115646
H	-3.046038828	-0.6545887376	 1.6967153461	 0.071947
H	-3.527124267	-0.1694242463	-0.7184358751	 0.101404
H	-2.4532797221	 1.3077493218	-0.63902626	 0.131735
H	-1.5889228343	-1.6063883213	-0.0284548796	 0.079856
