19
gdb 39251	2.83483	1.87292	1.36362	1.4654	80.54	-0.2226	0.0165	0.2391	975.7524	0.162015	-385.893027	-385.886034	-385.885089	-385.924251	28.683	
C	-0.0979337676	 1.4565403839	 0.080834746	-0.373174
C	 1.3004262831	 0.8923224114	 0.0074447098	-0.101742
C	 2.0296214059	 0.5441264525	 1.2917707944	-0.09659
O	 1.1371579354	-0.2487280375	 2.0779308905	-0.277953
C	 0.1389199352	-0.8313681282	 1.2506799889	 0.07759
C	 0.3615035411	-2.2910365135	 0.7623839961	-0.306457
C	-0.1034088465	-2.2408294001	-0.6803246217	-0.082086
C	-0.2459610983	-0.9864503124	-1.1203517836	-0.186274
C	 0.0899375547	-0.0260976685	-0.0456890249	 0.331926
H	-0.4609952052	 1.8390955192	 1.0316213369	 0.117455
H	-0.4487322829	 2.0050929058	-0.7876791555	 0.112707
H	 1.8909865334	 1.0800823329	-0.881881753	 0.091883
H	 2.9482273068	-0.0137999134	 1.0517836387	 0.0938
H	 2.3124380332	 1.4105803767	 1.9020005401	 0.105146
H	-0.7998454227	-0.772919216	 1.8149146517	 0.083466
H	 1.4256602392	-2.556939674	 0.8266225999	 0.114878
H	-0.1818763446	-3.0230753102	 1.3684708606	 0.10533
H	-0.2533493016	-3.1321283532	-1.2791384571	 0.094126
H	-0.5315947288	-0.6916243354	-2.1233346378	 0.09597
