16
gdb 49230	4.7171	1.03424	0.91584	4.1702	72.15	-0.2494	-0.0756	0.1738	1250.6916	0.12344	-437.885232	-437.877237	-437.876293	-437.918553	29.185	
O	-0.1209152637	 0.105408398	 0.4157046681	-0.217953
C	 0.030035427	 1.2596231945	 0.12133171	 0.106604
C	 1.3702894412	 1.9112633091	-0.0396408195	 0.297549
N	 2.5035180494	 1.3557511957	 0.1065814438	-0.279493
C	 3.5009314655	 2.402391201	-0.1554703897	-0.259459
C	 2.6733056003	 3.6527632308	-0.482582269	 0.399726
C	 2.9834664695	 5.0506015483	-0.0599727598	-0.326028
C	 2.9874085934	 4.6669630598	-1.5324265976	-0.325687
O	 1.3059166203	 3.2274549768	-0.3757753138	-0.272944
H	-0.8179946436	 1.9515223001	-0.0590398593	 0.102571
H	 4.1378790577	 2.5328808204	 0.7272882722	 0.129421
H	 4.1504758364	 2.0938768085	-0.9829200166	 0.129452
H	 2.1590244914	 5.6595282158	 0.2934162783	 0.133535
H	 3.931429084	 5.2310419894	 0.4369177081	 0.12464
H	 3.9381550073	 4.5831250387	-2.049296558	 0.124585
H	 2.1655267341	 5.0249364031	-2.1421287273	 0.133482
