20
gdb 71959	2.82955	1.93853	1.67173	0.8265	77.16	-0.2064	0.0902	0.2966	917.7078	0.173863	-403.13597	-403.129115	-403.12817	-403.166645	29.29	
C	 0.0115955769	 1.5522376688	-0.0680942676	-0.483732
C	-0.006895195	 0.0493319889	 0.0605926435	 0.417191
C	-1.2611795332	-0.7321630766	 0.4832633155	-0.214117
N	-0.3836672395	-1.8107902298	 1.0629586913	-0.142463
C	 0.094569543	-2.66018315	-0.0706112592	-0.17963
C	 1.1572516993	-1.7718495419	-0.7389226927	 0.083628
C	 1.965926486	-1.3332453167	 0.4925108137	-0.242099
C	 0.7347709587	-0.7607129104	 1.1716376069	-0.056188
O	 0.5196685025	-0.5502213955	-1.1469272541	-0.319781
H	 1.0336157672	 1.9202767114	-0.2002057126	 0.12186
H	-0.5730320599	 1.8660947804	-0.9390973651	 0.129306
H	-0.4182846885	 2.0218386151	 0.8218730979	 0.1152
H	-1.8311892146	-0.2461241737	 1.282713772	 0.097207
H	-1.9396078086	-1.0553103027	-0.3116180098	 0.101516
H	 0.5328976433	-3.5896107725	 0.3107018066	 0.098556
H	-0.7357052089	-2.9173391623	-0.732716773	 0.105616
H	 1.6950109948	-2.1891723721	-1.5906771746	 0.07591
H	 2.4281840277	-2.1587086024	 1.0392057442	 0.107505
H	 2.7145683319	-0.5734347653	 0.2564301113	 0.108291
H	 0.817263527	-0.3254532627	 2.1662513958	 0.076223
