22
gdb 40513	2.94573	1.38938	1.20031	0.9887	85.92	-0.2207	0.0864	0.3071	1150.0257	0.195401	-367.152828	-367.1446	-367.143656	-367.185932	32.667	
C	 1.2863476646	-0.2618394388	-0.5604406033	-0.233477
C	 0.2474389898	-1.1800192958	-1.1040061929	-0.238576
N	-0.0915930899	-0.2036186726	-0.077343589	-0.141344
C	-0.3605401692	-0.6351233432	 1.2743586822	 0.392679
C	 0.2941980982	-1.8897337036	 1.9279281455	-0.300812
C	-1.1055608778	-2.3066879298	 2.4751718696	-0.225388
C	-1.787239826	-1.1403841424	 1.7041957674	-0.063773
C	-1.9988219503	 0.1446674771	 2.535187886	-0.217645
C	-0.5215652805	 0.5620388824	 2.2623289764	-0.268328
H	 2.0388038441	-0.7024640231	 0.0910690295	 0.113812
H	 1.6259985252	 0.5956726316	-1.1345886494	 0.114797
H	-0.1937700663	-0.9947085503	-2.0795476892	 0.114702
H	 0.3194065311	-2.2315252867	-0.8353239377	 0.111799
H	 0.6849265043	-2.612301047	 1.2060837448	 0.098849
H	 1.0772136775	-1.6935794702	 2.6662551612	 0.091861
H	-1.4252369682	-3.3025859119	 2.1601659818	 0.099839
H	-1.2103879905	-2.2470338799	 3.5621774625	 0.097525
H	-2.5546623065	-1.4184885878	 0.9805541634	 0.062356
H	-2.7135390833	 0.8311134502	 2.0746471034	 0.102927
H	-2.2863257191	 0.0000744541	 3.5808871286	 0.090571
H	 0.143184155	 0.5271142502	 3.1299813787	 0.089511
H	-0.4092415124	 1.5297609575	 1.7706801605	 0.108116
