18
gdb 123866	3.36763	1.49918	1.08309	3.4264	76.72	-0.247	-0.0059	0.2411	1092.8798	0.151389	-401.971647	-401.964706	-401.963762	-402.003011	27.822	
C	-0.0249005823	 1.5463832565	-0.049161524	-0.198191
C	 1.4001103948	 2.122920749	 0.013759852	-0.202884
C	 2.0855551869	 1.8016316503	 1.3562433017	-0.311585
C	 1.8927655842	 0.3528025259	 1.6946652952	 0.339776
N	 2.5938719762	-0.2932444394	 2.5934748185	-0.230978
O	 2.0709264048	-1.5864812704	 2.6093348257	-0.170519
C	 1.074107335	-1.6642119355	 1.7122602385	-0.043803
C	 0.8977306587	-0.4726746185	 1.0863855227	 0.117973
C	-0.020997748	 0.0047062794	-0.0002757975	-0.333167
H	-0.607800056	 1.9366454096	 0.7954044049	 0.103981
H	-0.5292625336	 1.8816836704	-0.9609355364	 0.09918
H	 1.9947778465	 1.7072417364	-0.8102283434	 0.104685
H	 1.3762272692	 3.2072399527	-0.1332761033	 0.101033
H	 3.1504492261	 2.0508135568	 1.332200054	 0.126426
H	 1.6408050185	 2.4156847652	 2.1501230593	 0.124685
H	 0.5917380599	-2.626733205	 1.6335381352	 0.145389
H	-1.0380473432	-0.3761506029	 0.1423013314	 0.11158
H	 0.3174656224	-0.3827284203	-0.9709349446	 0.116417
