20
gdb 110547	3.48787	1.38086	1.34257	2.1057	77.15	-0.2351	0.0835	0.3186	1055.3798	0.173854	-403.131631	-403.124256	-403.123312	-403.163516	29.426	
C	-0.083357776	 1.37756702	-0.0166815063	-0.241396
O	 0.142849145	-0.0122597802	 0.0655292741	-0.257352
C	 0.6805508345	-0.5724960154	-1.1101349913	 0.157743
C	 1.0614013337	-2.0269506802	-0.8648271192	-0.067846
C	-0.1356354654	-2.8542723202	-1.1822754234	-0.025245
C	-1.2489202584	-1.9073403994	-1.617088925	-0.229632
C	-0.3265435449	-0.8520099528	-2.2611475916	-0.114051
C	 0.5567338181	-1.7478012909	-3.1446665611	-0.15964
N	 0.9907309834	-2.765506957	-2.148113138	-0.133609
H	 0.8405501104	 1.923533739	-0.2636108667	 0.10613
H	-0.8452007395	 1.6338514396	-0.7674146917	 0.1073
H	-0.434891154	 1.7058583488	 0.9643934066	 0.128524
H	 1.5319342907	 0.0335754027	-1.4594442525	 0.061736
H	 1.8305500311	-2.309412538	-0.1571580494	 0.09102
H	-0.3215833647	-3.8223244551	-0.7343205789	 0.09047
H	-1.9427432307	-2.3588523966	-2.3328668232	 0.096438
H	-1.8102062145	-1.5143498347	-0.7664847029	 0.11527
H	-0.7979306241	 0.0092427158	-2.7311861883	 0.06737
H	 0.014314713	-2.2313359148	-3.9626465945	 0.103954
H	 1.4321619122	-1.2361834209	-3.5569453866	 0.102818
