18
gdb 63566	2.70423	1.44233	1.1085	2.8377	74.31	-0.2679	0.0034	0.2713	1135.888	0.145429	-439.071626	-439.062684	-439.06174	-439.104985	33.302	
C	-0.0659447078	 1.5194690146	-0.0423284588	-0.455109
C	-0.0771166824	 0.0097160033	 0.0363431908	 0.283718
C	-1.1972765994	-0.7016119867	-0.6860559107	-0.464561
O	 1.2242266155	-0.6097709837	-0.1011286537	-0.304475
C	 0.6038357614	-0.6579136007	 1.1583475654	 0.238736
C	 1.185721925	-0.1437169759	 2.4760100502	-0.167646
O	 0.7268330406	-1.3750125199	 3.1221514292	-0.263353
C	 0.2556993795	-1.9014578539	 1.9307612178	 0.385628
N	-0.2643388714	-3.0097346255	 1.6661297535	-0.553788
H	 0.8048698115	 1.9364629002	 0.4693164443	 0.127167
H	-0.0335221466	 1.8420361484	-1.0883719064	 0.1347
H	-0.9728418285	 1.9362978211	 0.4080796963	 0.128048
H	-1.1420390048	-0.4908917673	-1.7594830919	 0.125633
H	-1.1363009041	-1.7796413224	-0.5284181949	 0.169086
H	-2.168701498	-0.3488376127	-0.3240529643	 0.121993
H	 2.2752263612	-0.0642693847	 2.502247702	 0.134629
H	 0.7170103263	 0.7354452917	 2.9246698037	 0.125898
H	-0.3318246579	-3.605734296	 2.4925133675	 0.233695
