19
gdb 110647	2.5008	1.60675	1.2169	2.4321	75.68	-0.2174	0.0572	0.2745	1098.4336	0.156449	-422.924816	-422.915961	-422.915016	-422.95852	33.065	
C	 0.240953363	 1.0181364623	 0.4408724099	-0.23242
O	-0.4700508679	 0.1008308337	-0.3627131879	-0.224692
C	 0.3360431045	-0.5787983017	-1.2596813221	 0.092251
C	 1.4311389251	-1.5922999976	-0.973383038	-0.227647
C	 1.0852925355	-2.6484195742	 0.1106528765	 0.031819
O	-0.1630854151	-2.3266946059	 0.7314015885	-0.232507
C	-0.1725756837	-2.9812748374	-0.5409637948	-0.028171
C	 0.1120992739	-1.978572705	-1.7128902666	 0.220908
C	-0.1074522558	-2.3959215647	-3.1385572288	-0.493104
H	 0.9793440782	 0.5075104747	 1.0739176397	 0.114007
H	 0.762948945	 1.775269807	-0.1656760842	 0.097267
H	-0.4915154428	 1.5191677614	 1.0775355878	 0.126662
H	 0.6538426046	 0.0565375025	-2.0964363142	 0.083241
H	 2.4240143411	-1.4872081452	-1.3948325425	 0.088563
H	 1.7917536206	-3.2532554163	 0.666356059	 0.107847
H	-0.7191470397	-3.9128269443	-0.6320842482	 0.105041
H	-1.1778274773	-2.4349004761	-3.3761995063	 0.128393
H	 0.3631352293	-1.692596164	-3.8324018742	 0.122847
H	 0.3117580814	-3.3899081391	-3.3346454437	 0.119694
