17
gdb 1362	3.18001	2.31112	2.02665	1.0529	60.53	-0.2404	0.0705	0.3109	758.5937	0.145588	-346.836423	-346.827969	-346.827025	-346.868312	31.098	
C	-0.0605017518	 1.5369192305	-0.0874427543	-0.424739
C	 0.0404682801	 0.0339255743	 0.0468660375	-0.0806
C	 1.3636318677	-0.6962729896	-0.1626955262	 0.005734
O	 2.5425643137	 0.0341970105	-0.3523451647	-0.420109
C	 0.7307909444	-0.6444514732	 1.2055799491	 0.360355
C	 1.3801516612	 0.1303964027	 2.3275134894	-0.448058
O	 0.0596446953	-1.8117057474	 1.6177130529	-0.463729
H	 0.8916616769	 2.0275874855	 0.1286883021	 0.125352
H	-0.35143121	 1.8149832454	-1.1068372915	 0.113191
H	-0.8143959631	 1.9485204932	 0.5917346456	 0.123362
H	-0.8268204141	-0.51833211	-0.304650852	 0.095149
H	 1.3245935016	-1.6578769722	-0.6746026735	 0.084878
H	 2.5204830736	 0.412958352	-1.2377313579	 0.290069
H	 1.9524597252	 0.9796416509	 1.9522098719	 0.136032
H	 0.6260398492	 0.4868948024	 3.0361472634	 0.12067
H	 2.0781823443	-0.51557049	 2.8745934103	 0.106313
H	 0.7185899757	-2.4130955951	 1.9840864781	 0.27613
