14
gdb 16085	4.83053	1.72709	1.4802	1.8816	68.71	-0.247	-0.0072	0.2397	842.9166	0.106497	-345.354467	-345.347791	-345.346847	-345.385018	26.186	
C	-0.0133217009	-1.1790538726	 0.0901341506	-0.371251
C	 0.0387892472	 0.019535138	 0.0128164624	 0.208817
C	 0.0587372354	 1.4478116914	-0.1087039131	 0.243939
C	-0.9422761369	 2.1645652992	-1.0217752206	-0.345967
C	-0.2038417749	 3.4219171539	-1.4283038797	-0.080574
C	 1.0339290802	 3.4698915807	-0.9298327043	-0.077885
C	 1.2869078029	 2.2848755543	-0.0593043567	-0.066546
O	 0.3944189625	 2.199960222	 1.0695810667	-0.289519
H	-0.0484827744	-2.2374072265	 0.1685904509	 0.192835
H	-1.1984316103	 1.5400305187	-1.8856883682	 0.126452
H	-1.8764126099	 2.3790805551	-0.490151313	 0.134419
H	-0.6666329276	 4.1894310513	-2.0380133194	 0.108125
H	 1.7594728027	 4.2575270718	-1.0877268676	 0.10806
H	 2.2773715039	 1.8725835525	 0.1059602319	 0.109095
