19
gdb 37250	3.44392	1.52673	1.36318	3.0059	78.32	-0.2212	0.0633	0.2846	1000.5045	0.161243	-381.962576	-381.955504	-381.954559	-381.99379	29.253	
C	 0.0937921913	 1.4710485841	 0.0069710329	-0.235835
C	 1.3270094191	 0.6627571059	-0.0271370378	-0.035409
C	 1.6867775904	 0.0099594183	 1.3179689152	-0.029295
C	 1.3778367687	 0.8053954684	 2.6211327019	-0.349955
C	-0.0456242526	 0.2020260869	 2.5924186714	 0.350218
C	-0.8267807513	-0.2630805032	 3.7615262012	-0.322157
N	-1.3165095727	 0.8449777612	 2.9204241566	-0.351169
C	 0.2552058554	-0.5805290556	 1.3048907105	-0.044487
N	-0.0528864572	 0.0066010967	-0.0648857421	-0.147142
H	-0.221487921	 2.0064836561	 0.8946856274	 0.122949
H	-0.1979377187	 1.951430546	-0.9227912522	 0.118892
H	 1.9745202212	 0.6455227167	-0.8988443559	 0.092549
H	 2.5722586659	-0.6224550961	 1.3060210855	 0.07682
H	 1.9735281077	 0.4924711624	 3.4832692685	 0.107605
H	 1.4384527248	 1.8948579661	 2.5310644009	 0.102202
H	-1.4124258059	-1.1766907076	 3.6970809808	 0.122877
H	-0.4391502949	-0.0384950345	 4.7526203448	 0.11148
H	-1.142944481	 1.7341042826	 3.3850939561	 0.230317
H	 0.0409068909	-1.6492125946	 1.3079005244	 0.07954
