17
gdb 65685	3.6656	0.93524	0.87129	2.4746	70.1	-0.2602	-0.0384	0.2217	1330.3617	0.132324	-458.994537	-458.985547	-458.984603	-459.02871	32.785	
C	-0.1443096573	 1.74534065	 0.0746073755	-0.437305
C	-0.0063313658	 0.2302723665	 0.0129840431	 0.379553
C	 1.1278842425	-0.2926064561	-0.9338067283	-0.405225
C	 1.9443672267	-0.6122302976	 0.3306088843	 0.410271
O	 3.0946900542	-0.8638744392	 0.5304083373	-0.27981
C	 0.7243787896	-0.3928057284	 1.2356814828	-0.388579
O	-1.2951300286	-0.3882138843	-0.1488958944	-0.234523
C	-1.8819075063	-0.3293338973	-1.3603149296	 0.158813
O	-2.9714473148	-0.7724740942	-1.5678451579	-0.270738
H	 0.8227441473	 2.2101135386	 0.2902311617	 0.133522
H	-0.5080351694	 2.1525986753	-0.8740412739	 0.129077
H	-0.8470244696	 2.0268656075	 0.8639499053	 0.143511
H	 0.8459852288	-1.2120688019	-1.4570525475	 0.147796
H	 1.5693792388	 0.4066384088	-1.6475594058	 0.136802
H	 0.8614051589	 0.2303432795	 2.1221562719	 0.136709
H	 0.2665138726	-1.3428612715	 1.5284685998	 0.155199
H	-1.2510576174	 0.1533496942	-2.1301193743	 0.084928
