17
gdb 68535	2.698	2.01622	1.72812	0.3012	69.87	-0.2372	0.0056	0.2428	869.5768	0.136247	-421.785202	-421.778406	-421.777462	-421.815826	28.462	
C	-0.0121514988	 1.4945862833	-0.0470499622	-0.507045
C	 0.0205259902	-0.0108661392	 0.0502068965	 0.30105
O	 0.6756523122	-0.6088203678	-1.0979606925	-0.272417
C	 0.5511285063	-1.9708623615	-0.6495808465	-0.056286
C	 1.1261435405	-1.8824216557	 0.7599144194	-0.06173
C	 0.7917521695	-0.6700336397	 1.1950186382	-0.098036
C	-1.0148749187	-2.0698127213	-0.5372882197	 0.027679
O	-1.5686022507	-1.8919710821	 0.7731587453	-0.234775
C	-1.3744062469	-0.7435261958	-0.0606812079	-0.000699
H	 1.0025960871	 1.8941809267	-0.1198766639	 0.135588
H	-0.5713689676	 1.8126502081	-0.932125424	 0.128094
H	-0.492645096	 1.9235007226	 0.8375649033	 0.125307
H	 1.0099803219	-2.6575795639	-1.3589598894	 0.078008
H	 1.5948812944	-2.6921879511	 1.3007622365	 0.112987
H	 0.9236971393	-0.2423417224	 2.1791560515	 0.109876
H	-1.5924937623	-2.6695742679	-1.2324087965	 0.10844
H	-2.2636861104	-0.1891300023	-0.3446693081	 0.103957
