15
gdb 16318	3.29886	1.95525	1.41522	3.4994	61.15	-0.2355	0.0009	0.2365	880.6846	0.118635	-399.779631	-399.772193	-399.771249	-399.811545	27.228	
C	 0.1415260469	 1.4090214486	 0.3316450103	-0.335087
N	 0.0266984426	 0.0200257219	-0.1244352634	-0.376411
C	-1.2832952578	-0.4938075493	-0.1365851298	 0.14996
C	-1.9707129353	-0.9621292037	 1.1614779313	-0.314027
C	-1.8284914113	-1.900481307	 0.0246095003	 0.033249
O	-2.8915703652	-1.6404724728	-0.9324555826	-0.268248
C	-2.3666757235	-0.3746154757	-1.1967414656	 0.410047
O	-2.7014205024	 0.3830693503	-2.0475190173	-0.328764
H	 1.1950608127	 1.7005440241	 0.3167853207	 0.12417
H	-0.4302921878	 2.1255240938	-0.2754042562	 0.128304
H	-0.2130208582	 1.477775404	 1.3646474869	 0.130167
H	 0.4652409832	-0.0921825507	-1.0317095278	 0.234388
H	-1.2617995112	-1.0854633039	 1.9747425604	 0.138055
H	-2.9552085032	-0.5984983628	 1.4365727086	 0.137151
H	-1.3427937197	-2.8641689167	-0.0154083758	 0.137045
