17
gdb 71933	2.86652	1.98229	1.50522	1.5211	71.17	-0.2381	-0.0024	0.2357	892.4223	0.137019	-421.792769	-421.785933	-421.784989	-421.823536	28.315	
O	-0.0106415344	 1.4331678658	 0.0528722004	-0.489018
C	 0.0247261296	 0.025870716	 0.0286316453	 0.376971
C	 0.2701315301	-0.6437508226	-1.3825905077	-0.312538
C	-1.0291918452	-1.4684203244	-1.1950724688	 0.122485
O	-0.8559785942	-2.6735743583	-0.4194621727	-0.319013
C	-1.1120488276	-1.9585996448	 0.8423500707	 0.062588
C	 0.150605864	-1.7062836371	 1.6294552921	-0.075549
C	 0.7809778908	-0.6262457026	 1.1661341676	-0.150687
C	-1.376144596	-0.6492614151	 0.0669844635	-0.14536
H	 0.8777422245	 1.7619654997	-0.1231500828	 0.277669
H	 0.1482908587	 0.1033413124	-2.1732699379	 0.10396
H	 1.1946488455	-1.2057074437	-1.5288692648	 0.103028
H	-1.6778375062	-1.6258124223	-2.0588656282	 0.079818
H	-1.9253386423	-2.4436552049	 1.3881789474	 0.078007
H	 0.5146912963	-2.3737735053	 2.4014962425	 0.104545
H	 1.7477475814	-0.2612916037	 1.4996011136	 0.09652
H	-2.258697625	-0.0375216792	 0.2354129699	 0.086573
