19
gdb 40469	3.69414	1.3323	1.21034	1.2473	79.79	-0.2227	0.063	0.2857	1088.9238	0.161089	-381.936699	-381.929429	-381.928485	-381.968719	29.267	
C	-0.1897736061	 1.3872582372	-0.1215324771	-0.264645
C	 1.2450246568	 1.0115642198	 0.1456884796	-0.27755
C	 0.1783533126	-0.0581177803	 0.1092649457	-0.147362
C	-0.2509352496	-0.735599191	 1.3557216526	 0.397975
N	-0.3123926693	-0.0690855052	 2.7045482806	-0.388179
C	-0.7803769206	-1.468760365	 2.9720741828	-0.045174
C	-1.5686936155	-1.5332163551	 1.6303086443	-0.057201
N	-0.9625744608	-2.8175480775	 1.1475190267	-0.353533
C	 0.1448672132	-2.1540809454	 1.9098865153	-0.09462
H	-0.7286001371	 1.8887896403	 0.6743778765	 0.131272
H	-0.4695251181	 1.6884022686	-1.1247563096	 0.111191
H	 1.9552517214	 1.0477068494	-0.6728166858	 0.113519
H	 1.6621946713	 1.2852608536	 1.1089872203	 0.110309
H	 0.1713161156	-0.7151514999	-0.7550900545	 0.102383
H	 0.6346012536	 0.0530289126	 3.0747277149	 0.206718
H	-1.0790787092	-1.8220793456	 3.9608724631	 0.079799
H	-2.594365936	-1.2268932761	 1.4251189905	 0.088562
H	-1.3366965374	-3.6043759413	 1.6848916297	 0.208002
H	 1.1399037653	-2.5878234491	 2.0333639242	 0.078534
