16
gdb 47170	2.41524	1.94737	1.14121	5.1839	71.35	-0.2321	-0.0067	0.2254	1023.7511	0.12611	-437.886257	-437.878903	-437.877959	-437.918271	27.954	
O	-0.0439254052	-0.0501893324	 0.1724473846	-0.363007
C	-0.0263180864	 1.1570539516	 0.0640939416	 0.366119
N	-1.1561342644	 1.9183294286	-0.1158477941	-0.322832
C	-1.2877206829	 3.3768729131	-0.0383853531	-0.193095
C	-0.1305024638	 4.0045681058	 0.7081005946	-0.239925
C	 1.0179885584	 3.3537545756	 0.6772583566	 0.261515
C	 2.3032355676	 3.1241266515	 1.4309191935	-0.160387
O	 2.2941953392	 1.7357154171	 0.9828274079	-0.289701
C	 1.2305196375	 2.0168446842	 0.0404704935	-0.030654
H	-2.0071384248	 1.378846964	-0.1773426717	 0.251899
H	-1.393568924	 3.8135398925	-1.044076622	 0.127039
H	-2.2210492507	 3.6006380829	 0.4908871769	 0.12683
H	-0.3094743661	 4.905937672	 1.2836292382	 0.10968
H	 3.1848920581	 3.6592082285	 1.0531024233	 0.116243
H	 2.2621902042	 3.2133684269	 2.5219324382	 0.129675
H	 1.6189507531	 2.034599448	-0.9899866181	 0.1106
