18
gdb 29903	5.47812	0.91816	0.83423	3.5345	81.45	-0.2047	0.0367	0.2415	1390.9304	0.148221	-401.957719	-401.949222	-401.948278	-401.991687	30.979	
C	 0.2104512732	 1.4688758944	-0.0573712301	-0.335355
N	-0.0191514709	 0.0409839743	 0.0028953106	 0.017293
C	-0.2107142791	-0.7824081604	-1.0801785005	-0.07862
C	-0.2839986032	-2.0794135452	-0.6345607996	-0.290763
C	-0.1252442248	-2.0497943247	 0.7823204786	 0.285089
C	 0.0451932818	-0.7277196532	 1.1373750749	-0.204433
C	-0.1601750162	-3.1972674528	 1.7071691132	-0.029367
C	-1.1036804158	-4.3203064767	 1.557710807	-0.185467
O	 0.2655449574	-4.4699294439	 1.1912480358	-0.238318
H	 1.2764003442	 1.7078591283	-0.15099952	 0.139718
H	-0.317938246	 1.888241832	-0.9166784446	 0.141134
H	-0.1754260106	 1.943972369	 0.8479538401	 0.14056
H	-0.2696441963	-0.3703504122	-2.0754594865	 0.115878
H	-0.4217590686	-2.959294549	-1.2431459799	 0.107077
H	 0.1993912874	-0.2730395904	 2.1037659533	 0.115165
H	 0.2006491584	-2.9901109256	 2.7156490472	 0.081018
H	-1.4211391361	-4.8846620676	 2.4348598042	 0.108744
H	-1.8125234849	-4.3056410864	 0.730779216	 0.110648
