16
gdb 98708	2.28517	1.29994	1.06367	4.3061	70.81	-0.2558	-0.0083	0.2475	1185.5759	0.12444	-434.08067	-434.07151	-434.070565	-434.115571	31.813	
C	 0.4065388292	 1.5019068756	-0.1332814967	-0.33578
N	 0.9074873438	 0.2038738361	-0.5380102391	-0.312622
C	 0.0934312843	-0.8053343094	-0.9230796649	 0.417442
O	-1.1184544934	-0.7411063403	-1.0319788982	-0.381317
C	 0.8055125178	-2.1093547244	-1.2207509662	-0.117432
N	 2.2656445644	-2.1415084375	-1.1824693268	-0.334125
C	 1.5256715755	-2.8936594913	-0.1572011604	-0.177083
C	 1.6459086011	-2.424259738	 1.203180376	 0.334882
N	 1.7414321514	-2.0729553045	 2.2999762422	-0.32744
H	 0.7910782654	 2.2949186106	-0.7836942999	 0.128161
H	-0.6809652547	 1.4737491571	-0.2107657594	 0.170275
H	 0.6882130475	 1.7262694195	 0.9007481146	 0.13934
H	 1.898834315	 0.0158364894	-0.5287677616	 0.266677
H	 0.2734712719	-2.7097867272	-1.953112425	 0.126577
H	 2.6535794781	-2.7698828676	-1.8802736467	 0.257443
H	 1.4762947628	-3.9758173481	-0.242736298	 0.145002
