20
gdb 108320	2.94007	1.27642	1.04177	2.4118	75.83	-0.2144	0.0577	0.2721	1211.8924	0.170249	-440.225194	-440.216284	-440.21534	-440.25897	33.372	
C	-0.0826485841	 1.5347793919	 0.1429356099	-0.326448
N	-0.0162773358	 0.0907575263	 0.1335391105	-0.076955
C	-1.2569417009	-0.6574103456	 0.465055095	-0.21817
C	-0.4548695297	-1.5399917001	 1.4418345143	 0.425386
C	-1.0481895611	-2.0341883266	 2.7372905849	-0.149197
O	-1.9102464708	-3.1301286849	 2.4861387075	-0.418839
O	 0.260042609	-2.6164299495	 0.7750357131	-0.350598
C	 1.4797532044	-1.8272078892	 0.701976196	-0.080338
C	 0.7417172038	-0.5813696895	 1.2126707919	-0.119995
H	 0.9158511185	 1.9549087715	-0.0176041965	 0.121144
H	-0.7231336613	 1.8768482929	-0.6768013415	 0.125731
H	-0.4859507885	 1.9568641447	 1.084005017	 0.088604
H	-2.0051965504	-0.0440258434	 0.991394283	 0.090055
H	-1.729585571	-1.1617331946	-0.3827469213	 0.114401
H	-0.2362578578	-2.3090929523	 3.4301306149	 0.086794
H	-1.6496981423	-1.2542926793	 3.2156018742	 0.106879
H	-1.3916807729	-3.7582354865	 1.9675710755	 0.296623
H	 2.2461884333	-2.2230356934	 1.3808729128	 0.098452
H	 1.8701716712	-1.7615192558	-0.3178247927	 0.112093
H	 1.2012297664	 0.0595780434	 1.9691629215	 0.074381
