17
gdb 38591	3.59993	1.71018	1.54173	1.3595	70.91	-0.2387	0.0444	0.2832	891.9098	0.136788	-421.692163	-421.685892	-421.684948	-421.722382	26.966	
C	-0.0190606513	 1.492381308	 0.1100833027	-0.30911
C	 1.2947018028	 0.7754318929	-0.0405541373	 0.103507
O	 2.1067595977	 0.5317517408	 1.1229220254	-0.295708
C	 1.6778134424	-0.7576142965	 1.5601538201	 0.111627
C	 0.9826842837	-1.2234520757	 2.8890269842	-0.027507
C	-0.0079675744	-0.0680558675	 2.7867078957	-0.268096
C	 0.1891631639	-0.6935090013	 1.3694065869	 0.423427
O	 0.0855179288	-2.0441326138	 1.9948590956	-0.373968
C	-0.0138861695	-0.0224278144	 0.0289073333	-0.243533
H	-0.255924219	 1.9587699963	 1.0588591913	 0.13009
H	-0.3790444045	 2.0346673409	-0.7589355494	 0.120405
H	 1.8723567169	 0.875673897	-0.953041778	 0.105769
H	 2.1986134615	-1.5670679499	 1.040640501	 0.086273
H	 1.3842437159	-1.7450941972	 3.756919164	 0.099627
H	-0.9831041998	-0.2485296873	 3.2390032813	 0.107816
H	 0.3791555885	 0.9357731037	 2.9606103161	 0.116567
H	-0.4245370436	-0.5479917461	-0.8234037627	 0.112815
