20
gdb 83482	2.84304	1.47152	1.4281	3.9002	77.63	-0.231	0.0347	0.2656	1035.1152	0.174372	-403.20673	-403.199114	-403.19817	-403.238391	30.979	
C	-0.1304202296	 1.5579166078	-0.0041686022	-0.432171
C	 0.048388782	 0.043259539	 0.0114555938	 0.037438
C	 1.0629117044	-0.5653544211	-0.9890998858	-0.018104
C	 2.422074828	-0.0082761812	-0.4905793979	-0.213785
C	 2.2325981643	-0.0349501826	 1.0591077213	-0.224969
C	 0.7769891843	-0.580216406	 1.2284248616	-0.143915
C	 0.8812067777	-2.0477517749	 0.7917286944	 0.403933
O	 0.9525472147	-3.0467238953	 1.4699280484	-0.390822
N	 0.9623361776	-1.9746685983	-0.5885939529	-0.297096
H	 0.8044070346	 2.1040915121	 0.1461654166	 0.12128
H	-0.5552634262	 1.8853396351	-0.9593679464	 0.118453
H	-0.8226040339	 1.8666669023	 0.785915132	 0.123562
H	-0.9261064188	-0.4336052717	-0.135015661	 0.085877
H	 0.8502241213	-0.424989815	-2.049840113	 0.074126
H	 3.2511257908	-0.6359464522	-0.8266096784	 0.100897
H	 2.60323648	 1.0028017888	-0.8663088214	 0.103522
H	 2.9583573206	-0.6745372379	 1.5659498309	 0.120539
H	 2.3198716685	 0.9637633336	 1.4934349905	 0.105709
H	 0.3440971604	-0.4499754926	 2.2185924015	 0.080863
H	 1.4009215193	-2.7238418001	-1.1037353419	 0.244665
