11
gdb 9029	4.84136	0.9308	0.80454	3.3977	72.68	-0.2726	-0.0533	0.2193	1299.8375	0.069748	-360.2002	-360.192018	-360.191074	-360.233267	28.405	
O	-0.0622650796	 1.4462000888	-0.00862788	-0.377148
C	 0.0376472063	 0.0357259011	 0.0052829965	-0.230517
C	 0.6782332209	-0.4744623581	-1.2330856748	 0.284946
N	 1.1779897415	-0.8461660599	-2.2055863563	-0.310789
C	 0.7303999885	-0.4877640867	 1.1843501464	 0.485801
C	 1.3015234418	-0.8882614281	 2.1718690713	-0.308156
C	 1.9469199252	-1.3411138282	 3.279918295	 0.297806
C	 2.5191086599	-1.7418325754	 4.2640057674	-0.529942
H	 0.8285859642	 1.8108938268	 0.0607443423	 0.30395
H	-0.9994091288	-0.3236545113	 0.0066679867	 0.178076
H	 3.02404704	-2.0969992591	 5.1285789754	 0.205973
