16
gdb 33752	2.46627	1.66743	1.27396	1.5995	76.55	-0.2464	0.0047	0.2511	1020.4083	0.122976	-400.602849	-400.595158	-400.594214	-400.634859	30.273	
C	 0.0851885561	-1.1411423845	-0.0369444933	-0.353998
C	 0.0388080714	 0.0598221577	 0.0018409998	 0.063952
C	-0.0713363685	 1.4844246803	 0.0196855455	 0.240458
C	-0.6768467533	 2.4348408586	 1.0994305648	-0.261191
C	 0.0178273603	 3.3021943205	 0.0227222956	-0.049338
O	 1.1505735158	 2.3398651291	 0.0242014371	-0.33549
C	-0.6390854256	 2.4373903554	-1.0611582442	 0.396538
C	-0.6647740305	 2.3825239523	-2.5196352792	-0.335468
N	-1.9182471836	 2.5303623241	-1.7111909109	-0.394468
H	 0.1371229416	-2.2019041538	-0.0641721327	 0.193339
H	-1.7649843668	 2.4836390327	 1.1785583915	 0.113737
H	-0.1655067747	 2.3997505704	 2.0615438878	 0.11605
H	 0.2582701256	 4.3627395387	 0.0306335076	 0.109514
H	-0.4076262981	 3.2535336916	-3.1148812485	 0.129705
H	-0.4681555646	 1.4253783012	-2.9955657789	 0.12719
H	-2.415720925	 1.6431517057	-1.6681956419	 0.239471
