16
gdb 2916	6.11258	1.9454	1.5592	4.2189	62.02	-0.236	0.0297	0.2656	786.8302	0.139116	-325.818163	-325.811442	-325.810498	-325.849435	24.034	
O	 0.0432786635	 0.0082943764	 0.4801897123	-0.343049
C	 0.0690705152	 1.2122470801	 0.312340767	 0.135179
N	 1.1730796205	 1.9171177096	-0.0268702798	-0.033693
C	 2.4830890179	 1.2747262528	-0.1763415244	-0.143711
C	 3.4050581863	 2.4299175409	-0.602191054	-0.225671
C	 2.724386031	 3.6759278678	-0.0069978968	-0.209778
C	 1.2317181752	 3.3693520378	-0.1940266149	-0.163748
H	-0.8252297192	 1.8587886028	 0.4251657343	 0.064632
H	 2.7893014329	 0.829034953	 0.777769615	 0.120724
H	 2.4348935261	 0.4641398232	-0.9088520441	 0.126854
H	 4.4310088555	 2.2922132376	-0.2543716197	 0.110677
H	 3.4331635781	 2.5060651456	-1.6946321353	 0.111554
H	 2.9549167076	 3.7594236448	 1.0605759051	 0.113942
H	 3.0247436823	 4.6078326352	-0.491095811	 0.108181
H	 0.8983031422	 3.6684138744	-1.1982544162	 0.109689
H	 0.5914649249	 3.8749350582	 0.5348027326	 0.118218
