25
gdb 109929	2.12162	1.27333	1.00055	1.462	88.34	-0.2512	0.064	0.3152	1367.2171	0.227258	-389.491712	-389.481103	-389.480158	-389.526391	40.962	
C	 0.2355318257	 1.4504363497	 0.3809536384	-0.391267
C	 0.2431661617	-0.0808423938	 0.2837595184	-0.20416
C	 0.5683320742	-0.5800321158	-1.1257319864	-0.053648
C	 2.08996134	-0.5667366818	-1.5052021507	 0.154574
O	 2.9960356894	 0.261661184	-0.8120275051	-0.4304
C	 2.1463712904	-2.0947982948	-1.280935996	-0.308467
C	 0.5880657517	-2.1412027899	-1.3560393928	 0.321671
C	-0.1021989982	-3.0283123878	-0.3227895815	-0.449791
C	 0.0958931158	-2.4941016223	-2.7646059249	-0.436135
H	 1.2037438123	 1.8634389193	 0.0872227165	 0.135867
H	-0.5248033344	 1.8765631289	-0.282983477	 0.112699
H	 0.0107983994	 1.7822556694	 1.3997774553	 0.105311
H	 0.9551172311	-0.4912317911	 1.0144104055	 0.075372
H	-0.7368871662	-0.4696984951	 0.5855116794	 0.099401
H	-0.0725208677	-0.0445367674	-1.8361407438	 0.056254
H	 2.2253462019	-0.3088227682	-2.5585086119	 0.089759
H	 2.9963516307	-0.0029351963	 0.1134936351	 0.278894
H	 2.7127761057	-2.6977572239	-1.9963368645	 0.095645
H	 2.5065704324	-2.3300539595	-0.2723195693	 0.083316
H	 0.2266973553	-2.8073683789	 0.6967344094	 0.108894
H	-1.191810579	-2.910967137	-0.3564381439	 0.111594
H	 0.1194957045	-4.0838833575	-0.5195331913	 0.11007
H	 0.296357461	-3.546182811	-2.9985405578	 0.109668
H	-0.9846646538	-2.3319863233	-2.8524230031	 0.11107
H	 0.5847706159	-1.8851250258	-3.532089218	 0.113807
