15
gdb 19037	4.16998	2.21647	1.87946	2.6286	64.08	-0.2209	-0.0154	0.2055	728.6238	0.121152	-362.635721	-362.629976	-362.629032	-362.665449	23.298	
O	 0.003567112	-0.006648778	-0.1022156629	-0.325678
C	-0.0214087153	 1.1923548583	 0.0123458998	 0.39424
C	-1.2669379956	 2.1028611049	 0.0635128917	-0.288385
N	-0.7734836384	 3.4273836197	 0.4728958729	-0.126707
C	-0.1518755719	 3.3179433541	 1.8500047876	-0.189151
C	 1.2164712976	 3.1695815802	 1.2115560058	-0.078364
C	 0.6090436373	 3.53288427	-0.1042545054	-0.042536
C	 1.1463829263	 2.1334120592	 0.0677320634	-0.163483
H	-1.7059906899	 2.1638077089	-0.9401304615	 0.132057
H	-2.0313781823	 1.7217408399	 0.7449488363	 0.132733
H	-0.2694607783	 4.2637518819	 2.386200938	 0.119527
H	-0.5355196355	 2.4990795294	 2.4689216048	 0.111657
H	 2.1788171393	 3.4481220343	 1.6236242881	 0.104456
H	 0.8719797634	 4.2401380017	-0.8798820644	 0.106696
H	 2.0950625714	 1.8281669555	-0.3549065243	 0.112937
