13
gdb 34906	2.02276	1.94501	1.21758	7.3182	66.17	-0.3011	-0.0136	0.2874	988.6357	0.089264	-415.580768	-415.573271	-415.572327	-415.61331	26.95	
N	-0.2901651618	-1.1944561025	 0.0139577373	-0.310726
C	-0.1596691945	-0.0467366776	 0.0238861243	 0.316293
C	-0.0234623335	 1.3993563593	 0.0302644813	-0.216805
C	-0.2654466754	 2.1228207516	 1.3741752768	 0.026531
O	 0.739032066	 1.6861358282	 2.2795780466	-0.206447
C	 1.0778710477	 2.7188356578	 1.3641545283	 0.026478
C	 1.4356249362	 2.0460311859	 0.0198210213	-0.216775
C	 2.5984590741	 1.1757307795	 0.0046321168	 0.316366
N	 3.5363470987	 0.5015982936	-0.0127393415	-0.31074
H	-0.6174446408	 1.8291675802	-0.7798735459	 0.146795
H	-1.20829936	 2.4694132929	 1.7766721218	 0.141143
H	 1.4586297223	 3.6526233657	 1.7567842215	 0.141132
H	 1.506462851	 2.7702674254	-0.7952440586	 0.146754
