22
gdb 60579	2.97677	1.03373	0.87589	1.5159	82.8	-0.2233	0.0711	0.2944	1413.6873	0.192681	-404.29345	-404.283431	-404.282487	-404.328875	36.928	
C	 2.9541743406	-0.6015923991	 0.1995636646	-0.308435
N	 1.6387991916	-1.2021817117	 0.3805878936	-0.088206
C	 1.469628604	-2.1717142101	 1.4540132399	-0.253232
C	 0.8259812572	-0.8279613328	 1.5339606991	-0.00112
C	 1.2573865521	 0.2054255996	 2.5586028252	 0.084446
O	 1.2549416326	 1.516208344	 1.9858100182	-0.436406
C	 0.3963652819	 0.1278055232	 3.8025230383	 0.015079
C	 0.8196237577	-0.7236129688	 4.9744007818	-0.263846
C	 0.8601450371	 0.7799265978	 5.0771651421	-0.2746
H	 3.5717628927	-0.5700545031	 1.1107790114	 0.097845
H	 3.4992821279	-1.1815657255	-0.5518726685	 0.116747
H	 2.8349974205	 0.4223075857	-0.1635954093	 0.1355
H	 0.8862212682	-3.0589704965	 1.2213230674	 0.112277
H	 2.3183997079	-2.3501567633	 2.1150459021	 0.101801
H	-0.2382152608	-0.761368689	 1.293907411	 0.077514
H	 2.3005018722	 0.038651453	 2.8468666489	 0.079624
H	 0.3569833326	 1.7052160268	 1.6911106162	 0.276002
H	-0.6732906524	 0.1658420408	 3.6021224646	 0.074669
H	 0.0542867614	-1.2624375987	 5.5215636951	 0.112409
H	 1.7639356599	-1.2530099559	 4.8994619085	 0.111138
H	 1.8290509364	 1.2677383074	 5.0645842721	 0.11952
H	 0.1232075489	 1.2750005364	 5.6996708176	 0.111273
