18
gdb 112279	2.45578	1.24231	0.90951	1.1154	70.14	-0.2607	0.008	0.2688	1290.8186	0.146353	-476.19806	-476.188659	-476.187715	-476.232888	33.33	
C	-0.1169021965	 1.4288815517	 0.3592977857	-0.249969
O	-0.1600162879	 0.2154844431	-0.3791102152	-0.242906
C	-1.3509428802	-0.4897864263	-0.2082743385	-0.020853
C	-1.375805124	-1.8730062322	-0.8957916006	 0.054016
C	-0.0787754231	-2.4050682665	-1.4732280388	-0.065211
O	-0.1811688289	-3.792853062	-1.7303884736	-0.421238
O	-1.6473595802	-2.507303071	 0.4109684857	-0.280066
C	-1.5288546413	-1.3018961263	 1.0737236668	 0.417371
N	-1.5498380747	-1.029407286	 2.296688912	-0.545335
H	 0.8465791485	 1.8937257142	 0.1418205965	 0.132166
H	-0.9239460637	 2.1085775911	 0.0468212305	 0.109981
H	-0.2053010201	 1.2439893018	 1.4357178538	 0.151671
H	-2.2273111177	 0.1361895547	-0.4330866035	 0.099304
H	-2.2151055933	-2.0600300542	-1.5698366149	 0.103754
H	 0.1235962716	-1.913724489	-2.4299136336	 0.124738
H	 0.7509806511	-2.1681949779	-0.7943634994	 0.108893
H	-0.3867243771	-4.2170812679	-0.8893254851	 0.292748
H	-1.6608297424	-1.8682591373	 2.8699236122	 0.230936
