19
gdb 71881	2.94317	1.672	1.312	1.0521	74.8	-0.2395	0.0689	0.3085	1013.2494	0.158324	-422.986145	-422.978211	-422.977267	-423.017921	32.053	
C	 0.0785750595	 1.5315488197	 0.0986370511	-0.483058
C	-0.060395189	 0.0413474412	-0.0405075252	 0.449556
C	 0.4775471523	-0.6919800375	-1.3010378497	-0.338281
C	-0.6517229334	-1.7468963094	-1.1414861148	 0.39727
O	-1.3119737179	-2.2030434398	-2.2832145992	-0.482619
C	-0.3729172277	-2.7429419493	 0.0181521771	-0.309431
C	-0.728721517	-1.618457991	 1.0210035281	 0.107629
O	 0.3480844162	-0.6674975617	 1.1620371777	-0.342827
C	-1.3771560629	-0.7931606483	-0.122598341	-0.201674
H	 1.1323848554	 1.8013190489	 0.2325909305	 0.128294
H	-0.2943730312	 2.0422618609	-0.7944990935	 0.118155
H	-0.4776207013	 1.8917345137	 0.9690357741	 0.125181
H	 0.288142145	-0.0970141927	-2.2006892249	 0.102274
H	 1.520415499	-1.021278864	-1.277140754	 0.093379
H	-0.701779344	-2.7544290199	-2.7861846106	 0.277523
H	-1.151259322	-3.5132420309	 0.0219669726	 0.105523
H	 0.6164055532	-3.20157499	 0.1047117452	 0.095355
H	-1.1783323927	-1.87676611	 1.9808727641	 0.079285
H	-2.3961321718	-0.4229625499	-0.1907243076	 0.078466
