19
gdb 125674	3.08866	0.98646	0.79687	2.123	77.89	-0.2307	0.0289	0.2596	1430.2644	0.159842	-419.231527	-419.222029	-419.221085	-419.266775	33.884	
C	-0.0133341079	 1.4776451156	-0.0934452774	-0.500678
C	-0.0048675659	-0.0161353976	 0.0018733699	 0.27896
N	 0.0028416764	-0.7611093026	-1.1022837536	-0.286654
N	 0.0194637797	-2.0319066583	-0.6546965257	-0.188473
C	 0.0273133647	-2.1158918905	 0.6967157288	-0.119138
C	 0.0111102319	-0.8212098354	 1.1759570004	 0.132833
C	-0.0100442779	-0.3704388152	 2.6056175243	-0.313031
C	-1.4266474312	-0.1297847335	 3.1333451544	-0.061084
O	-1.317746712	 0.3091392598	 4.4783008907	-0.418157
H	 0.8324215774	 1.9187348809	 0.4461730772	 0.128094
H	 0.0507514444	 1.7810445222	-1.1404225417	 0.139854
H	-0.9263748879	 1.9086385991	 0.3327632709	 0.126155
H	 0.0404139724	-2.7836429003	-1.3216260512	 0.271397
H	 0.051574929	-3.0660005489	 1.2082409354	 0.129075
H	 0.4723037451	-1.1117368752	 3.251914959	 0.108622
H	 0.5565303584	 0.5603659836	 2.7228306609	 0.111373
H	-1.9341543453	 0.6194867494	 2.5052395815	 0.08977
H	-2.0073838845	-1.0628456928	 3.0580617894	 0.08539
H	-2.2032810069	 0.4746586495	 4.8142226167	 0.285692
