17
gdb 103033	2.38561	1.78644	1.20434	3.1277	73.32	-0.2577	0.0126	0.2703	1039.7705	0.136005	-417.931139	-417.922954	-417.92201	-417.964	30.513	
C	 0.0287276854	 1.3968798443	-0.1081170223	-0.270951
O	-0.0228486392	 0.0089996854	 0.2045652636	-0.291556
C	-1.2775607557	-0.5789912787	 0.0671109122	 0.335434
C	-2.2402820025	-0.0060064455	 1.0272211164	 0.224207
N	-2.9627976588	 0.4845543832	 1.785434137	-0.34913
C	-1.8687524514	-0.9306881353	-1.3554612584	-0.09344
C	-0.7188976726	-1.9585764779	-1.5115991222	-0.224845
C	-1.3026499485	-2.1321382519	-0.085733832	-0.08257
N	-2.6723830937	-2.0483780338	-0.7278348602	-0.327409
H	 1.0636974217	 1.7083483408	 0.0401672625	 0.142127
H	-0.2587736142	 1.5829285193	-1.1515128794	 0.118774
H	-0.6233076771	 1.9813973868	 0.5529611532	 0.141813
H	-2.2983061909	-0.2516894471	-2.0919888592	 0.099574
H	-0.9404304514	-2.7798065948	-2.1914641048	 0.119824
H	 0.295230986	-1.5751427888	-1.5918484134	 0.123075
H	-1.0570555766	-2.8678911395	 0.6795325267	 0.104242
H	-3.3582083204	-1.6722480266	-0.0649182198	 0.230831
