20
gdb 32803	3.11898	1.06239	0.80443	1.1394	84.41	-0.1743	0.0497	0.2241	1452.1208	0.17038	-403.184354	-403.174577	-403.173633	-403.219777	35.239	
C	 0.0389313649	 1.536608877	 0.048874791	-0.391032
C	 0.0182176231	 0.0192807179	-0.0092155353	-0.041062
O	 0.6885136362	-0.4718379596	 1.1393303846	-0.283308
C	 0.7695133049	-1.8287371085	 1.2588254288	 0.287574
C	 1.3963552701	-2.435931516	 2.3290858327	 0.191672
C	 2.0780152758	-1.8386402937	 3.5119479678	-0.511331
N	 1.2846310941	-3.7957482382	 2.1171613856	-0.292621
C	 0.6117808732	-4.0494710561	 0.9544568346	-0.087914
C	 0.2717170296	-2.8407201454	 0.3868878227	-0.282513
H	 1.0678834688	 1.9070256353	 0.0620477555	 0.126914
H	-0.4703835964	 1.9558390051	-0.8240355148	 0.114339
H	-0.4659724879	 1.8940574698	 0.9507728812	 0.126914
H	-1.0161010275	-0.3560204507	-0.0305456274	 0.097167
H	 0.5180873009	-0.3428875491	-0.9203117068	 0.09716
H	 1.6057983851	-2.126729604	 4.460506775	 0.119189
H	 3.1371183465	-2.1215057862	 3.5750274721	 0.119051
H	 2.0303121814	-0.7501445295	 3.4359922445	 0.148287
H	 1.6505662482	-4.4965025648	 2.736890884	 0.255139
H	 0.4278206047	-5.0581845914	 0.62248703	 0.113288
H	-0.2660654256	-2.7062402918	-0.5371027858	 0.093091
