20
gdb 37231	4.74498	1.18928	1.1311	1.4044	83.55	-0.229	0.0827	0.3117	1151.3971	0.172498	-365.931001	-365.923606	-365.922662	-365.962842	29.965	
C	-0.1117338308	 1.1958756341	 0.0035611186	-0.225231
C	 1.2674565892	 0.6584721172	 0.0429531129	-0.047959
C	 1.6438663087	 0.1854617232	 1.4210113459	-0.19464
C	 0.3625934683	-0.6591569905	 1.3740410877	-0.091185
N	 0.0483764519	-0.2701011838	-0.0167347895	-0.127351
C	 1.6979323022	-1.3202898923	 1.4410210007	 0.379731
C	 2.2762027709	-2.3453764239	 0.455397537	-0.295584
C	 2.3585662485	-3.3544592914	 1.6402074656	-0.204456
C	 2.1210479038	-2.1828034166	 2.6396444401	-0.311342
H	-0.5314565775	 1.6665569784	 0.8898434374	 0.110284
H	-0.4675012966	 1.5934571791	-0.9427082195	 0.118132
H	 1.9387179741	 0.7418235335	-0.806653919	 0.097586
H	 2.0711155489	 0.7908162627	 2.2138935789	 0.086711
H	-0.425704823	-0.8019158367	 2.1062288498	 0.087716
H	 1.6410541457	-2.6132604556	-0.3909051897	 0.117361
H	 3.26367105	-2.0587702278	 0.0798725678	 0.096609
H	 1.5288869397	-4.0654022464	 1.6349958314	 0.1066
H	 3.291433773	-3.9109485475	 1.7512738761	 0.097125
H	 3.0500743364	-1.8312092599	 3.1001780571	 0.100957
H	 1.3822271067	-2.3403393357	 3.4305851007	 0.098937
