16
gdb 67120	3.00893	1.62654	1.39066	3.4626	78.23	-0.2351	-0.0806	0.1545	964.9299	0.123765	-400.656179	-400.648874	-400.647929	-400.687683	28.703	
C	 0.2459550816	 1.6435149398	-0.1126633927	-0.513689
C	-0.0466771941	 0.1771996347	-0.1174872057	 0.302442
C	 0.3630381496	-0.8750670815	-1.0816351786	-0.182165
N	 0.8380283053	-0.8781591573	 0.4152944109	-0.182108
C	-0.2498885058	-1.2829844231	 1.435511922	-0.177687
C	-1.2101745753	-0.6157071566	 0.4720950004	 0.028238
C	-1.8753150944	-1.3590767306	-0.4472954018	-0.262415
C	-0.9179357174	-1.5273031983	-1.5945836717	 0.387582
O	-1.031895224	-2.1906011956	-2.5938025086	-0.323015
H	 1.2705300958	 1.8213592003	-0.4504988408	 0.141124
H	-0.4384441516	 2.1766653071	-0.7799528427	 0.140681
H	 0.1376631709	 2.0640553971	 0.8924383941	 0.132445
H	 1.229412542	-0.7909002266	-1.7281360697	 0.120565
H	-0.3846406888	-2.3500606038	 1.6271831599	 0.130174
H	 0.0167503586	-0.7457399409	 2.3484387676	 0.136705
H	-2.5066383125	-2.2059308647	-0.1941899925	 0.121122
