14
gdb 4372	3.98789	1.84429	1.26233	2.8964	68.06	-0.2119	0.0018	0.2137	896.468	0.109993	-378.792238	-378.785593	-378.784648	-378.822652	26.408	
N	 0.0094866258	 1.3668389708	 0.1665964802	-0.566029
C	 0.0312064215	-0.0119734733	 0.058170362	 0.406191
N	-1.1598948608	-0.6215648293	 0.0928550939	-0.348871
C	-1.1608613115	-1.9577543323	 0.0469057323	 0.010153
C	-0.0286498317	-2.7497366624	-0.0420553716	-0.228273
C	 1.2080328943	-2.0967851602	-0.0836392714	 0.437767
O	 2.3256067493	-2.8593610512	-0.1722238509	-0.434727
C	 1.2465875208	-0.7096283237	-0.0316147957	-0.353445
H	 0.7761305486	 1.8697929934	-0.2517234586	 0.246801
H	-0.8987317969	 1.7646863288	-0.0224641207	 0.254233
H	-2.141847293	-2.4267895326	 0.0793960537	 0.10479
H	-0.0817192102	-3.8297299441	-0.0818554457	 0.100634
H	 3.1004422995	-2.2868448442	-0.1848145331	 0.298306
H	 2.1926502044	-0.1754725497	-0.0493566543	 0.072468
