13
gdb 77856	2.16733	1.71392	1.60552	4.2087	62.02	-0.2725	-0.0525	0.22	909.9304	0.088634	-452.716987	-452.709374	-452.70843	-452.749252	27.906	
O	 0.1667970012	 1.4317146037	 0.2530174567	-0.409394
C	 0.0365336828	 0.0708284362	 0.0315581255	 0.008589
C	-1.3247837585	-0.6491854577	 0.000374087	-0.071166
C	-2.0869923291	-0.3859147445	-1.2398215199	-0.17978
C	-1.9819454264	 0.8810399542	-1.9280355146	 0.313798
N	-1.8887425842	 1.9099502968	-2.449079154	-0.327766
N	-0.9761231287	-1.3919620589	-1.2848748687	-0.18001
C	 0.2610412963	-0.5848759054	-1.3639865781	 0.346606
O	 1.0917960509	-0.5787796219	-2.206698673	-0.258861
H	-0.2462530649	 1.9187456129	-0.4712148885	 0.312049
H	 0.691322326	-0.4359792627	 0.7499419863	 0.146391
H	-1.7796430655	-1.1775006489	 0.829224043	 0.134089
H	-3.06073164	-0.8561310437	-1.3362765218	 0.165457
