19
gdb 70861	2.79027	1.71865	1.32271	1.1994	79.75	-0.2213	0.0164	0.2378	1018.0686	0.159013	-385.864285	-385.856406	-385.855462	-385.89594	32.212	
C	-0.0865922123	 1.5061695182	-0.0241588179	-0.498887
C	-0.0207271776	 0.0060530857	-0.0423599298	 0.337654
C	 0.7557678232	-0.8244015638	-1.0629401179	-0.33873
C	-0.1952168277	-2.0452006074	-0.7254554634	 0.383596
O	-0.771194729	-2.7498469343	-1.7875216487	-0.501206
C	 0.4702823775	-2.8233320045	 0.3930625959	-0.183786
C	 0.4486640266	-2.076873264	 1.5013384629	-0.076375
C	-0.3179399234	-0.8250213052	 1.2435174712	-0.134401
C	-1.1293794427	-1.0199357511	-0.0122261936	-0.160827
H	 0.8777706714	 1.9425891601	 0.2620712933	 0.120566
H	-0.350918429	 1.9040150282	-1.0107638929	 0.118821
H	-0.8363501683	 1.8625301305	 0.6903900382	 0.117033
H	 0.5283973967	-0.4698988938	-2.0725908499	 0.103231
H	 1.836241801	-0.961077259	-0.9397853515	 0.079416
H	-0.0907394209	-3.2960669359	-2.1950140883	 0.277356
H	 1.0182546879	-3.7455238663	 0.2354369953	 0.088959
H	 0.9477802114	-2.2940403806	 2.4377092703	 0.097541
H	-0.7330424609	-0.2452820452	 2.060622128	 0.080411
H	-2.2050174239	-0.9329830317	-0.1109829813	 0.089628
