17
gdb 126040	3.80777	1.15402	1.03374	4.2065	76.78	-0.2419	-0.0121	0.2298	1186.3168	0.137058	-417.978072	-417.970189	-417.969245	-418.011144	29.375	
C	 0.0557588748	 1.5457265845	-0.3229257167	-0.409295
C	 0.0152391813	 0.0699784782	-0.0152445777	 0.009064
N	 1.2812168879	-0.6653536435	-0.0365422653	-0.322656
C	 0.560048132	-0.5445270994	 1.2435257806	-0.174737
C	 1.1958158882	 0.197161934	 2.3443811145	 0.488752
C	 1.0363904064	 0.1030836374	 3.696375188	-0.345626
C	 1.9094284882	 1.0984519626	 4.2034938702	 0.031961
N	 2.5418884775	 1.7374163386	 3.2507989538	-0.138305
O	 2.0886102823	 1.162397018	 2.0637646076	-0.20855
H	 0.9522468458	 2.0080244404	 0.0915154622	 0.159513
H	 0.0563507776	 1.7023356023	-1.4068094898	 0.12214
H	-0.824691547	 2.0491063139	 0.0902761452	 0.118097
H	-0.8593613696	-0.44945216	-0.4083961797	 0.088723
H	 1.1641563545	-1.6009541224	-0.4154545849	 0.238066
H	 0.0208841277	-1.4160581216	 1.6083915179	 0.094516
H	 0.3987861573	-0.5726101697	 4.241282162	 0.116398
H	 2.1023265951	 1.3703811366	 5.2318552019	 0.13194
