19
gdb 2528	3.38371	1.85447	1.29522	0.5756	73.21	-0.2591	0.0544	0.3135	986.2349	0.169347	-273.764093	-273.755127	-273.754183	-273.797181	32.356	
C	 0.7428681247	-0.2144605652	 1.3601035786	-0.39016
C	 0.044479897	-0.0784812263	 0.0060601657	-0.173714
C	-1.3969227702	-0.6405252956	-0.0176488339	-0.128304
C	-2.0924290347	-0.3462191407	-1.3680958927	-0.173708
C	-3.5659542851	-0.7543778286	-1.4106845903	-0.390161
C	-1.4116265602	-2.0720628919	 0.2841789903	 0.356497
C	-1.4079889715	-3.2541131747	 0.5084042282	-0.499527
H	 1.7559189275	 0.197416918	 1.3207027176	 0.111571
H	 0.1954698977	 0.3221682504	 2.1432476446	 0.111817
H	 0.8139013256	-1.2633985974	 1.6617957907	 0.131938
H	-0.005401569	 0.9790762388	-0.2809349849	 0.093744
H	 0.6302241667	-0.5867412898	-0.7693126475	 0.104186
H	-1.9680862737	-0.1256481841	 0.7702412647	 0.098514
H	-1.9996947982	 0.7292122443	-1.5633490595	 0.093749
H	-1.5395064682	-0.8585670114	-2.1645914536	 0.104186
H	-3.6818369615	-1.8267251325	-1.2290784051	 0.131942
H	-4.1461805318	-0.2217872269	-0.6487035899	 0.111816
H	-4.0073145203	-0.5248853146	-2.3853641866	 0.111569
H	-1.412943465	-4.2947904717	 0.7181908334	 0.194044
