25
gdb 121138	2.94287	0.86434	0.8015	1.6269	89.63	-0.2395	0.0783	0.3177	1635.8691	0.226954	-389.49021	-389.47936	-389.478416	-389.526509	39.869	
C	 0.126035278	 1.547434886	 0.2046612171	-0.383326
C	 0.014305091	 0.0232427989	 0.1216524171	-0.163457
C	-1.4264480283	-0.46257265	-0.0876049927	-0.197221
C	-1.5176674213	-1.9765871766	-0.1360785506	 0.122814
O	-1.1326739604	-2.6015027854	 1.1130627592	-0.298922
C	-2.251947972	-3.5049707209	 1.0533440483	-0.10177
C	-2.8875374091	-2.7295659318	-0.129214495	 0.252032
C	-4.0953315833	-1.8914367392	 0.2902952967	-0.444467
C	-3.189940614	-3.5432925054	-1.3839451619	-0.455607
H	 1.1631186424	 1.8631748084	 0.3556837275	 0.111363
H	-0.2369174914	 2.0240470241	-0.7131894481	 0.109919
H	-0.4662358062	 1.9431276275	 1.0373388838	 0.113847
H	 0.6436464351	-0.3483775474	-0.6978639323	 0.091719
H	 0.4056084896	-0.4309979257	 1.0388479368	 0.119883
H	-2.0606497251	-0.0788551691	 0.7196807201	 0.095709
H	-1.8239539284	-0.0563968468	-1.0284906679	 0.090267
H	-0.8743311698	-2.3471669052	-0.9517774763	 0.057463
H	-1.9389297236	-4.5300329371	 0.8083972577	 0.088782
H	-2.8175641756	-3.5212642783	 1.9930858558	 0.095959
H	-3.9058472563	-1.3393891725	 1.2152058394	 0.123601
H	-4.3724960724	-1.1690706928	-0.4851217236	 0.114605
H	-4.9623351391	-2.5392552851	 0.4631773847	 0.111715
H	-4.0428996198	-4.2128354015	-1.2242238153	 0.114267
H	-3.4400489274	-2.8886073079	-2.2269202239	 0.115298
H	-2.3324351226	-4.156609306	-1.6789667765	 0.115528
