16
gdb 312	7.09839	2.5176	2.36131	1.5588	56.92	-0.2399	0.0942	0.3341	627.2141	0.14242	-271.628346	-271.621668	-271.620724	-271.658548	24.277	
C	 0.2183382574	 1.537802247	 0.077258928	-0.397568
C	-0.0079495854	 0.0462758995	-0.0566345578	 0.181668
C	 0.5919007937	-0.6994044197	-1.2685223335	-0.310798
C	 1.2484154913	-1.6066856726	-0.2053378842	 0.181668
C	 2.7511459058	-1.7945414165	-0.2225133241	-0.397568
O	 0.8085514514	-0.7260607498	 0.8582246619	-0.313246
H	 1.2698951095	 1.7872299663	-0.0948728888	 0.116589
H	-0.3952993239	 2.0848284721	-0.6472385784	 0.113644
H	-0.0548743365	 1.8777414792	 1.0813818202	 0.126441
H	-1.0721705775	-0.1876673073	 0.0964146772	 0.068596
H	-0.1092078638	-1.1701456265	-1.9593774542	 0.103405
H	 1.3119682566	-0.1012251691	-1.8340619482	 0.1019
H	 0.7485236166	-2.5831020089	-0.119084772	 0.068596
H	 3.2608021455	-0.8321514799	-0.3305478575	 0.116588
H	 3.0894416288	-2.2591135488	 0.7092569269	 0.126442
H	 3.0465055006	-2.443493985	-1.0545638254	 0.113644
