15
gdb 5203	6.33619	1.17175	1.08416	1.2003	68.46	-0.2151	-0.0393	0.1758	1063.6671	0.118967	-362.698593	-362.691162	-362.690217	-362.732147	26.343	
O	-0.3368881392	 0.3800578641	 0.7646281643	-0.224194
C	-0.0067928438	 1.0948199913	-0.1419376237	 0.143961
C	 1.3195050712	 1.8585455596	-0.1659615221	-0.269062
N	 1.3615652384	 2.8841470085	-1.1775465725	 0.034733
C	 1.828180821	 2.724367286	-2.4619280621	-0.104097
C	 1.5866329868	 3.8868836965	-3.1555988607	-0.162978
C	 0.9399532951	 4.7849792172	-2.2627784074	-0.160566
C	 0.809305051	 4.1390986952	-1.0559322538	-0.103321
H	-0.6397111607	 1.2514830411	-1.0440636007	 0.104675
H	 1.4947601985	 2.2859032419	 0.8261678755	 0.152671
H	 2.1227467684	 1.1352296099	-0.3477903308	 0.152556
H	 2.2989713857	 1.8010904644	-2.761378469	 0.117861
H	 1.855359127	 4.0759073485	-4.1834331448	 0.098721
H	 0.6179911675	 5.7923479303	-2.477278631	 0.098793
H	 0.3840030029	 4.4607922254	-0.1181710813	 0.120245
