20
gdb 16912	3.61215	1.72427	1.34266	1.4675	73.71	-0.2554	0.0746	0.33	964.8642	0.179613	-349.00749	-349.000072	-348.999128	-349.038804	29.851	
O	-0.1244214443	 1.4521814545	 0.0646667766	-0.443115
C	 0.0224359637	 0.0377606109	 0.0201354977	 0.148993
C	 0.7992660863	-0.5062996885	 1.2219904398	-0.234497
C	 1.0306086289	-2.0180765466	 1.079149291	-0.22645
C	-0.2412595923	-2.7859801826	 0.7572422422	 0.000208
C	-1.4919830916	-2.6218290089	 1.5794192886	-0.286456
C	-1.4387676138	-2.0567723403	 0.1769107501	-0.032774
C	-1.3924265604	-0.5434934262	-0.0338526405	-0.217075
H	 0.755785252	 1.8400121787	 0.1005082783	 0.276175
H	 0.5617024028	-0.2583297067	-0.8969700952	 0.058072
H	 1.7675058423	 0.0050551273	 1.3008976738	 0.07989
H	 0.2468219363	-0.269352337	 2.1398184281	 0.103518
H	 1.7490024998	-2.1828241179	 0.26467597	 0.095816
H	 1.4991768346	-2.418370771	 1.9866670559	 0.096088
H	-0.0645063005	-3.7872627959	 0.3738955975	 0.078187
H	-2.1036392074	-3.4982603769	 1.7649567649	 0.104616
H	-1.4799638149	-1.9122576674	 2.4015238198	 0.10812
H	-2.0092492667	-2.6014400319	-0.5685794678	 0.080473
H	-1.9852913144	-0.0256628621	 0.729962292	 0.107925
H	-1.8416341603	-0.2844273016	-0.9971960327	 0.102287
