17
gdb 16512	3.74501	2.47251	1.81039	0.9254	75.14	-0.2069	-0.0343	0.1726	768.9289	0.142395	-326.607693	-326.601068	-326.600124	-326.637834	26.908	
C	 0.1021038757	 1.4720956181	 0.0659554597	-0.467365
C	-0.1134498421	-0.0016257379	-0.1582384249	 0.33747
C	 0.7637252272	-0.751931839	-1.1866376708	-0.308625
C	 0.1992849393	-2.1539255375	-1.0507768358	-0.115953
C	-0.9643073378	-2.0938820529	-0.3639626089	 0.015784
C	-0.8078641686	-2.2030585724	 1.1529298011	-0.169869
N	-0.7184761135	-0.6685684518	 1.1298676478	-0.189336
C	-1.4309534563	-0.6475849812	-0.1787327801	-0.117577
H	 1.0804248147	 1.6593933734	 0.5217201735	 0.124984
H	 0.0718262783	 2.005473569	-0.8912059024	 0.117791
H	-0.66323253	 1.8894640641	 0.722719964	 0.135509
H	 0.6778037501	-0.2369711081	-2.1555146972	 0.114153
H	 1.8322646828	-0.7759431406	-0.9399791697	 0.114323
H	 0.8802839731	-2.9913132064	-0.9224231311	 0.094608
H	-1.6969467845	-2.4377637536	 1.7468548739	 0.115173
H	 0.0644333488	-2.7413230676	 1.5343271972	 0.109044
H	-2.4191354573	-0.2179859857	-0.3088289464	 0.089886
