14
gdb 30235	3.71977	1.32927	1.04524	3.8859	64.39	-0.2209	0.0043	0.2252	1070.404	0.101887	-473.824644	-473.817361	-473.816417	-473.856841	27.135	
O	 0.4692011984	 1.2363464061	 0.2774976972	-0.403657
C	 0.073151147	-0.087376398	 0.1054462911	-0.001593
C	-1.4798676113	-0.4153087457	-0.0280381816	-0.211111
N	-1.1357246105	-1.1398817898	-1.2679563747	-0.13877
C	 0.1920548117	-0.7257742313	-1.2773735853	 0.215647
C	 0.6692615174	-0.9230173521	-2.511327806	-0.177321
O	-0.3555544837	-1.4666395302	-3.2755658708	-0.227427
C	-1.5434295029	-1.5191614622	-2.5251936742	 0.478789
O	-2.6028321266	-1.8596510782	-2.9661918326	-0.392042
H	 0.1917304543	 1.7421906081	-0.4952308244	 0.290725
H	 0.5491764839	-0.6597161559	 0.9045532257	 0.130961
H	-1.9286933508	-1.0377579955	 0.747786089	 0.141618
H	-2.0868243614	 0.4783422771	-0.1992000118	 0.136492
H	 1.6058065644	-0.7473537925	-3.0096287715	 0.157689
