23
gdb 76820	2.58769	1.46351	1.14933	0.4904	91.96	-0.219	0.0281	0.2471	1195.6158	0.206782	-351.150625	-351.141782	-351.140838	-351.183702	34.944	
C	-0.2172451743	 1.5585621472	-0.0623744443	-0.39469
C	-0.0626053362	 0.045129751	-0.0147042931	-0.031311
C	 1.1673297237	-0.5373025725	-0.846120773	-0.07954
C	 1.7626997667	 0.2255417692	-2.0208708343	-0.411394
C	 1.8882187119	-0.5714676702	 0.4807550879	 0.309057
C	 2.9598311074	-0.1452977142	 1.1417514582	-0.247025
C	 2.5866051318	 0.0998921245	 2.6025680476	-0.234258
C	 1.0268120017	 0.2428116062	 2.563326865	-0.247822
C	 0.6240450234	-0.5323798107	 1.2916935628	-0.045441
H	 0.718718892	 2.070358397	 0.1844535177	 0.120324
H	-0.5265903562	 1.8930023475	-1.0581822542	 0.11243
H	-0.9775997876	 1.8938691971	 0.6510066582	 0.113955
H	-1.0159534993	-0.4322269858	-0.2614358662	 0.062735
H	 0.9000226909	-1.5526048864	-1.1663301772	 0.080087
H	 2.0455653583	 1.243570165	-1.7381693149	 0.119113
H	 2.6625190535	-0.2779222375	-2.3904534704	 0.117587
H	 1.0532752103	 0.2869906416	-2.8533883584	 0.112974
H	 3.9412118055	 0.0756090185	 0.7374523168	 0.085776
H	 2.8963939795	-0.7316721064	 3.25188659	 0.101132
H	 3.0718527031	 0.996601392	 3.0043396871	 0.097302
H	 0.5476682398	-0.1318919614	 3.4723904092	 0.0901
H	 0.7651171054	 1.3022912029	 2.4721967716	 0.101114
H	 0.2086838386	-1.5214700447	 1.5196790338	 0.067794
