16
gdb 66694	3.13874	1.73298	1.46404	3.0853	71.6	-0.2336	-0.0251	0.2085	923.2141	0.124957	-400.709592	-400.702759	-400.701815	-400.740628	27.418	
C	 0.0726763822	 1.5151764814	-0.0119655862	-0.504072
C	-0.0076569734	 0.0267214936	-0.0273398163	 0.364458
C	 0.391756744	-1.0367203376	-0.9968604894	-0.166715
C	 0.9454335227	-1.8377502446	 0.2016568036	-0.042185
C	-0.1985884872	-2.0542415706	 1.1306069555	-0.194928
N	 0.5677144642	-0.7695407121	 1.1623726258	-0.187452
C	-1.4832120875	-1.8664975419	 0.3686594551	 0.476729
O	-2.5461572204	-2.3996916169	 0.546848104	-0.334074
C	-1.0867836372	-0.8367464129	-0.644248711	-0.26446
H	 1.0969353453	 1.8420374755	 0.194011222	 0.137104
H	-0.2353472658	 1.9291992997	-0.9767871737	 0.127133
H	-0.5783055647	 1.9314515399	 0.764393853	 0.137096
H	 0.7788997717	-0.9793718749	-2.0040257457	 0.107902
H	 1.8950547704	-2.3561152783	 0.2603414156	 0.109964
H	-0.1408295936	-2.6788060577	 2.0119348802	 0.118359
H	-1.7821171307	-0.4374214326	-1.3683377524	 0.11514
