17
gdb 69070	2.58676	1.66347	1.22642	3.2769	78.5	-0.252	-0.007	0.245	1037.8655	0.136676	-380.87546	-380.867485	-380.866541	-380.907635	30.832	
C	-0.0479039873	 1.5643252215	 0.002968161	-0.496208
C	 0.0837677061	 0.0648383513	-0.0163283875	 0.237174
N	-0.7421581341	-0.7745367922	 0.8857055602	-0.388006
C	 0.7352387436	-0.760067818	 1.0697309193	 0.154839
C	 1.4495696732	-1.9468855292	 0.4208063702	-0.32581
C	 1.1269188779	-1.7658619565	-1.0469665024	-0.080731
C	 0.4109670113	-0.6670705059	-1.2834245783	-0.092477
C	 1.2730670586	-0.1535299313	 2.2517918594	 0.20598
N	 1.6995869289	 0.3340370824	 3.2114376918	-0.353527
H	 0.8025714518	 2.0359345017	-0.498865505	 0.139322
H	-0.9602540615	 1.8750083313	-0.5178597585	 0.134245
H	-0.0904773181	 1.9469879182	 1.0267822928	 0.140116
H	-1.1565972637	-0.1813411109	 1.6054431407	 0.239691
H	 2.5284787236	-1.9140516076	 0.6132064603	 0.130236
H	 1.0759837649	-2.898310576	 0.8152722287	 0.137066
H	 1.4390557292	-2.4854540739	-1.7946174477	 0.109731
H	 0.0648509454	-0.3263857448	-2.2518302549	 0.108361
