20
gdb 60971	4.23905	0.8293	0.7362	2.2226	77.41	-0.2194	-0.0404	0.179	1544.2357	0.168963	-440.261831	-440.252281	-440.251337	-440.296877	34.518	
C	 0.0624242306	 1.5314984647	 0.0403588393	-0.317207
N	-0.0020374786	 0.0901942051	 0.1116608759	-0.062775
C	-1.2726728907	-0.5456135995	 0.5124119948	-0.182055
C	-0.4544752759	-1.6129560079	 1.2800938135	 0.001031
C	 0.7162255329	-0.5983847877	 1.1974296332	-0.200333
C	-0.9759207709	-2.0505856462	 2.6500759958	 0.026121
O	-2.2053122912	-2.7125990399	 2.5282471109	-0.435324
C	 0.0348382014	-2.939340658	 3.3464883136	 0.135108
O	-0.2450937857	-4.0568564358	 3.7090638638	-0.26153
H	 1.0855838983	 1.8477350225	-0.189669656	 0.121192
H	-0.5877869222	 1.89196132	-0.7637782394	 0.123713
H	-0.2475410366	 2.0286531465	 0.9801979218	 0.087399
H	-1.8740971219	 0.0741255298	 1.1995930644	 0.087418
H	-1.9094514927	-0.8767926877	-0.3130577522	 0.111561
H	-0.2746568554	-2.4954192597	 0.6608722834	 0.094407
H	 1.7127710325	-0.9694713095	 0.9347286383	 0.105241
H	 0.7979204137	 0.0085425305	 2.1180958527	 0.078503
H	-1.086326011	-1.1477244189	 3.2802294709	 0.089434
H	-2.0759642246	-3.5831219421	 2.9373276701	 0.294846
H	 1.0464382181	-2.5128979764	 3.5024581454	 0.103248
