16
gdb 22887	2.19216	1.59178	1.06742	1.1635	70.1	-0.2524	-0.0174	0.235	1113.2976	0.123036	-474.969798	-474.960981	-474.960036	-475.003467	32.701	
O	-0.1152726011	 1.3045429002	 0.0027767609	-0.374882
N	-0.0050428669	-0.0852308016	-0.0159031366	-0.193773
C	-1.1397969789	-0.6599390023	-0.0113698763	 0.288954
C	-2.5316310185	-0.0287495647	 0.0201293387	 0.002699
O	-2.8424678788	 0.8156327384	-1.0825869295	-0.413946
C	-3.4181928617	-1.2491817499	 0.0973098826	-0.114721
C	-2.7325537526	-2.393265952	 0.0757478533	-0.108344
C	-1.2366033433	-2.1858091884	 0.0030428791	 0.014679
O	-0.6199702467	-2.8538540665	-1.0893556306	-0.415814
H	 0.8070935232	 1.5837462769	 0.0134543416	 0.310252
H	-2.6285382647	 0.6233334595	 0.8955714401	 0.118405
H	-2.804050559	 0.2772769771	-1.8808608708	 0.274174
H	-4.4975328678	-1.1529730083	 0.1382866948	 0.111512
H	-3.1559956008	-3.3910949808	 0.0978178457	 0.111978
H	-0.7271363209	-2.5906035399	 0.8847788037	 0.115615
H	-0.9925496715	-2.4942859876	-1.9020505567	 0.273213
