20
gdb 64458	2.19643	1.69282	1.30282	3.2408	75.65	-0.2565	0.0206	0.2771	1073.1782	0.171602	-440.309977	-440.301243	-440.300299	-440.343102	34.073	
C	 0.7511295916	 1.3429710728	-0.1729181726	-0.420523
C	-0.0516343694	 0.0322921946	-0.0041308755	 0.330943
O	-1.4170209458	 0.3518201099	 0.1590294765	-0.483963
C	 0.1073435796	-0.8859780341	-1.2508874859	-0.246567
C	 0.9996778074	-2.1065090703	-0.9818924001	-0.232215
C	 2.138016484	-1.7320664113	-0.04626148	-0.073836
O	 1.6238165253	-1.3206724093	 1.2346160132	-0.25091
C	 0.4486764133	-0.6522711028	 1.2703849243	 0.353226
N	-0.2207367721	-0.5107050036	 2.3376526028	-0.551123
H	 1.8210876798	 1.165856067	-0.3227664752	 0.110476
H	 0.362237304	 1.879963352	-1.0425854105	 0.127221
H	 0.6229330844	 1.9712717466	 0.7123815985	 0.129565
H	-1.5732658472	 0.3133791649	 1.1178386466	 0.28955
H	-0.8948879883	-1.197977994	-1.5500864782	 0.126802
H	 0.5242004761	-0.297894607	-2.0750999072	 0.101791
H	 0.42186164	-2.9088898713	-0.5080701233	 0.120542
H	 1.4063811203	-2.5107584381	-1.9143294438	 0.108186
H	 2.7911308678	-2.5803975078	 0.1719582239	 0.122334
H	 2.7555346681	-0.9284240492	-0.4683338163	 0.113309
H	 0.2194195014	-0.9819017291	 3.1273871028	 0.225191
