12
gdb 23804	3.40013	2.31745	1.37814	2.4367	61.96	-0.2186	-0.0539	0.1647	797.8028	0.085679	-418.810377	-418.804231	-418.803287	-418.840717	23.409	
F	 0.0180062889	 0.0231865025	 0.0036531326	-0.036211
C	-0.0339383498	 1.3402668192	 0.0108163816	 0.306485
C	-1.2054396978	 2.0079455879	 0.0296543376	-0.260193
C	-1.1740025616	 3.4410175847	 0.0362811087	 0.010391
N	-0.0749083799	 4.1310299526	 0.0250780872	-0.186015
N	 1.071935247	 3.4234012168	 0.0063747671	-0.300935
C	 1.2503898343	 2.0340248584	-0.0028271798	 0.282508
N	 2.3644132423	 1.4036325491	-0.0207177983	-0.551453
H	-2.1450041311	 1.4691373616	 0.0394823057	 0.129411
H	-2.0929898132	 4.0149219305	 0.0513026579	 0.132929
H	 1.9012407809	 3.9991760004	-0.0018096677	 0.267779
H	 3.16088879	 2.0425486162	-0.0281525825	 0.205303
