23
gdb 75372	2.64021	1.42918	1.18658	0.3074	90.42	-0.2255	0.0319	0.2574	1184.4888	0.207804	-351.17098	-351.162418	-351.161473	-351.204491	33.746	
C	 0.5085522271	 1.3676929684	-0.011215499	-0.485293
C	 0.0674920998	-0.0682453907	-0.0668280418	 0.343442
C	-0.0984828608	-0.7344819999	-1.2129362349	-0.159416
C	-0.5936749889	-2.1587796216	-1.2523027723	-0.275847
C	-0.0463180386	-3.0052341327	-0.0946399716	 0.008811
C	 1.4818338876	-3.3072403119	-0.1425770742	-0.217118
C	 1.6862305009	-2.529698457	 1.185014922	-0.220365
C	 0.1574061506	-2.2371632066	 1.2573879191	 0.012611
C	-0.2402384604	-0.7555100795	 1.2475931795	-0.32345
H	 1.440266452	 1.4763994503	 0.5593734431	 0.120035
H	 0.6693908828	 1.7820729285	-1.0105299797	 0.116745
H	-0.2380173806	 1.9913789707	 0.4985062894	 0.120393
H	 0.0923007944	-0.234725296	-2.1599894883	 0.071936
H	-1.6941640061	-2.1630123581	-1.2144019456	 0.101465
H	-0.3294243263	-2.6311111357	-2.2063246354	 0.096442
H	-0.6540966495	-3.9079070743	 0.0137286417	 0.058575
H	 1.7340288142	-4.3696913616	-0.0969197354	 0.091857
H	 1.9937414327	-2.8714379137	-1.0051653882	 0.095884
H	 2.0766032374	-3.1227459391	 2.0159547793	 0.091712
H	 2.3043875144	-1.6324735715	 1.0884687169	 0.095116
H	-0.324721656	-2.7337623947	 2.1042578755	 0.059195
H	 0.2636399839	-0.2387865777	 2.0748549839	 0.093876
H	-1.3178884806	-0.6647972957	 1.4532554764	 0.103393
