14
gdb 48469	2.20585	1.68194	1.25759	4.9031	67.79	-0.2497	-0.0535	0.1962	1005.9852	0.101183	-432.888308	-432.880173	-432.879229	-432.921541	28.815	
O	-0.4545748689	 0.5995682299	 0.720607224	-0.234515
C	 0.3118321595	 0.8595528038	-0.1633818698	 0.156779
C	 1.4047683156	 1.9573373808	-0.0567723489	 0.054842
C	 1.4208878894	 2.6280574931	 1.3514998119	-0.237878
N	 2.5805180159	 1.9610876843	 1.9472843003	-0.28789
C	 3.2443356337	 1.2961670959	 0.9582586243	 0.080474
N	 2.6899812926	 1.2215699191	-0.199232191	-0.295535
C	 1.2177181008	 2.9114641378	-1.1522834393	 0.261059
N	 1.0289070076	 3.6642674937	-2.0084847241	-0.32847
H	 0.3480923541	 0.3033215183	-1.1187624375	 0.128359
H	 1.5577962445	 3.7115993744	 1.2884321119	 0.135615
H	 0.4984454047	 2.3991723543	 1.8901757741	 0.158023
H	 3.0605759252	 2.350011103	 2.7424181355	 0.262538
H	 4.1971796754	 0.8234916217	 1.1767337385	 0.146599
