18
gdb 8159	3.95338	1.7845	1.48665	1.074	67.83	-0.2391	0.094	0.3331	914.2321	0.152628	-384.9328	-384.92503	-384.924086	-384.964489	29.815	
C	 0.179287639	 1.5170626671	 0.0186221653	-0.405062
C	 0.092418623	 0.0102894393	-0.0227355715	 0.224452
O	 0.8481554964	-0.5062690323	-1.1144290267	-0.271712
C	 1.2671963451	-1.7872838593	-0.7098144307	 0.019609
C	 2.5112269383	-1.828065195	 0.1554638565	-0.356501
C	 1.1296422953	-1.8422679627	 0.7788182974	 0.401025
C	 0.5918431619	-2.9816988409	 1.5963105688	-0.466608
O	 0.6582157093	-0.5579024641	 1.1516137115	-0.306582
H	 1.2231658461	 1.8240951642	 0.1164713621	 0.130648
H	-0.2353937091	 1.9389038186	-0.9003668891	 0.129114
H	-0.389473441	 1.8992741231	 0.870039897	 0.128735
H	-0.9548351587	-0.3300553525	-0.1204774885	 0.064494
H	 1.0059309661	-2.5980344407	-1.3822854812	 0.100832
H	 3.0837524056	-2.7506108369	 0.1698606464	 0.110291
H	 3.0846633112	-0.9120961351	 0.2347443992	 0.123012
H	 0.9593743881	-3.9382060508	 1.2131201573	 0.118897
H	 0.9101676664	-2.8914973399	 2.6401596856	 0.131392
H	-0.5026540931	-2.9969030824	 1.5738696106	 0.123963
