24
gdb 118694	2.22296	1.10218	1.01072	2.1625	87.3	-0.2117	0.0763	0.2879	1408.7902	0.213959	-405.510234	-405.498829	-405.497885	-405.546684	40.764	
C	-0.8508578482	 1.5089738572	-0.3578643699	-0.223452
O	-0.6871494334	 0.114608604	-0.4428318027	-0.235679
C	-1.8122836231	-0.6011715863	 0.0363671749	-0.129153
C	-1.4911411596	-2.0798775641	-0.0201682507	 0.301819
C	-0.3425391969	-2.4776375972	 0.8899229013	-0.448368
C	-2.5757903661	-3.0778808583	-0.310026282	-0.047008
C	-4.0397785335	-2.745301176	-0.5163390083	-0.42414
N	-1.5256914826	-2.806676797	-1.2953903072	-0.128641
C	-1.823038178	-2.1243643254	-2.5455225658	-0.312375
H	 0.0607714266	 1.9707603148	-0.7448820919	 0.127595
H	-1.7076966403	 1.8592980082	-0.9559493895	 0.101696
H	-1.003875676	 1.8402329884	 0.6818363649	 0.102993
H	-2.0264934678	-0.3146372687	 1.0810035169	 0.086947
H	-2.6998356294	-0.337668006	-0.5545269194	 0.081913
H	-0.5916718824	-2.2884854488	 1.9410397291	 0.103006
H	-0.1155225434	-3.5392312432	 0.7698411556	 0.12
H	 0.5536361051	-1.9008511866	 0.6451574279	 0.132487
H	-2.4460952367	-4.0517745892	 0.1658158541	 0.080692
H	-4.2142411247	-1.7711996262	-0.9755724741	 0.120496
H	-4.5115957706	-3.5004093311	-1.1551261799	 0.12392
H	-4.5645317713	-2.7575651732	 0.4451541378	 0.122543
H	-2.6442036042	-1.3941204244	-2.5141206032	 0.093248
H	-0.9233786976	-1.5969169765	-2.8742731632	 0.133485
H	-2.0764721859	-2.8755826743	-3.3011004948	 0.115978
