21
gdb 38871	2.65378	2.07292	1.88508	1.3935	79.12	-0.2339	0.0853	0.3192	883.2627	0.188923	-387.109697	-387.103695	-387.10275	-387.139537	27.391	
C	 0.0024651648	 1.5959132418	 0.0376940518	-0.215725
C	 1.5312728538	 1.7808200094	-0.0319805744	-0.051408
C	 1.7932101174	 1.0099938054	-1.347046432	-0.210983
C	 1.3340497418	-0.3110412579	-0.7092499283	 0.093876
O	 2.3393536746	-0.4431950783	 0.3023903731	-0.276508
C	 2.1610879269	 0.7929743149	 1.0333355577	 0.093539
C	 1.1899937881	 0.4221352332	 2.1639756553	-0.216747
C	 0.0555820222	-0.4063555554	 1.4922396944	-0.192766
C	-0.0290333116	 0.0409430551	 0.0168093493	-0.042169
H	-0.4710875553	 2.0070325971	 0.9325327794	 0.091584
H	-0.4827179625	 2.0516599273	-0.8302486602	 0.089516
H	 1.9007912816	 2.8047552949	 0.0352891455	 0.060405
H	 1.1823655285	 1.3789588942	-2.1749818644	 0.089205
H	 2.8388208723	 0.9487391604	-1.6538783946	 0.099962
H	 1.3267765456	-1.2159631748	-1.3173647875	 0.068663
H	 3.1368668575	 1.1286869373	 1.3924164858	 0.070954
H	 1.713850614	-0.1751687269	 2.9154099193	 0.100209
H	 0.8074144587	 1.3136166031	 2.6723395796	 0.093217
H	 0.2789276514	-1.4741642708	 1.5592767104	 0.105229
H	-0.9040423603	-0.2400764915	 1.9920593365	 0.088863
H	-0.8944552594	-0.3847686787	-0.4950535368	 0.061083
