13
gdb 47958	6.63772	0.57765	0.5441	2.6611	78.8	-0.2772	-0.0892	0.1881	1883.7964	0.084339	-419.372376	-419.362667	-419.361723	-419.408964	31.871	
O	-0.3558699952	 0.34424366	 0.8575309174	-0.210908
C	 0.0160865171	 1.0922767506	-0.0138967991	 0.021272
C	 1.2187293388	 1.8898168456	 0.0709268373	 0.099995
C	 2.2169281598	 2.5720119656	 0.120759231	 0.025373
C	 3.4132986895	 3.3968497193	 0.1956761314	 0.227473
O	 3.3553055116	 4.5586230679	 0.5129186848	-0.248579
C	 4.7068801787	 2.6533079557	-0.1558742766	-0.463647
C	 5.8967951324	 3.4830171885	-0.1103180178	 0.311968
C	 6.8850613562	 4.1628580687	-0.0750194746	-0.426211
H	-0.5459237118	 1.2239895187	-0.9594199603	 0.117913
H	 4.7896878191	 1.8006196282	 0.5328175532	 0.172083
H	 4.5712970886	 2.2055557496	-1.1502944992	 0.166566
H	 7.7572990753	 4.7679041517	-0.0416958375	 0.206704
