22
gdb 108087	2.61647	1.40635	1.18657	1.7714	86.11	-0.2157	0.0853	0.3009	1187.889	0.194299	-367.150879	-367.141968	-367.141024	-367.184299	34.382	
C	 0.2070281065	 1.4280329731	 0.2644371034	-0.371868
C	-0.1137973333	-0.0081506806	-0.173169917	-0.309288
C	 0.6428457543	-0.4377583151	-1.3981242201	 0.298855
C	 0.4591346941	-0.014576887	-2.8470175347	-0.23137
N	 1.2824311841	-1.2094345668	-3.2837792722	-0.205214
C	 2.6496859885	-0.836632159	-2.7433103388	-0.182236
C	 2.1000950394	-0.9721622689	-1.3370897521	-0.179241
C	 0.9828051713	-1.8213521501	-1.8833059865	 0.314921
C	 0.4733212602	-3.1970456329	-1.6327179656	-0.528583
H	 1.269820255	 1.5374076458	 0.502952177	 0.118787
H	-0.0292899173	 2.144598942	-0.5292881384	 0.118767
H	-0.3706163136	 1.7094025269	 1.1502225478	 0.110842
H	 0.1070159572	-0.6995032252	 0.6506876122	 0.096375
H	-1.1919614582	-0.0992338	-0.362711978	 0.098616
H	-0.5727697611	-0.1389631908	-3.1903174823	 0.100071
H	 0.8436359781	 0.9523209696	-3.1940213267	 0.090645
H	 3.3672689012	-1.6215560346	-2.9985308895	 0.104407
H	 3.028164051	 0.131081483	-3.0935013979	 0.092556
H	 2.6163876948	-1.0750960472	-0.3893651874	 0.082505
H	 0.3371673562	-3.3637387103	-0.5588274391	 0.12379
H	-0.4916681374	-3.3599981105	-2.1254888137	 0.127886
H	 1.1715983689	-3.9549963716	-2.0048868807	 0.128777
