15
gdb 78732	4.63044	1.1853	1.06334	3.4761	70.16	-0.2741	-0.0068	0.2673	1088.8927	0.113675	-416.751354	-416.744156	-416.743212	-416.782929	27.886	
O	 0.1229519313	 1.3079550194	 0.1305701771	-0.438642
C	 0.0927992612	-0.0893918403	-0.0062827807	 0.167149
C	-1.3159405698	-0.6562065427	-0.1323052495	-0.131515
N	-1.3057827903	-0.5375331695	-1.6335675361	-0.194546
C	 0.2592972955	-0.6044595828	-1.4546185912	-0.068975
C	 0.1954618575	-2.1366430361	-1.3875845588	-0.298383
C	-1.2521643957	-1.8984649364	-0.9726290665	 0.210076
C	-2.335778752	-2.8313053187	-1.0419600165	 0.201126
N	-3.189407558	-3.6103995149	-1.0844093705	-0.334991
H	-0.5008708496	 1.6871435295	-0.5011811642	 0.296256
H	 0.7647683104	-0.4879416526	 0.7589204819	 0.102118
H	-2.1976953531	-0.4090819051	 0.4482347679	 0.125054
H	 0.8975164543	-0.077640058	-2.1601842723	 0.10587
H	 0.2398235439	-2.5955204341	-2.3771061157	 0.138587
H	 0.8643185244	-2.6581850177	-0.6972418448	 0.120818
