17
gdb 12911	3.54907	1.74611	1.34254	3.8745	71.1	-0.2356	0.0064	0.242	941.4267	0.141575	-363.844482	-363.836777	-363.835833	-363.876397	28.656	
C	 0.253964066	 1.4159413223	-0.0943741294	-0.504508
C	-0.013545195	-0.0527981642	 0.0199265335	 0.320773
C	-1.3876408228	-0.7433098724	 0.1229693269	-0.274439
C	-0.7407674639	-1.8415659658	 1.0389087713	-0.235014
C	 0.6076328841	-1.1259904468	 0.8914541962	-0.080904
N	 0.8973305127	-1.0602502275	-0.5301584871	-0.101743
C	 2.1533941544	-0.8194206189	-1.0451255507	 0.128202
O	 3.1854101697	-1.2828033962	-0.6168955418	-0.302501
H	 1.309790206	 1.6427470871	 0.0837175552	 0.139586
H	-0.0092907957	 1.7923394772	-1.0898124647	 0.133915
H	-0.3438740012	 1.9690788117	 0.6367099324	 0.131789
H	-2.1199700579	-0.1345825449	 0.6584615337	 0.108546
H	-1.8160328563	-1.076878058	-0.8246781001	 0.110518
H	-1.1269403526	-1.8093740485	 2.0595639594	 0.110943
H	-0.7659794732	-2.8697857079	 0.6721501572	 0.11691
H	 1.4271371252	-1.0597510171	 1.5967828056	 0.119021
H	 2.1050529105	-0.2091105601	-1.9678157376	 0.078906
