20
gdb 108487	2.14383	1.61875	1.25337	1.9891	74.13	-0.2125	0.0507	0.2632	1099.3675	0.1709	-440.227674	-440.218763	-440.217819	-440.261413	33.784	
O	-0.0507160032	 1.4159023841	-0.1643287686	-0.433047
C	 0.0269738623	-0.000191702	-0.0234372083	-0.187336
C	-1.3966080241	-0.4858296743	 0.0865265769	 0.362009
C	-2.1372740111	-0.2859654176	 1.4286367562	-0.303363
C	-2.2816507895	-1.8300894212	 1.4770057481	-0.164968
N	-1.6448192244	-1.9881901466	 0.1269310548	-0.187612
C	-2.6462278239	-1.8356135043	-0.9839533756	-0.196167
C	-2.2718682479	-0.3525110186	-1.188548948	 0.068904
O	-3.3732303079	 0.5222179703	-1.1642230216	-0.425965
H	 0.8417495392	 1.7628519368	-0.2506796388	 0.292351
H	 0.5080899636	-0.4690745081	-0.8963443572	 0.090613
H	 0.6032430431	-0.2893357418	 0.869071447	 0.089133
H	-1.5393447448	 0.1646090362	 2.2235102514	 0.102478
H	-3.0735940829	 0.265631546	 1.3282291307	 0.116607
H	-1.6804573869	-2.3161019427	 2.251647942	 0.102263
H	-3.3008474272	-2.2258449518	 1.5349271248	 0.102769
H	-2.4489180045	-2.503176147	-1.8268464888	 0.103746
H	-3.6865324915	-1.9643432825	-0.6651088567	 0.109046
H	-1.6532103782	-0.1843376151	-2.0806690367	 0.068283
H	-3.0274152301	 1.4213873802	-1.1952438118	 0.290256
