18
gdb 51064	4.05217	1.11236	1.05012	3.0796	78.34	-0.2511	0.0176	0.2687	1195.6592	0.1484	-401.88521	-401.877566	-401.876622	-401.917991	29.373	
N	-0.1213124405	 1.3345978464	-0.0126676245	-0.436678
C	-0.1297439402	 0.0950825602	-0.2346039238	 0.1046
O	-1.0635129292	-0.6858757972	 0.3687727893	-0.226914
C	-0.939170158	-2.0459170797	 0.1980758508	 0.414637
C	-0.8583020268	-2.9527961003	-1.0032809935	-0.149921
C	 0.3408979068	-3.7024889726	-0.4263946312	-0.220755
C	-0.1133072429	-3.1788323886	 0.9656809376	-0.129456
C	-1.4681131385	-3.9018520083	 1.2111522732	-0.225796
C	-2.0082867223	-3.0778119203	 0.0439802954	-0.131106
H	 0.6190989113	 1.7788563661	-0.5519504868	 0.232515
H	 0.5383083572	-0.4704786205	-0.8954096849	 0.096947
H	-1.0931808776	-2.728133241	-2.0356573355	 0.094543
H	 0.3840145283	-4.7902425719	-0.549393234	 0.09565
H	 1.2876998337	-3.2594228711	-0.7479649167	 0.09848
H	 0.6014050003	-3.0302223966	 1.7716888418	 0.08173
H	-1.4671332646	-4.9943669702	 1.1310572767	 0.092399
H	-1.9287058176	-3.5995077294	 2.1550215758	 0.110502
H	-3.0332809594	-2.9175623553	-0.2635575096	 0.098623
