21
gdb 61884	3.0651	0.83345	0.68957	3.254	80.56	-0.2386	-0.0176	0.221	1644.0016	0.179029	-424.213709	-424.203456	-424.202512	-424.250436	36.447	
C	-0.4854527198	 1.3770860078	 0.1433447693	-0.400618
C	-0.075363696	-0.0901071773	 0.0071935758	 0.119623
C	 0.6996795891	-0.5833183814	 1.2357928311	-0.284104
C	 1.275752997	-1.9716253426	 1.0531877852	 0.150864
O	 2.3936981182	-2.2889222908	 1.3727683338	-0.245111
O	-1.1952535999	-0.9661429577	-0.1188207928	-0.264162
C	-1.827374356	-0.9519014007	-1.3635295542	 0.147842
C	-3.1577994252	-1.6267519765	-1.4327946426	-0.296912
C	-3.0683003145	-0.1197218403	-1.5737448212	-0.283497
H	 0.4005016907	 2.0106101042	 0.2514601608	 0.119843
H	-1.0373311286	 1.713369832	-0.7373692107	 0.129599
H	-1.1200833462	 1.5153866711	 1.024636647	 0.122238
H	 0.5600262203	-0.1985672137	-0.8880871058	 0.076698
H	 1.5107234807	 0.1010335064	 1.4976627214	 0.11887
H	-0.0048993049	-0.6194366581	 2.0787467346	 0.130527
H	 0.5762479167	-2.7017113867	 0.5932254457	 0.092949
H	-1.145274088	-1.0711588727	-2.2061671431	 0.086601
H	-3.3903140187	-2.2258669861	-2.3056304286	 0.117405
H	-3.5500403294	-2.0114427914	-0.4983032699	 0.127072
H	-3.4104636698	 0.4704940339	-0.7316892808	 0.120836
H	-3.2389056757	 0.3286928306	-2.5466903051	 0.113439
