21
gdb 93705	2.57784	1.22399	1.11099	1.4588	84.31	-0.2409	0.0536	0.2945	1246.1625	0.18074	-387.0721	-387.062372	-387.061428	-387.106642	36.669	
C	 0.0517528887	 1.560316194	 0.1377255066	-0.401182
C	 0.0807194244	 0.0465964138	-0.0015236718	 0.152165
C	 0.8260258932	-0.4877097445	-1.2275073662	-0.256813
C	 1.2826253791	-1.8948894452	-0.7646119243	 0.057429
C	 2.5019740474	-2.4314382455	-1.533420697	-0.444874
C	 1.6060513541	-1.5851343996	 0.7236497887	-0.078313
O	 0.7620441932	-0.5197762787	 1.1289610622	-0.281205
C	 0.1716216847	-2.8448421739	-0.8616759662	 0.358824
C	-0.7354354437	-3.6291885717	-0.9518843709	-0.516253
H	 1.0674875425	 1.9686114088	 0.1357990584	 0.115506
H	-0.5093426183	 2.0119504509	-0.6870490041	 0.11262
H	-0.4304536318	 1.8468542706	 1.0764617607	 0.126879
H	-0.9504478529	-0.338269898	-0.0107850129	 0.081468
H	 0.2073690268	-0.5166205333	-2.1265963121	 0.111165
H	 1.7109993957	 0.1269530792	-1.4313218657	 0.096493
H	 3.3310503825	-1.7189913538	-1.4759529563	 0.115751
H	 2.8365441962	-3.3867700088	-1.1182502721	 0.12819
H	 2.255528404	-2.5935715617	-2.5862119329	 0.128754
H	 1.4400772576	-2.4528176347	 1.3703944862	 0.110574
H	 2.6608948185	-1.2835825304	 0.8134170741	 0.086308
H	-1.5370248519	-4.3219084478	-1.0246540146	 0.196516
