16
gdb 44495	4.37595	1.41998	1.22251	1.0605	69.36	-0.2534	0.0131	0.2665	990.139	0.126154	-437.831644	-437.825112	-437.824168	-437.862964	26.25	
N	-0.0410819989	 1.2300435104	-0.5715980011	-0.514056
C	-0.0127805149	 0.0839054388	-0.0414102584	 0.3912
C	-1.2808170438	-0.7101068133	 0.2078722473	-0.33734
C	-1.0212071239	-2.061304905	 0.8530145743	-0.025216
C	 0.0423849316	-2.1360985398	 1.9825661717	 0.003544
O	 0.273462942	-3.5555794023	 1.6588859401	-0.303325
C	 0.1923286357	-2.8883022981	 0.3469241705	 0.00353
C	 1.1210359413	-1.7862616923	 0.9229104324	 0.113068
O	 1.166733224	-0.5031023997	 0.3369840299	-0.257095
H	 0.9060125069	 1.6043402293	-0.6570559814	 0.222789
H	-1.944099508	-0.1039006637	 0.8337107326	 0.146227
H	-1.7995140855	-0.8316319641	-0.7488253334	 0.146234
H	-1.9198737858	-2.6512901837	 1.0419602617	 0.092122
H	-0.0262774764	-1.8553000017	 3.0333085511	 0.10323
H	 0.3019481968	-3.5018413479	-0.5470416207	 0.103233
H	 2.140800439	-2.087768877	 1.1550576935	 0.111857
