14
gdb 34671	1.71419	1.70073	1.29153	3.8151	78.12	-0.2624	-0.0053	0.2571	1066.7353	0.09838	-362.339219	-362.330452	-362.329507	-362.372838	32.029	
C	-0.1065025994	-1.2273629598	-0.1210645929	-0.429356
C	-0.0423838539	-0.0305805014	-0.0413469391	 0.357135
C	 0.0146947153	 1.3955670752	 0.0376200506	-0.238076
C	 0.5115429352	 2.1018699202	 1.3003575719	-0.238074
C	 0.9365937363	 1.3610886974	 2.4466378003	 0.357247
C	 1.2870663201	 0.7546618578	 3.4224303989	-0.429458
C	 1.3547791737	 2.1344536262	 0.0236995239	-0.214278
C	 2.5882030361	 1.4062496317	-0.0542550769	 0.319928
N	 3.5948182316	 0.8437864477	-0.1361632248	-0.32917
H	-0.1496305117	-2.2866052626	-0.1863142253	 0.209698
H	-0.7788374353	 1.9193849111	-0.4872947558	 0.138263
H	 0.0097189832	 3.0404245093	 1.516931207	 0.13826
H	 1.6051067498	 0.2102912283	 4.2771942994	 0.209696
H	 1.3666640391	 3.0792025289	-0.5093871472	 0.148187
