16
gdb 100611	2.49989	1.14789	0.81291	5.2889	64.08	-0.26	-0.0398	0.2201	1332.6015	0.122836	-512.200292	-512.190985	-512.190041	-512.234962	32.864	
O	 0.3794331162	 0.2007473077	 1.0773312745	-0.408889
C	-0.0676012392	 0.1864361165	-0.2797091793	-0.121263
C	-1.4646701603	-0.4455413589	-0.4266482573	 0.014548
O	-1.944187639	-0.2087477718	-1.7160443403	-0.429836
C	-1.4804409795	-1.9641058539	-0.1604057744	 0.398824
O	-2.0176524692	-2.7065040506	-0.9505903793	-0.334293
N	-0.8585992044	-2.3518707183	 1.0148479871	-0.353217
C	-0.7711401374	-3.639080085	 1.5450576784	 0.163794
O	-1.2896167534	-4.6272866955	 1.1072032609	-0.249061
H	-0.0837981523	 0.9079191666	 1.538720905	 0.29921
H	-0.1037104301	 1.1963729669	-0.7028577663	 0.130735
H	 0.6710472945	-0.3880587204	-0.8456394518	 0.137081
H	-2.1228741714	 0.018684829	 0.3329117311	 0.087466
H	-2.2689344975	-1.0716475013	-2.0274214259	 0.30222
H	-0.3485249322	-1.6115136676	 1.4917740172	 0.269932
H	-0.1466404848	-3.6290925135	 2.4607289505	 0.092748
