20
gdb 72197	3.26729	1.80671	1.5701	1.5744	80.99	-0.2031	0.0765	0.2796	936.6194	0.173867	-365.961083	-365.954355	-365.953411	-365.991635	28.846	
C	 0.029831036	 1.4682853194	 0.0236273602	-0.487249
C	 0.0307204533	-0.040023914	-0.0211405259	 0.32601
C	-0.1567100738	-0.7499689642	-1.3568573576	-0.278983
C	-0.066844407	-2.2380233995	-0.9928123618	-0.065029
C	-1.3123819112	-2.6303278498	-0.1650734502	-0.169288
N	-0.6116437665	-2.2353666138	 1.1021544606	-0.139817
C	-0.4351479693	-0.76909177	 1.2420801145	-0.079587
C	 1.0208979646	-0.8142747354	 0.8150334995	-0.137592
C	 0.7219872063	-2.255413458	 0.37671843	-0.006668
H	 0.794179891	 1.8835157524	-0.6441348129	 0.116252
H	-0.9394051759	 1.874413648	-0.2873836628	 0.118412
H	 0.2357465896	 1.8388216325	 1.0332811086	 0.1182
H	-1.1094351602	-0.5126109999	-1.8454932654	 0.094076
H	 0.6481340785	-0.4482008219	-2.040636463	 0.091032
H	 0.2455023952	-2.8884247885	-1.8117370654	 0.062836
H	-2.2434077087	-2.0924527491	-0.3739418797	 0.096032
H	-1.5157029918	-3.70555197	-0.144483422	 0.09997
H	-0.912885183	-0.2326078282	 2.0557401784	 0.084532
H	 1.9139220481	-0.4194283415	 1.2812093973	 0.085926
H	 1.4036347246	-3.0747879482	 0.6061689472	 0.070935
