19
gdb 50398	2.68868	1.45289	1.07804	2.7458	82.19	-0.2282	-0.0223	0.2059	1141.8043	0.159877	-385.880839	-385.872848	-385.871904	-385.914037	30.474	
O	 0.0811965916	-0.1239313735	-0.0569374086	-0.25662
C	 0.078933516	 1.0798991428	-0.0941130057	 0.165118
C	 1.3146481157	 1.9514056108	-0.0468662849	-0.119105
C	 1.2186289101	 3.0748711345	-1.1466506873	-0.27647
C	 0.6911134941	 4.295013342	-0.3970161447	-0.242114
C	 0.8759731258	 4.1264486995	 0.9064563631	 0.324733
C	 0.3136069775	 4.3855034781	 2.2856375399	-0.322592
C	 0.3899804484	 2.8233221754	 2.480706224	-0.249451
C	 1.4057773343	 2.7709338241	 1.2746656202	-0.051682
H	-0.8788098078	 1.6455886652	-0.1774156757	 0.074878
H	 2.1765368355	 1.2957472693	-0.1874570861	 0.088836
H	 2.1992788119	 3.2471821542	-1.609102854	 0.11544
H	 0.5464500333	 2.7829664329	-1.9640519633	 0.109113
H	 0.1798457169	 5.1114196124	-0.8933602721	 0.09664
H	 1.0137360989	 4.9015235212	 2.9511128885	 0.116693
H	-0.6621941672	 4.8710429193	 2.356040547	 0.115685
H	 0.756600102	 2.463620092	 3.4442240332	 0.107917
H	-0.5662959392	 2.3458286006	 2.2591904573	 0.116803
H	 2.4315730321	 2.7781823191	 1.660731799	 0.086179
