19
gdb 114052	2.83841	1.15975	0.9774	0.2845	71.73	-0.2308	0.0711	0.3019	1245.4013	0.157744	-460.113051	-460.103726	-460.102782	-460.146829	35.247	
O	-0.1165036421	 1.4613144306	-0.1056039681	-0.428615
C	 0.0402145729	 0.0608905807	 0.1090993926	-0.106581
C	-1.3264290638	-0.5718966518	-0.0851890024	 0.052222
C	-1.9217366278	-0.6597557819	-1.5277143599	-0.316218
C	-2.1495461703	-2.1599950675	-1.3270875966	 0.324592
O	-3.2275687598	-2.8748325132	-1.812923009	-0.456551
C	-0.8821016791	-2.8724147712	-1.0342055109	 0.072392
O	 0.3660881755	-2.5294636774	-1.5780959218	-0.419593
C	-1.488329786	-2.087083803	 0.0935194579	-0.229147
H	 0.7566001545	 1.8633536313	-0.0946428454	 0.284545
H	 0.7616734683	-0.3779080924	-0.5892215709	 0.112348
H	 0.3932608633	-0.1459640197	 1.1334389216	 0.07794
H	-2.0315935731	-0.0446337136	 0.5654254737	 0.080831
H	-2.8535889262	-0.0976425246	-1.6295689679	 0.096708
H	-1.2551620261	-0.3853281686	-2.35033175	 0.100568
H	-4.0357429477	-2.4174595712	-1.5546440242	 0.285086
H	-1.0367183861	-3.9459065437	-0.9127826498	 0.095448
H	 0.3578887027	-2.7717224658	-2.5105849238	 0.286901
H	-1.7479216491	-2.5751514273	 1.0264036748	 0.087124
