11
gdb 133522	1.92718	1.68271	1.08562	3.3155	53.51	-0.3074	-0.0099	0.2975	1040.3153	0.060303	-545.88235	-545.87393	-545.872986	-545.916187	29.295	
F	-0.0180991021	 0.0649794327	-0.0248404337	-0.060898
C	-0.0095346448	 1.3975553543	-0.0052415453	 0.301441
F	 1.2486506577	 1.818106795	-0.0929101807	-0.055349
F	-0.6815807601	 1.8401184062	-1.0696774254	-0.061294
C	-0.688133936	 1.9054144882	 1.291593879	-0.471647
C	-0.0101896096	 1.4061465335	 2.4841141319	 0.328846
C	 0.538954377	 0.9914807667	 3.4654315443	-0.395557
C	-0.7600017457	 3.3742738349	 1.2780718152	 0.30588
N	-0.8301337734	 4.5257564073	 1.2754320933	-0.30072
H	-1.7143515272	 1.5169746161	 1.2547398181	 0.186584
H	 1.0304583544	 0.6256416652	 4.3338947633	 0.222713
