18
gdb 105321	2.44939	1.51935	1.15609	4.6637	75.81	-0.238	0.0185	0.2565	1110.3027	0.147996	-398.073566	-398.06501	-398.064066	-398.106671	32.131	
C	 0.080914397	 1.4584439097	-0.1056872112	-0.34355
N	-0.0144607695	 0.0260922201	 0.1640243469	-0.334176
C	-1.3345016036	-0.5456991829	 0.0153895157	 0.141976
C	-2.0991703848	-0.6211312368	-1.3731107188	-0.219225
N	-2.2391941603	-2.1124263475	-1.2735588	-0.114429
C	-0.86529397	-2.6329049307	-1.2633301572	-0.257907
C	-1.4046953223	-2.0780787352	-0.0048280812	-0.065835
C	-2.2207323197	 0.012767481	 1.0465464022	 0.29704
N	-2.9271044283	 0.4613627066	 1.8434505008	-0.344368
H	 1.121140651	 1.7720853356	 0.0104823535	 0.13037
H	-0.2596110463	 1.7516439849	-1.1128430254	 0.104765
H	-0.5184753774	 2.0081096419	 0.62618875	 0.155118
H	 0.6392077956	-0.4944453222	-0.4077714961	 0.225711
H	-3.0772322622	-0.1402930888	-1.3709551811	 0.140797
H	-1.5208249112	-0.285499266	-2.2403250188	 0.1115
H	-0.8157004416	-3.7151136413	-1.3322797515	 0.137185
H	-0.0969712049	-2.1109378949	-1.830694094	 0.111438
H	-1.6360021617	-2.6895968735	 0.8596901564	 0.123591
