23
gdb 39468	2.1735	1.95875	1.43309	0.1534	88.69	-0.2331	0.0258	0.2589	1045.2606	0.210844	-351.185011	-351.177633	-351.176689	-351.216211	31.554	
C	 0.0152273361	 1.5540414164	-0.1474769589	-0.234278
C	 1.5323911758	 1.8470897509	-0.021004844	-0.028931
C	 2.0008708347	 2.0357606113	 1.4425281235	-0.201226
C	 1.7821900714	 0.8355142884	 2.3822403044	-0.180391
C	 0.321433515	 0.3739045417	 2.5450085375	-0.185086
C	-0.2710653521	-0.5018652228	 1.4202238138	-0.203628
C	-0.084683803	 0.0132380457	-0.035170943	-0.025551
C	 1.2502751835	-0.4080248893	-0.624899362	-0.070734
C	 2.1258435613	 0.5953951042	-0.6369807517	-0.071839
H	-0.5939495357	 2.0883027954	 0.5870621066	 0.088001
H	-0.3239628241	 1.8631838422	-1.1414492897	 0.092393
H	 1.8054078046	 2.7521999167	-0.5763110725	 0.061955
H	 3.0704464035	 2.2840293537	 1.4422784575	 0.087791
H	 1.4856284857	 2.9134641633	 1.8559933917	 0.089811
H	 2.3982921379	-0.0099363528	 2.0547100499	 0.09707
H	 2.1623306313	 1.1234490165	 3.3700849887	 0.087725
H	 0.2380272474	-0.1998644289	 3.4761708209	 0.088392
H	-0.3116158684	 1.258789039	 2.6923681465	 0.093026
H	 0.1579047064	-1.5099553256	 1.487516689	 0.091834
H	-1.3429889783	-0.6193277862	 1.6224521421	 0.08909
H	-0.9167455858	-0.3736715548	-0.6349062621	 0.064331
H	 1.4493417145	-1.4279472756	-0.9381264814	 0.085204
H	 3.1607234082	 0.5304440405	-0.956594887	 0.085044
