18
gdb 47344	2.89642	1.25777	0.92137	3.0396	80.39	-0.2586	0.0158	0.2744	1251.3522	0.148045	-401.934366	-401.925965	-401.925021	-401.967615	32.054	
N	-0.0385693265	 1.3054269465	 0.193894472	-0.494881
C	-0.0121902942	 0.0618294886	-0.0361990465	 0.382029
C	-1.2768148742	-0.763584548	-0.0661551378	-0.258038
C	-1.2258128215	-1.9037939527	-1.0896770823	-0.236126
C	 0.0675265922	-2.6960875337	-0.8961679072	-0.208164
C	 1.2678169883	-1.751918855	-1.0359654337	-0.063358
O	 1.1798675067	-0.609836395	-0.1537536004	-0.265932
C	 2.535447765	-2.4177324205	-0.7620616444	 0.313855
C	 3.5645508503	-3.0011279823	-0.5562065558	-0.417837
H	 0.9149983318	 1.6747422329	 0.2131059151	 0.220366
H	-1.4031040906	-1.1939953095	 0.9368282099	 0.127851
H	-2.1151662475	-0.0861254938	-0.2335578833	 0.132808
H	-2.09926825	-2.5526897317	-0.9769484101	 0.106909
H	-1.2606708738	-1.4970265676	-2.1086315417	 0.109008
H	 0.0929313177	-3.1583051641	 0.0970098798	 0.11867
H	 0.169350882	-3.4965140693	-1.635069842	 0.116584
H	 1.2872689685	-1.3664337601	-2.0673206627	 0.113234
H	 4.4804837955	-3.5063790747	-0.3716281491	 0.20302
