19
gdb 90872	3.41724	1.59295	1.36017	1.5129	74.01	-0.2456	0.0897	0.3353	999.7916	0.160862	-423.001139	-422.993935	-422.992991	-423.032455	29.469	
C	-0.7037415991	 1.3793628387	 0.0828407233	-0.403205
C	 0.1201287912	 0.114822573	-0.0081135271	 0.2284
O	 0.8755511947	 0.1470302603	-1.2065356002	-0.264958
C	 1.6147488085	-1.0364834281	-1.3822544934	 0.099658
C	 3.0573334011	-1.1052796237	-0.9716735599	-0.094961
C	 3.2969833316	-0.1359117493	 0.1833819373	-0.249418
C	 2.0923973537	-0.7861729055	 0.9494187706	 0.113779
O	 0.9553902465	 0.0425930244	 1.1342160559	-0.283771
C	 1.9653138324	-1.8372303168	-0.1665851473	-0.160945
H	-0.0439369314	 2.2498140167	 0.0504046443	 0.131874
H	-1.4068865091	 1.4308407731	-0.7518569815	 0.122536
H	-1.2593786614	 1.3910766933	 1.023360322	 0.127553
H	-0.5219541682	-0.7822074591	-0.0308912879	 0.062836
H	 1.3402825584	-1.5848386914	-2.2796640378	 0.09515
H	 3.809924135	-1.5293619774	-1.6246092373	 0.088348
H	 4.2421766502	-0.3200124746	 0.6992945526	 0.101268
H	 3.1960819608	 0.928996882	-0.0378284672	 0.108933
H	 2.3620438129	-1.1741550273	 1.932399789	 0.088375
H	 1.7457599021	-2.891255498	-0.0520034354	 0.088547
