14
gdb 127834	4.66989	1.06103	0.87007	3.8912	67.9	-0.2518	-0.0815	0.1703	1252.5568	0.099896	-466.12797	-466.119666	-466.118722	-466.161397	29.443	
C	-0.1090513865	 1.4377367917	-0.0161511023	-0.344411
N	-0.1260856415	-0.01197535	-0.0109347145	-0.265804
C	 0.5533110491	-0.6090445343	-0.9095630724	 0.297895
N	 1.3416651181	-0.0513801243	-1.8913347734	-0.572332
C	 0.5645995638	-2.0884828368	-0.9224910919	 0.426931
N	 0.0031522124	-2.8814486329	-0.0511124246	-0.146331
O	 0.2837544609	-4.1232585655	-0.4979177681	-0.12616
N	 1.0338123718	-4.0356858621	-1.666183158	 0.042312
N	 1.1996651328	-2.8154756407	-1.9154490371	-0.225209
H	 0.9094857278	 1.8417340126	 0.0933065295	 0.121949
H	-0.5312776485	 1.8575757795	-0.9444842153	 0.112274
H	-0.7114732559	 1.8104002792	 0.8147432461	 0.135998
H	 1.1961079435	 0.9173105414	-2.1198602272	 0.265185
H	 1.6550481522	-0.6450637078	-2.6428439908	 0.277702
