21
gdb 83962	2.15571	1.88968	1.73136	1.2663	81.49	-0.2302	0.0202	0.2504	973.2081	0.185702	-387.096978	-387.089506	-387.088562	-387.128289	31.034	
C	-0.2558642642	 1.5341944852	 0.0092663463	-0.436913
C	 0.058367231	 0.0390921374	 0.0029602156	 0.041784
C	 0.9174009193	-0.5192599753	-1.1647482832	-0.093592
C	 2.2647872262	 0.2376907909	-1.193268244	-0.071688
O	 2.997684147	 0.0910668603	 0.0174023845	-0.254155
C	 2.253125987	 0.2251314835	 1.2224013612	-0.071688
C	 0.9061305721	-0.531444588	 1.173008776	-0.093588
C	 1.1525764249	-1.945783712	 0.6646278384	-0.065681
C	 1.1589969235	-1.9388365581	-0.6687779317	-0.065682
H	 0.631737515	 2.1708309775	 0.0165493358	 0.123864
H	-0.8443643154	 1.8034975366	-0.8750107793	 0.113824
H	-0.8523063737	 1.7943797826	 0.8909516177	 0.113825
H	-0.8947378895	-0.5019048281	-0.0044597313	 0.071715
H	 0.4352657919	-0.4475242145	-2.145102149	 0.059979
H	 2.9180978407	-0.1623238924	-1.9756042709	 0.10434
H	 2.0921284975	 1.301639709	-1.4206212818	 0.087454
H	 2.8988896621	-0.1829979307	 2.0068083745	 0.10434
H	 2.0781886705	 1.2866663211	 1.4591082311	 0.087455
H	 0.4145516121	-0.4698996983	 2.1493575645	 0.059978
H	 1.3705057922	-2.789642309	 1.3084208334	 0.092214
H	 1.3831589797	-2.7759495978	-1.3192034777	 0.092214
