16
gdb 125385	3.21693	1.17092	0.86661	4.2885	75.03	-0.2283	0.0068	0.2351	1284.4795	0.124988	-434.087857	-434.079102	-434.078158	-434.122461	30.627	
C	 0.0002909625	 1.534931764	 0.0658184485	-0.507014
C	-0.0486254293	 0.0410154794	 0.0198757024	 0.082053
C	-0.0437412787	-0.8060991536	-1.0697750166	-0.094131
N	-0.0936103523	-2.0742727277	-0.5958606024	-0.20593
N	-0.1444045433	-2.130548169	 0.7545208274	-0.321448
C	-0.1081960011	-0.8564527181	 1.1123392457	 0.404566
O	-0.1501645004	-0.4388516228	 2.4072123926	-0.219571
C	 0.1597650141	-1.3285803022	 3.3921157011	 0.112845
N	-0.0085827661	-0.9789923877	 4.5905186769	-0.435238
H	 0.8611779787	 1.8899482019	 0.6422360337	 0.138725
H	 0.0722030629	 1.955738779	-0.9405633112	 0.121464
H	-0.8937879327	 1.9517111977	 0.5417264104	 0.141444
H	-0.0076326855	-0.5962215526	-2.1275636697	 0.139539
H	-0.1199877256	-2.9326144489	-1.1170362021	 0.27775
H	 0.5422047206	-2.2766764875	 3.0085222388	 0.131927
H	 0.2885861161	-1.7307082321	 5.2099360044	 0.233019
