20
gdb 39255	2.86547	1.76727	1.27629	1.4244	84.74	-0.2123	0.0178	0.2301	1028.485	0.174713	-366.013681	-366.006619	-366.005675	-366.044953	29.416	
C	 0.0424546639	 1.4259972605	 0.5738020572	-0.215822
C	 1.0382020294	 2.0867578376	-0.4204437501	-0.222496
C	 1.99586695	 0.9565386728	-0.8690764952	-0.028839
C	 2.465949853	 0.9493253652	-2.3498733388	-0.306843
C	 1.9476362697	-0.3650843848	-2.8975536547	-0.07192
C	 1.230905599	-1.0528514477	-2.0039487777	-0.205144
C	 1.1493479303	-0.3192227695	-0.7276362956	 0.369797
N	 1.0779403711	-0.8771622731	 0.6371609486	-0.395744
C	-0.0340130257	-0.0343468087	 0.129803703	-0.10735
H	 0.4141358884	 1.4780132864	 1.6023949221	 0.111934
H	-0.9371048017	 1.9120893015	 0.5497772446	 0.095645
H	 0.4812123608	 2.4479233143	-1.2940457449	 0.095411
H	 1.557583062	 2.9491563795	 0.0081237278	 0.094778
H	 2.852205178	 0.8983533461	-0.1910823523	 0.083253
H	 2.0529722868	 1.7982908502	-2.9121484077	 0.104972
H	 3.5554315316	 1.0267075738	-2.4471318298	 0.107133
H	 2.1283730888	-0.6772384182	-3.9205344324	 0.093513
H	 0.7472358663	-2.0082609493	-2.1765058607	 0.090248
H	 0.8004784115	-1.857231685	 0.5864773255	 0.223275
H	-0.9970146933	-0.5040021517	-0.0454241488	 0.084199
