18
gdb 75377	3.028	1.52497	1.2188	2.2214	72.67	-0.2403	0.0257	0.2661	1060.9804	0.148559	-439.084826	-439.076861	-439.075917	-439.117938	29.585	
C	 0.0036655597	 1.461896408	 0.1370017392	-0.451682
C	-0.0410633045	-0.0250750988	-0.0522304895	 0.394235
N	 0.1831812357	-0.572178601	-1.1702121654	-0.297042
C	 0.0246890412	-2.0135663798	-1.2985288053	-0.187189
C	 0.2029797809	-2.8032431278	-0.0157822713	 0.08927
O	 1.5885507504	-2.9421700227	 0.3849867332	-0.289221
C	 1.3236095365	-2.3676227324	 1.6790273289	-0.094019
C	-0.1250071764	-2.0277295543	 1.2775555647	 0.058474
O	-0.3843424287	-0.640032372	 1.1267777988	-0.275449
H	 0.7685591782	 1.7305963637	 0.8727100452	 0.135755
H	 0.2206622657	 1.9443713399	-0.8149604483	 0.145985
H	-0.9556317871	 1.8206676138	 0.5239399952	 0.138441
H	-0.978218677	-2.2151760438	-1.7018852491	 0.112525
H	 0.7390239123	-2.382444828	-2.0430875486	 0.124374
H	-0.2826945532	-3.7854906414	-0.0828668285	 0.077699
H	 1.416692285	-3.1040072176	 2.4875276263	 0.104366
H	 1.9579974323	-1.500892151	 1.895178879	 0.11392
H	-0.9188010111	-2.4215777648	 1.9126226456	 0.099558
