16
gdb 3549	5.89969	2.64602	2.35388	1.7997	63.12	-0.234	0.0854	0.3195	630.6255	0.138423	-288.571762	-288.566041	-288.565097	-288.60084	22.937	
C	-0.1600020761	 1.4639043091	 0.0398333241	-0.411647
C	 0.0560616233	-0.0447130291	 0.0244582576	 0.013521
C	 0.9248979525	-0.518640106	-1.1442256118	-0.030495
C	 2.1654185073	-0.4408753188	-0.3389609474	-0.050617
C	 1.225545425	-0.5396815762	 0.9271863623	-0.083291
C	 1.2367406943	-2.0497647781	 0.649637966	-0.155181
N	 1.6612315627	-1.7768372193	-0.7654780542	-0.155377
H	 0.7882925435	 1.9999295452	-0.0775752292	 0.118102
H	-0.8226886257	 1.7768215488	-0.7744050155	 0.116316
H	-0.6171558643	 1.7850536264	 0.9817699861	 0.114921
H	-0.8980546183	-0.5672834937	 0.1718157659	 0.064512
H	 0.7823802294	-0.3537616351	-2.2049571606	 0.093797
H	 3.1655171989	-0.0762641567	-0.5316340354	 0.094781
H	 1.3816305918	-0.1130963548	 1.9171309802	 0.070075
H	 2.0474199184	-2.5854643305	 1.1503073156	 0.106273
H	 0.2979264273	-2.6062113612	 0.7622159762	 0.09431
