20
gdb 52109	4.99427	0.72497	0.68671	3.0559	80.98	-0.2453	-0.0188	0.2265	1645.0297	0.17044	-403.11928	-403.110277	-403.109332	-403.154349	32.74	
O	-0.5001401428	 0.4787337153	 0.6008568517	-0.237462
C	 0.0938384254	 0.9108293661	-0.3531930875	 0.15531
C	 1.350492061	 1.7454497047	-0.292112344	-0.270746
C	 1.1717030188	 3.1014802597	-1.0068687788	-0.31637
C	 2.4526380066	 3.8837173174	-1.0565707439	 0.371861
C	 3.1036301098	 4.6545401683	 0.1094991052	-0.294676
C	 3.6388673296	 5.7035501423	-0.9223075117	-0.23471
C	 2.978654867	 4.8904064281	-2.0438144804	-0.098454
N	 3.4585969694	 3.5093052342	-2.0475940746	-0.357071
H	-0.2725348273	 0.7175016158	-1.3898922976	 0.070746
H	 1.6359803305	 1.8730037686	 0.7560748931	 0.119588
H	 2.1481105475	 1.1922887763	-0.8076689171	 0.130998
H	 0.8266861905	 2.929701179	-2.0328620611	 0.115168
H	 0.3988905199	 3.6888843488	-0.4961831623	 0.109937
H	 2.3754493599	 5.0897834356	 0.79875568	 0.110315
H	 3.8446492671	 4.0980001581	 0.6932202347	 0.097688
H	 3.1912879963	 6.689794448	-0.7792800157	 0.110771
H	 4.7249222267	 5.8215093516	-1.0006312162	 0.10002
H	 2.5394424497	 5.2762297515	-2.9573594498	 0.094951
H	 4.3955960341	 3.4208547307	-1.6568157938	 0.222137
