18
gdb 66578	3.42154	1.83467	1.53909	1.9497	81.11	-0.2052	-0.0452	0.16	913.8575	0.148257	-364.684996	-364.678158	-364.677214	-364.715686	28.476	
C	-0.1082913145	 1.4610706843	 0.0646313385	-0.514828
C	-0.0629854432	-0.0306510286	 0.1300895591	 0.301668
C	 1.1000377082	-0.885422711	-0.4126064078	-0.101212
C	 0.9790379006	-2.3367233347	 0.1703328875	-0.035561
C	 1.0667184246	-2.6037232968	 1.7157203164	-0.270142
C	 0.1678535989	-1.4638699183	 2.2047723531	-0.110428
C	-0.5610420861	-1.0522097842	 1.1487147653	-0.009249
C	-0.5095900028	-2.0390134393	-0.0316389099	-0.028761
N	-0.2739721347	-0.911341454	-1.0441075871	-0.200218
H	 0.3850027686	 1.9071996202	 0.9346642758	 0.12538
H	 0.3982040353	 1.8160145227	-0.8381195089	 0.13243
H	-1.1428813909	 1.8170375521	 0.0362128789	 0.134085
H	 1.946209969	-0.4500522981	-0.9354740464	 0.092362
H	 1.4591943727	-3.0783468017	-0.4747303765	 0.074331
H	 0.7468098937	-3.6345255934	 1.9234469837	 0.114554
H	 2.0636067919	-2.4888939549	 2.1568902409	 0.112258
H	 0.4947177528	-0.8070631535	 3.0050635551	 0.099561
H	-1.2852853542	-2.7785442607	-0.2228615378	 0.083771
