23
gdb 112736	2.3644	1.20339	0.92452	1.6771	85.61	-0.2541	0.072	0.3261	1367.49	0.204988	-388.264969	-388.255185	-388.254241	-388.299705	37.242	
C	-0.8850597205	 0.9892261782	-1.0719265208	-0.410716
C	 0.0978196627	-0.1362544505	-0.7872104798	-0.03054
C	 1.5546092247	 0.0026135626	-1.3225558623	-0.267546
C	 2.0969204679	-0.5187401092	 0.0442043613	-0.068848
C	 3.2805591587	 0.2164071856	 0.6533952573	-0.083267
O	 4.4889973727	-0.0171294755	-0.056477644	-0.422462
C	 0.6899918111	-0.294756072	 0.6275802022	 0.344545
C	 0.3473262557	 0.5496001526	 1.8267954496	-0.323661
C	 0.0629282376	-0.9350370215	 1.827003373	-0.327517
H	-0.4782504561	 1.9577259659	-0.7615837213	 0.113783
H	-1.1113137491	 1.0477382417	-2.1423826002	 0.113939
H	-1.834125713	 0.8396438804	-0.5441487678	 0.113454
H	-0.3323187029	-1.0901168795	-1.1166229935	 0.071568
H	 1.8112486125	-0.5674825875	-2.2185621458	 0.097297
H	 1.818832493	 1.0544333068	-1.48741777	 0.090667
H	 2.3388073831	-1.5864334091	-0.0110510098	 0.07611
H	 3.0559300298	 1.2938128674	 0.7156747122	 0.082686
H	 3.4680549647	-0.1349473235	 1.6747932557	 0.105549
H	 4.3542589787	 0.2829336174	-0.9613461147	 0.283504
H	 1.1519362858	 0.9156122124	 2.4561935747	 0.113117
H	-0.4945728116	 1.2302372852	 1.7504532066	 0.110707
H	-0.9717691119	-1.2564237052	 1.7512180947	 0.107916
H	 0.6808977964	-1.5743179627	 2.4505108429	 0.109713
