19
gdb 74951	3.11794	1.50272	1.3295	1.4563	76.38	-0.2363	0.0158	0.2522	1041.6825	0.16134	-423.046852	-423.039418	-423.038474	-423.078531	29.651	
C	-0.0894465976	 1.5484055673	 0.0644346398	-0.476394
C	-0.0046714587	 0.0513806483	-0.0124143484	 0.31732
C	 0.0016583538	-0.6293958874	-1.1615183751	-0.162789
C	 0.0650701683	-2.1384883434	-1.1393980164	-0.001278
C	 1.4881439919	-2.6417030945	-0.8281970381	-0.079129
O	 1.5640265817	-2.4758236411	 0.5892608346	-0.279931
C	 0.2370109698	-2.2091821152	 1.0502681386	 0.181077
C	 0.061388254	-0.7048940701	 1.2993111873	-0.310872
O	-0.6238290785	-2.6320544901	 0.0197663425	-0.248256
H	 0.7826296155	 1.9680563814	 0.5820160466	 0.126257
H	-0.1479720052	 2.0010878522	-0.9290888902	 0.121074
H	-0.9715313015	 1.8640497799	 0.6366155037	 0.125666
H	-0.0229486133	-0.1233321908	-2.122391338	 0.082399
H	-0.3832219848	-2.5976342939	-2.0218363893	 0.088508
H	 1.6069916013	-3.6998105306	-1.096353121	 0.098946
H	 2.2740163834	-2.0506263208	-1.3070489516	 0.107863
H	 0.0378265383	-2.8108054046	 1.9422257797	 0.086427
H	 0.9037800667	-0.3491871714	 1.9055436813	 0.116036
H	-0.8479818251	-0.5236460753	 1.8898360342	 0.107077
