14
gdb 19893	4.18947	1.94787	1.62503	3.5383	65.21	-0.2475	0.0109	0.2584	784.6817	0.108284	-341.497656	-341.491415	-341.490471	-341.527938	24.353	
N	-0.3094811008	-1.2193843548	-0.2322649814	-0.353652
C	-0.1062514284	-0.0901239028	-0.0797975577	 0.288388
C	 0.0673737852	 1.3313473467	 0.0677506694	-0.167858
C	 0.4740200256	 2.1169131515	 1.2975645086	-0.108561
C	 1.7271292089	 1.5851790691	 2.016772662	-0.032328
C	 2.3972230069	 0.4235546614	 1.398390363	-0.267514
N	 2.5755482011	 1.7539275487	 0.7794357976	-0.138083
C	 1.3261225903	 2.1922183791	 0.0577880085	-0.024578
H	-0.7159993615	 1.8625385719	-0.4709297449	 0.148497
H	-0.1898744267	 2.8512983857	 1.7336404992	 0.115205
H	 2.0491991041	 2.0124237123	 2.9601920081	 0.113913
H	 3.3122061543	 0.0956019814	 1.8840826369	 0.133978
H	 1.859790526	-0.3643876313	 0.8902138448	 0.169854
H	 1.4397035148	 2.9677947011	-0.6888434741	 0.122739
