22
gdb 59949	2.24965	1.20896	0.95728	4.886	83.47	-0.2277	0.0379	0.2656	1354.7761	0.192419	-400.522516	-400.51153	-400.510586	-400.558373	40.037	
C	-0.3068434577	 1.351756118	-1.2381890388	-0.321105
N	-0.2115408304	 0.3694210101	-0.1661696488	-0.057981
C	 0.7076602255	 0.8164776791	 0.8774757754	-0.345874
C	-1.5114838847	-0.0529984215	 0.3420205201	-0.174222
C	-1.5998693768	-1.5938968878	 0.5869054695	 0.071758
C	-3.057817102	-1.9860746922	 0.8853335606	-0.409687
N	-1.1047537554	-2.3725123	-0.5522677318	-0.513416
C	-0.7836942113	-1.9614751053	 1.7668247752	 0.329837
N	-0.1685758432	-2.2317922471	 2.707400781	-0.357405
H	 0.6911784896	 1.5457519095	-1.6435376519	 0.124233
H	-0.9304097462	 0.9651189007	-2.0497114776	 0.115516
H	-0.7292804523	 2.3191875142	-0.9089551683	 0.098772
H	 0.3758360811	 1.7563327003	 1.3563625921	 0.095728
H	 0.8090184009	 0.0543021098	 1.6507990282	 0.160881
H	 1.6961024315	 0.9899369762	 0.4413351276	 0.120827
H	-1.8028681657	 0.4913868734	 1.2558426052	 0.099367
H	-2.2711596188	 0.1671344215	-0.4156461174	 0.095904
H	-3.688348157	-1.7281495408	 0.0275991692	 0.116859
H	-3.1314451382	-3.0607918245	 1.0628428321	 0.15013
H	-3.4362484291	-1.4562438694	 1.7628816623	 0.137357
H	-1.7926661947	-2.3264505312	-1.2997046025	 0.224658
H	-0.2676635451	-1.902929813	-0.8946587212	 0.237861
