20
gdb 61011	2.73541	1.25098	0.96191	3.6244	78.89	-0.2376	-0.0197	0.2179	1258.4287	0.16985	-403.108916	-403.099872	-403.098928	-403.143401	33.272	
C	 0.0495096114	 1.5145632742	 0.0514693383	-0.414089
C	 0.1003062023	-0.0259934693	 0.0568046138	-0.091477
C	 0.7333254935	-0.4947555875	 1.356189115	 0.17917
O	 1.8309460191	-0.9768974493	 1.4530054126	-0.251239
C	-1.306271728	-0.6090985619	-0.0718419789	 0.061285
C	-2.0899183265	-0.5070031955	-1.4120686592	-0.291908
C	-2.1911280032	-2.0305375774	-1.3500523273	-0.011159
C	-0.853247483	-2.6417512635	-1.2858023751	-0.239232
N	-1.4327080011	-2.114896015	-0.03371127	-0.145624
H	 1.0561139645	 1.9396496762	 0.0881606016	 0.13512
H	-0.4421766348	 1.8791368381	-0.8555757094	 0.129711
H	-0.5120986092	 1.8951599126	 0.9121093407	 0.124144
H	 0.7477871355	-0.3680772407	-0.7561997705	 0.093308
H	 0.0951317374	-0.3280352546	 2.256822317	 0.072611
H	-1.9153520897	-0.2285545455	 0.7552968202	 0.087196
H	-3.0436762866	 0.0129000455	-1.3110819191	 0.114535
H	-1.5597316496	-0.1030512937	-2.2807422425	 0.105253
H	-3.0942429236	-2.6072369386	-1.5196381401	 0.099057
H	-0.7892126014	-3.7251510829	-1.2787255588	 0.126744
H	-0.0045212371	-2.1465427613	-1.7504383683	 0.116595
