17
gdb 14031	5.50015	1.15449	1.08131	1.46	64.63	-0.2479	0.0543	0.3022	1099.5675	0.142241	-400.936179	-400.928274	-400.92733	-400.969025	28.659	
O	 0.0684589628	 1.2889959391	-0.5887168451	-0.418885
C	 0.0545508327	 0.1485914827	 0.2503066299	-0.059744
C	-1.3240672292	-0.4653049587	 0.3194474519	-0.11469
N	-1.7491795358	-1.1206670377	-0.9444437952	-0.385135
C	-1.5544886247	-1.9216301182	 0.2554743446	 0.274516
C	-0.6116617503	-3.1157546562	 0.3750109808	-0.130879
O	-1.6145024921	-3.8462309623	 1.11969768	-0.274344
C	-2.5766852288	-2.778850593	 0.9980766234	-0.14689
H	-0.2690432731	 0.99239675	-1.4425030096	 0.290892
H	 0.7745679258	-0.6106003964	-0.0926611332	 0.089924
H	 0.3735061875	 0.4869393763	 1.2416969786	 0.111568
H	-2.0707806001	 0.1309102527	 0.8424246667	 0.094357
H	-2.7410562983	-0.9695232625	-1.1140612331	 0.235038
H	-0.3642278765	-3.5987727693	-0.578100972	 0.112972
H	 0.3039026029	-2.9663644072	 0.9598983023	 0.108578
H	-2.9107803733	-2.4065613788	 1.9749502325	 0.109305
H	-3.4537369695	-3.0771980407	 0.4062294072	 0.103417
