16
gdb 127878	4.69112	1.11723	0.93398	4.6898	81.85	-0.2295	-0.0656	0.164	1247.83	0.123642	-430.209219	-430.200474	-430.19953	-430.243636	30.408	
C	-0.186566827	 1.4078731087	 0.1674727198	-0.329549
N	-0.1378909821	-0.0404737755	 0.1518717355	-0.268347
C	 0.6817434222	-0.6720140785	 0.8833011332	 0.403471
N	 0.7423204079	-2.0717803284	 0.8338709392	-0.281788
C	 1.2534385803	-2.6318346684	 1.863955794	 0.10292
N	 1.7730021209	-1.9346517663	 2.9251499672	-0.029034
C	 2.3746525083	-2.5731011166	 4.0836505342	-0.331452
N	 2.1107787764	-0.6055115151	 2.7318172687	-0.056628
N	 1.6249187866	-0.0076482291	 1.7493163353	-0.205368
H	 0.5757793274	 1.8926630823	 0.7854411077	 0.132152
H	-0.0938520282	 1.767346815	-0.8639933813	 0.128701
H	-1.178633832	 1.7218003269	 0.5148765104	 0.126263
H	 1.3403419162	-3.7167543352	 1.9236920692	 0.140104
H	 3.0355448406	-3.3928134116	 3.7837629532	 0.146735
H	 2.9588903908	-1.8149085527	 4.6053075191	 0.170317
H	 1.6030070118	-2.9607051854	 4.7551142146	 0.151502
