21
gdb 41411	3.16354	1.8216	1.47479	0.1611	84.66	-0.2433	0.0954	0.3387	968.6535	0.186227	-349.923478	-349.916754	-349.91581	-349.954079	29.173	
C	-0.0471772661	 1.4758424992	 0.0186982058	-0.234604
C	 1.510476134	 1.5673001846	-0.0568259254	-0.334184
C	 1.5618776115	 0.0620310398	-0.3512016781	 0.368492
C	 2.4956167553	-1.0111646255	 0.1825035145	-0.304728
C	 1.7901457484	-2.3081606824	-0.3230749927	-0.236125
C	 0.9110186859	-1.8344499055	-1.4931543381	-0.046613
C	-0.2026745969	-0.8083960264	-1.2613699556	-0.069164
C	 1.1655769031	-0.3884205063	-1.7828763336	-0.126058
C	 0.0384835525	-0.0848018593	 0.0457948572	-0.062638
H	-0.4953071679	 1.9302110713	 0.9047999088	 0.096561
H	-0.5595965905	 1.8661380688	-0.8641574968	 0.1001
H	 1.9474361771	 2.2390474477	-0.8017963902	 0.091425
H	 1.9469063183	 1.8066048951	 0.9182432366	 0.098123
H	 3.5014628536	-0.9198798871	-0.2471042905	 0.092021
H	 2.5960184387	-0.9843046485	 1.2728119363	 0.090281
H	 2.5121293234	-3.0570743323	-0.6621905498	 0.095051
H	 1.1979716758	-2.7744442522	 0.4717794764	 0.099603
H	 0.7365743934	-2.5084433743	-2.324771266	 0.079766
H	-1.1366154569	-0.8764126906	-1.8119312057	 0.073382
H	 1.4700093575	 0.0442112309	-2.7276272586	 0.075599
H	-0.2688664601	-0.552048507	 0.9864277855	 0.05371
