19
gdb 79792	3.65795	1.66796	1.53612	1.6023	76.96	-0.2492	0.0701	0.3193	920.291	0.162724	-385.841411	-385.835102	-385.834158	-385.871705	27.46	
O	 0.246656813	 1.4168658661	-0.1560736923	-0.448477
C	 0.0450780678	 0.0343669119	-0.0073657787	 0.159775
C	 0.1464356471	-0.6402817231	 1.3867705986	-0.085418
C	-0.897232482	 0.0643232781	 2.2710590351	-0.056395
C	-1.4961374775	-1.0448395719	 3.1733552184	-0.245665
C	-2.0554278098	-1.5956074902	 1.8517052678	-0.042599
C	-2.0976619128	-0.1512356149	 1.2501893594	-0.059181
C	-1.3606191996	-0.58513384	-0.0539776961	-0.110687
C	-0.8565938332	-1.7511904655	 0.8663991412	-0.047694
H	-0.3742929653	 1.8724112665	 0.4219633573	 0.282901
H	 0.7105011046	-0.4499132214	-0.7286479403	 0.086176
H	 1.1092378513	-0.8811424875	 1.8377708496	 0.062449
H	-0.6382681741	 1.0438195584	 2.6766904357	 0.060543
H	-0.8052549923	-1.6605496756	 3.7594323398	 0.090012
H	-2.2903383841	-0.6626674922	 3.8222145875	 0.095947
H	-2.8767643589	-2.3087602681	 1.7904992315	 0.063871
H	-2.9653860152	 0.5049366706	 1.287672109	 0.065365
H	-1.9342386011	-0.718445196	-0.9703493008	 0.062657
H	-0.4695567677	-2.7012269253	 0.5052885072	 0.06642
