16
gdb 32378	6.45667	0.87005	0.77404	1.3521	83.44	-0.2316	-0.0341	0.1975	1442.4167	0.123521	-400.755344	-400.746848	-400.745903	-400.788924	31.054	
C	-0.995064389	 0.6732874265	-0.1433293296	-0.390594
C	 0.5026965257	 0.3589261359	-0.1129462924	-0.294195
C	 1.0023663707	-0.0897462782	 1.2233488084	 0.249483
C	 0.3391231223	-0.2603424628	 2.3983522811	-0.113298
O	 1.2249641438	-0.6858738181	 3.342830687	-0.169383
C	 2.4132012806	-0.7550857491	 2.6814162302	 0.213365
N	 2.3359728556	-0.4138303024	 1.4274328977	-0.354503
C	 3.5480059137	-1.1743377543	 3.4069704323	 0.263153
C	 4.5127857044	-1.5322387828	 4.0293794529	-0.372367
H	-1.2475496732	 1.4754727026	 0.5579938396	 0.122085
H	-1.301647348	 0.9949658989	-1.1420427244	 0.120902
H	-1.5916021472	-0.2058353929	 0.1220001865	 0.122057
H	 0.7406851404	-0.4174510141	-0.8507546885	 0.125643
H	 1.0798735651	 1.2396199186	-0.4211182577	 0.125657
H	-0.6796689197	-0.1372364634	 2.7213129405	 0.148601
H	 5.3689200549	-1.8476556645	 4.5733078763	 0.203395
