21
gdb 94703	3.21446	1.23941	1.06172	0.5595	78.	-0.2239	0.0713	0.2953	1207.9056	0.182834	-424.216389	-424.207688	-424.206744	-424.249193	34.536	
C	-0.031178285	 1.4911930857	-0.0381394339	-0.443633
C	-0.0106901297	-0.0138099527	 0.0462596342	 0.441482
C	-0.8525107011	-0.7184715202	 1.0757532389	-0.352531
C	 0.6689280522	-0.7099351601	 1.2025478474	-0.104905
C	 1.4561666132	-1.9950711114	 0.9528085378	-0.232571
C	 1.7317421992	-2.2143041073	-0.5345351621	 0.102383
O	 2.1276546815	-3.5684812219	-0.6973231503	-0.429653
C	 0.477722825	-1.9005605903	-1.3557975173	-0.11667
O	 0.1145630135	-0.5362999129	-1.2569855138	-0.295041
H	 0.8967237315	 1.8643765453	-0.4833690835	 0.119972
H	-0.8657647752	 1.8263893067	-0.6626140469	 0.124693
H	-0.1443419148	 1.9333193174	 0.9551344754	 0.113278
H	-1.438416065	-0.1147057372	 1.760777161	 0.107689
H	-1.3162099143	-1.6629363104	 0.8106231104	 0.11393
H	 1.0773520181	-0.0603911841	 1.9706976607	 0.085495
H	 2.4050649621	-1.9707134804	 1.4960771623	 0.106582
H	 0.9081105627	-2.870339689	 1.3209788998	 0.112791
H	 2.5270958917	-1.5265491667	-0.8629889377	 0.071326
H	 2.4130520552	-3.6917011337	-1.6084438216	 0.283399
H	 0.659807309	-2.0806661158	-2.4212350763	 0.094945
H	-0.3394281199	-2.5703453009	-1.0438388547	 0.097037
