13
gdb 460	6.95109	3.605	2.72215	1.8411	49.49	-0.246	0.0261	0.2721	504.1131	0.109554	-286.510514	-286.504912	-286.503968	-286.539796	19.819	
C	-0.1875361387	 1.5483985282	-0.0015224394	-0.396727
C	 0.07229417	 0.0511345788	 0.0166833042	 0.113356
C	 0.9452326913	-0.4820790606	-1.1540812291	-0.192434
N	 2.1643700861	-1.0161526732	-0.5211874978	-0.262577
C	 1.9974828955	-0.8558646542	 0.7241073334	 0.122525
O	 0.8641487372	-0.2873843153	 1.1949494463	-0.230837
H	 0.7540120674	 2.1008437961	-0.0814498065	 0.129414
H	-0.8130444335	 1.8082348907	-0.8619794537	 0.122652
H	-0.7027820073	 1.8688477128	 0.9080091098	 0.130441
H	-0.8700079159	-0.4978928383	 0.1094746394	 0.094257
H	 0.4474514051	-1.2731170793	-1.7242119199	 0.117336
H	 1.2106716005	 0.3121861877	-1.8613440684	 0.113784
H	 2.7073449821	-1.1405681236	 1.4932744417	 0.138808
