17
gdb 82412	2.45284	1.8426	1.21309	4.6381	67.97	-0.2676	0.0119	0.2795	1022.8526	0.136174	-458.985824	-458.977912	-458.976968	-459.018586	29.592	
C	-0.0943253112	 1.5679763807	-0.0617483732	-0.39168
C	 0.3159896787	 0.0945793187	 0.043677719	-0.195479
C	 0.9500492416	-0.4238971607	-1.2276312886	 0.061313
O	 2.3698259144	-0.2354257216	-1.3516914708	-0.249543
C	 1.8676376671	-1.5534732237	-1.1375434624	 0.016321
C	 2.1166313748	-2.1559911561	 0.2218343457	-0.107366
O	 2.0160743771	-1.2238695126	 1.2963424729	-0.231422
C	 1.2157857691	-0.128698866	 1.2645794292	 0.437228
O	 1.2200490818	 0.6088801415	 2.2103462681	-0.320918
H	 0.7786996679	 2.1932634536	-0.2680473662	 0.141254
H	-0.8164993686	 1.7025470573	-0.8727703723	 0.109709
H	-0.5401925271	 1.9088890975	 0.8728786551	 0.145954
H	-0.5863056172	-0.5121350631	 0.2215899749	 0.115493
H	 0.3912329511	-0.2505079155	-2.1467928415	 0.102383
H	 1.9817756267	-2.2431650189	-1.9738119854	 0.107141
H	 1.4094717814	-2.9824015863	 0.3806905756	 0.121036
H	 3.1290367921	-2.5658313149	 0.2894192799	 0.138578
