18
gdb 64116	3.49365	1.00503	0.937	4.3431	81.33	-0.2654	-0.0439	0.2215	1297.5551	0.147224	-401.984879	-401.975971	-401.975027	-402.018414	33.486	
C	 0.1993201829	 1.4718662711	 0.0020269367	-0.44449
C	-0.1028273069	-0.0326431929	 0.0211544211	 0.373856
O	-1.5130072749	-0.2534411734	-0.0125060418	-0.464395
C	 0.5146031087	-0.7979566257	-1.1776093402	-0.262447
C	 1.7914277272	-1.4911940023	-0.6498192107	-0.321208
C	 1.5717599826	-1.4947350121	 0.8535150806	 0.201418
C	 0.5499622749	-0.709550289	 1.212079199	-0.211276
C	 2.4012198942	-2.2327549842	 1.7426478468	 0.202961
N	 3.0948378339	-2.8447246377	 2.4401747272	-0.334076
H	 1.2751132627	 1.660857079	-0.0632066198	 0.128251
H	-0.2922118121	 1.9348737813	-0.8590874182	 0.131823
H	-0.1669781986	 1.958986899	 0.913871871	 0.11198
H	-1.9290689226	 0.3405674287	 0.6217126608	 0.279253
H	-0.2179730286	-1.5460361097	-1.4898396321	 0.13141
H	 0.7091101945	-0.1435243511	-2.0301922957	 0.106898
H	 1.9274987803	-2.5000454356	-1.0501847051	 0.129149
H	 2.7016878542	-0.9313882539	-0.8970678157	 0.126334
H	 0.2233400775	-0.5361110415	 2.2314411061	 0.11456
