27
gdb 122009	2.16584	0.70869	0.56031	0.9451	94.41	-0.2458	0.0877	0.3334	2134.9538	0.249104	-390.705366	-390.693105	-390.692161	-390.744403	43.198	
C	 0.0700897001	 1.5700115856	 0.0502744309	-0.37872
C	 0.0215364498	 0.0396308192	 0.0484129774	-0.163957
C	-1.4056961133	-0.5158034601	 0.002312223	-0.162449
C	-1.4605269918	-2.0463330132	-0.0006092614	-0.188591
C	-2.8817596497	-2.6130562619	-0.0104818745	 0.140781
C	-2.887351906	-4.1401982403	-0.1316638817	-0.403266
O	-3.507511621	-2.1793925649	 1.1927721471	-0.256125
C	-4.9199616175	-2.2096150573	 1.1895681544	-0.033721
C	-5.4136250175	-1.591544937	 2.4878891636	-0.382574
H	 1.0998446956	 1.9395096764	 0.0873017111	 0.108277
H	-0.3991455906	 1.9819830206	-0.8503523697	 0.111024
H	-0.4627759525	 1.9805263669	 0.9152536988	 0.11336
H	 0.5907721589	-0.3439948871	-0.8091733869	 0.089517
H	 0.5296676786	-0.3437771335	 0.943272468	 0.09378
H	-1.975921396	-0.1448069613	 0.861202374	 0.10861
H	-1.9144715382	-0.1323382599	-0.8939463635	 0.082897
H	-0.9248855015	-2.4380825433	-0.8748386479	 0.087795
H	-0.943445197	-2.4377296389	 0.8856379452	 0.098964
H	-3.4287497886	-2.1841706913	-0.869058311	 0.057798
H	-3.9042798341	-4.5428238919	-0.137722084	 0.113843
H	-2.4020070013	-4.4531152541	-1.0617351761	 0.112238
H	-2.3470052343	-4.5882325584	 0.7085149366	 0.120686
H	-5.3087167427	-1.6484255986	 0.3228035518	 0.08275
H	-5.2958547195	-3.2410715124	 1.0982483756	 0.085884
H	-5.0361238159	-2.1536054305	 3.3469321881	 0.12539
H	-5.0672705648	-0.5579354875	 2.5775680956	 0.124089
H	-6.5073384991	-1.5974467152	 2.5228598456	 0.111723
