27
gdb 122882	3.72564	0.58847	0.58074	0.8865	94.24	-0.2474	0.0736	0.3209	2144.9581	0.248595	-390.700787	-390.688633	-390.687689	-390.738761	43.971	
C	 0.0476235453	 1.6062311177	-0.1130076266	-0.384016
C	 0.0130362221	 0.0899608875	-0.0167964463	-0.025834
O	 0.6556770613	-0.4485773196	-1.1517293104	-0.241751
C	 0.68030878	-1.8617721106	-1.1637262316	-0.073321
C	 1.3990831507	-2.3019315145	-2.4354146276	-0.196083
C	 1.5458871659	-3.8258418655	-2.6629572645	 0.257494
C	 0.1666219815	-4.5056623258	-2.7624876786	-0.400316
C	 2.2952010789	-4.029531139	-3.9932999478	-0.400122
C	 2.3618873173	-4.4781830529	-1.5302508556	-0.400317
H	 1.0804326191	 1.9641269391	-0.1521914329	 0.125316
H	-0.4652965755	 1.944475741	-1.0178950656	 0.125314
H	-0.4440418863	 2.0563896498	 0.754651796	 0.112173
H	 0.5165023317	-0.2501815673	 0.9049271346	 0.081617
H	-1.0291521294	-0.269857911	 0.0390764057	 0.081614
H	 1.1964102623	-2.2361210605	-0.2640860671	 0.083225
H	-0.3490598783	-2.2556867883	-1.1307866988	 0.083226
H	 0.8649464656	-1.8627608792	-3.2871465282	 0.097685
H	 2.3957825405	-1.8434933012	-2.4285107809	 0.097679
H	-0.4461900887	-4.0438627235	-3.5447468787	 0.108976
H	 0.2765098005	-5.567316066	-3.0100639865	 0.107488
H	-0.3904498062	-4.4464900583	-1.8221624062	 0.110584
H	 3.2874592193	-3.5662793695	-3.9630658775	 0.108425
H	 2.4293055469	-5.095245117	-4.2087881698	 0.105475
H	 1.7441767372	-3.5852980466	-4.8294355261	 0.108426
H	 1.8479574293	-4.4189214507	-0.5656688163	 0.110583
H	 2.5366216777	-5.5389153277	-1.7419001416	 0.107486
H	 3.3396679613	-3.9961600804	-1.419233161	 0.108975
