15
gdb 24240	4.0288	1.57377	1.22823	1.6036	70.08	-0.2156	0.0104	0.226	961.9536	0.115222	-420.630114	-420.623926	-420.622982	-420.660606	25.1	
C	-0.0681393638	 1.4937499576	-0.0049002363	-0.39303
C	 1.4238613976	 1.8883806727	-0.0190229807	 0.059292
O	 2.1776765898	 1.4707424833	 1.11633047	-0.250948
C	 2.2765812101	 0.6763235294	-0.0910442359	-0.143632
C	 1.3386654615	-0.4745056744	-0.1008305622	 0.272905
C	 0.0698157111	 0.0042375355	-0.0370710927	 0.316977
O	-0.8356609288	-0.9881193092	 0.0692979132	-0.194801
C	-0.1060910207	-2.1525677344	 0.0482589127	-0.011378
C	 1.2302909804	-1.9004997997	-0.0488041741	-0.37031
H	-0.570209545	 1.8666390775	 0.8947218247	 0.138464
H	-0.5933728202	 1.9063663783	-0.8749296563	 0.121694
H	 1.7145445964	 2.8446070166	-0.4458700394	 0.100346
H	 3.2577531594	 0.6620038327	-0.5540217279	 0.099995
H	-0.6859486561	-3.0588186516	 0.1012289512	 0.136545
H	 2.0129859482	-2.6422818442	-0.0772207562	 0.117881
