19
gdb 80294	2.4193	1.56251	1.27907	4.0003	75.21	-0.2275	0.0552	0.2827	1080.378	0.160004	-419.251144	-419.24236	-419.241416	-419.284109	33.661	
C	-0.0502664385	 1.5580112177	 0.0636344257	-0.438901
C	 0.0433537133	 0.0504645286	 0.0690009583	-0.071702
C	 1.3307563154	-0.715957586	-0.22236385	-0.073046
N	 2.5953258936	-0.0614349457	-0.0577048812	-0.333578
C	 2.7322176352	 0.4644334691	 1.2250359474	 0.409459
O	 3.5737149393	 1.2478456508	 1.6037018679	-0.410142
N	 1.706408399	-0.092728283	 1.9794343033	-0.380689
C	 0.7259779358	-0.7633615846	 1.1659502011	 0.309292
C	 0.0795623684	-1.9823490925	 1.7729671415	-0.465441
H	 0.8440086416	 2.0335067728	 0.4730812424	 0.144303
H	-0.1874786299	 1.9352697214	-0.9556266937	 0.121645
H	-0.9048597607	 1.8967120218	 0.6593208219	 0.121485
H	-0.8326324045	-0.4534530874	-0.3337179489	 0.086535
H	 1.3146856114	-1.5791817603	-0.8795304674	 0.102196
H	 3.0462854609	 0.4392900868	-0.8063552917	 0.254198
H	 1.4773397394	 0.3489245605	 2.8550630306	 0.250942
H	-0.5638056793	-1.7081431456	 2.6174929718	 0.120509
H	-0.5457381119	-2.4969735934	 1.0380082742	 0.121612
H	 0.8376028014	-2.682445851	 2.1379923867	 0.131321
