18
gdb 91277	2.93876	1.43451	1.20173	3.7094	71.99	-0.2428	0.03	0.2728	1074.971	0.148977	-439.123062	-439.115191	-439.114247	-439.155788	30.178	
C	-0.7980417214	 1.3461534817	 0.0265631937	-0.415441
C	-0.0242232026	 0.0499827372	-0.0488269447	 0.152752
O	 1.1582755865	 0.1455275119	-0.8848604408	-0.310945
C	 1.9810399751	-0.5156427502	 0.1006345749	 0.122471
C	 3.131267588	 0.3455123478	 0.599342253	-0.355088
C	 2.557443967	 1.118329273	 1.7952053743	 0.398141
O	 3.0879311643	 2.007800307	 2.4184902339	-0.367868
N	 1.313204155	 0.5902391981	 2.0586063398	-0.290037
C	 0.8424824102	-0.4231879175	 1.1528171816	-0.093835
H	-0.1827476391	 2.1463958948	 0.4454290162	 0.13216
H	-1.1168997661	 1.6454884349	-0.9764022169	 0.135745
H	-1.6941132611	 1.2248264101	 0.6452452522	 0.115775
H	-0.6704938075	-0.7660595813	-0.4045519631	 0.074117
H	 2.2707216475	-1.5200608408	-0.2229703433	 0.083559
H	 3.9896153822	-0.2443568602	 0.936387765	 0.129712
H	 3.4783287742	 1.0393206791	-0.1693879327	 0.148352
H	 0.7615249941	 0.9689660862	 2.8123100623	 0.252559
H	 0.5094452137	-1.3276277518	 1.6675461345	 0.08787
