17
gdb 98432	2.64535	1.23122	0.96865	3.4288	66.94	-0.2486	-0.0386	0.2099	1218.5736	0.132665	-496.090176	-496.080936	-496.079992	-496.124051	34.701	
O	 0.0585137121	 1.3737325595	-0.0821299863	-0.421645
C	 0.0249243985	-0.0211215945	-0.078922359	-0.12721
C	-1.397061508	-0.5381017817	 0.0465382278	 0.310453
O	-2.3226585375	 0.2666118522	 0.1012405135	-0.393901
C	-1.6251733084	-1.9946757236	 0.0441363728	 0.196426
O	-0.5004034115	-2.8090331669	-0.1015877695	-0.451628
C	-2.8415980452	-2.5322065599	 0.8078202295	-0.375919
C	-2.9126415916	-2.4629088055	-0.678683328	 0.132812
O	-3.7313262704	-1.587896069	-1.3517763443	-0.413541
H	-0.8690581945	 1.6545965041	-0.0346554903	 0.294788
H	 0.4609481294	-0.447391961	-0.9962124728	 0.136899
H	 0.6201962269	-0.4332424057	 0.7527169785	 0.107502
H	-0.1457703348	-3.0060707427	 0.7732088891	 0.292154
H	-2.7055559805	-3.5028702011	 1.2729647459	 0.128735
H	-3.4055373638	-1.8014820846	 1.3782935983	 0.141477
H	-2.7692980675	-3.3860201867	-1.230371781	 0.135377
H	-3.6757174632	-0.7286289629	-0.9016974742	 0.307224
