20
gdb 84838	2.22823	1.8672	1.23814	1.4466	80.01	-0.2253	0.0089	0.2343	1069.1378	0.171388	-403.131476	-403.123017	-403.122073	-403.163953	33.535	
C	-0.4335639966	 1.3819210965	 0.1044923744	-0.462028
C	-0.027433881	-0.0722082468	 0.0036663146	 0.312119
C	-0.6488692205	-1.0869291086	 0.908588062	-0.299371
N	 0.7080525866	-0.6039456454	 1.1596094421	-0.14125
C	 1.8057793075	-1.5496142787	 0.9381962456	-0.204353
C	 1.8104612128	-2.2568986814	-0.3900540718	-0.075173
C	 1.139470407	-1.7960835476	-1.4428055964	-0.100287
C	 0.3361332871	-0.5263468831	-1.4107399641	 0.019374
O	-0.8271371984	-0.6151668535	-2.2370147417	-0.432629
H	 0.4078368604	 2.0364397238	-0.1504978492	 0.116077
H	-1.2505424883	 1.5933126569	-0.5922672723	 0.129386
H	-0.7554656439	 1.6264827662	 1.1193893277	 0.119939
H	-1.3952367468	-0.7818257006	 1.6378036514	 0.111506
H	-0.7673429571	-2.1018519407	 0.5321717868	 0.10411
H	 2.747117933	-0.9953034603	 1.0634294589	 0.121361
H	 1.7810518561	-2.2816784328	 1.755613034	 0.113954
H	 2.3975715078	-3.1694543777	-0.4642221419	 0.09343
H	 1.1555120096	-2.3112982599	-2.3995245633	 0.09891
H	 0.9223242454	 0.2746819349	-1.8829075503	 0.098393
H	-1.3994416507	-1.2852709414	-1.8459984167	 0.276532
