18
gdb 74722	2.46016	1.73511	1.21382	3.9652	81.93	-0.2372	0.0014	0.2386	1054.1751	0.148681	-364.806381	-364.798536	-364.797592	-364.838539	30.718	
C	-0.0645104846	 1.4601290672	 0.0497216862	-0.515519
C	-0.0183014417	-0.0249721531	-0.017306151	 0.310635
C	-0.0247364291	-0.8926156203	-1.0332250608	-0.202744
C	 0.043527483	-2.2682983156	-0.3567006035	-0.090331
C	-0.9941051433	-2.0675631311	 0.7980614365	-0.239668
C	 0.0547043269	-0.9695986576	 1.2164449023	 0.131116
C	 1.1421013919	-1.9975520269	 0.7251168545	-0.23966
C	 0.0807149604	-0.3866661595	 2.5381976113	 0.156718
N	 0.1019397279	 0.0788198653	 3.5968295933	-0.35287
H	 0.8183954795	 1.8653002647	 0.5592093095	 0.14219
H	-0.1131322881	 1.8947490377	-0.9521368322	 0.129145
H	-0.9349302103	 1.8080196879	 0.6194593451	 0.142188
H	-0.0674608571	-0.697938992	-2.0954126984	 0.107032
H	 0.051618961	-3.1619957595	-0.9772639289	 0.075405
H	-1.9911774413	-1.7136539285	 0.5313380963	 0.11064
H	-1.0411728266	-2.9001961562	 1.5054019089	 0.112539
H	 1.2916112125	-2.8237264474	 1.4257639572	 0.112542
H	 2.0933971391	-1.5797985149	 0.3918513637	 0.110643
