17
gdb 34845	2.68514	1.6364	1.49802	1.2873	77.08	-0.2381	0.0013	0.2394	961.2349	0.136676	-384.637876	-384.630582	-384.629638	-384.669338	29.474	
C	-0.1394847521	-1.2985094619	-0.2092741236	-0.455756
C	-0.0574394929	-0.1029689557	-0.1066910842	 0.327711
C	 0.0143724027	 1.3338998443	 0.0221477413	-0.205994
C	-0.116495331	 2.0483611817	 1.4034366824	 0.074085
C	 0.6159569141	 1.3009779342	 2.5257203735	-0.276035
C	 2.0239562544	 0.9784564549	 2.0704158433	-0.04882
C	 2.4047184846	 1.3563098632	 0.8508443687	-0.05873
C	 1.3753645482	 2.1096809388	 0.039900629	 0.032644
O	 0.7425681537	 3.105073525	 0.8994294947	-0.297163
H	-0.2042242876	-2.3540668251	-0.3050198547	 0.195869
H	-0.6622560475	 1.8239677103	-0.6828702983	 0.11611
H	-1.1021431493	 2.4161858204	 1.6988636837	 0.08362
H	 0.6340963705	 1.9237032369	 3.4293968718	 0.117493
H	 0.0738367951	 0.3825185518	 2.7857945092	 0.120364
H	 2.6832930912	 0.4452874227	 2.7484926501	 0.097036
H	 3.3840331949	 1.1445281841	 0.4369819702	 0.094028
H	 1.7450459611	 2.5393115745	-0.892338637	 0.083538
