22
gdb 6550	2.98803	1.56095	1.37829	1.4006	78.09	-0.2598	0.0652	0.3251	1055.8218	0.197938	-350.200753	-350.191051	-350.190107	-350.234387	37.026	
C	-1.8227023026	 0.1881331521	 1.4347636053	-0.431885
C	-0.6876839751	-0.0059275995	 0.4474371232	-0.010398
C	 0.0954437688	 1.1701429085	-0.0903326651	-0.311201
C	 0.7904170452	 0.1341861653	 0.7545165855	 0.012774
C	 1.4130484707	 0.4697081342	 2.1129229545	 0.315569
C	 1.5351178522	-0.8012286445	 2.9661243161	-0.427933
C	 2.7903942122	 1.1065014833	 1.8935637784	-0.383804
O	 0.6570685435	 1.4594094847	 2.8231701048	-0.460416
H	-1.7068279663	 1.1060746682	 2.0146295124	 0.124244
H	-2.7756517769	 0.265399534	 0.8994373834	 0.117242
H	-1.9130154503	-0.6550017933	 2.1308776181	 0.109269
H	-0.898264824	-0.7873678123	-0.2797174807	 0.080041
H	 0.3164619792	 1.2301783869	-1.150632692	 0.10207
H	-0.0896803643	 2.1257068537	 0.3899076668	 0.123121
H	 1.4141305372	-0.5670053522	 0.2032344419	 0.073801
H	 2.1500678876	-1.5559285247	 2.4659494491	 0.115835
H	 1.992858499	-0.568878811	 3.9326918864	 0.117544
H	 0.5497496706	-1.2472959289	 3.1444283776	 0.110891
H	 2.686085164	 2.0405598338	 1.3353627648	 0.124303
H	 3.2610667121	 1.3298075708	 2.8553122285	 0.113023
H	 3.4464293884	 0.437143983	 1.3291527993	 0.106394
H	-0.0687035312	 1.0123221478	 3.2680728317	 0.279514
