24
gdb 100915	1.78208	1.1275	1.0472	3.8807	86.47	-0.2351	0.032	0.2671	1426.6619	0.2154	-405.585554	-405.574219	-405.573274	-405.622979	40.3	
C	 0.0287643789	 1.5572648819	 0.0626406685	-0.390287
C	 0.077759392	 0.028631028	 0.0214782809	-0.164405
C	 0.6432638509	-0.547402168	-1.2917863562	 0.022172
C	 0.8136735181	-2.0726711782	-1.2184187014	-0.397353
N	-0.1284598971	-0.1243434733	-2.4751120337	-0.037589
C	 0.5108964294	 0.7052914879	-3.4957521182	-0.161548
C	 1.4244756627	-0.0831558458	-4.4385658745	-0.378571
C	-1.4149473552	-0.5246030123	-2.6685543055	 0.147606
O	-2.1052032834	-0.2465646662	-3.6311969779	-0.355534
H	 1.0290897087	 1.9897022371	-0.0537913935	 0.112564
H	-0.6042373696	 1.9565867188	-0.7353288027	 0.132226
H	-0.3748387077	 1.9097847106	 1.0163225484	 0.117931
H	 0.701641168	-0.3436474219	 0.8433659725	 0.099237
H	-0.9250057942	-0.3812406697	 0.1941125559	 0.103207
H	 1.638598812	-0.1120977393	-1.4361463647	 0.090261
H	-0.1379103705	-2.5763607633	-1.0224559771	 0.124973
H	 1.2166524469	-2.4653043686	-2.1557841391	 0.125687
H	 1.5013582846	-2.3379479036	-0.4092615015	 0.118577
H	-0.2952931184	 1.1715184117	-4.0651293705	 0.144489
H	 1.0752440292	 1.4988348432	-2.992878485	 0.103572
H	 2.241418825	-0.572728752	-3.8978672279	 0.114164
H	 0.8537612685	-0.8501716186	-4.9693078601	 0.138023
H	 1.8703255797	 0.5875055345	-5.1801410545	 0.118246
H	-1.7936480686	-1.1463822329	-1.835729382	 0.072353
