23
gdb 122657	5.28191	0.64243	0.59592	0.9758	89.27	-0.2368	0.0263	0.2631	1926.6652	0.205804	-388.293859	-388.28402	-388.283076	-388.329681	35.546	
C	 0.0860674399	 1.4135979403	-0.1014249929	-0.22688
O	 0.0552678306	 0.0088745027	-0.0601054661	-0.22893
C	-1.2549444952	-0.510566238	 0.0200870664	-0.057219
C	-1.1708034656	-2.0308437123	 0.0674484402	-0.208757
C	-2.5396066453	-2.7273918686	 0.1030644261	-0.016113
C	-2.438604959	-4.2731015183	-0.0226069989	-0.228433
C	-3.5675655192	-4.8493599779	 0.8673531026	-0.255452
C	-3.8733820416	-3.7027220114	 1.8020571905	-0.068529
C	-3.3250536961	-2.5614172676	 1.3900569438	-0.060834
H	 1.1339251266	 1.7183178462	-0.1621144211	 0.124958
H	-0.4499931003	 1.8107631286	-0.9788036975	 0.100644
H	-0.3615442045	 1.8611926144	 0.8008974889	 0.100779
H	-1.7649320937	-0.1147595948	 0.9153746666	 0.083494
H	-1.8490041782	-0.1873715245	-0.8537076033	 0.081062
H	-0.6144327584	-2.3657960717	-0.8164553465	 0.103292
H	-0.5810625322	-2.3281169067	 0.9429614641	 0.103673
H	-3.1392470739	-2.327095712	-0.7311185306	 0.072649
H	-2.4935828623	-4.6136479538	-1.059920174	 0.094848
H	-1.467821958	-4.5939635082	 0.3719364968	 0.102843
H	-4.4578713946	-5.1146443645	 0.2791201291	 0.103923
H	-3.2658844852	-5.7631829366	 1.3916717824	 0.101487
H	-4.5034943176	-3.8134440414	 2.6781550253	 0.088842
H	-3.4453841063	-1.6023140641	 1.8824671181	 0.088652
