21
gdb 122690	3.71602	0.82542	0.76065	1.3472	75.49	-0.2483	0.0738	0.3221	1551.0998	0.182624	-461.350432	-461.34096	-461.340016	-461.386538	33.854	
O	-0.1430946908	 1.4294015579	-0.3088553608	-0.420558
C	 0.0059712365	 0.0369896343	-0.496917892	-0.057471
C	-1.2991830389	-0.7012073156	-0.2403149441	-0.082107
O	-2.2474644312	-0.1748965979	-1.1535868599	-0.278481
C	-3.591194529	-0.5853764695	-0.9361683455	 0.104199
C	-4.4888842296	 0.2839761899	-1.8211913628	-0.243658
C	-4.4286941986	-0.4713130242	-3.1503792821	-0.062506
O	-4.4254196252	-1.8501705676	-2.7914347805	-0.260092
C	-3.871958075	-2.0004177464	-1.4863756855	-0.078835
H	-0.9291679924	 1.6745086901	-0.8111104978	 0.286862
H	 0.3557427254	-0.1984870298	-1.5148333892	 0.094685
H	 0.7688154198	-0.3080911733	 0.2086567796	 0.108864
H	-1.1613297106	-1.7851139066	-0.3766627567	 0.09118
H	-1.63491394	-0.5237680304	 0.7938394029	 0.09667
H	-3.8299629445	-0.5060404869	 0.1331704606	 0.071906
H	-5.5099812176	 0.2842876349	-1.4277776875	 0.110306
H	-4.1276738505	 1.3125467678	-1.8751316546	 0.109264
H	-5.2902291213	-0.2927500743	-3.8000058726	 0.106596
H	-3.5132924935	-0.2103803397	-3.7018339476	 0.100648
H	-2.9490852451	-2.5925837471	-1.5324696838	 0.102795
H	-4.5917949279	-2.5399946356	-0.8570379602	 0.099734
