17
gdb 110693	2.85534	1.27265	1.17395	2.6714	74.45	-0.2384	-0.0524	0.186	1108.4849	0.136502	-421.83311	-421.825108	-421.824164	-421.86611	30.2	
O	-0.0416832077	 1.3108018453	-0.4847094136	-0.422438
C	 0.034630719	 0.0358470642	 0.1403799704	-0.113196
C	-1.3349440405	-0.584577956	 0.05862169	 0.001691
C	-1.8942738116	-1.3017929098	-1.1617673067	-0.099752
C	-0.9097548132	-1.7891080809	-2.1708371724	-0.056695
C	-0.0977629862	-2.7338097556	-1.6734550469	-0.204751
C	-0.4586476665	-3.0215096974	-0.2558190943	 0.389882
O	 0.0366650534	-3.8500283758	 0.4730074176	-0.337321
C	-1.601320955	-2.0827706279	 0.0955589579	-0.204546
H	 0.7939611338	 1.7641587321	-0.3384791195	 0.288966
H	 0.7883996044	-0.6004233455	-0.34120531	 0.099508
H	 0.312559826	 0.1259513748	 1.2020253534	 0.09852
H	-2.082230341	 0.0006949927	 0.5894486918	 0.108185
H	-2.9025271298	-1.0567288917	-1.4740252679	 0.103358
H	-0.8550062918	-1.3715931924	-3.1698890701	 0.121248
H	 0.7295249231	-3.2206159674	-2.1731160841	 0.115987
H	-2.3678421862	-2.4515631687	 0.7653003346	 0.111354
