18
gdb 106481	2.60481	1.74133	1.30506	2.5546	72.98	-0.2483	0.0272	0.2755	1013.0351	0.148508	-439.065105	-439.057322	-439.056378	-439.097288	30.34	
C	 0.0022028309	 1.3769298047	 0.110621467	-0.273605
O	-0.0841336507	-0.036805117	-0.0490194111	-0.292938
C	 0.5907399556	-0.5418712818	-1.1280113507	 0.332491
C	 2.1669075556	-0.5233383143	-1.3112510369	-0.303633
C	 1.7939544571	-1.6478557097	-2.2977317498	 0.082414
C	 0.690107803	-2.0898962997	-1.3141529942	-0.287487
O	 1.0331654655	-0.9273548712	-3.3210961911	-0.254684
C	 0.1921471655	-0.1592099662	-2.5501748243	 0.390619
N	-0.6837706441	 0.652625428	-2.9472600524	-0.581066
H	 1.0461620881	 1.695481209	 0.2411962599	 0.106425
H	-0.436349145	 1.8984805216	-0.7445602636	 0.156384
H	-0.5555414037	 1.6163736333	 1.0177694053	 0.128813
H	 2.642242646	 0.3666876154	-1.7272061952	 0.115915
H	 2.6831751737	-0.8791015058	-0.4183291495	 0.116066
H	 2.5034783546	-2.314979371	-2.7779864161	 0.100145
H	 1.074606741	-2.5818919543	-0.4197499755	 0.117728
H	-0.1735483095	-2.6160344253	-1.7242221256	 0.121207
H	-0.7151491934	 0.6840471242	-3.9683138461	 0.225208
