19
gdb 47925	2.18191	1.72015	1.18813	4.8378	72.15	-0.2577	0.0165	0.2742	1087.5107	0.161035	-460.190267	-460.182271	-460.181326	-460.222879	30.786	
O	-0.0144949496	-0.0414324477	 0.4085567257	-0.320529
C	-0.0294384739	 1.1146321588	 0.0858302149	 0.417084
C	-1.3290351623	 1.9128066055	 0.0002064964	-0.335366
C	-2.0140840551	 1.8438667259	-1.3793219676	-0.190481
C	-1.2691366605	 2.565036616	-2.5009832722	-0.081571
O	-0.0019622095	 1.9634724118	-2.7325524164	-0.236249
C	 1.1301905466	 2.7168998848	-2.3638251143	-0.075264
C	 1.2347788915	 2.9639252962	-0.8575160287	-0.101911
O	 1.1604984222	 1.7410851659	-0.1358178682	-0.217405
H	-1.9842990525	 1.4418281972	 0.7359359475	 0.136831
H	-1.1922001113	 2.9552282659	 0.30491047	 0.111108
H	-2.1323257623	 0.7917470651	-1.6601518966	 0.134145
H	-3.0207836309	 2.2705358025	-1.2957276819	 0.102354
H	-1.844805347	 2.4872339992	-3.4315797163	 0.111894
H	-1.1605526646	 3.6361021275	-2.27583658	 0.090676
H	 1.990040041	 2.1265827899	-2.6937846756	 0.128878
H	 1.1592929496	 3.6893454407	-2.883176441	 0.09379
H	 2.2145946319	 3.3924220268	-0.6265151934	 0.12471
H	 0.4763843266	 3.6767238482	-0.5172928324	 0.107304
