19
gdb 78427	5.06198	1.21961	1.194	1.3091	78.57	-0.2386	0.0826	0.3212	1081.2868	0.161603	-385.820128	-385.813413	-385.812469	-385.850795	28.659	
O	-0.1226942208	 1.41908689	-0.0092600276	-0.437006
C	-0.0010590168	 0.025824954	-0.0015232858	 0.074179
C	-0.4199907246	-0.7112100301	 1.2555884298	-0.124904
C	-1.3098106186	-0.7100667593	 0.0226994749	-0.080931
C	-1.3004584815	-2.1909063575	-0.3301618292	-0.023309
C	 0.1278358351	-2.7829501502	-0.0783080583	-0.064843
C	-0.5080059504	-4.1147051111	 0.3768906196	-0.255834
C	-1.3855872873	-3.0150839978	 1.0094514136	-0.049252
C	-0.087426967	-2.1933366634	 1.3577436899	-0.021824
H	 0.6173347358	 1.7828578249	 0.488117537	 0.284992
H	 0.8223778452	-0.361239645	-0.600802731	 0.084361
H	-0.6631994343	-0.128816523	 2.1369621169	 0.085063
H	-2.2209729313	-0.1263736127	-0.0302588788	 0.093567
H	-1.8635519678	-2.5331753257	-1.2002464333	 0.063476
H	 1.0079112671	-2.6606837466	-0.7120284671	 0.068684
H	-0.9694126382	-4.7289538298	-0.4017419125	 0.088897
H	 0.0824516329	-4.7309732843	 1.0610957047	 0.08805
H	-2.2671024495	-3.135872297	 1.6429398878	 0.065948
H	 0.5574511818	-2.5401979454	 2.1674366692	 0.060687
