17
gdb 94668	3.72278	0.90807	0.79755	6.5674	65.95	-0.2616	0.0169	0.2785	1398.5556	0.134005	-496.08778	-496.078516	-496.077572	-496.123274	31.827	
O	 0.2189231594	 1.27854709	-0.1423249918	-0.423598
C	-0.0079572689	-0.089133236	 0.0985545921	 0.042617
C	-0.5138498022	-0.5028531456	 1.5007079506	-0.100573
O	-1.7371602784	-1.0322321639	 0.9412739857	-0.28983
C	-1.3962640523	-0.5645106187	-0.3844820518	 0.10771
C	-2.3462217111	 0.5211543231	-0.8624574005	-0.100176
O	-3.6402085912	-0.0412721104	-1.0977100669	-0.185719
C	-4.5137343422	-0.0411412815	-0.0669657056	 0.181745
O	-5.5929808472	-0.5446674327	-0.1456825544	-0.277385
H	 1.1142037018	 1.4998438725	 0.1307480361	 0.295907
H	 0.8173663067	-0.706745825	-0.273375394	 0.090557
H	 0.0577437818	-1.2729010491	 2.0304144018	 0.109703
H	-0.6926254925	 0.3508833748	 2.1663572689	 0.107897
H	-1.3955577789	-1.3922892209	-1.102794816	 0.098989
H	-2.4021490897	 1.3334365292	-0.130742909	 0.124896
H	-2.0088671063	 0.9381083984	-1.8140633657	 0.134195
H	-4.1239572087	 0.4801746759	 0.8256525106	 0.083065
