10
gdb 4214	6.11303	2.84218	1.94013	3.4815	49.41	-0.269	-0.054	0.2149	581.0486	0.069183	-363.519194	-363.514378	-363.513434	-363.547867	17.709	
F	 0.0010522203	 0.0747148048	 0.0034864988	-0.053378
C	-0.0168445996	 1.3926800458	 0.0107177303	 0.358716
N	-1.2179351437	 1.9439352762	 0.0295622796	-0.295465
C	-1.2229155493	 3.2794582725	 0.0364307587	 0.021279
C	-0.0526601887	 4.0298147016	 0.0245769488	-0.136999
C	 1.1375393225	 3.3116805636	 0.0049268276	 0.021279
N	 1.1688300802	 1.9765183466	-0.0022911166	-0.295464
H	-2.2003835767	 3.7551282645	 0.0519599862	 0.13094
H	-0.0673537795	 5.1118747818	 0.0303003437	 0.118152
H	 2.1017262647	 3.8138586427	-0.0054551172	 0.13094
