20
gdb 101043	2.36164	1.09613	0.97099	3.0293	70.72	-0.256	0.0542	0.3102	1315.3018	0.170327	-477.374236	-477.364403	-477.363458	-477.409169	36.537	
O	-3.7623770602	 0.9362220394	 0.1515782778	-0.422268
C	-3.1333182121	-0.2247821152	-0.3406297411	-0.095439
C	-2.1704586044	-0.7869477824	 0.7129704265	 0.023787
O	-2.861998658	-0.8757825136	 1.9688013827	-0.43995
C	-1.4889610993	-2.1091874048	 0.3941482906	 0.264677
C	-0.2603687443	-2.375990217	 1.2479609413	-0.108341
O	 0.8026190617	-1.5165050017	 0.8793621211	-0.420336
C	-2.2616721968	-3.2646454317	-0.1391491523	-0.298911
N	-1.2890328379	-2.562770567	-0.9972777678	-0.364349
H	-3.9350455637	 0.7534102056	 1.0854297596	 0.287553
H	-3.8803670309	-0.9887470329	-0.6245520273	 0.076626
H	-2.5884934067	 0.0615236877	-1.2475264703	 0.109556
H	-1.3897370792	-0.0388011342	 0.8858709032	 0.120127
H	-3.4214739638	-1.6613463919	 1.9346919024	 0.282461
H	-0.4832367278	-2.1675118512	 2.2985360502	 0.121909
H	 0.0274700544	-3.4333682932	 1.1558570026	 0.088562
H	 0.9711339544	-1.690579386	-0.0548019649	 0.290839
H	-1.9789200118	-4.2748552125	 0.1443873173	 0.125616
H	-3.3195645575	-3.1400100423	-0.3554482528	 0.116433
H	-1.7820918762	-1.9638793551	-1.653731949	 0.241448
