18
gdb 75531	2.15507	1.71936	1.01391	2.6792	75.3	-0.253	-0.0133	0.2397	1168.5095	0.147675	-439.136331	-439.127753	-439.126809	-439.170001	31.565	
C	 0.0336455707	 1.4019379103	 0.4842173924	-0.429847
C	-0.0929776087	 0.0124778766	-0.0773588222	 0.383364
N	-1.020160473	-0.7552150073	 0.2775051233	-0.272578
C	-1.3259117752	-2.1004817365	-0.1485880524	-0.148722
C	-0.4929428013	-2.7409171608	-1.2595748514	-0.232478
C	 1.0139894847	-2.6128649677	-0.9853048082	-0.328279
C	 1.5490666041	-1.2884516741	-1.4685857278	 0.411071
O	 2.4569774908	-1.1614636438	-2.2381446405	-0.29824
O	 0.9351091411	-0.1430816317	-1.018336368	-0.255542
H	 1.0006999632	 1.5205750055	 0.9835389987	 0.140996
H	 0.0014160168	 2.1375206281	-0.3255198009	 0.146632
H	-0.7744850517	 1.5892022056	 1.1893567228	 0.142579
H	-1.2570118717	-2.7289948467	 0.7508928665	 0.120261
H	-2.387566823	-2.1126707646	-0.4257488925	 0.121552
H	-0.7648270899	-3.7996371003	-1.3254065662	 0.112789
H	-0.7330085872	-2.2971086694	-2.2324776681	 0.120006
H	 1.2092580165	-2.7158286902	 0.0898861581	 0.129676
H	 1.5919658537	-3.3787758529	-1.5040832436	 0.136759
