15
gdb 48370	2.72111	1.26469	1.04701	2.1818	81.49	-0.2476	-0.0395	0.2081	1158.7255	0.108412	-383.416876	-383.407747	-383.406802	-383.450611	33.558	
O	-0.2932077053	 0.3640356762	-0.7261042873	-0.250763
C	 0.0819812575	 1.093120936	 0.1554815665	 0.090712
C	 1.3376186571	 1.916203651	 0.0839394643	 0.030371
C	 2.3253636247	 1.5559246526	-1.0140002405	-0.30978
C	 1.5280969088	 2.8078257619	-1.1995458034	-0.243877
C	 0.4990110423	 2.9198513646	-2.1860250058	 0.34902
C	-0.3524899949	 3.053711869	-3.0237868222	-0.429039
C	 1.8037520436	 2.4607937304	 1.324787534	 0.220423
C	 2.1676290608	 2.9038646976	 2.3822702067	-0.394719
H	-0.4849184678	 1.2157806692	 1.1006218764	 0.095585
H	 3.3778891721	 1.6514345113	-0.7781953998	 0.139128
H	 2.0333594471	 0.6992591124	-1.6102608611	 0.159199
H	 2.0408474599	 3.7353419262	-0.9641039741	 0.139376
H	-1.1078298083	 3.1536627625	-3.7634552669	 0.204175
H	 2.4965985724	 3.295186099	 3.3131630233	 0.200191
