15
gdb 81523	3.72066	1.29831	1.08338	1.413	66.48	-0.2716	0.0002	0.2719	1064.5202	0.112603	-453.872761	-453.865039	-453.864095	-453.90471	29.97	
O	 0.1802594307	 1.4108699558	-0.1064039743	-0.445779
C	 0.1004074509	 0.0344199481	-0.0504166109	 0.189657
C	 0.0062118057	-0.6506067569	 1.3547003377	-0.147881
N	-1.3711239295	-0.0238607565	 1.4468580691	-0.371294
C	-1.317721335	-0.6276737457	 0.054336747	-0.116529
C	-0.6261858247	-1.8941809642	 0.6309054716	 0.313375
O	 0.116109392	-2.6570085135	-0.2782223509	-0.466967
C	-1.4599761713	-2.7474876403	 1.4883172766	 0.213124
N	-2.0727103689	-3.4615295371	 2.160920647	-0.335331
H	-0.4566988086	 1.7359621227	 0.547960549	 0.296142
H	 0.7932766195	-0.3989159597	-0.7660080945	 0.12083
H	 0.7064999267	-0.6398235762	 2.1906930619	 0.102609
H	-1.9878121347	-0.5589796982	 2.0638537713	 0.238382
H	-2.1629750974	-0.588635091	-0.6324769649	 0.108133
H	 0.5989999447	-3.3401930673	 0.2007549744	 0.30153
