23
gdb 89154	2.14577	1.56416	1.28861	1.4689	85.41	-0.2344	0.0792	0.3137	1168.9382	0.20448	-388.279504	-388.269988	-388.269043	-388.313291	36.811	
C	 0.3467216273	 1.5590586918	-0.1583090217	-0.416315
C	 0.1233302052	 0.0780349426	 0.0646604886	 0.159898
O	 0.9291933266	-0.763000122	-0.8057142389	-0.35306
C	 1.2675736726	-1.658201719	 0.2904063609	 0.453257
C	 0.8286003191	-3.0756328733	 0.0245467994	-0.478252
C	 2.6893932756	-1.3734382028	 0.8543840197	-0.007499
C	 3.7784874692	-0.9656481706	-0.125927086	-0.408409
C	 2.0728698327	-0.2814581002	 1.789437047	-0.261507
C	 0.6426097945	-0.6587982049	 1.3137382281	-0.158149
H	 1.3901513385	 1.8441093437	-0.0026000898	 0.123084
H	 0.0753851914	 1.8240974154	-1.1852994398	 0.127021
H	-0.2820569081	 2.1455844368	 0.5205441885	 0.115069
H	-0.9419319895	-0.1505993643	-0.0964750115	 0.068987
H	 1.3821554468	-3.4897750951	-0.8262111236	 0.126599
H	 1.0154300162	-3.7132511254	 0.8947569408	 0.113214
H	-0.237978357	-3.1182457686	-0.2168814929	 0.120088
H	 3.0211116274	-2.2328667931	 1.448692011	 0.063592
H	 3.4185926085	-0.1730065066	-0.7871077761	 0.129216
H	 4.665754213	-0.603093373	 0.4044554422	 0.107526
H	 4.087865855	-1.8086919236	-0.7537660468	 0.111434
H	 2.2432309825	-0.4578402378	 2.8538129409	 0.098833
H	 2.3822402667	 0.7431429221	 1.5672766035	 0.098232
H	-0.0855713842	-0.9361376019	 2.0759042666	 0.067142
