22
gdb 104307	2.74141	1.32664	1.26377	2.6961	81.63	-0.2357	0.0738	0.3095	1161.7317	0.194285	-404.336729	-404.327672	-404.326728	-404.370081	35.2	
C	 0.0882914498	 1.4817387507	-0.2370415068	-0.391126
C	-0.0311181451	-0.025104434	 0.0105363076	-0.199383
C	-1.4709401805	-0.545195286	 0.1238035758	 0.402516
C	-2.2241544866	 0.0207399444	 1.3358802314	-0.434748
O	-2.1546660493	-0.1783210071	-1.0938409972	-0.303366
C	-3.0644181331	-1.1958225277	-1.4931971059	-0.086685
C	-2.5517124627	-2.4733384076	-0.8652109458	-0.053141
N	-1.1127833405	-2.6844134098	-1.1295826206	-0.337823
C	-1.5470863955	-2.0696122078	 0.1405209531	-0.10122
H	 1.1354723006	 1.7628978363	-0.3862020494	 0.10611
H	-0.4722949396	 1.7673584269	-1.1306296139	 0.136271
H	-0.2911746646	 2.0712439051	 0.6039797138	 0.107797
H	 0.4384078462	-0.5722925458	-0.8122210008	 0.119544
H	 0.5060611235	-0.2984937293	 0.928240423	 0.081071
H	-2.3269809869	 1.1046778807	 1.2492525477	 0.128701
H	-3.2284161701	-0.4095212474	 1.4045988967	 0.111172
H	-1.6957794768	-0.2028243593	 2.269191606	 0.109209
H	-4.08728341	-0.9909893332	-1.1373375719	 0.087513
H	-3.0762775612	-1.2198552634	-2.5882391899	 0.110844
H	-3.2119511165	-3.323751839	-0.731912541	 0.091159
H	-0.8854196001	-3.6621612211	-0.9639021341	 0.230447
H	-1.408261711	-2.6009908656	 1.0764206021	 0.08514
