16
gdb 66123	2.65793	1.51546	1.34079	2.3921	67.6	-0.2809	0.003	0.2839	998.5578	0.124379	-437.883972	-437.876079	-437.875135	-437.916256	30.097	
O	-0.0628548192	 1.390646002	-0.0126065384	-0.457215
C	 0.0197411464	-0.0180126593	 0.0161921673	 0.239036
C	 0.6557380815	-0.6020382878	 1.3135299398	-0.288557
C	-0.0192458574	-1.9744252186	 1.5246064175	-0.253271
C	-1.3928865497	-1.7889709926	 0.9066691083	 0.057584
O	-2.0174996436	-0.5529399924	 1.2885759852	-0.25554
C	-1.3849997491	-0.6237838281	 0.016405768	 0.030119
C	 0.7375378193	-0.5147286859	-1.1817903941	 0.230046
N	 1.3148408921	-0.8930104993	-2.1090868994	-0.332066
H	 0.8304371309	 1.7528109023	 0.0017516245	 0.294343
H	 1.743865332	-0.662170013	 1.2515610386	 0.117776
H	 0.3851634107	 0.0851177724	 2.1169947829	 0.139464
H	 0.5115648268	-2.7695898829	 0.9892094401	 0.127256
H	-0.0653914165	-2.2571688176	 2.5801033053	 0.122584
H	-2.0669913063	-2.6278023516	 0.7597048835	 0.107756
H	-2.019334748	-0.5020983877	-0.8561300693	 0.120685
