19
gdb 63787	3.41768	1.28364	1.22636	4.1157	77.49	-0.2327	0.0207	0.2533	1110.2704	0.15857	-419.183046	-419.174467	-419.173523	-419.215819	33.351	
C	-0.583162973	 1.5317196813	 0.0920782823	-0.437284
C	-0.0872421893	 0.0970031458	 0.07212407	 0.396066
C	-1.1677708829	-0.8948009018	-0.3397505073	-0.422541
O	 1.0761283466	-0.0529334854	-0.80793148	-0.334244
C	 1.8790044798	-0.6186717812	 0.2437612624	 0.027985
C	 0.7464210859	-0.4145913081	 1.2871055075	-0.097344
N	 1.6221086664	 0.5387527931	 1.9669660917	-0.335588
C	 2.6497357889	 0.4600143354	 1.0137296551	 0.380114
N	 3.7582987169	 1.0275203934	 0.8107780008	-0.547556
H	 0.2092866111	 2.2192992025	 0.3969725066	 0.119527
H	-0.9119656507	 1.8244565101	-0.9100012658	 0.133864
H	-1.4327754533	 1.6428440215	 0.7745028807	 0.114921
H	-1.5127975416	-0.6767053412	-1.3547803626	 0.129714
H	-0.7828907637	-1.9189285311	-0.3254643336	 0.122214
H	-2.0258929035	-0.8380089805	 0.3389756034	 0.114526
H	 2.3693438986	-1.5537462039	-0.0262026075	 0.100141
H	 0.30486859	-1.1836745627	 1.9214158668	 0.088088
H	 1.3388961146	 1.3611309496	 2.4830528764	 0.23805
H	 3.9390416391	 1.7685833831	 1.4911214732	 0.209346
