21
gdb 40836	3.49337	1.08725	0.93214	1.3099	78.24	-0.2437	0.089	0.3327	1305.1803	0.184463	-424.210216	-424.201972	-424.201028	-424.243435	31.79	
C	 0.3111210653	 1.424331489	-0.0304542638	-0.190642
O	 1.1116181802	 0.2817952396	-0.3449237262	-0.237791
C	-0.2505703545	 0.0684045508	 0.0449739191	 0.079182
C	-0.5008331179	-0.7118759458	 1.3193362097	-0.025609
C	-0.2083000475	-2.2087511848	 1.0859962273	-0.200432
C	-0.3681798836	-3.009736747	 2.3839382132	-0.215821
C	 0.443218318	-2.3564174292	 3.5029261983	-0.06585
O	 0.0771302185	-0.9985060024	 3.6813485932	-0.2493
C	 0.3122702864	-0.2147469758	 2.5251379754	-0.096306
H	 0.5960392997	 1.9571859633	 0.8740938558	 0.118477
H	 0.0558885373	 2.0623533084	-0.8758159897	 0.114232
H	-0.8885340918	-0.2412763178	-0.7867846241	 0.089888
H	-1.5657871754	-0.5996872664	 1.568505254	 0.080925
H	-0.8630884587	-2.6042498759	 0.3008368971	 0.092753
H	 0.8211178515	-2.3051890056	 0.7164859425	 0.114124
H	-1.4238085398	-3.0346822961	 2.6815303489	 0.101918
H	-0.0435655619	-4.0471531268	 2.2436175505	 0.094735
H	 0.2678588379	-2.8472701386	 4.4646984732	 0.103844
H	 1.5215394338	-2.4299477152	 3.2762667594	 0.085356
H	 1.3838652532	-0.2158996563	 2.266942828	 0.103448
H	 0.0267664392	 0.8049459626	 2.7983465883	 0.102872
