16
gdb 44296	3.7175	1.77472	1.53059	3.1225	70.31	-0.232	-0.0228	0.2092	866.3351	0.126703	-400.700459	-400.694437	-400.693493	-400.730773	25.147	
O	 0.0063532118	-0.0176140286	 0.0774320916	-0.319423
C	-0.0401855576	 1.1829510083	 0.0212235487	 0.429003
C	-1.2978231815	 2.066168325	-0.0016480821	-0.355741
C	-0.7146403003	 3.4669052875	 0.1075545756	 0.006887
C	 0.0434864275	 3.8124256805	 1.3860685606	-0.097589
C	 1.3016467025	 2.9131447053	 1.3199035404	-0.093115
C	 1.2354132084	 4.2086318427	 0.5726729483	-0.032798
N	 0.6392965175	 3.4491566207	-0.6223452155	-0.190455
C	 1.131997955	 2.1508866245	-0.0011574715	-0.114184
H	-1.8160020661	 1.9200660482	-0.9571289881	 0.139885
H	-1.9890784278	 1.7930777938	 0.7999412032	 0.133929
H	-1.3421121664	 4.2732212302	-0.2744028429	 0.086904
H	-0.3109725889	 4.2171079693	 2.3256234434	 0.097237
H	 1.8647773735	 2.6487742463	 2.2051901768	 0.10448
H	 1.8648389845	 5.0847436382	 0.5177063301	 0.108174
H	 2.046966868	 1.7705924183	-0.4534204885	 0.096808
