15
gdb 23924	3.7138	1.49465	1.35927	2.1985	53.65	-0.3185	0.0809	0.3994	921.4627	0.116107	-494.170733	-494.163382	-494.162438	-494.203105	26.845	
F	 0.2095451922	 0.1937592989	-0.0746668182	-0.0871
C	-0.0134878174	 1.5187158824	 0.0041932803	 0.270185
F	 1.1787894667	 2.1278509631	-0.1144874889	-0.08408
F	-0.7488929595	 1.8601031804	-1.0678592094	-0.084084
C	-0.7019610965	 1.8981082624	 1.2896785518	-0.105582
C	-2.0046868419	 1.1393321082	 1.6631545625	-0.236166
C	-1.4996823851	 1.0825144802	 3.1313613876	-0.215664
C	-0.068924958	 1.4080531445	 2.6206298817	-0.236168
H	-0.8458696533	 2.9812597652	 1.2766303649	 0.101106
H	-2.9505408157	 1.6455051741	 1.4636806185	 0.109839
H	-2.0280233005	 0.1494528859	 1.2012373733	 0.121266
H	-1.9112857685	 1.895732865	 3.7352785421	 0.10855
H	-1.6374247871	 0.1448388109	 3.6730067234	 0.106793
H	 0.5236365168	 0.503671626	 2.4633498222	 0.121267
H	 0.5268520879	 2.1282329025	 3.1836854281	 0.109838
