16
gdb 22209	1.99242	1.46786	0.8902	6.2196	81.65	-0.1812	-0.0435	0.1378	1253.543	0.122217	-433.99277	-433.983351	-433.982407	-434.026898	35.2	
N	-0.015060913	 1.1644439993	 0.6570414892	-0.554098
C	-0.0524654524	-0.1315844575	 0.2496180365	 0.357861
N	 1.1470476869	-0.7679790628	 0.1215498064	-0.536723
H	 1.0546592344	-1.6660673955	-0.3409760196	 0.274183
H	 1.9388828172	-0.2058935611	-0.1520107981	 0.255845
C	-1.2473250627	-0.8011279221	-0.0289272909	 0.246879
C	-2.6441258328	-0.2538150469	 0.1703132046	-0.473907
C	-2.8657624459	 0.5006422324	 1.3977957703	 0.279354
C	-3.0259147388	 1.1538103252	 2.3969865167	-0.45852
N	-1.0702367183	-2.0436745219	-0.5704473451	-0.085183
O	-2.0837549395	-2.704045711	-0.8448181694	-0.355954
H	 0.8151015829	 1.4621890268	 1.1470979822	 0.260079
H	-0.8775582491	 1.5437044542	 1.0273755104	 0.276576
H	-2.9493875935	 0.3635584593	-0.6873039899	 0.140591
H	-3.2917567178	-1.1410071796	 0.136357396	 0.173032
H	-3.2078338376	 1.6956681412	 3.2920734106	 0.199985
