14
gdb 5678	5.28943	2.1791	1.55835	3.875	70.57	-0.2032	-0.0213	0.182	762.9391	0.111501	-341.629269	-341.623701	-341.622757	-341.658777	22.074	
C	-0.0590915994	 1.4705540364	 0.0105720617	-0.243286
C	 1.4024884595	 1.8803350144	-0.0010975639	-0.103644
C	 2.1975770221	 0.7957195234	-0.0146880751	-0.206687
C	 1.3738832279	-0.3978078495	-0.0134545819	 0.324862
C	 1.3252819626	-1.7724606909	-0.0205160739	-0.213364
N	 0.0140582802	-2.1929466857	-0.010233977	-0.274053
C	-0.7226317278	-1.0976575685	 0.0027197199	-0.006322
N	 0.0539146542	 0.0172362685	 0.0014135642	-0.031312
H	-0.5880282092	 1.8264332698	 0.9033768695	 0.140566
H	-0.6049199397	 1.8362818	-0.8679720392	 0.140563
H	 1.7118600388	 2.9159857286	 0.0016776183	 0.113458
H	 3.278272779	 0.7928247501	-0.0250151659	 0.120188
H	 2.1416127363	-2.4776649398	-0.0321756999	 0.110017
H	-1.8017023246	-1.0652001469	 0.0131853931	 0.129014
