18
gdb 63290	1.97154	1.66529	1.11932	2.9054	79.56	-0.2636	0.0211	0.2847	1151.9778	0.144696	-401.926718	-401.917351	-401.916406	-401.960591	35.194	
C	 0.2151270533	 1.3897067839	-0.3104399073	-0.433352
C	-0.0536556724	-0.0671097516	 0.0107489498	 0.407834
C	-1.5264198536	-0.4315765664	-0.0031174182	-0.436979
O	 0.6948266183	-0.9392659744	-0.9257265232	-0.287981
C	 1.4842180182	-1.4456892641	 0.0740816578	 0.435581
N	 2.438121514	-2.255968806	 0.0446827933	-0.543497
C	 0.7763882201	-0.6869359214	 1.1940337392	-0.395373
C	 1.5621677462	 0.1743981862	 2.0486696794	 0.353105
C	 2.202719768	 0.8987754585	 2.7619675672	-0.452376
H	 1.2863446755	 1.601196366	-0.3060145002	 0.139561
H	-0.1884390448	 1.6336822972	-1.2976691005	 0.127166
H	-0.2635121161	 2.0371167033	 0.4302593181	 0.130178
H	-1.9683692501	-0.1967735881	-0.9762188827	 0.133038
H	-1.6676198496	-1.4987303851	 0.1893275148	 0.129329
H	-2.0648653184	 0.1354084586	 0.7630611252	 0.130232
H	 2.6320484973	-2.5661405759	-0.9091882782	 0.229065
H	 0.1648879101	-1.3664755848	 1.7969733654	 0.13125
H	 2.7812455539	 1.5290454841	 3.3912620502	 0.203219
