14
gdb 47970	2.93944	0.86873	0.70439	2.9343	77.44	-0.2682	-0.0736	0.1946	1512.6754	0.098237	-436.636843	-436.627786	-436.626842	-436.672086	30.503	
O	-0.8335693967	 1.0440894934	-0.5065462752	-0.230354
C	 0.2123509865	 0.8017690851	 0.0517132481	 0.014416
C	 1.3678124973	 1.6599002429	 0.0140275059	 0.088576
C	 2.3522120328	 2.3610251452	-0.0062792829	 0.031954
C	 3.4967633955	 3.2167691826	-0.0180692812	 0.012357
C	 3.8413236653	 3.9213936597	-1.3158637471	-0.250834
N	 3.3151972561	 4.6881030344	-0.2100036936	-0.330654
C	 4.643797667	 2.8921633976	 0.9008816229	 0.133867
O	 4.7488829609	 1.8762578419	 1.5301472796	-0.238702
H	 0.3568409019	-0.1219014576	 0.6464607796	 0.111247
H	 4.8905776766	 4.0914859059	-1.5428114538	 0.145219
H	 3.2094793279	 3.686408593	-2.1668405547	 0.152596
H	 2.324253153	 4.880306573	-0.3376675075	 0.262898
H	 5.3992754459	 3.7066125228	 0.93285418	 0.097413
