16
gdb 51609	4.3747	0.77245	0.69444	2.3027	68.94	-0.2546	-0.0146	0.24	1542.0142	0.122463	-475.043206	-475.034062	-475.033117	-475.079104	31.275	
O	-0.0332207009	 0.3157834415	-0.9238623558	-0.319572
C	 0.0280273041	 1.2893956113	-0.2049370048	 0.153775
N	 1.1765394483	 1.7821492995	 0.3347425032	-0.290193
C	 2.4334783	 1.1312790001	 0.1486938436	 0.039732
C	 3.5185252729	 1.7841304333	-0.6866219242	-0.32649
C	 3.6275514214	 1.7363057342	 0.8177946015	 0.048186
O	 3.3527008814	 2.9111673253	 1.55661098	-0.20371
C	 4.3220041066	 3.8604053204	 1.5830349117	 0.175735
O	 4.1916642938	 4.8811911988	 2.1834726721	-0.259819
H	-0.8551954645	 1.8859653349	 0.0954076772	 0.082528
H	 1.1389302279	 2.5614669458	 0.9743244241	 0.267909
H	 2.3542063793	 0.0509097441	 0.1168362585	 0.13788
H	 4.1783755954	 1.1546875175	-1.2726394454	 0.135804
H	 3.2749093116	 2.7442084995	-1.1276913282	 0.137419
H	 4.3541021294	 1.0853135959	 1.294268911	 0.125251
H	 5.2140507534	 3.5728888979	 0.9978468453	 0.095565
