21
gdb 58533	2.07632	1.42722	1.36926	3.9082	77.33	-0.2652	0.0136	0.2788	1140.0465	0.181198	-424.263665	-424.253922	-424.252978	-424.298054	36.169	
C	-0.0240257902	 1.593603162	 0.0320005771	-0.40165
C	 0.0147809044	 0.0556793316	 0.0088650705	-0.02625
C	 0.8746479039	-0.4508075773	 1.1791375219	-0.417026
C	-1.4114475966	-0.5520208996	-0.0048540695	 0.112858
C	-2.3062383174	 0.0164740581	-1.1111958675	-0.463697
C	-1.5149106734	-2.0912813308	 0.1483186289	-0.130244
O	-2.1628305337	-1.9334289234	 1.4523719294	-0.248713
C	-2.1023020577	-0.5660218846	 1.3701013936	 0.455341
O	-2.4892506732	 0.2275634948	 2.1688007881	-0.342644
H	 0.9917694254	 1.9930467898	 0.1089848141	 0.113698
H	-0.4730086286	 2.0124585092	-0.8717459251	 0.115701
H	-0.5943558912	 1.9520670325	 0.8950999621	 0.145272
H	 0.4916851389	-0.2625019494	-0.929661897	 0.077403
H	 1.8851554339	-0.0385646665	 1.1036841257	 0.117168
H	 0.4574209971	-0.1291800946	 2.1392776917	 0.141772
H	 0.9694248453	-1.5398340362	 1.2007648951	 0.116335
H	-1.8194874914	-0.0778155124	-2.0881220726	 0.121806
H	-3.2607784383	-0.5168050501	-1.1548464117	 0.125704
H	-2.5259643344	 1.0718402293	-0.9383345342	 0.144945
H	-2.1853336546	-2.591394225	-0.554125129	 0.119716
H	-0.5832309382	-2.6495152575	 0.2464503886	 0.122506
