17
gdb 91967	2.52127	1.73264	1.42512	1.4094	67.07	-0.2546	0.058	0.3126	962.9971	0.136361	-458.92809	-458.920726	-458.919782	-458.959717	29.315	
O	 0.1268989565	 1.4238348845	-0.1193554728	-0.434496
C	 0.0386859378	 0.0157965202	 0.0020091554	 0.024373
C	 0.620662318	-0.5001874734	 1.347220788	-0.28205
C	-0.5799512252	-0.5423369373	 2.2728407618	 0.040291
O	-1.3917247445	 0.6473479545	 2.1930278866	-0.275991
C	-1.8143548728	-0.5296059694	 1.4738343106	-0.04658
C	-1.4227384395	-0.4600271923	 0.0270433387	 0.418054
C	-2.3476240971	-0.2903879009	-1.0909900826	-0.252174
O	-1.7975558767	-1.5797254902	-0.7802548367	-0.284314
H	-0.3569285733	 1.7831580778	 0.6364558078	 0.28771
H	 0.556453704	-0.4055028478	-0.8620453273	 0.10052
H	 1.0300818363	-1.5115107385	 1.2407228409	 0.11818
H	 1.4182991331	 0.1581914281	 1.7009624635	 0.121156
H	-0.5269766928	-0.994835908	 3.2589233597	 0.106738
H	-2.7542219636	-0.9762209367	 1.7838783002	 0.109741
H	-3.414792336	-0.1828387923	-0.9025930598	 0.118493
H	-1.9857198644	 0.1638490516	-2.0113151842	 0.130351
