15
gdb 66531	2.98124	1.66872	1.26257	3.3278	74.36	-0.2374	-0.0003	0.2371	979.6047	0.112226	-379.569462	-379.562161	-379.561217	-379.601155	28.007	
C	 0.0385168284	 1.5187949022	 0.0414111551	-0.526612
C	-0.0146550403	 0.0375375892	-0.0782759396	 0.276208
C	 0.8278556533	-0.9666698994	-0.7826549144	-0.109948
C	-0.3121651605	-2.0101261369	-0.767467453	-0.167306
C	-0.3027491608	-1.9100218051	 0.7239415543	-0.062593
N	 0.8408269244	-0.9065145337	 0.728228316	-0.210587
C	-1.2106783344	-0.9671242207	-0.0513350121	 0.241559
C	-2.6154700515	-0.8271776086	-0.072923412	 0.123373
N	-3.7668467816	-0.6940365922	-0.0882472798	-0.357882
H	 1.0811944801	 1.847451398	 0.0853292644	 0.14352
H	-0.4429367781	 1.9998653189	-0.8162298986	 0.138819
H	-0.4653987832	 1.8558675088	 0.9531541327	 0.142849
H	 1.7273966207	-0.8644852243	-1.3766135942	 0.113665
H	-0.6321635173	-2.7955904574	-1.4363921342	 0.126291
H	-0.5348616492	-2.6066975688	 1.5187709755	 0.128644
