16
gdb 127604	5.63007	0.97436	0.83499	2.6988	77.26	-0.2131	-0.0004	0.2127	1335.0887	0.126638	-430.257481	-430.249009	-430.248065	-430.291904	29.744	
C	-0.0180378436	 1.4278617818	 0.1863755735	-0.309002
N	-0.0095326821	-0.0097122922	 0.0294744383	 0.159522
N	-0.060950165	-0.5953338254	-1.1563453826	-0.221916
C	-0.0329255169	-1.9021228394	-0.8812975922	-0.127746
C	 0.036953108	-2.0431889626	 0.5166852557	 0.403681
N	 0.0890800564	-3.1671455865	 1.3265275206	-0.380268
C	 0.0834197747	-4.4746230547	 0.9140453864	 0.07797
N	 0.027285802	-4.8208802975	-0.3116296722	-0.45384
N	 0.0508615977	-0.8311284623	 1.0782115644	-0.349733
H	 0.8939550497	 1.7584327458	 0.6905357782	 0.149021
H	-0.0710937705	 1.8619187552	-0.810780999	 0.163754
H	-0.8843079568	 1.7385882365	 0.7764824743	 0.14901
H	-0.0615103759	-2.6619156143	-1.6396569828	 0.157549
H	 0.1354052188	-2.9808002304	 2.3148074305	 0.262983
H	 0.1328337594	-5.1594999518	 1.7683598996	 0.094085
H	 0.0346958143	-5.8345158121	-0.3901332927	 0.22493
