15
gdb 6594	6.08868	1.36311	1.36193	4.9278	67.43	-0.2606	-0.0031	0.2575	934.2847	0.117956	-362.614035	-362.606812	-362.605868	-362.645227	27.395	
C	-0.1439400842	 1.4076885485	 0.0119786845	-0.511477
C	 0.0830947592	-0.0677229152	-0.0025923751	 0.381581
C	 0.6774035163	-0.9755148898	-1.1163983694	-0.28354
C	 0.051274151	-1.8653123028	-0.0133406951	 0.323713
C	 0.7269072283	-0.9894725237	 1.0715297373	-0.283546
O	-1.1181823496	-0.9665717474	 0.0188277111	-0.354582
C	-0.1645460187	-3.2919584189	-0.0175684246	 0.177185
N	-0.3005758356	-4.4394626065	-0.0218333785	-0.343345
H	 0.8139210446	 1.9367082221	-0.0057796563	 0.134871
H	-0.7262371627	 1.7139617723	-0.8618401853	 0.142943
H	-0.6869174881	 1.7024082082	 0.9146143541	 0.142957
H	 0.1314614447	-0.972813804	-2.0597847698	 0.125493
H	 1.7622712554	-1.0040627786	-1.2388856389	 0.111127
H	 1.8161979344	-1.0192616578	 1.1444530819	 0.11113
H	 0.224192575	-0.9989689165	 2.0385995642	 0.125492
