19
gdb 39376	2.22015	1.95348	1.30168	1.6489	84.02	-0.2233	-0.02	0.2033	1029.379	0.161428	-385.875294	-385.867813	-385.866869	-385.906877	30.126	
C	-0.106648691	 1.6755499005	 0.0753863365	-0.266029
C	 1.2620856125	 2.0859179168	 0.6580483263	-0.234902
C	 2.4964357104	 1.7637853107	-0.1511726	 0.059908
O	 2.822331536	 0.4021108091	-0.404494896	-0.245176
C	 2.5993131906	 1.2413291518	-1.5439658471	 0.024719
C	 1.553617312	 0.8937445972	-2.5395033987	-0.08005
C	 0.4864136223	 0.086623965	-2.43084276	-0.107431
C	-0.0812509342	-0.487762278	-1.2159305689	-0.076127
C	-0.3266852912	 0.2000696958	-0.0943580842	-0.039431
H	-0.8762000782	 2.0745887761	 0.7464707601	 0.097677
H	-0.2320747256	 2.1767742569	-0.8899262064	 0.11479
H	 1.2569103811	 3.1716847237	 0.8185038696	 0.101441
H	 1.3942032048	 1.633790246	 1.6496373331	 0.114342
H	 3.3612176397	 2.3562501814	 0.1638642584	 0.085342
H	 3.5320566313	 1.5190809949	-2.0424370687	 0.088576
H	 1.7924765267	 1.2679538731	-3.5330665183	 0.088469
H	-0.024841627	-0.1719134914	-3.3581288081	 0.095668
H	-0.3777607421	-1.5339022971	-1.2671414899	 0.09069
H	-0.7537321283	-0.3295383025	 0.7548303722	 0.087524
