16
gdb 49404	4.21556	1.45875	1.28425	4.0805	73.52	-0.2276	0.0288	0.2564	970.4037	0.126207	-400.713126	-400.706693	-400.705749	-400.744657	25.824	
O	-0.0303739786	-0.0120765085	-0.2195217439	-0.344799
C	 0.03037753	 1.1970778474	-0.1285825272	 0.139573
N	 1.1732236224	 1.9103923452	 0.0205821892	-0.002077
C	 2.5062587948	 1.3974230632	 0.1006732756	-0.029168
C	 3.4766091077	 2.3982878124	-0.5076358087	-0.110212
C	 3.3442461814	 2.2899315149	 1.0034423773	-0.110168
C	 2.5514613846	 3.6178057122	 1.029350978	-0.114455
C	 2.683765587	 3.7262821393	-0.4818571548	-0.114448
C	 1.3536461649	 3.3240043611	 0.1379561652	-0.035995
H	-0.8596045955	 1.8563335161	-0.158884548	 0.068476
H	 2.6336616921	 0.3276380534	 0.0352105571	 0.137784
H	 4.29378545	 2.1367758004	-1.1642783274	 0.099912
H	 4.0386567696	 1.9275440939	 1.7476263437	 0.09992
H	 2.574516831	 4.3805297004	 1.7945123586	 0.099002
H	 2.829766578	 4.5892344856	-1.1156959118	 0.098999
H	 0.4805736607	 3.9612619531	 0.1072838069	 0.117656
