23
gdb 38368	2.02923	2.00416	1.2766	1.1041	84.38	-0.2386	0.077	0.3156	1093.4807	0.209631	-388.279772	-388.271977	-388.271033	-388.311539	32.298	
C	-0.0483670854	 1.4960547641	 0.2729349073	-0.231
C	 1.4809898155	 1.6851593925	 0.0436223569	 0.032136
C	 1.6536499391	 0.1325872395	 0.0861075388	-0.261156
C	 0.1007159849	-0.0401677107	 0.0606292171	 0.032136
C	-0.5489747483	-0.5916082488	-1.2151534422	-0.222723
C	 0.0853399751	-0.1856330322	-2.5515616228	-0.067548
O	 0.2699949823	 1.2119361252	-2.7120629349	-0.249183
C	 1.5944055332	 1.7006652898	-2.5701531526	-0.067548
C	 1.8640436231	 2.4246300428	-1.2448875218	-0.222723
H	-0.3667584579	 1.7607478073	 1.2851310906	 0.084317
H	-0.6940227479	 2.005510952	-0.4446393365	 0.105578
H	 1.9783508875	 2.1920637588	 0.8758437918	 0.06455
H	 2.2170282485	-0.3261694432	-0.7307214858	 0.088534
H	 2.0973253596	-0.2131204927	 1.0231066937	 0.092505
H	-0.2765971635	-0.6265966231	 0.9036289146	 0.06455
H	-0.5490540367	-1.6905538137	-1.1923242959	 0.089343
H	-1.6035209242	-0.2860580867	-1.2136432439	 0.101713
H	 1.0447755712	-0.7048781265	-2.6872109453	 0.090716
H	-0.5714327508	-0.5212641983	-3.3649294112	 0.097016
H	 2.310289314	 0.876984027	-2.7027888162	 0.090716
H	 1.7698267559	 2.4052447991	-3.3937797644	 0.097015
H	 1.3344536646	 3.3863683414	-1.2498524552	 0.101713
H	 2.9363269402	 2.6661228364	-1.2352726323	 0.089343
