14
gdb 130341	3.76843	1.33248	1.05294	5.6132	64.1	-0.2538	-0.0108	0.243	1074.4728	0.102519	-469.974307	-469.966898	-469.965954	-470.006667	27.225	
N	 0.2059816769	 1.448962905	 0.2446593165	-0.494077
C	 0.0285816358	 0.0423712575	 0.026805489	-0.110525
C	-1.4709876157	-0.4742378693	-0.0160264881	-0.178154
N	-1.1282660406	-1.1416799578	-1.2951725279	-0.156212
C	 0.1093032067	-0.5858222616	-1.3828113027	 0.382892
N	 0.6620217101	-0.6476083538	-2.5416185045	-0.247548
O	-0.3462253337	-1.34596196	-3.3073479856	-0.252115
C	-1.5016621227	-1.5658881451	-2.5635273526	 0.504534
O	-2.513044274	-2.0368160162	-2.9907105311	-0.383207
H	 1.1884046213	 1.6848364384	 0.3313871965	 0.253438
H	-0.1704329974	 1.9954244268	-0.5237327776	 0.246946
H	 0.6249773896	-0.5147625558	 0.7524008891	 0.134257
H	-1.7828482925	-1.1583870022	 0.7734761452	 0.149518
H	-2.1955222437	 0.3344945141	-0.1333094962	 0.150253
