15
gdb 18996	5.45218	1.96021	1.73906	2.9511	66.31	-0.2551	0.0201	0.2752	759.6933	0.121889	-362.630724	-362.62523	-362.624286	-362.660129	22.705	
N	-0.02895837	 1.2682985555	-0.0246328272	-0.559193
C	-0.0306984698	 0.0088017035	-0.0055649108	 0.424323
O	 1.0713189863	-0.823449719	-0.0274754918	-0.264576
C	 0.4678862054	-2.1233389447	 0.0110268394	 0.119463
C	-0.7907928724	-2.1444467888	-0.8981149625	-0.071711
C	-1.461459386	-3.1296247312	 0.0865751605	-0.261139
C	-0.7314997348	-2.1158311196	 0.9972695777	-0.07171
C	-1.185169751	-0.9449413844	 0.0449483159	-0.124106
H	 0.9275277833	 1.6263872077	-0.0599598541	 0.224456
H	 1.224967155	-2.9044369765	-0.0008642816	 0.098707
H	-0.8160621522	-2.1426877404	-1.9878864083	 0.089727
H	-2.5525209878	-3.110078321	 0.1204115658	 0.108929
H	-1.0867461413	-4.1572799569	 0.090368097	 0.099963
H	-0.6886201568	-2.0811812851	 2.0859404206	 0.089727
H	-2.196327188	-0.5482856591	 0.0705917945	 0.097141
