18
gdb 71699	3.62456	1.50634	1.38673	2.7506	74.02	-0.2187	0.0733	0.292	988.2182	0.148007	-401.890378	-401.883003	-401.882059	-401.921566	30.286	
C	 0.0063277846	 1.4199836682	 0.0286221438	-0.487015
C	 0.0299916059	-0.0823304498	-0.0499246344	 0.330423
C	-0.3817976875	-0.818295079	-1.3133532935	-0.290954
C	-0.3135414692	-2.2350122866	-0.7897192438	-0.166001
C	-0.6629570756	-2.229386032	 0.6898650604	-0.082425
N	-0.4603453084	-0.810575228	 1.1716454234	-0.186319
C	 0.9775640113	-0.9109197094	 0.7458066176	-0.195079
C	 0.7668731444	-2.3680053697	 0.2790170024	 0.380519
O	 1.6254460412	-3.4289571463	 0.4455966072	-0.462767
H	 0.6983244437	 1.8598215997	-0.6976758306	 0.116606
H	-0.9974904708	 1.8038394074	-0.1821786259	 0.124374
H	 0.2925899314	 1.7589074216	 1.0273519476	 0.132427
H	-1.388949618	-0.5335472538	-1.6382349054	 0.106782
H	 0.3145654881	-0.6274407973	-2.1380256244	 0.100302
H	-0.5631466219	-3.1088525367	-1.3785860929	 0.093784
H	-1.3650229663	-2.8854884273	 1.1856329617	 0.103921
H	 1.7824547648	-0.5419789936	 1.3726875946	 0.093867
H	 2.2228861624	-3.4614958074	-0.310365688	 0.287553
