16
gdb 5529	3.12673	1.84878	1.24787	1.5598	67.92	-0.1961	0.0242	0.2202	971.8737	0.130069	-383.769957	-383.761844	-383.7609	-383.803011	29.177	
C	 0.0136093974	 1.588085186	 0.2866222268	-0.369298
C	-0.0211313947	 0.0889029403	-0.0596825467	-0.297196
C	-1.3939230371	-0.475243567	-0.1475747439	 0.280801
C	-2.1258510176	-0.9973857432	-1.1733499798	 0.198866
O	-1.6765883903	-1.1147652673	-2.4564690685	-0.445815
C	-3.4046740044	-1.37091861	-0.6425058086	-0.308471
C	-3.3572767295	-1.0451488644	 0.6758428736	-0.001985
O	-2.1588282763	-0.5044112926	 0.9942632193	-0.184507
H	 1.045265596	 1.9473803689	 0.3536114779	 0.109533
H	-0.506135571	 2.1767675336	-0.4753374177	 0.120422
H	-0.4747671505	 1.7753865059	 1.2472496973	 0.126833
H	 0.4625615804	-0.0854819462	-1.0261519355	 0.123985
H	 0.5615475766	-0.4671292308	 0.6871940821	 0.111431
H	-2.3469033784	-1.5636160176	-2.9785145912	 0.298971
H	-4.2333989768	-1.8171741218	-1.1713757825	 0.104515
H	-4.0658808238	-1.1339357138	 1.4827334974	 0.131916
