19
gdb 67457	2.20972	1.87619	1.82452	0.9962	73.65	-0.2351	0.0692	0.3043	924.6232	0.16066	-423.002621	-422.995187	-422.994243	-423.034249	29.944	
O	 0.0504243175	 1.3683492998	 0.0623316046	-0.492057
C	 0.0217683375	-0.0178492823	-0.0236575001	 0.389772
C	-1.3193020846	-0.8205388809	 0.0402528394	-0.077535
C	-0.8961149689	-1.5583230854	-1.262060567	-0.236288
C	 0.4724188546	-0.8036468107	-1.2911474357	-0.11096
C	 1.6956707787	-1.5856474251	-0.8343375834	-0.093548
O	 1.5218514226	-1.8319854187	 0.5659156126	-0.277129
C	 0.5931272411	-0.9117956732	 1.1215101322	 0.035878
C	-0.8307319234	-1.5058145804	 1.3394229769	-0.242473
H	 0.9680899516	 1.6531436886	 0.1449882762	 0.279352
H	-2.2978427573	-0.3424595829	 0.045728554	 0.073986
H	-0.8364107588	-2.6484988319	-1.1940324488	 0.100137
H	-1.5261848293	-1.2964442225	-2.1147277047	 0.105902
H	 0.6453977974	-0.2068381791	-2.1879814355	 0.076094
H	 1.8119378806	-2.5543893961	-1.3331943408	 0.106674
H	 2.6163696489	-1.0042395302	-1.0064690161	 0.084123
H	 1.0399283957	-0.3988506485	 1.9796988567	 0.074095
H	-1.3090914894	-1.0797329726	 2.2257215445	 0.102983
H	-0.8790807245	-2.5963578479	 1.3899332749	 0.100993
