17
gdb 64803	3.52923	1.01915	0.95738	1.7166	76.6	-0.273	-0.0412	0.2318	1290.946	0.132514	-421.805767	-421.796484	-421.79554	-421.840028	34.072	
C	-0.0742424813	 1.6523223952	-0.614655917	-0.466232
C	-0.0534771649	 0.2139908986	-0.1621295103	 0.463083
C	 1.1671751088	-0.641521857	-0.3139863441	-0.321834
C	 0.6879201059	-0.2269359545	 1.0638565459	-0.298778
O	-1.2603090853	-0.4992824174	-0.4601149014	-0.278456
C	-2.3433327198	-0.2148515708	 0.2908966313	 0.282998
O	-2.3879378367	 0.589159077	 1.1870656893	-0.35383
C	-3.4710002106	-1.0208812538	-0.1295147594	 0.228989
C	-4.4401429936	-1.6624441223	-0.4339124372	-0.364214
H	 0.9061503418	 2.1081725413	-0.4513615801	 0.121036
H	-0.305106018	 1.7153674641	-1.6831097162	 0.126071
H	-0.8182076318	 2.225115994	-0.0563114216	 0.150684
H	 1.0108199967	-1.673339804	-0.6062450245	 0.128514
H	 2.0609622745	-0.1819351655	-0.7209161515	 0.117746
H	 1.2453485986	 0.5234694697	 1.6131146431	 0.123384
H	 0.2253246313	-0.9865644952	 1.6823662781	 0.128358
H	-5.2976001656	-2.2293763695	-0.7041991842	 0.21248
