23
gdb 122899	4.40332	0.53359	0.49203	4.5184	88.35	-0.2399	0.0311	0.271	2270.6431	0.204385	-384.483789	-384.472518	-384.471573	-384.521518	39.461	
C	 0.0371216525	 1.5960679676	 0.0594775599	-0.380367
C	-0.090926974	 0.0751612037	-0.0612386472	-0.164881
C	 0.7450113327	-0.5050549079	-1.2066814655	-0.175888
C	 0.6181992702	-2.0236013604	-1.3314441091	-0.135406
N	 1.4599705839	-2.5222711129	-2.4166942586	-0.294022
C	 1.5067394908	-3.975300525	-2.5549433431	-0.095762
C	 0.1992993323	-4.6675220332	-3.0014108176	-0.39554
C	 2.5931648832	-4.3239673597	-3.4889109081	 0.276015
N	 3.4214310851	-4.6084294102	-4.2423589602	-0.320165
H	 1.0763925785	 1.892061127	 0.239127877	 0.117826
H	-0.2939912203	 2.0952578344	-0.8579045688	 0.115159
H	-0.5673188431	 1.9828636295	 0.8856086581	 0.113532
H	 0.2145441094	-0.3939545634	 0.8833949254	 0.09775
H	-1.1455876288	-0.1936569315	-0.2061312271	 0.095882
H	 0.4357175245	-0.0388140203	-2.1532695049	 0.091437
H	 1.8029766481	-0.2515526732	-1.0711115255	 0.111858
H	 0.9625542308	-2.4970814102	-0.4020276363	 0.105043
H	-0.448233884	-2.2906233189	-1.4406229221	 0.08435
H	 1.1881016868	-2.101231957	-3.2999968959	 0.222724
H	 1.7934150841	-4.37769385	-1.5740025439	 0.131118
H	-0.5985949172	-4.4613288112	-2.2840754369	 0.129772
H	-0.1102238951	-4.3029690958	-3.9855670463	 0.130945
H	 0.3336716395	-5.7510194714	-3.0649408833	 0.138621
