21
gdb 59352	2.97335	1.12554	1.00471	2.8161	81.39	-0.2026	0.0331	0.2357	1309.8734	0.181669	-420.411378	-420.40123	-420.400285	-420.446683	35.974	
C	-0.0142659336	 1.5081810286	-0.116229779	-0.327643
N	 0.0727961066	 0.0595599735	 0.0384254961	-0.055767
C	 0.9156264127	-0.3076916915	 1.1706430805	-0.335997
C	-1.2228383083	-0.5729337442	 0.0364259736	-0.095013
C	-1.3054325854	-2.1319605932	-0.06353604	-0.218132
N	-2.0940694103	-2.111405209	 1.1678200463	-0.061008
C	-2.7417942308	-3.1550547242	 1.9160775378	-0.34428
C	-2.0318213319	-0.7537317256	 1.3686717191	 0.371954
O	-2.4493586745	-0.0496628297	 2.2541099497	-0.38394
H	 0.9939303611	 1.9197697329	-0.22930148	 0.115888
H	-0.5813585141	 1.7493163451	-1.0209143606	 0.117212
H	-0.496808415	 2.0113603664	 0.7383685932	 0.122766
H	 0.524052822	 0.0513651699	 2.137589973	 0.121523
H	 1.0239962095	-1.3944378994	 1.2290019529	 0.116985
H	 1.9141120871	 0.115788689	 1.0261253899	 0.119131
H	-1.8416864979	-0.0920734323	-0.7264065284	 0.101001
H	-1.8430077838	-2.517784695	-0.9374244174	 0.107603
H	-0.3448692456	-2.650151394	 0.02608977	 0.112723
H	-2.0219997149	-3.8990806629	 2.279425116	 0.127133
H	-3.2310879977	-2.6901507745	 2.7757122628	 0.160659
H	-3.4991773452	-3.6730388499	 1.3143716544	 0.1272
