18
gdb 51758	2.93111	0.9451	0.75842	2.7115	80.36	-0.2373	-0.0274	0.2099	1467.635	0.144939	-401.890887	-401.881588	-401.880644	-401.92601	33.28	
O	-0.337353752	 0.1762512982	 0.3941363113	-0.235082
C	-0.0679633827	 1.286912676	 0.0196040171	 0.154931
C	 1.3462144293	 1.8244544204	-0.1355627535	-0.242515
N	 1.4382967442	 2.7331576897	-1.2532138514	-0.077154
C	 1.5783399371	 2.2045270518	-2.6272200863	-0.176524
C	 2.4965829665	 3.4028508099	-2.9568691539	-0.248359
C	 2.6682854247	 3.5485472757	-1.4150684437	-0.152007
C	 2.6545133438	 4.863920364	-0.799825692	 0.333127
C	 2.6519285863	 5.9524222348	-0.2893632383	-0.430928
H	-0.8528220103	 2.0332019302	-0.2378353792	 0.087398
H	 1.5625822329	 2.3943978313	 0.780743576	 0.138378
H	 2.0512455336	 0.9753394512	-0.1750812564	 0.10428
H	 2.1179530713	 1.2442625137	-2.6650818187	 0.095795
H	 0.6396483122	 2.1049123586	-3.1798524689	 0.114173
H	 3.4013042968	 3.2074994805	-3.5310927624	 0.11614
H	 1.9550246547	 4.2471034776	-3.3837552602	 0.128347
H	 3.5682957301	 3.0010590682	-1.0862386352	 0.089694
H	 2.6439650714	 6.9158021881	 0.1576920256	 0.200304
