15
gdb 13033	4.06034	1.3957	1.10527	5.8874	65.97	-0.2562	-0.035	0.2212	1034.5712	0.118226	-362.685604	-362.677824	-362.67688	-362.718629	27.497	
O	 0.0421791023	 0.002246858	 0.0214746603	-0.276906
C	-0.033223267	 1.1943310135	 0.0312399497	 0.393162
C	-1.1720348219	 2.200500171	 0.2604140564	-0.332715
C	-0.0778625711	 3.2464036966	 0.6356411346	-0.265801
C	 1.0252957182	 2.3184248932	 0.0349414155	-0.085286
C	 2.3211204234	 2.0874442319	 0.8218112558	-0.361252
C	 3.2681779383	 1.2238856717	 0.118799659	 0.272438
N	 4.0257958067	 0.5632656179	-0.4504223166	-0.301805
H	-1.6910655833	 2.4396181113	-0.6732911484	 0.140458
H	-1.9142145791	 1.9270143476	 1.0133312385	 0.136858
H	-0.1692734058	 4.2342513297	 0.1839942832	 0.120215
H	 0.0264080344	 3.358259606	 1.7179621289	 0.119452
H	 1.2568105398	 2.6084947165	-0.9959516715	 0.126334
H	 2.8127483467	 3.0480833876	 1.0151283283	 0.15805
H	 2.0952665184	 1.6422397275	 1.7975474663	 0.156797
