16
gdb 133707	2.65178	1.23722	1.16724	1.863	57.94	-0.275	0.07	0.345	1110.5923	0.118821	-569.385046	-569.37603	-569.375086	-569.418859	33.255	
C	-0.055450747	 1.500668871	-0.0754528784	-0.410236
C	 0.1081362055	-0.0018927152	-0.0451037388	-0.0417
C	 1.4788973965	-0.6446537265	-0.1354223827	-0.361304
C	 0.7015255465	-0.6747754849	 1.159016851	 0.234473
O	 1.0872424912	 0.139609055	 2.2213830243	-0.462009
C	 0.1209844804	-1.9860602839	 1.6297816313	 0.244604
F	 1.0123255957	-2.6370691521	 2.4061137804	-0.092939
F	-0.9841255544	-1.812970684	 2.3629444758	-0.066626
F	-0.1913336864	-2.7950768019	 0.6053744857	-0.078179
H	 0.7390662766	 1.9934473312	 0.4887201873	 0.134207
H	-0.0289094407	 1.8679698524	-1.1063161983	 0.120044
H	-1.0118594933	 1.7996202285	 0.3651895915	 0.127774
H	-0.6882940897	-0.5609701475	-0.5274467665	 0.10747
H	 1.5918177102	-1.560798863	-0.702421698	 0.129703
H	 2.3377859917	 0.0179877386	-0.1427905685	 0.121044
H	 1.8311606073	-0.2852936976	 2.6640879639	 0.293674
