18
gdb 79690	2.6592	1.78146	1.37603	3.5849	75.42	-0.2295	-0.0049	0.2246	981.1198	0.148904	-401.893739	-401.886368	-401.885424	-401.925326	29.496	
C	-0.0402276027	 1.6479049976	 0.0015086557	-0.461439
C	 0.0149949575	 0.1117852226	-0.0125580685	 0.016742
C	 0.5037842447	-0.7320107282	-1.2380389589	-0.192779
C	 2.0242396661	-0.5752073126	-1.2622216772	-0.033797
C	 2.7185304828	 0.5168177404	-0.5338836953	-0.250326
N	 2.3927085626	-0.7115642743	 0.2059100217	-0.118562
C	 1.0268199749	-0.7980633786	 0.7851386308	-0.139033
C	 0.4740177525	-1.8921538987	-0.1843965911	 0.450392
O	 0.11263558	-3.0226723513	-0.1320660692	-0.310609
H	 0.4078597847	 2.0940338938	-0.8894473526	 0.135784
H	-1.0818549444	 1.9794915199	 0.0358593658	 0.121184
H	 0.4599777789	 2.069473083	 0.8790473115	 0.134484
H	-0.981104626	-0.2562407882	 0.2559234548	 0.105175
H	-0.0368847145	-0.7747638824	-2.1806064147	 0.088009
H	 2.5795795348	-1.1943817523	-1.9602145511	 0.11273
H	 3.7873814193	 0.6079514994	-0.7088702776	 0.12503
H	 2.2342830211	 1.4504444996	-0.2958912617	 0.124187
H	 1.0126524177	-0.8857007098	 1.8689838774	 0.092828
