17
gdb 48673	3.29569	1.19291	1.08481	2.5295	74.2	-0.2504	-0.0421	0.2083	1139.3936	0.135958	-421.86348	-421.85562	-421.854676	-421.896123	29.811	
O	-0.1159502439	 0.0341659018	 0.2397232001	-0.260832
C	 0.005108607	 1.1969221078	-0.057672906	 0.089466
C	 1.2869378458	 1.9357643363	-0.0337898594	 0.242391
C	 1.2453889005	 3.4275015034	 0.1688316946	-0.338501
C	 1.6125271776	 2.9004824209	-1.1923363538	-0.187203
C	 3.0767682873	 2.7313814377	-1.4821374987	 0.428024
O	 3.6310273296	 3.0889108591	-2.4894526979	-0.318724
C	 3.7201192774	 1.9694446612	-0.3146416687	-0.353182
C	 2.5681822168	 1.2100272482	 0.374187119	-0.292242
H	-0.8698918375	 1.806322684	-0.3833499917	 0.071518
H	 0.2685337289	 3.894041183	 0.2472135265	 0.136533
H	 2.0081414246	 3.8787282462	 0.7944485296	 0.135347
H	 0.9399266543	 3.069832012	-2.0241105429	 0.11993
H	 4.5160803358	 1.3233709765	-0.6887052593	 0.140323
H	 4.1949089604	 2.697708493	 0.3539100444	 0.13383
H	 2.6769794746	 1.163780774	 1.4613522422	 0.116461
H	 2.5053160108	 0.1794633448	 0.0147911718	 0.136859
