17
gdb 70270	3.87372	1.12305	0.99136	2.4786	74.31	-0.2335	0.032	0.2655	1196.8838	0.134467	-421.766581	-421.758302	-421.757357	-421.799269	32.338	
O	 0.2802168028	 1.3059797637	-0.847442242	-0.464557
C	 0.0617448839	 0.0757480638	-0.2327126163	 0.358747
C	-0.2153119418	-1.1607899695	-1.0712876315	-0.385653
C	-1.3033573281	-0.527025631	-0.2197952567	 0.07376
O	-1.6003074988	-1.0825864239	 1.0312826817	-0.26161
C	-0.370328052	-1.193100755	 1.772267761	-0.068981
C	 0.6020185162	-0.1383558212	 1.1736109214	-0.323048
C	-0.6294613032	-1.0267215973	 3.1952897723	 0.300827
C	-0.8089989203	-0.8942694862	 4.3754741378	-0.410967
H	 1.1580502898	 1.2910608095	-1.2444936565	 0.284795
H	-0.3036570028	-0.9940718706	-2.1395368097	 0.117457
H	 0.2080208426	-2.1194347302	-0.7895922572	 0.116873
H	-2.1610623992	-0.0604007485	-0.6878913968	 0.117544
H	 0.0436630087	-2.1991346023	 1.6096656088	 0.106942
H	 1.6373076728	-0.4883628206	 1.2203227497	 0.108369
H	 0.5282269522	 0.8088936072	 1.7143001593	 0.130298
H	-0.9793968927	-0.7764207478	 5.4171226746	 0.199205
