19
gdb 81829	2.22208	1.6581	1.18634	3.5498	80.13	-0.2265	0.0132	0.2396	1114.2731	0.158404	-382.040708	-382.031699	-382.030755	-382.074098	33.648	
C	-0.2748394692	 1.488114957	-0.0805210692	-0.33302
N	 0.0757814027	 0.0765177307	-0.0945031432	-0.086138
C	 0.763976353	-0.4794282046	-1.2573616638	-0.047078
C	 2.1963031858	-0.0234591896	-1.3824766869	-0.355945
C	 1.8438255836	-1.1081404229	-0.392340902	 0.318648
C	 2.4362234926	-2.4851524284	-0.3716476728	-0.503361
C	 1.1380050682	-0.4537955233	 0.8166247469	-0.175047
C	 1.9230962228	 0.5198579161	 1.5772599458	 0.282063
N	 2.5337244981	 1.3046402645	 2.1679518639	-0.340589
H	 0.5687906662	 2.1711485427	-0.2652517018	 0.11643
H	-1.0317831337	 1.6593064586	-0.8521106482	 0.126565
H	-0.7148191174	 1.7453625229	 0.887471179	 0.133606
H	 0.1942364048	-0.8988463025	-2.0797730779	 0.101243
H	 2.7184187057	-0.3805309643	-2.265142776	 0.118995
H	 2.5074698624	 0.9622001986	-1.048105816	 0.130759
H	 2.6516447231	-2.8298854221	-1.3876360907	 0.127826
H	 3.3781250097	-2.503138345	 0.1887633892	 0.135189
H	 1.755244745	-3.2082085643	 0.0907768233	 0.12534
H	 0.7165778964	-1.1837943441	 1.5175581401	 0.124514
