16
gdb 12335	2.62675	2.26969	1.52553	4.0745	66.29	-0.232	-0.0213	0.2107	861.4006	0.131102	-383.763768	-383.756239	-383.755295	-383.795769	27.961	
O	-0.0039833602	 1.4146214959	-0.0461510097	-0.433836
C	 0.0117722905	-0.020882865	-0.0214958176	 0.010224
C	 0.7666464131	-0.5424605833	 1.1716946615	-0.121272
C	 0.1677723106	-1.104559775	 2.2245861575	-0.046315
C	-1.3166559679	-1.3280145579	 2.3381951666	-0.26016
C	-2.1198630876	-0.4944396243	 1.3160577292	-0.311623
C	-1.4315941478	-0.5481731277	-0.0351004227	 0.390365
O	-1.9489366346	-0.9789113717	-1.0368336545	-0.311986
H	-0.0042580406	 1.7163404044	 0.8685323539	 0.282065
H	 0.480529956	-0.3297699276	-0.96084135	 0.106853
H	 1.8456772941	-0.4104243951	 1.1556635699	 0.10424
H	 0.7734660295	-1.4476432925	 3.0605119652	 0.101774
H	-1.5304997803	-2.3956587219	 2.1882822859	 0.133747
H	-1.6521527187	-1.1025848666	 3.3572206827	 0.116228
H	-3.1481788995	-0.8470141045	 1.2186275319	 0.1223
H	-2.1424584066	 0.5519332828	 1.6456030001	 0.117396
