19
gdb 31696	5.5088	0.79178	0.73111	1.7491	79.61	-0.2133	0.0201	0.2334	1580.5868	0.159096	-423.057737	-423.04848	-423.047536	-423.092569	33.524	
C	 0.432139489	 1.5861481162	-0.1968465943	-0.371395
C	-0.1270881197	 0.1833625018	 0.0978287482	-0.290209
C	 0.4123875771	-0.4188294513	 1.3495406977	 0.391602
C	-0.1515270949	-0.79632995	 2.5292081417	-0.410368
C	 0.9075751984	-1.309541871	 3.3556722515	 0.218391
C	 0.8115351475	-1.8555789118	 4.749835279	-0.167133
O	 1.9331066182	-2.6465249389	 5.1112794498	-0.410564
C	 2.0365360766	-1.202061335	 2.6056803286	-0.116042
O	 1.7542683808	-0.6664008091	 1.3845095094	-0.187783
H	 1.5215045491	 1.5571192177	-0.2856358683	 0.132956
H	 0.0230568117	 1.9768187581	-1.1333854057	 0.112964
H	 0.1782917859	 2.2844740743	 0.6063843661	 0.121858
H	-1.217317557	 0.2230198652	 0.1880231629	 0.113323
H	 0.0934404683	-0.4780400539	-0.7503075442	 0.116558
H	-1.1982402014	-0.7241313185	 2.7841196188	 0.104585
H	 0.7825205808	-1.0417227088	 5.4845980073	 0.125945
H	-0.1319285222	-2.4133988417	 4.8665821789	 0.095372
H	 1.9961354602	-3.3592250584	 4.4662132467	 0.281266
H	 3.0686314014	-1.4460454648	 2.7909685059	 0.138673
