16
gdb 124945	3.29997	1.29245	0.93957	5.9014	75.25	-0.2594	-0.0651	0.1943	1202.6681	0.123214	-434.091329	-434.082501	-434.081557	-434.125381	30.76	
C	-0.0038808636	 1.5318735392	 0.1224483268	-0.487247
C	 0.0504264009	 0.04946443	-0.0355580469	 0.214065
C	 0.0032309691	-0.7309614782	-1.1591575707	 0.266768
C	-0.1174663744	-0.3878996368	-2.6060490325	-0.509582
N	 0.0961171888	-2.0202807591	-0.6717321363	-0.082352
C	 0.097022104	-3.2258140775	-1.3983437222	 0.189284
O	 0.1810506352	-4.3138756456	-0.9109102822	-0.243717
N	 0.1953920818	-2.0075968158	 0.6979614363	-0.110229
N	 0.1674715646	-0.7788856946	 1.0646882077	-0.22086
H	 0.8999501315	 1.9036389923	 0.6153915172	 0.150047
H	-0.0967056783	 2.035647595	-0.8425844019	 0.124976
H	-0.8560420617	 1.8255410517	 0.7434545432	 0.150047
H	 0.7441380851	-0.7368919922	-3.1857195323	 0.150156
H	-1.0188144567	-0.8167435412	-3.0575542744	 0.150139
H	-0.1749722538	 0.6960078676	-2.72165923	 0.150216
H	 0.0096506675	-3.0353565648	-2.4820576917	 0.108288
