18
gdb 16962	3.39593	2.11838	1.93274	1.8738	65.51	-0.2491	0.0826	0.3318	796.9714	0.15657	-384.951843	-384.945252	-384.944307	-384.982425	26.327	
C	-0.1964275125	 1.5676685711	-0.021732042	-0.423432
C	 0.0407862671	 0.058813848	-0.0071313517	 0.044787
C	 0.8001818721	-0.5182472518	-1.247484017	-0.259914
C	 1.8993396895	-1.3331957617	-0.5407516854	 0.192255
O	 2.9015644956	-0.4320675149	-0.0674388329	-0.275944
C	 2.3282160713	 0.1406594297	 1.1202933667	-0.087042
C	 0.9302096178	-0.5026907943	 1.1339220964	 0.017791
O	 1.2607221798	-1.80968444	 0.6292458471	-0.250831
H	 0.7278690821	 2.1270737961	-0.1963551504	 0.125394
H	-0.8949592284	 1.8375179752	-0.8200365045	 0.122033
H	-0.6284258677	 1.9149942896	 0.923586747	 0.114348
H	-0.9266374071	-0.4453691632	 0.0813408656	 0.083352
H	 0.1607824384	-1.154819825	-1.8644926139	 0.103597
H	 1.2369015544	 0.2581260806	-1.8800604255	 0.108514
H	 2.3700151423	-2.1465593467	-1.092251935	 0.090236
H	 2.9174108222	-0.1549323736	 1.996320843	 0.105847
H	 2.3185409458	 1.2322937863	 1.0490296941	 0.104124
H	 0.4568331571	-0.5816382254	 2.1120585684	 0.084887
