23
gdb 77699	2.92301	1.27356	1.06287	0.0711	90.4	-0.2541	0.086	0.34	1254.4305	0.205223	-351.120934	-351.111875	-351.110931	-351.154794	35.926	
C	-0.5954311823	 1.1032556628	-0.0983878345	-0.411622
C	-0.0756627994	-0.3244526686	-0.0118406011	-0.11862
C	 1.1440948536	-0.7284523042	-0.8708128805	 0.378494
C	 1.1596205454	-1.1986018297	-2.2924525333	-0.330468
C	 1.8127740639	 0.1139516705	-1.9186572201	-0.317621
C	 1.8439983664	-1.3655896267	 0.340612265	-0.392516
C	 0.7504382391	-0.7448033955	 1.2249859478	 0.378483
C	 0.9909528736	 0.0798473461	 2.4565968924	-0.317613
C	 0.2504654	-1.2363733734	 2.5481331456	-0.330475
H	 0.208040428	 1.8297893849	 0.0585923806	 0.117844
H	-1.0437164306	 1.3017414186	-1.0786880701	 0.110934
H	-1.3700535081	 1.2880634072	 0.6547006421	 0.110929
H	-0.9057618067	-1.0249255932	-0.1732170498	 0.066994
H	 1.7999965826	-2.0372470246	-2.5485865823	 0.107439
H	 0.2311940921	-1.16176819	-2.8549368799	 0.106876
H	 1.3272981658	 1.0318123709	-2.234727483	 0.109598
H	 2.897351295	 0.1645160513	-1.9151806479	 0.10747
H	 1.827191191	-2.461395423	 0.3289084823	 0.095983
H	 2.8690746927	-1.0341648767	 0.535740265	 0.096506
H	 2.0027189652	 0.1274990978	 2.8476607429	 0.10747
H	 0.4211818775	 0.9941553544	 2.5887306002	 0.109599
H	-0.8188687623	-1.2054772375	 2.7359829235	 0.106878
H	 0.7567322275	-2.0805587413	 3.0064562853	 0.107438
