17
gdb 80516	2.27925	1.5114	1.29326	5.252	74.76	-0.2269	0.003	0.2299	1063.5418	0.135263	-417.963176	-417.954522	-417.953578	-417.996153	32.207	
C	-0.2815691916	 1.4528250531	 0.0531579432	-0.344558
N	 0.1362982275	 0.0581195041	 0.0147389571	-0.129385
C	 1.2401402658	-0.3829496494	-0.8716893908	-0.174776
C	 1.8983513397	-1.1267247656	 0.2946305124	-0.215117
C	 2.2077167327	-0.1683941612	 1.4069919716	 0.046148
O	 2.6121618783	 1.1444664318	 1.1822866378	-0.409868
C	 0.7615429335	-0.5441373992	 1.1815261048	 0.200117
C	-0.0304058689	-1.1513525146	 2.2107130744	 0.236924
N	-0.6626023289	-1.6335958497	 3.0513724094	-0.348958
H	 0.5436623949	 2.1577669405	 0.217492941	 0.127856
H	-0.7819643855	 1.6963422086	-0.8896832498	 0.121981
H	-1.0137255161	 1.5755641076	 0.8573209084	 0.136032
H	 0.8871053905	-1.0300885826	-1.6796831586	 0.120516
H	 1.847451757	 0.4285350571	-1.2911390739	 0.102934
H	 2.2642312849	-2.1445049799	 0.2750801745	 0.120385
H	 2.6386466992	-0.6443110848	 2.2891625479	 0.115614
H	 3.5138264668	 1.1284559143	 0.8408738307	 0.294154
