17
gdb 28307	5.01617	1.23976	1.00167	1.6869	86.01	-0.1652	-0.0065	0.1588	1149.8176	0.139011	-380.909631	-380.902151	-380.901207	-380.941303	29.623	
N	-0.0138113302	 1.4085124423	 0.1480043402	-0.603951
C	 0.0149209923	 0.0020935798	 0.0457357299	 0.275534
C	-1.0827950265	-0.8470096855	 0.0293425607	-0.213429
N	-0.5963019597	-2.1330870968	 0.0111808502	-0.019242
C	-1.123606788	-3.4845549508	-0.0215491513	-0.240855
C	 0.1509542987	-4.3075402628	-0.0435333743	-0.109584
C	 1.22309757	-3.4942228681	-0.0273618307	-0.205791
C	 0.776554072	-2.1159059216	 0.0068446482	 0.396527
C	 1.1955943949	-0.7979625253	 0.0309299674	-0.416102
H	 0.7478505402	 1.8389943405	-0.3617724334	 0.238164
H	-0.884506689	 1.7999516566	-0.1890416346	 0.234967
H	-2.1387958221	-0.6303887458	 0.0381481018	 0.102766
H	-1.7421340245	-3.7003918253	 0.8598475585	 0.130371
H	-1.7452666748	-3.6574346699	-0.9102388246	 0.129033
H	 0.1461417642	-5.3875894543	-0.0662450859	 0.105153
H	 2.2604241186	-3.79915434	-0.0363936702	 0.108984
H	 2.2135018538	-0.439647613	 0.0461267682	 0.087454
