23
gdb 96252	2.31721	1.46917	1.01004	1.2598	87.16	-0.2356	0.0106	0.2462	1262.5696	0.207238	-388.293242	-388.284358	-388.283414	-388.326319	35.243	
C	 0.0406973549	 1.5865487123	 0.1098942642	-0.395047
C	 0.0282641313	 0.060500602	 0.0532124423	 0.141936
C	 0.5778217878	-0.462069029	-1.2988865703	-0.191669
C	-0.130336715	-1.6800628985	-1.9201390108	-0.200916
C	-0.3182259792	-2.8991594677	-0.9859124891	-0.249254
C	 0.9454631133	-3.2937788352	-0.2720764903	-0.035331
C	 1.3581587751	-2.7528269764	 0.8750797165	-0.062481
C	 0.6016079128	-1.690029048	 1.6439544298	-0.121968
O	 0.8047106956	-0.3625239503	 1.1743945726	-0.257285
H	 1.0581161382	 1.963140142	-0.0385015366	 0.122934
H	-0.5995317185	 2.006707517	-0.6718547394	 0.108648
H	-0.3145593909	 1.9349782851	 1.0829935982	 0.117199
H	-1.0102774795	-0.2861225371	 0.1904950973	 0.059096
H	 0.5317687367	 0.3502273231	-2.0335943811	 0.090221
H	 1.6395256662	-0.6776526417	-1.1459110262	 0.112705
H	-1.1212496829	-1.3815252784	-2.2858861141	 0.094708
H	 0.4393420092	-1.987603117	-2.8061372255	 0.096436
H	-1.0977247498	-2.6633722453	-0.2532263565	 0.104547
H	-0.6985181895	-3.7385741714	-1.5782581556	 0.096384
H	 1.5819173795	-4.0244662484	-0.7682559771	 0.086333
H	 2.3157044283	-3.0567628409	 1.2909723696	 0.087554
H	-0.4755502816	-1.9171467128	 1.6604642304	 0.092795
H	 0.944161748	-1.6785902634	 2.6833413418	 0.102454
