20
gdb 107416	3.12226	1.19131	1.08134	3.5433	74.08	-0.2356	0.0635	0.2992	1192.405	0.172608	-440.269809	-440.261279	-440.260335	-440.302988	33.274	
O	 0.0838965985	 1.2806659052	-0.4982259519	-0.423012
C	 0.0263415015	 0.0552601761	 0.2156232498	-0.13948
C	-1.3711065831	-0.5100918221	 0.2173594989	 0.312783
C	-2.4591895194	 0.1469992089	 1.0579537745	-0.271658
C	-3.6324992024	-0.8520814594	 1.0623642514	 0.072906
O	-4.4921792296	-0.4976790501	-0.0278065353	-0.42422
C	-2.9755190479	-2.2397541596	 0.8549128241	-0.260549
C	-1.698476103	-1.9568609019	 0.0799505995	-0.067485
N	-1.7931682666	-1.0632988277	-1.0863596982	-0.390215
H	-0.2567604626	 1.0846243021	-1.3793743909	 0.289066
H	 0.7171594382	-0.6877767186	-0.2099713713	 0.088646
H	 0.3572622106	 0.2796012607	 1.2358753861	 0.099724
H	-2.0904012976	 0.3024243279	 2.0786287387	 0.10197
H	-2.7782490553	 1.1184452592	 0.67067838	 0.125182
H	-4.1985435712	-0.8090265403	 2.0013500769	 0.076172
H	-5.1916886012	-1.1573970034	-0.0819430718	 0.284175
H	-2.7274112829	-2.6924553613	 1.8229898839	 0.10667
H	-3.6537623551	-2.9318774286	 0.3406265736	 0.094899
H	-0.9365763759	-2.7291169351	 0.0153551882	 0.086013
H	-2.767929485	-0.830639802	-1.2681329962	 0.238412
