20
gdb 37971	2.59685	1.89451	1.38285	1.4302	77.01	-0.2281	0.0747	0.3028	984.966	0.17491	-403.09706	-403.090157	-403.089212	-403.127978	28.897	
C	-0.0479148666	 1.4131755133	-0.2091326659	-0.193339
C	 1.4851492083	 1.5127122171	 0.0397097288	-0.005421
C	 2.0735725976	 2.4090052949	 1.1301278242	-0.231703
C	 1.3140180285	 2.4169532429	 2.4597707683	-0.076214
O	 1.1918080632	 1.1418474872	 3.0598448251	-0.236255
C	 0.145346605	 0.332015337	 2.5567413305	-0.119905
C	 0.4623953362	-0.4258293992	 1.2687926655	-0.016623
C	 1.443856021	-0.0037825855	 0.252596211	-0.058281
N	-0.0386976886	-0.0863241103	-0.0902915783	-0.153609
H	-0.7155954147	 1.9174521081	 0.4961133838	 0.099158
H	-0.3466679703	 1.6945576212	-1.220442621	 0.11197
H	 1.9912305959	 1.7309524155	-0.9048988729	 0.084521
H	 3.1080395396	 2.0948317143	 1.3181892021	 0.107626
H	 2.1217911055	 3.4458384111	 0.7694075101	 0.094283
H	 1.8569851242	 3.0385508993	 3.1800986227	 0.105665
H	 0.3173084379	 2.8693766274	 2.3311509222	 0.087371
H	-0.0486680873	-0.4065010477	 3.3403307149	 0.111765
H	-0.775861421	 0.9246717433	 2.4428796993	 0.100036
H	 0.4093470158	-1.5056283158	 1.3904208672	 0.098281
H	 2.1647843397	-0.7004450041	-0.1657871575	 0.090676
