22
gdb 7191	4.88306	0.718	0.65301	2.6598	75.28	-0.2615	0.0766	0.3381	1714.302	0.198154	-387.332486	-387.321773	-387.320829	-387.368899	37.258	
C	-0.1163032975	 1.6483345453	 0.0120051582	-0.391617
C	-0.0161647039	 0.1138089728	 0.0027863099	 0.01186
C	 0.6835279502	-0.4121609243	-1.2634181045	-0.162611
C	-0.0407317307	-0.115161979	-2.5716588005	-0.087201
O	 0.6582545517	-0.7909929578	-3.6084500575	-0.420858
C	 0.7074760498	-0.4256975056	 1.249688576	-0.162612
C	 0.0083408286	-0.142830788	 2.5746227588	-0.087202
O	 0.7268600566	-0.8297533109	 3.5905623411	-0.420859
H	 0.8820728066	 2.1024461157	 0.0049673876	 0.114861
H	-0.6583143448	 2.0249482177	-0.8602195708	 0.113324
H	-0.6416083271	 2.0154728913	 0.8983763792	 0.113324
H	-1.0398410463	-0.2915967958	 0.010357993	 0.068135
H	 1.7008368791	-0.0040738292	-1.3245939831	 0.100746
H	 0.7919078033	-1.5009509732	-1.192337388	 0.104546
H	-1.0854346705	-0.4637369427	-2.5043790383	 0.080936
H	-0.0706761498	 0.9679741951	-2.7633737442	 0.085481
H	 0.2380499731	-0.5725414538	-4.4452089122	 0.284017
H	 0.8143284307	-1.5136531427	 1.1648513953	 0.104547
H	 1.7258237651	-0.0182250948	 1.2958337789	 0.100746
H	-0.0177660263	 0.938177499	 2.7785212	 0.085481
H	-1.0375117913	-0.490706028	 2.5235285596	 0.080936
H	 0.3227105632	-0.6203554209	 4.4374827115	 0.284017
