18
gdb 89353	2.24794	1.64567	1.15569	2.7481	75.14	-0.224	-0.0249	0.1991	1100.3749	0.145137	-439.043548	-439.034491	-439.033547	-439.077334	33.542	
C	-0.1899878866	 1.5360533201	-0.1119288433	-0.33668
N	 0.055439428	 0.1059908209	-0.005166819	-0.128868
C	 1.1161194976	-0.4842622164	-0.8727218071	-0.223912
C	 1.8203554227	-1.0705697222	 0.3431980025	 0.377181
O	 2.2591455366	-2.363931964	 0.3194714513	-0.442967
C	 2.1677448641	-0.0349096262	 1.3403750726	-0.408748
C	 0.6849777734	-0.3967261036	 1.2086138941	 0.149318
C	-0.0398766183	-1.0786553817	 2.2761747425	 0.089495
O	 0.4976166997	-1.5934543761	 3.2366124416	-0.304722
H	 0.7102600242	 2.161825962	 0.0184837854	 0.097695
H	-0.6157859217	 1.7576241926	-1.0955671507	 0.125502
H	-0.9220018259	 1.832359762	 0.6453488023	 0.128623
H	 0.7174358674	-1.2469756513	-1.5477707958	 0.128055
H	 1.7075631193	 0.2404906665	-1.4473412345	 0.105391
H	 2.6544476119	-2.580417654	 1.1716207814	 0.3051
H	 2.5954412764	-0.4091599799	 2.2664806504	 0.14244
H	 2.5087131695	 0.9535234311	 1.041577374	 0.119088
H	-1.1367178185	-1.1436825699	 2.1100869424	 0.07801
