18
gdb 103252	3.9229	1.03997	1.00091	3.1102	72.55	-0.2455	0.0054	0.2509	1223.5577	0.146809	-439.071049	-439.0622	-439.061256	-439.104504	33.182	
C	 0.0004941124	 1.5641292136	 0.1297859463	-0.488933
C	 0.0209445019	 0.0508961135	 0.0648943336	 0.29517
C	-1.2548565697	-0.5683377865	-0.4959173666	-0.133349
O	-1.5205727804	-0.1729516804	-1.8329145536	-0.417809
C	 1.2646414931	-0.744883792	-0.2254074531	-0.047176
N	 2.4790581436	-0.1638660045	 0.3501582293	-0.34705
C	 1.9316566928	-0.1434994379	 1.6476630719	 0.409023
O	 2.3563248755	 0.2778528205	 2.6854855994	-0.343583
C	 0.6533698085	-0.8198645319	 1.1666412783	-0.281593
H	 0.9316757427	 1.9781459988	 0.5215190764	 0.135186
H	-0.1547307389	 1.9860528498	-0.8692889736	 0.11775
H	-0.8108733158	 1.9124081459	 0.7789168368	 0.126892
H	-1.1576463007	-1.6593111343	-0.5186238054	 0.11106
H	-2.1006219367	-0.3316261559	 0.1673510956	 0.099702
H	-1.8824824192	 0.7176474781	-1.8179659134	 0.289552
H	 1.3298940424	-1.5235778864	-0.9744466043	 0.118719
H	 2.9911625155	 0.6135373425	-0.0512105807	 0.242984
H	 0.1199636531	-1.6276115529	 1.6489792632	 0.113456
