19
gdb 24727	3.41393	1.56861	1.12363	3.893	80.97	-0.2086	0.0365	0.2451	1080.4422	0.164461	-382.135639	-382.128574	-382.12763	-382.1671	28.307	
C	-0.0181023096	 1.5301847672	-0.0464095493	-0.210106
C	 1.4085038535	 2.0931928512	 0.0124646468	-0.207283
C	 2.0728627376	 1.7260893125	 1.3491970987	-0.308361
C	 1.8679693159	 0.2796196423	 1.6798016452	 0.357296
N	 2.5447366092	-0.4364638508	 2.5541281303	-0.336642
C	 1.9690155553	-1.6849802055	 2.5285271484	-0.103449
C	 0.9360193765	-1.7219427459	 1.6313016816	-0.140315
N	 0.87110622	-0.45365866	 1.0920549991	-0.025307
C	-0.0037998977	 0.000735764	 0.0185211794	-0.158137
H	-0.6031166776	 1.9270523498	 0.7925940307	 0.111833
H	-0.525702889	 1.837068391	-0.9662048927	 0.105904
H	 1.9948882024	 1.6840009551	-0.8203860201	 0.105724
H	 1.3951883761	 3.1800283524	-0.1136164904	 0.102513
H	 3.1451636596	 1.9407015341	 1.3375960171	 0.128183
H	 1.6451283097	 2.3451719531	 2.1502302981	 0.119591
H	 2.329052023	-2.4839252914	 3.1591920975	 0.101798
H	 0.2570514201	-2.5010757201	 1.3252565778	 0.117051
H	-1.0102734522	-0.3940379202	 0.1905252416	 0.119506
H	 0.3504849273	-0.4114276489	-0.9359185699	 0.120201
