15
gdb 96746	3.34851	0.86586	0.69386	3.1338	77.52	-0.2805	-0.053	0.2275	1543.5759	0.109407	-416.772391	-416.762662	-416.761717	-416.807861	33.26	
C	-0.011612722	 1.4842551971	 0.1171065674	-0.344547
N	 0.0181283571	 0.0364502055	 0.0752853859	-0.300289
C	 0.5065969326	-0.5855260575	-0.9086289152	 0.354533
O	 0.5582547366	-1.9260206742	-0.9961686048	-0.245741
C	 0.0067255586	-2.635104078	 0.1330546144	-0.239907
C	 0.1358671968	-4.0601462884	-0.1104939014	 0.296654
C	 0.2257418956	-5.2452427367	-0.277450948	-0.402714
C	 1.087513408	 0.0221917203	-2.0960681133	 0.259788
N	 1.5351473832	 0.5663820811	-3.0120529913	-0.32708
H	 0.5287284233	 1.8223200549	 1.0076415684	 0.143938
H	 0.4197479062	 1.9728704912	-0.7655758408	 0.139825
H	-1.0502759694	 1.8123250153	 0.2304734433	 0.143936
H	 0.5388011936	-2.3314651094	 1.0414916278	 0.155929
H	-1.0408559462	-2.3416690539	 0.2635532425	 0.155927
H	 0.307414846	-6.2933888973	-0.429533495	 0.209748
