17
gdb 35404	3.03543	1.59743	1.33094	5.1775	75.36	-0.2382	0.036	0.2742	980.2017	0.138139	-380.81293	-380.805871	-380.804927	-380.844445	28.135	
N	-0.2068601915	-1.2046695558	-0.3088437082	-0.349566
C	-0.105437652	-0.0671879899	-0.1263723397	 0.303349
C	-0.0029092792	 1.3706636994	 0.0575472864	-0.161614
C	-0.2168287785	 1.9756841568	 1.4933584451	-0.25452
C	 1.1462079854	 2.7214503456	 1.3778779444	-0.031392
C	 2.3964369431	 1.9954541159	 1.9309197138	-0.058397
N	 2.1415723355	 0.5487099683	 1.7841389161	-0.318548
C	 2.6210760274	 1.319151788	 0.616600678	-0.058232
C	 1.4124939652	 2.0456015843	-0.0047715567	-0.03627
H	-0.6706808205	 1.8477301344	-0.6655800936	 0.120541
H	-1.087417861	 2.6311274973	 1.5499747191	 0.106856
H	-0.2591617392	 1.2310247571	 2.2861772957	 0.137906
H	 1.1487284166	 3.8055151432	 1.4797612744	 0.078646
H	 3.1031261994	 2.3635840269	 2.6645068815	 0.097786
H	 2.9374828657	 0.0412195691	 2.1657407216	 0.239034
H	 3.5359716766	 1.0344463569	 0.1123598451	 0.101115
H	 1.6398266369	 2.6293298026	-0.8958810029	 0.083307
