19
gdb 55923	4.05666	0.92798	0.85522	3.5287	78.	-0.2338	0.0385	0.2724	1400.5449	0.15962	-419.197859	-419.188887	-419.187943	-419.233344	32.578	
C	 0.0453659938	 1.5053427184	-0.1055992792	-0.484568
C	 0.1235572015	-0.007573345	 0.0369231797	 0.407601
O	 0.3698181846	-0.5448256	 1.1029900527	-0.379697
N	-0.1179073297	-0.7087643267	-1.1098599426	-0.312397
C	-0.1064731969	-2.1438835764	-1.1750715447	 0.046122
C	-1.4337928916	-2.8914903495	-1.6008436686	-0.246704
C	-0.6801912005	-3.4351304818	-2.8147211727	-0.039826
N	-0.2143100433	-2.2426456381	-3.5691091417	-0.350576
C	 0.5736058959	-2.7434263945	-2.4126771825	-0.070219
H	 0.9108220897	 1.9490500588	 0.3912233187	 0.149723
H	 0.0080138154	 1.8466040355	-1.1434375673	 0.112438
H	-0.8491027293	 1.8632342722	 0.4134083247	 0.149712
H	-0.3110872162	-0.227333719	-1.9741426791	 0.252172
H	 0.2858212897	-2.5129113849	-0.2286272077	 0.121894
H	-1.7182154501	-3.6586093058	-0.877833702	 0.113176
H	-2.2924946266	-2.2549696166	-1.8267446842	 0.104456
H	-0.8111144559	-4.3861976407	-3.3143152046	 0.099032
H	 0.2493045122	-2.5766720441	-4.4131519928	 0.232079
H	 1.6123148273	-3.0270663816	-2.5311270663	 0.095582
