11
gdb 2558	3.73699	2.5993	1.72092	4.8295	58.	-0.2705	-0.0122	0.2584	696.7262	0.077695	-302.238859	-302.232243	-302.231299	-302.269255	23.833	
C	 0.0185558768	-1.1665866542	-0.0105952812	-0.422702
C	-0.014634964	 0.0339885766	 0.0180848272	 0.264014
C	-0.029817005	 1.4730411512	 0.0405056069	 0.028243
C	 0.527504461	 2.1800083351	 1.2504283122	-0.249067
N	 1.260135581	 2.2155867619	-0.0063146515	-0.32189
C	-1.1114328211	 2.0990636284	-0.6967247359	 0.260518
N	-1.9887156773	 2.5932815581	-1.2628330083	-0.329233
H	 0.0385260431	-2.2286373507	-0.0365677138	 0.214812
H	 0.0772289454	 3.1219607087	 1.5469358927	 0.154919
H	 0.8709741135	 1.5419382666	 2.0589100881	 0.143568
H	 2.0172088067	 1.5354674182	-0.0046607465	 0.256818
