15
gdb 19926	4.48114	2.17869	1.7778	2.2988	66.49	-0.2358	-0.0054	0.2304	745.7434	0.121247	-362.584115	-362.578293	-362.577349	-362.613834	23.444	
C	-0.0696645405	 1.4125549252	 0.088393412	-0.140088
O	 1.3897414818	 1.4598116082	 0.0423927136	-0.301227
C	 1.4452431659	 0.2086634953	-0.7276852956	 0.13728
C	 2.1700824677	-1.052415728	-0.296887427	-0.105049
N	 2.0071194255	-1.4678804539	 1.1071875308	-0.31577
C	 1.0883789298	-2.0322098646	 0.0819558751	-0.073449
C	-0.2046387247	-1.266235973	 0.14185172	-0.171474
C	 0.0233831484	-0.0378398178	-0.3195093253	 0.143158
H	-0.4649161097	 1.6269198131	 1.0861243424	 0.124393
H	-0.5096355689	 2.1001373464	-0.6459682344	 0.104843
H	 1.6512375302	 0.4375505449	-1.7818968381	 0.076961
H	 3.0524166232	-1.3802919857	-0.8352155702	 0.087433
H	 2.7345443275	-2.1508309402	 1.3132989352	 0.232479
H	 1.1529798391	-3.0883392011	-0.1576172882	 0.094234
H	-1.0603056053	-1.6051101286	 0.7132492597	 0.106275
