18
gdb 38736	2.44415	2.425	2.38119	0.2959	71.61	-0.23	0.0903	0.3202	775.3693	0.153311	-401.950366	-401.945019	-401.944075	-401.979685	24.302	
C	-0.0113369692	 1.56838981	 0.0267686996	-0.221161
C	 1.5018807214	 1.8473272493	-0.0221072963	 0.064722
O	 2.0036533197	 1.4802782793	-1.3138670659	-0.271989
C	 1.9735041628	 0.0471923053	-1.3363794409	 0.064722
C	 0.5104046728	-0.4230423372	-1.427171077	-0.221161
C	 0.006783619	 0.028725411	-0.0422763408	-0.013201
N	 1.1131831567	-0.3728493573	 0.9047743468	-0.126246
C	 2.0478985103	 0.7810121952	 0.9388477383	-0.055841
C	 2.3534081355	-0.3850592529	 0.0874984418	-0.055839
H	-0.435736421	 1.9088769334	 0.9774303924	 0.103262
H	-0.5521608666	 2.0418690617	-0.7964711591	 0.104808
H	 1.8015433704	 2.8751016077	 0.184653517	 0.07893
H	 2.6331025681	-0.2988593635	-2.1326490749	 0.07893
H	-0.0258008562	 0.0327955431	-2.2632885697	 0.104808
H	 0.4608372543	-1.5132414001	-1.5210470015	 0.103262
H	-0.9254057024	-0.443164797	 0.2695475858	 0.07734
H	 2.5351870419	 1.0217074918	 1.877126229	 0.092327
H	 3.1017890324	-1.1408886099	 0.2982094255	 0.092327
