21
gdb 35893	2.9112	1.3318	1.02603	0.8824	87.45	-0.2528	0.0616	0.3144	1213.7255	0.18431	-349.926613	-349.918285	-349.917341	-349.959326	33.395	
C	-0.0304718367	-1.2265544904	-0.0823669673	-0.453729
C	-0.0092118933	-0.0254466912	-0.0284391271	 0.317666
C	 0.0172045731	 1.4343375861	 0.0534169682	-0.189836
C	-0.8017472263	 1.9545012565	 1.2594191615	-0.207784
C	-0.682880022	 3.4771114811	 1.3708852887	-0.201541
C	 0.755006257	 3.9162308334	 1.6913848827	-0.216124
C	 1.8084074276	 3.2126233384	 0.833023577	-0.03956
C	 2.3402558355	 1.8590889372	 1.2477616119	-0.281257
C	 1.4503862967	 1.9702450562	 0.0411530931	-0.004881
H	-0.048305241	-2.2866458664	-0.1373151286	 0.188876
H	-0.4759008884	 1.8272318172	-0.848228339	 0.100922
H	-1.8449829801	 1.6512814795	 1.1284239719	 0.105628
H	-0.4537938508	 1.4737037938	 2.1817058597	 0.106817
H	-1.0018957257	 3.9265348755	 0.4207306842	 0.094914
H	-1.3658911524	 3.8549337517	 2.1394378683	 0.091415
H	 0.8413994605	 4.9991722408	 1.5547626709	 0.097192
H	 0.9597356658	 3.729120108	 2.7532242209	 0.100252
H	 2.5280684444	 3.8741991848	 0.3606320812	 0.082356
H	 3.3899425996	 1.6362768026	 1.0909520641	 0.107465
H	 1.9269973043	 1.4186107447	 2.14992223	 0.112548
H	 1.9412074822	 1.8495526104	-0.9199201023	 0.08866
