25
gdb 58227	2.41727	1.14223	1.05849	1.6742	88.16	-0.2588	0.0784	0.3372	1357.1323	0.226434	-389.483322	-389.472391	-389.471446	-389.519147	41.225	
C	-0.4106370618	-0.87416764	-2.6669298107	-0.393783
C	-0.3949011264	-0.3266067273	-1.2309392062	 0.037262
C	-0.1142114281	 1.1840774988	-1.2261457112	-0.403598
C	-1.677299227	-0.6801160103	-0.4178457731	-0.033103
C	-2.9641646684	-0.1886503407	-1.0986004739	-0.428181
C	-1.732925069	-2.171630722	-0.0534665928	 0.414716
C	-0.5934574781	-2.7015493543	 0.7985130625	-0.462889
C	-3.0116572391	-2.9038650498	 0.0099807985	-0.236151
O	-2.132426061	-3.0708536046	-1.1048322676	-0.272315
H	 0.5490328654	-0.6797160985	-3.157656693	 0.103307
H	-0.5976657597	-1.9498719591	-2.6893599609	 0.140092
H	-1.1876252692	-0.389669952	-3.2681221466	 0.111327
H	 0.4492652895	-0.7946559518	-0.7107737988	 0.071364
H	-0.8731758551	 1.7453621163	-1.7814620861	 0.115763
H	-0.0808934331	 1.5842612704	-0.2067494014	 0.105868
H	 0.8510142738	 1.3945576711	-1.6986329011	 0.110134
H	-1.5835149297	-0.1514865402	 0.5421276837	 0.068699
H	-3.2358898706	-0.8345407081	-1.937914528	 0.138226
H	-3.8025793645	-0.1699090212	-0.3967901441	 0.111067
H	-2.8436468983	 0.8281612643	-1.4799709541	 0.113676
H	-0.4926313894	-2.1161776115	 1.7189388977	 0.117824
H	-0.7746811075	-3.7441724675	 1.0704704299	 0.122498
H	 0.3613542166	-2.659650171	 0.2672866301	 0.132473
H	-3.0920470975	-3.7665818983	 0.6711310726	 0.104376
H	-3.9545927118	-2.4116902228	-0.2120688553	 0.111347
