21
gdb 81286	2.48322	1.55646	1.2196	3.103	81.92	-0.2314	-0.0035	0.2278	1117.6699	0.184418	-387.117853	-387.109729	-387.108784	-387.150398	32.178	
C	-0.1565862851	 1.4746419897	 0.0341396448	-0.429598
C	 0.0153037375	-0.0381567708	-0.044349795	 0.036868
C	 0.8856795624	-0.5674783446	-1.2221791152	-0.007855
C	 2.1222635995	-0.4515209058	-0.289008788	-0.253936
C	 1.1301401318	-0.6194238321	 0.9001894324	-0.114215
C	 0.8056976243	-2.0837842223	 1.1027213313	 0.404408
O	 0.6089025465	-2.5812297348	 2.1858015886	-0.333307
C	 0.7424588024	-2.8988234818	-0.1972414545	-0.312562
C	 0.5532612004	-2.0443422382	-1.4794801139	-0.231664
H	 0.7969345959	 2.0056377052	-0.0498583312	 0.11851
H	-0.8059715164	 1.8295229518	-0.7738550931	 0.117659
H	-0.6158823568	 1.7659582914	 0.984512943	 0.122885
H	-0.9673663069	-0.5154421626	 0.0522642027	 0.071446
H	 0.8824898884	 0.0116672373	-2.1498557177	 0.061882
H	 2.9218970711	-1.189593204	-0.3987158716	 0.097939
H	 2.5661582155	 0.5452392752	-0.3004384613	 0.109289
H	 1.3238525752	-0.1266399321	 1.8540501912	 0.076397
H	 1.6956644626	-3.4407043433	-0.2439618187	 0.134036
H	-0.0265654101	-3.6663038143	-0.0826414149	 0.127314
H	-0.4824326346	-2.1189352559	-1.8303947604	 0.10476
H	 1.1846671266	-2.436904118	-2.2836569285	 0.099744
