16
gdb 44582	3.15888	1.6219	1.45064	5.0393	66.57	-0.2337	0.0031	0.2368	927.7429	0.127099	-437.887773	-437.881178	-437.880234	-437.918841	26.564	
O	-0.413265583	 0.332553456	 0.6145792421	-0.320429
C	-0.1470972822	 1.3848928461	 0.1337865057	 0.44448
O	-0.9676524891	 2.1989595482	-0.6128740199	-0.251988
C	 0.0572061164	 3.2502230733	-0.7272233519	 0.085926
C	-0.1237959796	 4.4508538958	 0.1653046206	-0.073003
C	-0.6406112555	 4.1834984369	 1.5692429911	-0.301376
C	 0.8338319897	 4.2527609953	 1.3448020628	 0.004392
N	 1.5646195815	 3.0010107874	 1.2044762903	-0.295313
C	 1.0739638114	 2.3300980686	 0.0182912451	-0.203205
H	 0.2198070184	 3.4917266302	-1.7768339701	 0.097227
H	-0.2927964604	 5.418881488	-0.2889299555	 0.094188
H	-1.1039676965	 5.0206340492	 2.0791439468	 0.121548
H	-1.1026290896	 3.2258448458	 1.7810816588	 0.149239
H	 1.4018227356	 5.0682714611	 1.7770717046	 0.099351
H	 2.5544012334	 3.1909062438	 1.1172338759	 0.233074
H	 1.8754680797	 1.8733609444	-0.5655737464	 0.115891
