19
gdb 59840	4.91954	0.53918	0.50994	1.6272	86.69	-0.245	0.0413	0.2864	2157.089	0.155135	-385.826731	-385.815794	-385.81485	-385.865266	38.362	
C	-0.1024753198	 1.557000307	-0.1425609345	-0.402514
C	-0.0989131012	 0.0280400748	-0.1697528015	 0.14936
O	 1.0530708677	-0.5029230574	 0.4663783599	-0.420775
C	-1.4013001643	-0.5472133361	 0.433956016	-0.377621
C	-1.4815422371	-2.0007855363	 0.3737984986	 0.049619
C	-1.5455596811	-3.1999733191	 0.308174108	 0.132337
C	-1.6104919588	-4.660773368	 0.2357074661	-0.49296
C	-2.7358351039	-5.1627045671	-0.5562499363	 0.318884
C	-3.6543478499	-5.5868348191	-1.202674502	-0.448335
H	 0.8335192918	 1.9404913342	-0.5563779883	 0.127353
H	-0.934721779	 1.9664188633	-0.7243194259	 0.117482
H	-0.1986702834	 1.9277672789	 0.8859237495	 0.106591
H	-0.022391464	-0.3176243101	-1.2065883076	 0.102224
H	 1.0360310097	-0.2261222533	 1.3895606426	 0.27632
H	-1.4810335175	-0.2088466942	 1.4779593133	 0.113757
H	-2.2594948023	-0.10696506	-0.090524908	 0.129808
H	-0.6723688064	-5.0481700841	-0.1855808472	 0.162201
H	-1.6704374149	-5.0782443038	 1.2505516985	 0.15791
H	-4.4678449256	-5.9568986095	-1.7757945212	 0.198359
