18
gdb 19107	4.39563	2.14622	2.08403	0.0289	73.48	-0.2358	0.0945	0.3303	753.0305	0.155566	-310.597323	-310.591243	-310.590299	-310.627082	25.601	
C	-0.0479656009	 1.6196606249	 0.0110544881	-0.418291
C	 0.0363579795	 0.1025176908	 0.0176885765	 0.030777
C	 1.0774168886	-0.6397384115	-0.8639997898	-0.072797
C	 2.4849255798	-0.2566269485	-0.3437268401	-0.066104
C	 2.2270398775	-0.2644476666	 1.1673196006	-0.066097
C	 2.6625291912	-1.526541296	 0.4575600941	-0.110443
C	 1.1500449296	-1.8016689986	 0.1980506522	-0.051596
C	 0.7272702462	-0.6502342624	 1.1873727287	-0.072811
H	 0.9371804873	 2.0662845739	 0.1815158865	 0.117438
H	-0.4239206407	 1.9933137017	-0.9481280529	 0.110447
H	-0.7214706312	 1.9843965577	 0.794858538	 0.110447
H	-0.951764723	-0.345047895	-0.153278045	 0.065242
H	 0.9389699468	-0.7993425153	-1.9331327935	 0.056717
H	 3.2384675832	 0.368553839	-0.8039516324	 0.081225
H	 2.7842208306	 0.3547600652	 1.8576916914	 0.081225
H	 3.5245002602	-2.1639439636	 0.6013645145	 0.083201
H	 0.6425043125	-2.7583841885	 0.1065272135	 0.064709
H	 0.2422809927	-0.8202247172	 2.1484003096	 0.056714
