18
gdb 91643	2.93477	1.75804	1.5233	3.202	69.42	-0.229	0.0654	0.2943	921.9586	0.150688	-439.052275	-439.045436	-439.044492	-439.083214	28.404	
O	-0.0156631544	 1.4373719429	-0.0752639087	-0.438668
C	 0.0129059023	 0.0235508324	 0.0216564213	 0.125113
C	 0.5974469032	-0.5479192634	 1.3611611946	-0.264978
C	-0.6183176422	-1.342809851	 1.8985775399	 0.063029
O	-1.2249754552	-1.8061875211	 0.6838322467	-0.247307
C	-1.4347775858	-0.5334692526	 0.0727930513	 0.033179
C	-2.1789959729	 0.2576724097	 1.1535803495	-0.034845
N	-3.0182408958	-0.6057597649	 2.0121093904	-0.34179
C	-1.6270726853	-0.3073456582	 2.4073339157	-0.051937
H	 0.888282995	 1.752846437	-0.1623250504	 0.287779
H	 0.5383777854	-0.4096247278	-0.8386678472	 0.075667
H	 1.4499158084	-1.2073073619	 1.182981139	 0.102151
H	 0.910239227	 0.263707329	 2.0249528394	 0.096596
H	-0.4022725809	-2.1933681587	 2.544791992	 0.082434
H	-1.9307460612	-0.6600772524	-0.8888172197	 0.083787
H	-2.3979003166	 1.3083341392	 1.0227661295	 0.107941
H	-3.6330031561	-0.0002822279	 2.552418595	 0.229948
H	-1.4086896148	 0.2949712397	 3.2817551517	 0.091901
