14
gdb 20699	5.05292	1.40216	1.14214	2.9806	59.45	-0.2779	-0.0252	0.2527	1007.6172	0.107021	-415.866179	-415.858466	-415.857522	-415.899078	26.571	
C	-0.1094392828	 1.3867642917	-0.2076558063	-0.49522
C	-0.0883444029	-0.0888535365	-0.0368854842	 0.417729
N	-1.0169132422	-0.952801155	-0.3221010502	-0.36188
C	-0.4288879278	-2.1462491224	 0.0415754411	 0.33937
C	-1.1637529974	-3.4446821336	-0.1113401866	-0.162882
O	-1.79995789	-3.5279018504	-1.3691720963	-0.410263
N	 0.7797731912	-2.0361919166	 0.5164633366	-0.174425
O	 1.0142274083	-0.650219679	 0.4741248722	-0.194664
H	 0.6800504157	 1.7047577688	-0.8952830407	 0.162812
H	-1.0775017936	 1.6898191863	-0.6056318304	 0.163739
H	 0.0635247063	 1.8873195424	 0.7494917647	 0.161584
H	-0.4603002789	-4.276920819	-0.0347184468	 0.141621
H	-1.8859811703	-3.5384500864	 0.7160912061	 0.112962
H	-2.2672690857	-2.6942720605	-1.5016432792	 0.299516
