18
gdb 91866	3.21768	1.25728	1.11196	3.591	72.62	-0.2389	-0.0239	0.215	1125.6883	0.147745	-439.075669	-439.06754	-439.066596	-439.108278	31.258	
O	-0.6204240274	 1.1798957097	 0.8759037926	-0.424027
C	-0.1473757217	 0.1023984826	 0.066375046	 0.071441
C	 0.8298313276	-0.8331448649	 0.81957284	-0.179815
N	 0.0659135641	-1.9250273644	 1.4520364295	-0.137627
C	-1.0904235709	-1.4921249115	 2.2271338095	-0.287137
C	-1.2799493751	-1.9077952881	 0.7983931829	 0.227369
C	-1.3462782447	-0.8087826284	-0.2483642183	-0.285746
C	-1.8574128513	-3.2427159945	 0.4993867031	 0.092299
O	-2.5322599023	-3.4869239514	-0.4704858214	-0.264312
H	 0.1326729604	 1.7351403455	 1.1027238781	 0.284639
H	 0.3102720476	 0.4995136359	-0.8494321992	 0.07857
H	 1.5307294285	-1.2934297293	 0.1143016596	 0.115316
H	 1.4156570883	-0.2952382672	 1.5729546875	 0.104707
H	-1.3745742046	-2.1764272381	 3.0230201253	 0.119133
H	-1.2265495077	-0.4363822582	 2.4387303991	 0.147783
H	-2.2766261219	-0.2376605621	-0.2224201684	 0.131168
H	-1.2575707736	-1.2567808774	-1.2417616516	 0.125499
H	-1.6077175853	-4.0209880984	 1.2539474657	 0.080739
