13
gdb 50071	2.89888	0.99042	0.96333	1.7149	61.33	-0.2686	-0.1234	0.1452	1242.2743	0.085084	-493.686036	-493.677352	-493.676408	-493.720927	29.103	
O	-0.0861497132	-0.2735156945	 0.1505231651	-0.236243
C	 0.5760086556	 0.4424544326	-0.5561160101	 0.130162
C	 1.1001068291	 1.7638573016	-0.0707986974	-0.048864
O	 2.2392933003	 2.2791772314	-0.7427836164	-0.21579
C	 1.0340401351	 3.0049167983	-0.9056490045	-0.048776
C	 0.422624907	 3.0053460988	-2.2780470136	 0.284722
O	 0.6274266683	 2.171105	-3.1270934315	-0.275887
C	-0.5258014461	 4.1692907842	-2.5928262839	 0.088437
O	-0.778336945	 5.0449469602	-1.8083281512	-0.210587
H	 0.859594782	 0.1836865631	-1.5928870428	 0.12964
H	 1.0725546474	 1.8982935512	 1.0101301476	 0.13485
H	 0.9689250356	 3.949942916	-0.371580789	 0.14359
H	-0.9514755261	 4.1119328671	-3.6153197125	 0.124749
