20
gdb 85423	2.3923	1.41165	1.11355	3.3868	75.17	-0.2361	0.0342	0.2703	1167.5911	0.170274	-440.341749	-440.332466	-440.331522	-440.375183	35.967	
C	-0.7398192432	 1.2342904472	 0.0313202837	-0.423456
C	 0.0797267006	-0.047949522	-0.0461827265	 0.039637
N	 1.1996521604	 0.044018357	-0.9733032584	-0.318237
C	 2.2752715433	-0.7439295432	-0.6534416963	 0.407467
O	 3.2615739953	-0.9168738875	-1.333648267	-0.380476
C	 1.9620352171	-1.3518317525	 0.7163193358	-0.392477
C	 0.7852249147	-0.5128745767	 1.2637352254	 0.365986
C	 1.2970953401	 0.6453022934	 2.1244197111	-0.441895
O	-0.1799106805	-1.2773718272	 1.976729648	-0.477436
H	-0.1163084905	 2.1014975356	 0.2645579353	 0.124799
H	-1.2422692087	 1.4260247669	-0.9226040108	 0.116506
H	-1.5133137863	 1.1348939421	 0.798060634	 0.137399
H	-0.5945935641	-0.8707078464	-0.3286350167	 0.092665
H	 1.111576637	 0.4238024951	-1.9034520781	 0.247365
H	 1.6340234222	-2.3863818648	 0.5665467695	 0.132904
H	 2.8499359232	-1.363424288	 1.3522000268	 0.117869
H	 1.9781563091	 1.2899050501	 1.560651141	 0.134721
H	 0.4711031127	 1.2520267375	 2.5030991981	 0.126469
H	 1.8542284609	 0.2521357402	 2.9830169492	 0.110963
H	 0.1758089067	-1.4699291467	 2.850365276	 0.279229
