16
gdb 38088	2.93727	2.37825	1.66476	0.9844	70.66	-0.2352	-0.0179	0.2173	809.9308	0.129102	-396.924745	-396.918927	-396.917983	-396.954741	24.15	
C	-0.0350779897	 1.5405367303	-0.2547412092	-0.243026
C	 1.4976978495	 1.6104790527	 0.0876036587	-0.005045
N	 1.8323774461	 2.3321072716	 1.32961528	-0.205161
C	 1.7618258154	 1.4861596354	 2.2744653855	 0.025783
N	 1.4488238263	 0.1259393754	 1.9400088828	-0.126175
C	 0.1053033352	-0.2534897682	 2.2731999071	 0.025782
N	-0.7354948509	-0.3646144205	 1.327654299	-0.20516
C	-0.0302013212	 0.0059138254	 0.0864366911	-0.005044
C	 1.4677850863	 0.1089695985	 0.4476276168	-0.031194
H	-0.6713119576	 2.1459002724	 0.392667391	 0.120568
H	-0.2670598417	 1.7621938416	-1.2985529119	 0.113316
H	 2.1415334798	 1.9298925302	-0.7313993194	 0.090055
H	 1.9077345317	 1.7375032144	 3.320653943	 0.136093
H	-0.1393622361	-0.4123145695	 3.3190903932	 0.136093
H	-0.3171409566	-0.6521517741	-0.7332769726	 0.090055
H	 2.2049524734	-0.5926910157	 0.055680105	 0.083059
