13
gdb 29684	2.47195	2.03563	1.12421	1.1651	60.8	-0.2946	-0.0661	0.2286	976.6341	0.090215	-489.971417	-489.963843	-489.962899	-490.004262	26.568	
C	-0.0127120152	 1.4606895357	-0.0022554531	-0.344039
N	 0.0048117185	-0.0071740516	 0.0076849575	-0.241476
C	 0.1123952343	-0.6223507812	-1.2162495633	 0.510127
O	 0.1917002761	-0.0687032292	-2.2712932238	-0.347365
O	 0.1256378386	-2.0130228365	-1.1693413251	-0.199314
C	 0.0366101557	-2.6318706585	 0.0251779478	 0.142731
N	-0.0631803888	-2.0961661349	 1.1705121586	-0.308414
C	-0.0872469343	-0.6935519152	 1.2446581127	 0.46613
O	-0.179685333	-0.0985247796	 2.2850861354	-0.338008
H	 0.9087197462	 1.8394260047	-0.4489091782	 0.156039
H	-0.859034397	 1.8173876387	-0.5925961005	 0.156027
H	-0.1008104496	 1.7877268336	 1.0306413202	 0.17813
H	 0.0605770787	-3.7108643861	-0.1002182481	 0.169432
