19
gdb 58210	2.01462	1.33761	1.07935	4.2184	71.36	-0.2511	0.0165	0.2676	1220.7982	0.158185	-456.343482	-456.333323	-456.332379	-456.378499	37.334	
C	-0.300249865	 1.4796616779	 0.5836908186	-0.410749
C	-0.2396607913	-0.0098870644	 0.2585322705	 0.12568
O	-0.0280772187	-0.7920515621	 1.4393996921	-0.443419
C	-1.4693203235	-0.4820420452	-0.5781430695	-0.035268
N	-1.3237888236	-0.2601542483	-2.0160911359	-0.52158
C	-1.7510409038	-1.9929583697	-0.3624658601	-0.005673
O	-0.5864100919	-2.7829868155	-0.4561466846	-0.427079
C	-2.4641378109	-2.2089941961	 0.9154700168	 0.259751
N	-3.0140886046	-2.3397872665	 1.9242920897	-0.339235
H	 0.6061821784	 1.7944918602	 1.1066324992	 0.134583
H	-0.3977108799	 2.0811792384	-0.3261765843	 0.118364
H	-1.1635489658	 1.7010653511	 1.2227200305	 0.123578
H	 0.6513705693	-0.2119014949	-0.3461289581	 0.094795
H	-0.7616611007	-0.6560628699	 2.0515643546	 0.299411
H	-2.3613730545	 0.0677657953	-0.2513195345	 0.09852
H	-1.1577825414	 0.7216105503	-2.2129076738	 0.233792
H	-0.5121282655	-0.7722189163	-2.3535505566	 0.240216
H	-2.4134075969	-2.3132968327	-1.1725508978	 0.14813
H	-0.0445841496	-2.5357002214	 0.3090293429	 0.306183
