18
gdb 33196	6.24925	0.72575	0.67404	3.0353	75.34	-0.2212	0.0124	0.2336	1672.1113	0.147516	-439.109952	-439.101026	-439.100082	-439.145605	31.209	
C	 0.011113631	 1.4942687538	-0.1140982678	-0.386098
C	-0.0796442	 0.0005684199	 0.2095558214	-0.184857
C	-1.4778708724	-0.546642964	-0.0205412825	-0.068116
O	-1.4622820804	-1.9494585041	 0.3177051874	-0.2751
C	-2.5919180691	-2.6221016938	 0.1213561926	 0.393118
C	-2.8611211134	-3.8416723532	-0.405496531	-0.217295
N	-4.2239280049	-4.0962505347	-0.2684087995	-0.251717
C	-4.6946478348	-3.0434128203	 0.3064239008	 0.076584
O	-3.7650858055	-2.0881296418	 0.5888985245	-0.187867
H	 1.0234690566	 1.8685808786	 0.0601554915	 0.123863
H	-0.2408831298	 1.6931615848	-1.1613935787	 0.12107
H	-0.672150465	 2.0809465991	 0.509444473	 0.121273
H	 0.6261048257	-0.56723303	-0.4068605489	 0.113707
H	 0.1979421852	-0.1807404754	 1.2539626583	 0.115379
H	-2.2142363128	-0.0306579632	 0.6059546734	 0.122608
H	-1.7832126866	-0.4373131638	-1.0698368306	 0.109765
H	-2.1814413426	-4.5424176351	-0.8595703641	 0.125692
H	-5.7133764312	-2.8179490469	 0.5782930202	 0.147991
