17
gdb 125938	3.7903	1.34814	1.14202	4.1184	74.29	-0.2069	-0.0021	0.2049	1079.3864	0.138447	-417.996937	-417.989682	-417.988738	-418.028648	28.681	
C	 0.204520268	 1.4826757064	 0.0803994417	-0.395931
C	-0.061051974	-0.0197316405	-0.0463542676	 0.028134
C	 0.6640913751	-0.6416221727	-1.2901746754	-0.355648
C	 1.891559217	-1.2236197698	-0.6564091252	 0.383642
N	 3.033071102	-1.707173295	-1.0567734283	-0.24713
O	 3.6782783248	-2.089678862	 0.1202676777	-0.186043
C	 2.87844034	-1.8185320317	 1.1969215704	-0.071448
C	 1.727457971	-1.2624949722	 0.7497777196	 0.169081
N	 0.4709745512	-0.7843716113	 1.1260600321	-0.424053
H	 1.2802099226	 1.6867866238	 0.1144370998	 0.132699
H	-0.220536891	 2.0252157136	-0.7703788631	 0.123865
H	-0.2507888111	 1.885915322	 0.9916205303	 0.115298
H	-1.1398021936	-0.1912098867	-0.1103507174	 0.089022
H	 0.0545029432	-1.4289638758	-1.7462658013	 0.134651
H	 0.868964444	 0.1074012152	-2.0586150327	 0.130813
H	 3.2931529162	-2.0721658351	 2.1578592116	 0.138994
H	 0.4255497347	-0.2726591284	 1.9975027876	 0.234052
