17
gdb 124654	4.40602	0.99873	0.89989	0.4578	70.67	-0.252	-0.0245	0.2275	1310.8328	0.13633	-451.314627	-451.306079	-451.305135	-451.348514	30.803	
C	 0.1036582333	 1.505219133	 0.02203795	-0.399159
C	-0.0032670963	-0.0155384278	 0.0182934925	 0.145011
C	-1.4322172755	-0.5205098206	-0.1099575251	-0.39479
O	 0.7041828473	-0.5620353741	-1.1309694439	-0.268958
C	 2.0205132976	-0.6688514895	-1.0445487962	 0.499564
N	 2.7425222459	-1.1482943788	-2.0551084188	-0.313277
N	 3.9606754975	-1.0835086738	-1.5203638205	-0.056803
N	 4.0160937609	-0.609318991	-0.2934752817	-0.114105
N	 2.7750665478	-0.3336276837	 0.035506263	-0.285942
H	 1.1451187714	 1.82166627	 0.110807734	 0.144017
H	-0.3199125134	 1.9206295536	-0.8976881234	 0.124354
H	-0.4494861683	 1.9143646387	 0.87315795	 0.120969
H	 0.4651028882	-0.4216940638	 0.9203470873	 0.115942
H	-1.8889464086	-0.1519167741	-1.0335509533	 0.129684
H	-1.4580876248	-1.613017908	-0.1241777969	 0.128471
H	-2.0297967481	-0.1686871072	 0.7358231402	 0.121727
H	 4.786277955	-1.3766383628	-2.0202665474	 0.303294
