15
gdb 127010	5.41493	0.96417	0.8269	5.3541	71.13	-0.2562	-0.082	0.1743	1337.2753	0.111615	-450.076847	-450.068786	-450.067842	-450.110268	28.512	
C	 0.0187842766	 1.5172575821	-0.0563618794	-0.394971
C	-0.0105819758	 0.0048558951	 0.0249292013	-0.052274
O	 0.6621836297	-0.5000056983	-1.1567209844	-0.257786
C	 0.7581443256	-1.8125660376	-1.3005257342	 0.468862
C	 1.4068119832	-2.3256191076	-2.4396010324	-0.029377
N	 1.5119337415	-3.6221427967	-2.60017303	-0.161886
N	 0.9900473518	-4.4362050338	-1.6595128666	-0.067964
N	 0.392147995	-3.9564438775	-0.609940307	-0.06299
N	 0.258966491	-2.6404298235	-0.4000217502	-0.275391
H	 1.0469227064	 1.8885184252	-0.0781129581	 0.136539
H	-0.4974325349	 1.8713001909	-0.9527800898	 0.136552
H	-0.4820865138	 1.9391059294	 0.8196656505	 0.133517
H	 0.5071570375	-0.3744930209	 0.9108668264	 0.137814
H	-1.0302130578	-0.3912391479	 0.0427598578	 0.137796
H	 1.8288251041	-1.6750251488	-3.2001920638	 0.15156
