15
gdb 51063	5.29263	1.08	1.06673	3.8586	69.07	-0.2434	-0.0018	0.2417	1120.326	0.111161	-420.524086	-420.517004	-420.516059	-420.5562	27.002	
O	 0.0876514439	 0.001249955	-0.1407592106	-0.261555
C	 0.1176882388	 1.1848241739	-0.269557412	 0.150242
O	 1.0226928984	 1.9615005748	 0.3875675633	-0.229958
C	 0.9222428404	 3.3296883363	 0.2154689027	 0.419097
C	 0.1251911656	 4.4170827892	 1.0080391916	-0.176136
C	 0.1061374035	 5.2835067952	-0.2451212853	-0.076562
C	 1.2552655467	 5.4029493373	 0.7452254656	-0.080789
C	 2.0438929343	 4.3081217997	-0.0339410646	-0.160152
C	 0.8886089777	 4.1948540415	-1.0384042052	-0.183053
H	-0.5479030408	 1.7784943072	-0.9209342864	 0.092853
H	-0.5780709758	 4.3672490234	 1.8277471858	 0.103745
H	-0.6285556621	 6.0145316604	-0.5549518025	 0.096697
H	 1.5807303825	 6.2453143521	 1.3405435698	 0.097159
H	 3.0968078551	 4.1169269276	-0.1861436618	 0.105954
H	 0.9253877319	 3.9273469464	-2.0854936504	 0.102459
