21
gdb 122081	2.10498	0.89453	0.65619	3.3347	80.65	-0.2508	0.019	0.2698	1748.2941	0.181212	-420.408614	-420.39767	-420.396726	-420.445797	37.896	
C	 0.1050846558	 1.5159851089	-0.1046427807	-0.384616
C	-0.0546281829	 0.0076003545	 0.1021592977	-0.185797
C	 0.8227802603	-0.5133092769	 1.2302761467	-0.053457
O	 0.6142407132	-1.9172545166	 1.3498708139	-0.254166
C	 1.3385898071	-2.5341200366	 2.3889721375	-0.000395
C	 0.7713437753	-3.9460249618	 2.5698004789	-0.16936
N	-0.6137876908	-3.8340944032	 3.013317537	-0.51653
C	 2.7873263359	-2.5789725466	 2.084216478	 0.268202
N	 3.9168863629	-2.6090940642	 1.8422796737	-0.325973
H	 1.1390071891	 1.7770045384	-0.3547962796	 0.123439
H	-0.5326135924	 1.8675142753	-0.9203805601	 0.121256
H	-0.1699968573	 2.0748691509	 0.7965025527	 0.119128
H	-1.0989340002	-0.2370939543	 0.3282979438	 0.105954
H	 0.2033542767	-0.5317901188	-0.8161132675	 0.113675
H	 1.8836072292	-0.3079135923	 1.0213720758	 0.113606
H	 0.5698040887	-0.0185813879	 2.1821123697	 0.095586
H	 1.205406432	-1.9821089325	 3.3324267029	 0.121529
H	 0.9185615383	-4.4906787517	 1.623354505	 0.109679
H	 1.3566473864	-4.4580050288	 3.340370396	 0.12417
H	-1.1593386329	-3.4017161386	 2.2743707654	 0.240272
H	-1.0034333944	-4.7578638572	 3.1683444534	 0.233799
