17
gdb 24601	4.45742	1.14796	1.05046	1.7802	74.03	-0.2189	0.026	0.2448	1150.8661	0.13912	-418.021141	-418.013781	-418.012837	-418.053664	27.664	
C	-0.0858358506	 1.3442907907	-0.2964516602	-0.095279
O	 0.9069220975	 1.6649548418	 0.706468056	-0.282061
C	 1.3786976032	 0.2969653027	 0.6899318364	-0.095277
C	 0.0761523281	-0.172760609	-0.0113038726	-0.13692
C	-0.9467376828	-0.7330840943	 0.9125069803	 0.356499
N	-1.630104958	-1.8451426183	 0.74651438	-0.320931
C	-2.4469306764	-1.9468043754	 1.851235072	-0.095265
C	-2.2548139219	-0.8851196854	 2.6933759606	-0.107832
N	-1.2913180095	-0.1124050366	 2.0830409059	-0.275881
H	-1.0582176078	 1.7969868693	-0.0803115939	 0.112949
H	 0.2444605361	 1.6415026226	-1.3005412489	 0.106898
H	 2.2774504664	 0.1876591593	 0.0687053098	 0.106897
H	 1.5773374543	-0.0877660777	 1.6947703871	 0.11295
H	 0.1799708511	-0.8353965282	-0.8690206097	 0.10736
H	-3.1241666157	-2.7780980342	 1.9741157701	 0.10643
H	-2.6942574349	-0.6102846245	 3.6376876811	 0.126904
H	-0.899045369	 0.7529871572	 2.419462286	 0.272559
