20
gdb 63896	2.38046	1.66688	1.35582	3.2432	78.31	-0.2291	-0.0178	0.2113	1053.1023	0.171193	-403.160502	-403.151903	-403.150959	-403.193215	33.608	
C	-0.2802358222	 1.5397860933	 0.0986582724	-0.429641
C	-0.0200174139	 0.0247886912	-0.0402441292	 0.166967
C	-1.35530366	-0.7311424836	-0.0801875733	-0.424068
C	 0.8912516041	-0.3121452506	-1.258588499	-0.261408
C	 2.2899900426	-0.543839249	-0.7019208748	-0.035001
N	 2.7721332596	 0.5812921696	 0.1048386947	-0.330671
C	 2.229010916	-0.6381517698	 0.7829175223	-0.16935
C	 0.7961573197	-0.4510242889	 1.1888518858	 0.443923
O	 0.3349712368	-0.6959827366	 2.2759485764	-0.345401
H	 0.6565169047	 2.1000003379	 0.1147552773	 0.145242
H	-0.8851147261	 1.8931110079	-0.7439320318	 0.108374
H	-0.8294322205	 1.7472130802	 1.0222588054	 0.125464
H	-1.9665737906	-0.3849738416	-0.9201646503	 0.109433
H	-1.2037910693	-1.8098658056	-0.1915644829	 0.110431
H	-1.9087110665	-0.5663786839	 0.8480001504	 0.135333
H	 0.5458041635	-1.2301141019	-1.7465996379	 0.101799
H	 0.8866119439	 0.4826930752	-2.0111434872	 0.108577
H	 3.006271149	-1.1317419014	-1.2670691525	 0.095013
H	 3.7868706292	 0.5399203169	 0.174790673	 0.24092
H	 2.8851202799	-1.2504851396	 1.3897610613	 0.104065
