17
gdb 112377	2.77341	1.26949	0.92493	2.57	70.58	-0.2538	-0.0072	0.2466	1243.8271	0.136943	-455.239511	-455.230835	-455.229891	-455.273821	31.078	
C	-0.1995795557	 1.569567875	-0.117989449	-0.380988
C	 0.1580406974	 0.0835628761	-0.0373284336	-0.15313
N	 0.7956400796	-0.422741462	-1.2387722217	-0.119762
C	 0.1256955452	-0.6329566582	-2.5045363527	-0.316634
C	 1.219240819	-1.2476622073	-3.3874800892	 0.433539
O	 1.12929376	-1.5842032638	-4.5404617348	-0.350673
N	 2.3249420682	-1.3282238949	-2.571717071	-0.405384
C	 2.0985656574	-0.8496821162	-1.2644342414	 0.488352
O	 2.9097151213	-0.8341046332	-0.3689570186	-0.405923
H	 0.6968233206	 2.17541121	-0.2780015361	 0.134998
H	-0.90222264	 1.7736841727	-0.9324548266	 0.120244
H	-0.6713943749	 1.8925578612	 0.8148767288	 0.125894
H	 0.8651697543	-0.0957884817	 0.7760150096	 0.151075
H	-0.7423972088	-0.511557316	 0.1666029705	 0.107375
H	-0.7227347547	-1.3253786742	-2.425113801	 0.144597
H	-0.2391127408	 0.2944762564	-2.9619226884	 0.148156
H	 3.218289502	-1.696811914	-2.8566289949	 0.278264
