21
gdb 86030	2.92264	1.06737	0.94006	1.9479	84.66	-0.2409	0.0494	0.2904	1359.1558	0.179217	-387.055349	-387.045319	-387.044374	-387.090423	37.589	
C	 0.5625112146	 1.4954467373	 0.2186183455	-0.399875
C	 0.0315236293	 0.0931638435	-0.0017787466	 0.173286
C	 0.4802024745	-0.6797444614	-1.2604463446	-0.362597
C	 1.0022851368	-1.7408249031	-0.2598290761	 0.431957
C	 0.2096731419	-3.0402952388	-0.2168550155	-0.435234
C	 2.523845954	-1.9791514843	-0.3231192719	-0.399978
C	 3.0492804899	-2.7772115418	 0.7773943221	 0.315816
C	 3.4806197928	-3.4372435428	 1.6844949051	-0.446077
O	 0.660557989	-0.8838862669	 0.8633816983	-0.334759
H	 1.6432952742	 1.5360633189	 0.0509869451	 0.116698
H	 0.0760720244	 2.2006597452	-0.4645952565	 0.11448
H	 0.3636569105	 1.8209319429	 1.244560106	 0.129112
H	-1.058031071	 0.0810399828	 0.1430232627	 0.073019
H	-0.3091799942	-1.0120576668	-1.9365790782	 0.105225
H	 1.2621229024	-0.1786871	-1.8369243413	 0.101885
H	 0.4077285986	-3.6463843101	-1.1080955815	 0.111276
H	 0.4858249499	-3.6230599719	 0.665576102	 0.141431
H	-0.8626772054	-2.8304409306	-0.1736309569	 0.115479
H	 2.7569974954	-2.4667413477	-1.2797199425	 0.126553
H	 3.0234391186	-1.0036902967	-0.3366423822	 0.127794
H	 3.8637719738	-4.0138138378	 2.489419457	 0.194509
