19
gdb 117567	2.23126	1.08651	0.77025	1.6585	78.64	-0.265	0.0292	0.2942	1496.0816	0.155536	-422.953301	-422.943181	-422.942237	-422.989428	35.616	
C	-0.119344792	 1.5632046495	-0.0541109716	-0.385367
C	-0.1750178696	 0.047788865	-0.1322224496	-0.037966
O	 0.7934948874	-0.3808328397	-1.0798659199	-0.248223
C	 0.8734161553	-1.7850833645	-1.2418483706	-0.08158
C	-0.3487998457	-2.3584972485	-1.8236196929	 0.336025
C	-1.3432255689	-2.818782596	-2.3172327871	-0.466806
C	 2.0759318491	-2.0446892498	-2.1352556379	 0.079671
C	 3.408341442	-2.2306340418	-1.5576620846	-0.177263
O	 2.6489636761	-3.342945507	-2.0429289439	-0.230814
H	 0.8758192383	 1.8987736206	 0.251201001	 0.125574
H	-0.3468433228	 2.0055975994	-1.0280038971	 0.129884
H	-0.848984748	 1.9312834792	 0.6733168007	 0.117265
H	 0.0427619474	-0.4025474365	 0.8505225906	 0.086861
H	-1.1757713457	-0.2921387269	-0.4340195101	 0.106137
H	 1.0630736023	-2.274892726	-0.2717548874	 0.097547
H	-2.2202643344	-3.2345005856	-2.7488874213	 0.202268
H	 1.981794314	-1.6468429236	-3.1447871876	 0.109665
H	 4.2893707537	-1.9735966452	-2.1427373588	 0.120092
H	 3.5356028315	-2.1871349026	-0.4769660119	 0.11703
