20
gdb 116797	3.56413	0.73396	0.66695	4.1073	80.83	-0.2376	-0.0256	0.212	1768.3315	0.166967	-440.296686	-440.285959	-440.285015	-440.333897	36.925	
C	 0.8270868282	 1.2922426578	-0.8179903009	-0.399252
C	-0.0234116407	 0.0646391167	-0.4743039358	-0.10844
N	 0.5617715854	-1.2571738053	-0.6230004039	-0.234246
C	 1.7397774087	-1.3930435149	-1.028488728	 0.14873
O	 2.2676935743	-2.6432163014	-1.1362823532	-0.18968
C	 3.5668098282	-2.7293780548	-1.662917535	-0.199993
C	 3.6471894539	-2.4281075052	-3.1642063993	 0.371463
C	 4.9366367605	-2.8470125637	-3.842783124	-0.48152
O	 2.742490158	-1.8807010179	-3.7443408328	-0.27439
H	 1.7203556386	 1.3597591611	-0.1872227243	 0.113889
H	 1.1477427359	 1.2836762077	-1.8650663283	 0.128155
H	 0.239673756	 2.2012801591	-0.6571627483	 0.113784
H	-0.3724987522	 0.1443983975	 0.5640140058	 0.110202
H	-0.936288495	 0.0774185723	-1.0844526648	 0.114844
H	 2.4378623798	-0.5941860028	-1.3001542575	 0.078941
H	 4.2683551973	-2.0513291842	-1.147810448	 0.12439
H	 3.9160081692	-3.748731792	-1.4700400999	 0.139379
H	 5.8109131579	-2.5617139446	-3.2476255564	 0.138134
H	 4.9586844379	-3.9388874987	-3.9412245876	 0.152783
H	 4.9958290082	-2.3982384867	-4.8347537777	 0.152829
