15
gdb 46239	2.80754	1.36558	1.0767	4.9101	73.83	-0.2423	0.0104	0.2526	1112.5925	0.111504	-416.752747	-416.744274	-416.74333	-416.786313	30.865	
O	-0.10552542	 0.0081489511	 0.1829160754	-0.351824
C	-0.0454053641	 1.2020998051	 0.1184481691	 0.412789
N	-1.0021430992	 2.1990980832	 0.0849946723	-0.346143
C	-0.0757523386	 3.3320523817	 0.0223928564	-0.239633
C	 1.0508617148	 2.2759493602	 0.0223839347	 0.18226
N	 2.315988981	 2.2651585372	 0.7221701744	-0.3511
C	 2.321530094	 2.282314879	-0.7623939183	-0.34745
C	 2.8194401197	 1.1242447039	-1.4492809147	 0.40156
C	 3.2442563677	 0.1811157036	-2.0600600081	-0.419901
H	-2.0090836425	 2.1589071121	 0.0824180819	 0.25792
H	-0.1568586729	 3.9393311443	-0.8852249653	 0.12156
H	-0.0966375531	 3.9796064446	 0.9068155399	 0.118355
H	 2.5386731293	 3.1912442136	 1.0814246673	 0.242567
H	 2.556050134	 3.2314860606	-1.2424971613	 0.116054
H	 3.6051620299	-0.66977247	-2.5829055536	 0.202985
