19
gdb 72927	2.56571	1.98569	1.53901	1.6839	73.07	-0.2363	0.0795	0.3158	928.048	0.161448	-422.987312	-422.980426	-422.979482	-423.018085	29.399	
O	 0.111750967	 1.3246107826	-0.0770711747	-0.499454
C	 0.0528498237	-0.0729707759	-0.0135781718	 0.487743
C	 0.3688593161	-0.7759266192	-1.3527382908	-0.293708
C	-0.9856525691	-1.5494472003	-1.2647784722	-0.250159
C	-1.3379151938	-0.8012928066	 0.0553658478	-0.083927
C	-1.1347839518	-1.4761506892	 1.4262229087	 0.061773
C	 0.2675536325	-2.1213632386	 1.3605642823	-0.250328
C	 0.628118533	-0.6267293284	 1.3108522884	-0.014808
O	-0.5252946575	-0.3672556047	 2.1908721185	-0.319504
H	-0.2495239159	 1.6469518791	 0.7590575338	 0.279742
H	 0.4044521663	-0.0581045628	-2.1740414351	 0.118358
H	 1.2799275233	-1.3799244915	-1.3755317705	 0.09796
H	-1.6701881656	-1.3301080062	-2.0861867983	 0.106796
H	-0.9025087615	-2.6354906875	-1.1779300331	 0.101074
H	-2.2256344047	-0.1685345841	 0.0253313994	 0.076357
H	-1.9810516745	-1.9402386183	 1.9324542842	 0.081719
H	 0.5467189925	-2.5631857077	 2.3173989579	 0.115033
H	 0.534794049	-2.779613193	 0.5325610788	 0.103317
H	 1.569710621	-0.2109114678	 1.6706419767	 0.082016
