16
gdb 98251	2.61037	1.23731	0.94146	5.401	62.56	-0.268	-0.0104	0.2576	1234.1049	0.122217	-512.219562	-512.209807	-512.208863	-512.254906	34.068	
C	-0.1708804426	 1.3546527031	 0.0877257187	-0.247276
O	-0.1120792639	-0.0690614727	-0.0954735847	-0.24731
C	 0.6991903929	-0.4879377782	-1.1039107667	 0.401774
O	 1.3228796771	 0.2485471777	-1.8113502791	-0.327263
C	 0.6819823408	-2.0214989167	-1.177519727	-0.063488
O	 1.1456399384	-2.4744584535	-2.4003586569	-0.407972
C	 1.5576897937	-2.6279219129	-0.0465831524	 0.369084
N	 1.1950090967	-2.3368903328	 1.2206630322	-0.513929
O	 2.491466583	-3.346506495	-0.3542570613	-0.366429
H	 0.8153611703	 1.7512043805	 0.3413838216	 0.145965
H	-0.5211423853	 1.8393426926	-0.8260563497	 0.153116
H	-0.8740324855	 1.5219116977	 0.9035099917	 0.135237
H	-0.3566914803	-2.3390137206	-1.0018603483	 0.121215
H	 1.9542252819	-2.9752119202	-2.190016744	 0.300972
H	 0.4942057368	-1.6359018575	 1.3985019829	 0.275275
H	 1.7733683163	-2.6688779815	 1.975267613	 0.27103
