20
gdb 77726	2.65202	1.63783	1.50801	2.5029	78.72	-0.2262	0.0698	0.296	1007.4024	0.172242	-403.088523	-403.08072	-403.079776	-403.120294	31.11	
C	-0.1676099794	 1.3797194678	-0.0451703706	-0.321389
N	 0.1557650711	-0.0293149741	 0.0904304435	-0.118854
C	 1.4818055855	-0.5547419408	-0.1447870488	 0.18089
C	 2.6304349728	 0.3572427403	 0.3546220347	-0.290508
C	 1.9890401743	 0.3467716763	 1.7759347201	-0.290507
C	 0.8596301257	-0.5648791085	 1.2339064381	 0.180886
C	 0.5396890663	-2.0069750817	 1.543863293	-0.135034
O	 0.6397026516	-2.6952267004	 0.2892234675	-0.256404
C	 1.5104947973	-1.991160194	-0.607339716	-0.135038
H	 0.6058548275	 2.0766687879	 0.3091809947	 0.105466
H	-0.3581003254	 1.5937757716	-1.1011903507	 0.12693
H	-1.0868364854	 1.5818659785	 0.5129022099	 0.12693
H	 3.5964626856	-0.150678961	 0.3272625604	 0.111289
H	 2.7335648462	 1.3227235875	-0.1485200883	 0.104849
H	 2.6104823035	-0.166798809	 2.5121402557	 0.11129
H	 1.6747080495	 1.3054375801	 2.19794869	 0.104849
H	 1.2646625241	-2.3969748025	 2.276795964	 0.08573
H	-0.4713315653	-2.1905669286	 1.919931863	 0.111448
H	 1.1245844431	-2.1645733025	-1.6164469288	 0.111447
H	 2.5418700217	-2.3761639667	-0.5533561913	 0.08573
