17
gdb 45247	3.11548	1.74961	1.3955	3.131	72.1	-0.241	0.016	0.257	939.9058	0.138638	-417.981149	-417.974376	-417.973431	-418.012327	27.215	
N	-0.0936306665	 1.1648753624	-0.8111875021	-0.541068
C	-0.0486178049	 0.0812510008	-0.1856166778	 0.427392
O	 0.9695236063	-0.4833052242	 0.5649292475	-0.274826
C	 0.210798953	-1.7346603799	 0.730877473	 0.10738
C	-0.1954733783	-2.0684016464	 2.164601882	-0.271447
C	-1.5700043961	-1.4313126582	 2.3457481328	-0.011804
C	-1.6990018888	 0.0333627651	 2.1763267336	-0.247371
N	-2.0622866011	-0.8629232748	 1.0616526235	-0.106389
C	-1.0115994562	-1.0702536144	 0.0465656591	-0.123687
H	 0.783363934	 1.6824934837	-0.7240165233	 0.229368
H	 0.7282003902	-2.5396872787	 0.2061083297	 0.101635
H	-0.2651917509	-3.154593623	 2.2797729689	 0.117163
H	 0.5479741607	-1.707840855	 2.8818001315	 0.131258
H	-2.3045347282	-1.9738570039	 2.9343879644	 0.097014
H	-2.5443455717	 0.5606534212	 2.6086296756	 0.12302
H	-0.7890409522	 0.6228304436	 2.109534771	 0.133593
H	-1.4407796393	-1.5334966083	-0.8417475292	 0.108769
