27
gdb 93669	2.10717	1.46147	1.14668	0.1247	94.43	-0.284	0.0706	0.3546	1284.7404	0.252216	-353.586729	-353.576399	-353.575455	-353.620846	41.213	
C	 0.701671932	 1.6063134289	-0.2181144435	-0.403792
C	 0.1530254919	 0.1810119961	-0.0761867477	 0.022667
C	 0.5761746854	-0.7288390085	-1.2652859131	-0.228734
C	 0.9577605229	-2.0809393725	-0.6427508983	-0.227006
C	 1.5586693741	-1.7293348772	 0.7371871485	 0.294282
C	 1.5461602267	-2.9371478106	 1.6833481257	-0.439075
C	 3.0094499227	-1.2330237428	 0.5829265987	-0.426668
C	 0.58162723	-0.6085735143	 1.2129130128	 0.029305
C	 1.058316916	 0.2419394585	 2.3920356812	-0.427798
H	 1.7968599954	 1.6262758405	-0.2355929695	 0.114743
H	 0.3540683103	 2.0501647057	-1.1576653453	 0.108891
H	 0.3696624141	 2.2589833316	 0.5952873547	 0.110338
H	-0.9399530742	 0.2643037842	-0.0626044447	 0.065774
H	-0.2108637107	-0.8216190811	-2.0194954002	 0.09003
H	 1.4421105342	-0.2911652695	-1.7750601611	 0.093678
H	 0.0595071695	-2.6940086789	-0.4951075473	 0.085978
H	 1.6436625301	-2.6627838734	-1.2677091662	 0.084716
H	 2.1737288197	-3.7472048553	 1.2944641452	 0.106803
H	 1.9299983923	-2.6773433189	 2.676396148	 0.108602
H	 0.5320491842	-3.3324537155	 1.8091882965	 0.105607
H	 3.0893934919	-0.369986523	-0.08406437	 0.113349
H	 3.4387588017	-0.9457332492	 1.5477715522	 0.111309
H	 3.6393102159	-2.02816924	 0.1683891217	 0.107398
H	-0.316520038	-1.140736795	 1.5544285824	 0.062261
H	 1.9295280615	 0.8533076977	 2.1411917385	 0.117844
H	 0.2681553207	 0.9202820363	 2.7312190455	 0.110037
H	 1.3298825197	-0.3893805038	 3.2448604254	 0.109462
