23
gdb 96022	2.53815	1.14383	0.89616	0.8412	90.67	-0.2565	0.0578	0.3142	1392.5343	0.205855	-351.14436	-351.134626	-351.133682	-351.179146	37.016	
C	-0.55115166	 1.4516616875	-0.0844660275	-0.420479
C	-0.0206852592	 0.0193701701	-0.0259524295	 0.040577
C	 1.0585167574	-0.3062046808	-1.0858540316	-0.209524
C	 1.8676899786	-1.5050381109	-0.5168791525	-0.207529
C	 1.2983057596	-1.7614583478	 0.9032486099	-0.21545
C	 0.6124089222	-0.443351841	 1.3110407046	 0.003482
C	 1.6125808718	 0.5831861638	 1.9008338211	-0.372783
C	 2.2164652202	 0.1364249228	 3.1504882056	 0.300767
C	 2.6985028042	-0.2462295329	 4.1835752022	-0.437896
H	 0.2533043347	 2.1879494891	 0.017228558	 0.115646
H	-1.0435984747	 1.6424023052	-1.0439214119	 0.112194
H	-1.2849341455	 1.6430223585	 0.7063676971	 0.112222
H	-0.8694648397	-0.6568117422	-0.1988278288	 0.069804
H	 0.6100359862	-0.5248654378	-2.0593633985	 0.094539
H	 1.7089661405	 0.5631685481	-1.2369955923	 0.093826
H	 1.7801578707	-2.3954775807	-1.1452143564	 0.09711
H	 2.9341971578	-1.2646737359	-0.472918681	 0.100958
H	 0.5459440481	-2.5569114435	 0.8663944218	 0.093698
H	 2.0608266829	-2.0756096645	 1.6204387986	 0.108418
H	-0.1601795122	-0.6169892633	 2.0676116742	 0.07275
H	 2.4062961009	 0.7974195376	 1.1732728789	 0.127305
H	 1.0994351404	 1.5357392343	 2.0774393947	 0.129204
H	 3.1298962252	-0.5736698857	 5.0966210834	 0.191161
