18
gdb 99819	1.78324	1.5492	1.2369	3.1299	74.39	-0.2433	0.0103	0.2536	1150.285	0.143934	-439.085689	-439.075145	-439.074201	-439.120987	38.488	
C	 0.2677374249	 1.5011510142	-0.0712292492	-0.405874
C	 0.0437467124	-0.0064572273	 0.0580526603	-0.184725
C	-1.44985091	-0.4018150816	 0.0650319309	 0.068137
O	-2.134867729	 0.1203771252	-1.0854176575	-0.468003
C	-1.5947283602	-1.8594253546	 0.1081558213	 0.332491
C	-1.7051737791	-3.0562736838	 0.0881867427	-0.470488
C	-2.1376215413	 0.1870159488	 1.3362919675	 0.389125
N	-3.376265767	 0.6816051666	 1.1123951323	-0.521313
O	-1.583968806	 0.1588486038	 2.41607024	-0.374713
H	 1.3371466629	 1.7201457505	-0.1395035664	 0.11272
H	-0.221073581	 1.8952188765	-0.9659722449	 0.123207
H	-0.1255132054	 2.0322550057	 0.8004449973	 0.135264
H	 0.522370796	-0.5391059875	-0.771571038	 0.091891
H	 0.4808540056	-0.3826604382	 0.9861758657	 0.137698
H	-2.0117858531	-0.5060650417	-1.8060490123	 0.291266
H	-1.8078294914	-4.1136138574	 0.09305399	 0.204584
H	-3.7192387055	 0.7542190178	 0.1699238399	 0.275744
H	-3.8687565328	 1.1114999531	 1.8771670805	 0.262988
