17
gdb 67972	2.29381	1.78961	1.30399	4.0653	67.31	-0.2303	-0.0357	0.1946	1001.0975	0.135318	-458.964275	-458.956393	-458.955449	-458.996758	30.481	
O	-0.0218637478	 1.376828423	-0.3105517216	-0.482459
C	 0.0578857858	 0.0110543064	 0.0178233618	 0.375646
C	 0.4651225889	-0.9514761667	-1.144912058	-0.427053
C	-0.8245220713	-1.7484410804	-0.8821747479	 0.38201
O	-1.2331328284	-2.8101892969	-1.2482734983	-0.287167
C	-1.3389402417	-0.6849683858	 0.1393643657	-0.039439
O	-1.5260782897	-1.1232361193	 1.4599304598	-0.242435
C	-0.2225774598	-1.3813669063	 1.9861604066	-0.099311
C	 0.6823951773	-0.2818451838	 1.3978032649	-0.299868
H	 0.87285861	 1.7189237892	-0.4105352058	 0.282487
H	 0.4389205819	-0.4444219238	-2.1151474405	 0.139201
H	 1.3998357589	-1.5123828406	-1.0562029985	 0.1254
H	-2.2064156991	-0.1095902932	-0.1929169058	 0.117273
H	-0.2929156538	-1.3570641717	 3.0754579029	 0.121441
H	 0.1205713993	-2.3826438134	 1.6841707987	 0.109296
H	 1.7330807366	-0.5813999217	 1.3533005731	 0.103366
H	 0.5994045131	 0.6306624351	 1.9948753829	 0.121613
