20
gdb 87413	3.35188	1.505	1.28333	1.6238	82.48	-0.2358	0.0792	0.315	1056.9623	0.171632	-365.929805	-365.922175	-365.921231	-365.961599	30.917	
C	-0.0685785361	 1.5590614823	 0.0038499448	-0.408281
C	-0.0203343753	 0.0506596762	 0.1127599927	-0.078539
C	 1.2786755976	-0.7037844255	-0.158221828	-0.385859
C	 0.7141641608	-0.6301344398	 1.2200903366	 0.444036
C	 1.3672668921	-0.1211080962	 2.4973154952	-0.188274
C	 0.131630183	 0.1041489864	 3.4173215222	-0.242
C	-0.0806406058	-1.4053379469	 3.3060253549	-0.04012
C	 1.3327003637	-1.640027956	 2.9351108701	-0.047211
N	 0.2734023797	-1.8685612211	 1.9094235253	-0.190458
H	 0.8501050505	 2.0139704869	 0.3895827657	 0.111943
H	-0.179908308	 1.877589601	-1.0385317169	 0.118596
H	-0.9079601608	 1.9773003944	 0.5706194527	 0.117543
H	-0.9196024515	-0.4645882491	-0.2165489601	 0.091441
H	 1.2188554046	-1.6548130462	-0.6765668362	 0.119552
H	 2.1654287364	-0.1175883839	-0.3823025275	 0.106519
H	 2.2146955981	 0.5612902798	 2.5039704094	 0.074583
H	 0.4228618061	 0.3762145852	 4.4353413511	 0.103189
H	-0.6495242623	 0.7808803503	 3.0560013665	 0.09902
H	-0.7624112096	-2.0413874865	 3.8550950829	 0.097171
H	 2.0765373569	-2.3724597412	 3.2188519686	 0.097147
