20
gdb 112090	3.02954	1.27383	0.99366	1.92	80.23	-0.2284	0.0246	0.2531	1220.3428	0.173154	-403.130554	-403.122216	-403.121272	-403.163617	32.295	
O	 0.2790431453	 1.2671884938	-0.104899407	-0.425624
C	 0.0261709152	-0.1303661335	-0.0926061722	-0.073786
C	-1.4570521158	-0.4781641014	 0.1645244034	-0.048741
C	-2.3631129582	 0.11178907	-0.8832641673	-0.061461
C	-3.3245687776	-0.5441646283	-1.5290803677	-0.060286
C	-3.6751600566	-1.9890918609	-1.3049752923	-0.26435
C	-2.6907764594	-2.7184998775	-0.4151896697	-0.032368
N	-1.3016127244	-2.7813424748	-0.8987763851	-0.332673
C	-1.6181338428	-1.980926698	 0.3029361128	-0.054154
H	 0.0343274605	 1.6032765625	-0.9713994	 0.286219
H	 0.3479404878	-0.6118407052	-1.0246373789	 0.112022
H	 0.6356637225	-0.5404890965	 0.721017615	 0.098143
H	-1.7175303668	-0.020949181	 1.1312357054	 0.086576
H	-2.2113218794	 1.1682478751	-1.0926116174	 0.076086
H	-3.9287292563	-0.015983557	-2.2631763491	 0.083951
H	-4.6765291575	-2.0511158883	-0.8540809906	 0.10828
H	-3.7527205028	-2.5098686018	-2.2695090008	 0.11238
H	-3.0836648307	-3.6094136566	 0.0707311519	 0.080459
H	-0.8759674878	-3.663464709	-0.6283057086	 0.229026
H	-1.2962021252	-2.3857332818	 1.260771848	 0.080301
