17
gdb 84267	3.17832	1.45927	1.10153	2.9004	75.31	-0.249	-0.0253	0.2237	1086.3704	0.136156	-421.819447	-421.811724	-421.81078	-421.851723	29.869	
O	 0.2571275734	 1.4102949833	-0.054986096	-0.442152
C	 0.1444248592	 0.0135654105	 0.0145571268	 0.037349
C	 0.6646408788	-0.6004048974	 1.3105863272	-0.266775
C	-0.1063224509	-1.6352982728	 1.6449776862	 0.287288
C	-0.7045866877	-2.3818808	 2.8133513678	-0.313017
C	-2.1036893512	-2.1307673229	 2.1225512255	-0.241411
C	-1.344246373	-1.7932646729	 0.7960447994	-0.161033
C	-1.3504426744	-0.4319284014	 0.1039585981	 0.321675
O	-2.2648088306	 0.3039077787	-0.1571574696	-0.312579
H	-0.6425378068	 1.7406007168	-0.1978474105	 0.293794
H	 0.6078735503	-0.4438215921	-0.8766466662	 0.09559
H	 1.4593041103	-0.1401758916	 1.8845962979	 0.113445
H	-0.46058164	-3.449382831	 2.8209993045	 0.119584
H	-0.5395966258	-1.974216202	 3.8134580657	 0.119699
H	-2.7904939281	-2.9782364502	 2.0924876996	 0.112909
H	-2.6175585507	-1.2595832515	 2.5334324	 0.128742
H	-1.3509538627	-2.6118807734	 0.0681624536	 0.106892
