25
gdb 104718	2.34246	1.10181	0.89547	1.3355	89.1	-0.2613	0.0721	0.3334	1466.1407	0.227269	-389.487554	-389.476747	-389.475803	-389.523402	40.405	
C	 0.689431538	-0.4698140383	 1.4750147387	-0.393247
C	 0.0421529386	-0.1709653027	 0.1178118847	-0.241442
C	-1.4072561547	-0.6477052867	-0.0282834709	 0.364094
C	-2.3404329935	 0.0174330032	 0.9800878229	-0.129831
O	-2.2855676652	 1.4250163795	 0.7863180453	-0.426997
C	-1.9921666942	-0.5761857257	-1.473659181	-0.282209
C	-2.5382730146	-2.0239606093	-1.3182651322	 0.058295
C	-2.3493243703	-2.9960074225	-2.4734350373	-0.406488
C	-1.6398177007	-2.1920429367	-0.0587914884	-0.293608
H	 1.7490880919	-0.1958257307	 1.4670661596	 0.110105
H	 0.2146472681	 0.0938311317	 2.2841801491	 0.118994
H	 0.6260108821	-1.5348293614	 1.7261714892	 0.112195
H	 0.0753559891	 0.9074355509	-0.0737293509	 0.112906
H	 0.6348374741	-0.6473354252	-0.6735954045	 0.081739
H	-3.3658186189	-0.3587219847	 0.8354144056	 0.079595
H	-2.0374451942	-0.2547169441	 2.0034731647	 0.083904
H	-2.8851295405	 1.840009367	 1.4127236691	 0.286504
H	-2.7113433777	 0.2234551205	-1.6663152701	 0.101372
H	-1.2010306624	-0.5177879581	-2.2285775862	 0.087326
H	-3.5948316501	-2.004879918	-1.0302431255	 0.06646
H	-1.2988233822	-3.03491241	-2.7845635756	 0.108782
H	-2.6516911107	-4.0122657989	-2.1954873755	 0.110406
H	-2.9428330881	-2.6988957037	-3.3456453479	 0.112232
H	-0.7156741542	-2.7349553826	-0.2844433891	 0.091684
H	-2.0954007598	-2.6486109535	 0.8259979862	 0.087229
