18
gdb 104758	2.82219	1.09612	0.92094	5.9212	73.61	-0.265	0.0202	0.2853	1279.6843	0.146795	-439.076238	-439.066759	-439.065814	-439.110648	34.508	
O	 0.2666009874	 1.2541224177	-0.4927617636	-0.422549
C	 0.0871921978	 0.0399695014	 0.2061067217	-0.137846
C	-1.342335242	-0.4764345688	 0.099159749	 0.305854
C	-2.3433138896	 0.2591123418	 0.9626319965	-0.156508
O	-2.3291364863	 1.634791142	 0.5772316959	-0.420032
C	-1.79644051	-1.0029934904	-1.2278890171	-0.297197
C	-1.6031249496	-1.9716112158	-0.0702001676	-0.246133
C	-0.5176110513	-2.9117972019	-0.0814861122	 0.296522
N	 0.3519675264	-3.675184687	-0.0852003882	-0.342073
H	-0.4499282624	 1.8372504664	-0.210057254	 0.291482
H	 0.7848150629	-0.6813579488	-0.2295604336	 0.127254
H	 0.3517751307	 0.139927134	 1.2724738112	 0.087642
H	-3.3494926941	-0.1683760796	 0.8347856819	 0.095108
H	-2.0634856011	 0.1521469962	 2.0211468937	 0.107903
H	-2.7783414096	 2.1504105135	 1.2535694208	 0.299327
H	-2.8175028644	-0.8237406981	-1.5455021508	 0.130035
H	-1.0665484946	-1.0307240467	-2.0280131009	 0.150891
H	-2.5035572902	-2.3612344758	 0.3951092177	 0.13032
