19
gdb 108953	3.39743	1.18231	1.14761	1.4279	76.89	-0.2089	0.0587	0.2676	1186.3747	0.159969	-419.211274	-419.202375	-419.201431	-419.245129	32.614	
C	 0.0151214951	 1.3955537379	-0.112476016	-0.318783
N	-0.0749748317	-0.0392283492	 0.094246154	-0.377121
C	 0.6427884839	-0.6173949699	 1.0940555966	 0.486648
N	 1.2416951295	-0.0306284591	 2.0642984638	-0.359671
C	 1.739673915	-1.0872832019	 2.9086369272	-0.0461
C	 0.7343463202	-2.0436385578	 3.5444120433	-0.056695
C	-0.7338596739	-1.7353473165	 3.7226364692	-0.413702
C	 1.3629298927	-2.3876155508	 2.2183824402	 0.028503
O	 0.6625331351	-1.986230843	 1.0468474634	-0.259024
H	 0.9921256526	 1.7119155829	-0.5016724076	 0.125256
H	-0.7654166231	 1.7034575306	-0.8119305219	 0.123189
H	-0.1430184758	 1.8979991423	 0.843522617	 0.1608
H	-0.1989029852	-0.6217169328	-0.7191717493	 0.251798
H	 2.6894166146	-0.905610281	 3.3987537666	 0.090964
H	 1.1732040517	-2.6219090383	 4.3553250066	 0.087839
H	-1.1203352945	-1.1028667681	 2.9212029056	 0.138167
H	-1.3270877726	-2.6559151145	 3.7381933653	 0.116057
H	-0.902433579	-1.2082953485	 4.667355324	 0.119765
H	 1.9795319454	-3.2618677123	 2.051581822	 0.10211
