19
gdb 121045	3.40884	0.93137	0.89308	2.4877	72.38	-0.2453	-0.0231	0.2222	1400.0423	0.157863	-460.188485	-460.179375	-460.178431	-460.223485	32.763	
C	 0.5959195585	 1.3003108284	 0.0596970191	-0.386423
C	 0.100718653	-0.1291487813	-0.0672978106	-0.045918
O	 0.7388712243	-0.7250301964	-1.1941068888	-0.256067
C	 0.3508450418	-2.0452240804	-1.4398297481	 0.204754
C	 1.086640875	-2.5168281998	-2.6894244368	-0.357927
C	 2.3728096875	-3.1076352973	-2.1116803634	 0.374213
O	 3.383775758	-3.3830619299	-2.6979448197	-0.297802
C	 2.1201647442	-3.281162747	-0.6104508192	-0.185933
O	 0.7606811845	-2.9329017567	-0.4003563158	-0.261128
H	 1.6793044545	 1.3206493897	 0.2081765411	 0.128488
H	 0.363512776	 1.8723739266	-0.8430029929	 0.127135
H	 0.1203164638	 1.7905543633	 0.914289378	 0.118473
H	 0.3260083896	-0.7084694058	 0.8368876229	 0.110891
H	-0.9916833765	-0.1536952273	-0.2106185687	 0.090795
H	-0.7428001737	-2.1290087524	-1.4809621429	 0.079321
H	 0.5278639768	-3.3133392856	-3.1923136097	 0.139931
H	 1.2894331005	-1.7190349338	-3.4035828065	 0.147739
H	 2.2819541885	-4.3165837784	-0.2962009353	 0.137566
H	 2.8089996337	-2.6354744959	-0.0479954229	 0.131892
