19
gdb 41148	2.93929	1.9109	1.46107	2.	79.48	-0.2388	0.0025	0.2413	936.3853	0.162371	-385.842993	-385.836475	-385.83553	-385.873403	28.018	
C	 0.0347669328	 1.5427330609	 0.0984175484	-0.217674
O	 1.4840669737	 1.4338623899	-0.0530970472	-0.317696
C	 1.2801700245	 0.1432207784	-0.6982127805	 0.141886
C	 2.1357485092	-1.0756317544	-0.5528764731	-0.158451
C	 1.4592448865	-2.1725738954	-0.1869602401	-0.047954
C	 0.0288047674	-2.0450429895	 0.3226658768	-0.068196
C	 0.0541203155	-0.8267023075	 1.2936389566	-0.235938
C	-0.0695888022	 0.0132152062	 0.0063281503	 0.291583
C	-0.8881271627	-1.1505944584	-0.6014423489	-0.32397
H	-0.2438535797	 2.0159795568	 1.0445110144	 0.107651
H	-0.4112014471	 2.0917847549	-0.74363864	 0.096585
H	 1.1364351568	 0.3392933779	-1.7769490908	 0.074307
H	 3.1701381839	-1.0946512357	-0.8803110412	 0.097573
H	 1.928343858	-3.1521740568	-0.1764067258	 0.095701
H	-0.3797219539	-2.9947889167	 0.6687284478	 0.065038
H	-0.8621325487	-0.7519989346	 1.888343048	 0.091339
H	 0.9344387469	-0.6973598477	 1.9249875753	 0.10827
H	-0.8305243867	-1.2942021565	-1.6835498737	 0.099689
H	-1.9304054643	-1.1950835319	-0.2729627363	 0.100256
