15
gdb 74649	3.08601	1.88128	1.33979	2.4346	65.31	-0.2216	0.0113	0.2329	908.4141	0.112984	-453.874223	-453.867072	-453.866127	-453.905249	28.992	
N	-0.0588789629	 1.3349065498	 0.1234101951	-0.597188
C	-0.064243998	-0.0137224544	 0.0329738088	 0.372615
N	-1.0818940521	-0.8071837455	-0.0065614523	-0.337878
C	-0.4052206329	-2.1150396164	-0.0442740316	-0.023544
C	 0.8609216782	-2.1116658052	 0.8700208319	-0.002215
O	 1.6094777085	-2.9715023118	-0.0608542261	-0.340754
C	 0.8725126524	-2.0475144597	-0.9373305028	-0.003785
C	 1.2035362777	-0.8343742547	 0.0128011357	 0.301399
O	 2.4137679994	-0.179700737	 0.0391383026	-0.495187
H	 0.801891337	 1.8199678362	-0.065816127	 0.273823
H	-0.9234250072	 1.8288928357	-0.0294248545	 0.266265
H	-1.040608011	-2.9958077736	-0.0797631814	 0.093159
H	 0.9774455956	-2.2880670404	 1.9411169626	 0.099322
H	 1.0031415682	-2.1470641502	-2.0168781961	 0.097672
H	 3.103240387	-0.8568753029	 0.013130205	 0.296298
