20
gdb 107515	1.97547	1.64882	1.08481	2.2009	85.25	-0.2259	0.0512	0.2771	1196.3393	0.16979	-365.939263	-365.930075	-365.929131	-365.973219	34.959	
C	 0.0023078812	 1.4982560218	 0.3538976652	-0.373498
C	-0.0015421315	 0.0558355965	-0.1746378768	-0.315068
C	-1.3640011618	-0.5711646379	-0.1550669243	 0.364343
N	-2.0157169001	-1.0111712895	 1.100418751	-0.365498
C	-1.8287074237	-1.9786166192	-0.01220014	-0.126235
C	-3.0146346193	-1.7580761738	-0.9516007007	-0.233748
C	-2.5173468791	-0.270026038	-1.1510001794	-0.232877
C	-3.4226061812	 0.8257110661	-0.8669337317	 0.353938
C	-4.1731321256	 1.7395448792	-0.6473198538	-0.472245
H	 1.0068181268	 1.9291385206	 0.3058469466	 0.110515
H	-0.6696986073	 2.1323677063	-0.2317679825	 0.135351
H	-0.3365244233	 1.5354196913	 1.3937205284	 0.125454
H	 0.3862014183	 0.0382948777	-1.2015603952	 0.102374
H	 0.6823258908	-0.5634936594	 0.4214350036	 0.094899
H	-1.266746459	-1.1802170189	 1.7729566524	 0.223305
H	-1.2558172504	-2.8863414534	 0.1352983552	 0.093569
H	-2.9697117852	-2.3326679633	-1.8784632947	 0.104678
H	-3.9963095152	-1.8663715128	-0.4875398213	 0.119041
H	-2.1041108292	-0.1591303786	-2.1592804326	 0.10017
H	-4.8365470951	 2.5415906553	-0.4384698592	 0.191532
