16
gdb 127953	3.90143	1.20314	0.93022	1.651	78.84	-0.2423	-0.0842	0.1581	1236.2324	0.123812	-430.223964	-430.215368	-430.214424	-430.25756	30.682	
C	 0.012526204	 1.4380350493	 0.120310052	-0.346787
N	 0.0586964821	-0.0091689574	 0.1979242738	-0.295957
C	-1.0238366997	-0.6595181489	 0.0696682324	 0.463025
N	-2.2941559728	-0.0778386114	-0.1466023717	-0.27955
N	-3.4490187656	-0.736115761	-0.2850735476	-0.028528
N	-3.4392382725	-2.0010847333	-0.2217408031	-0.233803
C	-2.1927983699	-2.6355279943	-0.0064874096	 0.371097
C	-2.2908474923	-4.1263099702	 0.0519324998	-0.453314
N	-1.0554148901	-2.0474208993	 0.1328692577	-0.299294
H	 1.0212206213	 1.8361812186	 0.2500234042	 0.138735
H	-0.3572929349	 1.802314684	-0.8526977446	 0.112227
H	-0.6173609007	 1.8883325402	 0.9056041538	 0.112221
H	-2.4010490006	 0.923015742	-0.2113506392	 0.284376
H	-2.9752596337	-4.4227692845	 0.8538215698	 0.152356
H	-2.7188958437	-4.5076600679	-0.8811780984	 0.152354
H	-1.3072844007	-4.563663186	 0.2186295108	 0.150841
