27
gdb 76209	2.10323	1.31121	1.18176	0.0728	95.46	-0.2673	0.0717	0.339	1318.2341	0.24955	-353.569017	-353.557961	-353.557016	-353.603694	43.359	
C	 0.1045289107	 0.4240627528	-0.6757830654	-0.419082
C	 1.0603085692	-0.6865027815	-0.2567877232	-0.034548
C	 2.5533582621	-0.6840414747	-0.7514948547	 0.342276
C	 2.860814961	-1.7220758652	-1.8313093683	-0.445815
C	 3.0957335386	 0.6821022517	-1.181087491	-0.44826
C	 2.9871203826	-1.0857439674	 0.6943928316	-0.314308
C	 1.5494650426	-0.7989787225	 1.2338542384	 0.342276
C	 1.4629599583	 0.4951626495	 2.0479700173	-0.44826
C	 0.9129687714	-1.9450875997	 2.020843093	-0.445815
H	 0.4818082739	 1.4197395627	-0.4273809303	 0.113052
H	-0.0730779756	 0.3990690524	-1.7569310574	 0.110995
H	-0.8681875533	 0.3080451594	-0.18444557	 0.110995
H	 0.6080641899	-1.6444385261	-0.5409228353	 0.057847
H	 2.3774414602	-1.461727351	-2.7809977215	 0.107893
H	 3.9391663376	-1.7919030677	-2.0189084116	 0.107794
H	 2.5083678937	-2.7171092544	-1.5393239485	 0.105375
H	 2.9207465795	 1.4589246346	-0.4318954561	 0.113629
H	 4.178476275	 0.6231999567	-1.3429711348	 0.109007
H	 2.6392960944	 1.0170734238	-2.1195296608	 0.109698
H	 3.2656260199	-2.1411687274	 0.7741180881	 0.085709
H	 3.7908523828	-0.4872787884	 1.1354469368	 0.086145
H	 1.9246955099	 1.3448861101	 1.537938343	 0.113629
H	 0.422541162	 0.7632706988	 2.2644448446	 0.109698
H	 1.978652279	 0.3713370069	 3.0075199936	 0.109007
H	 1.4058930936	-2.0819362576	 2.9910023465	 0.107794
H	-0.1490120606	-1.750987505	 2.2154227785	 0.107893
H	 0.9844817713	-2.8915831709	 1.4744019977	 0.105375
