13
gdb 2676	19.62795	0.7952	0.77157	4.3058	61.77	-0.2653	-0.06	0.2053	1356.4654	0.099298	-344.425164	-344.416864	-344.41592	-344.459221	26.473	
O	-0.081319802	 1.4453762074	 0.0105570046	-0.411757
C	 0.047911329	 0.0365172808	 0.001859806	-0.06527
C	-1.3771072652	-0.5302913107	 0.012263818	-0.331742
C	-1.4139339783	-1.982287999	 0.0051163765	 0.082147
C	-1.4386583518	-3.190240013	-0.001259516	 0.02695
C	-1.431875474	-4.629484645	-0.0093928286	 0.019981
O	-2.4233299708	-5.3228432508	-0.0033706874	-0.228686
H	 0.7987525425	 1.8325965905	 0.0040265011	 0.2936
H	 0.5772214054	-0.3227548843	-0.8930577699	 0.103826
H	 0.5939113912	-0.3321870849	 0.8828102683	 0.103826
H	-1.9027249856	-0.1491664971	 0.8965029921	 0.155311
H	-1.9191907034	-0.1400600179	-0.8579694472	 0.155319
H	-0.4163526069	-5.0761659661	-0.0220282175	 0.096494
