20
gdb 80414	2.58982	1.72292	1.2539	3.452	79.86	-0.227	0.0303	0.2573	1071.0649	0.171444	-403.168631	-403.159939	-403.158995	-403.201883	32.852	
C	-0.0247740203	 1.3566919072	-0.1592866614	-0.348549
N	-0.0372035124	-0.0448251414	 0.1824129042	-0.067061
C	-1.1919850091	-0.960171496	 0.0356739465	-0.010565
C	-0.7797898834	-2.0909341279	 1.0111665609	-0.255729
C	 0.3664845277	-2.2720277619	-0.0452275291	 0.174792
C	 1.2696100566	-3.4737336885	-0.1321201112	-0.492881
C	-0.7305406555	-1.8982263115	-1.1176466572	-0.265713
C	 1.0490763663	-0.8876011712	 0.0551816151	 0.402923
O	 2.2223055836	-0.5987180683	-0.0097794095	-0.408661
H	 1.0154452626	 1.6894372001	-0.1329073321	 0.1609
H	-0.4258190843	 1.5454717081	-1.1655705367	 0.116877
H	-0.6034844172	 1.9469239051	 0.5595339958	 0.123849
H	-2.1557436712	-0.4548610644	 0.0665708108	 0.080476
H	-0.5052035601	-1.7984680524	 2.0272290774	 0.105931
H	-1.4738066494	-2.9352383598	 1.0156387997	 0.101694
H	 0.6941511609	-4.3963693639	-0.2560267046	 0.109376
H	 1.9583578002	-3.3771897684	-0.9770603845	 0.133519
H	 1.8781760495	-3.5670596408	 0.7730465465	 0.130467
H	-1.4157985925	-2.7256292745	-1.3204964656	 0.102878
H	-0.4019973518	-1.4303115796	-2.0498543051	 0.105478
