16
gdb 124191	5.01948	0.78599	0.68844	0.6694	77.68	-0.2482	-0.0039	0.2443	1584.5432	0.125186	-396.913223	-396.904293	-396.903349	-396.950741	30.233	
C	 0.3345633365	 1.2962792666	-0.8346787704	-0.497547
C	 0.1193942334	-0.0222694274	-0.255214774	 0.075136
C	-0.0484495968	-1.113397638	 0.2240680952	 0.061165
C	-0.2553305193	-2.4340356985	 0.8113731123	-0.471355
C	-1.5167512422	-3.1085403799	 0.3405710655	 0.314398
N	-1.7353087003	-4.4076633134	 0.561107869	-0.273993
N	-2.9335594789	-4.6081217294	 0.027353004	-0.072145
N	-3.5214950569	-3.5597871931	-0.5285053207	-0.202027
C	-2.6307175454	-2.5848864286	-0.3387657322	-0.107492
H	 1.3964271381	 1.5655608993	-0.8215505862	 0.150181
H	-0.0025078665	 1.3330710333	-1.8763936067	 0.149463
H	-0.2098896948	 2.0698495072	-0.2820607577	 0.14842
H	 0.59756295	-3.0863591602	 0.5871801173	 0.15162
H	-0.2796186301	-2.348857523	 1.9065563822	 0.149855
H	-3.3683248197	-5.5165509898	 0.0345902799	 0.292304
H	-2.810998147	-1.5817347552	-0.6873089177	 0.132017
