15
gdb 4125	3.81967	1.65755	1.28912	1.8075	65.6	-0.2475	0.0022	0.2497	935.9036	0.116809	-399.718672	-399.710992	-399.710048	-399.750492	28.589	
C	-0.0779572629	 1.5512911869	 0.0375463303	-0.511871
C	 0.1437212639	 0.0782233601	-0.0234376513	 0.32161
O	-0.7559036983	-0.7968291573	 0.7045573344	-0.277522
C	 0.6436144178	-0.9344066651	 0.9427062536	-0.039933
C	 1.1979530699	-1.8394920436	-0.1786685356	-0.350284
C	 0.6836551793	-0.7674751776	-1.1448264227	 0.401982
N	 0.7831387657	-0.5063218924	-2.3781506873	-0.258142
O	 1.430061763	-1.5446863011	-3.0693584653	-0.386443
H	 0.8102133231	 2.0871934229	-0.3095747729	 0.135451
H	-0.9169187012	 1.8400986917	-0.6035586568	 0.144298
H	-0.3051605313	 1.8571998347	 1.0617541653	 0.135284
H	 1.0027406898	-0.8072226366	 1.9571069178	 0.11257
H	 2.2885016745	-1.9213642011	-0.2080997873	 0.130347
H	 0.748736845	-2.8324337925	-0.2454906949	 0.134032
H	 1.4386201916	-1.212857039	-3.9737567774	 0.308622
