17
gdb 15894	2.68263	1.99603	1.27309	4.4454	64.77	-0.2362	0.0088	0.245	975.4842	0.141701	-401.014822	-401.006443	-401.005499	-401.047863	29.818	
C	-0.182140183	 1.5214189472	-0.1213030696	-0.327225
N	 0.3705641669	 0.1894883209	 0.1321979511	-0.291032
C	 0.9347419779	-0.420475215	-1.0533296767	-0.187924
C	 1.3039262343	-1.9253108192	-0.9731914504	 0.120217
C	 1.030685699	-2.6786049031	 0.3083865054	-0.407224
O	 0.2898859084	-2.2199188851	-2.0052060739	-0.252098
C	-0.107424265	-0.9142551099	-2.0697707081	 0.480877
O	-0.9822118158	-0.448297317	-2.7285042452	-0.329991
H	 0.5540014859	 2.2378302206	-0.5256523215	 0.098341
H	-0.9994790854	 1.4398025317	-0.8416598121	 0.162399
H	-0.5827625473	 1.9258343056	 0.8118919077	 0.122111
H	 1.090470102	 0.2524236028	 0.8455434128	 0.224229
H	 1.7145290901	 0.1835794767	-1.5504312214	 0.087051
H	 2.2919275921	-2.1574064691	-1.3800797874	 0.096605
H	 0.0587523167	-2.4026166615	 0.7208711604	 0.149139
H	 1.0522027482	-3.7556980129	 0.1200509932	 0.135582
H	 1.8025751548	-2.4509920627	 1.0517716758	 0.118943
