18
gdb 68713	2.38119	1.64793	1.34439	4.4869	81.05	-0.2675	0.0207	0.2883	1034.5586	0.148189	-364.793642	-364.785659	-364.784714	-364.825905	31.141	
C	-0.0171381824	 1.5299104772	 0.0726128164	-0.48597
C	-0.0396888227	 0.0284769129	 0.0200270891	 0.282915
C	 1.1566241688	-0.7956709618	-0.355634105	-0.375613
C	 0.5820974475	-0.9826606972	 1.0387353204	 0.161771
C	 1.3312427028	-0.6765840666	 2.214680302	 0.208138
N	 1.9307879411	-0.4226608118	 3.1725819368	-0.35691
C	-0.6798520295	-1.8141751163	 0.9872536294	-0.125936
C	-1.882840099	-0.9896193215	 1.3570132163	-0.293211
C	-1.2891626751	-0.8283910948	-0.017605959	-0.109435
H	 0.9548344155	 1.9015992975	 0.4104915476	 0.13631
H	-0.2100655629	 1.953272411	-0.9199100455	 0.12904
H	-0.782027853	 1.9136378505	 0.7548469204	 0.130362
H	 1.0693268232	-1.6174375741	-1.0607706219	 0.120065
H	 2.1011450797	-0.2617919628	-0.3980643134	 0.133561
H	-0.7003018694	-2.8967809827	 0.9532191884	 0.102807
H	-2.8218142945	-1.5331254381	 1.3984006314	 0.120179
H	-1.7934321418	-0.1958857942	 2.0931649658	 0.124468
H	-1.8442596082	-1.0705691272	-0.9164919192	 0.097459
