16
gdb 50873	5.83797	0.77385	0.72053	4.9083	68.89	-0.264	-0.019	0.245	1534.3475	0.122969	-475.062854	-475.053915	-475.052971	-475.09812	30.99	
O	-0.3769152791	 0.2381854812	-0.4022998941	-0.252013
C	-0.0211363469	 1.3179078758	-0.0217193847	 0.165274
N	 1.2870732946	 1.7304112405	 0.19945361	-0.39606
C	 2.4493470562	 0.9765851644	 0.0265776895	 0.544244
O	 2.5207192333	-0.1582887315	-0.3452249502	-0.349783
O	 3.4957267569	 1.770346335	 0.3744337291	-0.283222
C	 4.7754455322	 1.1751373332	 0.236500928	 0.156837
C	 5.5977088985	 1.54725081	-0.9586698895	-0.277493
C	 5.927488452	 2.1060944745	 0.4130483174	-0.299824
H	-0.71891426	 2.1485750203	 0.2075916928	 0.088672
H	 1.425995367	 2.675317796	 0.5259141859	 0.266325
H	 4.8144542467	 0.1632862785	 0.6195573402	 0.1285
H	 6.2394742799	 0.7888119323	-1.3917475225	 0.129057
H	 5.148159115	 2.2274237716	-1.672866788	 0.126328
H	 5.6927161188	 3.1492618268	 0.5910575823	 0.127089
H	 6.8032112649	 1.7418163516	 0.9375420237	 0.126069
