16
gdb 56712	2.80917	1.32471	1.02131	1.8406	75.57	-0.2586	0.0075	0.2661	1149.2544	0.123332	-396.862647	-396.85344	-396.852496	-396.896621	33.816	
N	 0.4444828359	 1.5605085649	-0.0719752317	-0.479485
C	 0.1082006414	 0.1435304412	 0.0367880128	-0.205678
C	 0.4497070422	-0.6203762199	-1.1851205353	 0.249485
N	 0.7445191591	-1.1661516066	-2.1616100968	-0.329309
C	 0.7845698323	-0.4666866147	 1.2770827894	 0.076079
C	 1.1237402578	-1.9214523633	 1.304276267	-0.271408
N	 2.1929790156	-0.9235628684	 1.1890369436	-0.334203
C	 0.4118004276	 0.1890599551	 2.506435727	 0.314743
C	 0.0635206943	 0.7031302634	 3.5346014859	-0.387893
H	 1.4437057018	 1.6784704066	-0.2108387894	 0.247126
H	-0.0238895139	 1.9770668996	-0.8700642221	 0.248899
H	-0.9764999429	 0.0710453536	 0.1790703558	 0.148318
H	 1.0805612273	-2.4374355271	 2.2577096211	 0.138081
H	 0.8724045578	-2.5219563691	 0.4348798879	 0.142569
H	 2.507075799	-0.8800958224	 0.22005098	 0.245139
H	-0.2274227453	 1.1696791972	 4.4432553846	 0.197536
