16
gdb 12596	3.25826	2.13364	1.32121	3.1411	66.85	-0.2391	-0.0074	0.2317	906.1132	0.130688	-379.985283	-379.977346	-379.976401	-380.01747	28.446	
C	-0.0225823902	 1.4701457872	 0.0009842346	-0.354926
N	-0.0005452371	 0.0237864149	 0.029199208	-0.129299
C	-0.0180118509	-0.7604019291	-1.1220415611	 0.385917
O	-0.0529220308	-0.3501034582	-2.2582556695	-0.374665
C	 0.0172845336	-2.187860785	-0.5769922342	-0.298647
N	 0.052671448	-2.0766710112	 0.8799825476	-0.292007
C	 0.0406380547	-0.823530213	 1.1465129927	 0.370312
C	 0.067153552	-0.252785131	 2.5253593164	-0.488991
H	 0.8745459419	 1.8958984323	 0.4622126161	 0.135657
H	-0.055492277	 1.7626164335	-1.0507708998	 0.171489
H	-0.9054145945	 1.8696106902	 0.5107090484	 0.135646
H	-0.8630787066	-2.7485208532	-0.9108203039	 0.148267
H	 0.8959376294	-2.7221538253	-0.9555654466	 0.148273
H	 0.0978476872	-1.0715779756	 3.2440356794	 0.159873
H	 0.943968366	 0.3875728268	 2.6713992173	 0.141547
H	-0.8200427156	 0.3608837268	 2.7163631845	 0.141554
