19
gdb 120814	2.63	0.93032	0.76706	5.0013	76.86	-0.2537	0.0235	0.2772	1493.8567	0.158805	-419.181576	-419.172122	-419.171178	-419.217083	33.942	
O	 0.4856125615	 1.1947477241	-0.5038353697	-0.418505
C	 0.263583207	-0.1486211015	-0.1389546271	-0.043811
C	-1.2050056785	-0.3956804473	 0.2091024498	-0.171411
N	-2.0112414507	-0.0081013766	-0.9496196471	-0.083502
C	-2.4919191553	-1.0434177277	-1.8582873179	-0.26871
C	-3.4411528658	-0.2729741009	-1.0046960957	 0.018877
C	-4.189978785	-0.980410751	 0.1194971879	-0.372892
C	-4.524346102	-0.0819615447	 1.2261545451	 0.269195
N	-4.7844320517	 0.635727487	 2.093409436	-0.302252
H	-0.2485978399	 1.4247828843	-1.0887596908	 0.287052
H	 0.5651175791	-0.842607651	-0.9428700332	 0.082341
H	 0.8916703172	-0.3626482833	 0.7322833412	 0.108488
H	-1.3447289665	-1.4465511269	 0.5111142078	 0.083102
H	-1.4905516085	 0.246565233	 1.0491832385	 0.136188
H	-2.4071408851	-0.8365888734	-2.9212963405	 0.12857
H	-2.3100512179	-2.0820996673	-1.5816650138	 0.114585
H	-4.0153545173	 0.5333332714	-1.456839631	 0.116221
H	-5.1215533304	-1.3979661603	-0.2801978719	 0.161663
H	-3.6134634901	-1.8224661479	 0.5132482725	 0.154802
