17
gdb 11896	4.8163	1.56172	1.32357	1.0291	71.1	-0.2232	0.029	0.2521	962.6687	0.142534	-363.877012	-363.869488	-363.868544	-363.908969	28.109	
C	-0.0025682056	 1.4530384061	 0.026584643	-0.476542
C	-0.0642847315	-0.0342634668	-0.0217040171	 0.393118
N	-1.0745073985	-0.7643856219	 0.2315879185	-0.336791
C	-0.6440899736	-2.1320964479	 0.0491581157	 0.33837
C	-1.202674102	-3.2031811115	 0.9458630755	-0.313634
C	-1.6137853162	-3.1387511926	-0.5072943352	-0.313644
C	 0.831959028	-2.0635709376	-0.3654155499	-0.176054
O	 1.1040874251	-0.6474656917	-0.3793034013	-0.259675
H	 0.7615440886	 1.7777768971	 0.7399686157	 0.144426
H	 0.2776412545	 1.8527922741	-0.9532006617	 0.144465
H	-0.9728702159	 1.8510201024	 0.3213633247	 0.151278
H	-0.5353443368	-4.0008001357	 1.2579507175	 0.110186
H	-1.9239728021	-2.890818337	 1.6921052016	 0.12646
H	-2.6113667034	-2.7830858768	-0.7376286626	 0.126461
H	-1.2268849883	-3.8924230981	-1.1864198148	 0.110186
H	 1.5122605071	-2.5414778315	 0.3479066145	 0.115699
H	 1.0273685805	-2.4651093606	-1.365729474	 0.115689
