19
gdb 81595	3.69438	1.18343	1.03541	2.6425	76.	-0.2325	0.0783	0.3109	1186.4208	0.160742	-419.089673	-419.082009	-419.081065	-419.122109	30.425	
O	 0.1652874214	 1.4862521547	 0.0553638359	-0.450909
C	 0.1249719475	 0.1001094967	 0.0602551627	 0.215677
C	-0.0929336592	-0.640857398	 1.4239173174	-0.132375
N	-1.4960952519	-0.0550725869	 1.3788909446	-0.363112
C	-1.2583773803	-0.6162970002	-0.0170887507	-0.107997
C	-0.6156797118	-1.8790503124	 0.6187765878	 0.069584
N	 0.204654665	-2.768017213	-0.177091292	-0.101024
C	 1.6587396203	-2.7612339535	-0.0224776408	-0.219154
C	 0.8453455318	-3.883570334	 0.5127128344	-0.225612
H	-0.5579882216	 1.7584018734	 0.6399908302	 0.290387
H	 0.9095177597	-0.2708708052	-0.5956588244	 0.099211
H	 0.508490468	-0.5939754745	 2.3340602259	 0.080751
H	-2.1472435231	-0.6539708789	 1.89519271	 0.21163
H	-2.0183027444	-0.557037328	-0.7975339846	 0.084165
H	-1.3459581146	-2.4725844097	 1.1799158613	 0.075039
H	 2.2289880309	-2.8759214975	-0.9402512239	 0.122144
H	 2.0983727584	-2.080933053	 0.703537441	 0.122471
H	 0.7400933441	-3.9439154183	 1.5951572253	 0.110401
H	 0.8090314697	-4.8396459517	-0.0022466998	 0.118722
