23
gdb 52790	2.67914	0.99038	0.83665	0.1032	96.9	-0.2217	0.0618	0.2835	1534.3238	0.20211	-351.135743	-351.124316	-351.123371	-351.173563	41.129	
C	 0.0416337722	 1.4616863918	-0.0034689934	-0.501375
C	 0.0166129286	 0.0054769609	 0.0075885528	 0.081053
C	-0.0111312999	-1.2000331769	 0.0241448249	 0.018403
C	 0.0160453624	-2.6424128472	 0.0082409808	 0.109029
C	 1.2425186238	-3.1995484353	-0.7074176933	-0.459608
C	-0.5084073667	-3.3759228101	 1.2415609951	-0.357819
C	-1.3276188622	-3.3949005903	-0.0226440826	 0.309645
C	-2.6066310656	-2.5782781964	-0.0505380293	-0.452055
C	-1.4403339413	-4.6911013154	-0.8057698967	-0.453167
H	 0.95559001	 1.8385505593	-0.476391916	 0.145597
H	-0.8089835637	 1.8747440189	-0.5576739294	 0.144153
H	 0.0046925864	 1.8721088583	 1.0121647482	 0.144107
H	 2.1522894588	-2.7774239419	-0.2693371156	 0.125
H	 1.3083116614	-4.2865029408	-0.6260248194	 0.11197
H	 1.2314893382	-2.9354626845	-1.7699270769	 0.122331
H	 0.0173660709	-4.281486805	 1.5294309376	 0.105298
H	-0.855047088	-2.7741804871	 2.0745536604	 0.113223
H	-2.5015177068	-1.6407018527	 0.4984233306	 0.126446
H	-2.8918046138	-2.3302931616	-1.0796948576	 0.113099
H	-3.4306854289	-3.1484450044	 0.3944169461	 0.107985
H	-2.291163776	-5.2758724764	-0.436449614	 0.115871
H	-1.6145100355	-4.4965843308	-1.8705466367	 0.11672
H	-0.5528895542	-5.3208479321	-0.7193893556	 0.114092
