16
gdb 45901	2.61415	1.66185	1.12148	1.8207	73.25	-0.234	-0.0173	0.2167	1050.462	0.127748	-434.100952	-434.093335	-434.092391	-434.133361	28.83	
O	 0.0279177708	 0.0704113858	-0.8039024462	-0.383794
C	-0.0621000713	 1.0259609107	-0.0578398885	 0.428989
N	-1.2839056362	 1.6047061895	 0.1972661178	-0.342674
C	-1.6855586824	 2.4958209044	 1.2104683439	-0.005381
C	-1.136503569	 3.6901030382	 1.4148477808	-0.061858
C	-0.0184994099	 4.2318630489	 0.5724249721	-0.244344
N	 1.3044487495	 3.8661971435	 1.0833858613	-0.231916
C	 1.6812283156	 2.6606607359	 1.0577851567	 0.103549
N	 1.0973599252	 1.4614777766	 0.6182135762	-0.355597
H	-2.0094692516	 1.0671272174	-0.2549060538	 0.262713
H	-2.5131299425	 2.1390175258	 1.8186304916	 0.113769
H	-1.4830967566	 4.2810096546	 2.2559514633	 0.106861
H	-0.1417907933	 3.874909567	-0.4606490381	 0.116795
H	-0.066801601	 5.3238265653	 0.5488582098	 0.111494
H	 2.6834909922	 2.4436074422	 1.4323021881	 0.117978
H	 1.7922543004	 0.7418448341	 0.4700386851	 0.263419
