19
gdb 84045	3.35364	1.19333	0.9783	0.8427	91.46	-0.2194	-0.0183	0.2011	1247.7587	0.159096	-348.728381	-348.720005	-348.719061	-348.76101	33.11	
C	-0.1930181616	 1.5895615828	 0.0691431487	-0.391626
C	 0.0275885932	 0.0696789881	 0.0132406248	-0.026738
C	 0.8244951787	-0.4018714203	-1.1849773157	-0.200458
C	 1.8291241173	-1.2316962468	-0.8506459864	 0.203531
C	 2.7306684242	-1.8709668663	-1.7357922104	 0.207289
C	 3.5106271694	-2.442527285	-2.4553271999	-0.426357
C	 1.916518861	-1.3909233676	 0.6413006228	-0.157628
C	 2.2507453558	-0.117052776	 1.3885153629	-0.282908
C	 0.8087988897	-0.5163736267	 1.1956595024	-0.052287
H	 0.7589065434	 2.1261518309	 0.1222265267	 0.119624
H	-0.7294436637	 1.9413360863	-0.8182544721	 0.113897
H	-0.7851249805	 1.8624506659	 0.948367601	 0.116206
H	-0.9666816768	-0.4027274112	-0.0197364701	 0.085956
H	 0.6033651856	-0.0825098651	-2.1970005727	 0.096925
H	 4.1937202812	-2.9367964297	-3.1003694243	 0.189902
H	 2.1870887932	-2.3516743046	 1.0628734368	 0.092852
H	 2.6527624638	-0.2167356002	 2.3913550807	 0.111049
H	 2.6608040012	 0.7095898472	 0.8178082898	 0.115743
H	 0.252877395	-0.8230381117	 2.0739169952	 0.085029
