18
gdb 67521	2.43267	1.79697	1.49941	3.6452	75.06	-0.2318	0.0288	0.2606	969.1468	0.148284	-401.932734	-401.925025	-401.924081	-401.96452	30.622	
C	-0.0337325729	 1.5441163007	 0.0109681741	-0.495961
C	 0.0066889078	 0.0356446065	 0.0223991914	 0.182745
C	-1.2261739799	-0.7013128617	 0.6291609885	-0.087257
C	-1.1425763459	-2.1937533323	 0.5150467445	-0.312822
C	-0.316708047	-1.5053158791	 1.5636198337	-0.060444
C	 0.928318019	-0.803028434	 0.9549057624	-0.040347
N	 1.5481343583	-1.3629390715	-0.2474223251	-0.327679
C	 0.7171935467	-0.7077701454	-1.1456606612	 0.357607
O	 0.6272323586	-0.7507616941	-2.3428894462	-0.362728
H	 0.9561058967	 1.967434117	-0.1865189751	 0.127413
H	-0.7115559486	 1.8983122377	-0.7731996508	 0.138672
H	-0.391371396	 1.9368731219	 0.9688904264	 0.119758
H	-2.1559896632	-0.1927430415	 0.8530525515	 0.092998
H	-2.0066358942	-2.7254849691	 0.9006374461	 0.116787
H	-0.6814887217	-2.6708212417	-0.3448192993	 0.127668
H	-0.4362124398	-1.7116016146	 2.6199583132	 0.089851
H	 1.6138287141	-0.3336041731	 1.6610996084	 0.088261
H	 2.1076769381	-2.1934639856	-0.3853644626	 0.245476
