16
gdb 26070	3.27996	1.17235	0.93445	5.4505	74.95	-0.2223	0.0248	0.247	1216.2096	0.126677	-396.966217	-396.957843	-396.956898	-396.999941	30.837	
N	 0.323342608	 1.1835675473	 0.5050265728	-0.494623
C	-0.1005728289	-0.1378064122	-0.0038172029	-0.270221
C	-1.5687997124	-0.1352452387	-0.1338912841	 0.321393
N	-2.7162222165	-0.1291555055	-0.2676448422	-0.338265
C	 0.5455897398	-0.5873728473	-1.2934953679	 0.273808
C	-0.0187472152	-0.6009663858	-2.5506793343	-0.160433
N	 0.937574674	-1.0256457473	-3.433723047	-0.246123
C	 2.1069343438	-1.2886605921	-2.7672358242	-0.064042
C	 1.8968326858	-1.026409889	-1.4353358942	-0.264669
H	 1.3244122	 1.1441457087	 0.6774311656	 0.235642
H	 0.1984602598	 1.868313976	-0.2369599847	 0.235233
H	 0.1414237503	-0.8600567562	 0.7865490625	 0.135164
H	-1.0197719296	-0.3616155538	-2.870839498	 0.147041
H	 0.793505674	-1.1504576525	-4.4204910704	 0.267749
H	 2.9803051047	-1.6411629009	-3.2916229663	 0.127015
H	 2.6252620623	-1.1400410209	-0.646129375	 0.095331
