19
gdb 107718	4.03353	1.12383	1.06996	2.3598	75.13	-0.2276	0.0638	0.2913	1196.2152	0.157799	-422.958497	-422.949938	-422.948994	-422.99164	32.859	
C	-0.0791124449	 1.5283359858	 0.1736997299	-0.505217
C	-0.128810296	 0.0468286905	-0.0250417221	 0.423439
C	 0.4151520513	-0.6870570532	-1.2825972816	-0.32915
C	-0.4658307214	-1.8583943266	-0.8332460831	 0.261133
C	-0.8258483401	-3.1033627396	-1.5839805256	-0.188702
O	 0.240643089	-4.0413528325	-1.6652005971	-0.411178
C	-0.4230399575	-1.7765966127	 0.7038363709	 0.064477
O	 0.463675219	-0.7244407171	 1.0715877461	-0.330489
C	-1.3827774573	-0.9202483008	-0.043771944	-0.259367
H	 0.9622445416	 1.8630659631	 0.233878284	 0.134454
H	-0.5595267906	 2.0457914233	-0.6621273698	 0.122683
H	-0.5846239884	 1.812167866	 1.1009546274	 0.133401
H	 0.0403957777	-0.2401088812	-2.2084157717	 0.09849
H	 1.5025236117	-0.8153245493	-1.3271754223	 0.094234
H	-1.6393898344	-3.6260908309	-1.0674371122	 0.108644
H	-1.2002277127	-2.8437668268	-2.5879339756	 0.088143
H	 0.9853567724	-3.6011703725	-2.0872367245	 0.284542
H	-0.5519536837	-2.6215639651	 1.3671132271	 0.112245
H	-2.4551380558	-0.7800567504	-0.021345936	 0.098217
