13
gdb 905	7.60574	2.0668	1.64202	3.0931	56.09	-0.1973	0.0318	0.229	720.9454	0.103405	-340.672417	-340.665966	-340.665022	-340.70269	23.4	
C	-0.0594241138	 1.4561100807	-0.0166661142	-0.335989
N	-0.0006711922	 0.011449582	 0.0297582107	 0.028822
C	-0.0222165613	-0.8363631996	-1.0266701137	 0.004527
N	 0.0468867228	-2.1015853566	-0.6539923927	-0.358685
C	 0.1160042584	-2.060357473	 0.7072829802	 0.347031
O	 0.1986728044	-3.1902249141	 1.4437451553	-0.435729
C	 0.0895753431	-0.7700610011	 1.1736323987	-0.233997
H	 0.8376954198	 1.8984707685	 0.4281313256	 0.144444
H	-0.1256531209	 1.7747333934	-1.0587623541	 0.144211
H	-0.9376768902	 1.8292718047	 0.5197919662	 0.144431
H	-0.0890654057	-0.4806632801	-2.0441150369	 0.126942
H	 0.1944217528	-3.9196677504	 0.8120360877	 0.299289
H	 0.1241261029	-0.3478850145	 2.1622211873	 0.124703
