19
gdb 59405	2.85695	0.98349	0.94542	3.1226	77.55	-0.2668	0.0162	0.2829	1353.972	0.157221	-419.198679	-419.188489	-419.187545	-419.234115	36.566	
C	 0.1770172057	 1.4966567458	 0.1626699862	-0.414335
C	-0.1429909606	 0.0100776635	 0.0085541198	 0.131584
O	-1.5430111672	-0.2424517565	-0.0009083929	-0.42725
C	 0.5114294997	-0.5617605768	-1.2363587944	-0.067472
N	 1.8845039554	-1.0579223933	-1.1215456297	-0.356396
C	 0.7968493015	-2.0257147231	-1.4052677391	 0.15774
C	 0.5000926442	-3.0702387397	-0.3469820733	-0.452428
C	 0.7052834137	-2.509707182	-2.7680715076	 0.235799
N	 0.6467183416	-2.9008187507	-3.8555019556	-0.34046
H	 1.2569240687	 1.6538504298	 0.2425533061	 0.134994
H	-0.1843081565	 2.0655337258	-0.7035754962	 0.108658
H	-0.3046296945	 1.89490629	 1.0593106169	 0.130844
H	 0.237748823	-0.5259986243	 0.8819367734	 0.10176
H	-1.9406614	 0.2946176388	-0.6953872084	 0.281509
H	 0.2477608062	-0.034320493	-2.1542549746	 0.097933
H	 2.4220021872	-0.8583855062	-1.9614346293	 0.251199
H	 0.6948340124	-2.6656961813	 0.6464076389	 0.140833
H	-0.5445977859	-3.3871013224	-0.402204552	 0.147514
H	 1.1396129055	-3.9457485945	-0.4896738583	 0.137974
