21
gdb 82942	2.11157	1.82775	1.45415	1.3959	81.37	-0.2298	0.0884	0.3182	1051.7567	0.182936	-387.054984	-387.046686	-387.045742	-387.087168	33.387	
C	-0.064337839	 1.5752799956	-0.009471996	-0.434894
C	 0.0518359942	 0.064449777	 0.0637173421	-0.084808
C	 1.3186164814	-0.692403314	-0.2614662512	 0.034131
O	 2.5400021013	 0.0066379345	-0.1596912704	-0.266342
C	 2.9528118012	 0.0758982368	 1.1897093812	 0.103603
C	 2.3102385662	 1.0923248472	 2.0945162952	-0.336578
C	 1.8022239082	-0.3394328432	 2.0662925532	-0.130475
C	 0.7170935293	-0.8268969159	 1.1203828329	 0.288136
C	-0.0249714378	-2.0673761523	 1.5706483554	-0.485103
H	 0.9071950472	 2.0452718435	-0.1741417533	 0.140616
H	-0.7000099282	 1.8458599538	-0.8588428316	 0.112905
H	-0.5179327728	 2.0089697378	 0.8875772353	 0.119477
H	-0.8306202117	-0.4362228746	-0.3320212415	 0.081283
H	 1.3384797342	-1.478543706	-1.0119800392	 0.088385
H	 3.9855373744	-0.2243035655	 1.3378855316	 0.095809
H	 2.8809486673	 1.3701309039	 2.9757531388	 0.109512
H	 1.723384161	 1.8951864544	 1.6775128901	 0.124013
H	 1.9589742777	-0.9484396695	 2.9493012057	 0.086678
H	-0.6989068195	-1.8463278276	 2.4065875558	 0.120675
H	-0.6310543061	-2.4845967591	 0.7608898293	 0.115569
H	 0.6708004814	-2.8478269169	 1.9005441067	 0.117408
