19
gdb 34195	3.84521	1.38629	1.22226	0.8275	85.85	-0.244	0.042	0.2861	1063.5718	0.160289	-348.684476	-348.677108	-348.676164	-348.715874	30.569	
C	 0.0628240577	-1.2056374714	 0.0977878571	-0.372886
C	 0.0226357982	-0.0032199022	 0.0490928071	 0.103119
C	-0.0275028206	 1.4321614057	-0.0150291702	 0.225292
C	-1.1179094847	 2.1696954756	 0.8228848859	-0.27612
C	-1.333306276	 3.1911395416	-0.3189178139	-0.03668
C	-0.218865844	 4.264469889	-0.402347376	-0.229258
C	 0.7346106844	 3.2305307052	-1.0526018157	-0.036681
C	 1.3214381578	 2.2161768126	-0.0425676173	-0.276111
C	-0.492057564	 2.2763414896	-1.2790919302	-0.087997
H	 0.0989753691	-2.2656527058	 0.1424204004	 0.18025
H	-1.9925469623	 1.5259608592	 0.9453475287	 0.110801
H	-0.8164300589	 2.5486724924	 1.8049499433	 0.094614
H	-2.357730776	 3.5080730199	-0.5140767731	 0.067757
H	-0.4875769929	 5.0477590667	-1.1176598276	 0.100305
H	 0.1031389056	 4.7396850248	 0.530746561	 0.089826
H	 1.395697692	 3.5795716215	-1.845768887	 0.067757
H	 1.6934566085	 2.5965134958	 0.9144654829	 0.094614
H	 2.0989354393	 1.6039049925	-0.5062476374	 0.1108
H	-0.8190016732	 1.8489689272	-2.2235325281	 0.070598
