18
gdb 41640	3.5398	1.91213	1.57081	2.1566	79.47	-0.2137	-0.0115	0.2021	878.0829	0.150918	-364.721605	-364.715517	-364.714573	-364.751581	26.502	
C	-0.1206184451	 1.5611570133	 0.0489881615	-0.250619
C	 1.3384290532	 2.1538165657	 0.0477152966	-0.234425
C	 2.1839997254	 1.5631065125	-1.1130121723	 0.01132
C	 3.0732012927	 0.2840336288	-1.0413913435	-0.066175
C	 2.1893436554	-0.953083873	-1.1277166751	-0.12435
N	 2.5870481037	-0.2290008659	-2.3705794876	-0.166732
C	 1.3672191624	 0.6720546716	-2.0729384631	-0.099086
C	 0.8447685438	-0.3103501748	-1.0353505181	 0.208013
C	 0.0575745524	 0.0592833957	-0.0260251232	-0.158372
H	-0.6647594337	 1.8738641742	 0.943386483	 0.101763
H	-0.6673563581	 1.9614471708	-0.8130107892	 0.115444
H	 1.2914524074	 3.2442779118	-0.0486370773	 0.097885
H	 1.8061098093	 1.9438433076	 1.0154892714	 0.105853
H	 2.7481631874	 2.3379894091	-1.6396198346	 0.084012
H	 4.1231046398	 0.2239006338	-0.7709028308	 0.094663
H	 2.557987039	-1.9421116077	-0.8807133178	 0.098089
H	 0.7649228498	 1.0600611715	-2.891830776	 0.088976
H	-0.0930233548	-0.5557511752	 0.8562787862	 0.09374
