21
gdb 39401	2.35118	2.08648	1.71372	1.2724	80.29	-0.2369	0.0785	0.3154	931.2664	0.186682	-387.057868	-387.051037	-387.050093	-387.088653	29.177	
C	-0.0981069107	 1.4836531054	-0.1140005001	-0.232851
C	 1.4636932651	 1.4904635756	-0.0515067057	-0.01339
C	 2.0348508531	 1.8499622536	 1.326229612	-0.239614
C	 1.5556563556	 0.9799749663	 2.5231654202	-0.075351
O	 0.3746248683	 0.2185079532	 2.3145153003	-0.262084
C	 0.3688750331	-0.6920436942	 1.2288629842	 0.106561
C	 1.749814013	-1.0580613771	 0.603986689	-0.272939
C	 1.4751625953	-0.023994967	-0.4980499165	-0.031226
C	-0.0493979733	-0.0471881196	-0.1484646954	-0.029526
H	-0.6309447473	 1.9467477996	 0.7199407929	 0.101783
H	-0.4710168949	 1.8995233334	-1.0543830113	 0.090772
H	 1.9297302204	 2.1483409871	-0.7899950023	 0.068767
H	 3.1309063843	 1.8129796228	 1.2922564758	 0.095925
H	 1.7715947259	 2.8975662183	 1.5148225662	 0.103506
H	 2.3683152269	 0.3180078957	 2.850351638	 0.095879
H	 1.3162207621	 1.6222727164	 3.3752879896	 0.10578
H	-0.2480332558	-1.5347202787	 1.5513400465	 0.078026
H	 2.6527140425	-0.9794214464	 1.2135823191	 0.0971
H	 1.7060874272	-2.0729844989	 0.1962931642	 0.100425
H	 1.8646480129	-0.2000560327	-1.5021945567	 0.056472
H	-0.7895916538	-0.6133325729	-0.7167623499	 0.055983
