18
gdb 58726	3.45848	1.40362	1.30303	2.0985	73.8	-0.2199	0.0583	0.2782	1035.576	0.146525	-401.821914	-401.813946	-401.813001	-401.854622	30.923	
C	 0.0167081081	 1.4688524162	-0.1679954309	-0.402215
C	-0.0181888192	-0.0385113574	 0.103750609	-0.035619
O	 0.5210484903	-0.3475864761	 1.3855218506	-0.429515
C	-1.4030211089	-0.5904372215	-0.0039224476	 0.436383
C	-2.3961226117	-0.8280883275	-1.1133133671	-0.193322
C	-3.5115793901	-0.4394030859	-0.1111177544	-0.052012
C	-3.1135929908	-1.5441165423	 0.7996526086	-0.046787
C	-1.9830348094	-1.9713499297	-0.1670970359	-0.188433
N	-2.5072450202	-0.1771795502	 0.982415086	-0.231092
H	 1.0271496324	 1.8516616626	-0.0040124342	 0.121612
H	-0.2842019706	 1.69032511	-1.1969427423	 0.112783
H	-0.6692577705	 1.9914863858	 0.5069906695	 0.129074
H	 0.6240131225	-0.5586600881	-0.6183769706	 0.091384
H	-0.1222953191	-0.0383008738	 2.0354616761	 0.290168
H	-2.2956128292	-0.7592127744	-2.1871442918	 0.098256
H	-4.4299405442	 0.1285096145	-0.2009338379	 0.099213
H	-3.6458948674	-2.0494529278	 1.5964660662	 0.099518
H	-1.5087332319	-2.9137908645	-0.4001368932	 0.100603
