18
gdb 50543	3.33809	1.01976	0.88738	1.3582	79.13	-0.2216	-0.0403	0.1813	1322.6687	0.145116	-401.884146	-401.87481	-401.873866	-401.919552	33.186	
O	-0.8744412789	 1.1457204049	-0.5628308555	-0.236205
C	 0.14317977	 0.8997284166	 0.0346442135	 0.132921
C	 1.3665832479	 1.8057417453	 0.0765546844	-0.053728
C	 1.2484681456	 3.0631151587	-0.8144885459	-0.242737
C	 0.8798242052	 3.8376867946	 0.4734419279	-0.163773
N	 1.4041929205	 2.7062971186	 1.2694091482	-0.075458
C	 0.7420382881	 2.3369108851	 2.5139507111	-0.343305
C	 0.9400068754	 3.3619659711	 3.535468486	 0.308977
C	 1.0822674354	 4.2147797056	 4.3693984311	-0.414635
H	 0.2330836657	-0.0314224171	 0.6408689768	 0.082221
H	 2.267484172	 1.1838532947	-0.0118280766	 0.085248
H	 2.2026777208	 3.3645224381	-1.2468268108	 0.113922
H	 0.479353156	 3.0100342363	-1.5832146389	 0.130721
H	 1.3848963285	 4.7877260564	 0.6681283989	 0.114257
H	-0.2058337059	 3.9813357193	 0.5778025227	 0.105661
H	-0.3458108654	 2.1709664288	 2.3932575935	 0.12142
H	 1.1688667024	 1.3868426369	 2.8627040106	 0.135006
H	 1.2140281767	 4.964001296	 5.1103193531	 0.199487
