21
gdb 116339	2.94184	1.23222	0.96025	0.7878	77.84	-0.2586	0.0765	0.3351	1262.6938	0.1841	-424.222105	-424.213515	-424.212571	-424.255404	33.051	
O	-0.0414704157	 1.4258124344	 0.0526994327	-0.425584
C	 0.0225609364	 0.0067727943	 0.0260429686	-0.095732
C	-1.4066928899	-0.5323467186	-0.0361521064	 0.00563
C	-2.1497042146	-0.0721423955	-1.3021766509	-0.202091
C	-3.5318938774	-0.7261879296	-1.3978284169	-0.216088
C	-3.4401654313	-2.2558577943	-1.5350155978	-0.221995
C	-2.3857669224	-2.8721856789	-0.6316914402	 0.041294
O	-1.0252488768	-2.7769959587	-1.0824060193	-0.261796
C	-1.4040876322	-2.0427299161	 0.0882251994	 0.040878
H	 0.8549622456	 1.7685708436	-0.001555171	 0.287379
H	 0.5841178301	-0.3553582961	-0.8487450149	 0.101627
H	 0.5256611531	-0.3825465683	 0.9265445809	 0.080512
H	-1.9386251063	-0.1382340409	 0.8429026656	 0.08145
H	-2.2332934403	 1.0170046705	-1.2854720435	 0.111967
H	-1.5518709469	-0.3371305682	-2.1828369386	 0.103667
H	-4.1048311283	-0.477579527	-0.4944089431	 0.095071
H	-4.0935438854	-0.3135298329	-2.2425793494	 0.09382
H	-4.4112320339	-2.7131596292	-1.3147950841	 0.096733
H	-3.1941234915	-2.5310152352	-2.5680680144	 0.114733
H	-2.627173415	-3.8496423889	-0.2124446467	 0.087498
H	-0.9755968074	-2.4365365144	 1.0126949902	 0.081026
