14
gdb 24794	3.63379	1.23547	0.92199	2.6402	85.1	-0.2245	-0.0501	0.1744	1183.674	0.101624	-399.539706	-399.53226	-399.531316	-399.571688	28.533	
N	-0.035672611	 1.3663030841	 0.0106532802	-0.540375
C	 0.0380789962	 0.0805894491	 0.0032092797	 0.296494
C	 1.2487551168	-0.7411676873	-0.0077013158	-0.230286
C	 1.1760851782	-2.0789090333	-0.014669624	 0.057603
O	 0.0181226272	-2.7824142104	-0.0124205449	-0.232505
C	-1.1554337353	-2.0666291124	-0.0022802699	 0.207745
C	-1.1821461179	-0.7182227637	 0.0052713693	-0.23298
C	-2.3039070503	-2.8988210242	-0.0007803539	 0.236998
C	-3.2845239328	-3.5955762062	 0.0005746423	-0.363044
H	 0.9023259371	 1.7736368542	 0.0079295618	 0.206482
H	 2.2241531918	-0.2677810415	-0.0102503551	 0.112827
H	 2.0294208657	-2.7454724667	-0.0228407849	 0.140929
H	-2.1346696358	-0.2048337375	 0.0131300689	 0.132081
H	-4.1522844999	-4.2085253342	 0.0017912063	 0.208028
