21
gdb 106506	3.12494	1.40991	1.23478	1.4845	82.8	-0.2311	0.0096	0.2407	1122.6661	0.183451	-387.087577	-387.079454	-387.07851	-387.119892	32.684	
C	 0.0188739964	 1.5124983458	-0.2718868446	-0.383676
C	-0.0006713489	 0.036375691	 0.1428529146	-0.287896
C	-1.3932683359	-0.5567516352	 0.1538074185	 0.400432
C	-1.6039667129	-2.0950519273	 0.1453181048	-0.293463
C	-2.7625515977	-1.7107995089	-0.7988643367	 0.087729
C	-4.0294964932	-1.3035463216	-0.0310102254	-0.261326
C	-3.6418943413	-0.3244360735	 1.0574101327	-0.07889
C	-2.3655648009	 0.0436697285	 1.161101449	-0.081935
O	-2.0420477096	-0.5019527755	-1.1678353715	-0.332432
H	 1.043721106	 1.8933931052	-0.3068462575	 0.110184
H	-0.4272554421	 1.634085571	-1.262590002	 0.140556
H	-0.5464307458	 2.137222821	 0.4270303983	 0.116464
H	 0.6173313861	-0.5479530758	-0.5479352128	 0.098646
H	 0.4350972582	-0.0877797208	 1.1432741573	 0.096127
H	-0.806380835	-2.6123342327	-0.3926653432	 0.100839
H	-1.8266286346	-2.5932551252	 1.090587735	 0.096793
H	-2.9730348097	-2.3461215007	-1.6634765198	 0.071942
H	-4.7530169436	-0.8478973841	-0.7199481241	 0.114933
H	-4.5216158908	-2.1884422513	 0.3955060084	 0.104461
H	-4.4120554581	 0.0543581224	 1.7231582222	 0.092144
H	-2.0078886465	 0.7246519979	 1.9267311268	 0.088366
