20
gdb 95641	2.05537	1.81739	1.03657	3.6472	76.26	-0.2343	0.0278	0.2621	1172.1454	0.171704	-440.321259	-440.31227	-440.311326	-440.354948	33.476	
C	-0.0345724667	 1.5530809281	-0.062809564	-0.404669
C	 0.0357091585	 0.0241698145	 0.0231653095	 0.033434
C	 0.6755717871	-0.5369804869	-1.2456987168	-0.092773
O	 0.8978211033	-1.9234889384	-1.1397531704	-0.239408
C	 1.8718067437	-2.1862573525	-0.1527689003	-0.196294
C	 1.6438115294	-1.4944096374	 1.1895426085	 0.385277
O	 2.2381488877	-1.8953212375	 2.1763633889	-0.38773
N	 0.7823175245	-0.4284499722	 1.2044795625	-0.104784
C	 0.4095848755	 0.1285706665	 2.4983775568	-0.351609
H	 0.9696880308	 1.9889591444	-0.0788308281	 0.128215
H	-0.5520866281	 1.8463281492	-0.9817152074	 0.12445
H	-0.5837069321	 1.9861764321	 0.7757535677	 0.129199
H	-0.9908746057	-0.3703365495	 0.0901758768	 0.089303
H	 0.0038120296	-0.3798752819	-2.0938475035	 0.117501
H	 1.620912534	-0.005569943	-1.45253997	 0.091722
H	 1.8726080047	-3.2613696409	 0.0362676219	 0.143822
H	 2.8792358122	-1.9067186376	-0.5046834052	 0.117349
H	 0.8822428289	-0.4782897077	 3.2691384544	 0.170449
H	 0.7469456866	 1.1643850625	 2.6072997014	 0.127018
H	-0.6800393338	 0.1026607781	 2.6238140175	 0.119528
