17
gdb 93452	2.9168	1.39583	0.97901	3.2967	70.64	-0.2475	-0.0262	0.2213	1164.9951	0.137549	-455.217645	-455.20945	-455.208505	-455.250653	30.734	
C	-0.0691157913	 1.5543201748	-0.0268551264	-0.405339
C	 0.0331789241	 0.0328024092	-0.002853541	-0.082586
N	 0.7516065074	-0.4684872223	-1.1713059564	-0.315974
C	 0.8098261921	-1.9211251047	-1.2144194697	-0.289447
C	 1.5141193809	-2.4682207571	 0.0160943902	 0.437493
O	 2.0827369664	-3.5328659621	 0.0528446295	-0.336935
N	 1.4250006127	-1.6522403214	 1.1388934727	-0.372194
C	 0.7461242289	-0.4444488217	 1.2640384894	 0.463336
O	 0.7109818142	 0.1423225696	 2.3200353381	-0.34438
H	 0.9236940893	 1.9990233466	-0.1342145591	 0.137358
H	-0.6905991644	 1.8804434175	-0.8665980207	 0.111173
H	-0.5140604093	 1.9132157861	 0.9019408111	 0.149606
H	-0.9904394252	-0.3921717972	 0.0694030233	 0.089937
H	 0.32509531	-0.1083170757	-2.0174170904	 0.232492
H	-0.1831226149	-2.4118349609	-1.2543205643	 0.115443
H	 1.374627991	-2.2559495	-2.0866721975	 0.144671
H	 1.8819697581	-1.9934596307	 1.976932481	 0.265347
