18
gdb 23274	2.71739	1.44986	1.15731	1.8066	74.92	-0.2465	-0.0034	0.2431	1097.255	0.147624	-439.041433	-439.033225	-439.03228	-439.074005	31.732	
C	 0.8296851633	 1.5265663672	-0.2999764688	-0.40075
C	 0.1156716278	 0.2100230849	 0.0526672601	-0.083292
C	 0.1800997743	-0.8579385829	-1.0817270785	-0.271414
C	 1.2249389959	-1.8648582594	-0.6340726675	 0.051414
O	 2.4727338087	-1.2677751527	-0.2756942696	-0.254283
C	 1.5602729312	-1.6392376922	 0.7827234254	-0.057362
C	 0.7599018478	-0.4802117179	 1.2459877571	 0.431019
N	 0.6476469523	-0.2239020417	 2.4886947097	-0.249873
O	-0.1931952877	 0.8789316006	 2.7109756777	-0.389321
H	 1.8744796979	 1.3367542801	-0.5574764588	 0.138192
H	 0.3421522864	 2.0053534786	-1.1556920096	 0.109879
H	 0.7953405768	 2.2181446132	 0.5454343539	 0.133823
H	-0.9230901535	 0.4396869967	 0.3074057828	 0.104048
H	-0.7822972402	-1.3692624832	-1.1958704401	 0.108557
H	 0.4334899271	-0.4148475304	-2.0498846426	 0.113989
H	 1.2917792896	-2.8468256403	-1.0960562549	 0.099079
H	 1.9073132636	-2.4002835414	 1.4728342929	 0.107287
H	-0.1985280213	 0.9400782708	 3.6723212209	 0.309007
