18
gdb 50837	4.83209	0.83197	0.77665	5.564	75.52	-0.2473	-0.031	0.2163	1480.3259	0.147495	-439.124558	-439.115543	-439.114599	-439.16013	31.678	
O	-0.6422715766	 0.342913283	-0.2166926829	-0.250454
C	-0.201240841	 1.4566719861	-0.2632591486	 0.166244
N	 1.1335116901	 1.8318173056	-0.1303695007	-0.355599
C	 2.2521160114	 1.0070025849	 0.0923640226	 0.424883
O	 2.1794374691	-0.1927529657	 0.1757667712	-0.308039
C	 3.543083636	 1.782155011	 0.2719986395	-0.105383
C	 3.9674992562	 2.0705917134	 1.7546139116	-0.222838
C	 5.4213894972	 1.689698406	 1.3705574753	-0.211397
C	 4.86586596	 0.993340873	 0.1001841447	-0.226492
H	-0.8313299628	 2.3563809248	-0.4246715831	 0.082854
H	 1.3107047601	 2.8239024993	-0.1910673905	 0.254435
H	 3.5362201199	 2.7058304918	-0.3159993485	 0.072014
H	 3.7808195678	 3.0747783277	 2.1415058478	 0.101489
H	 3.5204546509	 1.3390849928	 2.4328861295	 0.126769
H	 6.0203038058	 2.5718469098	 1.1273271406	 0.104241
H	 5.9804172588	 1.0751481611	 2.078860368	 0.107716
H	 4.6780979244	-0.0709174764	 0.2567847111	 0.13749
H	 5.4067131127	 1.129202502	-0.8384631374	 0.102069
