19
gdb 41698	3.04313	1.78316	1.52063	0.6854	72.89	-0.2366	0.0819	0.3185	927.9988	0.162848	-422.998655	-422.992097	-422.991153	-423.029332	27.382	
C	 0.046833291	 1.5892371885	 0.0325545744	-0.106025
O	 1.4435270628	 1.529381632	-0.3299685819	-0.294076
C	 1.3540130259	 0.1002181815	-0.586807281	 0.130112
C	 2.4714435528	-0.7236225609	 0.0653385626	-0.236965
C	 2.0352805231	-1.1853571903	 1.4572146911	 0.095157
C	 1.354746129	-0.0591376884	 2.2577310485	-0.26542
C	 0.1076411801	-0.5633541481	 1.4969715996	 0.078421
O	 0.747540324	-1.8621373872	 1.3218380843	-0.304442
C	-0.0358091032	 0.0531893655	 0.1076139348	-0.060551
H	-0.11553103	 2.1499761209	 0.9607534433	 0.102873
H	-0.5608968467	 2.0347373086	-0.7659396743	 0.101804
H	 1.3124323092	-0.0788347867	-1.6686535891	 0.075568
H	 2.6862704133	-1.6078437165	-0.5443002197	 0.107407
H	 3.3835468247	-0.1169940063	 0.1098121621	 0.112968
H	 2.7784566943	-1.8162847192	 1.9514603799	 0.075324
H	 1.2933049001	-0.2914106884	 3.3218664765	 0.107575
H	 1.6970118939	 0.963173667	 2.0996976387	 0.12372
H	-0.841004865	-0.6366100881	 2.0365063844	 0.076093
H	-0.8434415993	-0.4301400539	-0.4451148442	 0.080455
