19
gdb 48733	3.29952	1.34755	1.16515	3.224	81.05	-0.239	-0.0166	0.2223	1104.4862	0.159988	-385.853326	-385.845772	-385.844828	-385.885289	30.116	
O	-0.1692948062	 0.0160396373	 0.0532775704	-0.277897
C	-0.0252513189	 1.2135315635	-0.0460928711	 0.049246
C	 1.2593612387	 1.9088090342	 0.0211286368	 0.2736
C	 1.3472871469	 3.3864007765	 0.3421889294	-0.351226
C	 1.7805177853	 2.9730254118	-1.0153225843	-0.102153
C	 3.1474754914	 2.2567331468	-1.0398409831	-0.0107
C	 4.2499322998	 2.7140885334	-0.037617758	-0.245222
C	 3.7317976118	 1.6672912337	 1.0043338786	-0.24634
C	 2.633783769	 1.2136668794	-0.0019385638	-0.087219
H	-0.8973239344	 1.8873592393	-0.2239595481	 0.057157
H	 0.3879284016	 3.8941710929	 0.3850895601	 0.124881
H	 2.0534438768	 3.7236798191	 1.0933835881	 0.127004
H	 1.2510105929	 3.3159044734	-1.8966268222	 0.102711
H	 3.4665870676	 1.9492163841	-2.0350356413	 0.075815
H	 5.2613066701	 2.5054055615	-0.393500383	 0.105288
H	 4.2093166094	 3.7631529025	 0.2670054713	 0.102043
H	 4.4578407939	 0.8814926312	 1.2240302269	 0.106736
H	 3.37189644	 2.0678392668	 1.9558600503	 0.10291
H	 2.5630464044	 0.1544160024	-0.2421439572	 0.093366
