17
gdb 34611	3.27123	1.36713	1.06183	1.2575	83.08	-0.232	-0.0223	0.2097	1121.1942	0.136446	-384.654689	-384.647052	-384.646107	-384.686905	29.62	
C	 0.05320561	-1.1285451944	 0.2383353677	-0.42444
C	-0.0374195352	 0.0673534307	 0.1186185155	 0.210291
C	-0.0785460556	 1.4753033843	-0.026594416	 0.204952
C	-1.1786049538	 2.2470485749	-0.0624204266	-0.173318
C	-0.8702347962	 3.7117956346	-0.2363815973	-0.2705
C	 0.6616455288	 3.7617968145	-0.1437361996	 0.11213
O	 1.1375621425	 3.9642312813	 1.2066658873	-0.290782
C	 1.8319627994	 2.6980208953	 1.2087664066	-0.075118
C	 1.186153042	 2.3025840126	-0.1384097379	-0.201295
H	 0.1141577476	-2.1831670363	 0.3449967818	 0.193434
H	-2.1890047096	 1.8629922357	 0.0175263086	 0.103281
H	-1.2443144759	 4.0928646875	-1.1965611231	 0.110383
H	-1.3140609411	 4.3362859693	 0.5484255187	 0.128128
H	 1.1252379683	 4.4699197363	-0.8389543383	 0.072749
H	 2.9208398096	 2.8319672474	 1.1651670291	 0.098698
H	 1.5754227226	 2.0836120727	 2.0786534331	 0.11195
H	 1.8629240266	 1.9624961138	-0.9241377698	 0.089457
