15
gdb 25160	3.20228	1.23861	0.96118	3.4481	72.46	-0.1966	0.0327	0.2293	1178.4058	0.112768	-416.824217	-416.815914	-416.81497	-416.857917	30.553	
O	-0.132262493	-0.0141083532	-0.5479985615	-0.446576
C	-0.1006380133	 1.1647406708	-0.2434213347	 0.476254
N	-1.142520722	 2.0750472937	-0.1716713019	-0.366443
C	-0.6849443826	 3.3342449807	 0.2108720416	-0.09189
C	 0.6479881838	 3.2386138074	 0.3847576056	-0.104664
N	 1.0147139437	 1.9214104669	 0.1128101419	-0.095478
C	 2.3457581074	 1.3451878529	 0.1392276665	-0.314419
C	 3.0447916934	 1.5639955761	 1.4029179764	 0.302259
C	 3.6332188388	 1.7647877694	 2.4304947176	-0.446454
H	-2.0896524956	 1.8136549979	-0.3787954043	 0.270375
H	-1.3462893586	 4.1743746365	 0.3294420576	 0.1421
H	 1.3691603891	 3.9732766755	 0.6976182676	 0.146549
H	 2.2015798804	 0.2757047244	-0.0507463875	 0.179843
H	 2.9500844402	 1.7425745865	-0.6876643328	 0.14329
H	 4.1499104584	 1.9253408743	 3.3444055782	 0.205253
