21
gdb 53236	3.02509	0.89102	0.8284	1.7496	88.13	-0.2392	0.0334	0.2725	1541.9181	0.179956	-387.057892	-387.047311	-387.046367	-387.095782	37.096	
C	 0.088854543	 1.4805765867	 0.231568398	-0.499564
C	 0.0413303625	 0.0281449397	 0.1545835773	 0.070726
C	 0.0099930191	-1.1749757259	 0.099029137	 0.091846
C	-0.0180742097	-2.6239125184	 0.015442329	-0.055967
O	 0.3064818206	-3.2879003333	 1.2635392249	-0.304904
C	-0.8465269742	-4.1590682637	 1.1630061746	 0.161503
C	-1.6255666654	-4.2322154547	 2.4606492105	-0.402602
C	-1.3941846757	-3.3618317513	-0.054463958	-0.073997
C	-2.6440905421	-2.5156668042	 0.1364337616	-0.405418
H	 0.810151409	 1.8959295802	-0.4807490786	 0.14956
H	-0.8888935064	 1.9242634973	 0.0136839879	 0.148595
H	 0.3851010518	 1.809380469	 1.2337771565	 0.153914
H	 0.6667862974	-2.9556094555	-0.7785453327	 0.092692
H	-0.5282183538	-5.1716653299	 0.8724615835	 0.06813
H	-1.9649949791	-3.2448969533	 2.7829395914	 0.123886
H	-2.4963498768	-4.8882119967	 2.3531883686	 0.113538
H	-0.9869408894	-4.6446422508	 3.248286885	 0.127305
H	-1.4945823077	-3.9720364468	-0.9555947842	 0.075882
H	-2.5588240577	-1.8487330329	 0.9979426862	 0.131484
H	-2.8177219033	-1.8893762035	-0.7441362834	 0.120917
H	-3.525524382	-3.149960962	 0.2770089351	 0.112474
