23
gdb 92905	2.37572	1.45958	1.09693	1.4537	86.86	-0.2444	0.0191	0.2635	1228.7017	0.206149	-388.316474	-388.307021	-388.306077	-388.349938	37.05	
C	-0.0040055889	 1.5685418978	 0.0174485988	-0.412818
C	 0.0413646048	 0.0388641253	 0.0184726383	 0.022788
C	 0.6840090532	-0.513836055	-1.2688493707	-0.267482
C	 1.0627510492	-1.9680890535	-1.1583526837	-0.085444
C	 1.0391428349	-2.6525286011	-0.0132983743	-0.055092
C	 0.6486233001	-2.0484612097	 1.319481152	-0.052898
C	 1.4496571348	-2.6535218711	 2.4808725665	-0.400574
C	 0.7819000379	-0.5130203114	 1.2527414832	 0.116211
O	 2.1472850878	-0.0983397768	 1.2695037992	-0.444847
H	 1.0093041489	 1.9764455627	 0.0793638946	 0.1299
H	-0.4756866921	 1.9519227776	-0.8936589931	 0.104764
H	-0.571380698	 1.9489568039	 0.8736121896	 0.107769
H	-0.9867541043	-0.3455083992	 0.0708493448	 0.070611
H	-0.0006611016	-0.371426173	-2.114819262	 0.107059
H	 1.5750488411	 0.0799242786	-1.5250434011	 0.107484
H	 1.3713911701	-2.4653113551	-2.075585716	 0.086036
H	 1.3196471345	-3.7041101506	-0.0096593835	 0.083293
H	-0.4140420769	-2.2715385604	 1.5009493717	 0.084121
H	 2.5142588701	-2.4247520097	 2.3856233679	 0.121926
H	 1.1087438489	-2.2507111972	 3.4400466332	 0.112717
H	 1.3315889725	-3.7416483757	 2.5096719165	 0.107501
H	 0.3491976423	-0.0752236147	 2.1603292548	 0.073985
H	 2.6072242808	-0.6070981317	 0.5915235534	 0.282986
