14
gdb 129366	6.37401	0.7675	0.69725	4.0231	66.03	-0.2831	-0.0534	0.2297	1501.3814	0.100384	-469.949663	-469.941443	-469.940499	-469.985662	27.29	
N	-0.0310097495	 1.2695769994	-0.2952766525	-0.427939
C	-0.0171706817	 0.0316291789	-0.0664171866	 0.139231
O	-1.1529791318	-0.6875974451	-0.2193499479	-0.191587
C	-1.0562197181	-2.0788109262	 0.0706696576	-0.187763
C	-2.4337004052	-2.6478273674	-0.0342564221	 0.325777
N	-2.6551758955	-3.8823786721	-0.3948417303	-0.151923
O	-4.0089319141	-4.0474666138	-0.339974262	-0.143692
N	-4.6361511882	-2.8976529629	 0.0474770558	-0.055311
C	-3.6853766281	-2.0274997839	 0.2412266636	-0.094068
H	 0.8920580286	 1.6679312665	-0.1372094255	 0.237223
H	 0.8431883986	-0.5695645613	 0.2579662704	 0.094688
H	-0.3883694711	-2.5905675148	-0.6318327594	 0.147231
H	-0.6634235069	-2.2282113075	 1.0862438107	 0.138853
H	-3.895179127	-1.0149325298	 0.5453482782	 0.169279
