20
gdb 119121	2.44854	1.23991	0.94263	3.0043	76.31	-0.2367	0.0294	0.2661	1312.1559	0.16938	-440.306034	-440.29619	-440.295246	-440.341007	36.496	
C	-0.9035495624	 1.4804738489	-0.5169515057	-0.386576
C	-1.4215741179	 0.1264963229	-0.9691017496	-0.065016
O	-1.390561821	-0.7567429252	 0.155140552	-0.309511
C	-1.8305962207	-2.0579975474	-0.1108234822	 0.313385
C	-2.7702012342	-2.6638369949	 0.9075625046	-0.29454
C	-3.2806497013	-2.3062226171	-0.459112003	-0.310267
C	-0.8089398517	-3.0072028456	-0.6925331839	 0.343454
N	 0.4636781533	-2.514028231	-0.7062135412	-0.537305
O	-1.1087087653	-4.1153234939	-1.0992076278	-0.377487
H	-0.9295187886	 2.1913434504	-1.3481248556	 0.120637
H	-1.5174574009	 1.8751157846	 0.2975876664	 0.129492
H	 0.1282928039	 1.4062109703	-0.1604741539	 0.120467
H	-2.4499572526	 0.2101813328	-1.3460750854	 0.100062
H	-0.8041663152	-0.2778710815	-1.7834674881	 0.104284
H	-2.628433599	-3.7113617247	 1.1442092765	 0.135149
H	-3.039352077	-2.016963472	 1.7342790308	 0.124142
H	-3.9180328129	-1.433982384	-0.5445378721	 0.118026
H	-3.4729243499	-3.1106054627	-1.1583794209	 0.145442
H	 0.6697269243	-1.6919400456	-0.1629762761	 0.266252
H	 1.2065346192	-3.1567542344	-0.9278854146	 0.25991
