21
gdb 113388	2.99823	0.96374	0.81546	2.8254	75.13	-0.2586	0.0646	0.3232	1477.7807	0.180808	-461.338352	-461.328167	-461.327222	-461.373875	37.221	
C	-0.2406180618	 1.4064941617	-0.5399151785	-0.376977
C	-0.0117064012	 0.1009660288	 0.2318272601	-0.22254
C	-1.3054257744	-0.6426096006	 0.469396876	 0.03057
O	-1.8954829274	-1.3156062101	-0.6548706562	-0.309083
C	-1.4418180184	-2.1080413608	 0.4726499248	 0.277922
C	-0.2550483021	-3.0331817761	 0.2054960286	-0.109475
O	-0.5918573328	-4.4050705424	 0.2400455681	-0.430204
C	-2.6206824135	-2.7500448488	 1.1805357113	-0.142358
O	-3.2914412377	-3.6278353804	 0.2741751563	-0.420683
H	 0.7010288462	 1.9396802776	-0.6979161786	 0.117763
H	-0.6855247693	 1.200777134	-1.5179107463	 0.135384
H	-0.9176162356	 2.0746046103	 0.0034627524	 0.116945
H	 0.6913556153	-0.5349480263	-0.3135153892	 0.111801
H	 0.4428995628	 0.3162911063	 1.2075671813	 0.106266
H	-2.0337974218	-0.0807793521	 1.061046269	 0.084203
H	 0.1880658954	-2.7452962752	-0.7591204378	 0.101201
H	 0.509411698	-2.8830751736	 0.9789118408	 0.10735
H	-1.4912107908	-4.4976389795	-0.1048185532	 0.291075
H	-2.2901127907	-3.3671598303	 2.01920475	 0.131464
H	-3.307475741	-1.9794153764	 1.5541062318	 0.099443
H	-3.5280633692	-3.082576136	-0.4873241908	 0.299932
