18
gdb 72846	3.4754	1.26088	1.09393	4.3473	75.92	-0.2563	0.0237	0.28	1134.8145	0.147547	-401.937451	-401.929156	-401.928211	-401.970583	31.215	
C	-0.1669326517	 1.6153487947	 0.4006388568	-0.47852
C	 0.0855575841	 0.1699925705	 0.0669404277	 0.456555
C	-1.1168403727	-0.7961185519	-0.1263282563	-0.292566
C	-0.4310392896	-1.8280061763	 0.8400003636	-0.151545
C	-0.2085546013	-3.1773160531	 0.348010286	 0.278538
N	-0.0148861943	-4.2427202931	-0.0584941944	-0.334782
C	 0.8103787722	-0.8880190574	 0.9603798907	-0.151145
C	 1.8122600155	-0.9663410223	-0.2000313395	-0.098931
O	 1.0650362236	-0.003087068	-0.982354754	-0.321815
H	 0.7672355519	 2.124320085	 0.6545634055	 0.129368
H	-0.6074553069	 2.1254879329	-0.463406835	 0.137139
H	-0.8607790594	 1.7104612943	 1.2420097666	 0.118532
H	-2.0774757965	-0.4352450333	 0.2469217454	 0.114998
H	-1.2266808354	-1.1312316699	-1.1580248099	 0.135584
H	-0.9635575175	-1.8899069364	 1.7923789004	 0.12763
H	 1.1945830618	-0.7079282942	 1.9630868706	 0.090371
H	 2.8126250659	-0.5896244944	 0.0433302458	 0.109975
H	 1.9054929602	-1.9362145071	-0.7017823901	 0.130612
