18
gdb 99242	4.98305	0.7163	0.63366	0.5664	71.18	-0.267	0.0142	0.2812	1746.0283	0.144687	-476.260685	-476.25021	-476.249266	-476.298348	34.81	
C	-0.1128064581	 1.328221045	 0.0035458862	-0.239054
O	 0.0664498872	-0.0923336481	-0.0649001866	-0.23255
C	 0.615672278	-0.5488554045	-1.2083641754	 0.412509
O	 0.9468282045	 0.1452464796	-2.1300858179	-0.33958
C	 0.7348967208	-2.058995775	-1.1183946751	-0.176204
O	 1.312070727	-2.5279788666	-2.3223831278	-0.217093
C	 1.4933627999	-3.8640290799	-2.4154671723	 0.401972
C	 2.1123334737	-4.2052211672	-3.7453719581	-0.46096
N	 1.1578852121	-4.6359906775	-1.4652007521	-0.519871
H	 0.8472938991	 1.8424175892	-0.0872745109	 0.142393
H	-0.7722669388	 1.6722544262	-0.7971998839	 0.142391
H	-0.5604172701	 1.5240786553	 0.977735523	 0.13531
H	 1.3462192568	-2.3351111578	-0.2523306358	 0.149141
H	-0.2528219523	-2.5031050691	-0.9534550125	 0.149136
H	 2.2668034218	-5.2810631629	-3.8396678482	 0.126589
H	 1.467451052	-3.8601656545	-4.559016759	 0.151949
H	 3.0719481822	-3.6914494354	-3.8555228048	 0.151949
H	 1.3626785341	-5.6043045067	-1.700086519	 0.221974
