16
gdb 49331	2.36369	1.75745	1.02904	2.1552	72.97	-0.2651	-0.0485	0.2166	1099.2782	0.125945	-434.12092	-434.112998	-434.112054	-434.153845	29.259	
N	-0.1565539899	 1.2865137771	-0.1149662894	-0.518791
C	-0.0539387704	 0.0355459333	-0.0097510098	 0.383126
C	-1.2148448429	-0.9270175042	 0.1431262364	-0.296711
C	-0.6294676478	-2.3075684482	-0.1827262556	-0.289463
C	 0.8573628465	-2.1593980316	 0.0615306415	 0.383729
N	 1.6369131253	-3.131041935	 0.2752807842	-0.515888
N	 1.1444581317	-0.7607895864	 0.0065770814	-0.176656
C	 2.4231934139	-0.2468496175	-0.1051850735	 0.165387
O	 2.6975974086	 0.9292138403	-0.1527531129	-0.299961
H	 0.7593604313	 1.7307049517	-0.1798327981	 0.257243
H	-1.568752027	-0.8818852773	 1.178879	 0.143946
H	-2.0423105686	-0.623886368	-0.498238641	 0.145712
H	-1.0311859979	-3.1275964992	 0.4117460855	 0.144908
H	-0.7796447721	-2.5599016378	-1.2386373177	 0.144054
H	 2.6053738036	-2.8596552417	 0.4394153618	 0.226406
H	 3.1912629155	-1.0365990851	-0.1647978326	 0.102958
