22
gdb 118716	3.854	0.89224	0.85572	2.2029	82.11	-0.2256	0.0829	0.3085	1453.6404	0.193996	-404.29775	-404.288291	-404.287347	-404.332021	35.898	
C	-0.1062153077	 1.6878224946	-0.2988488536	-0.483061
C	-0.082681511	 0.1778069727	-0.1475832845	 0.330223
C	-1.2991545452	-0.4015976158	 0.5643555152	-0.266716
C	-1.4364123163	 0.0642939068	 2.0179775687	-0.063818
O	-2.5420203745	-0.538135892	 2.6747352637	-0.419593
C	 0.55041273	-0.7296065011	-1.13549772	-0.071231
C	 1.7953720533	-0.1466338427	-1.7998787296	-0.267965
C	 2.3331313401	 0.0947259063	-0.3677928258	-0.156664
N	 1.1368592948	-0.5667489377	 0.2664525504	-0.177856
H	 0.637770462	 2.0638076298	-1.0026498251	 0.12256
H	-1.088680773	 2.0047515521	-0.6638210149	 0.124019
H	 0.0637036284	 2.184021782	 0.6628503279	 0.129593
H	-2.2132475795	-0.1468023989	 0.0143238287	 0.100094
H	-1.2129546823	-1.4952467577	 0.5625041602	 0.091229
H	-0.492980562	-0.1288696723	 2.5487621395	 0.105633
H	-1.626370309	 1.1414668219	 2.0637864351	 0.106493
H	-2.3664641243	-1.4829118138	 2.729891515	 0.280402
H	 0.0670054198	-1.653306104	-1.443064682	 0.085743
H	 2.3717194876	-0.8997095017	-2.3401380144	 0.112397
H	 1.6517552807	 0.71588034	-2.4579009319	 0.103531
H	 3.229245018	-0.4833247762	-0.1341912723	 0.111253
H	 2.4943350002	 1.1299192877	-0.0527054703	 0.103734
