13
gdb 25280	3.46183	1.77368	1.18157	1.4526	64.46	-0.2528	-0.0326	0.2202	937.4341	0.092814	-452.820925	-452.814706	-452.813762	-452.851748	23.57	
O	-0.0539386093	-0.0586626863	 0.0034511547	-0.360524
C	-0.0118751382	 1.1308953339	 0.0089122349	 0.537275
O	-1.0939065306	 1.9582094772	 0.0290370882	-0.2559
C	-0.7114864665	 3.3544634592	 0.030613021	-0.200056
C	 0.7818549992	 3.2875041875	 0.0083932461	 0.361789
N	 1.8143844977	 4.0777094718	-0.0026796361	-0.355901
C	 2.8992280295	 3.202497918	-0.023063391	-0.086983
C	 2.49939156	 1.8923010294	-0.0239055709	-0.134519
N	 1.1190933103	 1.9644675832	-0.0033414213	-0.118895
H	-1.1434172138	 3.8359293275	-0.8516216476	 0.161806
H	-1.1173167346	 3.8267699205	 0.9300240987	 0.161807
H	 3.9103614755	 3.5797671412	-0.0359433787	 0.127633
H	 3.0284581809	 0.9557426469	-0.036447288	 0.162468
