17
gdb 125529	5.03141	1.2717	1.02803	2.2926	83.6	-0.2094	-0.0105	0.1989	1146.1205	0.138289	-380.909256	-380.901864	-380.90092	-380.941204	28.498	
C	-0.0204459085	 1.4466279008	-0.0705696817	-0.488648
C	 0.0038544647	-0.0451588755	 0.0419101617	 0.369826
N	-0.0337673425	-0.804936975	-1.0600848578	-0.357642
N	 0.0033795861	-2.0580666951	-0.5761691346	 0.047084
C	-0.0063253492	-3.3256770486	-1.1745836314	-0.010903
C	 0.0471775485	-4.2587979072	-0.2153474733	-0.129443
C	 0.0979239513	-3.5898425875	 1.1541927252	-0.418125
C	 0.0631697828	-2.1334567734	 0.7831348712	 0.438384
C	 0.0656255975	-0.8312919247	 1.2298529503	-0.481529
H	 0.8763719584	 1.8972716452	 0.3691936763	 0.126491
H	-0.0716646236	 1.7383346852	-1.121628792	 0.139176
H	-0.8852000883	 1.8745634118	 0.4488461666	 0.126454
H	-0.0517597346	-3.4099105529	-2.2492661701	 0.14262
H	 0.0542778367	-5.3269039442	-0.3689412676	 0.114069
H	-0.7507431026	-3.8843824823	 1.7841240414	 0.140977
H	 1.00514121	-3.8618844597	 1.7080487008	 0.140974
H	 0.1050161835	-0.4750405468	 2.2466413548	 0.100235
