21
gdb 114856	4.00523	1.07159	0.96129	1.3494	86.42	-0.2257	0.0101	0.2358	1320.731	0.182951	-387.070203	-387.061732	-387.060788	-387.103435	32.815	
C	-0.0055109461	 1.5153095531	-0.1082270888	-0.382124
C	-0.0178026585	-0.0131266806	-0.0290282794	-0.172818
C	-1.426157367	-0.5876103682	 0.1341883634	 0.106389
O	-2.2512193772	-0.169709702	-0.9848466475	-0.294283
C	-3.0265062489	-1.2762275569	-1.3904613892	 0.095628
C	-2.8104411225	-2.0637374738	-2.7387249862	-0.253653
C	-2.7598726311	-3.3919927241	-1.8878534159	-0.312324
C	-2.4407002514	-2.4767203713	-0.7256518392	 0.224971
C	-1.467181607	-2.1129314787	 0.098813579	-0.25807
H	 1.012088138	 1.8942209817	-0.2429905156	 0.107235
H	-0.615905307	 1.8589202784	-0.9470659107	 0.136924
H	-0.4113398154	 1.9616853934	 0.8065539523	 0.110885
H	 0.4283203565	-0.4428051608	-0.9340972166	 0.096555
H	 0.5897595853	-0.3532294279	 0.8196759242	 0.091162
H	-1.8681962495	-0.175448141	 1.0583687871	 0.075725
H	-4.0959419742	-1.0853286499	-1.2201143184	 0.076215
H	-3.5930759641	-1.9863512547	-3.4970500576	 0.10156
H	-1.8354825793	-1.8302996855	-3.1700309799	 0.11775
H	-3.7465941351	-3.8605591083	-1.8233285422	 0.116128
H	-2.0210691777	-4.1500431884	-2.1526779895	 0.1158
H	-0.7049926879	-2.7257531143	 0.5639707007	 0.100346
