17
gdb 17555	3.32193	2.11843	1.65161	2.2912	68.26	-0.2331	0.08	0.3131	836.5833	0.141487	-363.795429	-363.788078	-363.787134	-363.826707	28.257	
C	 0.0413802103	 1.5289694208	 0.0185906208	-0.493419
C	-0.0497317722	 0.0353539032	-0.0400599757	 0.246524
C	-0.8870715833	-0.8138077587	 0.8375187654	-0.284616
N	 0.5784489298	-0.904395748	 0.9897746789	-0.16369
C	 1.0380070763	-1.7954095747	-0.1384923698	-0.25609
C	 0.4729024895	-0.8222793988	-1.1738358554	 0.402708
C	 0.0567916053	-0.9446926267	-2.57130374	-0.275231
O	 1.2797445386	-0.2826613208	-2.2026021771	-0.27114
H	 0.9958330377	 1.8746820276	-0.3884603213	 0.139723
H	-0.762297833	 1.9930933226	-0.5647327079	 0.122712
H	-0.0455218119	 1.8753853037	 1.0521076887	 0.131734
H	-1.3740561908	-0.3339369555	 1.6816541514	 0.122255
H	-1.4301652489	-1.6635536787	 0.4266202458	 0.108052
H	 2.1289945104	-1.8363193422	-0.1704033849	 0.129591
H	 0.6290238442	-2.8105439649	-0.0999464335	 0.107235
H	 0.1823067826	-1.891740377	-3.0946055277	 0.117595
H	-0.7238661345	-0.2955482716	-2.9662498076	 0.116058
