20
gdb 110747	2.48226	1.3038	1.11488	2.2873	80.87	-0.2256	-0.0165	0.2091	1218.4795	0.168954	-403.129463	-403.120091	-403.119147	-403.163812	34.679	
C	-0.0183083353	 1.4511672403	-0.2939500508	-0.375522
C	 0.0530478459	 0.0403841867	 0.2834381522	-0.13242
N	-1.2423670902	-0.6276284585	 0.1285273278	-0.114153
C	-1.6412785982	-1.3345578206	-1.05922471	-0.094852
C	-0.4688874736	-2.067926547	-1.7318192418	-0.381238
C	-0.2903644091	-2.8194098511	-0.3846061374	 0.366056
O	 0.361593848	-3.7694407845	-0.0560896338	-0.307318
C	-1.4359154254	-2.067769536	 0.2758791124	 0.193673
C	-2.3699178583	-2.6084974626	 1.3158576341	-0.495483
H	 0.9231134982	 1.9827171678	-0.1262230627	 0.117412
H	-0.2035269989	 1.4242713797	-1.3729860274	 0.119269
H	-0.8287127912	 2.0179564178	 0.1728752356	 0.128989
H	 0.8915733564	-0.5062441336	-0.1711975425	 0.101247
H	 0.2534603897	 0.0826679989	 1.3595343938	 0.112787
H	-2.5890372907	-1.0895832827	-1.5258041311	 0.106708
H	-0.777235834	-2.7751991827	-2.5079215732	 0.131916
H	 0.359390286	-1.4647406529	-2.1117343289	 0.124383
H	-1.8698303863	-2.6713178926	 2.2882966443	 0.135926
H	-3.2378219292	-1.9530902323	 1.4225664775	 0.133259
H	-2.7104616637	-3.6145544442	 1.0524398818	 0.12936
