19
gdb 30838	2.31802	1.37812	0.91308	1.607	81.72	-0.1751	0.0436	0.2187	1307.7977	0.159032	-419.232455	-419.222733	-419.221788	-419.267033	35.505	
C	 0.3278233585	 1.1851325184	-0.2924900882	-0.324591
N	-0.3705891763	 0.0640872547	 0.344756623	-0.382257
C	 0.389782399	-0.7459376382	 1.1773299652	 0.200221
C	 0.771955496	-2.0462888041	 1.0902084939	 0.275289
C	 0.4131671587	-2.995754877	-0.0077621583	-0.50701
C	 1.5819800322	-2.3203990547	 2.2512415564	-0.385921
C	 1.6265080198	-1.1589385476	 2.9623513469	 0.381181
N	 2.1679461407	-0.816991549	 4.1960372569	-0.595326
O	 0.9229870592	-0.1847501756	 2.3493917056	-0.210185
H	 1.1505130456	 0.7928902208	-0.897254625	 0.12853
H	-0.3663340119	 1.708006368	-0.9576003536	 0.114486
H	 0.7434006488	 1.9127646543	 0.4201604585	 0.110538
H	-1.2231605653	 0.3831977531	 0.792978708	 0.228735
H	 1.3051137411	-3.3722047143	-0.522642957	 0.120078
H	-0.125028814	-3.8698749383	 0.3775478786	 0.121531
H	-0.2234706005	-2.4977972917	-0.7428926723	 0.133548
H	 2.0534986704	-3.2548924386	 2.5124985039	 0.087478
H	 2.9251918801	-1.4285322166	 4.4686965346	 0.252161
H	 2.4617836978	 0.1511652265	 4.2345909928	 0.251515
