16
gdb 44662	3.00323	1.81046	1.59948	2.235	72.08	-0.2289	-0.028	0.2009	879.1851	0.126802	-400.752954	-400.746641	-400.745696	-400.783575	25.939	
O	 0.0009035744	-0.0056234902	-0.2332600325	-0.314772
C	-0.016152547	 1.1751826031	-0.0008678306	 0.402942
C	-1.2548515071	 2.0676109272	 0.1449641376	-0.31568
C	-0.7027587551	 3.3155157444	 0.8663042109	-0.084383
C	-0.5454238607	 3.0018129064	 2.3399980948	-0.075237
C	 0.7082914194	 2.6313068758	 2.5933857146	-0.083127
C	 1.5337882046	 2.8083500928	 1.3680213159	-0.054619
C	 1.1756240909	 2.0901119694	 0.0870126465	-0.164127
N	 0.7147025582	 3.4744988646	 0.3441202639	-0.118849
H	-1.5962026807	 2.3288817863	-0.8650500339	 0.137643
H	-2.069626974	 1.553550738	 0.6590024042	 0.129776
H	-1.2769869282	 4.2188471667	 0.6519580913	 0.095229
H	-1.3842371152	 2.9570568924	 3.0241253883	 0.111277
H	 1.1082312416	 2.2741870848	 3.5332611493	 0.113143
H	 2.5650906641	 3.1410402886	 1.4607584568	 0.104405
H	 1.9547234547	 1.9482971796	-0.6569773168	 0.11638
