19
gdb 104101	2.49076	1.31198	1.13916	3.7389	71.09	-0.2695	0.0086	0.2781	1163.3443	0.158861	-460.219142	-460.210279	-460.209335	-460.252672	33.52	
C	-0.1942073991	 1.6580942596	 0.0466286036	-0.432226
C	 0.0212564914	 0.1567180895	-0.0792631886	 0.341884
C	-1.3107577876	-0.6112704909	-0.0846006209	-0.079378
O	-2.0394573084	-0.4222662795	 1.1070017552	-0.418818
C	 0.9302276397	-0.255715944	-1.259492509	-0.280446
C	 1.7853964317	-1.3890070766	-0.6858138097	-0.36228
C	 1.7240227506	-1.1803561855	 0.8226847802	 0.41928
O	 2.393492863	-1.6897305121	 1.6723092464	-0.33124
O	 0.7370898153	-0.2862437787	 1.1132796274	-0.264455
H	 0.7582632582	 2.168808162	 0.2107273406	 0.124179
H	-0.6440524743	 2.0471735992	-0.8726545131	 0.120894
H	-0.8666837975	 1.8776326782	 0.8782641681	 0.144006
H	-1.9384283147	-0.2452363758	-0.9042733246	 0.114008
H	-1.1117163324	-1.679916058	-0.2707363755	 0.085462
H	-1.4454816975	-0.6524780311	 1.8319667252	 0.295655
H	 0.3430143579	-0.5524992521	-2.1324230788	 0.116973
H	 1.5568355234	 0.5901354344	-1.5560489126	 0.118015
H	 1.3772058078	-2.3815244047	-0.9037565286	 0.144561
H	 2.8243469827	-1.3901132938	-1.0188035752	 0.143926
