19
gdb 67085	2.58218	1.51846	1.32711	2.937	80.61	-0.2463	-0.0292	0.2171	1058.3847	0.158758	-385.85619	-385.847988	-385.847044	-385.889073	31.42	
C	-0.0806441247	 1.5542099353	-0.0439529829	-0.528239
C	-0.0058265137	 0.0647863204	-0.0010691234	 0.301665
C	 0.0102093763	-1.0034286855	-1.0656910483	-0.110998
C	 1.2885342286	-1.6382900241	-0.5281504487	-0.279531
C	 0.9344563825	-0.9682476016	 0.8206412905	 0.190187
C	-0.3777211045	-1.6727948528	 1.2801281895	-0.286133
C	-1.0389717495	-1.0324118436	 0.0672374387	-0.112163
C	 1.9776004879	-0.561042731	 1.7969331075	 0.038721
O	 3.167541125	-0.6462704347	 1.6092031261	-0.250866
H	 0.8731769618	 1.9993066484	-0.3491426594	 0.131414
H	-0.8404545608	 1.8699504558	-0.7677176902	 0.128301
H	-0.3537652673	 1.9801162575	 0.9282979006	 0.123775
H	-0.2973251668	-0.8900280759	-2.0982192556	 0.086938
H	 1.3823483544	-2.7298050494	-0.5277471536	 0.094262
H	 2.183987405	-1.1913422352	-0.9650668538	 0.118128
H	-0.3399367559	-2.7653353351	 1.3588711329	 0.098502
H	-0.7577091018	-1.2482576377	 2.2144953138	 0.102688
H	-2.0967194398	-0.9529537834	-0.1517275629	 0.087455
H	 1.5808641034	-0.1350501074	 2.7486759491	 0.065897
