19
gdb 89954	2.82772	1.37046	1.07972	1.1664	76.49	-0.2532	-0.0356	0.2176	1156.2117	0.15824	-423.004474	-422.9959	-422.994955	-423.038032	31.847	
C	-0.7164222978	 1.2434593175	 0.0054045631	-0.407061
C	 0.095589917	-0.0416314578	-0.0182299309	 0.02433
C	 1.3052605347	-0.1515151086	-1.002772242	-0.325527
C	 2.2428278129	-0.5510261458	 0.163282363	 0.200188
C	 2.8850290189	 0.6288483141	 0.9138672183	-0.132276
O	 1.6935678691	 0.8762797086	 1.6902689576	-0.282256
C	 1.0516927393	-0.3013166719	 1.1722271722	 0.058975
C	 2.9639819824	-1.8534884769	 0.1032355439	 0.056961
O	 2.8439680076	-2.6674329468	-0.7795622829	-0.251063
H	-0.0730861182	 2.1009631384	 0.2206977714	 0.130103
H	-1.2056105169	 1.4096388304	-0.9599558316	 0.117127
H	-1.4950348134	 1.2082489761	 0.7749621152	 0.118136
H	-0.5635628695	-0.9085913352	-0.1378402353	 0.083725
H	 1.2133134256	-0.9371484415	-1.7538605549	 0.132212
H	 1.5862953214	 0.7835990696	-1.4953326005	 0.101469
H	 3.7257621394	 0.3411518964	 1.5609812856	 0.105896
H	 3.1765248182	 1.4901097677	 0.3017990374	 0.111991
H	 0.7444418271	-0.9888643721	 1.9659181534	 0.083092
H	 3.6270086124	-2.0517627221	 0.977823187	 0.073977
