18
gdb 56555	2.81322	1.13814	0.84216	4.1089	73.41	-0.25	0.0088	0.2587	1314.876	0.147562	-435.31197	-435.302055	-435.301111	-435.347694	35.848	
C	 0.0176193431	 1.6852599655	 0.5701041363	-0.404113
C	-0.0869466332	 0.2480809585	 0.0476034343	-0.094921
C	 0.7512816505	-0.7486209268	 0.897312052	-0.151651
N	 0.8958280015	-2.052007567	 0.2238426595	-0.508795
C	 2.0747354857	-0.1878687713	 1.2393378216	 0.276451
N	 3.1399971177	 0.1894944804	 1.4840656818	-0.324234
C	-1.5837514998	-0.1487257063	-0.0748512092	 0.393124
N	-1.8500333118	-1.4784788107	-0.1086877356	-0.524445
O	-2.4494071329	 0.70278767	-0.1529647077	-0.362882
H	 1.0365085182	 2.0664092294	 0.477080956	 0.134069
H	-0.6642447628	 2.321072218	 0.0065043316	 0.152079
H	-0.2774425305	 1.7420022101	 1.6231719312	 0.125062
H	 0.3215897331	 0.2170728895	-0.9732659182	 0.1103
H	 0.2198884168	-0.925039407	 1.8402074739	 0.146382
H	 1.4653189431	-1.942651778	-0.6115504126	 0.251487
H	 1.3881766047	-2.7040584278	 0.8275070173	 0.254899
H	-1.0948300517	-2.1531471607	-0.1156554229	 0.271147
H	-2.8081654517	-1.7566468558	-0.2449023493	 0.256043
