16
gdb 53481	8.16661	0.58082	0.54589	1.3659	77.67	-0.2569	-0.0241	0.2327	1964.1914	0.120932	-437.893923	-437.883638	-437.882694	-437.932034	33.555	
C	 0.2496140738	 1.495636804	 0.049837564	-0.498204
C	 0.0896819305	 0.0520815194	-0.0385899399	 0.099522
C	-0.0524082362	-1.1396527794	-0.109728859	 0.075483
C	-0.2062482428	-2.5811058927	-0.1991856658	-0.515031
C	-1.6284413736	-3.0708562692	 0.0288628511	 0.483728
O	-2.596093367	-2.4094334289	 0.2657590018	-0.317674
O	-1.6325877769	-4.4422658663	-0.0830519961	-0.208041
C	-2.8268154743	-5.0999021444	 0.088193674	 0.117305
N	-2.8264229877	-6.3527309654	-0.0148370221	-0.41783
H	 0.9539303973	 1.7704704657	 0.8424955917	 0.150023
H	 0.6265603354	 1.912861616	-0.8902353206	 0.150024
H	-0.7063515676	 1.9826258612	 0.2704644799	 0.156114
H	 0.1111596064	-2.9618380672	-1.178936003	 0.168959
H	 0.4328179714	-3.1019836018	 0.5260002889	 0.168959
H	-3.655418389	-4.4240246083	 0.3000527426	 0.145394
H	-3.7689720198	-6.7107659728	 0.1335519627	 0.24127
