20
gdb 113510	3.3346	1.02423	0.90702	3.7448	82.58	-0.2281	-0.0257	0.2023	1372.4502	0.16924	-403.128531	-403.119308	-403.118364	-403.162985	34.044	
C	 0.4612447047	 1.5585616451	 0.1783934954	-0.378625
C	-0.16617263	 0.2014760647	-0.1282005337	-0.117472
N	 0.5396479776	-0.4440788873	-1.234957046	-0.11993
C	 1.6661210232	-1.2923520395	-0.8970906414	-0.304414
C	 0.3774616367	-1.8839265439	-1.3786831963	 0.248234
C	-0.5514415576	-2.8729626715	-0.6385842886	-0.332502
C	-0.690703013	-3.6989437307	-1.9565272395	-0.34769
C	 0.1444957129	-2.6199340874	-2.6836780126	 0.345663
O	 0.4802372515	-2.4440260803	-3.8181230165	-0.299801
H	 1.5007834158	 1.4451635077	 0.5024386163	 0.120316
H	 0.4514843026	 2.1945528872	-0.7107456885	 0.13394
H	-0.0896133629	 2.0640085051	 0.9773019779	 0.114679
H	-0.1721959145	-0.4245271951	 0.7807823332	 0.086467
H	-1.2102384581	 0.3329708041	-0.4349514449	 0.108512
H	 2.5191647251	-1.2462224826	-1.568828841	 0.132962
H	 1.9026110493	-1.4493485501	 0.15607474	 0.112181
H	-0.1031108916	-3.4062281119	 0.2012625211	 0.113254
H	-1.4921710964	-2.4252695711	-0.3089482614	 0.116681
H	-0.2037664099	-4.6780892708	-1.9433826028	 0.13392
H	-1.7045930355	-3.8208749518	-2.3460648107	 0.133622
