19
gdb 115760	2.23406	1.34422	0.95459	4.6767	76.36	-0.2497	0.0146	0.2643	1252.0849	0.159472	-419.189804	-419.180713	-419.179769	-419.224308	33.057	
O	 0.1069894696	 1.3449148539	-0.2166647556	-0.417813
C	 0.06095799	-0.0325528739	 0.0924523069	-0.083902
C	-1.3725053539	-0.550284314	 0.1167692772	 0.027002
C	-2.4190332224	 0.2214645824	 0.9603224119	-0.248868
C	-3.3363036161	 0.1521371761	-0.2812531625	-0.170701
N	-2.152141026	-0.1898008092	-1.1035254685	-0.096382
C	-2.3441769191	-1.1773611244	-2.1482912657	-0.293539
C	-1.1135344773	-1.4222078234	-2.909369687	 0.279597
N	-0.1435138682	-1.6272606527	-3.5020701385	-0.304345
H	-0.4399047526	 1.4488374633	-1.0067680419	 0.28323
H	 0.6545474203	-0.6261736189	-0.6201946506	 0.111365
H	 0.5115671454	-0.1573333603	 1.0838935454	 0.109082
H	-1.38799632	-1.6331348921	 0.3200115401	 0.06535
H	-2.7787155563	-0.2621804555	 1.8678181652	 0.110265
H	-2.0798168634	 1.2340507221	 1.1804017383	 0.133601
H	-4.060831792	-0.6745406942	-0.2170411092	 0.093798
H	-3.8607548241	 1.0591605872	-0.5971031879	 0.113883
H	-2.7052230081	-2.1494733073	-1.7615013314	 0.129994
H	-3.1077077561	-0.809875909	-2.8445237364	 0.158386
