21
gdb 86376	2.49265	1.43415	1.09107	2.4882	78.17	-0.2475	0.0709	0.3184	1178.5013	0.182206	-424.224519	-424.215308	-424.214364	-424.257857	35.839	
C	-0.0271212675	 1.4967108106	-0.0106591396	-0.493317
C	 0.0395466218	-0.0109935214	-0.0038166327	 0.362631
C	-0.8127488221	-0.807538339	 0.9526530187	-0.321875
C	 0.6891078324	-0.8185660274	 1.1018605416	-0.083285
C	 1.4289717117	-1.9899819483	 0.485820365	 0.122634
O	 1.2827330794	-3.1494571266	 1.2956206282	-0.435098
C	 0.8202081632	-2.1287711026	-0.9286825688	-0.325861
C	 0.3664406371	-0.7058368903	-1.3192403865	 0.069441
O	-0.7638401518	-0.6667401366	-2.1815503049	-0.439271
H	 0.9149694517	 1.9368082942	-0.3600796671	 0.107987
H	-0.824437036	 1.842109609	-0.6772666129	 0.132232
H	-0.2301205729	 1.8915808841	 0.9896031847	 0.111645
H	-1.3686069822	-0.2382182629	 1.6898321039	 0.106485
H	-1.3224073719	-1.7011499589	 0.6124658631	 0.121791
H	 1.1298643336	-0.3331421285	 1.9657752066	 0.079835
H	 2.4957769356	-1.7252869072	 0.4067428324	 0.061852
H	 1.8193353506	-3.849957983	 0.9111647604	 0.2791
H	 1.5189119481	-2.5644259445	-1.6502265626	 0.083878
H	-0.0552891208	-2.7831583343	-0.8778639961	 0.119642
H	 1.2059744219	-0.163937603	-1.7860305126	 0.058874
H	-0.495426972	-1.0015116133	-3.0428311508	 0.280682
