13
gdb 3209	3.60203	3.28019	2.05843	2.0937	54.13	-0.2324	-0.018	0.2145	630.7178	0.101504	-344.434827	-344.42854	-344.427595	-344.464919	23.213	
O	-0.1053589231	 1.4722948094	 0.1317461341	-0.430431
C	-0.0339625942	 0.0726742917	 0.0087832013	-0.003857
C	-1.3747725674	-0.6582605239	 0.0475566462	-0.053545
C	-2.2014572921	-0.2470486552	-1.1145474473	-0.274629
C	-1.1056909211	-1.2851906176	-1.3529104958	-0.180464
C	 0.2058738678	-0.5702185772	-1.3961615704	 0.384121
O	 1.155253252	-0.575784981	-2.1292514983	-0.323331
H	 0.7317681063	 1.8342002985	-0.179749297	 0.296899
H	 0.6871844774	-0.3678720433	 0.7159845896	 0.093402
H	-1.7777726569	-1.1678844299	 0.9119806838	 0.107735
H	-3.2050209634	-0.6561506745	-1.1608810687	 0.128604
H	-2.1022903021	 0.7534140786	-1.5207546857	 0.140935
H	-1.3344209933	-2.2724025756	-1.7334179418	 0.114559
