17
gdb 86635	3.40829	1.06908	0.90799	2.1072	72.92	-0.2515	-0.0604	0.1911	1262.6067	0.135046	-458.980971	-458.97225	-458.971306	-459.014533	32.169	
O	-0.250279945	 1.4271456688	 0.09048358	-0.444058
C	-0.029803268	 0.0189228364	 0.0452909571	 0.042213
C	 0.5887240513	-0.4978523053	 1.3635893556	-0.332019
C	-0.628939993	-0.7840658636	 2.2176006927	 0.255772
C	-0.5661085368	-0.9950854741	 3.6655071522	 0.070598
O	 0.4602806828	-0.9729603897	 4.3093013019	-0.271728
C	-1.7466487858	-0.8283187105	 1.4805191525	-0.209618
C	-1.455526261	-0.6099050055	 0.0098459957	 0.124439
O	-2.3982950353	 0.1611127434	-0.6899141051	-0.436874
H	 0.5838780536	 1.878616273	-0.0627710593	 0.296735
H	 0.5584863556	-0.2475303653	-0.840271353	 0.076233
H	 1.1742090273	-1.4107886675	 1.1964673189	 0.119781
H	 1.2633762205	 0.2316776707	 1.8216295439	 0.120741
H	-1.5495713241	-1.1784369568	 4.1522879528	 0.071354
H	-2.7468299548	-1.0278654018	 1.8496786865	 0.118421
H	-1.4109490687	-1.5868767556	-0.4929661152	 0.102566
H	-2.1365284188	 1.0812378135	-0.5474948371	 0.295445
