19
gdb 17567	3.27816	2.44857	1.93705	1.3165	74.48	-0.2266	0.0948	0.3214	789.6794	0.167706	-327.87719	-327.870695	-327.869751	-327.907204	27.535	
C	-0.0441273267	 1.5225412588	 0.0266394566	-0.487257
C	 0.0774419238	 0.0212048655	 0.0659751143	 0.351414
C	 0.9092043078	-0.8210293638	-0.9596617002	-0.237593
C	 0.723724563	-1.9169587177	 0.1498250514	-0.054384
C	 0.8841644186	-0.7489354674	 1.1548490456	-0.280486
C	-0.7968371547	-2.0910053709	 0.0395168527	-0.014246
C	-1.7005325586	-1.4934990232	 1.0552538023	-0.262379
N	-1.2517229454	-0.6790993512	-0.0898711708	-0.136114
H	 0.9414866332	 1.9977880392	 0.0456588925	 0.110152
H	-0.5684143878	 1.8398525271	-0.8799734503	 0.127631
H	-0.6146364219	 1.8893300117	 0.8870520307	 0.118462
H	 0.4444862339	-0.9983180055	-1.9328437804	 0.099301
H	 1.9413403813	-0.4807966496	-1.0719700413	 0.091794
H	 1.3384206651	-2.8153091283	 0.1958968232	 0.064424
H	 1.9161981515	-0.3956475477	 1.1951465217	 0.098156
H	 0.5032882302	-0.8397186696	 2.1729392008	 0.092398
H	-1.1823830513	-2.8054626246	-0.6837881711	 0.090614
H	-2.7572787159	-1.7427320621	 1.0037799764	 0.113537
H	-1.353148006	-1.2796995006	 2.0592706358	 0.114577
