19
gdb 113411	4.36003	1.01741	0.95605	2.139	76.27	-0.2583	0.076	0.3343	1278.7701	0.159411	-422.944259	-422.936238	-422.935293	-422.977201	31.125	
O	 0.0431958299	 1.2681294209	-0.6604742695	-0.416971
C	 0.0605074044	 0.1588283264	 0.22115231	-0.077615
C	-1.3107161961	-0.450894056	 0.3608137741	-0.148828
O	-1.7685756176	-1.1512754779	-0.8413359493	-0.337694
C	-1.5471466452	-1.88628966	 0.3376012004	 0.564728
C	-0.7086101283	-3.1641983732	 0.5048047978	-0.151815
C	-1.3130917871	-3.2314038555	 1.9417503209	-0.220658
C	-2.51899033	-2.855472701	 1.0254922092	-0.153443
C	-1.9842862264	-3.9295816567	 0.0223362508	-0.227196
H	-0.3247736315	 0.9488185288	-1.4925943588	 0.2937
H	 0.7706863427	-0.6127200486	-0.1117284447	 0.091572
H	 0.4036246611	 0.5386305797	 1.1899387594	 0.111909
H	-2.071026321	 0.2055533509	 0.7858559847	 0.10249
H	 0.3248836519	-3.3392271535	 0.2078131407	 0.082453
H	-1.3547098688	-4.2277389049	 2.3870174255	 0.099663
H	-0.9784896745	-2.4794415595	 2.6608548423	 0.09645
H	-3.551297399	-2.6730839397	 1.3221154898	 0.082864
H	-2.2647993925	-3.8062945305	-1.0250563013	 0.113807
H	-2.0668426519	-4.9692574398	 0.349013248	 0.094583
