21
gdb 89010	3.93323	0.68349	0.61804	3.512	79.93	-0.2382	-0.0049	0.2333	1827.3803	0.179286	-424.230886	-424.220311	-424.219367	-424.268579	37.319	
C	 0.2048907385	 1.5153809577	-0.0755422144	-0.472333
C	-0.1256874985	 0.0371785732	 0.0555254578	 0.3763
O	-0.4912770786	-0.442021988	 1.1044189114	-0.288881
C	 0.0301536513	-0.8010108222	-1.2070754081	-0.294856
C	-0.3939257164	-2.2611790091	-1.0389693803	-0.196959
C	-0.1992509153	-3.0667972108	-2.3061582111	-0.0217
C	 1.1683136643	-3.6327422195	-2.6526788431	-0.329329
C	 0.0366459658	-4.5477747257	-2.251295723	 0.090074
O	 0.0436246841	-5.1421196001	-0.9856579211	-0.414512
H	 1.2152663947	 1.65351606	-0.4760421201	 0.133835
H	-0.4834769941	 1.9942228104	-0.7815420958	 0.137329
H	 0.1227870731	 2.0013288046	 0.8974054235	 0.141124
H	-0.5352674408	-0.312215818	-2.0137301891	 0.111524
H	 1.0809799009	-0.7366005675	-1.5249520239	 0.119802
H	 0.1662763669	-2.7160717837	-0.2189536175	 0.125375
H	-1.4452195036	-2.2978898935	-0.7317981433	 0.110782
H	-0.7935148114	-2.7287174509	-3.152408087	 0.081914
H	 1.5062565668	-3.6289038416	-3.6834290957	 0.107528
H	 1.9524060242	-3.4910383775	-1.9149380619	 0.111279
H	-0.4202423257	-5.1549314396	-3.0332384036	 0.083713
H	 0.7284818238	-5.8184852881	-0.9786986136	 0.28799
