22
gdb 8178	2.5963	2.41756	1.65347	0.0976	81.22	-0.2822	0.0842	0.3664	910.7184	0.202038	-313.075299	-313.067609	-313.066665	-313.106459	31.573	
C	-0.0927968555	 1.536176344	 0.0163249744	-0.422236
C	 0.0665355814	 0.0163159796	 0.0302494592	 0.023599
C	 1.0079252216	-0.5542856037	-1.0868832726	-0.230747
C	 1.9827837871	-1.3605122191	-0.2095513631	-0.012569
C	 2.2880556588	-0.3568596109	 0.9349174712	-0.260829
C	 0.779357126	-0.583143474	 1.276464486	 0.357341
C	 0.2017593043	-0.2771531503	 2.6400240279	-0.50489
C	 1.0179307538	-2.049768316	 0.7941484843	-0.259906
H	 0.8681677394	 2.0485629284	 0.1350208025	 0.113608
H	-0.5253174953	 1.8701006183	-0.9330831268	 0.111845
H	-0.7557712092	 1.8796271771	 0.8176419536	 0.111572
H	-0.9320937248	-0.4311158854	-0.0526724662	 0.061296
H	 0.4752682228	-1.1793211621	-1.8101841095	 0.089955
H	 1.5147663499	 0.2417173562	-1.6433283746	 0.089698
H	 2.775388007	-1.9119646618	-0.7166600029	 0.053283
H	 2.9469468665	-0.7761622358	 1.7000990355	 0.089149
H	 2.6248140407	 0.649612624	 0.6683482016	 0.084029
H	 0.2262310186	 0.7966739066	 2.8567084961	 0.115961
H	-0.843265361	-0.6034629358	 2.7087699504	 0.111536
H	 0.7616312929	-0.7867921179	 3.4314148085	 0.109983
H	 0.1626977733	-2.6052959077	 0.394181648	 0.08057
H	 1.5416464719	-2.6525700637	 1.5409212266	 0.087751
