16
gdb 125850	5.09636	1.22144	1.12086	5.5	75.44	-0.2473	-0.0108	0.2365	1092.777	0.125959	-396.858087	-396.851109	-396.850165	-396.889509	26.983	
C	-0.1608187387	 1.4160484933	 0.0625906933	-0.427076
C	 0.0779805988	-0.0762645025	 0.1106661759	-0.012028
C	 1.4558486094	-0.5803536598	-0.2448079923	-0.024655
C	 0.9848075996	-0.6285901404	 1.2117674314	-0.23405
C	 1.0130595891	-2.1404934216	 1.0710282445	 0.240524
C	 0.5718242416	-3.4373206091	 1.1803726811	-0.173473
N	 0.8056028178	-4.0425413006	-0.0346713	-0.179749
N	 1.2861141241	-3.1886352739	-0.9045228617	-0.170031
N	 1.4761127767	-2.0557732287	-0.1988755131	 0.079662
H	 0.7326872247	 1.9748827977	 0.3598311819	 0.124563
H	-0.4357009144	 1.7323308764	-0.9483861907	 0.137266
H	-0.9732438424	 1.699520557	 0.7387044717	 0.1365
H	-0.7634012836	-0.6952980712	-0.1896285656	 0.123136
H	 2.2446931403	-0.0095701802	-0.7139539626	 0.133762
H	 1.3361064232	-0.0342136587	 2.0427219705	 0.12061
H	 0.152306534	-3.9917984276	 2.0025166357	 0.12504
