19
gdb 118398	3.09646	0.79334	0.66356	1.4345	78.29	-0.2519	-0.0266	0.2253	1655.5682	0.154967	-422.993607	-422.98277	-422.981826	-423.030937	37.217	
O	-0.0871138605	 1.4283323777	-0.0459103103	-0.421664
C	 0.0445199694	 0.0179715436	 0.0433579661	-0.090136
C	-1.3591508108	-0.5705175979	-0.0532991074	-0.19497
C	-1.3877754813	-2.1122959578	 0.0164565889	-0.072609
C	-2.8332867698	-2.6240063955	 0.2145286453	-0.387616
C	-2.9152544104	-4.0772071279	 0.3003376914	 0.282273
C	-2.9453468618	-5.2769775918	 0.3631054315	-0.418386
C	-0.7978812419	-2.6757803499	-1.2661752208	 0.175891
O	 0.3457413163	-3.0229103897	-1.40375012	-0.251188
H	 0.7941029163	 1.8129239984	-0.0378264215	 0.289112
H	 0.6809518118	-0.3800743477	-0.7599813924	 0.110017
H	 0.503423407	-0.2828857956	 0.9991396924	 0.091384
H	-1.9655688248	-0.1617739874	 0.7632336288	 0.114317
H	-1.8231656787	-0.2246329116	-0.986306021	 0.112625
H	-0.7593187081	-2.4572307493	 0.8442198096	 0.107485
H	-3.2478977537	-2.1712779454	 1.1228952596	 0.13951
H	-3.4596582448	-2.2675163065	-0.6148120838	 0.13578
H	-2.9819896047	-6.3367726093	 0.4190248514	 0.200779
H	-1.5148938196	-2.7058012765	-2.1214701778	 0.077397
