17
gdb 51018	2.67519	0.98942	0.80064	2.6387	69.44	-0.2575	-0.0448	0.2127	1396.8964	0.131639	-458.952987	-458.943382	-458.942438	-458.989541	32.706	
O	 0.121518251	 0.0748861512	 0.1541486652	-0.234586
C	 1.037618258	 0.6398456188	-0.3843230104	 0.156494
C	 1.546486994	 2.0171503803	 0.0039340344	-0.341853
C	 1.5535517218	 2.9677706517	-1.1851092629	 0.358392
C	 0.1778235771	 3.3471548417	-1.7203528268	-0.354606
C	 0.2084207018	 4.176394223	-2.9907836433	 0.147215
O	-0.426770274	 5.1871700836	-3.1474173857	-0.239352
C	 2.7085617459	 3.8520526909	-1.4000986969	-0.228703
O	 2.5443773702	 2.6599317686	-2.1781963635	-0.265093
H	 1.5899869251	 0.1742077522	-1.2299378487	 0.100156
H	 0.9300048818	 2.4061588644	 0.8193919741	 0.129219
H	 2.5767374188	 1.8998508944	 0.3623185574	 0.12923
H	-0.3756432269	 2.4244189924	-1.9514556568	 0.142007
H	-0.3945042747	 3.8870161432	-0.9599524197	 0.138263
H	 0.8592948493	 3.7678723057	-3.791463028	 0.105764
H	 2.5811580952	 4.785649157	-1.9465446521	 0.13349
H	 3.5380041957	 3.8389410809	-0.6952634363	 0.123961
