18
gdb 45538	4.23327	1.22052	0.98813	6.1586	82.01	-0.2129	-0.0039	0.209	1170.7672	0.151117	-402.0046	-401.997264	-401.996319	-402.036372	29.099	
O	 0.0239496996	-0.0453920966	 0.0147855324	-0.36248
C	 0.0079062669	 1.1665674165	-0.0203364606	 0.39851
C	-1.2929273123	 2.0208866045	-0.1243596683	-0.373996
C	-0.7826019817	 3.4321547337	-0.4236298353	-0.050757
C	-1.2325188745	 4.7040131132	 0.3187249991	-0.245338
C	 0.0367082824	 5.5918922058	 0.243239039	-0.171096
N	 1.1364080355	 4.614074504	 0.1658316793	-0.386409
C	 0.6759924826	 3.3582687017	-0.0279645718	 0.460239
C	 1.1372137684	 2.0920202048	 0.1023634309	-0.412519
H	-1.9707622672	 1.6109597375	-0.8757815779	 0.117705
H	-1.8041506067	 1.970287252	 0.8443840024	 0.121266
H	-0.8306344051	 3.6243355919	-1.5045051417	 0.100637
H	-2.1051550265	 5.1928656429	-0.1190294053	 0.110607
H	-1.4592082627	 4.4687374387	 1.3645312768	 0.11362
H	 0.0252334351	 6.234749864	-0.6466317603	 0.116174
H	 0.153869938	 6.2379858421	 1.1183973829	 0.117752
H	 2.0361057021	 4.8060069481	 0.5731335621	 0.254453
H	 2.1411501763	 1.7697738553	 0.3407874966	 0.091633
