19
gdb 98087	4.19084	0.8725	0.77223	0.5389	78.3	-0.2363	-0.0781	0.1582	1526.5217	0.156815	-423.054699	-423.04486	-423.043915	-423.090891	34.554	
C	 0.0903640973	 1.5124704053	 0.1647304071	-0.38494
C	 0.2213938816	-0.0037051359	 0.056257186	-0.273813
C	 0.8987419189	-0.4567005445	-1.2175230822	 0.286691
O	 1.3017577546	 0.296922126	-2.074125338	-0.285324
C	 1.0639635236	-1.9889814021	-1.3910231923	 0.283586
O	 0.6550925118	-2.7353043229	-0.5236803789	-0.321642
C	 1.7248404632	-2.4423751673	-2.6327514137	-0.108231
C	 2.5773803719	-3.7049321484	-2.5429695097	-0.248533
C	 1.2575023658	-3.7704942876	-3.22154051	-0.248532
H	 1.0712381538	 1.9945724192	 0.1372635464	 0.13034
H	-0.4927902144	 1.9169310696	-0.6669152223	 0.13034
H	-0.4040960728	 1.7890747098	 1.0996869535	 0.114457
H	 0.7829648656	-0.4305190703	 0.8973110487	 0.13993
H	-0.752872443	-0.5067550534	 0.1077402685	 0.139929
H	 2.0342890805	-1.6592219747	-3.3104023919	 0.119791
H	 3.4814885243	-3.7233114303	-3.1401877576	 0.124861
H	 2.655829337	-4.1470177907	-1.5561180117	 0.138117
H	 0.4457184083	-4.2568519737	-2.6924691664	 0.138118
H	 1.220530822	-3.8354582381	-4.3026678352	 0.124857
