21
gdb 81006	2.43755	1.50989	1.24408	2.3012	77.98	-0.2465	0.0739	0.3204	1111.0884	0.182669	-424.215898	-424.207099	-424.206154	-424.248559	35.098	
C	-0.1656239981	 1.5199094981	 0.0162827841	-0.437637
C	-0.0016190069	 0.0057223191	 0.0265871936	 0.015148
C	 1.1101707079	-0.6178947212	-0.8787221814	-0.040975
C	 2.1273413629	-0.2934625993	 0.2514941905	-0.319004
C	 0.8855339674	-0.6049073253	 1.1503837445	 0.424018
O	 0.7277699552	-0.1146981075	 2.4453562394	-0.491969
C	 0.7106097344	-2.1180969747	 0.9023780665	-0.330367
C	 0.8850945513	-2.1224721992	-0.6559527055	 0.135952
O	-0.2592893695	-2.5462710836	-1.3756900679	-0.440445
H	 0.7831834963	 2.0598584366	 0.0715888346	 0.114504
H	-0.6772845506	 1.8400138789	-0.8975902044	 0.113135
H	-0.7728316939	 1.8384580188	 0.869445814	 0.126733
H	-0.9818706157	-0.4672594365	-0.0829753609	 0.0765
H	 1.2628624131	-0.2949229711	-1.9076240761	 0.066202
H	 3.0078670526	-0.9375565078	 0.3485844874	 0.080159
H	 2.4279132195	 0.7530031135	 0.2808915934	 0.106955
H	 1.2970734496	-0.6185591752	 3.0367348884	 0.276782
H	 1.4658373961	-2.71974896	 1.4211677918	 0.081757
H	-0.2834553041	-2.4709275793	 1.1928301417	 0.100042
H	 1.7659413385	-2.7047728029	-0.9627173105	 0.061424
H	-0.428924816	-3.4670267215	-1.1538882032	 0.281086
