22
gdb 79257	2.32511	1.98265	1.50369	1.7737	83.41	-0.2301	0.0752	0.3054	1005.7384	0.1968	-367.220936	-367.21314	-367.212196	-367.25246	32.422	
C	-0.148245442	 1.5620898351	-0.0302533236	-0.429844
C	 0.0300682613	 0.0448801806	 0.0136420153	 0.004571
C	 0.9661315763	-0.5171353938	-1.0528573079	-0.042652
C	 2.3333213135	-0.6043646746	-0.4625503824	-0.037776
C	 2.248673523	-0.1095549961	 0.9737930515	-0.267256
C	 0.7892761617	-0.5593262402	 1.2360647062	 0.264746
C	 0.2083783726	-0.3249543446	 2.6155877798	-0.492158
C	 0.8999618705	-2.0202593158	 0.7450327767	-0.185171
N	 1.4966538215	-1.8272773053	-0.5996109429	-0.137562
H	 0.807217781	 2.0934272191	 0.0063450267	 0.119278
H	-0.6500875301	 1.8608897235	-0.9568399073	 0.116879
H	-0.7649255146	 1.9146263951	 0.8032025537	 0.115833
H	-0.9605063316	-0.423955768	-0.0595209746	 0.067902
H	 0.7789672797	-0.4002685849	-2.1143620481	 0.082881
H	 3.2425034982	-0.5647411339	-1.0502807059	 0.086014
H	 2.9589828414	-0.6115912248	 1.6397969361	 0.097134
H	 2.3998321115	 0.9694908186	 1.0663623217	 0.098864
H	 0.1794709383	 0.7405903232	 2.8672823168	 0.117137
H	-0.8158984094	-0.7089441274	 2.6837713275	 0.114118
H	 0.8023151627	-0.8283691523	 3.3865121721	 0.114859
H	 1.5592786788	-2.6377130777	 1.3641754001	 0.095587
H	-0.0695860245	-2.521550716	 0.6566806685	 0.096614
