19
gdb 53497	2.87373	0.86167	0.70064	3.3205	80.99	-0.2517	-0.0257	0.226	1616.8292	0.155198	-423.027376	-423.016432	-423.015487	-423.06559	37.335	
C	 0.2553863936	 0.7237863281	 1.3292009535	-0.498441
C	-0.0078707738	-0.3855475042	 0.4228728928	 0.069339
C	-0.2182702448	-1.2969929539	-0.3368109961	 0.057253
C	-0.4929948644	-2.3843028871	-1.2663598204	-0.380064
C	-1.6616737741	-3.3386242201	-0.870021557	 0.034427
O	-2.0359131664	-4.0800935406	-1.9970295945	-0.426689
C	-1.2656693482	-4.3031468523	 0.259143095	 0.371314
C	-1.0465883707	-3.7676699612	 1.6495035879	-0.483329
O	-1.155040921	-5.4819602548	-0.0117096133	-0.321116
H	 1.28872583	 0.7052962242	 1.6925457074	 0.150434
H	 0.0953545622	 1.6876266046	 0.8336937312	 0.152139
H	-0.4036553739	 0.6890814479	 2.2037629063	 0.148167
H	-0.7794461444	-1.9763532608	-2.2420562903	 0.151911
H	 0.4068286514	-2.9878233457	-1.4409504856	 0.133228
H	-2.5034430235	-2.7194912013	-0.5260505328	 0.096222
H	-1.8124228246	-5.0003874145	-1.7755978778	 0.292405
H	-1.974861888	-3.3178038799	 2.0198530434	 0.146613
H	-0.7403532509	-4.5778230374	 2.3123321533	 0.142074
H	-0.2992438189	-2.9687324011	 1.641169117	 0.164114
