21
gdb 70621	2.33503	1.84037	1.28669	1.7727	81.54	-0.2502	0.086	0.3362	1067.7601	0.182979	-387.083389	-387.075124	-387.07418	-387.115724	33.227	
C	-0.5104870578	 1.3250034412	 0.197568546	-0.50636
C	 0.0088823304	-0.073062105	 0.002864956	 0.351715
O	-0.2746028431	-0.9987598362	 1.0799952239	-0.311445
C	 1.0942384228	-0.6710182718	 0.796684519	-0.012049
C	 1.81297706	-1.7260413731	-0.0203167516	-0.24667
C	 0.8108639642	-2.0503412263	-1.155516885	-0.303756
C	-0.0129266047	-0.7704549565	-1.3374417073	 0.333847
C	-1.1990339993	-0.727996551	-2.2611325077	-0.320507
C	 0.0587979161	 0.02450903	-2.6217652018	-0.320393
H	 0.0563956667	 2.0495681843	-0.3949300348	 0.124656
H	-1.5643843036	 1.4004033658	-0.0925426922	 0.126924
H	-0.4340177974	 1.6035491689	 1.2510885465	 0.132612
H	 1.6139943017	-0.1234863385	 1.580551908	 0.083953
H	 2.7420409336	-1.29585509	-0.4141739765	 0.10165
H	 2.0816695767	-2.6090797248	 0.5675648649	 0.106587
H	 1.3069225464	-2.3629366933	-2.0782606192	 0.094247
H	 0.1540794733	-2.8651506567	-0.8395430435	 0.118261
H	-1.4366053095	-1.6297417594	-2.816142398	 0.112581
H	-2.068638938	-0.1523877734	-1.9616005767	 0.113422
H	 0.0344352487	 1.1078323264	-2.5758423541	 0.110463
H	 0.6817633528	-0.3694972407	-3.4182370059	 0.110261
