14
gdb 128175	2.43159	1.49804	0.93583	4.434	78.31	-0.2151	-0.0558	0.1593	1181.3064	0.099638	-432.804045	-432.795566	-432.794622	-432.837631	30.246	
C	 0.1029382872	 1.4760984563	-0.0086723596	-0.330919
N	-0.1666367679	 0.0513068896	-0.1475725859	-0.413215
C	 0.5111444317	-0.6876404532	-1.0755632923	 0.211195
C	 0.6808430792	-2.0500330619	-1.1862469386	 0.236593
O	 1.3858109659	-2.2668790692	-2.3282926403	-0.211502
N	 1.6431747847	-1.0276201705	-2.8938399879	-0.019227
N	 1.1348307954	-0.1229701806	-2.1611784501	-0.184332
C	 0.2768828839	-3.1142796778	-0.3766026254	 0.234044
C	-0.0870333204	-4.002403867	 0.3532026667	-0.404175
H	 1.1189664358	 1.6912041941	 0.3507966659	 0.126971
H	-0.0254097179	 1.9663948768	-0.9753792586	 0.163341
H	-0.6185782718	 1.8980299788	 0.6937585	 0.131156
H	-0.3607466771	-0.4444847596	 0.7091444218	 0.253829
H	-0.4075299187	-4.7935712359	 0.9852941942	 0.20624
