21
gdb 107561	2.08815	1.71973	1.2838	1.0093	84.08	-0.2219	0.0253	0.2472	1118.316	0.18182	-387.085004	-387.075954	-387.075009	-387.118314	34.616	
C	 0.8389540321	-0.3496618275	-1.0573650056	-0.253482
O	-0.0087918635	-0.0484667325	 0.0374947728	-0.282809
C	-1.2972294918	-0.5548971455	-0.0945870568	 0.367994
C	-1.9566006729	-1.1003616424	 1.138438838	-0.330473
C	-1.6532380544	-2.0340596119	-0.0197405783	-0.124777
C	-2.7451006715	-2.2897266834	-1.0541935168	-0.272222
C	-3.0313442463	-0.9122596124	-1.618126125	-0.178069
C	-2.2313980344	 0.0346910886	-1.1168100527	 0.235759
C	-2.2346493479	 1.5018163951	-1.410793694	-0.496456
H	 1.8068380003	 0.1104232819	-0.8452439049	 0.124631
H	 0.9732801348	-1.433911403	-1.1750238245	 0.107562
H	 0.4513398108	 0.0531390071	-2.0032193837	 0.111574
H	-1.3170806383	-1.2128574403	 2.0077491808	 0.115796
H	-2.9832906733	-0.8182413983	 1.3511965426	 0.107519
H	-0.882964999	-2.7785500908	 0.1422591344	 0.08864
H	-2.410878501	-2.986905081	-1.8347502045	 0.103944
H	-3.6422882568	-2.7388757873	-0.6071914326	 0.108094
H	-3.8410599065	-0.7291715806	-2.3169824402	 0.085749
H	-2.9661435687	 1.7539327429	-2.1830168013	 0.119713
H	-2.4698421645	 2.0808734546	-0.5090307548	 0.131008
H	-1.2488872973	 1.8449858666	-1.7447299529	 0.130304
