14
gdb 130212	2.52649	1.8835	1.08075	2.4451	72.54	-0.1921	-0.0442	0.1479	1021.9807	0.10374	-466.202156	-466.194419	-466.193475	-466.2339	30.227	
N	 0.002363354	 1.3427310762	 0.1501448958	-0.56065
C	-0.0309256515	-0.0239550213	 0.0835944659	 0.315669
N	-1.1857867452	-0.6597325372	 0.0630924738	-0.297715
N	-1.1224135547	-1.9834996789	 0.0442631055	-0.086581
N	-0.0533287944	-2.7669369883	 0.0460421522	-0.297707
C	 1.1142903048	-2.1548990287	 0.0663550458	 0.315655
N	 2.2728321647	-2.8820275432	 0.1159548477	-0.56065
C	 1.2477848834	-0.7098555626	 0.0626473276	 0.257835
O	 2.3375339422	-0.1238700445	 0.022457764	-0.436143
H	 0.9009598671	 1.7313162557	-0.0977947582	 0.270768
H	-0.8139956407	 1.8406103249	-0.1661458218	 0.257817
H	-2.0090313321	-2.4598216508	 0.0238320407	 0.293124
H	 2.2353780317	-3.8335069104	-0.2121538172	 0.257815
H	 3.0910669105	-2.3439400709	-0.1308386015	 0.270765
