20
gdb 76809	2.73183	1.62418	1.35477	1.206	80.92	-0.2051	0.0636	0.2687	1035.2704	0.170501	-403.005808	-402.997656	-402.996712	-403.038005	32.734	
C	-0.2067156915	 1.6423511185	-0.1315367057	-0.416273
C	-0.0742026259	 0.1235967499	-0.0022729332	-0.016485
C	 0.9128984522	-0.6163425785	-1.0296421804	-0.029509
O	 1.4851286109	 0.115216259	-2.0802911877	-0.422618
C	 1.8286772684	-0.7808530953	 0.186696539	 0.30336
C	 2.5130410581	-1.6229165934	 1.3018650403	-0.283802
C	 1.9232526828	-0.288132943	 1.9302010416	-0.024195
C	 2.5597323424	 0.481921505	 0.7632566588	-0.244366
N	 0.6619009102	-0.6175367264	 1.1168365668	-0.172726
H	 0.6598376667	 2.1092278148	-0.6024974531	 0.138179
H	-1.0790718797	 1.8808338021	-0.7507166625	 0.107689
H	-0.3696444921	 2.1010750749	 0.8487072397	 0.124257
H	-1.0806251101	-0.3045105539	-0.006783359	 0.081223
H	 0.4778376059	-1.5631229527	-1.3718854747	 0.087295
H	 0.8814407873	 0.1035723394	-2.8292618055	 0.290075
H	 1.9887827171	-2.5374547456	 1.5779082118	 0.108532
H	 3.6009993141	-1.7213528205	 1.3049154437	 0.0948
H	 1.8911278633	-0.0311200351	 2.9921442136	 0.081325
H	 3.6519236825	 0.4900521961	 0.7052856566	 0.08958
H	 2.1487793274	 1.4597224545	 0.5362698998	 0.103662
