17
gdb 20270	4.44184	2.63875	2.37676	1.553	69.76	-0.2223	0.0791	0.3014	664.5563	0.146562	-326.658506	-326.653519	-326.652575	-326.687171	22.157	
C	-0.0374253084	 1.5912975311	 0.0491612542	-0.253746
C	 1.5040146794	 1.4329473459	 0.0266077424	-0.048252
C	 1.881688217	 0.7392545194	 1.3442405409	-0.05479
C	 2.9686222132	-0.2762063957	 0.9342889549	-0.179861
N	 1.9066327107	-1.002275221	 0.1593460207	-0.151412
C	 1.3168269959	 0.0493412488	-0.7443110139	 0.002834
C	-0.0517877467	 0.0541013038	-0.0060423642	-0.053978
C	 0.8672771531	-0.4482219037	 1.1374437693	 0.001374
H	-0.4898671176	 2.0936225019	 0.9106035862	 0.092362
H	-0.422948262	 2.0310947016	-0.8752271915	 0.100885
H	 2.1594603576	 2.2246794481	-0.3348317403	 0.064651
H	 1.9339609318	 1.3486709638	 2.2477511464	 0.063069
H	 3.8264998508	 0.0753699344	 0.3502852677	 0.09618
H	 3.3153507254	-0.9090104202	 1.7566362216	 0.104551
H	 1.477322072	-0.0223388688	-1.8184229682	 0.070182
H	-0.9147897365	-0.5431478694	-0.2935050892	 0.073286
H	 0.5513751844	-1.0734119201	 1.9717662231	 0.072665
