18
gdb 93528	2.41056	1.55855	1.16101	6.0678	68.78	-0.2495	0.0464	0.2958	1098.8736	0.148087	-476.27151	-476.26267	-476.261726	-476.305113	32.697	
C	 0.0437694387	 1.5090469687	-0.0588586878	-0.407562
C	 0.052248181	-0.0064614579	 0.0537862857	 0.146357
O	 0.6577598599	-0.5025213634	-1.1521162953	-0.254032
C	 1.0807716038	-1.788539853	-1.2433341468	 0.469331
O	 1.4731690037	-2.2264613874	-2.2957612875	-0.396309
N	 1.0248754009	-2.5375559756	-0.0951683351	-0.361561
C	 0.7384764905	-2.062782081	 1.2439589806	-0.183862
C	 0.8008501607	-0.5355210281	 1.2771980613	 0.086725
O	 2.1247945232	-0.0407884282	 1.2091870986	-0.423515
H	 1.0665142716	 1.8896556296	-0.0650916247	 0.151938
H	-0.4536979276	 1.809565335	-0.9838710504	 0.133483
H	-0.4943742118	 1.948940065	 0.7864234295	 0.112389
H	-0.9792857457	-0.3841171054	 0.1055882679	 0.086941
H	 1.3769348501	-3.4719582463	-0.2219430589	 0.258005
H	-0.2569730017	-2.3887346609	 1.5809576074	 0.11059
H	 1.4668664853	-2.4809819372	 1.9510691326	 0.102282
H	 0.2847978053	-0.1807276879	 2.182457884	 0.079377
H	 2.6234789822	-0.3931232862	 1.9524237988	 0.289423
