20
gdb 90089	3.59743	1.25855	1.1786	1.7438	81.79	-0.219	0.0456	0.2646	1155.8173	0.169019	-402.977351	-402.96905	-402.968106	-403.009594	32.99	
C	-0.0835658836	 1.555929699	 0.1113890785	-0.437681
C	 0.0162149557	 0.0462434336	 0.0087374454	 0.02003
C	 1.2207741068	-0.5800976189	-0.694579237	-0.024063
O	 2.1155123864	-0.1262960569	 0.4611749169	-0.376312
C	 0.8824761601	-0.7424627028	 1.0475062849	 0.306424
C	 0.2296127717	-1.6920569667	 2.0748702089	-0.271371
N	-0.168649207	-2.4908983591	 0.8374435475	-0.113235
C	-0.2313526322	-3.9338888133	 0.9639497432	-0.319401
C	 1.01626452	-1.9119045393	 0.1315003057	 0.013153
H	 0.8852635008	 1.9925724295	 0.3606047639	 0.137415
H	-0.4253745565	 1.9842205171	-0.8374135323	 0.113463
H	-0.8084725026	 1.846304904	 0.8794112551	 0.113526
H	-0.937929993	-0.4363699282	-0.20977534	 0.092925
H	 1.6520122852	-0.3976572273	-1.6835471356	 0.08664
H	 0.9527544101	-2.2290381709	 2.7046779588	 0.11185
H	-0.6078636818	-1.322963258	 2.6745988868	 0.11656
H	-1.0418615071	-4.2107812547	 1.6461437144	 0.123432
H	-0.4492488675	-4.3733272396	-0.0144916152	 0.128367
H	 0.7055621164	-4.3809357058	 1.3441540297	 0.095896
H	 1.9334634582	-2.4996116717	 0.2483891104	 0.082383
