19
gdb 6483	3.68972	1.42457	1.33336	1.1884	72.75	-0.2546	0.0331	0.2877	1042.1208	0.163427	-365.065114	-365.056156	-365.055212	-365.098584	33.029	
C	 1.6426458224	 0.9853915813	-2.2597013179	-0.458371
C	 1.5203991811	-0.5053179796	-2.0622388877	 0.379181
N	 2.3766608638	-1.4071380737	-2.3166715424	-0.51199
O	 0.303052074	-0.7902840754	-1.5428471503	-0.287747
C	-0.0299438355	-2.1487724253	-1.2737075295	 0.477981
C	 0.6509165602	-2.7213022259	-0.0548020869	-0.459893
C	-1.4706893311	-2.4513248146	-1.5663096575	-0.322258
C	-0.3741283695	-3.0004820579	-2.4579018715	-0.29086
H	 0.8439972281	 1.3461983315	-2.9149517809	 0.143996
H	 1.5301510473	 1.5016870842	-1.3013692679	 0.146144
H	 2.6090113932	 1.2452711129	-2.6945845742	 0.124453
H	 3.2207180633	-0.9900302453	-2.7029581889	 0.216919
H	 0.4564261226	-2.0944100804	 0.8221133599	 0.115199
H	 0.2652955114	-3.7236156104	 0.1529649793	 0.113388
H	 1.72906316	-2.7894896727	-0.2126816797	 0.1483
H	-1.9949863299	-3.1270903421	-0.8995326266	 0.110909
H	-2.0723640711	-1.6393394707	-1.9582054573	 0.118212
H	-0.2553986193	-2.55801819	-3.4392665457	 0.120349
H	-0.1343072411	-4.0568240858	-2.4089651345	 0.116089
