21
gdb 100860	1.69438	1.26752	1.14821	2.0239	82.1	-0.2519	-0.0205	0.2314	1302.363	0.181467	-420.445262	-420.434853	-420.433908	-420.481209	37.068	
C	-0.4022923653	 1.6264110909	-0.1046312113	-0.387497
C	-0.0566074081	 0.1358162351	-0.0616258749	-0.177831
C	 0.6177603731	-0.3897125134	-1.3401417979	 0.021645
C	 1.0554518357	-1.8540020031	-1.2181995654	-0.403507
N	-0.2235165075	-0.1816445954	-2.5429340444	-0.076285
C	 0.2254135471	 0.6276450052	-3.5859966701	 0.096017
N	 1.34745768	 1.2234068128	-3.5411146815	-0.470068
C	-1.4524192451	-0.8013329314	-2.6718214215	 0.1616
O	-2.1950867096	-0.69414977	-3.6216802546	-0.324144
H	 0.4892550631	 2.2322960531	-0.2948021437	 0.130036
H	-1.1264231418	 1.8479147381	-0.8945069442	 0.124937
H	-0.8371525899	 1.9515684968	 0.844984507	 0.115832
H	 0.6355769602	-0.0575535616	 0.7667070111	 0.105417
H	-0.9562684972	-0.4531595975	 0.1591793764	 0.096965
H	 1.502696041	 0.2193993122	-1.5353119331	 0.139755
H	 1.7716614843	-1.9602276099	-0.3978346575	 0.124977
H	 0.2127149561	-2.5212578559	-1.0088861097	 0.118796
H	 1.5395961072	-2.1920114997	-2.1385016684	 0.131724
H	-0.5010545337	 0.6619892704	-4.3989149647	 0.143524
H	 1.4914202542	 1.7605238498	-4.3937849003	 0.233462
H	-1.6981510039	-1.4227264164	-1.7940705711	 0.094644
