18
gdb 85457	2.71122	1.40061	1.0345	2.3948	71.5	-0.2455	-0.0249	0.2207	1144.1046	0.147702	-439.08501	-439.076772	-439.075828	-439.11797	31.851	
O	 0.4256772524	 0.8295474518	-0.8656581144	-0.429401
C	 0.0453810442	-0.2177189192	 0.0014305166	 0.037781
C	 0.4326886832	-0.0582156458	 1.4795477265	-0.35482
C	-0.5386077169	-0.9736721481	 2.2378731591	 0.39544
O	-0.4189199191	-1.3277212054	 3.3806595498	-0.306897
C	-1.6803030397	-1.3633258185	 1.2907211749	-0.396404
C	-1.4625044569	-0.5027241229	 0.0583588966	 0.329036
C	-2.4427442471	 0.5080497869	-0.4121503121	-0.296172
N	-2.230698067	-0.7510223796	-1.1564157611	-0.374598
H	 0.1691105152	 1.6643217171	-0.4583616128	 0.283224
H	 0.5426583404	-1.1075367373	-0.4078344169	 0.105915
H	 1.4745184704	-0.2824376487	 1.7158736222	 0.136455
H	 0.232911084	 0.9722033369	 1.8096506629	 0.123194
H	-1.574020603	-2.429244721	 1.0483920281	 0.143631
H	-2.6545258752	-1.2420430239	 1.7698803869	 0.137976
H	-3.4070388183	 0.5939332793	 0.0818077321	 0.120864
H	-2.0732689937	 1.4270245071	-0.8581283066	 0.105952
H	-1.6422616929	-0.5523362788	-1.9648824018	 0.238823
