17
gdb 91147	3.04342	1.47895	1.21004	2.2861	68.37	-0.2285	0.0468	0.2752	1042.3339	0.13791	-455.153198	-455.145476	-455.144531	-455.185548	30.291	
N	-0.2878646375	 1.3860040141	 0.1963719555	-0.575063
C	-0.2144426234	 0.0246412287	 0.0989283707	 0.456521
N	-1.0706168323	-0.828189846	 0.5021364478	-0.33497
C	-0.5944179358	-2.1220552035	 0.0205121022	-0.012203
C	-1.0946390937	-2.5219729368	-1.4035388767	-0.275271
C	 0.3708694409	-2.4106178978	-1.9423682061	 0.132898
O	 0.6344632759	-1.6242733649	-3.0698488378	-0.432138
C	 0.8271547391	-1.8505370997	-0.5680997971	 0.031199
O	 0.9068301622	-0.4098891229	-0.5692268259	-0.277992
H	 0.5989266976	 1.8650639782	 0.2348927405	 0.264729
H	-0.9746288928	 1.7110081923	 0.8591306255	 0.271402
H	-0.6863385673	-2.8944918747	 0.7857334711	 0.077211
H	-1.5542925872	-3.5080272876	-1.502028627	 0.102398
H	-1.7668366425	-1.7716157503	-1.8261359453	 0.109333
H	 0.8083251228	-3.3961159106	-2.1299801847	 0.090486
H	 0.5917935856	-0.7035624492	-2.7826588579	 0.287811
H	 1.7364666484	-2.2474628192	-0.1124369449	 0.083649
