15
gdb 53637	4.46035	0.63528	0.55995	2.4858	79.52	-0.2598	-0.0427	0.2171	1899.4541	0.108508	-420.588288	-420.578135	-420.577191	-420.625858	33.645	
C	-0.0906528308	 1.4409666573	 0.0117336102	-0.499188
C	-0.0645187488	-0.0136543767	 0.0027319707	 0.139177
C	-0.0448677639	-1.2163769579	-0.0046575269	 0.012741
C	 0.0188698522	-2.66502535	-0.0137595389	-0.242022
O	-1.332120534	-3.1938218107	-0.0037750719	-0.228652
C	-1.4033138653	-4.5357695702	-0.0090441455	 0.309525
O	-0.4512990688	-5.2766609101	-0.0211299677	-0.355843
C	-2.7810371078	-4.9769192899	 0.0017366207	 0.230373
C	-3.9056339883	-5.3990379608	 0.0102875739	-0.349607
H	 0.9255642095	 1.8498606964	 0.0044242283	 0.154797
H	-0.6138431738	 1.834388952	-0.8663062408	 0.154491
H	-0.5968224949	 1.8237400376	 0.9043369817	 0.154494
H	 0.5364483285	-3.0439041686	-0.9017175328	 0.153175
H	 0.5535851018	-3.0543101939	 0.8594020606	 0.153239
H	-4.9011727057	-5.7711934046	 0.0179440684	 0.2133
