22
gdb 87802	2.73736	1.35921	1.14966	1.7991	86.3	-0.2172	0.077	0.2942	1191.2261	0.193823	-367.155251	-367.146258	-367.145313	-367.188547	35.011	
C	 0.3898711298	 1.8801705782	 0.435897121	-0.408739
C	 0.4380473473	 0.370957771	 0.3379101124	-0.061125
C	 1.7686063471	-0.3424753332	 0.2368710662	-0.37161
C	 0.9458830306	-0.4607153379	 1.4859677958	 0.374314
C	 1.3808322057	-0.067980388	 2.900644772	-0.253364
N	 0.9089486287	-1.3901078119	 3.4583447144	-0.153132
C	-0.5412244624	-1.5126252767	 3.1791010003	 0.023467
C	-1.5393897176	-0.3825919258	 3.2802188073	-0.43047
C	 0.3992979716	-1.7463738656	 2.0600654749	-0.145909
H	 1.2188223977	 2.2631958076	 1.0405252105	 0.117015
H	 0.4624722412	 2.343280323	-0.5543249078	 0.118964
H	-0.5427806544	 2.2265216918	 0.8959159657	 0.11775
H	-0.3744374382	-0.0714574417	-0.2347061703	 0.082464
H	 1.8454772195	-1.2106802485	-0.4106589544	 0.111092
H	 2.671654015	 0.2604901141	 0.2811417201	 0.108653
H	 2.4636512865	 0.007192995	 3.0270331085	 0.110752
H	 0.9092128983	 0.8078362107	 3.3588116848	 0.099672
H	-0.9006204328	-2.434049278	 3.6361163406	 0.092585
H	-1.2477965435	 0.4969100291	 2.7042000505	 0.133403
H	-2.5112023219	-0.7170205253	 2.9020016886	 0.120824
H	-1.6763582086	-0.0806106165	 4.3246089205	 0.12405
H	 0.5645762304	-2.7308475715	 1.6294074582	 0.089344
