20
gdb 118182	2.50493	0.87061	0.72217	2.2247	72.33	-0.2631	0.0568	0.3199	1600.9606	0.1689	-477.469546	-477.458768	-477.457823	-477.506289	38.047	
C	 0.0311813254	 1.505697773	-0.0261550755	-0.409482
C	 0.0029623551	-0.0180592524	 0.0197014872	 0.131953
C	-1.4072038359	-0.594466739	-0.0338875277	-0.179994
C	-1.4528907738	-2.1113011067	 0.1027800318	-0.0818
O	-2.8185120764	-2.5011418735	 0.0749802529	-0.422242
O	 0.7104288458	-0.5530299571	-1.1293594608	-0.275607
C	 2.0567748083	-0.6554643925	-1.0139316457	 0.49516
N	 2.5762945442	-1.2093128315	-2.1522499862	-0.562078
O	 2.701426288	-0.3403042775	-0.0400005161	-0.40211
H	 1.0621040643	 1.8642506061	 0.0104876004	 0.140507
H	-0.4444601436	 1.8744349074	-0.9405921017	 0.118231
H	-0.5065616354	 1.9189649039	 0.8327363904	 0.119026
H	 0.5288495347	-0.3637373486	 0.9150551009	 0.109135
H	-1.9962059146	-0.1513679111	 0.7768470197	 0.109743
H	-1.8891760929	-0.3046289549	-0.9747822068	 0.110007
H	-0.8854837489	-2.573482962	-0.7173897038	 0.097755
H	-0.9711171678	-2.4127827911	 1.047718798	 0.085803
H	-2.8568040375	-3.4609181523	 0.1160081767	 0.285768
H	 2.0087017672	-1.2228799766	-2.9826505588	 0.26272
H	 3.572428884	-1.1313302736	-2.2646992549	 0.267503
