17
gdb 36374	3.79389	0.93152	0.84351	5.7591	73.45	-0.2701	0.0375	0.3076	1358.4279	0.136159	-417.967022	-417.958496	-417.957552	-418.001138	30.722	
N	 0.033706891	-0.7276309333	-1.2690428295	-0.30893
C	-0.0114945274	 0.2719728025	-0.6910241944	 0.259
C	-0.0424247592	 1.5313198335	 0.0522823613	-0.353566
C	 1.3614476333	 2.071427536	 0.2851184351	-0.015094
N	 1.9088258559	 2.9399590906	-0.760767479	-0.323214
C	 1.6523769062	 3.5084300775	 0.5646206377	-0.067768
C	 0.6260436882	 4.5981709699	 0.6809466992	 0.070981
C	 0.3725523506	 5.5397430774	-0.4193566059	-0.172602
O	-0.5611911502	 4.5033204518	-0.1026796113	-0.226802
H	-0.6260249566	 2.2725966612	-0.4972539731	 0.190623
H	-0.5457149812	 1.3571925311	 1.0106011392	 0.147872
H	 2.039287818	 1.3534366319	 0.7434198434	 0.10672
H	 2.8986526243	 2.7685857306	-0.9082748222	 0.243376
H	 2.5090612904	 3.6870092708	 1.2150509196	 0.093407
H	 0.4561449285	 4.9406960065	 1.7028681746	 0.100481
H	 0.0337590172	 6.5507771509	-0.2016265605	 0.119612
H	 0.9098253609	 5.3970825211	-1.3537222241	 0.135903
