17
gdb 63364	2.86111	1.1703	1.06587	5.6334	74.46	-0.2653	-0.0491	0.2162	1198.8309	0.133844	-418.017535	-418.008217	-418.007273	-418.051795	33.638	
C	-0.7355024676	 1.5484659122	-0.0044089318	-0.415513
C	-0.1320763881	 0.1465777701	-0.0021701175	 0.184165
C	-1.176101277	-0.9363916739	-0.2968826519	-0.44126
N	 1.1252393608	 0.0406396209	-0.8179876103	-0.3455
C	 1.9223061144	-0.5345844927	 0.2907708558	-0.254817
C	 3.2016165367	 0.1110690274	 0.5552809245	 0.310963
N	 4.2099187817	 0.6266523139	 0.7859951486	-0.317
C	 0.7193168295	-0.1932233771	 1.2350350056	 0.37329
O	 0.5543251246	-0.195303366	 2.4109790006	-0.268654
H	 0.0333841464	 2.3013560804	 0.1824650569	 0.138802
H	-1.191175405	 1.760052614	-0.9771751335	 0.126108
H	-1.5078016205	 1.6323321195	 0.7660545573	 0.134461
H	-1.6015311517	-0.7802175683	-1.2943035381	 0.132565
H	-0.7425293329	-1.94121667	-0.2619384386	 0.122769
H	-1.9922928036	-0.8935248919	 0.4297677768	 0.146162
H	 1.0538439572	-0.569105738	-1.624807355	 0.23085
H	 2.0720250452	-1.6232164505	 0.2540234207	 0.142609
