18
gdb 78932	3.44553	1.58627	1.37827	0.4765	74.19	-0.226	0.0649	0.2909	977.9891	0.148062	-401.85788	-401.850582	-401.849638	-401.889165	29.599	
C	-0.0376355038	 1.4337532574	 0.0638866209	-0.51236
C	 0.0843458846	-0.055346007	 0.0543008083	 0.344609
C	 0.2443893673	-1.0263074105	-1.056990361	-0.118178
C	 0.6223856266	-2.1044675082	-0.0102005041	-0.06507
C	-0.8703216601	-2.1205634548	 0.4408658556	-0.039316
C	-0.4812613699	-1.6227771814	 1.8506478296	 0.119739
O	-0.0181611005	-2.6506699463	 2.7024753294	-0.443103
C	 0.7137613931	-0.9893908654	 1.1090596279	-0.133146
N	-1.1003730229	-0.8834625062	-0.4055258469	-0.20258
H	 0.9481263658	 1.9112660652	 0.052359301	 0.119302
H	-0.5964517488	 1.7725344777	-0.8132757207	 0.134137
H	-0.5717961407	 1.7789536869	 0.9565375617	 0.123586
H	 0.3980944808	-0.9010329735	-2.1224437814	 0.092917
H	 1.2938466183	-2.9520466204	-0.0987050258	 0.079183
H	-1.5936077124	-2.9176061845	 0.2643679998	 0.068401
H	-1.1847165857	-0.947249309	 2.3581646623	 0.069115
H	-0.7725015404	-3.1945304472	 2.9514103826	 0.285708
H	 1.6302190887	-0.6976669528	 1.6180649208	 0.077055
