19
gdb 99528	2.52413	1.05985	0.88643	2.1288	81.17	-0.2298	0.0151	0.2449	1412.0086	0.155921	-419.158997	-419.148232	-419.147288	-419.195058	38.207	
C	 0.1233769301	 1.3587001049	 0.0643883504	-0.23761
O	-0.2041020535	 0.0105740315	-0.214357955	-0.246416
C	 0.5958757201	-0.5856088625	-1.2297443462	-0.117611
C	 2.0060412395	-0.6913449191	-0.830085664	 0.367378
C	 3.1587844077	-0.7643167104	-0.4979319512	-0.493506
C	 0.0018775627	-1.9619763997	-1.5265197943	 0.341262
N	-0.3606597446	-2.6623985017	-0.3993830113	-0.54521
N	-0.0415993211	-2.34231691	-2.7412560555	-0.278938
C	-0.5564045218	-3.6743393728	-3.0057106311	-0.339468
H	 1.152122953	 1.4580481921	 0.4331972797	 0.12607
H	 0.0058473545	 1.9893002462	-0.8290705404	 0.113045
H	-0.5721718127	 1.699206626	 0.8343933674	 0.129427
H	 0.5276206132	-0.0123669204	-2.1637001951	 0.119691
H	 4.178910779	-0.8411866694	-0.2121477636	 0.202055
H	-0.548988417	-2.0948176762	 0.4136113265	 0.265383
H	-0.9746730363	-3.4515585678	-0.5219580897	 0.25384
H	-1.5990565496	-3.7996736043	-2.6673751185	 0.10198
H	-0.5412161072	-3.8634135555	-4.081894475	 0.123517
H	 0.042515574	-4.4590334909	-2.5180604132	 0.11511
