21
gdb 112429	2.42404	1.26869	0.92482	4.2003	79.11	-0.2425	0.0613	0.3038	1324.5308	0.184223	-420.471787	-420.462577	-420.461633	-420.505607	35.106	
C	 0.0511711622	 1.6982053744	 0.0143752643	-0.396972
C	 0.2130159166	 0.182183747	-0.1400238118	-0.187735
C	 0.6053934359	-0.5102561878	 1.1638888467	 0.051848
N	-0.4327208208	-0.460317088	 2.1909272675	-0.352945
C	-0.3132825644	-1.5401475826	 3.0618012691	 0.426931
O	-0.8806153205	-1.684767163	 4.1210221649	-0.411621
N	 0.5884362189	-2.4178597438	 2.471422065	-0.343566
C	 0.860234038	-2.0461957039	 1.084191464	 0.010477
C	-0.0206482629	-2.8092638279	 0.0886807613	-0.397584
H	 0.9672875982	 2.1606745183	 0.3981975034	 0.118476
H	-0.180929164	 2.1664812148	-0.9464678353	 0.121087
H	-0.7649166277	 1.9462986796	 0.7013559458	 0.120388
H	-0.7194849989	-0.2491817283	-0.5179747424	 0.109893
H	 0.9902361225	-0.0257204552	-0.8865438026	 0.099867
H	 1.5339251036	-0.0439414381	 1.5345811032	 0.078616
H	-0.6888480585	 0.4175364351	 2.6150863963	 0.249325
H	 0.5085934959	-3.388149916	 2.7354620764	 0.246414
H	 1.9135381477	-2.225748236	 0.8429803067	 0.086088
H	-1.0815889405	-2.6142759176	 0.2696799083	 0.136948
H	 0.2146397694	-2.5369803276	-0.9444694362	 0.120683
H	 0.1496059193	-3.8860986436	 0.1922811255	 0.113382
