21
gdb 106111	2.59883	1.39141	1.16277	1.9835	81.99	-0.2382	0.0741	0.3124	1171.8955	0.182772	-387.041946	-387.03337	-387.032425	-387.075092	33.571	
C	-0.3419658985	 1.5519631206	-0.0162373464	-0.372996
C	 0.0955537151	 0.083264511	 0.0752750586	-0.333839
C	 0.8098522761	-0.4019977059	-1.1467607427	 0.359008
C	 0.3217912594	-0.7452054515	-2.5353903243	-0.119459
C	 1.3532489469	 0.1658376886	-3.2013879827	-0.239387
C	 2.1618581265	 0.0249692065	-1.886994875	-0.151935
C	 2.5784312557	-1.4735208772	-1.8615341394	 0.164798
O	 3.365707851	-1.8550306685	-0.7534467074	-0.449663
C	 1.092747754	-1.7862958026	-1.7084027731	-0.183883
H	 0.5202477176	 2.2107491045	-0.1632587701	 0.1199
H	-1.0258370021	 1.7048320914	-0.8572039369	 0.120041
H	-0.8526821739	 1.8684443041	 0.8983720388	 0.112145
H	 0.7324669868	-0.0488616517	 0.9614439101	 0.0929
H	-0.7836145427	-0.5535762849	 0.2406571756	 0.10373
H	-0.6991460634	-0.9401763259	-2.8422498332	 0.08347
H	 1.8400301243	-0.1691924165	-4.1253349728	 0.088836
H	 0.9610795265	 1.1769148192	-3.3422410312	 0.099466
H	 2.8736515532	 0.782450126	-1.5626820104	 0.070518
H	 3.1105693259	-1.849557505	-2.7423183749	 0.076261
H	 2.8597329405	-1.6577517716	 0.0434520931	 0.276398
H	 0.6394211113	-2.7295521907	-1.4260363157	 0.083691
