17
gdb 100221	2.68779	1.14595	0.96961	6.0591	72.76	-0.3159	-0.0041	0.3118	1259.2575	0.133365	-418.03329	-418.023193	-418.022249	-418.06847	35.48	
C	 0.0251825856	 1.5110157035	 0.1919555772	-0.425977
C	-0.0566528185	-0.0013863109	-0.0227543886	-0.19267
C	 0.7146227625	-0.49806536	-1.2690073548	 0.194702
O	 2.0929321709	-0.1817770334	-1.2011042354	-0.434142
C	 0.6503237573	-2.0428290131	-1.3386579444	-0.359773
C	 1.3417969956	-2.6038665105	-2.496326624	 0.284372
N	 1.8787695147	-3.0682544928	-3.4067893588	-0.296342
C	 0.1091364134	 0.0922808659	-2.4873789145	 0.266545
N	-0.3678787426	 0.600275632	-3.4089958936	-0.325829
H	 1.05948481	 1.8356433608	 0.3445199303	 0.122983
H	-0.3911827706	 2.060600043	-0.6578447521	 0.149659
H	-0.5384754865	 1.7967868801	 1.0836252485	 0.13533
H	 0.369422062	-0.5262998572	 0.8393805713	 0.118716
H	-1.1033526847	-0.3127284187	-0.1133813475	 0.120942
H	 2.2086301818	 0.7640154692	-1.3428335809	 0.305029
H	 1.1170677832	-2.4284839203	-0.4266078965	 0.169493
H	-0.3935884742	-2.3695679177	-1.346799436	 0.166963
