21
gdb 58882	3.20449	1.29634	1.0963	1.6923	82.9	-0.2415	0.0065	0.248	1200.9284	0.181952	-387.09029	-387.081495	-387.080551	-387.123477	34.319	
C	-0.1056824014	 1.5537017338	 0.4181565788	-0.389331
C	 0.0189153228	 0.0790862926	-0.0051990132	-0.077415
C	 0.8912857718	-0.7017604289	 0.9850453127	-0.400355
C	-1.361876832	-0.5248784582	-0.1717327369	 0.413585
O	-2.1249351118	-0.7281671204	 1.0507086989	-0.307311
C	-1.8215096863	-1.868254542	 0.2403693083	-0.038439
C	-2.956354676	-2.3020234868	-0.6791408297	-0.299591
C	-3.1357748714	-1.0990207016	-1.5832071111	-0.07853
C	-2.2504068023	-0.1362852879	-1.3190872186	-0.133884
H	 0.8817226522	 2.0189229669	 0.4967918485	 0.109459
H	-0.6935744181	 2.135668624	-0.2985398446	 0.11321
H	-0.5982284534	 1.6272787166	 1.3928627938	 0.133854
H	 0.496952477	 0.045569877	-0.9942979681	 0.07679
H	 0.3935076159	-0.7731659203	 1.9569062537	 0.134323
H	 1.0975920318	-1.7157210582	 0.6294489484	 0.11002
H	 1.8513725328	-0.1973801372	 1.1301843931	 0.108211
H	-1.1758055329	-2.6074897886	 0.7056183093	 0.091881
H	-2.6886120693	-3.2045516056	-1.2439049659	 0.110577
H	-3.8667037217	-2.5377517778	-0.1144382944	 0.125072
H	-3.9233934299	-1.0424765683	-2.3262644416	 0.09966
H	-2.1745960779	 0.8142780608	-1.8328018615	 0.098212
