12
gdb 3980	7.88278	0.79688	0.72697	5.2265	78.7	-0.262	-0.081	0.181	1416.177	0.081977	-377.470281	-377.461923	-377.460979	-377.503856	28.312	
C	-0.0397085406	 1.4963635625	-0.0020064317	-0.483721
C	 0.01668256	-0.0103418062	 0.0391659383	 0.167219
N	 0.0887638161	-0.7130889708	 1.1196950628	-0.128377
O	 0.1074886327	 0.0988887593	 2.2373179097	-0.375559
C	-0.0088903689	-0.7475198142	-1.1732985023	-0.000517
C	-0.0343332703	-1.3155635779	-2.2425908377	 0.174045
C	-0.062298461	-1.9657095578	-3.4400198582	 0.190214
N	-0.0863476175	-2.5168811114	-4.4632378303	-0.331172
H	 0.8473282448	 1.9157627884	 0.4824408516	 0.160757
H	-0.0973257914	 1.8586508324	-1.0280749153	 0.14374
H	-0.9095351751	 1.851985989	 0.5586544276	 0.160756
H	 0.1615833214	-0.5368272133	 2.9606875055	 0.322616
