19
gdb 30924	1.96574	1.90031	1.02991	1.1933	80.22	-0.1664	0.0529	0.2194	1177.7239	0.158915	-419.218606	-419.2086	-419.207656	-419.254105	35.293	
C	-0.0210090125	 1.4235716344	-0.0276566239	-0.254253
O	 0.0784471371	-0.0029456746	 0.0378453192	-0.283213
C	 0.5995481289	-0.5807041852	-1.0797358173	 0.267037
C	-0.0145259922	-0.9186575217	-2.2653596189	 0.158749
N	-1.355118337	-0.6285626239	-2.6078052737	-0.620233
C	 0.9782689478	-1.5426846541	-3.0725496556	-0.243715
C	 2.1497183197	-1.568188031	-2.3466686205	-0.105155
N	 1.9245332546	-0.9831070447	-1.1287326803	-0.038082
C	 2.8962643928	-0.7719871139	-0.0801110269	-0.341643
H	 0.9701850265	 1.8870192876	-0.1082490133	 0.113921
H	-0.6295540513	 1.7338414313	-0.884308015	 0.137321
H	-0.498093944	 1.7474810469	 0.9004153099	 0.124351
H	-1.9442085546	-0.6263199856	-1.7821444433	 0.239433
H	-1.7272658799	-1.313291888	-3.2550410501	 0.237768
H	 0.8398019293	-1.9390738702	-4.0672538704	 0.084662
H	 3.1214232032	-1.9652266311	-2.5932337047	 0.10903
H	 3.4727498337	 0.1495987539	-0.2306931451	 0.128055
H	 2.3761043264	-0.703558237	 0.8770337915	 0.151004
H	 3.5914317315	-1.6146746433	-0.0448276316	 0.134964
