23
gdb 101877	3.42675	0.6187	0.54378	1.668	89.34	-0.2512	0.0608	0.312	2064.594	0.201979	-388.256741	-388.245262	-388.244318	-388.294505	40.543	
C	 0.1157742516	 1.4246710495	 0.0955212195	-0.234005
O	-0.05968892	 0.0381277089	-0.0714866124	-0.243794
C	 0.6616364596	-0.5344494021	-1.1575641472	 0.134003
C	 2.1468278275	-0.7046478955	-0.8250978554	-0.402765
C	-0.0107685937	-1.8723804723	-1.4720427099	-0.1894
C	-1.4659967236	-1.7297053899	-1.924423388	-0.177456
C	-2.1375846699	-3.0940104233	-2.1782095968	-0.357495
C	-3.5211625831	-2.97661365	-2.6228204525	 0.294257
C	-4.6594556525	-2.853372029	-2.9893029383	-0.439357
H	 1.1418500123	 1.693057939	 0.3869882437	 0.105083
H	-0.1367105183	 1.9803045828	-0.8215023145	 0.103067
H	-0.5611279467	 1.7403764648	 0.893703414	 0.126622
H	 0.5650720202	 0.1277457172	-2.036497883	 0.060819
H	 2.2685939388	-1.363407645	 0.0406910811	 0.122638
H	 2.681928601	-1.1433450894	-1.673289781	 0.1143
H	 2.6216893878	 0.2533038277	-0.5953565129	 0.115514
H	 0.5754973326	-2.3844998388	-2.2456890603	 0.091597
H	 0.0398747242	-2.498383965	-0.5712163787	 0.102809
H	-2.0291135804	-1.1825357077	-1.1636861228	 0.127065
H	-1.515404411	-1.1331684471	-2.8434598293	 0.101722
H	-1.5620398914	-3.6546450167	-2.9273572814	 0.124821
H	-2.1003025645	-3.6945521998	-1.2595248489	 0.129149
H	-5.6660615406	-2.7561812481	-3.3119751648	 0.190807
