16
gdb 44881	3.0151	1.54127	1.36843	3.8346	68.86	-0.2333	-0.0216	0.2117	973.6866	0.125081	-437.836033	-437.829043	-437.828099	-437.86745	27.702	
O	 0.0244707122	 0.0594731572	 0.0446784475	-0.319124
C	 0.010429415	 1.256097351	 0.0342491471	 0.463925
C	-1.1933452669	 2.2345139303	 0.0473558342	-0.348749
C	-0.3542089565	 3.526682996	 0.0300389354	-0.031618
O	 0.643511209	 3.2059884396	-0.9968321444	-0.294788
C	 1.1761492273	 2.2619698635	-0.0059037867	-0.128749
C	 0.7389991183	 3.2648301075	 1.0731310608	 0.399587
C	 1.5140141195	 4.2072265229	 1.8882121444	-0.33037
N	 0.720670546	 3.1116831521	 2.5084812843	-0.376886
H	-1.8107343936	 2.1295658669	-0.8478692195	 0.140258
H	-1.8172097689	 2.0894677199	 0.9340615139	 0.127839
H	-0.8468267655	 4.4892386052	-0.1057045613	 0.095685
H	 2.1907683226	 1.9117211612	-0.1765699582	 0.106194
H	 2.5900542991	 4.0981343501	 1.9860936583	 0.13464
H	 1.1486645562	 5.2277738624	 1.9725380953	 0.123609
H	-0.1422615338	 3.472120444	 2.9096602289	 0.238546
