20
gdb 14336	4.24401	1.62507	1.40375	0.296	80.83	-0.2242	0.0329	0.2571	975.9923	0.178869	-311.882729	-311.875359	-311.874415	-311.914128	29.132	
C	 0.1225918789	 1.4805641695	 0.2024584709	-0.489056
C	-0.0226097028	-0.0044068642	 0.0853307939	 0.334716
C	 0.1915822213	-0.7522739245	-1.0022155975	-0.179259
C	-0.0533744833	-2.2185896602	-0.781372916	-0.048377
C	 1.2170967527	-3.1084573011	-0.6214909507	-0.219452
C	 1.1383481345	-2.9027549413	 0.9171788535	-0.219672
C	-0.2874660783	-2.2905818842	 0.766866108	 0.002229
C	-0.4789667782	-0.8476523757	 1.2636662977	-0.318226
H	 0.8601105786	 1.7478027183	 0.9703504563	 0.122507
H	 0.4360276778	 1.9341385074	-0.741883405	 0.120731
H	-0.82269803	 1.9481366659	 0.5078080589	 0.12242
H	 0.5112776106	-0.3547252281	-1.9614351719	 0.078121
H	-0.8238828088	-2.6204711904	-1.4488103475	 0.063668
H	 1.0335469232	-4.1457349384	-0.9159531694	 0.094155
H	 2.1255400544	-2.7626490934	-1.1221532173	 0.092187
H	 1.2170732528	-3.8038504398	 1.5303284803	 0.09398
H	 1.8639551927	-2.1733226391	 1.2883994746	 0.097686
H	-1.0780077325	-2.9701501669	 1.0904557901	 0.06009
H	 0.1071731965	-0.6420691215	 2.17050484	 0.095448
H	-1.5242116203	-0.6222981724	 1.5214329212	 0.096104
