16
gdb 30677	4.11481	1.01973	0.88303	3.0124	66.78	-0.2496	-0.0096	0.24	1275.1303	0.124896	-475.043943	-475.035654	-475.03471	-475.077654	30.141	
O	 0.089625607	 1.4059169964	 0.0608632142	-0.419433
C	 0.0587634968	 0.0096215283	 0.2283857398	-0.061001
C	-1.3684106167	-0.5191414503	-0.0211568545	-0.007042
O	-1.8097736923	-0.0651997913	-1.2891025084	-0.441888
C	-1.4278653888	-2.0115796865	 0.0310077301	 0.388767
N	-1.5564682242	-2.7995344508	-0.9890422026	-0.3308
C	-1.5086648565	-4.0804098589	-0.4481631582	-0.108127
C	-1.347355589	-3.9834650924	 0.8901460651	-0.044806
O	-1.2922316206	-2.6515168192	 1.2127199826	-0.177852
H	-0.3495566885	 1.5739556345	-0.7831701716	 0.29225
H	 0.7468418888	-0.5055568463	-0.4625058143	 0.088933
H	 0.3731323758	-0.21117312	 1.2535446509	 0.11627
H	-2.0309210979	-0.0894143638	 0.7411587839	 0.113174
H	-1.7460934469	-0.8178087517	-1.8946377808	 0.302782
H	-1.5963757893	-4.9628333594	-1.0609616097	 0.134468
H	-1.2630039277	-4.6799905186	 1.7057729335	 0.154305
