19
gdb 122410	5.03301	0.61621	0.58137	4.8009	72.91	-0.2711	0.0121	0.2832	1866.9826	0.158071	-460.188701	-460.179188	-460.178244	-460.224406	33.55	
O	-0.1144234375	 1.5333323776	 0.1712997971	-0.418806
C	 0.0154117157	 0.1511585436	-0.1172698878	-0.075235
C	-1.3469391884	-0.4970181131	 0.092048568	-0.170039
C	-1.342303715	-1.9966540578	-0.2192875496	-0.213311
C	-2.6859284957	-2.6525382514	 0.0251713301	 0.136949
C	-2.7566333305	-4.1907972642	 0.0449800162	-0.442646
C	-3.1343343305	-3.9939474262	 1.5136565476	 0.450477
O	-3.4138793188	-4.66635214	 2.4522921197	-0.314829
O	-3.0617912549	-2.6253264244	 1.4533959421	-0.249606
H	 0.7485888653	 1.945498641	 0.072299683	 0.287244
H	 0.3501358678	-0.010602229	-1.1560123501	 0.08212
H	 0.7590977467	-0.3278581756	 0.5407890272	 0.087889
H	-1.6605670894	-0.3373450281	 1.1289392185	 0.132366
H	-2.0779363221	 0.0180763401	-0.5431882616	 0.107798
H	-1.0706291028	-2.1676733159	-1.27001066	 0.106762
H	-0.5859192214	-2.5086556535	 0.3900927499	 0.106601
H	-3.479631199	-2.1711885206	-0.5539564833	 0.100174
H	-3.5365549124	-4.6552131059	-0.5602978983	 0.144617
H	-1.810731557	-4.7138892369	-0.1092817286	 0.141475
