17
gdb 71086	3.22793	1.54712	1.42597	1.8965	71.38	-0.2347	-0.0163	0.2184	963.5815	0.136358	-421.805196	-421.79814	-421.797196	-421.836405	28.553	
C	-0.0195270141	 1.4788670743	 0.0456879753	-0.504019
C	-0.0516514103	-0.0177356066	-0.0307686823	 0.413278
C	 0.7922005716	-0.7849684333	-1.0820126386	-0.250262
C	 0.1235323782	-2.1525311503	-0.7978492013	-0.224551
C	-0.3824723891	-1.7952151799	 0.688064539	 0.107874
O	 0.3785668784	-0.7025856766	 1.1928981166	-0.320516
C	-1.3957581591	-0.8694293765	-0.0550480109	-0.263943
C	-1.3125525246	-1.8272569484	-1.2334565529	 0.440947
O	-2.0865839078	-2.2650204481	-2.0342850247	-0.327793
H	 1.0094287378	 1.8247743657	 0.1915690642	 0.136395
H	-0.401509027	 1.9157305386	-0.8820251363	 0.131527
H	-0.6264593186	 1.8403224449	 0.8798246193	 0.135434
H	 0.6542832955	-0.4474080456	-2.1127326229	 0.114335
H	 1.8504557853	-0.7462097768	-0.8155778019	 0.117098
H	 0.6303186462	-3.0741275529	-1.0695859441	 0.091992
H	-0.6265616331	-2.5863893786	 1.3922205517	 0.106006
H	-2.3006737195	-0.45066104	 0.3768831899	 0.0962
