20
gdb 113272	3.6224	0.85306	0.84594	2.4283	78.64	-0.2482	0.0228	0.2711	1474.8587	0.167831	-440.254404	-440.244255	-440.243311	-440.289739	36.316	
C	-0.0196180665	 1.067333899	 0.4552349499	-0.242074
O	-0.1559565682	 0.0035586684	-0.4719016431	-0.237207
C	-1.3526383168	-0.6857495711	-0.3302202585	 0.071317
C	-1.433685061	-2.044445764	-0.9630927542	-0.383762
C	-1.4286524806	-1.9073176821	 0.5498647329	 0.357557
C	-0.2372665121	-2.3588755999	 1.3580006277	-0.453054
O	-2.6714975189	-2.0425104128	 1.2163934336	-0.223807
C	-3.2263055265	-3.2745239269	 1.2195765889	 0.117421
N	-4.2779979906	-3.4877932979	 1.8838117547	-0.443062
H	 0.9354888143	 1.5533165508	 0.2447971294	 0.130546
H	-0.828820399	 1.8029977915	 0.3402017719	 0.115566
H	-0.0217479576	 0.7074698792	 1.4929362618	 0.117207
H	-2.2518103444	-0.0686241609	-0.3551508458	 0.103522
H	-2.3577776583	-2.3137280837	-1.4613859481	 0.126883
H	-0.5293271506	-2.4257635624	-1.4247112154	 0.130889
H	 0.6876083774	-2.0438049304	 0.8701455673	 0.138897
H	-0.2730356014	-1.9193010637	 2.3595693085	 0.133563
H	-0.2172346839	-3.4486519681	 1.4677695332	 0.118905
H	-2.6829117238	-3.9988684962	 0.5996358675	 0.092678
H	-4.5709124513	-4.4554107988	 1.7638071477	 0.228016
