21
gdb 80983	2.20878	1.7833	1.56193	1.6216	82.29	-0.2301	0.0096	0.2398	1026.311	0.182703	-387.090438	-387.082111	-387.081167	-387.12251	33.616	
C	-0.2239902792	 1.6284235964	-0.0320780912	-0.435745
C	 0.016465311	 0.1299579436	 0.0129130293	-0.008271
C	 1.1437159583	-0.5751730449	-0.7816854122	 0.064214
C	 2.4777502883	 0.1878636611	-0.7542662449	-0.269477
C	 2.8000641691	 0.5594924248	 0.6768349437	-0.074553
C	 1.9462438391	 0.2001879846	 1.6347150075	-0.083194
C	 0.7236726124	-0.5942906518	 1.2046597285	 0.362874
C	-0.083821807	-1.1845295858	 2.3348018873	-0.493837
O	 1.185954994	-1.6055519335	 0.2430695496	-0.331181
H	 0.6757535462	 2.2001000743	 0.208035505	 0.123398
H	-0.5673135492	 1.9332450255	-1.0271991219	 0.114912
H	-1.003642035	 1.9181304801	 0.6814367262	 0.115677
H	-0.9146019295	-0.4090585706	-0.1905149799	 0.07935
H	 0.9114452526	-0.982940324	-1.7699363349	 0.068636
H	 3.2723919303	-0.4408763688	-1.1767606431	 0.115501
H	 2.4239746537	 1.0839600094	-1.3881449228	 0.10525
H	 3.71627393	 1.1039558151	 0.8871393631	 0.092442
H	 2.0958703986	 0.4420628687	 2.6824416536	 0.085571
H	-0.4821958581	-0.3895535463	 2.9747988754	 0.11811
H	-0.9179026232	-1.7740578561	 1.9456445161	 0.121936
H	 0.5411447776	-1.8363578216	 2.9547293157	 0.128387
