16
gdb 14945	4.50514	1.51657	1.2148	2.9411	67.11	-0.2446	-0.0302	0.2144	972.0572	0.130336	-383.750539	-383.743109	-383.742165	-383.78315	26.898	
O	-0.8985034164	 1.1048688496	 0.1053399637	-0.246591
C	 0.2348882644	 0.7387896173	-0.052850868	 0.133084
C	 1.4434730774	 1.6731230427	 0.0277644436	 0.004954
O	 2.5867474875	 0.8730377368	-0.1837983661	-0.27082
C	 3.7566245306	 1.6299177936	-0.4637794602	-0.076349
C	 3.6118928007	 2.4049595573	-1.7745878595	-0.25573
C	 2.285843211	 3.1185798742	-1.8031696085	-0.071179
C	 1.3049261518	 2.8029170124	-0.9622186171	-0.074508
H	 0.5062003993	-0.3161848101	-0.2733097257	 0.100128
H	 1.4426192957	 2.0873464069	 1.0551603224	 0.104788
H	 3.9595840876	 2.3290927615	 0.3629875324	 0.096629
H	 4.578010067	 0.9101544095	-0.5077043252	 0.111703
H	 4.4367946643	 3.1220141926	-1.8710564227	 0.108727
H	 3.6953503547	 1.7226226727	-2.6313320072	 0.120169
H	 2.1485823712	 3.9151798261	-2.5292587833	 0.098177
H	 0.3512432531	 3.3203772469	-0.9507518085	 0.116817
