15
gdb 67751	3.26064	2.03551	1.48505	2.2398	67.95	-0.2293	-0.0138	0.2155	848.2133	0.111596	-420.478398	-420.471998	-420.471054	-420.508605	27.254	
O	-0.0008844863	 1.5212373667	 0.120026243	-0.479252
C	-0.0103806732	 0.1323439806	 0.0480041583	 0.29333
C	 0.8136256674	-0.6920417255	 1.0887992543	-0.164265
C	 0.558293426	-1.9862789076	 0.8338934516	-0.231359
C	-0.3932862918	-1.8274431182	-0.3318709082	 0.430401
O	-1.2450586597	-2.4434993768	-1.3309683385	-0.393349
C	-1.3605654612	-0.9563900267	-1.5509139898	 0.001196
C	-1.3531371273	-0.6374911216	-0.0385754454	-0.107686
C	 0.137657873	-0.7049053386	-1.268209979	-0.151189
H	 0.9091150508	 1.8260900927	 0.039183694	 0.282289
H	 1.4432587928	-0.2678437781	 1.8591209882	 0.110174
H	 0.916430712	-2.8837923984	 1.3145068832	 0.12918
H	-2.0158034583	-0.6463624524	-2.3608771652	 0.103921
H	-2.1848939804	-0.6565458753	 0.6650923532	 0.091074
H	 0.9828079164	-0.8056562109	-1.9499384995	 0.085536
