22
gdb 59877	4.04564	0.77571	0.71723	2.3123	84.23	-0.2554	-0.023	0.2324	1674.2071	0.192673	-404.353321	-404.343061	-404.342117	-404.389489	37.069	
C	 0.016360671	 1.575686509	 0.2156740768	-0.396653
C	 0.039149973	 0.0448389294	 0.1188322695	 0.047559
C	 0.8717820226	-0.568787113	 1.2533098383	-0.389236
C	-1.3895488685	-0.516409325	 0.1046937291	-0.304502
C	-1.5148570153	-1.9604069017	-0.3464102671	 0.377028
O	-0.5701511688	-2.6248246557	-0.7262959907	-0.33799
C	-2.8936347361	-2.5501788051	-0.3301833754	-0.096698
C	-3.3193662237	-3.2716558342	-1.5742613756	-0.217885
N	-3.0006061566	-4.0165206033	-0.3657123164	-0.303733
H	 1.0324233471	 1.9829209471	 0.2005968648	 0.1144
H	-0.5369018987	 2.024847142	-0.6163670093	 0.108254
H	-0.4574033798	 1.9064828477	 1.1479702259	 0.110949
H	 0.507470773	-0.2383671068	-0.8314643694	 0.092277
H	 1.8957464048	-0.1817837459	 1.2366779107	 0.111057
H	 0.4414721933	-0.3212012827	 2.2318713725	 0.10458
H	 0.9200128083	-1.6560577751	 1.1626087287	 0.13541
H	-1.8556253296	-0.4280244798	 1.0972636348	 0.121176
H	-2.0364528013	 0.0748221454	-0.561316731	 0.12243
H	-3.6442674502	-2.0383620721	 0.2647578087	 0.096855
H	-4.3688579041	-3.2554047195	-1.8538331015	 0.125957
H	-2.6099311343	-3.285449167	-2.3970780726	 0.131172
H	-2.0465438762	-4.3710695737	-0.4506873708	 0.247591
