25
gdb 103924	3.01849	1.09962	1.02115	0.2387	93.06	-0.2401	0.0847	0.3248	1367.865	0.22769	-352.344194	-352.334141	-352.333196	-352.378347	39.376	
C	-0.1454618238	 1.541741934	-0.0665821031	-0.387217
C	 0.1242252409	 0.0320130118	-0.0789071058	-0.231346
C	 0.7432120418	-0.5258911459	 1.2104528505	 0.361733
C	 2.1301705997	 0.066090259	 1.4765009888	-0.448919
C	-0.1465528121	-0.4920326725	 2.5105591727	-0.349081
C	 0.0050052623	-2.0160849854	 2.6496868038	 0.385082
C	 0.2299356134	-2.7349416053	 3.9491482664	-0.498998
C	-0.5819356292	-2.6746810667	 1.4328411776	-0.349915
C	 0.7917200705	-2.064118385	 1.3359294589	-0.134195
H	 0.777582308	 2.1242554017	 0.0107345949	 0.115982
H	-0.6522453815	 1.8527120878	-0.9855790844	 0.110106
H	-0.7867809736	 1.8241153026	 0.7756716607	 0.115976
H	-0.8181925716	-0.4903405474	-0.2790153603	 0.090773
H	 0.788149025	-0.2137178328	-0.919290057	 0.088959
H	 2.0851936212	 1.1469963542	 1.6431510284	 0.112666
H	 2.5835569837	-0.3878188366	 2.3639652437	 0.110569
H	 2.8030869576	-0.1166615142	 0.629838581	 0.107414
H	 0.3228773197	 0.0708322162	 3.3221378365	 0.094212
H	-1.1748417788	-0.1321477078	 2.3910325963	 0.086251
H	-0.6751533888	-2.7293779271	 4.5696439992	 0.116652
H	 0.5054387837	-3.7815051294	 3.780403589	 0.114621
H	 1.0315788584	-2.2681103472	 4.5335284942	 0.112964
H	-0.5936411081	-3.760689222	 1.4555207024	 0.104055
H	-1.4342605881	-2.239950262	 0.9155081141	 0.100284
H	 1.6593724197	-2.6669247001	 1.0851033516	 0.071371
