19
gdb 27151	2.88512	1.33464	0.98951	0.6314	84.58	-0.1982	0.0256	0.2238	1233.2265	0.159739	-385.915388	-385.906864	-385.90592	-385.949204	31.915	
C	 0.1996354201	 1.5599905006	 0.1348793372	-0.509406
C	 0.0583805811	 0.071931145	 0.0363625696	 0.132449
C	-0.1188662865	-0.6845030051	-1.0876553422	 0.304652
O	-0.2039483534	-2.0090936977	-0.7545817903	-0.196801
C	-0.0794345851	-2.0943107022	 0.5986477153	-0.025874
C	 0.0834038208	-0.8609086635	 1.1334200539	-0.253993
C	-0.2300238152	-0.3559963307	-2.514106409	-0.104947
C	 0.3369481341	-1.2807109604	-3.5748897916	-0.26343
C	-1.1520556827	-1.1427396041	-3.4269235973	-0.263381
H	 1.1538534966	 1.8431388564	 0.5944825959	 0.128018
H	 0.1548079298	 2.0370177511	-0.8477171275	 0.123832
H	-0.5945172182	 1.9993091544	 0.7500165529	 0.128106
H	-0.127529979	-3.0884394311	 1.0109274609	 0.128361
H	 0.2072949526	-0.6256195094	 2.1797085079	 0.104979
H	-0.151568076	 0.706639086	-2.7138643667	 0.089212
H	 0.8195138936	-0.8275622627	-4.4337294134	 0.112341
H	 0.7933519671	-2.2005874849	-3.2285589438	 0.126811
H	-1.6917046194	-1.9702943123	-2.981519853	 0.126712
H	-1.7023460805	-0.5938713892	-4.1830619587	 0.112358
