23
gdb 113089	4.73838	0.77963	0.71819	0.9857	89.37	-0.2418	0.0193	0.2611	1683.8468	0.205225	-388.297417	-388.287485	-388.286541	-388.332919	36.472	
C	-0.1160207339	 1.5326789415	 0.1540931115	-0.387567
C	-0.0429772468	 0.0098939138	 0.0085483355	-0.178252
C	 0.6649435964	-0.4662537461	-1.2713281179	-0.014224
C	 0.8636086341	-2.0029323607	-1.336820579	-0.272669
C	 0.651477794	-2.4127963978	-2.8078931438	 0.103864
O	-0.0605642308	-3.6430993559	-2.8470838698	-0.244044
C	-0.0513048209	-4.2713503361	-4.1061004711	-0.235679
C	-0.094564411	-1.2278997329	-3.3854492273	-0.106912
C	-0.0796487398	-0.1842871407	-2.5595144732	-0.06486
H	 0.8851635784	 1.9784682791	 0.1515691973	 0.113426
H	-0.6842377927	 1.9929030847	-0.6610446476	 0.116776
H	-0.602731694	 1.8160910915	 1.0924965612	 0.113069
H	 0.4877579362	-0.4090989976	 0.8732373674	 0.095429
H	-1.0538072479	-0.4174385377	 0.0335591377	 0.098227
H	 1.6452211787	 0.0348031946	-1.3105875362	 0.074219
H	 1.8284366369	-2.3276567346	-0.9403421201	 0.09581
H	 0.0805644705	-2.5013842369	-0.7554484696	 0.117047
H	 1.6128666247	-2.5531321547	-3.3340568237	 0.062229
H	-0.5682473407	-3.6813068338	-4.8782339706	 0.10303
H	 0.9750100869	-4.4665970275	-4.4570494982	 0.101148
H	-0.5721686343	-5.2260756168	-3.9959294696	 0.124993
H	-0.5448666844	-1.2435226486	-4.3716933051	 0.092107
H	-0.5210680497	 0.7833098932	-2.7751413579	 0.092832
