18
gdb 93399	2.47003	1.45245	1.05622	2.9897	76.	-0.2444	-0.0369	0.2075	1158.8725	0.148801	-439.136773	-439.128161	-439.127217	-439.169859	32.553	
C	 0.0366597851	 1.5149770876	 0.0538324622	-0.48715
C	-0.0486414551	 0.0199065597	-0.0083571618	 0.27493
C	-0.0422860093	-0.6814897623	-1.1501040472	-0.242875
C	-0.0178765356	-2.1640113016	-1.2020808582	 0.381673
O	 0.1256733392	-2.7845310927	-2.2412691398	-0.376644
N	-0.1059589071	-2.7900378644	 0.0245036595	-0.34857
C	-0.6644845164	-2.1060414956	 1.1814768103	-0.200599
C	-0.036140316	-0.7192879337	 1.3196419726	 0.045818
O	 1.2921057715	-0.7691424943	 1.8351730181	-0.431336
H	 0.8943465506	 1.8125792729	 0.6683394425	 0.150753
H	 0.1412190721	 1.9608825288	-0.9378435568	 0.130274
H	-0.8554435944	 1.9381953177	 0.5327582506	 0.132703
H	 0.0073832394	-0.1999091671	-2.1212451941	 0.109748
H	-0.2140690133	-3.7922606434	-0.0389894612	 0.247535
H	-1.7578641833	-1.9985668773	 1.10332052	 0.108275
H	-0.4444602994	-2.6856665753	 2.0820225181	 0.121911
H	-0.6052989062	-0.1557108519	 2.0663664194	 0.094272
H	 1.812642828	-1.2918891771	 1.2129836958	 0.289284
