23
gdb 121791	3.16478	0.70462	0.66623	1.1305	88.46	-0.2582	0.0611	0.3193	1788.5835	0.202105	-388.258692	-388.247202	-388.246258	-388.295466	41.861	
C	 0.0946169278	 1.579627861	-0.0012640626	-0.403866
C	 0.0438325631	 0.0344415257	 0.0390463877	 0.050285
C	 0.8641015124	-0.481298454	 1.2444389009	-0.403868
C	-1.4255391777	-0.481073822	 0.0938403799	-0.192892
C	-2.2486931674	-0.0520477997	 1.3131085051	-0.192948
C	-3.6665366022	-0.6096532703	 1.2646643764	-0.075895
O	-4.3497390988	-0.1633325513	 2.4264821635	-0.422294
C	 0.6449580173	-0.4871224326	-1.1952465169	 0.344785
C	 1.1306912118	-0.9176511023	-2.2076936209	-0.493755
H	 1.124612325	 1.9241504764	-0.1275965629	 0.12231
H	-0.4968609802	 1.9690855857	-0.8349581972	 0.119895
H	-0.2937829974	 2.0048928511	 0.9284401158	 0.117879
H	 0.479851789	-0.0670439775	 2.18081487	 0.117887
H	 0.8254863954	-1.5727657023	 1.3059336482	 0.11989
H	 1.9121345318	-0.1851146131	 1.1472498389	 0.122306
H	-1.9308845951	-0.147509713	-0.8209960361	 0.102408
H	-1.397328361	-1.5765583398	 0.0421400117	 0.102418
H	-1.783446772	-0.3953251502	 2.2433874211	 0.110094
H	-2.3179941756	 1.039154722	 1.3778308723	 0.110091
H	-4.1714587108	-0.2640732345	 0.3474592978	 0.084769
H	-3.6323211804	-1.7107794997	 1.220231458	 0.08477
H	-5.2450724121	-0.513004824	 2.4017538568	 0.285182
H	 1.5630091572	-1.2959441957	-3.1006544773	 0.190547
