16
gdb 23086	3.26621	1.26734	1.16167	0.725	72.84	-0.2253	0.0228	0.2481	1086.0982	0.123752	-437.776686	-437.768993	-437.768049	-437.808684	30.325	
O	-0.1672694827	 1.3465371302	 0.0765328187	-0.402893
N	-0.0163075982	-0.062223565	 0.087236635	-0.308844
C	-1.1454560717	-0.6353654788	 0.0675096369	 0.48921
C	-1.5118747533	-2.0636626943	-0.07739453	-0.250603
C	-2.9171815615	-2.2033449243	 0.6054231933	-0.118537
C	-3.2511843697	-0.8424098494	 1.218264308	-0.226357
C	-2.604783804	-0.2178666063	-0.0566280935	-0.241638
C	-2.8172196349	-1.6476842478	-0.7682579852	 0.380921
O	-3.4086421147	-2.0460300315	-1.9302543815	-0.447592
H	 0.7490010433	 1.6413308429	 0.0879253813	 0.303484
H	-0.8878283416	-2.9269851052	-0.2588674921	 0.105633
H	-3.25547066	-3.1890022092	 0.8986725001	 0.101524
H	-4.3304965238	-0.6738567055	 1.2544406662	 0.110777
H	-2.7943383903	-0.5756832652	 2.1767634703	 0.1072
H	-2.882268145	 0.7626342381	-0.4298524577	 0.0997
H	-2.8346703519	-1.8106774987	-2.6688928397	 0.298017
