15
gdb 7937	3.88872	1.80762	1.25346	1.012	64.91	-0.2414	0.0061	0.2475	924.2677	0.120524	-396.04595	-396.038249	-396.037305	-396.078393	27.322	
C	-0.0623577722	 1.3976460424	-0.067111956	-0.340089
N	-0.0164676621	-0.0426224395	-0.048699175	-0.116037
C	-1.1856075622	-0.8973899455	-0.033387107	-0.242942
C	-0.5922213761	-2.3018416009	-0.0168243874	 0.399568
N	-1.2912705536	-3.3600454132	 0.0001859975	-0.539447
N	 0.7776264262	-2.1096640642	-0.0247342237	-0.408844
C	 1.1542524793	-0.7553537895	-0.0435029892	 0.477101
O	 2.2884077375	-0.3353395095	-0.0528420095	-0.412736
H	 0.9665392254	 1.7608472068	-0.0748865408	 0.169346
H	-0.5805179085	 1.7692712814	-0.9600764114	 0.12623
H	-0.5751669781	 1.7920712776	 0.8191293577	 0.126226
H	-1.8119343195	-0.7342690759	 0.8527921346	 0.140991
H	-1.8178898246	-0.7577804438	-0.9193682862	 0.14098
H	-0.7102514794	-4.1994282598	 0.0091972042	 0.213156
H	 1.4719815178	-2.8379672964	-0.0167520378	 0.266496
