18
gdb 45207	3.10029	1.80203	1.42307	3.1969	75.59	-0.2515	0.0263	0.2778	941.3332	0.1511	-401.946896	-401.940329	-401.939385	-401.977842	27.137	
N	-0.0660746089	 1.2940243363	-0.3273536958	-0.545502
C	-0.0326277284	 0.0618255924	-0.0526134231	 0.403914
O	 1.1135198886	-0.6419710871	 0.2166811047	-0.24673
C	 0.822621702	-2.0164593589	 0.4888834447	 0.087172
C	 0.4538199705	-2.3274003767	 1.9677190064	-0.25125
C	-1.044871878	-2.4310524467	 1.5797030266	-0.034211
C	-1.7769136862	-1.0672891018	 1.4921857676	-0.238122
C	-1.2286312156	-0.8508740141	 0.0378018855	-0.110998
C	-0.6462989732	-2.2873012094	 0.0662655008	-0.064222
H	 0.875336449	 1.6904626727	-0.3087320912	 0.219935
H	 1.6243466574	-2.6124461595	 0.0519541058	 0.091665
H	 0.8657616775	-3.288808796	 2.2862119054	 0.107815
H	 0.7345912134	-1.5632626302	 2.6976431685	 0.10945
H	-1.6058474275	-3.2731240571	 1.983611999	 0.072593
H	-2.862777478	-1.184551728	 1.4837313916	 0.1115
H	-1.5140664228	-0.3070559853	 2.2328161702	 0.111515
H	-1.9781812623	-0.5910226606	-0.7065356478	 0.102895
H	-0.8692445475	-2.9967452801	-0.7280419888	 0.07258
