17
gdb 102960	2.94763	0.77674	0.67167	2.6719	70.53	-0.258	-0.0388	0.2192	1618.9444	0.133713	-455.138178	-455.128108	-455.127164	-455.174825	34.103	
O	 0.135370254	 0.9390879502	 0.5505975055	-0.414209
C	-0.2244100009	-0.3613552525	 0.1336322829	-0.08132
C	-1.7296149783	-0.4268626334	-0.2358612131	-0.13298
N	-2.62314138	 0.0065048729	 0.8333648733	-0.294781
C	-2.8282206246	-0.9596669067	 1.9031946478	-0.237477
C	-4.0305900825	-0.5610909677	 2.75018386	 0.150775
O	-4.1498695368	-0.830101462	 3.9151092118	-0.229889
C	-1.9460126446	 0.4222104962	-1.4230109095	 0.275513
N	-2.0434722589	 1.1150772032	-2.3426227654	-0.315426
H	 0.1578809951	 1.5094592183	-0.226947502	 0.304022
H	 0.3856825391	-0.7156642273	-0.7086149112	 0.116807
H	-0.0441122633	-1.0226414069	 0.9863114635	 0.128174
H	-1.9861341478	-1.4580720928	-0.5090119087	 0.129749
H	-2.257386944	 0.878646789	 1.2060210271	 0.241591
H	-3.0840618391	-1.9285087004	 1.4485385245	 0.137289
H	-1.9729555586	-1.1330913694	 2.5732124348	 0.125814
H	-4.8071843589	-0.0032188007	 2.1816105487	 0.096348
