16
gdb 17066	3.99201	1.54767	1.31703	2.1711	61.59	-0.2373	0.0582	0.2955	954.6529	0.12876	-420.778479	-420.770784	-420.76984	-420.810674	28.263	
C	-0.2095616477	 1.3181892296	 0.0344446134	-0.242854
O	 0.3731051314	 0.0443523142	-0.1426788005	-0.247171
C	 0.8463792797	-0.5101142348	 1.0363943418	 0.186044
C	-0.1118697014	-1.3774175306	 1.9230883033	-0.029876
O	-0.1278070679	-2.4020253758	 0.857421724	-0.307178
C	 1.2863388068	-1.9843115156	 0.9454210423	-0.055931
C	 1.1243021492	-2.1001179662	 2.4989079287	 0.111321
O	 1.9346055728	-1.3879871426	 3.3897647352	-0.426431
H	 0.4963871902	 2.0271140917	 0.494253217	 0.106823
H	-0.4874547209	 1.6859194741	-0.9556635554	 0.131189
H	-1.1118037789	 1.2730190083	 0.6618785309	 0.109833
H	 1.5119118767	 0.1687818211	 1.5835325232	 0.086351
H	-1.057513424	-1.1319878298	 2.4058168055	 0.095638
H	 1.9960711456	-2.4554941919	 0.2651622256	 0.094108
H	 0.9032944919	-3.1242574357	 2.8140519103	 0.094775
H	 2.6992069367	-1.9304632661	 3.6064106047	 0.293357
