19
gdb 78332	2.82043	1.34874	1.04593	3.3918	82.17	-0.2351	-0.0062	0.2289	1201.5021	0.158604	-385.872607	-385.86422	-385.863275	-385.905405	32.305	
C	-0.103469913	 1.4087127089	-0.0113100851	-0.424262
C	 0.05316802	-0.0931674427	 0.0975353537	-0.014971
C	 1.4437087823	-0.6585866863	-0.2058484738	-0.193943
C	 0.8379423143	-0.6679812203	 1.226529617	-0.173077
C	 0.7573455326	-2.1870653715	 1.1798661443	 0.242978
C	 1.1208048785	-3.1903113304	 2.2411624722	-0.333148
C	-0.2846049518	-3.1375917095	 1.7066127733	-0.319069
C	 1.4059419845	-2.1631096319	-0.1945122709	 0.369439
O	 1.8481148027	-3.0221462233	-0.9075827225	-0.338395
H	 0.7838353666	 1.9296750815	 0.3629063522	 0.120114
H	-0.2589226181	 1.7151017108	-1.0506813004	 0.128476
H	-0.9643469187	 1.7507482663	 0.5727722046	 0.12513
H	-0.8066950952	-0.6611173408	-0.2525629576	 0.097296
H	 2.2141820971	-0.0298397369	-0.6344236483	 0.106311
H	 1.1837054399	-0.0834255836	 2.0697703813	 0.102167
H	 1.758018565	-4.0128855582	 1.9335193064	 0.136407
H	 1.3034643763	-2.8185818139	 3.2439253217	 0.119941
H	-1.0604925739	-2.7280193694	 2.3451321214	 0.118548
H	-0.6097239292	-3.9332281489	 1.0443381505	 0.13006
