17
gdb 107838	3.41521	1.5066	1.31512	2.4644	66.17	-0.2225	0.0579	0.2803	983.0838	0.136459	-458.903252	-458.895983	-458.895038	-458.935025	28.724	
O	-0.0138060297	 1.3597739618	-0.2742926758	-0.416699
C	 0.0271929788	-0.0098003379	 0.0789696035	-0.167818
C	-1.3702841138	-0.5670212875	 0.1956376357	 0.369256
C	-2.3102150277	-0.0077723381	 1.2574065126	-0.092759
O	-3.4860210487	-0.8231193684	 1.1472826434	-0.268111
C	-3.1325063266	-1.9685279709	 0.4130556297	 0.084485
C	-2.5396310207	-1.7618611723	-0.9706434584	 0.055077
O	-2.089253278	-0.4128090194	-1.0873391681	-0.34694
C	-1.6513451623	-2.0904533814	 0.205811864	-0.277124
H	-0.5266490248	 1.4133405128	-1.0901270156	 0.299781
H	 0.5914991001	-0.604181088	-0.6549085422	 0.100328
H	 0.5468731185	-0.0781696722	 1.0409828363	 0.114645
H	-1.8782242449	-0.0879815861	 2.2666299042	 0.094167
H	-2.576378682	 1.0321657153	 1.056353657	 0.127499
H	-3.7582532379	-2.8304049121	 0.6106788478	 0.112688
H	-2.7978404918	-2.2998373545	-1.8757155027	 0.108141
H	-0.9814333085	-2.9028875112	 0.4527114187	 0.103385
