16
gdb 45209	3.27394	1.83691	1.46327	3.8889	68.9	-0.2589	0.0032	0.2621	893.8276	0.126994	-437.865395	-437.859101	-437.858157	-437.896064	25.597	
N	-0.105389246	 1.276929643	-0.3892251607	-0.536052
C	-0.0436016292	 0.0656563272	-0.0452774486	 0.421932
O	 1.1052518604	-0.6112839172	 0.273120276	-0.250564
C	 0.8369289661	-1.9972534549	 0.5201954911	 0.077661
C	 0.4270170592	-2.3333329735	 1.9855367426	-0.256898
C	-1.0514263243	-2.3637217443	 1.5431480651	 0.109953
O	-1.6231186088	-1.0366986532	 1.4730252379	-0.306501
C	-1.2218483084	-0.8739110154	 0.0825353952	 0.02892
C	-0.6208238427	-2.2864553373	 0.053485771	-0.135465
H	 0.8235390875	 1.7033969433	-0.3844024083	 0.22561
H	 1.6587776502	-2.5724609196	 0.0948621113	 0.098659
H	 0.7874009341	-3.3248591249	 2.2766087417	 0.110282
H	 0.6944056748	-1.6015086921	 2.7498656889	 0.125284
H	-1.7391440646	-3.0868137405	 1.9840553104	 0.088763
H	-2.0606979515	-0.5968083105	-0.5559393718	 0.106856
H	-0.8360006068	-2.9958192698	-0.7404404718	 0.09156
