16
gdb 32341	4.61685	1.02257	0.88844	3.4967	76.23	-0.2469	-0.0812	0.1656	1292.0846	0.124458	-437.936587	-437.928551	-437.927607	-437.969735	29.537	
C	 0.00984163	 1.5789236255	 0.1029423724	-0.37302
C	-0.0038747838	 0.058318093	-0.1153524697	-0.272798
C	-1.3923925426	-0.5193392728	-0.0871831177	 0.2437
C	-1.9731430287	-1.1049756892	-1.1550942822	 0.004023
O	-3.2233616559	-1.6135738338	-1.1236442367	-0.199766
C	-3.9819702596	-1.5517148067	 0.0397477081	 0.392042
O	-5.0913188204	-2.0076697674	 0.0471619024	-0.326539
C	-3.2865181352	-0.9049848436	 1.1599274228	-0.117149
N	-2.091725027	-0.425265692	 1.1074804563	-0.245644
H	 1.0361018361	 1.9555346085	 0.1384939264	 0.118082
H	-0.516335305	 2.0971277445	-0.7050974832	 0.118049
H	-0.4823491336	 1.8328825219	 1.0456236472	 0.14085
H	 0.4728436891	-0.1922887841	-1.0692229302	 0.105142
H	 0.5877689019	-0.4246552532	 0.6718271338	 0.122399
H	-1.5080113095	-1.2270984973	-2.1260247178	 0.145544
H	-3.8485314858	-0.8442622232	 2.0889872181	 0.145086
