21
gdb 59842	4.69526	0.52243	0.49391	2.8776	89.69	-0.2453	-0.0267	0.2186	2242.7795	0.178584	-387.08521	-387.07404	-387.073096	-387.124629	38.37	
C	 0.1814532187	 1.5200316422	 0.1788625179	-0.391072
C	 0.0667771914	-0.0083886603	 0.1481110639	 0.048981
C	 0.2782756623	-0.6129644797	 1.5402870066	-0.379762
C	-1.2997793912	-0.4253791841	-0.450623576	-0.346951
C	-1.4454172531	-1.8618706412	-0.6589774715	 0.049348
C	-1.5388349377	-3.047874408	-0.850211049	 0.077926
C	-1.6969235638	-4.4842841851	-1.0276091432	-0.415157
C	-2.2914820518	-5.1605340886	 0.2096598723	 0.172325
O	-3.0773269242	-6.0669646716	 0.1621741541	-0.231607
H	 1.1537560857	 1.8321051808	 0.5727741272	 0.113705
H	 0.0699998525	 1.9523847925	-0.8212097046	 0.111825
H	-0.591908866	 1.9588142032	 0.8208737618	 0.114055
H	 0.845158518	-0.4008063896	-0.5190525447	 0.084239
H	 0.1926130483	-1.7029130068	 1.5156856423	 0.121422
H	 1.2677243717	-0.3569840097	 1.9322658243	 0.112079
H	-0.4683239004	-0.2324481842	 2.2481212813	 0.111006
H	-2.10276301	-0.0668915136	 0.2090216611	 0.124686
H	-1.4444184604	 0.090559691	-1.4088624833	 0.125833
H	-2.3259518399	-4.7346929351	-1.8883003055	 0.153
H	-0.7176373074	-4.9569123461	-1.2026149802	 0.152635
H	-1.9224802125	-4.7489566358	 1.1744974552	 0.091483
