12
gdb 4619	5.68304	1.581	1.2369	4.4606	60.53	-0.2225	-0.0608	0.1617	880.0326	0.084326	-418.526904	-418.520464	-418.51952	-418.557435	24.422	
O	-0.0602249479	 1.3940580397	 0.0111117117	-0.434493
C	 0.0316837279	 0.0328583547	 0.0027928237	 0.247395
C	 1.1850226962	-0.6711207721	-0.0082802379	-0.03727
O	 1.2150447449	-2.0214989689	-0.0161672125	-0.215139
C	 0.0554993373	-2.8066632903	-0.0136513983	 0.432292
O	 0.1831394158	-4.0020272746	-0.0207280552	-0.347742
C	-1.1855602377	-2.0511116518	-0.0014643937	-0.252939
C	-1.1984997814	-0.6989704681	 0.006269168	-0.089357
H	 0.82237504	 1.7798359748	 0.0076967453	 0.303676
H	 2.1783984155	-0.2362061024	-0.011892439	 0.12713
H	-2.0945164789	-2.6387259131	 0.0009550578	 0.133291
H	-2.1276317418	-0.1382749979	 0.01525899	 0.133156
