12
gdb 1264	8.30661	1.07623	0.95855	5.3033	57.35	-0.2558	-0.0193	0.2366	1120.1118	0.088062	-360.501085	-360.492639	-360.491695	-360.535345	27.15	
N	-0.0694558047	 1.3343456537	-0.0205684803	-0.521854
C	 0.058136024	-0.0257003706	-0.0196451261	 0.268366
O	 1.1295178358	-0.5983327731	-0.0396039727	-0.329761
C	-1.2145440889	-0.7337599329	-0.0066690469	 0.053824
C	-2.2368736961	-1.3713759954	 0.0054575016	 0.072124
C	-3.4893516363	-2.1152908783	 0.0187356144	-0.217345
O	-3.2210492609	-3.5075044011	 0.0420455856	-0.400835
H	 0.7695385115	 1.8883703077	 0.0340262373	 0.26645
H	-0.9646355035	 1.7794233367	 0.0803769272	 0.264557
H	-4.0748936404	-1.7997775247	 0.8982529808	 0.124676
H	-4.0749776025	-1.8291460194	-0.8706795362	 0.125533
H	-4.0679099881	-3.9653543426	 0.0457756154	 0.294264
