16
gdb 56413	3.94935	0.65346	0.57952	3.4184	83.48	-0.2691	0.0108	0.2799	1834.2318	0.121342	-363.560298	-363.550204	-363.549259	-363.59814	34.801	
C	-0.003915701	 0.8212647966	-0.7537632275	-0.378751
C	 0.1571967775	-0.3488889523	 0.2498621573	-0.325656
C	 0.6942201449	 0.119456969	 1.5321944289	 0.342488
C	 1.1469276088	 0.5248296923	 2.5679299516	-0.463398
C	-1.1104150007	-1.0659104792	 0.433656123	 0.143993
C	-2.1570308803	-1.6421508296	 0.5608231548	 0.054731
C	-3.4251435779	-2.3473408117	 0.7308918702	-0.472961
C	-4.300004148	-2.249423382	-0.4454893147	 0.279711
N	-4.9957089643	-2.1800994724	-1.3642074784	-0.29986
H	 0.9595977491	 1.3134139003	-0.9053588216	 0.13175
H	-0.3695972343	 0.443187815	-1.7113400622	 0.134299
H	-0.7164208087	 1.5542179381	-0.3697439799	 0.141446
H	 0.8820509489	-1.0562262366	-0.1783964647	 0.141863
H	 1.5448853993	 0.8751530736	 3.4881253097	 0.202934
H	-3.2502698784	-3.4107433532	 0.9392918476	 0.182947
H	-3.9708733848	-1.9517511978	 1.5972062358	 0.184462
