19
gdb 38159	2.4745	2.16273	1.45705	1.497	79.97	-0.218	0.0114	0.2293	941.7969	0.161275	-385.83682	-385.829923	-385.828979	-385.867559	29.312	
C	-0.0957900628	 1.546659682	 0.0238046861	-0.431852
C	 1.2390640098	 0.785944768	-0.0404546907	-0.061326
C	 2.3078284327	 0.3733548519	 0.9071501887	-0.127418
C	 2.5216060042	-0.9434518866	 1.0347400931	-0.04648
C	 1.714904398	-2.0593467238	 0.3653051525	-0.267604
C	 0.1733035978	-1.8921692995	 0.240380297	 0.081061
C	-0.3591059825	-0.8586801368	 1.2419114358	-0.29881
C	-0.054139647	 0.059487145	 0.0698593123	 0.421523
O	-0.2521225843	-1.0183879718	-0.8661377587	-0.324029
H	-0.4305903465	 2.0295306334	 0.9383684628	 0.119362
H	-0.3609458046	 2.0782580371	-0.8836033622	 0.12764
H	 1.586580421	 0.7794883567	-1.0748028751	 0.111383
H	 2.953804463	 1.0918750361	 1.4063847092	 0.086316
H	 3.353241232	-1.2837743883	 1.648918272	 0.087439
H	 2.1144810072	-2.2563816712	-0.6400305677	 0.126637
H	 1.8845137241	-2.9808052553	 0.9353146358	 0.105775
H	-0.313503302	-2.8662593789	 0.1529029005	 0.077209
H	-1.4358144624	-0.9524928482	 1.399863625	 0.105139
H	 0.1682689225	-0.7145227897	 2.1840208936	 0.108033
