19
gdb 82118	3.17514	1.18417	0.99832	5.1586	79.09	-0.2431	0.0425	0.2857	1212.9126	0.160018	-382.044321	-382.035741	-382.034797	-382.077744	32.37	
C	-0.3277966348	 1.5289088333	 0.1378126186	-0.425076
C	-0.0748182741	 0.0291246385	 0.0680296707	 0.012485
C	 0.463854664	-0.5481522391	-1.2494701423	-0.05267
N	 1.8175787342	 0.0271340007	-1.4421761781	-0.336473
C	 1.6356656523	-1.1579063542	-0.5685046959	-0.082193
C	 1.1842871095	-0.6181110601	 0.7929797971	-0.013544
C	 2.1970461868	 0.2790306496	 1.5188708931	-0.349728
C	 1.6693433287	 0.8508310075	 2.755427402	 0.262041
N	 1.2349928469	 1.2864753517	 3.7342493996	-0.320475
H	 0.5194866993	 2.0896299848	-0.2649091581	 0.134112
H	-1.2120836059	 1.7902440954	-0.4538062989	 0.113319
H	-0.5069056026	 1.8565083725	 1.16609475	 0.140481
H	-0.9684866497	-0.5189150097	 0.3799469704	 0.083321
H	-0.1064380639	-0.9085614115	-2.0970793047	 0.095604
H	 2.1665263135	-0.3086559217	-2.3387665408	 0.233074
H	 2.1607516602	-2.0837273705	-0.7703704751	 0.096501
H	 0.8626076413	-1.4232599308	 1.4575061111	 0.093764
H	 3.0914476954	-0.3053707864	 1.767489289	 0.144738
H	 2.5184608188	 1.0837155501	 0.8515604924	 0.170721
