16
gdb 9075	5.85601	0.89622	0.80469	2.1894	68.33	-0.279	0.0058	0.2848	1352.8229	0.129224	-379.933672	-379.924576	-379.923632	-379.968863	30.42	
C	 0.0147564454	 1.5601819384	 0.0230652619	-0.394296
C	 0.0036664993	 0.0206621458	 0.0636078844	-0.14984
C	 0.7591881281	-0.5401857514	 1.2792326999	-0.073331
O	 2.1136932598	-0.125996212	 1.1459073799	-0.189177
C	 2.9369645038	-0.421913576	 2.1756817167	 0.128274
N	 4.1546879769	-0.1048545649	 2.111534508	-0.431156
C	-1.3648334063	-0.5038885975	 0.0683891724	 0.256791
N	-2.4448560233	-0.9141782268	 0.0891564686	-0.313102
H	 1.0475814135	 1.9123301062	 0.0266739668	 0.156225
H	-0.4835490641	 1.9257819373	-0.8773091718	 0.140904
H	-0.5027892978	 1.973658926	 0.8934816606	 0.135448
H	 0.5033293685	-0.3638346683	-0.833920123	 0.14721
H	 0.321606936	-0.1496299699	 2.207425173	 0.12616
H	 0.6915977464	-1.6347616164	 1.2960459971	 0.130949
H	 2.4333192136	-0.9335907463	 3.0071593532	 0.093639
H	 4.6364004002	-0.391046444	 2.9611718025	 0.235301
