16
gdb 16034	3.42803	1.74363	1.41416	3.5977	70.75	-0.2371	0.0154	0.2525	911.3206	0.131668	-342.754545	-342.747094	-342.746149	-342.786119	27.917	
C	-0.0023425902	 1.5414711929	 0.0162805254	-0.423167
C	 0.0839409747	 0.0328169714	 0.0542794678	-0.05089
C	 1.3337908008	-0.7447809786	-0.1870344341	-0.067207
N	 2.5011811518	 0.0031663544	 0.3014303109	-0.321845
C	 1.991636568	-0.1008871733	 1.7079534406	-0.233746
C	 0.6865938207	-0.7550413646	 1.2200567425	 0.154428
C	-0.0283797402	-1.7681531094	 1.9143377173	 0.185223
N	-0.6040949355	-2.5982283713	 2.4821752996	-0.355868
H	 0.9627455117	 1.9974710615	 0.2455218257	 0.146589
H	-0.2945573466	 1.8724874126	-0.985577872	 0.126001
H	-0.7495084553	 1.9125589685	 0.7244278975	 0.126813
H	-0.7933528126	-0.4846342364	-0.3274147916	 0.113277
H	 1.4194090244	-1.5480374733	-0.9094008138	 0.116367
H	 3.3533634713	-0.5339657172	 0.1906102219	 0.234901
H	 2.5756939831	-0.791066685	 2.321444731	 0.128874
H	 1.9013726037	 0.8594978279	 2.2249721512	 0.120251
