19
gdb 102934	2.8017	0.82846	0.67141	3.4609	79.51	-0.2758	0.0032	0.2791	1644.3156	0.155908	-423.018471	-423.00803	-423.007086	-423.055292	36.227	
C	-1.3569550808	-0.1613437421	 0.0189420354	-0.389626
C	 0.1662418622	-0.0328553393	-0.0318841418	-0.182643
C	 0.790337593	-0.6466938914	-1.305531687	-0.157001
C	 2.3055628794	-0.3866896244	-1.3949695045	-0.099667
O	 2.5492635072	 1.0187993305	-1.5019664212	-0.17946
C	 3.4010267523	 1.5941118093	-0.6301287194	 0.171858
O	 3.674075961	 2.7549556941	-0.6660346939	-0.271015
C	 0.5601808978	-2.0871154181	-1.3937676595	 0.320874
C	 0.4059854349	-3.278194023	-1.446939412	-0.465809
H	-1.8241384779	 0.3468208751	-0.8316874423	 0.119458
H	-1.6661449147	-1.2102865803	-0.0053533045	 0.132384
H	-1.7532998453	 0.288839528	 0.933618637	 0.118747
H	 0.449806814	 1.023940374	 0.0036276343	 0.119475
H	 0.6125829087	-0.5176152322	 0.8453427091	 0.102826
H	 0.3311105958	-0.1634486976	-2.1791158322	 0.123025
H	 2.8138692033	-0.7981267325	-0.513751975	 0.119917
H	 2.7182046343	-0.8667741986	-2.286561625	 0.133686
H	 3.8074719836	 0.8753456701	 0.1081795551	 0.080755
H	 0.2537109014	-4.3277633117	-1.5047249824	 0.202216
