17
gdb 44212	4.13551	1.15963	1.11435	4.455	72.91	-0.2715	0.0014	0.2729	1129.6717	0.136251	-421.809273	-421.801846	-421.800901	-421.84147	28.662	
O	-0.1058401681	 0.1227262387	-0.011618239	-0.326469
C	 0.0193591473	 1.3024147486	-0.0340836502	 0.479642
O	-0.9896456452	 2.254474992	-0.1888445054	-0.262434
C	-0.0288856417	 3.3194468851	 0.0503869626	 0.009725
C	 1.1119833777	 2.3266084567	 0.1148646642	-0.375092
C	 0.9729797271	 3.3334181882	-1.0359518486	 0.343024
C	 0.7248538313	 3.1535222488	-2.537612433	-0.294718
C	 1.3730834969	 4.5556882502	-2.7485049891	-0.208336
C	 1.9300714253	 4.5057491728	-1.2935142528	-0.307269
H	-0.3260272925	 4.1152429574	 0.7197343721	 0.127872
H	 1.9894370425	 2.2617878862	 0.7422226288	 0.124412
H	 1.3246931881	 2.3456512773	-2.9653771663	 0.117826
H	-0.3146801496	 3.022513775	-2.8421556094	 0.125044
H	 2.1102666136	 4.6401892514	-3.5484048034	 0.108793
H	 0.6254704631	 5.3416134763	-2.8759918407	 0.113789
H	 1.8062194463	 5.3960798819	-0.671450264	 0.108897
H	 2.9793245279	 4.1986370432	-1.2587605458	 0.115293
