18
gdb 22207	2.29397	1.01307	0.77586	1.3319	84.08	-0.231	-0.0291	0.2019	1513.2155	0.143366	-439.019743	-439.008709	-439.007765	-439.057298	37.962	
C	-0.03359991	 1.4548274386	 0.4298787895	-0.506288
C	-0.0264444019	 0.0114892481	 0.2593369855	 0.162702
C	-0.0344091428	-1.1856673298	 0.1070906764	-0.003431
C	 0.0155436068	-2.5984137208	-0.0588335324	 0.120322
N	-1.107418151	-3.2024591785	-0.2453892408	-0.179387
O	-0.9251919167	-4.5816082428	-0.3977514922	-0.390452
C	 1.3722712733	-3.3017471853	 0.0160014489	 0.063533
C	 1.8946941264	-3.6492582846	-1.3776708709	-0.382181
O	 2.3555562652	-2.4956975086	 0.6399260169	-0.433308
H	 0.9856269965	 1.8528091312	 0.4772857403	 0.156508
H	-0.5471200874	 1.9465492776	-0.4037484842	 0.157824
H	-0.5499265763	 1.7427298163	 1.3525525114	 0.154737
H	-1.8306498317	-4.8949756662	-0.4954931663	 0.312724
H	 1.2150065859	-4.2335751583	 0.5779706828	 0.097255
H	 2.0180199074	-2.7394817999	-1.971775652	 0.127229
H	 2.8686526723	-4.1378562505	-1.2868670435	 0.124573
H	 1.2012269155	-4.3222504895	-1.8849470345	 0.135426
H	 1.9805107486	-2.1211016169	 1.4435501552	 0.282213
