23
gdb 114918	3.06904	1.05877	0.86455	1.4141	87.75	-0.2242	0.0344	0.2586	1420.1659	0.205212	-388.308346	-388.2983	-388.297356	-388.343026	37.718	
C	-0.077215078	 1.6135056894	 0.1635487341	-0.396744
C	 0.0125942656	 0.0809492001	 0.0194682985	-0.110592
C	 0.8268325428	-0.428374053	-1.2087820509	 0.038032
C	 0.7993167248	 0.4532287601	-2.4473851248	-0.110499
O	 1.4966287119	-0.2382554794	-3.4771429597	-0.423829
C	 2.2460031195	-0.7210528297	-0.6581159182	-0.254352
C	 1.984000474	-0.9481477948	 0.809100049	-0.177452
C	 0.7707172623	-0.5393251663	 1.1867929243	 0.341177
C	 0.1837943081	-0.6042421805	 2.5626880301	-0.497571
H	 0.916819751	 2.07028736	 0.2113327398	 0.117923
H	-0.6224541863	 2.0663790295	-0.6708567467	 0.111887
H	-0.6082424393	 1.8840416325	 1.0817676709	 0.111567
H	-1.0158471839	-0.3026721624	-0.0272509474	 0.065221
H	 0.3933596031	-1.3921702831	-1.5014759229	 0.084075
H	-0.2433453405	 0.6545911073	-2.7445524236	 0.081613
H	 1.2743987122	 1.4241501981	-2.2376296509	 0.08413
H	 1.5364526976	 0.3338600685	-4.2488153165	 0.284373
H	 2.7096727244	-1.5776633838	-1.1569928912	 0.109543
H	 2.9288395521	 0.1274054666	-0.8177088265	 0.096187
H	 2.7213120175	-1.3810747461	 1.4783147381	 0.079118
H	 0.877332618	-1.0626680381	 3.2731592676	 0.121314
H	-0.0752263237	 0.3922300825	 2.9421271126	 0.123357
H	-0.7454700532	-1.1889905076	 2.5697931042	 0.121522
