21
gdb 95590	2.50357	1.51411	1.08914	0.8836	86.08	-0.2306	0.0104	0.241	1185.0036	0.183277	-387.086661	-387.077991	-387.077047	-387.120135	33.718	
C	-0.6369345356	 1.2905089991	 0.0596949447	-0.38745
C	 0.0200226141	-0.0939783415	 0.0934132881	 0.073697
O	 0.6320618316	-0.2792686832	-1.1749163116	-0.253118
C	 0.8604528629	-1.6139627798	-1.5835760047	-0.1306
C	 2.2350130943	-2.1682824644	-1.3189643038	-0.024808
C	 3.2380286997	-1.6070536064	-0.6484312728	-0.072608
C	 3.1970198134	-0.2645627659	 0.0619398488	-0.300583
C	 2.2848547062	-0.2702048057	 1.2749524374	-0.078297
C	 0.9543760409	-0.2216170268	 1.2737960008	-0.036166
H	 0.1232602015	 2.0611631521	-0.0957183423	 0.12875
H	-1.3635190453	 1.3438725323	-0.7554549487	 0.118823
H	-1.1490808634	 1.4977866493	 1.003704252	 0.113741
H	-0.7787434006	-0.8480939549	 0.2132965763	 0.071482
H	 0.1013816364	-2.2856534486	-1.1462668089	 0.098639
H	 0.6879130392	-1.63184534	-2.6698454247	 0.113848
H	 2.3913826895	-3.1476152635	-1.7703611168	 0.081978
H	 4.1700819808	-2.1619891455	-0.5735390113	 0.086816
H	 4.2090615794	-0.0037648926	 0.3846623439	 0.091531
H	 2.8739274704	 0.5068147602	-0.6398387687	 0.134299
H	 2.7819034758	-0.3613073727	 2.2383520042	 0.088153
H	 0.4356093789	-0.2505480712	 2.2312576981	 0.081872
