16
gdb 5333	6.2509	1.57241	1.28798	1.8907	74.03	-0.1711	0.049	0.22	930.731	0.133141	-342.777931	-342.770931	-342.769987	-342.808912	26.964	
N	 0.0760312838	 1.4214978438	 0.3075589297	-0.596783
C	 0.0031331963	 0.0452153039	 0.0170639303	 0.280568
C	-1.1466079892	-0.7350602263	 0.024605793	-0.24392
N	-0.7088851636	-2.0392353922	-0.0850135431	 0.017393
C	-0.9384826027	-3.3629686292	-0.6974232624	-0.168658
C	 0.6266229325	-3.5080600961	-0.7717818361	-0.359487
C	 0.6414061256	-2.0748350075	-0.2679174987	 0.322151
C	 1.1464489954	-0.7975294371	-0.2107243057	-0.391652
H	 0.8268965329	 1.8772493597	-0.1958412364	 0.237824
H	-0.7900360575	 1.9053695996	 0.1064146951	 0.236245
H	-2.1703991157	-0.4675586892	 0.2312268421	 0.101602
H	-1.4804652166	-4.0647666275	-0.0567988178	 0.116829
H	-1.4195864315	-3.3126200664	-1.6792305201	 0.122421
H	 1.054868907	-4.2647240394	-0.10846685	 0.118567
H	 1.0130413291	-3.6628134935	-1.7824489476	 0.121035
H	 2.1716848442	-0.4706011226	-0.2927987321	 0.085868
