17
gdb 56776	3.02291	1.26504	1.1344	1.949	73.96	-0.2462	0.0365	0.2828	1130.5668	0.133948	-421.735487	-421.726885	-421.725941	-421.768896	32.528	
O	 0.2404102031	 1.5503360273	-0.0048579748	-0.408569
C	 0.0708958487	 0.1422686907	 0.0297417474	-0.188332
C	 0.6003071199	-0.5080977841	-1.179031049	 0.332586
C	 1.0497661058	-1.0319891608	-2.1624721147	-0.464633
C	 0.7079451552	-0.4311750253	 1.2682508781	 0.494158
C	 0.414898183	-1.715235114	 1.9659110154	-0.337386
C	 0.3527759943	-0.4067018774	 2.7375869497	-0.202073
C	 1.7660717656	 0.1245354697	 2.9345360128	-0.087424
O	 2.0611484118	-0.013638997	 1.5128367677	-0.333908
H	 1.1832478707	 1.7012184814	 0.1437896478	 0.292517
H	-1.0101693767	-0.034123283	 0.087022999	 0.122452
H	 1.4430543776	-1.4928389831	-3.0348149535	 0.199703
H	-0.5544421988	-2.1557354437	 1.7533988019	 0.122781
H	 1.2188293426	-2.4265344279	 2.1347368221	 0.120583
H	-0.5382182111	-0.055759965	 3.2394220891	 0.110188
H	 1.8035894193	 1.1778183006	 3.2310692318	 0.116628
H	 2.4529049991	-0.4639381285	 3.5532867791	 0.11073
