19
gdb 102403	1.99548	1.34661	1.18175	1.3047	67.82	-0.2498	-0.0489	0.201	1176.8718	0.155731	-497.2806	-497.270105	-497.26916	-497.31629	36.972	
C	 0.5561726764	 0.7642809872	 0.4406863624	-0.254635
O	-0.4829483093	 0.4969122684	-0.497896981	-0.302181
C	-1.5141479177	-0.4049169452	-0.099409456	 0.193435
C	-2.350034934	 0.0800870689	 1.0970109983	-0.114334
O	-1.6904587735	 0.0039471128	 2.3431714285	-0.425301
C	-2.4095483469	-0.4962488243	-1.3589915653	-0.092108
O	-1.6577669581	-0.7766414524	-2.5154789695	-0.422515
C	-0.8964246392	-1.7839610368	 0.1435486229	 0.134119
O	-1.0678866308	-2.449129505	 1.1386115741	-0.269393
H	 1.2670453014	 1.4131930428	-0.0757152495	 0.128644
H	 0.1765755354	 1.2608822135	 1.3368006229	 0.149922
H	 1.0753543454	-0.1533715049	 0.7494142473	 0.116789
H	-2.5977141213	 1.1333344452	 0.9307350607	 0.120708
H	-3.2956133021	-0.485478663	 1.1079569237	 0.100398
H	-1.5110767206	-0.9345967295	 2.4891099408	 0.299057
H	-3.1433869229	-1.2999914209	-1.2422062441	 0.122979
H	-2.9591075922	 0.4552295567	-1.4464843349	 0.103398
H	-0.9271732481	-0.1449374642	-2.5079742542	 0.29416
H	-0.2662944719	-2.1464065196	-0.6929787371	 0.116859
