16
gdb 20287	4.07875	3.01573	2.78113	0.0193	68.51	-0.2414	0.0835	0.3249	610.9598	0.134143	-309.406376	-309.401725	-309.400781	-309.434667	21.402	
C	 0.0213572616	 1.4783968862	 0.0616257627	-0.070802
C	-0.2471869578	 1.8839935275	 1.5068408537	-0.070802
C	 0.8919029166	 1.415571486	 2.3859129628	-0.084424
C	-0.4216059275	 0.6451959488	 2.3581207363	-0.084424
C	 0.2042734719	-0.4350169948	 1.4371013709	-0.065682
C	 0.025779201	-0.0306486492	-0.0500099571	-0.084424
C	 1.3393139502	 0.7396802181	-0.0221610623	-0.084423
C	 1.558159828	 0.3589864969	 1.4658033416	-0.06568
H	-0.3154793136	 2.0828210548	-0.7705609684	 0.080796
H	-0.7843003042	 2.790907914	 1.7524787222	 0.080796
H	 1.3436137471	 2.0044725719	 3.1751516301	 0.079632
H	-1.1805132045	 0.5240658806	 3.1217509416	 0.079632
H	 0.1665522865	-1.4830094519	 1.7242167062	 0.065269
H	-0.4425663453	-0.5907335752	-0.8504484605	 0.079632
H	 2.081608542	 0.8895826907	-0.7969333671	 0.079632
H	 2.4818308272	-0.1251805735	 1.7733112215	 0.065271
