17
gdb 80517	2.27697	1.44363	1.27053	4.3613	74.83	-0.235	0.0167	0.2517	1077.5692	0.136881	-417.98227	-417.973709	-417.972765	-418.015155	32.412	
N	 0.0988498289	 1.4446504802	 0.110675969	-0.527561
C	-0.044823784	 0.0160091465	 0.1097686687	-0.024945
C	-0.4826445833	-0.7808060685	 1.2848225586	-0.110763
C	-1.579692318	-0.0575473322	 2.0664095091	-0.283316
C	-2.4830150338	-0.07396623	 0.7857702436	 0.024153
O	-2.8964691932	 1.1568403119	 0.2272518543	-0.424922
C	-1.3677074343	-0.7565922352	-0.011310335	 0.18023
C	-1.5777444313	-1.7695922792	-0.9875183456	 0.168907
N	-1.7457070364	-2.5941184204	-1.7844895052	-0.35633
H	 0.352916848	 1.7539788916	-0.8222875797	 0.239165
H	-0.789589032	 1.8904050922	 0.318589354	 0.249763
H	 0.7450756065	-0.4738360047	-0.4528353708	 0.120033
H	 0.0852310249	-1.6265277179	 1.6516936768	 0.114933
H	-2.0014650823	-0.6469858162	 2.8819600588	 0.115857
H	-1.307258507	 0.9326130019	 2.4419022293	 0.118202
H	-3.3345508023	-0.7507128887	 0.9161457237	 0.103043
H	-3.6635911503	 1.4728467987	 0.7158723304	 0.293552
