23
gdb 123063	4.51345	0.61599	0.5958	2.1904	83.76	-0.2596	0.0813	0.3409	1960.4522	0.205404	-425.402853	-425.392788	-425.391844	-425.4393	36.301	
O	 0.045847099	 1.3508371085	-0.341522953	-0.422083
C	 0.0059028828	-0.036912335	-0.0750960318	-0.057757
C	-1.4258962566	-0.5316384344	 0.0571986464	-0.065767
O	-2.0735813271	-0.2335737304	-1.1653299457	-0.264014
C	-3.4619629285	-0.5077379627	-1.1640750513	-0.072881
C	-4.0355550793	-0.1358423521	-2.5136250729	 0.035857
C	-3.6589010863	-0.99259811	-3.7546354633	-0.210755
C	-5.1312884853	-0.8753427843	-4.2341756717	-0.209389
C	-5.5293384655	-0.4660459722	-2.7891767019	-0.236765
H	-0.5827479074	 1.4915996735	-1.059665138	 0.28768
H	 0.5124701518	-0.6136900291	-0.8657161625	 0.09188
H	 0.5454737386	-0.2058661277	 0.8626297677	 0.10631
H	-1.4498924432	-1.6145976932	 0.2634419938	 0.085645
H	-1.927686543	-0.0125966256	 0.8898770317	 0.09351
H	-3.6348068582	-1.5789991541	-0.960783743	 0.081493
H	-3.9624920089	 0.0594823921	-0.3600029266	 0.087551
H	-3.8335346022	 0.9233501526	-2.7065463808	 0.07551
H	-2.8725680115	-0.6168423289	-4.4124034219	 0.100094
H	-3.406985111	-2.0178847447	-3.4641921019	 0.097694
H	-5.2643687015	-0.0489893818	-4.9382131097	 0.103238
H	-5.602249669	-1.7663110256	-4.6555594132	 0.096687
H	-5.8610986093	-1.3300275126	-2.2030819275	 0.098265
H	-6.2595832982	 0.3369041778	-2.6638072028	 0.097997
