21
gdb 57610	3.49055	0.96065	0.91844	1.7266	84.36	-0.252	0.0483	0.3004	1376.4387	0.179057	-387.042419	-387.032072	-387.031128	-387.077838	38.932	
C	 0.1925548808	 1.5973105213	 0.2490052629	-0.421009
C	 0.0825230622	 0.0834461844	 0.0744946634	 0.331597
O	 0.6535314773	-0.4638827215	 1.2637035459	-0.454416
C	-1.4114265631	-0.3496683375	-0.0430870942	-0.394884
C	-2.2411615617	 0.018810764	 1.0955440073	 0.323071
C	-2.9346103301	 0.3252979092	 2.0282815764	-0.447245
C	 0.8176070474	-0.4695692539	-1.1446190453	 0.002128
C	 0.92703923	 0.2480218036	-2.468272172	-0.275053
C	 2.1525221922	 0.0429993895	-1.6127893059	-0.288203
H	 1.2359251326	 1.8936052466	 0.3769471483	 0.125019
H	-0.2312676662	 2.1343660557	-0.6032355118	 0.113907
H	-0.3550733039	 1.8920522375	 1.1463501819	 0.143787
H	 0.6688694538	-1.4231615395	 1.1766196809	 0.274037
H	-1.8296523812	 0.0754309654	-0.9639974218	 0.13239
H	-1.4416839405	-1.4403802016	-0.1745774217	 0.1129
H	-3.5426621605	 0.5919359786	 2.8566570499	 0.191801
H	 0.6908254797	-1.5489707244	-1.2295556943	 0.070686
H	 0.8207122515	-0.3359536285	-3.3758916429	 0.111192
H	 0.5322668791	 1.2548448097	-2.5439262847	 0.11611
H	 2.5736787816	 0.91061974	-1.1186809145	 0.120777
H	 2.8916244992	-0.6834883486	-1.9319407278	 0.11141
