16
gdb 37275	3.74467	2.01895	1.91675	0.51	68.41	-0.2286	0.0617	0.2903	772.6739	0.127453	-400.648271	-400.642888	-400.641944	-400.67768	23.698	
O	-0.0097977202	 1.4353628969	 0.056497372	-0.242068
C	 1.2770348239	 0.8078907672	 0.0345751458	 0.031302
C	 0.0400963887	 0.0044396834	 0.0458976228	 0.031302
C	-0.0317264739	-0.625388635	-1.3390955282	-0.041661
C	-0.2319815014	 0.3237425993	-2.517942149	-0.070601
C	 1.062904958	 1.1648387478	-2.5297938397	-0.070601
C	 1.0185569788	-0.1931313791	-3.1585362834	-0.060567
N	 1.4224761979	-0.7959259082	-1.8065726461	-0.184121
C	 1.8637880103	 0.605842225	-1.3564474956	-0.04166
H	 1.9004746311	 0.9792822824	 0.9070676613	 0.102915
H	-0.3586602739	-0.4881330358	 0.9277482597	 0.102915
H	-0.577990701	-1.5679758628	-1.3925020443	 0.07586
H	-1.1430378669	 0.6903933474	-2.9725136628	 0.094433
H	 1.0924066677	 2.1424320073	-2.9929707342	 0.094433
H	 1.2670919678	-0.5894577616	-4.1315326056	 0.102258
H	 2.946262633	 0.7212031457	-1.4247710028	 0.07586
