23
gdb 59082	2.02432	1.21866	0.88699	3.4357	87.6	-0.2408	-0.0161	0.2246	1421.5501	0.203272	-388.299903	-388.289257	-388.288313	-388.335631	38.944	
C	-0.7864636526	 1.9214208679	 2.2429735458	-0.389688
C	-1.0212457922	 0.4996549582	 1.708673354	 0.008482
C	-1.2240593145	 0.5071448995	 0.1863089404	-0.389213
C	 0.1458922833	-0.3986362882	 2.0936624446	-0.006073
C	 0.2704067132	-1.1171575086	 3.3997627202	-0.047043
C	-0.7604622942	-1.0491002775	 4.5091568212	-0.415929
C	 0.0604595973	-1.9324802093	 2.1150135151	-0.150335
C	-1.2069154961	-2.6425641013	 1.8469884181	 0.163639
O	-1.2742832617	-3.6951311822	 1.2552037519	-0.280192
H	 0.1267346716	 2.3527685395	 1.8159335258	 0.114309
H	-1.6193896773	 2.5811578967	 1.9793348647	 0.11351
H	-0.6799832916	 1.9279489188	 3.3320317729	 0.116315
H	-1.9418811898	 0.1213426146	 2.1672308696	 0.074486
H	-0.3290489036	 0.8819133732	-0.3242253383	 0.11405
H	-1.428020468	-0.4974299474	-0.1967403347	 0.12653
H	-2.0617570675	 1.1537208953	-0.0942399149	 0.112656
H	 1.086956345	-0.0443536252	 1.6752615377	 0.092186
H	 1.28602447	-1.2021733516	 3.7783991065	 0.097951
H	-1.7794122914	-0.9088331452	 4.1429343151	 0.124691
H	-0.7483237492	-1.9659240168	 5.1075953227	 0.128357
H	-0.5361371821	-0.2128918544	 5.1800451111	 0.124549
H	 0.9204877091	-2.4734057589	 1.7337049057	 0.101775
H	-2.1305974077	-2.1536327972	 2.2264562147	 0.064986
