16
gdb 1087	4.55717	1.73356	1.69244	4.8099	60.82	-0.2844	0.026	0.3105	815.6747	0.134293	-325.801523	-325.793214	-325.79227	-325.83355	30.162	
C	-0.027801924	 1.5374242567	-0.0256245507	-0.423025
C	 0.0031897949	 0.0044354954	 0.0266043598	 0.33864
C	 0.6957807722	-0.4939923066	 1.2954961033	-0.395472
O	-1.318535113	-0.5194753103	 0.0832078653	-0.443424
C	 0.723951446	-0.5275789483	-1.247242368	-0.367338
C	 0.7571643582	-1.9854828803	-1.3279275294	 0.279571
N	 0.7960582407	-3.1382383866	-1.395324786	-0.313381
H	 0.9807751788	 1.9625779767	-0.0295904209	 0.121491
H	-0.5426520484	 1.8896563906	-0.9276821562	 0.107603
H	-0.563125833	 1.9240929161	 0.8452964543	 0.133658
H	 0.1613515232	-0.1244666099	 2.1741343718	 0.128716
H	 0.6947272311	-1.5861394482	 1.3269327643	 0.151452
H	 1.7302810441	-0.1413342488	 1.341140535	 0.114015
H	-1.8278586191	-0.1527161998	-0.6479653545	 0.280666
H	 0.2145369394	-0.1428175358	-2.139376914	 0.137277
H	 1.751658579	-0.1490682108	-1.2846392239	 0.149551
