13
gdb 25009	5.09882	1.39148	1.10075	4.5577	63.83	-0.2314	-0.0319	0.1995	995.205	0.092156	-452.809004	-452.802683	-452.801739	-452.839964	24.041	
O	 0.0294560013	 0.0537223564	 0.003287563	-0.290106
C	-0.0374814638	 1.2383020561	 0.0105622784	 0.406438
C	-1.302472705	 2.126257569	 0.0330562884	-0.328071
N	-0.7082954483	 3.4358289354	 0.0317897189	-0.051287
C	-1.0076633834	 4.7922175189	 0.0429806044	-0.152437
C	 0.2158188796	 5.4080208856	 0.0292739395	-0.086538
N	 1.2652545632	 4.48924304	 0.0093679022	-0.374029
C	 0.6429951441	 3.3557688482	 0.0122740233	 0.496227
O	 1.0797637027	 2.0596633295	-0.0007999149	-0.227554
H	-1.9155970758	 1.9179349337	-0.849514023	 0.171459
H	-1.890683467	 1.9083315112	 0.9301428817	 0.171454
H	-2.0166352759	 5.165778007	 0.0591348372	 0.14134
H	 0.4177907483	 6.4675181991	 0.0321710009	 0.123105
