16
gdb 43245	3.62483	1.76496	1.43364	4.7887	74.8	-0.232	-0.0596	0.1724	895.0738	0.126398	-400.69644	-400.690121	-400.689177	-400.726973	25.943	
O	-0.1124420739	 0.1609607653	 0.5991390986	-0.314516
C	-0.0846395282	 1.2199592043	 0.0365766292	 0.364323
C	-1.2510182495	 2.1106441465	-0.3096743333	-0.275946
C	-0.7485224216	 3.2352467712	-0.8354777073	 0.164982
C	-0.6017009718	 4.6632018103	-0.3399343574	-0.302943
C	 0.9111258343	 4.240402697	-0.1029075278	-0.05247
C	 1.2604069065	 3.0904596098	 0.900753376	-0.197491
N	 1.1437163056	 1.9981097059	-0.1831482476	-0.181196
C	 0.7315200277	 3.0832301424	-1.107123798	-0.024712
H	-2.2151002038	 1.9524806638	 0.1556342002	 0.12244
H	-0.6273147723	 5.4399313079	-1.1110307086	 0.12791
H	-1.2345610119	 4.9566799717	 0.5001757879	 0.123637
H	 1.6570189157	 5.0285044996	-0.2051430652	 0.093809
H	 2.2897661373	 3.1472243133	 1.2575288641	 0.133399
H	 0.5942624791	 2.944250254	 1.7555777358	 0.125418
H	 1.1130983766	 3.065575217	-2.1286378265	 0.093355
