21
gdb 118732	3.47684	0.8173	0.76942	3.3057	79.23	-0.2398	-0.0178	0.2221	1538.0835	0.179699	-424.233102	-424.223084	-424.22214	-424.268637	36.971	
C	-0.0777864011	 1.7087750569	 0.111963965	-0.450075
C	 0.0007070548	 0.1815624634	 0.0216358	 0.323001
C	-1.3572135993	-0.4727532168	-0.2458837943	-0.240265
C	-2.0241787908	-0.0622023106	-1.5550461268	-0.084005
O	-3.1827207662	-0.8687549386	-1.709288852	-0.417339
C	 1.1719890483	-0.2886659625	-0.9163091664	-0.388795
C	 1.9848513251	-0.6207615785	 0.3422845822	 0.410365
O	 3.1376192601	-0.8716751092	 0.5424207921	-0.291758
C	 0.7652407038	-0.4239599474	 1.2521852083	-0.395412
H	 0.8958481179	 2.13676217	 0.3753140181	 0.118589
H	-0.3834500616	 2.1576845335	-0.8384272721	 0.119767
H	-0.7958637121	 2.0201550264	 0.8787417184	 0.119084
H	-1.238380009	-1.5632909164	-0.2662258688	 0.103479
H	-2.043987586	-0.2513667558	 0.5809268528	 0.10606
H	-2.2880118164	 1.0059978362	-1.5342193109	 0.089116
H	-1.322891181	-0.2081805259	-2.3936012807	 0.087616
H	-3.6373056449	-0.5933042638	-2.5105630234	 0.286542
H	 0.9369054349	-1.1933177357	-1.4885095964	 0.127912
H	 1.6128574697	 0.4465597049	-1.5953168891	 0.123869
H	 0.9112026205	 0.218124328	 2.1253325293	 0.124594
H	 0.3571378835	-1.3830984182	 1.5900065047	 0.127656
