15
gdb 48025	5.49289	0.67281	0.63831	2.2809	73.42	-0.2731	-0.0688	0.2043	1669.1047	0.111746	-457.726255	-457.717604	-457.71666	-457.761698	28.91	
O	-0.0833978737	-0.0696424293	 0.1687990265	-0.225894
C	-0.0146126123	 1.1372147485	 0.1370946456	 0.022312
C	 1.2179892348	 1.8802679279	 0.0667784915	-0.01034
C	 2.2318135836	 2.5349596349	 0.0112071642	 0.158464
C	 3.4745871976	 3.2921899144	-0.0545014466	-0.08935
C	 4.2442532787	 3.0799113203	-1.3993570981	-0.1271
O	 4.6965545971	 4.3806745518	-1.7185253452	-0.222868
C	 3.6798711481	 5.2278874489	-1.2521642103	 0.019851
O	 3.2644846577	 4.7052443837	-0.0031810619	-0.24435
H	-0.9227708729	 1.7727728818	 0.1605963069	 0.105793
H	 4.1028325268	 3.0186708112	 0.8017797763	 0.131232
H	 5.1052157937	 2.4185288141	-1.2966049405	 0.137542
H	 3.5677109891	 2.6873480216	-2.1704811403	 0.11812
H	 4.0850563535	 6.231641792	-1.1042361675	 0.131477
H	 2.8313955982	 5.251507198	-1.9588432906	 0.09511
