14
gdb 133570	3.16163	1.27514	1.26851	2.9685	53.96	-0.2532	0.065	0.3182	1000.7507	0.097635	-568.140969	-568.133631	-568.132687	-568.173808	27.295	
F	-0.3130701728	 0.232322305	-0.5441376839	-0.070616
C	-0.0009368146	 1.4234038545	-0.0211743821	 0.281684
F	 1.3081317925	 1.3999431043	 0.2792084013	-0.077182
F	-0.1640937608	 2.3394470379	-0.9945810094	-0.082962
C	-0.8115501744	 1.7984931229	 1.1898100183	-0.203333
C	-2.2657931591	 1.4723214467	 1.4596106704	-0.165926
C	-2.57214878	 0.0032316552	 1.1692806538	-0.09193
O	-1.4279504591	-0.4326998903	 1.9557933117	-0.276449
C	-1.1658119846	 0.9091369118	 2.3422390321	 0.084382
H	-0.5556730073	 2.8060131673	 1.5087217038	 0.126395
H	-2.9993016328	 2.2460331706	 1.6394018322	 0.11276
H	-3.5004680797	-0.3249327683	 1.6479876711	 0.117086
H	-2.5318097713	-0.3485973721	 0.1367022328	 0.127909
H	-0.862569906	 1.0948010343	 3.3662461179	 0.118183
