16
gdb 51479	3.93485	1.07024	1.06165	3.6648	66.43	-0.2388	0.0273	0.2661	1163.8422	0.125017	-475.009092	-475.001311	-475.000367	-475.042732	28.254	
O	-0.0658632822	 0.1154901465	-0.5847186363	-0.324173
C	 0.0286136273	 1.2461812796	-0.1581977095	 0.158944
N	 1.196143267	 1.8530264191	 0.1847736828	-0.271562
C	 2.4546614957	 1.2020204905	 0.079272587	-0.011576
C	 3.5113741629	 1.6588067222	-0.921780113	 0.033104
O	 3.2793659008	 2.9025650814	-1.5394720433	-0.245023
C	 3.7318697599	 3.8730100914	-0.6166332459	 0.015101
O	 3.4979019276	 3.3400398093	 0.681996188	-0.264571
C	 3.685409426	 1.9447362091	 0.5440013119	-0.024222
H	-0.8417646143	 1.909764469	 0.0126373407	 0.076536
H	 1.1929049461	 2.7963810503	 0.5406727242	 0.259736
H	 2.4073449871	 0.1337872213	 0.2620724284	 0.134239
H	 4.1000965647	 0.9506228034	-1.4937896783	 0.117373
H	 4.8073462044	 4.0719325421	-0.7549663784	 0.102632
H	 3.1483422964	 4.7891669574	-0.7372759252	 0.127263
H	 4.4312016405	 1.5081013775	 1.199060747	 0.116198
