16
gdb 13340	5.95959	1.1543	1.0207	3.8466	67.55	-0.2388	-0.0188	0.22	1111.3416	0.129523	-383.748174	-383.740397	-383.739453	-383.781572	27.21	
O	-0.1003322155	-0.0202404548	-0.0046495398	-0.242117
C	-0.0037240727	 1.1789856847	-0.0745953905	 0.154067
C	 1.3119979944	 1.927905796	-0.1109669388	-0.282579
C	 1.4172460601	 2.8597710827	-1.3364837122	 0.073094
O	 0.3494993583	 3.8117268442	-1.3180559223	-0.277851
C	 0.8637152825	 5.1425036982	-1.3597908609	-0.116366
C	 2.357263327	 4.982348813	-1.3662804655	-0.093824
C	 2.6712520452	 3.6927522622	-1.361715032	-0.091064
H	-0.9022638692	 1.8300079468	-0.1209735773	 0.096419
H	 1.3820112351	 2.5487156081	 0.7919528564	 0.120714
H	 2.1292183446	 1.2003093647	-0.1058904814	 0.115904
H	 1.3299735995	 2.2450250384	-2.2477782552	 0.096683
H	 0.4942016671	 5.6581183051	-2.2600931773	 0.111533
H	 0.4998110104	 5.7102514285	-0.4898512718	 0.110638
H	 3.0424791044	 5.8201512495	-1.3832297501	 0.112573
H	 3.6627281488	 3.2588688826	-1.3736870213	 0.112176
