18
gdb 11305	3.71112	1.47058	1.38529	3.1893	68.03	-0.2389	-0.0226	0.2162	985.0686	0.153266	-384.956558	-384.948399	-384.947455	-384.989804	29.233	
C	-0.2780239164	 1.3075856168	-0.0534216158	-0.417547
C	 0.1305566192	-0.1562696217	 0.0889300277	 0.013825
C	 0.9369206625	-0.7045679733	-1.1003952304	-0.063946
O	 1.7957820384	-1.7294775099	-0.5939361066	-0.252548
C	 1.7111322499	-1.7901186163	 0.8122999045	 0.022952
C	 1.0770784157	-0.4574389509	 1.2654556252	-0.262396
C	 0.8526326214	-2.9583890807	 1.2849988014	 0.153059
O	 0.089225888	-3.5750772339	 0.5915163607	-0.239899
H	 0.6018268888	 1.9530573245	-0.1554231477	 0.117872
H	-0.9070371024	 1.4581135336	-0.9370508418	 0.122578
H	-0.8463870493	 1.6485186259	 0.8176095721	 0.119918
H	-0.7685961068	-0.7722626329	 0.2062891009	 0.098159
H	 0.2975635756	-1.1302927033	-1.8807079607	 0.113992
H	 1.5551794642	 0.0843129766	-1.5543368913	 0.091559
H	 2.7188240988	-1.928006995	 1.228964151	 0.093291
H	 1.8525789437	 0.3115649205	 1.3476316876	 0.1108
H	 0.5645504726	-0.5241123288	 2.229511621	 0.110455
H	 0.969644846	-3.1848991014	 2.3728929325	 0.067875
