16
gdb 34897	2.02062	1.89472	1.21337	1.1926	79.35	-0.2408	0.0193	0.2602	1044.7668	0.122543	-363.488187	-363.479903	-363.478959	-363.520988	31.752	
C	-0.2442474999	-1.2724780039	 0.036966848	-0.446151
C	-0.1404231543	-0.0747202751	 0.0444654709	 0.34288
C	-0.000889302	 1.3657656733	 0.0607399136	-0.235264
C	-0.2196092888	 2.1094522499	 1.3838665384	-0.030581
C	 0.8328547133	 1.7980467796	 2.3642278247	-0.244039
N	 1.1242298256	 2.8094825752	 1.3281568211	-0.129829
C	 1.4391162802	 2.0359776766	 0.0622978276	-0.201973
C	 2.6135214581	 1.1927472006	 0.092354461	 0.392563
C	 3.5859753281	 0.4863835612	 0.119106925	-0.456234
H	-0.3373344939	-2.3302553254	 0.0301330125	 0.198425
H	-0.5921526517	 1.8093907369	-0.7445448994	 0.117151
H	-1.1302398665	 2.6416337121	 1.6362873553	 0.105816
H	 0.739063291	 2.2369121063	 3.352146463	 0.127045
H	 1.3476269548	 0.8419475102	 2.3306991442	 0.139225
H	 1.515392556	 2.7552433602	-0.7563898224	 0.118148
H	 4.4485525101	-0.1329997077	 0.1386118067	 0.20282
