18
gdb 51818	3.98361	0.93859	0.79695	1.076	73.35	-0.2498	-0.0326	0.2172	1381.0992	0.148062	-439.105061	-439.096506	-439.095562	-439.139643	30.47	
O	-0.6769412422	 0.8007183142	 0.6419519281	-0.236375
C	 0.1118507145	 0.9438105236	-0.2557534269	 0.157244
C	 1.3413617534	 1.823932535	-0.1997652386	-0.293495
C	 1.2928416286	 2.9477464715	-1.2502207714	-0.051093
C	 0.2270256729	 3.9918378931	-0.9153661398	-0.073089
O	 0.2135347327	 5.0494126911	-1.8820357523	-0.223037
C	 1.4255146033	 5.4273525004	-2.3567665272	 0.129414
N	 2.5604027516	 4.9015662304	-2.1754969684	-0.271392
C	 2.6374747862	 3.6771935315	-1.3863744927	-0.165345
H	-0.0314080155	 0.4244725362	-1.2330477938	 0.077268
H	 1.4410551386	 2.2285730882	 0.8125283508	 0.124102
H	 2.2161399994	 1.1910869303	-0.4055973018	 0.123859
H	 1.0403627434	 2.5128162538	-2.2272331626	 0.096327
H	-0.7831949138	 3.5754439185	-0.9131703744	 0.131066
H	 0.4184858599	 4.4239492233	 0.0765284863	 0.118768
H	 1.3153689886	 6.3147909419	-2.9772202617	 0.127513
H	 3.0365987779	 3.9229857171	-0.392020942	 0.114253
H	 3.3777825804	 3.0181466101	-1.8549976017	 0.114013
