17
gdb 73748	2.64972	1.50668	1.12118	1.8667	84.73	-0.2168	-0.028	0.1888	1111.207	0.135	-384.622249	-384.614178	-384.613233	-384.654746	31.142	
C	-0.0227813192	 1.4739148993	 0.0961085939	-0.526113
C	 0.0139737911	-0.007850433	 0.0176447218	 0.218489
C	 0.0081557396	-0.8548452672	-1.0322440547	 0.182342
C	-0.0403459501	-0.6286127656	-2.4152717265	 0.098493
C	-0.0839622817	-0.4689882059	-3.6107005926	-0.380591
C	 0.066652885	-2.2258809383	-0.3062540972	-0.050959
C	-1.0202290957	-2.0411395329	 0.7907497547	-0.223386
C	 0.0706647537	-1.0038815015	 1.1937789774	-0.025173
O	 1.0720849174	-1.966038499	 0.7234604941	-0.280379
H	 0.8637267413	 1.864447634	 0.6122122769	 0.139058
H	-0.06517136	 1.9188638502	-0.9011605469	 0.143467
H	-0.8939054712	 1.8226477301	 0.6659252502	 0.133188
H	-0.1182073598	-0.319323483	-4.6611042928	 0.183708
H	 0.2194490743	-3.1334511456	-0.8871056973	 0.089961
H	-2.0100587544	-1.6843443488	 0.4987910835	 0.103094
H	-1.0700520909	-2.8856046673	 1.4819073497	 0.111404
H	 0.2271165104	-0.6370475455	 2.2077155659	 0.083399
