17
gdb 30444	2.69435	1.47817	0.96089	4.2068	85.93	-0.1839	-0.0221	0.1618	1196.4412	0.136306	-418.045024	-418.036438	-418.035494	-418.078259	32.23	
C	-0.1174829539	 1.4584437475	 0.0166850463	-0.315684
N	-0.0045071963	 0.0136189084	-0.0134375731	-0.323175
C	-1.0559425013	-0.6939170319	 0.0076710909	 0.404622
O	-2.3191736854	-0.0501838647	 0.0536995081	-0.279073
C	-3.4795979294	-0.7322409659	 0.0840982476	 0.449282
N	-4.5486919493	 0.1225637436	 0.2008612035	-0.563224
C	-3.5242156804	-2.0904732788	 0.054746077	-0.285313
C	-2.2814465836	-2.7920696414	 0.0067006837	-0.045988
C	-1.0976367638	-2.1333187109	-0.0153479576	-0.213836
H	 0.8841770439	 1.8955058946	 0.0014173721	 0.115308
H	-0.6738012125	 1.8521032527	-0.8467108112	 0.106918
H	-0.6344614832	 1.8189260805	 0.9177172321	 0.112059
H	-4.376429349	 1.0612560871	-0.1277547672	 0.264721
H	-5.4438953995	-0.2531484064	-0.0698745933	 0.264295
H	-4.4741931396	-2.6060878716	 0.0783677849	 0.090447
H	-2.2962905131	-3.8770582326	-0.0140200729	 0.105403
H	-0.1419773936	-2.6373802002	-0.0529381912	 0.113239
