17
gdb 40418	4.22997	1.25718	1.12381	1.2335	71.68	-0.2429	0.0164	0.2593	1088.4094	0.137962	-417.970392	-417.963161	-417.962217	-418.002386	28.187	
C	 0.4661525318	 1.5136446699	 0.2086725901	-0.225493
N	 1.1777955705	 0.319994805	-0.2802725749	-0.323163
C	-0.2405773515	 0.2127845667	 0.0957232614	-0.13712
C	-0.544531344	-0.629586732	 1.289825296	 0.37597
C	 0.5141372227	-0.9851531357	 2.3134946597	-0.36446
C	-0.1203936232	-2.0787428586	 1.5068511886	 0.018261
O	-1.2525588775	-2.7174550354	 2.0838743793	-0.212711
C	-2.1772321975	-1.7317126119	 2.2197862679	 0.090048
N	-1.902346398	-0.5630318708	 1.7995025531	-0.313638
H	 0.7860530981	 1.8611137848	 1.1865561062	 0.123784
H	 0.2124629513	 2.2987645677	-0.4978248213	 0.115637
H	 1.2678774774	 0.3531327587	-1.2915174623	 0.23632
H	-0.9729245922	 0.1237898212	-0.704275567	 0.089312
H	 1.5319987865	-0.7433839966	 2.0298129195	 0.146849
H	 0.2666981463	-0.8920091048	 3.3656664934	 0.118856
H	 0.4320404146	-2.7154704514	 0.8290881417	 0.118851
H	-3.1042389152	-2.0399954669	 2.6875069085	 0.142697
