16
gdb 29402	5.09104	0.8481	0.78783	2.5642	73.32	-0.2383	-0.0343	0.2039	1440.0464	0.123037	-437.936179	-437.927456	-437.926511	-437.971454	30.16	
C	 0.1164102697	 1.5147401984	 0.1601748464	-0.491603
C	 0.0131144843	 0.0338145963	 0.0240875939	 0.248676
C	-0.188213506	-0.7259715239	-1.0795065554	-0.119177
O	-0.2053279267	-2.0425470592	-0.7028262499	-0.168187
C	-0.0024333123	-2.012103927	 0.6381102563	 0.353975
C	-0.0099670627	-3.3113289887	 1.3647316669	-0.373769
C	-1.4263422044	-3.8441032276	 1.5795649534	 0.1574
O	-1.7521135543	-4.9835294494	 1.3881479725	-0.225334
N	 0.1280030489	-0.8181660818	 1.1234303888	-0.338629
H	 1.087367052	 1.8010600614	 0.5775477616	 0.141816
H	-0.001269441	 2.0077013144	-0.8080683263	 0.126314
H	-0.6527771098	 1.8984133618	 0.8384721515	 0.141308
H	-0.3235646343	-0.5238681551	-2.1279956852	 0.146413
H	 0.5720648033	-4.0748138763	 0.8430946986	 0.145837
H	 0.4295275887	-3.1353487053	 2.3530089281	 0.15959
H	-2.1461449453	-3.0808588582	 1.9495462387	 0.095369
