21
gdb 114803	2.50492	1.24803	1.11439	1.8096	78.1	-0.2389	0.0702	0.309	1217.9391	0.181648	-424.186721	-424.177457	-424.176513	-424.221268	34.572	
C	 0.1216890844	 1.5858009593	 0.0986793788	-0.502682
C	 0.0129906955	 0.0792545998	 0.031184428	 0.268952
C	-1.3951525929	-0.5522713966	 0.0298133268	-0.124115
O	-1.0331281082	-1.5012332358	 1.0563921004	-0.295461
C	 0.2756968961	-0.9096687815	 1.2115868402	 0.07687
C	 1.3591802789	-1.6463587721	 0.3996870338	-0.248449
C	 1.0886408277	-0.6925357493	-0.8071993373	-0.017143
C	 0.6894538232	-1.3230759688	-2.1275156859	-0.106023
O	 1.8544700189	-1.9280590756	-2.6731935233	-0.422507
H	 1.1412159609	 1.9006583387	 0.3462545693	 0.119568
H	-0.1371006002	 2.0433051845	-0.8643971792	 0.119768
H	-0.5524827558	 2.0016759872	 0.8554598974	 0.119231
H	-2.1796732526	 0.1337861005	 0.3796756601	 0.092747
H	-1.7459287131	-1.0397985094	-0.8877271416	 0.097058
H	 0.4807978815	-0.6176392233	 2.246013223	 0.069265
H	 2.367934438	-1.5620715902	 0.8113509934	 0.100977
H	 1.1330615256	-2.7016647537	 0.2300068433	 0.110341
H	 1.9489573389	-0.0444162367	-1.0013599731	 0.081033
H	-0.10150091	-2.0718342231	-1.9685923585	 0.092818
H	 0.2843470306	-0.5526517576	-2.8059475214	 0.081342
H	 1.5973480228	-2.4271449263	-3.4538899941	 0.286411
