18
gdb 10401	2.89334	1.69871	1.38522	3.715	63.43	-0.247	0.0485	0.2955	954.4001	0.153298	-422.039749	-422.031138	-422.030193	-422.074042	30.801	
O	-0.0022154955	 1.462535549	-0.0062511046	-0.426505
C	 0.0363328783	 0.0421549424	 0.1477081256	-0.154108
C	-1.384134071	-0.4967793738	 0.0564544975	 0.255028
C	-2.303435063	 0.0952560715	 1.129628823	-0.11949
O	-2.6292952643	 1.448786485	 0.8903848287	-0.428685
C	-1.9942623432	-0.5070013228	-1.3655054655	-0.106039
O	-2.0153685938	-1.9525208621	-1.3954020033	-0.272595
C	-1.4434158411	-2.0381142945	-0.078618422	-0.129124
H	 0.8812389961	 1.8161233201	 0.131697004	 0.297821
H	 0.6599109332	-0.4119844514	-0.6366844439	 0.101159
H	 0.4692861246	-0.2322172385	 1.1228905619	 0.095995
H	-3.2515928279	-0.4543353756	 1.1373112967	 0.106366
H	-1.8398980602	-0.0460839788	 2.1228527027	 0.077278
H	-1.7935527132	 1.9019330862	 0.7163897702	 0.291772
H	-2.9968420627	-0.0726362436	-1.4404198822	 0.116678
H	-1.3609424276	-0.0875617527	-2.1564951519	 0.101237
H	-0.4727750253	-2.553278814	-0.0813074259	 0.092768
H	-2.1073268135	-2.5463531863	 0.633120209	 0.100443
