22
gdb 116782	4.22878	0.68385	0.63029	2.6242	87.7	-0.2421	0.0284	0.2705	1875.3198	0.19189	-404.331681	-404.321255	-404.32031	-404.368273	37.394	
C	 0.5529447986	-0.1038730431	-0.3656064064	-0.39592
C	-0.5775043206	 0.498521163	 0.4757908874	-0.109585
N	-1.9552837361	 0.2154008186	 0.1107665446	-0.227095
C	-2.2198877386	-0.5176745179	-0.8735252306	 0.123718
O	-3.5152306747	-0.7712224977	-1.1923999157	-0.208786
C	-3.7167057943	-1.5464658063	-2.3476273627	 0.101436
C	-3.5249684552	-3.0412568369	-2.2741297015	-0.322368
C	-4.9170863606	-2.4444831609	-2.3519049522	-0.022481
C	-5.8477442246	-2.5054352507	-1.160979837	-0.399704
H	 1.5188513897	 0.2088976905	 0.0424010782	 0.114998
H	 0.5292037041	-1.1989273511	-0.3586758802	 0.118624
H	 0.5094182376	 0.2307424293	-1.4076897017	 0.118438
H	-0.4542925831	 0.1858908654	 1.5214541399	 0.112067
H	-0.4711409254	 1.5915271184	 0.4917938593	 0.112592
H	-1.5021610702	-1.0074199546	-1.5415908515	 0.082189
H	-3.4508909854	-1.0294576798	-3.2673083545	 0.098333
H	-3.1133755653	-3.5578867952	-3.1342796663	 0.11472
H	-3.2198887953	-3.4422439419	-1.3129964326	 0.123644
H	-5.4100583389	-2.5307550776	-3.3166022351	 0.090281
H	-5.303268995	-2.3488184571	-0.2272345066	 0.136247
H	-6.6194160916	-1.7314050672	-1.2266291458	 0.123102
H	-6.3480953851	-3.4780652069	-1.1106331089	 0.11555
