20
gdb 105818	2.39381	1.53644	1.22391	2.5295	78.93	-0.2182	0.0656	0.2838	1124.8437	0.169545	-403.035007	-403.026128	-403.025184	-403.068494	33.666	
C	 0.711409879	 1.2944718807	-0.7546671372	-0.255721
O	 0.1421024165	 0.0803288436	-0.2900867321	-0.271404
C	 0.665140133	-0.3361831745	 0.9134952715	 0.398966
C	 1.9762495602	-1.0563099869	 1.0588097577	-0.077958
C	 3.2613922933	-0.6773068513	 1.7904273458	-0.444298
C	 0.6642459333	-1.7174970078	 1.5025814214	-0.142584
N	-0.0603657891	-1.2724382176	 2.7573130182	-0.131534
C	 0.7201423766	-0.2585622803	 3.491522051	-0.253109
C	 0.0287608868	 0.1403945514	 2.2447554206	-0.11576
H	 1.7912086527	 1.1889669205	-0.9290277538	 0.110896
H	 0.216383585	 1.5387750052	-1.6969270987	 0.129573
H	 0.5511114501	 2.1172418691	-0.043523088	 0.112636
H	 2.1876853292	-1.5124491483	 0.0905987145	 0.104294
H	 3.521211512	-1.3965622657	 2.5742815786	 0.130648
H	 4.0930337976	-0.6636131706	 1.0789258016	 0.115149
H	 3.2113075085	 0.3165000535	 2.2420133421	 0.129133
H	 0.3536853174	-2.6676292577	 1.0868333544	 0.110141
H	 0.2296643041	 0.0257313084	 4.419990856	 0.121492
H	 1.7934852056	-0.3374985076	 3.5664431136	 0.125057
H	-0.8557662819	 0.769909326	 2.2363001827	 0.104384
