18
gdb 71160	2.65452	1.87476	1.46031	1.4166	74.72	-0.2336	0.0756	0.3092	952.0404	0.147298	-401.854707	-401.847214	-401.846269	-401.886256	29.892	
C	 0.0438603073	 1.5721173995	 0.0075676068	-0.517018
C	 0.0220936578	 0.0713695282	 0.0654906598	 0.172691
C	-1.2458129102	-0.7973913904	-0.0392543982	-0.185078
N	-0.5554525531	-1.8943423703	 0.7273947126	-0.153994
C	 0.8662812343	-1.8737218812	 0.235658958	-0.154819
C	 0.4085724362	-0.9035880862	 1.2661195878	-0.09532
C	 1.0011994152	-0.7665315302	-0.7794741666	 0.486842
C	 1.3859353644	-0.709938991	-2.1859855377	-0.293605
O	 2.2733949703	-0.2620070866	-1.1352061521	-0.296758
H	 1.0672210991	 1.9490941169	 0.0957192314	 0.140121
H	-0.3608017218	 1.9274097155	-0.947643828	 0.122179
H	-0.5612229527	 2.0112732379	 0.8070536983	 0.12196
H	-2.0803054526	-0.4329999164	 0.5660384386	 0.108871
H	-1.6014298521	-1.0739582505	-1.0394540031	 0.097102
H	 1.4416935534	-2.7834601	 0.340998069	 0.107129
H	 0.6489116167	-0.7749296091	 2.3130761598	 0.103638
H	 1.7038870364	-1.6137966783	-2.7035892396	 0.12031
H	 0.9995657514	 0.0802287422	-2.828771437	 0.11575
