16
gdb 102346	1.73962	1.58936	1.19464	3.8128	71.4	-0.2785	-0.0128	0.2658	1132.7616	0.120247	-437.828187	-437.818059	-437.817115	-437.863259	35.577	
C	-0.1270560683	 1.4019244745	 0.0796642624	-0.257438
O	 0.0215429077	-0.0112057302	 0.0370800976	-0.251163
C	 0.6561361862	-0.5283337801	-1.1163306092	-0.001778
C	-0.048038515	-0.1117219376	-2.4539108145	-0.098403
O	-1.4312452447	-0.3208927899	-2.4174302791	-0.412034
C	 2.0785710424	-0.161161753	-1.1975400945	 0.343016
C	 3.2238822562	 0.1873940694	-1.2924234035	-0.446395
C	 0.5179472704	-1.9994778142	-0.9973988879	 0.279303
N	 0.3638137974	-3.1437640038	-0.9819998238	-0.334917
H	 0.8246439696	 1.9145085089	-0.1083852775	 0.123336
H	-0.8852189046	 1.7484926055	-0.6316284504	 0.136727
H	-0.4598315958	 1.6321384381	 1.093224168	 0.142627
H	 0.1121663886	 0.95853057	-2.6026016839	 0.13243
H	 0.4538286062	-0.6444659946	-3.273148149	 0.12541
H	-1.6008572419	-1.2675591515	-2.3424102312	 0.303888
H	 4.2439137158	 0.4778019585	-1.3632056136	 0.215391
