16
gdb 32384	6.74471	0.85534	0.76417	2.2688	86.21	-0.1935	-0.0143	0.1791	1445.92	0.123738	-400.734437	-400.725832	-400.724888	-400.767658	32.089	
C	 0.0659737837	 1.455297382	-0.0061792236	-0.328919
N	-0.1422286236	 0.0201218252	 0.0604140408	-0.392521
C	 0.5530325429	-0.6860020091	 1.0354465754	 0.312811
C	 1.2211867376	-0.1959242438	 2.1273251479	-0.122151
O	 1.7170662537	-1.2178457455	 2.8845302576	-0.18644
C	 1.3751875162	-2.3803042899	 2.2605364745	 0.264847
C	 0.6591676505	-2.1103224331	 1.1256047477	-0.425201
C	 1.782875663	-3.5920666949	 2.8456120269	 0.249134
C	 2.126377865	-4.6374517906	 3.3361808532	-0.416494
H	 1.124679287	 1.741376896	-0.1179378103	 0.112238
H	-0.4986736028	 1.8631934785	-0.8473592596	 0.125826
H	-0.31338645	 1.9239475786	 0.9088478535	 0.134616
H	-0.1173380649	-0.4308596634	-0.8425716383	 0.237051
H	 1.4119546958	 0.7959508073	 2.4973141816	 0.128764
H	 0.2530429286	-2.8405938294	 0.4434066366	 0.113414
H	 2.4288954272	-5.557836648	 3.7703684561	 0.193025
