17
gdb 37942	2.79943	2.05306	1.46243	2.5663	72.37	-0.2288	-0.0064	0.2224	905.2269	0.137867	-421.767034	-421.760413	-421.759468	-421.797805	27.054	
C	-0.0810177642	 1.4895930185	-0.0200068942	-0.146728
O	 1.207473366	 2.0825031351	-0.0403935239	-0.237235
C	 1.8787791838	 2.0380211875	-1.2553961296	 0.087128
C	 3.1557762454	 1.2720745746	-1.3876564578	 0.061821
O	 3.1547774682	 0.123875399	-0.5508263074	-0.293872
C	 2.0085338416	-0.4334018478	-1.2864072009	 0.089366
C	 0.8333293202	-0.8460249068	-0.4510075562	-0.066815
C	-0.0746994218	-0.0181191944	 0.0668026308	-0.047723
C	 1.9112682559	 0.8257491051	-2.1514202422	-0.243615
H	-0.5740918091	 1.8940383201	 0.8704091167	 0.118185
H	-0.6766536659	 1.8178122854	-0.8878596599	 0.107307
H	 1.8624038319	 2.9768718231	-1.8121570314	 0.092606
H	 4.1126997357	 1.6780539395	-1.6951301687	 0.104402
H	 2.3745618105	-1.2849891324	-1.8703677728	 0.085164
H	 0.7214901152	-1.9132091055	-0.2761370416	 0.09284
H	-0.9059061052	-0.4430123273	 0.627326232	 0.096887
H	 1.6492908818	 0.8448988163	-3.2011075429	 0.100283
