18
gdb 85394	1.93286	1.70842	0.97587	3.6181	73.61	-0.2371	-0.039	0.1981	1197.1777	0.146493	-439.117754	-439.109189	-439.108245	-439.151313	31.908	
C	-0.1884665819	 1.4065682594	 0.0177136863	-0.31921
N	-0.0223574448	-0.037583529	 0.0026085553	-0.089362
C	 0.5744353626	-0.5140388548	-1.2360914554	-0.25338
C	 0.6315546282	-2.0402089896	-1.2936399084	 0.363159
O	 1.0265574726	-2.6294608527	-2.2673592652	-0.292804
C	 0.1732910487	-2.7382494074	-0.020025556	-0.394155
C	 0.7542428451	-2.0522752111	 1.2093467313	 0.363189
O	 1.2419457593	-2.6507160847	 2.1342153251	-0.292804
C	 0.6927232226	-0.5256448295	 1.1722268629	-0.253387
H	 0.771642948	 1.9536733394	-0.0268141741	 0.102371
H	-0.7952957534	 1.7170456185	-0.8383495006	 0.126085
H	-0.7083407357	 1.7085293954	 0.9320608964	 0.126085
H	-0.020260519	-0.1675397337	-2.0881399843	 0.14053
H	 1.6050901573	-0.1383384105	-1.3996932651	 0.114747
H	-0.9171811926	-2.6048333118	 0.0340904655	 0.159348
H	 0.4152366369	-3.8003356559	-0.036994978	 0.144313
H	 1.7347060495	-0.151229508	 1.2375113861	 0.114744
H	 0.1847032265	-0.1874508439	 2.0817551183	 0.140532
