16
gdb 74050	2.9918	1.35838	0.94507	7.2393	75.62	-0.2365	-0.0718	0.1647	1191.1215	0.124641	-437.949779	-437.941387	-437.940442	-437.983257	30.44	
C	 0.0750111818	 1.5232339472	 0.0503061702	-0.473472
C	-0.0248862368	 0.0266784214	-0.0200067679	 0.286937
C	-0.0459761032	-0.6502386543	-1.1780245954	-0.244292
C	-0.1430635543	-2.1123378317	-1.2531600911	 0.279495
O	-0.1612904193	-2.7175603824	-2.3012486098	-0.301143
C	-0.2242549228	-2.8894893612	 0.0771683459	 0.308178
O	-0.3065722185	-4.097003461	 0.1129136713	-0.340745
N	-0.1965214692	-2.116593631	 1.2067330165	-0.347224
C	-0.1010117047	-0.6777484282	 1.3008830235	-0.229199
H	 0.966429682	 1.8321590851	 0.609840369	 0.141525
H	 0.1253688924	 1.9645147472	-0.9467048643	 0.143788
H	-0.7885982747	 1.95114507	 0.5739446302	 0.141479
H	 0.0092619403	-0.1345093516	-2.1325742757	 0.112799
H	-0.2506479897	-2.6427477866	 2.0679743748	 0.253232
H	 0.7834925805	-0.3965831485	 1.8949496284	 0.134318
H	-0.9641990039	-0.2781451442	 1.8572750343	 0.134326
