18
gdb 64937	4.36306	0.69926	0.6585	1.5337	85.13	-0.2372	0.0243	0.2615	1727.6252	0.146648	-401.869502	-401.86026	-401.859316	-401.905171	33.763	
O	 0.3959562229	 1.224137877	 0.4125843411	-0.442972
C	 0.0527194247	-0.0984653834	 0.0830157315	 0.226237
C	-0.808710814	-0.8603481634	 1.0808715357	-0.312417
C	-1.419394309	-0.2927106688	-0.1746823886	-0.287713
C	 1.0225468918	-0.8208628088	-0.6970359363	 0.086984
C	 1.8739676618	-1.4019964538	-1.3263378306	 0.029309
C	 2.8516288638	-2.1117107694	-2.0994086465	-0.163077
C	 4.2818010588	-2.1190137574	-1.6625865701	-0.224946
N	 3.4846563508	-3.3424555072	-1.5571504134	-0.305445
H	 1.2115868494	 1.1932079627	 0.9252943477	 0.283251
H	-0.6772683181	-1.9331887486	 1.1583224619	 0.122865
H	-1.0093426423	-0.3429300275	 2.0120925924	 0.122499
H	-2.0242521411	 0.6015230638	-0.0796227813	 0.132488
H	-1.7094849122	-0.9711085835	-0.9673323419	 0.129209
H	 2.6499929946	-2.1772986025	-3.1656362228	 0.117589
H	 5.0617948169	-2.1415098453	-2.4182278121	 0.126621
H	 4.5292031535	-1.5688874458	-0.7596907426	 0.120966
H	 3.1773949877	-3.4668490279	-0.5952308643	 0.238551
