16
gdb 411	5.32426	2.84956	2.38565	1.3206	56.77	-0.2616	0.0757	0.3373	610.3779	0.142009	-271.618137	-271.611049	-271.610104	-271.648484	25.913	
C	-0.0493635278	 1.5432926295	 0.1109170025	-0.458805
C	-0.021234465	 0.029922541	 0.0244263538	 0.393739
C	-1.2965137094	-0.5949261027	-0.4903156421	-0.139633
O	-1.515754103	-0.1473057753	-1.823412801	-0.423096
C	 1.275310002	-0.6507908794	-0.3401527644	-0.284829
C	 0.7431839177	-0.7459133678	 1.0700841945	-0.314781
H	 0.9079903468	 1.9377479859	 0.4649548081	 0.107002
H	-0.2595515831	 1.9793390988	-0.8697821361	 0.134095
H	-0.827830409	 1.8842441046	 0.8046548735	 0.106916
H	-1.2131481839	-1.6930508905	-0.451368996	 0.077294
H	-2.1371962986	-0.3054662026	 0.1619011517	 0.081893
H	-2.3975972506	-0.4223403171	-2.0901643726	 0.28539
H	 1.2300390474	-1.5359208161	-0.9654874168	 0.111882
H	 2.1443094635	-0.0265813322	-0.5183197355	 0.1086
H	 1.2463241028	-0.1815609732	 1.8480908539	 0.108422
H	 0.3455670102	-1.6994352028	 1.4031724266	 0.10591
