21
gdb 120494	3.66491	0.82756	0.75331	1.5501	75.74	-0.2485	0.0561	0.3046	1569.0351	0.180821	-461.331298	-461.321113	-461.320168	-461.367137	36.537	
C	-0.1646397843	 1.3396630522	-0.0792143492	-0.222886
O	-0.0812791472	-0.0640105151	-0.0921808058	-0.2369
C	 0.7143564515	-0.5564184621	-1.1521613383	-0.069297
C	 0.6893182348	-2.0698967638	-1.0836730487	-0.005641
C	-0.637791851	-2.8125018471	-1.4081863113	-0.277835
C	 0.1930292001	-3.8766832776	-2.1775635278	 0.140204
O	-0.2613037962	-4.3455997989	-3.4188481883	-0.440831
C	 1.3910046033	-2.8713536316	-2.2087877833	 0.036707
O	 1.3855905673	-2.1276269088	-3.4225463356	-0.438537
H	 0.8249659546	 1.8082653659	 0.0461079323	 0.101127
H	-0.6112490681	 1.7327517226	-1.0066765608	 0.102073
H	-0.7978601203	 1.6238681206	 0.7651069624	 0.124549
H	 0.327240339	-0.2096511005	-2.122448079	 0.096928
H	 1.7491799148	-0.1816364993	-1.0642859175	 0.083814
H	 1.080824645	-2.3860273139	-0.1118347692	 0.082914
H	-1.253650073	-3.1513325627	-0.5736958213	 0.106207
H	-1.263650181	-2.2317550159	-2.0933046546	 0.100269
H	 0.4106062187	-4.756886921	-1.5664406011	 0.089007
H	-0.3686219025	-3.5614981041	-3.9717508863	 0.275421
H	 2.3948106526	-3.2599760957	-1.9972037072	 0.061993
H	 1.780288652	-2.6871749434	-4.0998704795	 0.290714
