17
gdb 18576	3.54861	2.16909	1.71616	1.7051	66.91	-0.2422	0.02	0.2622	808.8807	0.144268	-363.870106	-363.863319	-363.862375	-363.90132	26.046	
C	 0.2415638578	 1.5748024441	 0.0219401117	-0.40111
C	 0.0602021806	 0.0637974467	 0.0356700142	 0.006146
C	 0.8997322869	-0.7900268712	-0.9744310367	-0.248906
C	 1.4451513503	-1.6475897628	 0.203809663	-0.006358
N	 2.8683765151	-1.4315020568	 0.5019337919	-0.261732
C	 2.8931543502	-0.5658625715	 1.4277595569	 0.113215
O	 1.7339712546	-0.0696795313	 1.9373732185	-0.227844
C	 0.6767115806	-0.7419883008	 1.2132099238	 0.068527
H	 1.2915888779	 1.8495126157	 0.1556383382	 0.124453
H	-0.0988106343	 1.9909246749	-0.9320974958	 0.116312
H	-0.3316252049	 2.0535660503	 0.8227104077	 0.119111
H	-1.0048337406	-0.1792753023	-0.0430585051	 0.07749
H	 0.3154767797	-1.3332971697	-1.7206319239	 0.103238
H	 1.6917568179	-0.2354676304	-1.4836851564	 0.109611
H	 1.213219714	-2.7136245045	 0.1701704155	 0.082258
H	 3.7877123606	-0.1585044752	 1.8861746859	 0.140455
H	-0.0115610163	-1.164659785	 1.9474049107	 0.085132
