18
gdb 117924	2.84274	1.09631	0.85545	3.3865	71.48	-0.2541	-0.0855	0.1686	1336.3319	0.145653	-476.242507	-476.232506	-476.231562	-476.278717	34.446	
C	-0.1705550708	 1.5274643034	-0.2107445624	-0.372725
N	-0.115763668	 0.0717274768	-0.1024289845	-0.091112
C	-0.2701145283	-0.4875233305	 1.2528303769	-0.206102
C	-1.641520011	-1.1196769244	 1.5447658028	-0.034778
O	-1.7442642896	-2.4618205578	 1.1444850554	-0.42661
C	 0.0528863979	-0.7854021425	-1.1286707584	 0.315169
O	-0.0167813068	-2.0111339377	-1.0118289722	-0.392239
C	 0.3742657549	-0.3197376077	-2.5598893212	 0.112038
O	 0.317142108	 0.7859836906	-3.0279941483	-0.242243
H	-0.0912864909	 1.8349185616	-1.2486109172	 0.192313
H	-1.119905894	 1.8898888158	 0.1996585319	 0.13832
H	 0.6452161989	 1.977771298	 0.3666022265	 0.135479
H	 0.5018438989	-1.248000317	 1.4099534891	 0.140042
H	-0.0872622456	 0.3386503855	 1.9451700749	 0.112744
H	-1.8037464756	-1.0945402592	 2.6298033421	 0.105125
H	-2.4236357488	-0.4856057765	 1.0894571743	 0.080656
H	-1.2445921357	-2.554450355	 0.3179945969	 0.304571
H	 0.6452880565	-1.2120650034	-3.1582338266	 0.129352
