16
gdb 128214	3.26311	1.41264	0.99191	4.3977	81.09	-0.2028	-0.0456	0.1572	1142.6508	0.12491	-434.04697	-434.038483	-434.037539	-434.081055	30.683	
C	-0.1832967945	 1.4878019	 0.0683251879	-0.29626
N	 0.0143279864	 0.0533226579	-0.1025145286	-0.383905
C	 0.6411741597	-0.6356006048	-1.0866932532	 0.316435
C	 0.728310989	-2.0032303474	-1.0798861767	-0.24647
C	 1.3983409943	-2.6681372307	-2.1395901934	 0.048055
N	 1.9637084677	-2.114108855	-3.1597213018	-0.117736
O	 1.8793173296	-0.705426608	-3.1758912053	-0.286417
C	 1.2656616566	 0.0642187605	-2.223401251	 0.396484
N	 1.2538678273	 1.3325431267	-2.3466400211	-0.548313
H	 0.7645948909	 2.0239081689	 0.13676344	 0.1546
H	-0.7507096803	 1.9216518306	-0.7565908096	 0.154454
H	-0.7408887486	 1.6224309034	 0.9986278609	 0.113038
H	-0.3755800492	-0.5260880594	 0.6226904305	 0.249254
H	 0.2923348107	-2.5854409029	-0.275765681	 0.091913
H	 1.4734875258	-3.752260814	-2.1444451222	 0.127539
H	 1.7413845847	 1.6019736943	-3.2027751054	 0.227329
