20
gdb 11752	4.51083	1.37837	1.2488	1.4387	75.46	-0.227	0.0851	0.3121	1075.6911	0.175939	-348.977072	-348.96862	-348.967676	-349.009766	32.007	
C	 0.0339997206	 1.5109007967	-0.0470703709	-0.374679
C	-0.0975485795	-0.0134312619	 0.0791953614	-0.288548
C	 0.7273542351	-0.5598692371	 1.2022667997	 0.505118
C	 2.1752835716	-0.9439055475	 1.1677229913	-0.339643
C	 1.1381171485	-1.9450073379	 1.6499794779	-0.225015
C	 0.6085854339	-1.5242069419	 3.0207257157	 0.155208
C	 1.4826176328	-1.5831269706	 4.2565517629	-0.407691
O	 0.3675579327	-0.1664510042	 2.5389940281	-0.348785
H	 1.0671266967	 1.799712335	-0.2652856158	 0.117366
H	-0.6034677076	 1.8940610001	-0.8493372394	 0.108963
H	-0.2610105478	 1.999017804	 0.8861856347	 0.137053
H	-1.1482317986	-0.2815830105	 0.2449283409	 0.104175
H	 0.2142494228	-0.5000528535	-0.8525053641	 0.099242
H	 2.5781271047	-1.167451656	 0.1843106875	 0.110235
H	 2.8781594433	-0.4830189367	 1.8555775441	 0.111146
H	 0.9902449948	-2.9100268879	 1.1831663746	 0.093866
H	-0.360550224	-2.0008180964	 3.2216096205	 0.078328
H	 2.4770457746	-1.1706454774	 4.0670979959	 0.120831
H	 1.0243828613	-1.0124160148	 5.0706893833	 0.126738
H	 1.5934243841	-2.6208684615	 4.5894384819	 0.116093
