18
gdb 126015	2.9516	1.63293	1.09953	2.0349	78.45	-0.1868	0.0273	0.2141	1088.3428	0.151522	-398.143429	-398.135785	-398.13484	-398.175367	29.918	
C	-0.2176378777	 1.546071749	 0.0333154313	-0.395448
C	 0.0564073714	 0.04163966	 0.0439014214	-0.107677
C	 0.9119024431	-0.453275362	-1.1693554241	-0.178914
N	 1.6888870531	-1.6300437788	-0.6832650807	-0.422633
C	 1.8274532101	-1.4183498962	 0.6985604464	 0.229293
C	 2.5051789893	-1.8586272632	 1.8098829156	-0.20316
N	 1.9398853941	-1.1641647566	 2.857307764	-0.193185
N	 0.9561995488	-0.3148073133	 2.4871812644	-0.340689
C	 0.8998161434	-0.4773923063	 1.1747364404	 0.338077
H	 0.7187497367	 2.1132522448	 0.042983625	 0.11664
H	-0.7864839033	 1.8378570181	-0.8560150881	 0.10947
H	-0.7947974755	 1.8381037215	 0.9150978254	 0.132008
H	-0.9051429806	-0.491245321	 0.03694695	 0.094843
H	 0.2969101227	-0.7328015826	-2.0289868429	 0.105889
H	 1.584074907	 0.3617406314	-1.4800741805	 0.093969
H	 2.5522784978	-1.7694632649	-1.1922966396	 0.229935
H	 3.305699913	-2.5621576563	 1.968221678	 0.123053
H	 2.2167896068	-1.1937900737	 3.8227338539	 0.26853
