13
gdb 364	10.0298	2.24766	1.87969	2.2967	47.42	-0.2496	0.0662	0.3158	657.9646	0.107261	-323.6692	-323.661699	-323.660754	-323.701214	23.827	
C	 0.0631987437	 1.4308804427	-0.0235654883	-0.328248
N	-0.095589317	 0.0003624316	-0.1636419768	-0.355562
C	-1.281348331	-0.6256506706	 0.0590128604	 0.522072
O	-2.3184086551	-0.0940485912	 0.3904728221	-0.415128
O	-1.1364324357	-1.9621598905	-0.1471432788	-0.265956
C	-2.3255566609	-2.7257974041	 0.059106182	-0.230172
H	 0.8037589093	 1.6805787317	 0.7450701648	 0.124619
H	 0.3695092455	 1.8964135176	-0.9675090933	 0.124607
H	-0.9035827095	 1.8392926898	 0.2730575615	 0.170039
H	 0.6843730201	-0.5735624074	-0.4355445345	 0.252573
H	-3.1191603945	-2.4057562552	-0.6212836086	 0.137182
H	-2.0499113149	-3.7617189142	-0.1421961795	 0.126785
H	-2.6841350999	-2.6218833104	 1.0866201889	 0.137189
