16
gdb 4428	3.45482	1.7992	1.20076	4.2163	68.63	-0.1832	0.0473	0.2305	980.0706	0.130893	-379.998997	-379.990711	-379.989767	-380.031366	30.098	
C	 0.0939836375	 1.5425880607	 0.0214424167	-0.503105
C	-0.030798968	 0.0596810973	-0.0153280509	 0.236546
C	-1.1119517164	-0.7538878132	 0.0364190238	 0.236523
C	-2.5669225007	-0.4598532336	 0.1486113158	-0.503109
N	-0.6343711986	-2.0689226761	-0.0383329862	-0.394149
C	 0.7492131496	-2.1113985515	-0.1378349614	 0.432923
O	 1.47623331	-3.0826192752	-0.218878655	-0.43591
N	 1.0950029805	-0.7674488457	-0.121697088	-0.394156
H	 0.6966351247	 1.8787549684	 0.8748049093	 0.13236
H	 0.5709627093	 1.9329633852	-0.8865567594	 0.13244
H	-0.8886931522	 2.010987953	 0.1061103388	 0.136159
H	-3.128042077	-0.8518525836	-0.7092155725	 0.132398
H	-3.0029967716	-0.9044352907	 1.0522544809	 0.13241
H	-2.7411628775	 0.6171272508	 0.193088094	 0.136161
H	-1.1892655181	-2.9061050226	-0.0247918831	 0.261253
H	 2.0519457886	-0.4672228931	-0.1773205729	 0.261255
