18
gdb 18106	3.54009	2.25032	1.7202	1.3697	71.68	-0.2378	0.023	0.2608	809.8807	0.157044	-347.826035	-347.819559	-347.818614	-347.856831	25.676	
C	-0.0294900152	 1.3540162272	 0.1067978214	-0.074361
C	 1.3755470743	 1.9518617962	 0.0136632334	-0.227393
C	 2.2584188296	 0.7502988006	 0.4158362908	-0.083799
C	 2.4317215434	 0.567792813	 1.9049849447	-0.072763
C	 1.9313289266	-0.5847487525	 2.3469640691	-0.068216
C	 1.351448824	-1.4210896396	 1.2348113117	-0.270832
C	 1.3982472088	-0.4859775744	-0.002120371	 0.112508
O	 0.1051911083	 0.0135470017	-0.3512318829	-0.267141
H	-0.3988224919	 1.3803833297	 1.1435991336	 0.092332
H	-0.7644963956	 1.852980038	-0.5313919709	 0.103981
H	 1.5895388574	 2.2543968517	-1.0162312009	 0.103415
H	 1.5156352515	 2.8210332188	 0.6621576091	 0.098614
H	 3.2254401887	 0.7843241803	-0.0976651633	 0.077505
H	 2.9135878113	 1.3194034379	 2.5219335801	 0.089733
H	 1.9488469295	-0.9164333116	 3.3799077467	 0.09201
H	 1.942202848	-2.3329706323	 1.0739960395	 0.10273
H	 0.3212794208	-1.7441288202	 1.4218410528	 0.116717
H	 1.7835388105	-1.0052652844	-0.8846654437	 0.07496
