25
gdb 63944	2.53121	1.56467	1.42326	0.0743	90.53	-0.2806	0.0755	0.3561	1109.5413	0.232304	-352.389348	-352.381043	-352.380099	-352.421334	35.212	
C	-0.1248657718	 1.559095017	-0.0364619857	-0.449689
C	-0.010123846	 0.0271091456	-0.0088352956	 0.357357
C	-1.4322065105	-0.549100423	 0.1144709317	-0.438901
C	 0.7253202152	-0.5360306625	-1.2819467404	-0.259276
C	 1.9413213339	-1.2977551156	-0.7099730078	 0.00797
C	 2.9499890203	-0.2706322373	-0.1399490513	-0.204353
C	 2.2571061874	 0.2118990698	 1.1747997237	-0.227887
C	 0.8984477912	-0.5230680564	 1.1412661743	-0.015675
C	 1.3427676878	-1.8941213533	 0.5812068309	-0.229275
H	 0.8300096287	 2.0479884173	-0.2474632118	 0.112253
H	-0.8274142335	 1.8729380616	-0.8167239755	 0.10734
H	-0.498749261	 1.9485827546	 0.9178377492	 0.106686
H	-2.0365041686	-0.2741499956	-0.7574723946	 0.107844
H	-1.4336272126	-1.6406500739	 0.1835738957	 0.110152
H	-1.9378061197	-0.1580843772	 1.0050304566	 0.106477
H	 0.0698810798	-1.2140276851	-1.8394355249	 0.085781
H	 1.0254552762	 0.2604297378	-1.9708843316	 0.086575
H	 2.3855702552	-2.0068766116	-1.4118779098	 0.050568
H	 3.9151471918	-0.7413046267	 0.0706984031	 0.09087
H	 3.1373496794	 0.5472665791	-0.8427516608	 0.089916
H	 2.825165715	-0.1095951292	 2.0535503686	 0.090327
H	 2.1638914242	 1.2972206959	 1.239673384	 0.094268
H	 0.3892788698	-0.5391945221	 2.108674453	 0.046094
H	 0.5232040538	-2.5935334538	 0.3976610841	 0.08911
H	 2.0847808942	-2.3903460657	 1.215273375	 0.085467
