21
gdb 110318	2.13511	1.48107	1.03961	1.4811	78.79	-0.2416	0.0685	0.3101	1228.9949	0.181112	-424.191611	-424.182014	-424.181069	-424.225635	36.602	
C	 0.0649984586	 1.3783287892	-0.3428281935	-0.369234
C	-0.0044910465	-0.0062556521	 0.3113942575	-0.205201
C	-1.3683313978	-0.6528764226	 0.148895339	-0.063365
C	-1.942653766	-1.2583298934	-1.1243396205	-0.143116
C	-0.9244302166	-2.0802884277	-1.9011323059	 0.122337
O	 0.1198570319	-1.3241298405	-2.4829244798	-0.425022
C	-0.6286632239	-2.9386758807	-0.618402624	-0.35366
C	-1.6926811425	-2.1163595735	 0.1205276742	 0.353652
O	-2.6623124203	-2.6899132217	 0.9285571626	-0.460207
H	 1.0383037204	 1.8487590224	-0.1699852158	 0.102864
H	-0.0841356629	 1.2917004819	-1.4227270721	 0.135529
H	-0.7048790811	 2.0490418258	 0.0555699008	 0.104021
H	 0.771703016	-0.6392824469	-0.1240203018	 0.107351
H	 0.2174118211	 0.0780407499	 1.384219058	 0.080705
H	-2.1605671609	-0.1118543553	 0.6679311872	 0.084058
H	-2.8810288088	-0.9016063609	-1.5313512343	 0.08709
H	-1.4220204987	-2.6952923663	-2.6624931831	 0.076002
H	 0.7033868167	-1.9287124079	-2.9525033011	 0.283064
H	-0.9333106245	-3.9806639926	-0.7399560927	 0.105438
H	 0.3938899459	-2.9019285113	-0.2296983347	 0.092667
H	-2.3585784102	-2.645147166	 1.8415472999	 0.285026
