16
gdb 34919	2.95545	1.62607	1.31411	5.1665	70.96	-0.2794	0.0344	0.3138	970.9615	0.126154	-400.733926	-400.726989	-400.726045	-400.765387	27.335	
N	-0.1925861302	-1.1603728101	-0.463994207	-0.326563
C	-0.0965254962	-0.0319338668	-0.2345108769	 0.290468
C	 0.016781721	 1.3991727603	 0.0505589016	-0.20393
C	-0.6280391801	 1.8308867053	 1.3834784759	-0.057976
C	-0.0757249105	 1.3198505092	 2.6851617047	-0.284788
C	 0.3835345493	 2.6580311981	 2.1566499723	-0.070092
C	 1.6635593609	 2.6519333668	 1.3524221641	 0.028832
O	 2.2466041627	 1.3509931159	 1.172149719	-0.23714
C	 1.4721923759	 1.8920475679	 0.1071294818	 0.025788
H	-0.4783997494	 1.9390696117	-0.7664650594	 0.130913
H	-1.6736878285	 2.1113335543	 1.3434222885	 0.106365
H	-0.7531973864	 1.3242313065	 3.5314593966	 0.119737
H	 0.6386730766	 0.5067092434	 2.6672222861	 0.15528
H	 0.10420227	 3.5739433988	 2.6624224681	 0.097184
H	 2.3723384582	 3.4695167939	 1.4425360893	 0.109386
H	 2.0053130565	 2.0692586649	-0.8235773745	 0.116537
