19
gdb 107514	2.02412	1.59961	1.08653	2.6677	79.35	-0.2542	0.0191	0.2733	1175.9977	0.159533	-382.047113	-382.038314	-382.037369	-382.080991	32.607	
C	 0.179170659	 1.4816834524	 0.2187489526	-0.382612
C	-0.0055418027	 0.0014502926	-0.1438061719	-0.29554
C	-1.4326477802	-0.4477413933	-0.0173048715	 0.356272
C	-2.03904251	-0.9930586905	 1.2134992156	-0.291178
N	-1.8625122228	-1.9036060424	 0.0623933084	-0.168905
C	-3.0049627826	-1.5925904262	-0.8570500362	-0.173581
C	-2.533238389	-0.1151898424	-1.0470036655	-0.229496
C	-3.4542088909	 0.9686309569	-0.7402844344	 0.275274
N	-4.1965766273	 1.8147674117	-0.4743430305	-0.333326
H	 1.2246604655	 1.7809553453	 0.1037137176	 0.121422
H	-0.4256722239	 2.1298826232	-0.4238902853	 0.130233
H	-0.1178144036	 1.674076605	 1.2543077046	 0.127432
H	 0.3415174415	-0.1787909797	-1.1695219295	 0.104007
H	 0.6114081083	-0.6294103556	 0.5060591015	 0.116716
H	-1.3662578672	-1.2175794339	 2.0351970729	 0.128743
H	-3.0449246108	-0.7069161029	 1.5138255725	 0.130382
H	-2.935571205	-2.1797398971	-1.7733186939	 0.127228
H	-3.9915855777	-1.7302653494	-0.4062424486	 0.127288
H	-2.1149078006	 0.0400681763	-2.0444626884	 0.129643
