20
gdb 114601	2.99809	1.14563	0.96431	3.0345	81.62	-0.2233	-0.0276	0.1957	1293.8565	0.169636	-403.116614	-403.107591	-403.106647	-403.150464	33.598	
C	 0.1482611291	 1.6446599106	 0.0044745046	-0.384959
C	-0.1219976386	 0.1420105543	-0.0116892712	-0.13222
N	 0.6241432182	-0.5168590647	-1.0770681926	-0.13508
C	 2.0946815928	-0.714682626	-0.9159631022	-0.186451
C	 1.9390047547	-2.2085123148	-1.2093096447	-0.108552
C	 1.0090393339	-2.8435747843	-0.2308308193	-0.32984
C	 0.4156586144	-1.9446229437	-1.2960289944	 0.24389
C	-0.5004634104	-2.441101471	-2.3379618751	 0.09038
O	-0.6896879074	-3.6098032737	-2.5856327988	-0.278898
H	 1.2048129152	 1.8542702665	 0.2036853006	 0.118334
H	-0.1075226662	 2.0914235746	-0.9604507968	 0.1265
H	-0.4398382168	 2.1346756605	 0.7861973112	 0.116112
H	 0.0996128713	-0.2840790292	 0.9841549898	 0.079938
H	-1.1860356645	-0.0437507243	-0.2015903982	 0.10593
H	 2.6704004245	-0.1572405857	-1.6603520334	 0.116885
H	 2.4836593368	-0.4823655845	 0.0849643294	 0.102281
H	 2.5191818513	-2.7787539459	-1.9221883108	 0.11676
H	 0.8043891047	-3.8957357127	-0.3964056921	 0.147387
H	 0.99797571	-2.5212813535	 0.8064415062	 0.116332
H	-0.9970584129	-1.6279942728	-2.9128576923	 0.075271
