14
gdb 29370	3.43527	1.23113	0.90769	4.7276	70.9	-0.2167	-0.0362	0.1805	1175.8802	0.100638	-473.86584	-473.857366	-473.856422	-473.899065	30.64	
O	-0.0391436839	 1.3786949042	 0.1365319638	-0.461337
C	 0.0289202047	 0.0109744045	 0.0270120508	 0.167044
C	 0.0534286179	-0.8040397639	-1.0953602745	-0.160337
N	 0.0707039431	-2.0915124144	-0.6669165754	-0.302598
C	 0.0397792321	-2.1468483564	 0.7151125196	 0.142143
C	 0.0474637794	-3.4143309491	 1.3933687602	 0.070165
O	 0.083767842	-4.4857848514	 0.8076755153	-0.33529
C	 0.0163805248	-0.8262924065	 1.1633668065	 0.20472
O	-0.0138113358	-0.4165521705	 2.4498758719	-0.439098
H	 0.6303611392	 1.7831261079	-0.423871952	 0.305297
H	 0.0625658973	-0.547471782	-2.1426889696	 0.135424
H	 0.0976568387	-2.9296711895	-1.223383269	 0.280801
H	 0.0178503089	-3.3548585699	 2.4991731048	 0.085278
H	-0.0173665382	 0.5492499569	 2.4391636078	 0.307789
