23
gdb 120221	4.19784	0.92518	0.90377	0.9148	86.33	-0.2415	0.0919	0.3333	1445.4351	0.207302	-388.278132	-388.269443	-388.268499	-388.311895	33.726	
C	-0.0653123828	 1.4740123513	-0.0136445914	-0.384993
C	-0.109514197	-0.019037952	 0.2647212677	-0.043151
O	-1.2961881055	-0.5445601105	-0.3010751691	-0.273992
C	-1.4188642698	-1.9368409181	-0.1734594026	 0.188546
C	-1.945284825	-2.4665400838	 1.2048299442	-0.057928
C	-3.3494381508	-1.9948913817	 0.7236031062	-0.226462
C	-2.8025623815	-2.4366856336	-0.6675283308	-0.048224
C	-2.6551559235	-3.9584954085	-0.4905966239	-0.218226
C	-1.9941217942	-3.9807439423	 0.932725829	-0.21664
H	 0.8452149845	 1.9137997974	 0.4042974995	 0.113135
H	-0.0813710212	 1.663343513	-1.0907310448	 0.126147
H	-0.9292542474	 1.973764319	 0.4338423406	 0.125575
H	 0.7693938341	-0.5204894727	-0.174684336	 0.084729
H	-0.079297708	-0.2102113918	 1.3490697289	 0.088808
H	-0.5248336848	-2.4363963035	-0.5816255933	 0.048406
H	-1.5156966664	-2.139050639	 2.1522314336	 0.056453
H	-4.2271510588	-2.5156338468	 1.1181412362	 0.08109
H	-3.4745775767	-0.9156269427	 0.7952780681	 0.111149
H	-3.2241627409	-2.0666505893	-1.6021377451	 0.06197
H	-3.6210015295	-4.4703858833	-0.5142694981	 0.097125
H	-2.0176408287	-4.4101282853	-1.2564797409	 0.095206
H	-0.9992081841	-4.4367083421	 0.9242295068	 0.093963
H	-2.599024322	-4.5144861139	 1.670987945	 0.097314
