21
gdb 62838	2.54632	1.80057	1.47993	1.2652	84.08	-0.2244	0.0751	0.2994	1007.449	0.182133	-386.968582	-386.96041	-386.959466	-387.000446	33.813	
C	-0.1117002353	 1.4975134613	 0.0367746276	-0.49104
C	 0.0740443709	-0.0167799721	-0.0384946876	 0.44978
O	-1.1796407913	-0.5765126929	-0.4014858102	-0.484332
C	 1.3253111208	-0.6476535343	-0.7033166645	-0.157211
C	 2.1551040155	-0.1346915636	 0.5615618009	-0.330511
C	 0.8373888988	-0.7694586589	 1.1180434736	 0.23126
C	 0.0692709563	-1.683844881	 2.1021955239	-0.327806
C	-0.1086546114	-2.6865637044	 0.8813180243	-0.262888
C	 1.0891405602	-1.9437301478	 0.1681548768	-0.006605
H	 0.767483204	 2.0481965386	 0.369615984	 0.124152
H	-0.3843197536	 1.8912938931	-0.9519062762	 0.105644
H	-0.9359188983	 1.7233845529	 0.7206046419	 0.127785
H	-1.5465752194	-0.0327636543	-1.1052171009	 0.275472
H	 1.6395009715	-0.5515398783	-1.7490291476	 0.059794
H	 3.0583353117	-0.7076325894	 0.7767663621	 0.102199
H	 2.3500351598	 0.9358330891	 0.6447746593	 0.090461
H	 0.7051767058	-2.1038960654	 2.8865235444	 0.104057
H	-0.8380362309	-1.2757377762	 2.5556110648	 0.102319
H	 0.1195866747	-3.7309264475	 1.1079015626	 0.087427
H	-1.0816407261	-2.6154935955	 0.4074031218	 0.136042
H	 2.0202265563	-2.4861328434	 0.3559106789	 0.063999
