19
gdb 8523	4.35947	1.95285	1.64804	1.5664	75.52	-0.2241	0.0847	0.3088	856.6701	0.165194	-327.83467	-327.827411	-327.826466	-327.865498	29.181	
C	-0.1190733847	 1.5555330833	 0.0072394419	-0.453867
C	-0.0629241038	 0.0340155709	-0.0579701452	 0.355256
C	-1.4540166551	-0.5578802086	 0.134173716	-0.453803
C	 0.8799215841	-0.6229966962	-1.0799787686	-0.104854
C	 2.1052092729	-0.2562523621	-0.1883024966	-0.004519
C	 2.6471195371	-1.6842768935	-0.1413953214	-0.268076
C	 1.1246377134	-1.806697171	-0.0951381215	-0.004478
N	 1.0073297982	-0.5865829748	 0.8668103727	-0.195436
H	 0.8579828423	 2.0213177664	-0.1401108326	 0.114203
H	-0.7944918444	 1.946028807	-0.7618624772	 0.113912
H	-0.5016964108	 1.8780637125	 0.9816851954	 0.123953
H	-2.1385758422	-0.1815836472	-0.6339266291	 0.113922
H	-1.4602809588	-1.6489216999	 0.0800900877	 0.114211
H	-1.8566489478	-0.2673985947	 1.1106386395	 0.123973
H	 0.8311868616	-0.6579663154	-2.1752902532	 0.056066
H	 2.6529826896	 0.6849667654	-0.14830164	 0.082803
H	 3.1475452155	-2.0547660559	-1.0397042036	 0.09677
H	 3.1813279216	-1.9674296294	 0.7694285837	 0.10714
H	 0.5141377413	-2.6968279667	 0.0549277021	 0.082824
