19
gdb 37561	3.7505	1.60762	1.39165	1.6617	79.26	-0.2409	0.091	0.3319	967.0724	0.161649	-385.790538	-385.783916	-385.782971	-385.82145	27.455	
C	-0.107749404	 1.6087457621	-0.0487236027	-0.270367
C	 1.4002398484	 1.2991915335	 0.0086413083	-0.080016
C	 1.2083611861	 0.1192424907	 1.0103840131	-0.076823
C	-0.0443435048	 0.0715340033	 0.0307266073	-0.146677
C	 1.2404895704	-0.0102122639	-0.8647469939	 0.363856
C	 1.8581495757	-0.2584713018	-2.2130562303	-0.212236
O	 3.2085668702	-0.6429091613	-1.8702115187	-0.286557
C	 3.4046717039	-0.7321347057	-0.4321772549	-0.103036
C	 2.000720438	-0.8817986496	 0.13333337	-0.072892
H	-0.5310362186	 2.1236536522	 0.8195132071	 0.09325
H	-0.494573415	 2.0400012177	-0.9772539698	 0.095088
H	 2.2398786595	 1.9936062109	-0.018921403	 0.079318
H	 1.1494753779	 0.1992305733	 2.0975512728	 0.072453
H	-0.8538005029	-0.6594017653	 0.0629028176	 0.075993
H	 1.3751144127	-1.0801833665	-2.759115451	 0.100082
H	 1.8933612212	 0.6227185335	-2.8641122907	 0.1028
H	 4.0600989373	-1.5889728844	-0.2539124477	 0.102203
H	 3.9111527596	 0.1734273391	-0.0710795639	 0.093321
H	 1.6727378041	-1.9252069079	 0.1932845304	 0.070242
