19
gdb 108280	2.70829	1.41815	1.08852	3.8379	76.98	-0.2336	0.0198	0.2534	1165.8092	0.159551	-419.178796	-419.170266	-419.169322	-419.212085	32.343	
C	-0.0130223151	 1.574707648	 0.0216905824	-0.384842
C	 0.1114850955	 0.0510632085	-0.1097809608	-0.277858
C	 0.6898674005	-0.5876442615	 1.1244025546	 0.453253
C	 2.1715342556	-0.4053080161	 1.5282704419	-0.22757
N	 2.2425651272	-1.8317495191	 1.9637176886	-0.317328
C	 0.8689205208	-2.0963151784	 1.4467809703	-0.230877
C	-0.1599012807	-1.8366211611	 2.5291388921	 0.474417
N	-0.7816721777	-2.5376207041	 3.3594098132	-0.553603
O	-0.2072765759	-0.4698251808	 2.2868180774	-0.307745
H	 0.9653424895	 2.04311018	 0.1731827358	 0.120784
H	-0.4543359697	 2.0083862656	-0.8798913176	 0.11875
H	-0.6470207696	 1.8364395399	 0.8732478298	 0.141409
H	-0.8729474882	-0.3907307474	-0.3033899044	 0.112156
H	 0.7490908101	-0.2056801743	-0.9646756118	 0.103633
H	 2.8100506016	-0.1639123967	 0.6696370108	 0.102622
H	 2.3608302044	 0.3134293372	 2.3308315078	 0.120558
H	 2.9492495339	-2.3634730722	 1.4709851971	 0.229107
H	 0.7278181092	-2.9335669563	 0.764087805	 0.096262
H	-1.3939994216	-1.9669710112	 3.9455876879	 0.226873
