15
gdb 15586	2.8478	2.14392	1.47176	3.9069	61.06	-0.2797	0.0123	0.2919	861.6633	0.118998	-399.809188	-399.801545	-399.800601	-399.841616	26.894	
C	-0.0852022377	 1.5709959778	-0.1273617484	-0.42478
C	 0.0990071932	 0.072704203	-0.0119153258	 0.099614
O	 0.9794910403	-0.3956754825	-1.0252895604	-0.242369
C	 1.3869912408	-1.6712013847	-0.6201345282	 0.020525
O	 1.372952976	-1.6938083611	 0.8117112492	-0.258881
C	 0.7984726217	-0.4781619667	 1.2576167988	-0.039408
C	 1.8371378265	 0.4283297703	 1.7864884516	 0.285889
N	 2.6383440643	 1.1443392875	 2.2108173722	-0.326321
H	 0.8747349349	 2.0866758473	-0.0530431335	 0.158271
H	-0.542027323	 1.8127036121	-1.0900325479	 0.138743
H	-0.7436256464	 1.935935799	 0.6663423715	 0.130788
H	-0.8714605137	-0.4440684356	-0.0893054393	 0.088646
H	 0.6985833816	-2.4536145539	-0.9777171648	 0.103095
H	 2.3998755475	-1.8530570839	-0.99260105	 0.130885
H	 0.0840472541	-0.6922131185	 2.058989925	 0.135304
