15
gdb 95603	2.3431	1.76701	1.08991	4.619	62.02	-0.2616	-0.0884	0.1732	1061.7687	0.111743	-494.938319	-494.930192	-494.929247	-494.971803	29.222	
C	 0.411686959	 1.5695386459	-0.0363577403	-0.407846
C	 0.1170166701	 0.0773968108	-0.0422542256	 0.014457
O	 0.7913756345	-0.5271548647	-1.1436815625	-0.225855
C	 0.6470374146	-1.9017514401	-1.1376976272	 0.002942
O	 1.3713049191	-2.5209622638	-0.0620741168	-0.218043
C	 1.3401971737	-1.9307684925	 1.1544326979	 0.35116
O	 1.9129811287	-2.4006269803	 2.0910888044	-0.287978
C	 0.5344192794	-0.6014511452	 1.264405422	 0.228496
O	 0.2617598253	-0.1582851615	 2.346033164	-0.261176
H	 1.4896418163	 1.7422003557	 0.0201771496	 0.141807
H	 0.0296879269	 2.030232231	-0.949830338	 0.136101
H	-0.0652596527	 2.0296378281	 0.8307660261	 0.153557
H	-0.9700491127	-0.0910277573	-0.1448970545	 0.114632
H	-0.4106591519	-2.2004966144	-1.06153728	 0.110692
H	 1.0886225797	-2.2980211117	-2.0520080391	 0.147053
