14
gdb 27339	3.38855	1.42076	1.00217	6.8928	68.64	-0.2133	-0.0143	0.199	1088.2593	0.103577	-470.077396	-470.069905	-470.068961	-470.109097	29.155	
N	 0.0156904674	 1.3535941293	 0.1306967308	-0.571117
C	 0.0026558664	-0.0231746727	 0.0369642662	 0.470216
N	-1.1415107298	-0.6511257541	 0.0263948293	-0.383142
C	-1.1454394643	-2.0258233231	 0.0164520726	 0.320299
O	-2.1632747696	-2.7147026303	 0.0228920189	-0.415723
C	 0.1531478855	-2.7344700872	-0.0231591825	 0.242803
O	 0.0675650251	-4.0721555204	-0.0605872237	-0.428567
C	 1.3003904426	-2.0325126327	-0.021139059	-0.126781
N	 1.2128936471	-0.6401017734	 0.009126701	-0.346975
H	 0.7400558774	 1.8417723384	-0.3756687528	 0.254962
H	-0.9052540585	 1.7437084218	-0.0101554658	 0.275811
H	-0.9021984132	-4.2211563862	-0.0446985389	 0.305056
H	 2.2922336148	-2.4603941758	-0.0479398898	 0.137089
H	 2.0528657292	-0.1004694636	 0.1395717137	 0.266068
