20
gdb 124513	2.58422	1.35527	1.02855	4.9201	81.05	-0.2438	0.0079	0.2517	1232.1755	0.171165	-399.342134	-399.332739	-399.331795	-399.376689	33.999	
C	-0.0575029068	 1.6131632565	 0.0374559845	-0.390075
C	 0.0458448083	 0.0811571245	-0.0015113278	-0.095175
C	-1.3496757968	-0.565637828	 0.120815358	-0.383573
C	 0.7571765947	-0.3848662676	-1.2399779141	 0.338257
C	 0.8932266702	 0.1569965713	-2.5010132677	-0.161528
N	 1.6209278448	-0.687992331	-3.2792094956	-0.194124
N	 1.9504859791	-1.7294949171	-2.574474586	-0.155363
N	 1.4326054805	-1.5627885647	-1.3344976913	-0.016767
C	 1.6723591453	-2.5752335254	-0.3277326623	-0.340724
H	 0.9279406617	 2.0816906793	-0.0315916416	 0.126704
H	-0.6688673005	 1.9860654578	-0.7909439668	 0.126297
H	-0.5296259186	 1.9384505071	 0.9692442157	 0.116602
H	 0.6380853915	-0.2363788024	 0.8677046589	 0.084833
H	-1.985217924	-0.2646677899	-0.7180240655	 0.129566
H	-1.2945108708	-1.658244837	 0.1202420501	 0.118381
H	-1.8368296134	-0.2526175552	 1.0498371207	 0.117914
H	 0.5197297406	 1.0931349808	-2.8830847836	 0.117971
H	 2.1819941243	-2.1484612013	 0.5410822623	 0.145052
H	 0.7370297898	-3.0382358826	-0.0007208584	 0.144953
H	 2.3096316401	-3.3322377549	-0.7843551795	 0.170801
