18
gdb 84216	3.02603	1.76149	1.60845	1.3648	81.74	-0.2	-0.0274	0.1726	922.2824	0.148493	-364.723082	-364.715977	-364.715033	-364.754227	29.138	
C	 0.1605503736	 1.5339437844	-0.0714317806	-0.390556
C	-0.0112667809	 0.0147147103	-0.0268734282	 0.033683
C	 0.7409838712	-0.6471757299	-1.1872397269	-0.108795
C	 1.5921739713	-1.5565465718	-0.6860367229	 0.030851
C	 3.0710413559	-1.2767806559	-0.7161438116	-0.149753
C	 3.2981224487	-0.6768391618	 0.4653198901	-0.079781
C	 2.1195860263	-0.8361648529	 1.4136708585	-0.061037
C	 1.2242051617	-1.8115325691	 0.7773617847	-0.09164
N	 0.5761180964	-0.5900940878	 1.201137582	-0.145939
H	 1.2157356617	 1.8067930242	-0.1713460305	 0.124124
H	-0.3891668714	 1.9670565153	-0.9127249118	 0.116033
H	-0.2216512972	 1.971137002	 0.8555173555	 0.130233
H	-1.0875446262	-0.2114426389	 0.0236644285	 0.087394
H	 0.8952176699	-0.116527368	-2.1217704916	 0.09827
H	 3.7273984128	-1.3064736144	-1.5758591834	 0.114004
H	 4.218375393	-0.1895653971	 0.7650046298	 0.104113
H	 2.3113008314	-0.8292101698	 2.4801884242	 0.102198
H	 0.9272217517	-2.7874321088	 1.157273224	 0.086598
