13
gdb 26907	3.15182	1.48714	1.01084	4.5205	71.23	-0.1969	-0.065	0.132	1063.9246	0.088767	-489.933377	-489.925559	-489.924614	-489.965428	29.711	
N	 0.0497654382	 1.3543134351	 0.1396395854	-0.556109
C	-0.0359571836	 0.0022628395	 0.0535561433	 0.378371
C	-1.215083133	-0.71208417	 0.0289697932	 0.287944
O	-2.394325087	-0.0154101344	 0.0437682583	-0.454946
N	-1.2160323836	-2.0406787237	-0.0119286112	-0.275052
C	-0.0849158746	-2.7069869413	-0.0267494754	-0.179394
C	 1.210168975	-2.0802271235	-0.0070473957	 0.376994
O	 2.3092661933	-2.5602284372	-0.022688367	-0.337173
O	 1.1253431038	-0.6443110637	 0.0311412939	-0.242159
H	 0.9278425249	 1.7793821002	-0.1133051225	 0.277758
H	-0.7910516301	 1.8708417573	-0.0639315336	 0.28651
H	-3.0989189003	-0.6732817523	-0.0007541336	 0.30174
H	-0.108799193	-3.7896667461	-0.0610207352	 0.135515
