21
gdb 85421	2.18778	1.51581	1.22272	4.4493	77.88	-0.2582	0.0192	0.2775	1151.9678	0.181533	-424.294782	-424.285578	-424.284634	-424.328157	35.742	
C	 0.117153326	 1.700454701	-0.1780717474	-0.417022
C	 0.0005708558	 0.187969459	 0.04420684	-0.021091
C	 0.6797558543	-0.592613952	-1.0918259754	-0.376369
C	 2.0809396627	-0.8739517806	-0.5616545006	 0.421993
O	 3.0547127336	-1.2091625318	-1.1720292131	-0.341299
O	 2.0899843483	-0.6871071043	 0.7832731839	-0.250188
C	 0.7651017988	-0.3558590809	 1.2931840211	 0.35921
C	 0.9700577543	 0.6366773324	 2.4322278762	-0.42989
C	 0.1275023062	-1.6487641155	 1.8146967758	-0.418111
H	 1.1616443925	 2.0140058909	-0.2821250778	 0.132437
H	-0.4036751125	 1.9811679685	-1.0988115888	 0.120146
H	-0.3266827352	 2.2710579722	 0.6417787445	 0.121511
H	-1.057998076	-0.0741494747	 0.1331030425	 0.079113
H	 0.1953430491	-1.5531160684	-1.2965809347	 0.135799
H	 0.7369229733	-0.0512382417	-2.0378421052	 0.133583
H	 1.52683844	 1.5153920379	 2.1017699802	 0.130271
H	 0.0057096639	 0.9634978137	 2.8334230492	 0.118968
H	 1.5325704592	 0.1636196057	 3.24184462	 0.129057
H	 0.7805494009	-2.1182222639	 2.5551538184	 0.132491
H	-0.8360988851	-1.4353446098	 2.2878034152	 0.119695
H	-0.0418978001	-2.3674897878	 1.007534686	 0.119693
