21
gdb 88013	2.68513	1.38248	1.17256	2.0261	83.8	-0.2309	0.0728	0.3038	1167.3624	0.182603	-383.200218	-383.191452	-383.190508	-383.233514	33.883	
C	-0.1165194372	 1.2064599547	-0.3144175733	-0.316042
N	 0.2785740273	-0.1713521868	-0.0587894822	-0.132185
C	 1.70883807	-0.4402746225	 0.1016633259	-0.3231
C	 0.7757218325	-0.5055300948	 1.2583247806	 0.311025
C	 0.8529338984	 0.3381572772	 2.5472585928	-0.325092
C	 0.7375594762	-0.9879903258	 3.3674536072	-0.310884
C	 0.352274371	-1.7128107524	 2.0713117743	 0.305442
C	-0.8216040655	-2.5637055193	 1.7812034183	-0.301255
N	 0.5481944004	-3.1232419285	 1.7776832105	-0.3773
H	 0.5152540253	 1.9512686534	 0.1959209344	 0.103387
H	-0.0694798528	 1.3990353001	-1.3907857775	 0.12461
H	-1.1511495479	 1.3540633887	 0.0115772776	 0.124004
H	 2.0791683451	-1.3435101472	-0.378464897	 0.10886
H	 2.3972773791	 0.4047671087	 0.0711042883	 0.105824
H	 1.7578921794	 0.929470923	 2.6997941481	 0.10581
H	-0.0178761377	 0.9875421353	 2.6757407052	 0.109643
H	 1.7000647149	-1.3280721751	 3.7579280557	 0.113906
H	 0.0017768335	-0.9997804889	 4.1740234637	 0.105414
H	-1.4551262284	-2.9177526527	 2.5905507272	 0.113514
H	-1.3221140505	-2.4062330832	 0.8295092308	 0.123213
H	 0.8717976868	-3.2378295939	 0.8188212493	 0.231206
