16
gdb 37151	4.00402	1.92625	1.66899	1.2948	70.12	-0.2271	0.0456	0.2727	816.1183	0.12554	-400.569707	-400.564068	-400.563124	-400.599251	25.039	
C	-0.0315050501	 1.5061896348	-0.1269312272	-0.29732
C	 1.29332223	 0.8005290581	 0.0203266687	 0.01275
C	-0.0214803894	-0.0051669831	-0.065301712	-0.20559
C	 0.3745219797	-0.6816527068	-1.3538328178	 0.470057
O	 0.0490214642	-1.6275997653	-2.417679429	-0.401208
C	 1.4237642981	-1.1103556854	-2.7479128067	-0.012687
C	 1.880173465	-1.0563997157	-1.2823843772	-0.055198
N	 2.1451440415	 0.4454803654	-1.1803172937	-0.189326
C	 1.1033151372	 0.3156202347	-2.2734873261	-0.072446
H	-0.3875773133	 2.0304359623	 0.7549682775	 0.119254
H	-0.2972567717	 1.9974114046	-1.0556705628	 0.124244
H	 1.8446809639	 0.8884334612	 0.9479835527	 0.103892
H	-0.4119906398	-0.5577782854	 0.7788391769	 0.108713
H	 1.8754716249	-1.5004748967	-3.6569194792	 0.105646
H	 2.3727913061	-1.8033052461	-0.6615536714	 0.093276
H	 0.7071516837	 1.1509543535	-2.8464648029	 0.095942
