16
gdb 130271	4.74888	0.82813	0.71659	2.8268	67.47	-0.2375	-0.0057	0.2317	1503.9755	0.124642	-471.208501	-471.199612	-471.198668	-471.243981	31.396	
N	 0.0582936513	 1.280215216	 0.3705052473	-0.585722
C	-0.0285301076	-0.0601338602	 0.0984862986	 0.404591
N	-1.0674797892	-0.6181932978	-0.4795748729	-0.214801
O	-0.7224288948	-1.9902197264	-0.4633678051	-0.208398
C	 0.4818233432	-2.078361063	 0.1023398881	 0.445666
C	 1.1030641928	-3.426529441	 0.2212253443	-0.317551
C	 2.0978428064	-3.5133644407	 1.3761982105	-0.072242
O	 2.6346349858	-4.8249445066	 1.3486690291	-0.418762
N	 0.9705129082	-0.9323556875	 0.4756885446	-0.366767
H	 1.0033735465	 1.6259741697	 0.4344126474	 0.266579
H	-0.5601937268	 1.8651667291	-0.1708816362	 0.267222
H	 0.3162648167	-4.1767156627	 0.3423169669	 0.145114
H	 1.6247770714	-3.6698871694	-0.7128791044	 0.147589
H	 2.8742404066	-2.7469313466	 1.2491901536	 0.114468
H	 1.5817711591	-3.3033408558	 2.3249850073	 0.102148
H	 3.2790349505	-4.9006262872	 2.0581178808	 0.290867
