18
gdb 97852	5.32435	0.66612	0.63783	1.6746	82.24	-0.2495	0.018	0.2674	1791.2222	0.147822	-401.935534	-401.926274	-401.92533	-401.972685	31.864	
C	 0.3685266923	 1.2935104658	-0.47087036	-0.364677
C	-0.3709982838	 0.2351120354	 0.3677515817	-0.314433
C	 0.4049089926	-0.2352020092	 1.5106069325	 0.061565
C	 1.0737482102	-0.6141957327	 2.4377602266	 0.097724
C	 1.8527478439	-1.0737490904	 3.5819515275	-0.171928
C	 0.9791137313	-1.4058309965	 4.8365655924	-0.115147
O	 1.3057014436	-2.781278388	 5.1390403521	-0.217718
C	 2.1939929124	-3.1600406029	 4.1913452762	 0.128524
N	 2.5744840213	-2.3454107752	 3.3001048239	-0.255223
H	 1.3067049627	 0.8913742692	-0.8621913977	 0.132644
H	-0.2505446165	 1.6113973587	-1.3150613179	 0.114527
H	 0.6050008864	 2.1731235584	 0.133953981	 0.127023
H	-1.3253976453	 0.6467340448	 0.7207617523	 0.127945
H	-0.6304123918	-0.6213361983	-0.2676618887	 0.133054
H	 2.604078188	-0.3136232375	 3.8284768836	 0.116603
H	 1.2285581861	-0.7943441577	 5.7066940076	 0.123494
H	-0.0913283234	-1.3388859136	 4.6332071752	 0.131098
H	 2.5283177601	-4.1878796806	 4.2815612519	 0.144926
