18
gdb 79935	2.9093	1.6216	1.53586	3.4229	75.15	-0.2349	0.0092	0.2441	957.3223	0.149544	-401.90427	-401.897053	-401.896109	-401.935674	28.854	
C	-0.1414830579	 1.5442976907	-0.0691600961	-0.426932
C	 0.0661356552	 0.044618246	-0.0184814957	-0.010032
C	 1.3966257957	-0.6377217786	-0.2344541276	-0.028954
N	 2.5534775281	 0.2388964406	-0.0945149904	-0.291233
C	 2.6173540587	 0.4460171928	 1.15275464	 0.397966
O	 3.0178483032	 1.497898471	 1.9352047186	-0.270697
C	 1.8653584508	 1.2017654844	 2.8244124096	-0.135645
C	 1.6586593775	-0.1803478242	 2.1098607676	-0.131982
C	 0.6431744006	-0.7433046122	 1.1429663794	-0.138383
H	 0.7408843687	 2.1021213553	 0.2476641688	 0.144674
H	-0.367258444	 1.8564538998	-1.094227103	 0.124152
H	-0.985314459	 1.8420346575	 0.5625425931	 0.113619
H	-0.7543467592	-0.5050958287	-0.4763856768	 0.091859
H	 1.4818594658	-1.4652538987	-0.9292629527	 0.093172
H	 2.1836088418	 1.1634149572	 3.8669253539	 0.129517
H	 1.0826206761	 1.9456061905	 2.6710705142	 0.137012
H	 2.0934218859	-0.9724518051	 2.7251131941	 0.11061
H	 0.133552852	-1.6579782884	 1.4192012929	 0.091276
