21
gdb 121501	3.50426	0.70722	0.64685	1.504	83.44	-0.2449	0.0255	0.2704	1815.0683	0.181712	-420.370676	-420.360613	-420.359669	-420.407162	35.521	
C	-0.1650547139	 1.0043007238	-0.937683555	-0.37444
C	-0.1879165812	-0.2693941938	-0.103186805	-0.07208
O	 0.9787715697	-1.0662111333	-0.3226656864	-0.202003
C	 0.9146565464	-1.9637080842	-1.3273320785	 0.121884
N	 1.9425514293	-2.6134261443	-1.6549603665	-0.245684
C	 1.8664136643	-3.6101548906	-2.7117212374	-0.156727
C	 0.5794208746	-3.7120518377	-3.5028848368	 0.004414
C	 0.1229119473	-5.0187454499	-4.0321727014	-0.251417
N	-0.6089769804	-4.3734160716	-2.9267875473	-0.318468
H	 0.7444411741	 1.5766389722	-0.7357430227	 0.137191
H	-0.1955166612	 0.7749729939	-2.0074671405	 0.124932
H	-1.0311246672	 1.6295616122	-0.6977114932	 0.120615
H	-0.1823698711	-0.0351660956	 0.9648719326	 0.121067
H	-1.089999137	-0.8604393673	-0.3107347258	 0.111057
H	-0.0835654218	-2.0668301069	-1.7730340774	 0.103516
H	 2.6946524111	-3.4119370316	-3.4060373843	 0.115818
H	 2.0901359366	-4.5903250492	-2.2642012955	 0.101546
H	 0.3264146176	-2.8223436411	-4.0780942987	 0.094233
H	-0.4180948731	-5.0677587436	-4.9726984917	 0.119747
H	 0.727337098	-5.8958222518	-3.8132206676	 0.113386
H	-0.3497724819	-4.8203548096	-2.0491912209	 0.231413
