19
gdb 8895	4.36588	1.13095	1.02721	1.6664	69.01	-0.2157	0.0156	0.2312	1226.5163	0.16346	-402.221682	-402.211754	-402.21081	-402.257007	34.002	
C	-0.0899384654	 1.5094747924	 0.1183531769	-0.314897
N	 0.4385057499	 0.164766392	-0.029807829	-0.286067
C	 0.7828594743	-0.5312617396	 1.1990920303	-0.064556
C	-0.3299483399	-0.6349176375	 2.2716582614	-0.406331
C	 1.1950675499	-1.9464036073	 0.8183422486	 0.462346
O	 0.7304867746	-2.5703860628	-0.1035327332	-0.372318
O	 2.1075492346	-2.4409997785	 1.6741763863	-0.233505
C	 2.4998554364	-3.7996963876	 1.4356244346	-0.242339
H	 0.6446426271	 2.1368373678	 0.637742708	 0.117767
H	-0.2441035411	 1.9415241261	-0.8749776673	 0.121762
H	-1.0420006496	 1.5889619859	 0.6700105937	 0.097144
H	-0.1708661582	-0.4257459214	-0.5849015126	 0.229175
H	 1.6490611859	-0.0350903742	 1.6532542246	 0.099355
H	-0.6371568766	 0.3589815538	 2.606089909	 0.123433
H	-1.2068064802	-1.1505940906	 1.86613053	 0.124661
H	 0.0275901524	-1.1893529124	 3.1443935586	 0.126304
H	 1.6371756718	-4.4675494837	 1.5013894394	 0.140257
H	 2.9471715504	-3.9011875051	 0.4438703654	 0.144102
H	 3.2286387236	-4.0383796072	 2.2101215451	 0.133707
