16
gdb 25621	3.46585	0.98371	0.77361	2.1321	87.	-0.216	-0.0185	0.1974	1449.9899	0.123507	-400.773089	-400.763993	-400.763049	-400.809348	31.18	
C	-0.1624547917	 1.4777881144	-0.0204378669	-0.511656
C	-0.0644970034	 0.0278321035	-0.0159939125	 0.225067
C	 0.0130881811	-1.1771705468	-0.0122895909	-0.093705
C	 0.1282999397	-2.5741814552	-0.0082166394	 0.131654
C	 1.1914067618	-3.4359440661	-0.0103709971	 0.142389
C	 2.6471733823	-3.1239508514	-0.0178961615	-0.503063
N	 0.7108605792	-4.7392693392	-0.0039850333	-0.29378
C	-0.5761533062	-4.6100982905	 0.0016304318	 0.051076
O	-1.0234340801	-3.3413384147	-0.0003172414	-0.179662
H	 0.8328211931	 1.9353064918	-0.0224964483	 0.156184
H	-0.6963275745	 1.8391677716	-0.9065386708	 0.155628
H	-0.6951127104	 1.8445562848	 0.8641736517	 0.15566
H	 3.1399882757	-3.5452436733	 0.8647977565	 0.141247
H	 3.133539053	-3.5588180571	-0.8975167338	 0.141288
H	 2.8101210399	-2.0439410522	-0.0266015184	 0.13377
H	-1.3244845996	-5.3875975796	 0.0075759744	 0.147904
