21
gdb 93964	3.99942	1.02941	0.97928	1.173	77.67	-0.2486	0.0727	0.3213	1291.46	0.183429	-424.214738	-424.206017	-424.205073	-424.248627	33.352	
O	-0.3366137879	 1.2894761473	 0.786389241	-0.444158
C	 0.0396339491	 0.1519254374	 0.0245026228	 0.135947
C	 0.7740638511	-0.8849589057	 0.8728712228	-0.113883
O	-0.2635829798	-1.563173352	 1.580108671	-0.283432
C	-1.4585553623	-1.5919926567	 0.7710132469	 0.09867
C	-1.1706713002	-0.6756218033	-0.4414426113	-0.27493
C	-1.8407004338	-3.0108842436	 0.4009746126	-0.000069
C	-0.7908192025	-4.0567580017	 0.1267340861	-0.265258
C	-1.6419173587	-4.1420619915	 1.3724119801	-0.271386
H	-0.6931005881	 0.9700296972	 1.6232516786	 0.289412
H	 0.64140344	 0.5288967071	-0.806143331	 0.087596
H	 1.3497522876	-1.5781549438	 0.2405722129	 0.090031
H	 1.4476710893	-0.4312098972	 1.6051069077	 0.113371
H	-2.2621553337	-1.1669954262	 1.3891824606	 0.076351
H	-2.0148644809	-0.0354204338	-0.7035778927	 0.112411
H	-0.9035082298	-1.2779865551	-1.3160033509	 0.106627
H	-2.7365632687	-3.0549441702	-0.214195075	 0.082901
H	-0.9669945429	-4.7655031555	-0.6747516322	 0.107234
H	 0.247848742	-3.77952153	 0.2642557335	 0.119463
H	-1.1552875167	-3.9043479166	 2.311165777	 0.126306
H	-2.4019257234	-4.9132472961	 1.4316333794	 0.106797
