17
gdb 43956	3.45196	1.45161	1.42179	4.2991	72.32	-0.2635	-0.0029	0.2606	970.8567	0.137677	-421.755648	-421.749036	-421.748092	-421.786495	27.309	
O	-0.3636066698	 0.0567895325	-0.7127242928	-0.295239
C	-0.1382438827	 1.0998429139	-0.2057954769	 0.357055
O	-1.0895883029	 2.0398348458	 0.2695467155	-0.319224
C	 0.0079086284	 2.7123026607	 0.9956569474	 0.393048
C	 0.9037638765	 3.9952860753	 1.0464862428	-0.320547
C	 2.0335417023	 2.8432698248	 1.0882155578	-0.091751
C	 1.7899722054	 2.2078012464	 2.4604909922	-0.204723
C	 0.2381883482	 2.0919225106	 2.3899861491	-0.25564
C	 1.0262722792	 2.1056298748	 0.0989857097	-0.164569
H	 0.9272195302	 4.5742887995	 0.1243314914	 0.12558
H	 0.8302632735	 4.64519664	 1.9228796939	 0.107777
H	 3.0550403071	 3.0651834075	 0.7826100913	 0.090038
H	 2.2798734087	 1.2373236016	 2.5659363107	 0.116191
H	 2.1385271107	 2.8534403733	 3.271320483	 0.10731
H	-0.2796419262	 2.6465326361	 3.1764085067	 0.109688
H	-0.1074703317	 1.0558946226	 2.4235559585	 0.120095
H	 1.0544599931	 2.6738436745	-0.8382166102	 0.12491
