18
gdb 106249	2.69793	1.28488	1.07667	3.622	73.01	-0.2453	0.0078	0.2531	1184.1224	0.146653	-439.079877	-439.070993	-439.070048	-439.113517	33.221	
C	 0.0632022685	 1.5270340459	-0.1397308337	-0.38252
C	 0.0234076178	 0.007059106	 0.0697367862	-0.27755
C	-1.3735376754	-0.541570736	 0.0449633766	 0.355943
N	-2.3119706537	-0.2438619417	 1.1416871964	-0.389128
C	-2.8397123775	-1.5524951494	 1.1248828657	 0.443803
O	-3.7239777189	-2.0594559692	 1.7528013461	-0.345124
C	-1.884919911	-1.9945393057	 0.0312490384	-0.39189
C	-2.1081328534	-1.0440551215	-1.1521492111	 0.05814
O	-3.3569161121	-0.5202031937	-1.472149542	-0.418984
H	 1.0924473503	 1.8962455562	-0.1150136073	 0.119141
H	-0.3748217574	 1.806244068	-1.1033920105	 0.124569
H	-0.4952281097	 2.0440340403	 0.6472200791	 0.126153
H	 0.6106020898	-0.4928684361	-0.7094690039	 0.103688
H	 0.4842593327	-0.2477261335	 1.0311136839	 0.115282
H	-2.936089528	 0.5553788915	 1.1022235094	 0.24617
H	-1.352153702	-2.9317059488	-0.0570077028	 0.115089
H	-1.4765255183	-1.2814825944	-2.0112547762	 0.099069
H	-3.9339270318	-1.2432416979	-1.7413495942	 0.298151
