17
gdb 99838	2.1176	1.34883	1.19363	3.9923	69.02	-0.2527	-0.0056	0.2471	1142.2343	0.13618	-451.354459	-451.344441	-451.343497	-451.38934	36.224	
N	 0.0907070277	 1.5113762984	-0.016204194	-0.529845
C	 0.0902449698	 0.0494304558	-0.0636306511	-0.187411
C	 0.8820017227	-0.5005493358	 1.1526141626	-0.017453
N	 2.2541622814	 0.0170605782	 1.2591470438	-0.538878
C	 0.1624299011	-0.1144999347	 2.3827126351	 0.320667
N	-0.428531659	 0.2112718744	 3.3210549788	-0.341756
C	 0.9031619798	-2.0620413717	 1.099542942	 0.391758
N	 1.9418594755	-2.6025700861	 1.7760337802	-0.517829
O	 0.0563873097	-2.6905866674	 0.5009014679	-0.357729
H	-0.16983378	 1.8897452244	-0.9199150166	 0.240229
H	-0.6055223067	 1.8389381208	 0.6473996059	 0.248365
H	-0.8990640504	-0.4219424857	-0.0837294704	 0.132473
H	 0.6209230972	-0.2749808254	-0.9649047644	 0.111744
H	 2.7597648715	-0.2625131439	 0.4206212387	 0.238233
H	 2.1929295127	 1.0332015371	 1.2183554751	 0.256991
H	 2.6017898945	-2.0022947761	 2.2444321127	 0.28168
H	 2.0122595022	-3.6043812424	 1.8416093837	 0.268762
