21
gdb 119593	4.08823	0.99468	0.90852	0.8691	84.74	-0.2265	0.0208	0.2472	1385.4815	0.182163	-387.081337	-387.072509	-387.071565	-387.115264	33.773	
C	-0.1484527469	 1.5508377803	-0.093882002	-0.386243
C	-0.0767627028	 0.0407822328	-0.2413042065	-0.056177
O	-1.2526548469	-0.5166200818	 0.3310802622	-0.298987
C	-1.3483607246	-1.897990071	 0.2110501393	 0.435531
C	-1.6946754654	-2.5226032839	-1.1260123273	-0.338106
C	-2.6914499981	-2.5658861449	 0.0163769834	-0.120367
C	-2.7272914512	-3.8060578692	 0.9063424569	-0.278358
C	-1.342769895	-3.837941091	 1.523559566	-0.073111
C	-0.6054250968	-2.786715939	 1.1613077685	-0.151291
H	 0.7424492951	 2.0186332853	-0.523654509	 0.113318
H	-1.0304886463	 1.9444514871	-0.60719627	 0.124923
H	-0.2139852766	 1.8317357897	 0.9611012276	 0.127213
H	-0.0030393436	-0.246977736	-1.3010609488	 0.090744
H	 0.8193161818	-0.3521822797	 0.2640695429	 0.088743
H	-1.9406214439	-1.8384721576	-1.9321315905	 0.111437
H	-1.1841296175	-3.4309540417	-1.4308040161	 0.108639
H	-3.5790065042	-1.953554658	-0.0851096745	 0.095186
H	-3.5070533651	-3.7347691611	 1.6762669001	 0.109944
H	-2.9412504964	-4.7188828441	 0.3350995459	 0.109889
H	-1.008274361	-4.6499391741	 2.1596273607	 0.093571
H	 0.4119652452	-2.586232892	 1.4766483513	 0.093501
