17
gdb 34629	2.4549	1.68323	1.09312	1.1356	84.68	-0.2134	-0.0254	0.188	1099.9948	0.134479	-384.648571	-384.640315	-384.63937	-384.681607	31.638	
C	 0.0897749939	-1.1637587762	-0.1360127674	-0.444049
C	 0.0029409446	 0.0362990166	-0.0733992794	 0.245
C	-0.0379689688	 1.4471210442	-0.0051048303	 0.14681
C	-1.1058941122	 2.2418601542	 0.1409081089	-0.252379
C	-0.668702573	 3.67638695	 0.1609675881	-0.125717
O	 0.7491167182	 3.639487345	 0.0136962581	-0.308122
C	 1.1844954682	 2.3004189279	-0.0920471218	 0.36012
C	 2.507965226	 1.9314274189	 0.5187324304	-0.328593
C	 2.3526782756	 2.0000240301	-0.9897874508	-0.328607
H	 0.1466960778	-2.2227819789	-0.1902904848	 0.197407
H	-2.1349068449	 1.9226091639	 0.2322827468	 0.114
H	-1.114989094	 4.2628669035	-0.6580145564	 0.11316
H	-0.9340984049	 4.1831219696	 1.1025778802	 0.113165
H	 3.0499688945	 2.7358628974	 1.0029904247	 0.125313
H	 2.6057652291	 0.9572087887	 0.9853307122	 0.123598
H	 2.3445617726	 1.0725905726	-1.5520872601	 0.123585
H	 2.7923108071	 2.8496802325	-1.4998820587	 0.125309
