15
gdb 124269	4.35947	1.08384	0.87744	1.5176	70.02	-0.2751	-0.084	0.191	1279.1662	0.110834	-453.972723	-453.964084	-453.96314	-454.006853	29.909	
C	-0.0262481617	 1.4780323405	-0.1048347656	-0.486838
C	-0.0674736631	-0.0262288584	 0.0298566793	 0.296469
O	-0.1280891967	-0.6108089032	 1.0826211998	-0.261042
C	-0.0287392343	-0.8112225915	-1.2514478719	 0.32171
N	-0.051383711	-2.0998924426	-1.4091045047	-0.317329
C	 0.006319125	-2.229681853	-2.7780994028	 0.3552
C	 0.0070443566	-3.5439575527	-3.4772665197	-0.48959
N	 0.0612045228	-1.0879195586	-3.4238024533	-0.158406
O	 0.0381697006	-0.1342643394	-2.4090779373	-0.194068
H	 0.8836325676	 1.7893256504	-0.6286701727	 0.158199
H	-0.8704545327	 1.8303975903	-0.7067851691	 0.15821
H	-0.060001538	 1.9255135419	 0.8883139477	 0.151503
H	-0.899751213	-4.1029191933	-3.2288195617	 0.156326
H	 0.0581764051	-3.3999036876	-4.5571987423	 0.153333
H	 0.8617447128	-4.1434276228	-3.1508236456	 0.156323
