15
gdb 66401	2.28437	1.58644	1.30909	2.2673	72.08	-0.2303	-0.0053	0.225	1022.2802	0.112013	-416.755655	-416.747377	-416.746433	-416.788321	31.477	
N	-0.1356689966	 1.5216052328	 0.0902893785	-0.602046
C	-0.0660110974	 0.1176714869	-0.0635831163	 0.139777
C	-1.1832585241	-0.9132080741	-0.1097385266	-0.0557
N	-0.4715823791	-1.6502974154	-1.1521331679	-0.344494
C	 0.6270918444	-0.7545384242	-1.1201988	 0.349265
O	 1.6562060887	-0.7290633356	-1.7282523847	-0.330659
C	-0.3624596621	-0.7955811743	 1.1544752562	-0.258454
C	 0.5153272109	-1.8339904274	 1.6095538106	 0.318848
C	 1.2413919488	-2.7169274834	 1.983442294	-0.422957
H	 0.7175529483	 1.8841957089	 0.5042321763	 0.250138
H	-0.2584420629	 1.981667703	-0.8064000804	 0.247019
H	-2.2520988116	-0.7546018502	-0.1578115396	 0.124912
H	-0.323146691	-2.6520208005	-1.0911455019	 0.24945
H	-0.8511085693	-0.2173691511	 1.9363421025	 0.131736
H	 1.8921267331	-3.4868738356	 2.3173944492	 0.203164
