17
gdb 126432	1.95416	1.7462	0.98654	1.8575	83.32	-0.2234	0.0027	0.2261	1192.0002	0.136374	-380.873723	-380.864983	-380.864038	-380.907571	32.427	
C	 0.1203152057	 1.5081326043	 0.129370312	-0.377777
C	-0.0699964231	-0.0009162324	-0.1026388709	-0.300512
C	 0.7090857138	-0.5139840116	-1.2738505124	 0.257673
N	 0.1166840515	-0.8032957112	-2.4261224592	-0.278274
N	 1.1164959414	-1.2079010562	-3.239997459	-0.18649
C	 2.3274624725	-1.1898830927	-2.6475263007	-0.14355
C	 2.1200581022	-0.7405646784	-1.3521803909	 0.040005
C	 3.0821077243	-0.5548435912	-0.3353160438	 0.247292
C	 3.8844780726	-0.3906515472	 0.5486727779	-0.464554
H	 1.1714523394	 1.7444876851	 0.3184232475	 0.131444
H	-0.2049322418	 2.0795910045	-0.745204429	 0.122575
H	-0.4636595377	 1.8421758345	 0.9925577273	 0.111426
H	 0.2374195869	-0.5453719857	 0.7976996163	 0.113635
H	-1.1273114535	-0.2236359586	-0.2736284443	 0.117965
H	 0.895335357	-1.4896040773	-4.1797198384	 0.27878
H	 3.2282778101	-1.4889805967	-3.1586730811	 0.144717
H	 4.5951578087	-0.2481205891	 1.3241555485	 0.185646
