17
gdb 4918	6.59189	1.21238	1.03712	0.834	72.78	-0.1598	0.0633	0.2231	1124.2687	0.143763	-360.060936	-360.052477	-360.051533	-360.093574	31.331	
C	-0.0095209121	 1.4165285154	 0.067180681	-0.316505
N	 0.019428013	-0.0117003858	-0.1840189178	-0.381762
C	-1.1899521182	-0.7057968148	-0.0461925987	 0.321346
C	-2.4599334291	-0.176300332	 0.0117090234	-0.187086
N	-3.3514244212	-1.2451542895	 0.0443164406	-0.288246
C	-2.6605433821	-2.4231844828	 0.0418467736	 0.322612
N	-3.363557346	-3.6399780054	 0.1626028851	-0.608402
C	-1.3164139083	-2.133029098	-0.0290199084	-0.340292
H	 1.0049486201	 1.8179646113	 0.0013382638	 0.113757
H	-0.6139650091	 1.9121994743	-0.701409387	 0.125642
H	-0.4340879186	 1.6864491141	 1.0495086102	 0.100953
H	 0.7735121162	-0.4724944929	 0.3064398389	 0.225717
H	-2.8116816029	 0.840284622	-0.0056133591	 0.101704
H	-4.3271605632	-1.1778851823	 0.27330782	 0.251878
H	-3.8657939835	-3.878116091	-0.6882004781	 0.241773
H	-2.7233711793	-4.3984730859	 0.3624272215	 0.244441
H	-0.5129986058	-2.8501757065	-0.1085290589	 0.07247
