19
gdb 62028	4.1077	0.67105	0.62339	5.3954	74.56	-0.241	0.0192	0.2602	1766.0947	0.157634	-456.404478	-456.39378	-456.392836	-456.442867	36.238	
C	-0.2724584742	 1.4046482246	 0.0126691585	-0.348459
N	 0.0081501278	-0.019289941	-0.0395644799	-0.030958
C	-0.005449318	-0.7888587765	 1.1898845292	-0.177786
C	-1.4107673238	-0.9898575415	 1.7746627842	-0.321868
C	-1.379125676	-1.9546441073	 2.9600546117	 0.422884
N	-2.4627002489	-1.885668673	 3.7862621819	-0.523464
O	-0.4594564148	-2.7268120345	 3.1518027739	-0.355392
C	 0.3199646476	-0.6007411591	-1.2346623197	 0.148519
O	 0.3570632699	-0.0353239958	-2.3074905059	-0.343609
H	 0.3804254543	 1.8965320015	 0.7436985745	 0.123722
H	-0.0876109847	 1.8155586262	-0.9799999565	 0.170148
H	-1.3142638776	 1.604409568	 0.2902853077	 0.121413
H	 0.4320273792	-1.771171655	 0.9992458625	 0.14588
H	 0.6354656877	-0.3011606698	 1.9350923937	 0.118727
H	-1.8588195263	-0.0371348803	 2.0773979716	 0.113977
H	-2.0672821664	-1.4145674951	 1.0041266038	 0.136923
H	-3.2602617353	-1.3112622516	 3.5771000187	 0.259772
H	-2.5398252279	-2.5668167187	 4.52417156	 0.26395
H	 0.5444315574	-1.6786878911	-1.1149709799	 0.075623
