19
gdb 88125	2.55688	1.49499	1.11045	3.4989	76.81	-0.2444	0.0239	0.2682	1143.2052	0.161413	-419.240612	-419.232126	-419.231182	-419.273727	32.033	
C	-0.1664772055	 1.5436188472	 0.1364054527	-0.401402
C	-0.0951484673	 0.0384843339	 0.1894269301	-0.041459
N	 1.1285814501	-0.5940426269	-0.3151913351	-0.382558
C	 0.8237726082	-0.6948027649	 1.113458107	 0.234112
C	 1.7308917095	-0.1083962462	 2.1811275817	-0.317629
C	 1.3303424255	-0.8837927249	 3.4627971301	-0.170577
N	 0.7235766657	-2.1005798566	 2.9385663826	-0.329504
C	 0.3439924198	-2.0282926732	 1.6306553858	 0.372679
O	-0.2477415318	-2.8736421506	 0.9870040622	-0.404408
H	 0.8151010599	 1.9906540906	 0.3128941149	 0.126894
H	-0.5079237362	 1.8720411699	-0.8509108635	 0.127061
H	-0.8701941568	 1.9316433447	 0.8809666547	 0.115678
H	-1.0267085847	-0.4838694536	-0.0229198938	 0.10415
H	 0.8907993417	-1.4910864484	-0.7411013554	 0.243019
H	 2.7746139508	-0.3109025614	 1.9230022391	 0.126323
H	 1.6220563841	 0.9699648338	 2.3100772949	 0.114418
H	 2.1937804189	-1.1140008137	 4.0939873545	 0.118027
H	 0.6155174295	-0.3114297318	 4.0695049478	 0.111468
H	 0.4142151186	-2.8615777778	 3.5217177498	 0.253706
