16
gdb 25642	6.59311	0.73147	0.66171	1.5277	90.33	-0.1885	-0.0067	0.1817	1667.3635	0.12395	-400.753085	-400.743964	-400.743019	-400.788812	32.386	
C	-0.1258543037	 1.4516109746	 0.031028346	-0.511045
C	-0.0244396201	 0.0022086002	-0.0017540068	 0.23893
C	 0.0565751047	-1.2020037195	-0.0310243437	-0.108209
C	 0.1648061802	-2.6027323204	-0.0620977954	 0.249363
C	 1.2398169701	-3.4435305854	 0.061094034	-0.387316
C	 0.7367028375	-4.7770506473	-0.0516938896	 0.253501
N	 1.50904124	-5.9465362991	-0.0562768377	-0.611906
C	-0.6117368115	-4.6486048807	-0.2360880977	-0.11469
O	-0.9727647128	-3.3328681376	-0.2496639855	-0.182913
H	 0.4914767314	 1.9142962578	-0.7475094456	 0.151454
H	-1.1604185733	 1.7728713027	-0.131873272	 0.155365
H	 0.1984641622	 1.8551242086	 0.9971444173	 0.150694
H	 2.2652416235	-3.1424712959	 0.2077654536	 0.106972
H	 2.2894142936	-5.9000766297	 0.5859561121	 0.245997
H	 0.9674656078	-6.7785609264	 0.1383210136	 0.243563
H	-1.4091585895	-5.3588995119	-0.3765486527	 0.120241
