18
gdb 108539	3.05488	1.73785	1.2889	1.0925	71.06	-0.2364	0.069	0.3054	988.0021	0.148687	-438.997421	-438.990004	-438.98906	-439.029328	29.108	
C	 0.494120967	 0.7236130054	 0.4662434009	-0.235166
O	-0.571984479	 0.5776612674	-0.4632058212	-0.308624
C	-1.5396349096	-0.3608310115	-0.2076569877	 0.422256
C	-2.6064336745	-0.3872377174	-1.3007745913	-0.135924
O	-3.4867509279	-1.4178215134	-0.8272233642	-0.276891
C	-2.8569355834	-1.8059558671	 0.3686501691	 0.135482
C	-1.3062103517	-1.8585131181	 0.2291292727	-0.158477
N	-1.1298644886	-1.4131385218	 1.6609826976	-0.348389
C	-2.2915944191	-0.5890162224	 1.1601197284	-0.158478
H	 1.131986084	 1.5140492384	 0.063498508	 0.118643
H	 0.1314075077	 1.0120928435	 1.4581105921	 0.125776
H	 1.0724316919	-0.2002671445	 0.5691087855	 0.12578
H	-3.1396862636	 0.5663754438	-1.3858543567	 0.113024
H	-2.1930493948	-0.6532031226	-2.2802390754	 0.113025
H	-3.3925139343	-2.6012182045	 0.8861997708	 0.093302
H	-0.679072678	-2.6202663596	-0.2356517039	 0.082723
H	-1.48216338	-2.1453560508	 2.2865514155	 0.209213
H	-2.8172732363	 0.1344334052	 1.78451825	 0.082723
