19
gdb 40269	2.85762	1.48209	1.11577	2.7712	77.55	-0.245	0.0194	0.2645	1120.1404	0.160005	-422.997781	-422.989779	-422.988834	-423.030757	30.768	
C	-0.1058906375	 1.5674787931	 0.1397179813	-0.232397
O	 1.1290685736	 0.8717224726	 0.2980844631	-0.264309
C	-0.0409003384	 0.1062652415	-0.0244483053	 0.414742
C	-0.5151654026	-0.7731472664	 1.1149521209	-0.155707
O	 0.4021676086	-1.8071066593	 1.4000477576	-0.228387
C	 0.2545877947	-2.9881804298	 0.6469425582	-0.127604
C	 0.4983165289	-2.9022705622	-0.8376010981	-0.063784
C	 0.3777028162	-1.8713537246	-1.6726805003	-0.051767
C	-0.0829162165	-0.4556936188	-1.4336748724	-0.336653
H	-0.5253140325	 1.9958272929	 1.0497386282	 0.110366
H	-0.1803324573	 2.2023779211	-0.7429292774	 0.108596
H	-0.5837482262	-0.1697441335	 2.0251998097	 0.10658
H	-1.5163614237	-1.1792233475	 0.8941752581	 0.087952
H	 0.9724359234	-3.6931943235	 1.0810825328	 0.118751
H	-0.7491445816	-3.4246517819	 0.8156440308	 0.096179
H	 0.7853475757	-3.8593920863	-1.2717085931	 0.089098
H	 0.5852769173	-2.07263708	-2.7225067299	 0.090576
H	-1.1194024529	-0.3814004027	-1.8014820602	 0.117008
H	 0.5008175407	 0.2199579052	-2.0691818641	 0.12076
