12
gdb 49120	3.64224	1.18754	0.89555	3.9249	67.2	-0.2576	-0.1338	0.1238	1161.2	0.076959	-472.681802	-472.674264	-472.67332	-472.714302	27.017	
O	 0.054708724	-0.035402241	-0.0021313421	-0.25765
C	 0.0117348642	 1.1721464755	 0.0086999039	 0.105402
C	 1.2343379551	 1.9997163515	 0.0019782294	 0.282873
C	 1.3197613192	 3.3529813241	 0.0128352214	-0.333416
C	 2.7499100065	 3.6947654034	-0.0003313877	 0.303607
O	 3.3035047151	 4.7635303328	 0.0028696189	-0.279617
C	 3.4979573782	 2.3041088103	-0.0208607713	 0.341215
O	 4.6793184694	 2.0970220273	-0.0356420809	-0.304985
N	 2.4719126989	 1.3703520491	-0.0175542823	-0.405661
H	-0.938571396	 1.7384784421	 0.0243768653	 0.114263
H	 0.4962261538	 4.0499089094	 0.0282377841	 0.146212
H	 2.5751247815	 0.3673731556	-0.0269822888	 0.287759
