23
gdb 57333	1.98563	1.4251	1.28148	1.2475	86.85	-0.2572	0.0555	0.3127	1197.856	0.200506	-388.267724	-388.256254	-388.25531	-388.302868	43.847	
C	-0.0721529174	 1.5567597028	 0.0836052805	-0.435224
C	 0.006138539	 0.0226675337	 0.0440346064	 0.35788
C	 0.6917589075	-0.4899881212	 1.3200581693	-0.435209
O	-1.3175663683	-0.5218881238	-0.0395823722	-0.475756
C	 0.7267284932	-0.4969752491	-1.2613133974	 0.07589
C	 0.7491339035	-2.0465072611	-1.2919486408	-0.423716
C	-0.0154215449	-0.0008231087	-2.528411508	-0.423713
C	 2.1073402524	-0.0019435669	-1.2959841731	 0.338906
C	 3.2443114197	 0.3869398427	-1.3556914904	-0.4965
H	 0.9224735457	 2.0067233368	 0.0279481625	 0.132467
H	-0.6800822674	 1.9423725002	-0.7369066507	 0.123747
H	-0.5347679749	 1.8795900903	 1.0234394017	 0.09922
H	 0.19318673	-0.0711979432	 2.2018531375	 0.099223
H	 0.6338911659	-1.5778025329	 1.389561881	 0.123754
H	 1.7421018756	-0.1892889369	 1.3547178259	 0.132452
H	-1.8014810138	-0.231600691	 0.7400086464	 0.276745
H	-0.2670362088	-2.4311265668	-1.1855448366	 0.134681
H	 1.1617614382	-2.3898736025	-2.2442149068	 0.115647
H	 1.3699787626	-2.4611340538	-0.4955327775	 0.119317
H	 0.0453113347	 1.0835692442	-2.6381514136	 0.119309
H	 0.4358287121	-0.4479687196	-3.4180220157	 0.115642
H	-1.0659722349	-0.2934118737	-2.4774674969	 0.134703
H	 4.2473658402	 0.7320568005	-1.4048252012	 0.190534
