14
gdb 25069	3.859	1.00534	0.84924	5.0743	68.52	-0.21	0.008	0.218	1276.7138	0.102452	-432.939313	-432.931241	-432.930297	-432.972804	29.167	
O	 0.0736985927	-0.0235929972	 0.2181491417	-0.419294
C	-0.0030977951	 1.1803493988	 0.1046240898	 0.449918
N	-1.1276459821	 1.9586281571	-0.1569159398	-0.334759
C	-0.8127429865	 3.3124003592	-0.1780161997	-0.18147
C	 0.5131850489	 3.4235992118	 0.0462099668	 0.341152
C	 1.3826907949	 4.639458293	 0.0746791562	-0.452688
C	 2.1529658896	 4.768695024	 1.3184343392	 0.25892
N	 2.7712936264	 4.8457333552	 2.2910246187	-0.296909
N	 1.0128002148	 2.1300782449	 0.1994772924	-0.402885
H	-2.0393750072	 1.5512053372	-0.26443514	 0.274339
H	-1.5485633774	 4.0755339669	-0.3650922578	 0.146474
H	 2.0965339117	 4.6383773648	-0.7607462897	 0.168218
H	 0.757357101	 5.5291981097	-0.0483538727	 0.170946
H	 1.9438226083	 1.8794800547	 0.485626925	 0.278038
