14
gdb 17715	6.86307	1.49858	1.4415	3.8752	62.15	-0.2431	0.0086	0.2517	844.3197	0.107319	-382.476628	-382.470325	-382.469381	-382.506956	24.437	
O	 0.0050532914	 1.47184297	-0.0461220707	-0.435837
C	 0.0559457818	 0.0700290253	-0.0028689162	 0.101886
C	 0.0079786027	-0.6325714052	 1.3718963838	-0.079114
C	-1.5221835967	-0.277656541	 1.5600951423	-0.194537
C	-1.3178781829	-0.60397353	 0.0263421688	-0.048246
C	-0.7313703422	-1.880317366	 0.747169687	-0.210767
C	-1.8107778174	-1.7524848426	 1.8198228143	 0.449482
O	-2.5022364431	-2.4452736606	 2.5011885567	-0.330322
H	 0.9038216128	 1.8147079883	-0.0275850521	 0.288224
H	 0.7802833843	-0.3341866162	-0.7239811115	 0.07362
H	 0.7467247383	-0.6776725406	 2.1722490563	 0.091007
H	-1.9298536783	 0.6369296821	 1.9799844453	 0.104524
H	-2.1045432567	-0.6095893037	-0.7271419585	 0.095502
H	-0.2668256242	-2.7401211398	 0.2693065247	 0.094579
