20
gdb 116922	4.53873	0.57222	0.53719	1.0189	86.99	-0.2214	0.0387	0.2601	2061.0918	0.168895	-403.082246	-403.071751	-403.070807	-403.119892	36.529	
C	-0.3425039531	 1.3690093177	 0.0773693499	-0.308309
N	 0.0353566639	-0.0379272576	 0.0623744795	-0.079199
C	 1.4088738771	-0.3466457515	-0.2889653391	-0.238043
C	 0.9374240898	-0.526597021	 1.125715085	-0.178589
C	 1.4268820334	 0.334662228	 2.1676437045	 0.123505
C	 1.817791938	 1.0340023807	 3.0692059467	 0.019319
C	 2.2722271195	 1.8793614927	 4.1649853201	-0.327299
C	 1.1575183107	 2.2018742969	 5.1668942044	-0.062042
O	 1.7294014984	 3.0252611395	 6.1685160557	-0.415154
H	 0.4579273807	 2.0416311254	 0.4188418226	 0.112182
H	-0.6357935101	 1.6576410291	-0.9366848247	 0.122256
H	-1.2061223186	 1.5021714869	 0.735997288	 0.124253
H	 1.5606234234	-1.2172946225	-0.9218861205	 0.118101
H	 2.0940724218	 0.4806790913	-0.466831356	 0.115563
H	 0.6932677937	-1.5358272641	 1.4505099084	 0.111091
H	 3.0936301269	 1.3936743254	 4.7061677581	 0.139153
H	 2.6743765176	 2.8242519431	 3.7792702132	 0.137377
H	 0.3321588847	 2.7077828156	 4.6439822125	 0.097513
H	 0.7604730675	 1.2649336535	 5.5850133469	 0.098829
H	 1.0472367648	 3.2369847905	 6.8120174347	 0.289494
