16
gdb 44348	3.7963	1.53437	1.27283	1.9617	76.06	-0.2356	-0.0627	0.1729	966.489	0.125168	-400.667385	-400.660611	-400.659667	-400.698559	27.187	
O	 0.0792168129	-0.0755319155	 0.2531083364	-0.301384
C	 0.0316384011	 1.1077923748	 0.0387936224	 0.361848
C	-1.2957173288	 1.9168978485	 0.0264012224	-0.345725
C	-1.3071278109	 3.0224629427	-1.0360496571	 0.012005
C	-0.1039391789	 3.2260310441	-1.8501124596	-0.127314
N	-0.6560869628	 4.4215884221	-1.1248567204	-0.167562
C	 0.6909613437	 4.5789723239	-0.4059788233	-0.194689
C	 0.9893961896	 3.155339662	-0.8115338187	 0.167333
C	 1.1571577101	 2.1005437992	-0.0069678036	-0.265339
H	-2.129482179	 1.2338637176	-0.1623875678	 0.132908
H	-1.4350735735	 2.3118545411	 1.040961267	 0.136806
H	-2.2634516501	 3.1242509068	-1.5415925745	 0.117636
H	-0.0052319701	 3.1724046246	-2.9288664156	 0.106114
H	 1.2107611328	 5.3787598658	-0.940429206	 0.129785
H	 0.656330188	 4.7986886861	 0.6653657658	 0.116557
H	 1.742405776	 2.1767571963	 0.9083329526	 0.121019
