19
gdb 39149	2.78048	2.05293	1.38543	1.4007	80.31	-0.2222	-0.0181	0.2041	957.4207	0.162239	-385.848875	-385.841956	-385.841012	-385.880202	28.07	
C	 0.0398195854	 1.5277966369	-0.0141272766	-0.234272
C	 1.5511664103	 1.9300318097	-0.1971811857	-0.303687
C	 2.2016663372	 0.6074159992	-0.5551380118	 0.21293
C	 1.4608137495	-0.4254524303	-0.1369382411	-0.054736
C	 0.0254748801	-0.0199836598	-0.0181206476	 0.104876
O	-0.1704640127	-0.6917929775	-1.3277290171	-0.332852
C	 1.1618864986	-1.3454041984	-1.2784504028	 0.104876
C	 2.1763193554	-0.9640463005	-2.3835925133	-0.234273
C	 2.9939903121	 0.247234496	-1.7973497239	-0.303687
H	-0.3834972145	 1.9229107714	 0.9144358476	 0.102065
H	-0.57746394	 1.903519438	-0.8359997534	 0.119591
H	 1.695667679	 2.6644019483	-0.9961790893	 0.108769
H	 1.9554621471	 2.3841973511	 0.7147931676	 0.115871
H	-0.6546571032	-0.4675849775	 0.7126675542	 0.074115
H	 1.0213000769	-2.4222892194	-1.1460425227	 0.074115
H	 2.8191990447	-1.8124542875	-2.6374651623	 0.102066
H	 1.6392612165	-0.6818988314	-3.2944394126	 0.119591
H	 3.0414766784	 1.0947294672	-2.4887798598	 0.108769
H	 4.0315737694	-0.0371871155	-1.5877225693	 0.115871
