18
gdb 83660	2.56668	1.70679	1.31674	0.9848	71.06	-0.2429	0.0494	0.2922	1004.0867	0.148849	-439.013125	-439.005567	-439.004623	-439.045155	29.764	
O	 0.4820830197	 1.0363449681	-0.5731634709	-0.431493
C	 0.1356889756	-0.2167227092	-0.0616890761	 0.051652
C	 0.240211763	-0.3792272105	 1.4786437622	 0.064275
O	-0.1126164977	 0.8659562548	 2.1261887686	-0.308084
C	-1.457742637	 0.3854799652	 2.4075729104	-0.081469
C	-1.2359986891	-0.875138508	 1.5579950549	-0.172189
C	-1.3606646058	-0.6024659959	 0.0523994541	 0.316988
C	-2.4808303431	-0.0195618581	-0.7150767747	-0.30773
N	-2.1078547124	-1.4403719858	-0.8771160145	-0.3818
H	 0.2499915781	 1.6671749368	 0.1247482303	 0.289343
H	 0.7102767763	-0.9754311163	-0.6069988274	 0.087368
H	 1.116737591	-0.8539010858	 1.9239639323	 0.08145
H	-1.5809735477	 0.196526734	 3.4805077274	 0.10915
H	-2.2276775189	 1.0867493939	 2.0675311594	 0.110438
H	-1.5589964422	-1.8440064788	 1.9324399518	 0.094176
H	-3.4456563534	 0.1448115773	-0.2420902498	 0.117545
H	-2.2262406378	 0.6854861161	-1.5022150316	 0.126961
H	-1.5739285387	-1.5640752877	-1.7356839664	 0.233419
