20
gdb 63056	2.8905	1.58348	1.57833	1.9389	77.37	-0.2075	0.0694	0.2769	976.2882	0.17174	-403.083755	-403.076099	-403.075155	-403.11517	31.665	
C	-0.12716861	 1.6040732912	 0.004515124	-0.460925
C	 0.0456518523	 0.0941879249	 0.0126712117	 0.409313
O	-1.2170353548	-0.5554243139	-0.1283971795	-0.48047
C	 1.0648262263	-0.5909087258	-0.9499330203	-0.107825
C	 2.5106347075	-0.0678650611	-0.83592467	-0.192103
N	 2.7563762513	-0.8204913347	 0.4396684441	-0.149679
C	 2.1062518125	-0.1010110953	 1.5870304367	-0.195385
C	 0.7054627468	-0.6260869398	 1.2199882969	-0.069019
C	 1.438116207	-1.5644805076	 0.2116533724	 0.010373
H	 0.8150813341	 2.1342680215	 0.1651533242	 0.117602
H	-0.5323117647	 1.9375761771	-0.9592770085	 0.10617
H	-0.8310540998	 1.9034225293	 0.7873183514	 0.127349
H	-1.5576006233	-0.3458835851	-1.0057912532	 0.272395
H	 0.6790755527	-0.8821058057	-1.9299079688	 0.055748
H	 3.1548828995	-0.4718951441	-1.6236246167	 0.107525
H	 2.6786103329	 1.0134485928	-0.7762076993	 0.096021
H	 2.4654528614	-0.526111261	 2.5295809187	 0.109174
H	 2.2754763242	 0.9813186142	 1.6119169057	 0.096379
H	 0.0184795166	-0.9411462036	 2.005422503	 0.075444
H	 1.4272065676	-2.6524757533	 0.1923800373	 0.071912
