13
gdb 4047	6.30268	1.29968	1.09213	3.7377	57.53	-0.269	-0.0249	0.2441	988.0664	0.095044	-435.737249	-435.730107	-435.729162	-435.769327	25.653	
O	-0.1952654134	 1.3373858479	 0.0077602808	-0.3928
N	 0.0240067799	-0.0490798052	 0.002327717	-0.198922
C	-1.0815451733	-0.6730786439	 0.0082750826	 0.36392
C	-2.4686710476	-0.0736528231	 0.0197725607	-0.155532
O	-3.3720499449	-1.1830580733	 0.0238251676	-0.221222
C	-2.7275187632	-2.385202009	 0.0159570676	 0.44475
O	-3.3164609014	-3.4234016171	 0.0178695618	-0.324151
C	-1.215698626	-2.164773808	 0.005053013	-0.471794
H	 0.7007640628	 1.6912052654	 0.0026281953	 0.315214
H	-2.6414842435	 0.5424281485	 0.9086206089	 0.151123
H	-2.6544312677	 0.5464842537	-0.8636391217	 0.1511
H	-0.7825137006	-2.6404604545	-0.8798097866	 0.169152
H	-0.7689157711	-2.6455865713	 0.8803123729	 0.169161
