17
gdb 47737	2.59193	1.74659	1.17518	1.8167	69.08	-0.2399	-0.0308	0.209	1035.0532	0.136024	-458.960756	-458.953019	-458.952075	-458.993289	29.568	
O	-0.0245401414	 0.1201474402	 0.5625135592	-0.321954
C	-0.0044229781	 1.2456318622	 0.1151177342	 0.290726
C	-1.3034164125	 1.9584327699	-0.2660242121	-0.191217
O	-1.1276959333	 3.1589401837	-0.9979316526	-0.226797
C	-0.0471510546	 3.9072775947	-0.5160612375	-0.010424
O	 1.1728647677	 3.2432844182	-0.7285571322	-0.280843
C	 1.2533588496	 2.0450401372	-0.000675977	 0.313921
C	 2.1935289335	 2.0070378185	 1.2064307961	-0.302633
C	 2.5680214628	 1.321872306	-0.0726011421	-0.306868
H	-1.9132771366	 1.2824523259	-0.8701581618	 0.149789
H	-1.8483651546	 2.145606453	 0.6751486021	 0.128432
H	-0.0106714945	 4.8306138416	-1.0955764577	 0.125871
H	-0.177946032	 4.1297422342	 0.5592491323	 0.082765
H	 2.6777172106	 2.9479661543	 1.4405861098	 0.129655
H	 1.8902397894	 1.3956776398	 2.0482221866	 0.138769
H	 2.5164993486	 0.2401802141	-0.1076248651	 0.145324
H	 3.3164041452	 1.7901420465	-0.7011215423	 0.135485
