20
gdb 106579	2.71607	1.41115	1.25527	0.5062	78.91	-0.2305	-0.0024	0.2281	1113.8222	0.171544	-403.101293	-403.093008	-403.092064	-403.133933	33.035	
C	 0.005928607	 1.5433900015	 0.0477639969	-0.378242
C	-0.0137225892	 0.011240327	-0.0274229318	-0.320004
C	-1.4065721679	-0.573598015	-0.0206324369	 0.254392
N	-2.3241825711	-0.3120710419	 1.1719494941	-0.338531
C	-3.1033601453	-1.4718055036	 0.579372062	-0.114606
C	-3.5229297605	-0.8426035043	-0.7509081049	-0.086582
C	-2.3965130489	-0.2443366256	-1.15130006	-0.109628
C	-1.7234104993	-2.112530341	 0.1767791752	 0.111572
O	-1.5927758362	-3.0420549095	-0.8477402641	-0.433034
H	 1.032519469	 1.9206304741	 0.0746445751	 0.111091
H	-0.4928054903	 1.9915121947	-0.817698629	 0.11695
H	-0.5145169711	 1.8948080175	 0.9429917403	 0.135283
H	 0.5010126872	-0.331152361	-0.9342366059	 0.10714
H	 0.5506906709	-0.4067797897	 0.8160988813	 0.095283
H	-1.840933678	-0.663641516	 2.0059345512	 0.205301
H	-3.8486006639	-1.9679598094	 1.1998501746	 0.068357
H	-4.4987210127	-0.886271115	-1.2123480751	 0.110498
H	-2.1894295388	 0.3409558517	-2.0359192622	 0.108503
H	-1.1930290236	-2.5233741856	 1.0422881267	 0.084218
H	-2.0685499273	-2.6803968188	-1.6085253775	 0.27204
