16
gdb 17727	4.43102	2.54723	2.06349	2.1211	67.06	-0.2286	0.0753	0.3039	689.8634	0.132493	-346.494962	-346.489574	-346.488629	-346.524028	23.16	
C	-0.0118736807	 1.5657252492	-0.0012653138	-0.215013
C	 1.552226362	 1.8119167768	-0.0971030834	-0.351447
C	 1.9043591708	 0.3448567017	-0.0713446969	 0.482414
O	 2.997923147	-0.6072758724	-0.1034046337	-0.397895
C	 1.7366283874	-1.4208992085	-0.0069996217	 0.007391
C	 1.0456297139	-0.4348763663	 0.9639389214	-0.091194
C	-0.1220658021	 0.0022687292	 0.0535486862	-0.104784
C	 0.9375341454	-0.4944799547	-0.9533772991	-0.091191
H	-0.4359369747	 2.0316937587	 0.8929161238	 0.106966
H	-0.5352933243	 1.9769163191	-0.8692919339	 0.106966
H	 1.8422171127	 2.3204339021	-1.0199475613	 0.112937
H	 1.9422344473	 2.3755928654	 0.7540662177	 0.112937
H	 1.8720201039	-2.5008056452	 0.0189396865	 0.094069
H	 1.1585989464	-0.3734462461	 2.0459421109	 0.080136
H	-1.1242702991	-0.4206070751	 0.1231973245	 0.06757
H	 0.9280787946	-0.5005544136	-2.042937058	 0.080136
