18
gdb 67582	2.2865	2.23725	1.53502	1.3583	74.03	-0.2188	0.0683	0.2872	925.6558	0.147982	-401.889876	-401.882401	-401.881457	-401.921243	30.324	
C	-0.0844551704	 1.4842250834	 0.0044611396	-0.517479
C	-0.0586941574	-0.0098879511	-0.028338701	 0.263299
C	 0.7190804964	-1.0095877878	-0.813570467	-0.118398
C	-0.5100613986	-1.95541363	-0.8898830424	-0.152603
C	-0.8199006636	-2.2258891371	 0.5804054395	-0.172367
C	 0.412828851	-1.8951971498	 1.3983537731	-0.17729
N	 1.0073181519	-0.7947299193	 0.622914542	-0.164658
C	-1.3081224003	-0.9623097525	-0.0887312466	 0.346736
O	-2.6147234841	-0.5695810006	-0.2780327848	-0.461652
H	 0.9246174396	 1.8846384889	-0.1236544074	 0.133715
H	-0.7226980143	 1.877621055	-0.7932157312	 0.129749
H	-0.47472083	 1.8553788459	 0.9598190666	 0.115328
H	 1.5127690666	-0.8981010138	-1.5417692562	 0.090555
H	-0.806267345	-2.5940852451	-1.7087825067	 0.096931
H	-1.5289123646	-3.0042499689	 0.8358361944	 0.092518
H	 0.1779745233	-1.5488223406	 2.4108806326	 0.100688
H	 1.1246596301	-2.724200748	 1.4662744731	 0.10696
H	-3.0030889505	-0.3744844686	 0.5824039826	 0.287967
