14
gdb 80214	2.32037	1.58068	1.2285	3.4676	70.62	-0.2475	-0.0038	0.2437	1029.7433	0.099441	-436.634711	-436.626614	-436.62567	-436.667236	30.565	
O	-0.0574379078	 1.3801088513	 0.283081528	-0.404012
C	-0.0627137021	 0.0046614512	 0.1252051782	 0.054789
C	-0.4871932662	-0.845859167	 1.2641480842	-0.090387
N	-1.5764269956	-0.2373180485	 2.0240309092	-0.334484
C	-2.4004797338	-0.1110641762	 0.8909407192	 0.370657
O	-3.4759884179	 0.3811734858	 0.7319206917	-0.323664
C	-1.3737762239	-0.8188143398	-0.0072301603	-0.063781
C	-1.5978550914	-1.7771702749	-1.0255202894	 0.186131
C	-1.7961920055	-2.5778205777	-1.9017009057	-0.395695
H	-0.2864229069	 1.7902744884	-0.5583428676	 0.304271
H	 0.7347131554	-0.4066418544	-0.4955531063	 0.114979
H	 0.0692279695	-1.6829800099	 1.6644666414	 0.132542
H	-1.4207861843	 0.5504249979	 2.6435422744	 0.255068
H	-1.9829356994	-3.2903176064	-2.666590407	 0.193586
