20
gdb 91703	2.57123	1.76335	1.56051	2.0995	77.3	-0.2432	0.0237	0.2669	974.4704	0.174711	-403.181663	-403.174381	-403.173437	-403.213084	29.776	
C	-0.2581834712	 1.5442134248	-0.0147020003	-0.408966
C	 0.0315997674	 0.0450068613	 0.008630272	 0.047318
C	 0.8622930335	-0.4774957399	-1.212452981	-0.242028
C	 1.9374617149	-1.3972107586	-0.6034542314	 0.113982
C	 1.3274407125	-1.8397113094	 0.7294839172	-0.255646
C	 0.8505953761	-0.463666018	 1.2232749495	 0.006561
N	 2.0201384792	 0.3945239311	 1.4817293283	-0.264529
C	 3.0203070353	 0.2163358476	 0.7250078107	 0.115936
O	 3.1411875929	-0.6328233396	-0.3235819331	-0.240538
H	 0.6688525102	 2.1237412188	-0.0124782996	 0.12908
H	-0.8308768522	 1.8143242494	-0.9083273135	 0.107975
H	-0.8414365252	 1.8473456176	 0.8608328798	 0.115187
H	-0.9266151318	-0.4902107678	 0.0309818638	 0.070392
H	 0.2342492894	-1.0334155469	-1.9152150928	 0.102244
H	 1.3356934087	 0.3337438858	-1.7724975888	 0.11342
H	 2.2669920314	-2.2008856393	-1.2624341246	 0.084523
H	 0.4883957531	-2.5224910208	 0.560573589	 0.100973
H	 2.049971656	-2.3195359371	 1.3939357226	 0.110815
H	 0.2521135374	-0.5015970888	 2.1367173564	 0.06984
H	 3.9441644525	 0.7741360995	 0.8679780558	 0.123461
