19
gdb 17630	3.30132	1.43618	1.08657	1.5043	67.48	-0.2463	0.0608	0.307	1109.1619	0.163596	-402.162369	-402.152888	-402.151944	-402.197018	34.077	
C	-0.0605498093	 1.5374199634	 0.2771442537	-0.407772
C	-0.0597803907	 0.0169419132	 0.151720274	 0.117649
O	 0.1922467898	-0.6246348365	 1.3969085025	-0.426036
C	-1.3572207525	-0.5146010991	-0.4919941436	 0.068147
O	-1.5437435313	 0.0501311488	-1.790961693	-0.429458
C	-1.3920601502	-2.0276207518	-0.5309971712	 0.012588
C	-2.2846010971	-2.7934192424	 0.3705059911	-0.235162
N	-2.5858575422	-2.7010323377	-1.0663247037	-0.325392
H	 0.8944183083	 1.8887713678	 0.6765204231	 0.121494
H	-0.2405735159	 2.0029244472	-0.6944757051	 0.135998
H	-0.8577376736	 1.8656139893	 0.957282171	 0.103203
H	 0.7760446018	-0.292639257	-0.491402423	 0.081392
H	-0.4574308359	-0.3015354499	 2.0310765727	 0.278312
H	-2.2164401004	-0.1501979379	 0.0905487445	 0.06919
H	-0.9576162139	-0.4131538587	-2.4000312652	 0.28603
H	-0.4555522573	-2.4932419635	-0.8385451848	 0.089286
H	-1.9898049555	-3.7793883188	 0.7176341766	 0.121382
H	-2.8983073489	-2.2339123345	 1.0725981195	 0.103775
H	-3.312415145	-2.0078373719	-1.2338980391	 0.235375
