13
gdb 266	8.98436	2.12697	1.75865	2.4228	46.82	-0.2644	0.0591	0.3235	686.248	0.107556	-323.6788	-323.671741	-323.670797	-323.710041	24.01	
C	-0.1078360614	 1.4951901175	 0.0100100195	-0.391422
C	-0.0134299717	-0.0186957086	 0.0014267759	-0.030305
O	-1.3543798154	-0.5364449398	 0.0423098176	-0.259115
C	-1.447563919	-1.8882391359	 0.0437665138	 0.493873
N	-2.7601732578	-2.263434363	 0.1404482356	-0.562113
O	-0.5066008879	-2.6456127743	-0.0013264847	-0.398662
H	 0.8957601311	 1.9296390023	-0.0204555336	 0.122248
H	-0.6663529282	 1.857240439	-0.857978118	 0.126349
H	-0.6100313074	 1.8502978158	 0.9143997355	 0.128288
H	 0.4873263288	-0.3910618814	-0.8978816079	 0.119794
H	 0.5426470426	-0.3973400605	 0.864800766	 0.121299
H	-3.472025824	-1.5814362298	-0.059485891	 0.262528
H	-2.9589576897	-3.2261182614	-0.0707834488	 0.267238
