17
gdb 28505	3.02652	1.41228	0.97452	1.8597	79.99	-0.2304	-0.0359	0.1945	1183.6056	0.136212	-418.084122	-418.075709	-418.074765	-418.117064	31.5	
C	-0.0434311431	 1.5143832655	-0.0297915165	-0.486941
C	-0.0010468472	 0.0096466271	-0.0110333878	 0.268627
N	-0.0248492682	-0.6234759707	-1.1913405967	-0.281779
C	 0.0117226954	-1.9498781805	-1.1990238836	-0.097422
C	 0.0736164885	-2.6654603455	-0.0004587107	 0.393095
O	 0.1100933385	-4.0130246844	-0.0266157482	-0.416817
N	 0.0980799483	-2.0587067623	 1.17789201	-0.394703
C	 0.0613061797	-0.7201582954	 1.1891127208	 0.273978
C	 0.0897076417	-0.0443148718	 2.5326757682	-0.484905
H	 0.842476154	 1.9521013045	 0.4455687954	 0.128276
H	-0.0901740992	 1.8599331929	-1.0634279644	 0.141881
H	-0.915700014	 1.9034137482	 0.5088807317	 0.128251
H	-0.007533457	-2.4639247132	-2.1551378073	 0.120752
H	 0.1504103538	-4.3002818634	 0.8960442506	 0.298431
H	 0.9544649755	 0.6229272028	 2.6253210424	 0.135474
H	-0.8020911711	 0.5741300942	 2.6870146446	 0.135477
H	 0.1382970043	-0.795186328	 3.3222983614	 0.138325
