16
gdb 4096	1.90067	1.75757	0.9366	0.8947	74.18	-0.2308	-0.0469	0.1839	1186.2867	0.124727	-471.111166	-471.102776	-471.101832	-471.144307	31.337	
O	 1.1216058662	-0.8659749786	 0.1230081275	-0.38108
N	 0.0181813963	-0.020129701	 0.2827671888	-0.21468
C	-1.0665724439	-0.6624942655	 0.0607831087	 0.322936
C	-1.2231360925	-2.1184412724	-0.3553275515	-0.268951
N	-2.6089184226	-2.2545035007	-0.836798483	-0.301589
C	-3.3850515414	-1.2461270263	-0.0962172239	-0.252254
C	-2.4211615121	-0.0951942846	 0.1652279797	 0.324089
N	-2.8601403397	 1.0828419792	 0.3967129802	-0.238189
O	-1.8517327754	 2.0151460858	 0.603931052	-0.362316
H	 1.8611807945	-0.2721968343	 0.2944681373	 0.312436
H	-0.4968058869	-2.4073898097	-1.1175867469	 0.135423
H	-1.0566283201	-2.773353705	 0.5109844769	 0.132997
H	-2.624866201	-2.0035220328	-1.8205440319	 0.226569
H	-4.2745284122	-0.9348510753	-0.6461560892	 0.129143
H	-3.7182154705	-1.6770890438	 0.8580841004	 0.12643
H	-2.3515845288	 2.8278088649	 0.7429085648	 0.309034
