17
gdb 16037	3.55414	1.72616	1.42904	1.7915	76.28	-0.227	0.0204	0.2475	930.7094	0.141448	-326.648969	-326.641203	-326.640259	-326.680598	29.938	
C	-0.0580230123	 1.5836775356	 0.0131272093	-0.427462
C	 0.0469971117	 0.0795797669	 0.1195398571	-0.012982
N	 1.2064845336	-0.7258571797	-0.302880285	-0.184446
C	 2.4494177727	 0.0297581276	 0.0898862421	-0.152614
C	 2.072860881	 0.0390346789	 1.5886706072	-0.315798
C	 0.7709484604	-0.6673590351	 1.1859861877	 0.143825
C	 0.1999807509	-1.7652570875	 1.8927512276	 0.211239
C	-0.2774464097	-2.6739709687	 2.5214102896	-0.396243
H	 0.7880648145	 2.1134059992	 0.4548596	 0.124542
H	-0.1352548562	 1.8852133112	-1.0372355392	 0.131019
H	-0.9644027049	 1.9233099421	 0.5242773583	 0.130125
H	-0.8622380968	-0.4291345596	-0.1952259393	 0.104888
H	 3.3233114309	-0.5832719737	-0.1352816742	 0.116794
H	 2.5602519983	 0.995791372	-0.4110454518	 0.106627
H	 2.7173845001	-0.6035987725	 2.1890242937	 0.124648
H	 1.9639713611	 1.0018491936	 2.0960482154	 0.106063
H	-0.7011278954	-3.4809968103	 3.0659998717	 0.189778
