14
gdb 98504	2.45625	1.45806	0.97936	2.9308	64.01	-0.2983	-0.0398	0.2585	1155.9974	0.098608	-473.828998	-473.820075	-473.819131	-473.863611	30.357	
C	-0.0359519859	 1.317949891	 0.3300435097	-0.250645
O	-0.2025696393	-0.1058901807	 0.4529387274	-0.232746
C	-1.1761260803	-0.6373218433	-0.2862536132	 0.448151
O	-1.9043667672	-0.0386609696	-1.0308603652	-0.359188
C	-1.2783250006	-2.137126342	-0.0680356174	 0.113632
C	-2.6129372553	-2.7543379857	-0.2777783446	-0.18829
O	-1.5935058641	-2.872049068	-1.2517402989	-0.230934
C	-0.3358139097	-2.7708367202	 0.831431721	 0.265075
N	 0.4011535332	-3.2888122697	 1.5543036236	-0.326196
H	 0.7823852847	 1.5746763079	 1.0008066377	 0.151337
H	 0.2099881842	 1.5806488292	-0.7010556834	 0.154428
H	-0.9540860143	 1.8325259498	 0.6220065741	 0.150884
H	-2.8538136256	-3.6613316036	 0.2721276903	 0.148518
H	-3.43118379	-2.0878390349	-0.5385134911	 0.155976
