14
gdb 125745	3.42482	1.28781	0.94224	5.6622	74.21	-0.2383	-0.0534	0.1849	1164.4671	0.101107	-432.877867	-432.86951	-432.868566	-432.910861	30.18	
C	-0.0405394085	 1.4782891637	-0.0676678695	-0.512763
C	-0.0132837518	-0.0101539117	 0.0412573792	 0.3643
N	-0.009684269	-0.77502384	-1.0251146483	-0.177493
O	 0.0060880961	-2.0789083869	-0.5976248744	-0.221379
C	 0.021649584	-2.085589172	 0.7675319876	 0.296172
C	 0.0532230072	-3.3116043233	 1.4558041162	 0.213865
N	 0.0858267875	-4.2900898244	 2.0776611523	-0.343811
C	 0.0059731363	-0.798056614	 1.2377488958	 0.009725
N	-0.063036858	-0.3332410242	 2.5332611995	-0.614555
H	 0.8540660258	 1.9264872296	 0.3802764719	 0.137378
H	-0.0821644872	 1.7728393586	-1.1174464513	 0.1641
H	-0.913025183	 1.8914646117	 0.4496637279	 0.149222
H	 0.1737128896	-1.0072002857	 3.2478050816	 0.272145
H	 0.3766549411	 0.5609790288	 2.6944489115	 0.263093
