11
gdb 1033	8.20067	1.98937	1.60099	3.0141	54.04	-0.2469	-0.0513	0.1956	697.2754	0.079382	-343.290242	-343.284619	-343.283675	-343.319839	20.026	
O	-0.0426667837	-0.030087758	-0.0013772518	-0.270774
C	 0.0011745637	 1.1800919901	 0.0075285948	 0.066041
C	 1.2356733173	 1.9671096964	-0.0002790205	 0.150662
C	 2.5110109895	 1.4687531986	-0.018255241	-0.051698
O	 3.4100179793	 2.4691560201	-0.021134683	-0.131879
C	 2.7104488885	 3.6445483109	-0.0040544724	 0.013187
C	 1.3788700173	 3.4000242486	 0.0092039933	-0.293528
H	-0.9308886919	 1.7874845687	 0.022539274	 0.070823
H	 2.8999860353	 0.4644591036	-0.0302561658	 0.170426
H	 3.3090360765	 4.5397575847	-0.0040063286	 0.149406
H	 0.5872768682	 4.1330705663	 0.023802741	 0.127334
