13
gdb 124065	3.9039	1.63065	1.15854	4.8063	65.56	-0.2511	-0.0346	0.2165	949.0489	0.0923	-452.742212	-452.735884	-452.73494	-452.774013	23.506	
C	 0.0147908101	 1.5149992291	 0.1181683854	-0.187164
O	 1.2902241132	 2.0344111153	-0.3365113585	-0.232219
C	 2.2760786986	 1.2183544477	-0.7515867868	 0.139476
N	 2.3132229896	-0.0553997711	-0.8318882849	-0.341033
C	 1.142496079	-0.6769949307	-0.4217061548	 0.397845
N	 0.9686251936	-1.9786687943	-0.4234378414	-0.220361
O	-0.3264837713	-2.1607954285	 0.0566190824	-0.168692
C	-0.8821814531	-0.9635083862	 0.328672753	-0.040036
C	-0.0044822974	 0.0253129847	 0.048245452	 0.063656
H	-0.1235587284	 1.8932283329	 1.1373216404	 0.143734
H	-0.7482321593	 1.9789286625	-0.5170076533	 0.143727
H	 3.1373298508	 1.8126448465	-1.0461260594	 0.144547
H	-1.8918780352	-0.993250288	 0.7087392257	 0.15652
