21
gdb 122390	3.0774	1.10049	0.95864	1.9541	78.77	-0.2475	0.0704	0.318	1310.7757	0.182881	-424.179276	-424.170387	-424.169443	-424.213471	33.547	
O	-0.1143800429	 1.2389172816	-0.9178906597	-0.418864
C	-0.2741037611	 0.1933202976	 0.0226356641	-0.06768
C	-1.7114667107	-0.3002196776	 0.0625168653	-0.071805
O	-2.0256051978	-0.7587994679	-1.2471332857	-0.269719
C	-3.3937784693	-0.9288526654	-1.466503254	 0.138222
C	-4.3163766407	 0.2264515479	-1.7264790404	-0.107472
C	-3.5814668204	 1.3310738582	-2.499539575	-0.233794
C	-3.2352381463	 0.3049789602	-3.6248874962	-0.221065
C	-3.9551206808	-0.7965978413	-2.8381979614	-0.110765
H	-0.4597746895	 0.8941593962	-1.7494522175	 0.294004
H	 0.3943964268	-0.6526764353	-0.2017051681	 0.095152
H	 0.0067219184	 0.5931860561	 1.0023405236	 0.108732
H	-1.8272521575	-1.1125605347	 0.7978296538	 0.088582
H	-2.3844308995	 0.5215864151	 0.3444375214	 0.104996
H	-3.8350769554	-1.7303453043	-0.8712258677	 0.084529
H	-5.2455054342	 0.3510005329	-1.1821219356	 0.084451
H	-4.2519642468	 2.1178292843	-2.8500123338	 0.103596
H	-2.7380264597	 1.793537984	-1.978952261	 0.109004
H	-3.7408526348	 0.5412984503	-4.5631824063	 0.10414
H	-2.1763858802	 0.1271635477	-3.8322666504	 0.09931
H	-4.5592904176	-1.5826797655	-3.2765290355	 0.086445
