16
gdb 2032	7.17717	1.6817	1.59693	1.2634	60.86	-0.2419	0.0757	0.3175	799.6855	0.13718	-325.731549	-325.724788	-325.723843	-325.76209	25.948	
O	 0.6579638068	 0.7542726607	-0.7268829646	-0.433401
C	-0.0310551473	-0.1943103355	 0.0436771009	 0.177095
C	 0.1034041104	-0.1716364673	 1.5975348107	-0.354688
C	-1.3893887013	-0.514014311	 1.6575730918	 0.37492
C	-1.9991702846	-1.6620320468	 2.3615776823	-0.302715
N	-2.3405158603	-0.270142122	 2.7333757125	-0.366169
C	-1.5775505357	-0.0937181007	 0.1972328939	-0.333463
H	 0.3880837608	 1.6309811783	-0.4331532258	 0.276797
H	 0.2623032912	-1.1681760183	-0.3568173474	 0.098025
H	 0.8198902202	-0.8513959793	 2.0658337173	 0.10511
H	 0.2978875751	 0.8490908812	 1.9509812897	 0.094765
H	-2.8103609542	-2.2195869396	 1.9000416188	 0.118844
H	-1.3737697909	-2.2451008081	 3.0337308444	 0.110697
H	-1.8463211628	-0.0092171607	 3.5840755713	 0.228323
H	-1.9155067079	 0.9471655327	 0.1255303123	 0.098901
H	-2.2017792193	-0.7141532138	-0.4494877281	 0.106959
