21
gdb 111642	2.42582	1.44496	1.34134	1.1081	83.26	-0.2234	0.0423	0.2657	1119.2109	0.183668	-387.077183	-387.068552	-387.067608	-387.110683	32.706	
C	 0.1661634574	 0.9566313349	 0.4739498029	-0.232788
O	-0.3530718749	-0.1781613593	-0.1876587626	-0.229129
C	 0.4316280336	-0.5900072762	-1.2612411743	 0.120135
C	 1.4912391261	-1.6553713601	-1.0749479207	-0.095209
C	 1.7666710459	-2.270464679	 0.2884783776	-0.272903
C	 0.6488880017	-3.103371043	 0.8515356506	-0.041827
C	-0.4937459929	-3.3648719845	 0.224895877	-0.036568
C	-0.8540510021	-2.8683311157	-1.1467313482	-0.26677
C	 0.1850745871	-1.967914258	-1.7969544282	-0.109823
H	 1.1721426933	 0.7760102454	 0.8774680288	 0.109783
H	 0.2176809119	 1.8261016718	-0.2000416884	 0.104074
H	-0.5130983636	 1.1887120509	 1.2976369812	 0.126579
H	 0.6417521303	 0.204993845	-1.9800273763	 0.073549
H	 2.3715931505	-1.5479386771	-1.7022946769	 0.079164
H	 2.663245743	-2.9013370258	 0.2074402215	 0.107325
H	 2.0377415412	-1.4910325673	 1.0151915594	 0.104782
H	 0.8216544454	-3.514185429	 1.8437223393	 0.077343
H	-1.2418505792	-3.9848603593	 0.7136199602	 0.078388
H	-1.0225591308	-3.7356789215	-1.7998863471	 0.104034
H	-1.8202609939	-2.3472284094	-1.0993262394	 0.116875
H	 0.2407282001	-2.060253493	-2.8772674463	 0.082984
