14
gdb 3753	6.96095	2.15439	1.67999	0.3156	60.25	-0.2452	0.0049	0.2501	740.5243	0.114649	-320.773768	-320.766719	-320.765775	-320.805975	23.628	
C	-0.0411118729	 1.4264675443	 0.0300297573	-0.309938
N	-0.0385134069	-0.0207379439	-0.0013249199	 0.159037
N	 0.0051002538	-0.7032760163	-1.1386833469	-0.224308
C	 0.0529752641	-1.973911681	-0.7357257799	-0.13156
C	 0.0401794581	-2.0128038643	 0.6698029622	 0.309835
C	 0.0700314978	-3.1763951917	 1.6067446234	-0.497256
N	-0.0152864664	-0.7508435319	 1.109554903	-0.298464
H	 0.9506152273	 1.8098189904	 0.2890087164	 0.147939
H	-0.3222766872	 1.7790098255	-0.9614064124	 0.160806
H	-0.7622790691	 1.7689987156	 0.7738123052	 0.154493
H	 0.0869148809	-2.7805973191	-1.451105148	 0.11782
H	 0.9566859064	-3.7981398192	 1.4441860149	 0.133721
H	 0.0832127135	-2.8227966202	 2.6396333503	 0.143507
H	-0.8067483894	-3.8197125381	 1.4758620344	 0.134369
