17
gdb 14247	3.92347	1.69883	1.52294	2.4845	68.05	-0.227	-0.0273	0.1997	888.7384	0.141994	-363.834146	-363.826843	-363.825898	-363.866043	27.765	
C	 0.312871269	 1.5741991119	-0.1258073891	-0.414728
C	 0.0693389171	 0.0784051375	-0.0295932692	 0.081585
C	 0.8785703806	-0.8704040833	-0.960426269	-0.287581
C	 1.2850664017	-1.6430833636	 0.321330621	-0.094478
N	 0.5386236607	-0.658803743	 1.2078792453	-0.150616
C	 1.8209129185	-0.1768109142	 1.8105645032	-0.309297
C	 2.6050143094	-1.2010413919	 0.9670946681	 0.389853
O	 3.748973032	-1.5313366569	 0.8726755934	-0.285024
H	 1.3763767866	 1.8288635547	-0.1716236621	 0.121417
H	-0.1535868467	 1.9631264085	-1.0370853522	 0.125305
H	-0.1312507495	 2.0986123148	 0.7272825895	 0.130034
H	-1.0067574698	-0.1042344804	-0.1194299234	 0.089504
H	 0.2915651618	-1.4459980437	-1.6781129943	 0.116735
H	 1.7124926752	-0.4017340329	-1.4903470077	 0.117052
H	 1.0290149673	-2.7041799541	 0.3818147604	 0.102033
H	 2.0809614979	 0.8731993982	 1.6470422961	 0.129421
H	 1.8656030482	-0.3745902617	 2.8876705702	 0.138784
