18
gdb 6814	3.13846	1.67063	1.43123	1.1603	73.55	-0.2477	0.038	0.2858	960.5289	0.151062	-347.762881	-347.754137	-347.753192	-347.795804	32.608	
C	-0.1817892992	 1.537822481	-0.0249299919	-0.429087
C	-0.0252285131	 0.024609148	 0.0098842384	 0.428887
C	-1.2975057097	-0.7020677005	-0.3944846441	-0.432639
O	 1.0968333697	-0.3945449372	-0.8216974063	-0.319735
C	 1.8926460112	-0.7519791101	 0.3175293227	-0.08186
C	 0.6965327841	-0.5546075355	 1.2836428592	-0.293358
C	 0.8782247272	 0.2758845152	 2.4530479606	 0.344583
C	 1.0388417677	 0.968880142	 3.4230244978	-0.469303
H	 0.7437062473	 2.0371083356	 0.2712970461	 0.126326
H	-0.4375465773	 1.8548149893	-1.0407284966	 0.121065
H	-0.9761914656	 1.8647839466	 0.6531455957	 0.120875
H	-1.6038200968	-0.3982998663	-1.4007112723	 0.126247
H	-1.1407500383	-1.7843281048	-0.3985022467	 0.118505
H	-2.1132421392	-0.4671800548	 0.2975943187	 0.120638
H	 2.2899236596	-1.7702155263	 0.2459335267	 0.10745
H	 2.7189339551	-0.0511549294	 0.487730353	 0.107173
H	 0.2520008151	-1.5119669667	 1.57086156	 0.105852
H	 1.1791699523	 1.5781348339	 4.281329289	 0.19838
