17
gdb 60835	2.42721	1.18863	0.8394	2.7388	70.91	-0.2534	-0.0678	0.1856	1314.3683	0.130809	-458.983659	-458.973631	-458.972687	-459.019655	33.995	
C	-0.2710463947	 1.4661382287	 0.1713853996	-0.41839
C	-0.0304944558	-0.0421601472	-0.0498868972	-0.082274
C	-1.3965171013	-0.7231890884	-0.0615844898	 0.17457
O	-1.9878903505	-1.0337269243	 0.9370357034	-0.25846
C	 0.770697066	-0.3004727833	-1.3297754302	-0.189912
C	 2.2045719673	 0.2250842716	-1.2791656321	 0.139267
O	 2.9209613481	 0.2747873977	-2.2437671857	-0.243409
C	 0.8467515173	-1.7831285661	-1.7086396666	 0.138954
O	 0.2306794118	-2.6439704811	-1.1395310259	-0.220894
H	 0.6714866262	 2.0207558563	 0.2133900246	 0.126708
H	-0.871399808	 1.892124345	-0.6406911103	 0.127895
H	-0.8053126891	 1.6261784898	 1.1106898555	 0.150172
H	 0.5109354788	-0.4482379825	 0.812004386	 0.113658
H	-1.8603517548	-0.8353255499	-1.0683903394	 0.074891
H	 0.3079765957	 0.1901767417	-2.2003296755	 0.138667
H	 2.5662078363	 0.5164536856	-0.2688872586	 0.103799
H	 1.5201573168	-1.9991151235	-2.5621854877	 0.124758
