16
gdb 5236	6.89513	1.14586	1.02838	2.0173	67.22	-0.2276	0.0039	0.2315	1140.7267	0.132041	-379.938469	-379.930857	-379.929913	-379.971262	26.923	
C	-0.2149150056	 1.4193543327	 0.1442570005	-0.307068
N	-0.1214941559	-0.0331699046	 0.1008184738	-0.289104
C	 0.8661543422	-0.5602068471	 1.0377556347	-0.245117
C	 0.8716264165	-2.0509472331	 1.0375478197	 0.400169
N	 1.8639258015	-2.8633966766	 0.8615774058	-0.303715
C	 1.3054760401	-4.1309895968	 0.9859372337	-0.113473
C	-0.018112884	-4.0101172634	 1.2303977214	-0.040393
O	-0.3148497261	-2.6751763107	 1.2723218841	-0.17988
H	 0.7249147168	 1.8571502841	-0.211057315	 0.125878
H	-1.0116911775	 1.7533392467	-0.525961346	 0.122043
H	-0.412780804	 1.8314965803	 1.1508119954	 0.0944
H	-1.0250156276	-0.4425264312	 0.3131538845	 0.227744
H	 1.8660737228	-0.2348925251	 0.7356864071	 0.140754
H	 0.7098170701	-0.1990332248	 2.0740934196	 0.098392
H	 1.8984197427	-5.0259456632	 0.8856271888	 0.124836
H	-0.8362771319	-4.6914665873	 1.3864292318	 0.144533
