18
gdb 85567	2.76807	1.38715	0.97784	0.6903	73.54	-0.2517	-0.0324	0.2193	1186.6107	0.147549	-439.124244	-439.115716	-439.114772	-439.15781	31.85	
C	-0.2811746653	 1.4546666515	 0.0243113624	-0.391244
C	 0.0944565476	-0.025841671	 0.0730187799	-0.106671
C	 0.8149318901	-0.5021700837	-1.2058216511	-0.313851
C	 1.0626755688	-1.99518655	-1.1482297456	 0.36345
O	 1.1190009035	-2.7231905557	-2.1076338214	-0.294547
C	 1.1807445043	-2.5537983871	 0.2701741101	-0.188489
O	 1.5686678373	-1.592392112	 1.2484099209	-0.248181
C	 0.9590668959	-0.3653168864	 1.2708753279	 0.411293
N	 1.1573593674	 0.4434183345	 2.2221491715	-0.51537
H	 0.6116742058	 2.0767414108	-0.0833238326	 0.130308
H	-0.9456078022	 1.6467897288	-0.8237975898	 0.109065
H	-0.7816518952	 1.7568927313	 0.9452414809	 0.143532
H	-0.8316010009	-0.6142056427	 0.1670439449	 0.106002
H	 0.2485479111	-0.2705100735	-2.1113730019	 0.13548
H	 1.7853206003	 0.0065305591	-1.2916625163	 0.143065
H	 0.2151668491	-3.0099914081	 0.5364476095	 0.13945
H	 1.9355506927	-3.3418489386	 0.2901745023	 0.153594
H	 1.7710997398	 0.0226480028	 2.9226649785	 0.223112
