23
gdb 117625	2.49926	0.82404	0.72582	0.8722	92.35	-0.2387	0.0549	0.2936	1747.7695	0.200809	-388.267562	-388.25546	-388.254516	-388.307115	41.995	
C	-0.2177760865	 1.563758133	 0.0130192761	-0.379055
C	-0.0040308428	 0.0575773171	 0.0012635544	-0.040182
O	-1.2846492491	-0.5477329187	 0.0116761891	-0.286869
C	-1.3564520393	-1.9831248961	 0.0046583944	 0.174368
C	-0.7257453641	-2.5723439308	-1.2745570009	-0.413605
C	-0.7011615135	-2.5857585625	 1.2651315868	-0.41354
C	-2.7945995092	-2.2870929561	 0.016995159	 0.084687
C	-3.9632827377	-2.5738488706	 0.0266134883	 0.066856
C	-5.3812985513	-2.904296786	 0.0374603092	-0.50029
H	 0.7440771862	 2.0857323849	 0.005417509	 0.109756
H	-0.7915251436	 1.8754264698	-0.8642786301	 0.12578
H	-0.7715944818	 1.8644751559	 0.9067930493	 0.125762
H	 0.5679257497	-0.2321680529	-0.8928888438	 0.086936
H	 0.5876113386	-0.2432208178	 0.8788028964	 0.086906
H	 0.3583007294	-2.4273031633	-1.2858976585	 0.112408
H	-0.9234404849	-3.6459750459	-1.3272317641	 0.123669
H	-1.158122755	-2.0957369304	-2.1576356339	 0.128433
H	-1.1165380699	-2.1187230334	 2.1613816067	 0.128434
H	-0.8976261517	-3.6599669626	 1.3101547356	 0.123651
H	 0.3828786338	-2.4404492095	 1.2571519189	 0.112391
H	-5.5359007249	-3.9890233121	 0.0358301151	 0.146201
H	-5.8773107686	-2.5008046236	 0.9270651326	 0.148654
H	-5.8921002637	-2.4960306683	-0.8415438197	 0.148649
