15
gdb 17326	2.7582	2.51485	1.7286	2.0835	60.63	-0.2233	0.0569	0.2802	780.3407	0.117759	-399.684679	-399.677547	-399.676603	-399.715482	27.926	
O	 0.09535538	 1.4436290077	-0.1698820271	-0.418676
C	-0.0805006736	 0.0623882002	-0.0043968108	 0.006585
C	-0.4954877186	-0.7251793207	 1.2253931813	-0.130505
N	-1.6067300844	-0.2276471437	 2.1201119015	-0.142563
C	-2.0990427643	 1.1081555377	 1.6905580463	-0.251792
C	-2.4749997704	-0.0854812434	 0.9049665191	-0.10846
C	-1.3812794527	-0.6590981436	-0.0222658163	 0.329844
O	-1.6817646422	-1.6633349658	-0.9227516193	-0.449519
H	 0.9139808822	 1.6893660279	 0.276125093	 0.290031
H	 0.6542219074	-0.5347817383	-0.5524255614	 0.103119
H	 0.1268375189	-1.516017775	 1.6269731885	 0.109761
H	-2.8505471653	 1.4835592435	 2.3810212446	 0.118051
H	-1.4186292238	 1.8423523381	 1.2866215297	 0.147633
H	-3.4701675904	-0.5190784182	 0.8937131891	 0.105222
H	-1.8599315927	-1.2576261866	-1.7791853983	 0.291268
