21
gdb 39626	3.90123	1.15243	1.07693	1.6709	83.	-0.2314	0.087	0.3184	1216.2913	0.1834	-387.015019	-387.007118	-387.006173	-387.047864	31.313	
C	-0.0338353603	 1.4510668915	-0.1332738154	-0.212402
C	 1.5179031226	 1.4694560343	-0.1001717948	-0.23185
C	 1.4813005799	 0.0829813182	 0.6094759049	-0.12865
C	 0.01035422	-0.0792935329	 0.122400675	-0.23185
C	 2.475558615	-0.945495576	 0.187329651	 0.437156
C	 4.0312415545	-0.9195937323	 0.2379052642	-0.26329
C	 3.5718980022	-2.126883279	-0.607087551	 0.052534
C	 2.5151075225	-2.4772780519	 0.4620135119	-0.263293
O	 2.5783490863	-1.2557709995	-1.2739369449	-0.34549
H	-0.4635722609	 1.9913285807	 0.7153506519	 0.099036
H	-0.5227101206	 1.7956044432	-1.0471371017	 0.098944
H	 1.9476316544	 1.3730436796	-1.1005371292	 0.121644
H	 2.0106478234	 2.2928298914	 0.4219996322	 0.093447
H	 1.5287392715	 0.1933175689	 1.6985938325	 0.072659
H	-0.7115408685	-0.5037533343	 0.8239034485	 0.093447
H	-0.0205089605	-0.6488935968	-0.8099587991	 0.12165
H	 4.5003308719	-0.1110061182	-0.3240871299	 0.10579
H	 4.5161792104	-1.1131278219	 1.1984893678	 0.090951
H	 4.1580573884	-2.7890443893	-1.2440242325	 0.092825
H	 2.8613061783	-2.8133523595	 1.4431060975	 0.090951
H	 1.6528219194	-3.0365556062	 0.0968201012	 0.10579
