17
gdb 103318	3.39584	1.2645	1.10001	3.9751	68.99	-0.2553	-0.0104	0.2449	1129.3115	0.132967	-458.900533	-458.891849	-458.890905	-458.933756	32.602	
C	 0.0412474249	 1.5613819802	-0.13509339	-0.406961
C	-0.0155552077	 0.051408283	 0.1299382003	-0.252073
C	-1.4294578143	-0.5125713458	 0.1045843415	 0.423563
O	-2.2762516404	 0.0133404647	 1.0910485299	-0.477792
C	-2.0679321057	-0.7799355923	-1.3107600126	-0.152952
O	-1.1450135394	-1.9331433945	-1.4468919894	-0.303415
C	-1.5804475985	-2.0531760174	-0.0330006185	-0.127239
C	-3.0062008878	-1.8062343162	-0.612210454	 0.483138
O	-4.0976179578	-2.2610791398	-0.6524731105	-0.306775
H	 1.0767080738	 1.912409557	-0.1324695455	 0.130618
H	-0.3926912318	 1.8159063729	-1.1079907935	 0.124199
H	-0.4873225476	 2.1377262486	 0.6336967609	 0.111249
H	 0.5794111666	-0.4815005708	-0.6152695293	 0.130641
H	 0.4159914871	-0.1662307903	 1.114019207	 0.111223
H	-2.2620359546	 0.9745155785	 1.0363981032	 0.291091
H	-2.198409448	-0.1331680168	-2.1767765996	 0.108379
H	-1.1537662888	-2.855357301	 0.5657681801	 0.113106
