20
gdb 86994	5.55381	0.59695	0.58301	4.963	80.63	-0.2663	0.0381	0.3044	1874.1496	0.170569	-403.155558	-403.146037	-403.145093	-403.190883	34.61	
O	-0.15443559	 1.4706767312	-0.02654044	-0.429169
C	-0.0119166084	 0.0716946142	 0.0131610874	 0.147017
C	 0.3116608776	-0.6196998977	 1.3676958233	-0.295068
C	-0.7609224472	-1.6899507753	 1.0187749713	 0.033022
C	-1.6555641775	-2.2060866891	 2.1373600641	-0.206086
C	-2.7589815277	-3.1464258212	 1.6084473074	-0.340405
C	-3.6273712039	-3.6513142907	 2.6693025765	 0.257721
N	-4.3027324593	-4.0410516226	 3.5222729043	-0.305637
C	-1.3505315782	-0.6911570942	-0.0217085869	-0.251099
H	 0.7223232807	 1.8679009866	-0.0249343772	 0.283525
H	 0.6643122352	-0.2836967681	-0.7777864956	 0.068443
H	 1.3349793185	-0.9536932745	 1.5562606173	 0.095981
H	-0.0206838418	 0.0171461841	 2.1938826195	 0.108823
H	-0.2924842162	-2.5367811222	 0.5029204249	 0.073137
H	-1.055791936	-2.7413501581	 2.8825695783	 0.119855
H	-2.1236870432	-1.3625030924	 2.6574970577	 0.118693
H	-3.3791133569	-2.6236495739	 0.8711415162	 0.156636
H	-2.3106009776	-4.0027240802	 1.0906710185	 0.149665
H	-2.1320604193	-0.0693504899	 0.4274866459	 0.114267
H	-1.701876769	-1.071649986	-0.9832008531	 0.100679
