23
gdb 119915	2.99873	0.94611	0.9004	2.1011	83.71	-0.2432	0.0702	0.3134	1472.7297	0.203423	-425.403594	-425.392913	-425.391969	-425.43894	39.433	
C	-0.3751679315	 1.2867902086	-0.355589675	-0.22943
O	-0.3345742372	-0.1127618273	-0.5256234643	-0.242747
C	 0.9742255863	-0.5919679809	-0.8467328692	-0.10825
C	 0.9199751467	-2.0957360364	-0.9439714843	-0.131639
C	-0.0795590553	-2.715048867	-1.8997264035	 0.07658
O	-0.8281630825	-1.8625485689	-2.7136089607	-0.433413
C	 1.3958872184	-2.874314216	-2.1733406261	 0.281137
C	 1.9955654505	-2.1480908748	-3.3614819055	-0.455738
C	 2.0092430815	-4.2342792157	-1.8960850759	-0.451397
H	 0.2775026376	 1.610059068	 0.4696978269	 0.109564
H	-0.0646907065	 1.8196498191	-1.2678292186	 0.109173
H	-1.4062705309	 1.5594244864	-0.1184881887	 0.129924
H	 1.3101979466	-0.1288154779	-1.7842578847	 0.100563
H	 1.6797233225	-0.2795707805	-0.0611569447	 0.095019
H	 1.0387550065	-2.6048495563	 0.0083387828	 0.083076
H	-0.6227314892	-3.5960774827	-1.5556471928	 0.078016
H	-1.1537511432	-1.1594675443	-2.1344061041	 0.292364
H	 1.3774797242	-1.304476824	-3.6716490965	 0.134621
H	 3.0095292599	-1.7904134777	-3.1475281133	 0.106402
H	 2.0617585234	-2.8305881369	-4.2163906306	 0.114175
H	 1.9248190179	-4.8866057194	-2.7730408443	 0.116483
H	 3.0736312057	-4.1450221329	-1.6477842131	 0.113561
H	 1.5152216187	-4.7362832323	-1.0579808036	 0.111956
