9
gdb 3929	8.98308	2.20318	1.76925	4.7635	46.26	-0.3075	-0.091	0.2166	620.3852	0.055787	-371.535911	-371.530591	-371.529647	-371.565308	17.869	
O	-0.0499690796	-0.0443336033	-0.0001878928	-0.217568
C	-0.0205644036	 1.1457423526	 0.0087093946	 0.20047
N	 1.1732796187	 1.9125079145	 0.0022116765	-0.042104
C	 1.3167244337	 3.2656205264	 0.0113761571	 0.094898
N	 2.5846393967	 3.5646619275	-0.0005283825	-0.213201
N	 3.2440746704	 2.3533922827	-0.0162418526	-0.0575
N	 2.4286661581	 1.3699843192	-0.0146379905	-0.076284
H	-0.904401354	 1.8066931876	 0.0228422894	 0.127218
H	 0.4923544095	 3.9604467428	 0.0253234608	 0.184071
