17
gdb 14958	4.44187	1.59691	1.22359	2.8661	72.76	-0.2386	0.0089	0.2475	992.0736	0.142271	-363.874789	-363.866699	-363.865755	-363.908574	28.434	
C	-0.0303344807	 1.4270742251	 0.4586923022	-0.313173
N	-0.0064262312	-0.0224087258	 0.3248785974	-0.297374
C	-0.9784488884	-0.5873633081	-0.2533846849	 0.400353
C	-0.9900722016	-2.0903738837	-0.4310749611	-0.349226
C	-2.3734813748	-2.6617815745	-0.5517632454	-0.063552
C	-3.3790031926	-1.9099149259	-0.9824152757	-0.079469
C	-3.1709485044	-0.4714899022	-1.3399956244	-0.111343
O	-2.0286222873	 0.1388754049	-0.7316076411	-0.261015
H	 0.8783527896	 1.7527223435	 0.9711229063	 0.111549
H	-0.0789753155	 1.9311320865	-0.5156877995	 0.114509
H	-0.8971043456	 1.7712688046	 1.0383053731	 0.115625
H	-0.4101610896	-2.340131766	-1.3329230528	 0.137588
H	-0.4342834523	-2.5209399203	 0.4045964455	 0.143126
H	-2.518593714	-3.7079971596	-0.3007529417	 0.101912
H	-4.3827064853	-2.3031863294	-1.1103274673	 0.10192
H	-3.0831315844	-0.3539037153	-2.4314335486	 0.12205
H	-4.0278379418	 0.1358919862	-1.026970872	 0.12652
