15
gdb 45948	2.28218	1.99768	1.16897	1.5445	66.49	-0.2603	-0.0468	0.2135	1000.9445	0.112685	-457.817807	-457.810212	-457.809268	-457.850217	28.129	
O	 0.0023255534	 0.0132034452	 0.0071373503	-0.320571
C	 0.0129565189	 1.2182121166	 0.0115440824	 0.315087
C	-1.2166525762	 2.1314012448	 0.0309596747	-0.202574
O	-0.7254392274	 3.4764952988	 0.0295936061	-0.232004
C	 0.6419466221	 3.5234010421	 0.0119550141	 0.411445
O	 1.2473195067	 4.5561054487	 0.0079639631	-0.3515
C	 1.1735258127	 2.1337662312	-0.0001362024	 0.020038
C	 2.4786030442	 1.7919628242	 0.7202427862	-0.280478
C	 2.4594299357	 1.7974657239	-0.7566617042	-0.280483
H	-1.8435864117	 1.9662765066	-0.8513094427	 0.154296
H	-1.8204203445	 1.959621548	 0.9279923468	 0.154295
H	 2.9460976769	 2.6232058469	 1.2354272713	 0.155726
H	 2.4776583556	 0.8374335979	 1.2346939232	 0.150499
H	 2.445041484	 0.8467938958	-1.2780094164	 0.150499
H	 2.9134802995	 2.6325653293	-1.2776017424	 0.155725
