19
gdb 61925	2.84294	0.93651	0.76393	2.4052	78.28	-0.253	0.0291	0.2821	1501.4084	0.155396	-422.950504	-422.940436	-422.939492	-422.986964	35.531	
C	 0.1901318749	 1.4430532974	 0.0549001239	-0.409131
C	 0.0254726012	-0.077527358	-0.0449593572	 0.11731
O	 0.6472226821	-0.6123313883	-1.2032460604	-0.257126
C	-0.0502890182	-0.3732971354	-2.4103882176	-0.2159
C	 0.5488267028	-1.1556825785	-3.4842138187	 0.283128
C	 1.0234083597	-1.7881243679	-4.3877695109	-0.413371
C	 0.630418246	-0.7567653253	 1.1702055741	 0.074714
C	 1.4555619413	-1.9651187271	 1.088251789	-0.172953
O	 2.0454652764	-0.6789943897	 1.3166972104	-0.237356
H	 1.2539335043	 1.6922171378	 0.0814981895	 0.148385
H	-0.2756575668	 1.9579551376	-0.7896364729	 0.117201
H	-0.2796786795	 1.8168346293	 0.9702794111	 0.118455
H	-1.0498685021	-0.3304794687	-0.0587248387	 0.067331
H	-1.1130802777	-0.6502021392	-2.3006116411	 0.117329
H	-0.0274792915	 0.6933624807	-2.6829230093	 0.125192
H	 1.4483502799	-2.3491014484	-5.1830786439	 0.201713
H	 0.0738983423	-0.566531362	 2.0904622953	 0.090553
H	 1.4896737	-2.6492620254	 1.9351820548	 0.10844
H	 1.657370065	-2.395152749	 0.1119398228	 0.136083
