17
gdb 51658	3.89478	0.98969	0.98133	5.458	69.4	-0.2691	0.0098	0.2789	1246.6284	0.13585	-458.976305	-458.968388	-458.967444	-459.010061	28.971	
O	 0.9309907561	-0.0294494566	 0.304877927	-0.275418
C	 0.5602632402	 1.0839411616	 0.0851802292	 0.167452
O	 1.300202414	 2.1711951749	 0.3672558671	-0.178155
C	 0.7559436492	 3.4650573066	 0.0609517528	 0.096115
C	 0.6856398087	 4.3206316786	 1.3494402606	-0.257484
C	 1.9408301605	 5.1688336905	 1.3199594393	 0.052521
O	 3.1317773415	 4.4106952124	 1.0859359056	-0.244303
C	 2.5432442818	 5.1055247173	-0.0180632609	 0.052524
C	 1.7024710879	 4.2137629859	-0.9089237428	-0.257479
H	-0.4197400181	 1.3367121051	-0.3683680516	 0.072022
H	-0.2369178295	 3.3232020684	-0.3793954084	 0.088669
H	-0.1980845158	 4.969243827	 1.3321004416	 0.109602
H	 0.6198916756	 3.6817779726	 2.2338334378	 0.133293
H	 2.0479074605	 6.0254834749	 1.9804213353	 0.098875
H	 3.1381933213	 5.9108994294	-0.4410587927	 0.098878
H	 2.2971747122	 3.5055176467	-1.4914480018	 0.133287
H	 1.126052264	 4.8300623347	-1.6088426981	 0.109602
