22
gdb 58801	3.37869	1.03544	0.9797	2.5488	82.07	-0.2449	0.0694	0.3142	1336.6307	0.193358	-404.31397	-404.304315	-404.30337	-404.34836	36.699	
C	 0.0370494285	 1.4637748161	-0.2065210965	-0.395136
C	 0.0170183023	-0.0448029837	 0.0864985316	-0.057878
C	 0.8425296319	-0.3873632581	 1.3344915475	-0.397117
C	-1.4026562194	-0.5441416437	 0.1873950576	 0.373469
C	-2.4072887528	-0.2773322504	 1.3255122415	-0.357846
C	-2.9889033996	-1.7162969678	 1.0827428281	 0.107961
O	-4.3277673243	-1.8285548849	 0.6448395549	-0.432818
C	-1.9844805381	-1.9147503178	-0.0496744995	-0.114062
N	-2.123450819	-0.8533967048	-1.0433924222	-0.369209
H	 1.0625691726	 1.8237700306	-0.3382102534	 0.109294
H	-0.5240788676	 1.6905262749	-1.1177760206	 0.125065
H	-0.4097272057	 2.0313997179	 0.6184260792	 0.110282
H	 0.4582548754	-0.5628974169	-0.7740357591	 0.085487
H	 0.822871371	-1.4618695804	 1.5437164613	 0.112134
H	 1.8870823457	-0.0892122863	 1.1993252304	 0.113115
H	 0.466417231	 0.1357493875	 2.2211429151	 0.112088
H	-1.9582421686	-0.172912802	 2.3162702988	 0.10476
H	-3.1000539168	 0.5539742123	 1.1559737703	 0.092886
H	-2.7899507688	-2.37787744	 1.936430611	 0.072741
H	-4.9053948394	-1.5702857565	 1.3702314572	 0.285236
H	-1.5199179108	-2.8479793381	-0.3479679714	 0.087922
H	-3.0749371974	-0.4895082879	-1.0624459718	 0.231625
