18
gdb 47012	3.74211	1.33901	1.03389	3.9855	83.14	-0.2398	-0.0264	0.2135	1141.4829	0.150228	-401.955443	-401.948124	-401.94718	-401.987178	29.049	
N	-0.0792549981	 1.3061834548	-0.0857481599	-0.52521
C	-0.0115275934	 0.0404156532	 0.0091197021	 0.402999
O	 1.2050496575	-0.6025752375	 0.0155854267	-0.270493
C	 1.281175289	-1.9443550882	 0.5349519343	-0.110283
C	 0.2347605448	-2.8076073811	-0.1453086372	-0.070695
C	-0.4748541523	-4.0133874496	 0.5578628121	-0.251172
C	-1.8577793919	-3.382198096	 0.1652616325	-0.320108
C	-1.0963952033	-2.1025326391	-0.0843191566	 0.35388
C	-1.2240309134	-0.789680599	 0.0841844798	-0.32998
H	 0.8635260484	 1.7008481647	-0.1110458925	 0.217543
H	 2.3104476676	-2.2614187503	 0.3509178984	 0.116737
H	 1.1086210141	-1.9254009107	 1.6199465923	 0.104732
H	 0.5362620721	-3.0621648192	-1.1679228403	 0.096335
H	-0.254983559	-5.0104626997	 0.1728756301	 0.110284
H	-0.3191541708	-4.0020254894	 1.6396197888	 0.115119
H	-2.2565160767	-3.8252671642	-0.7538797383	 0.123374
H	-2.6519091227	-3.3633507615	 0.915418513	 0.121203
H	-2.1566177818	-0.2736474273	 0.2772978446	 0.115735
