18
gdb 115115	2.52528	1.53547	1.29393	2.0586	73.82	-0.2371	-0.0068	0.2303	1065.2966	0.14803	-439.07265	-439.064136	-439.063192	-439.106139	31.12	
C	-0.5867099825	 1.0073129383	 0.3545853188	-0.242327
O	-0.2853572962	-0.3675827429	 0.5442268208	-0.230235
C	 1.008023331	-0.6135468171	 1.0077643796	 0.163422
O	 1.2036129337	-0.0630725369	 2.3223515675	-0.243858
C	 0.6133739115	-0.6012525198	 3.4304609228	 0.138016
N	-0.0844685314	-1.6268762593	 3.6423507759	-0.258684
C	-0.4688023521	-2.6077560085	 2.6339842873	-0.208916
C	 0.6136541345	-2.9836198334	 1.6462968186	-0.067724
C	 1.2847268598	-2.0913720471	 0.9250795353	-0.073861
H	 0.122437312	 1.4741886362	-0.3444127317	 0.111429
H	-1.5906905776	 1.052155785	-0.0712625023	 0.133382
H	-0.5664781969	 1.5612428085	 1.2996120104	 0.128916
H	 1.7379922132	-0.0440216387	 0.4164503143	 0.083614
H	 0.849693507	 0.054977328	 4.2690513528	 0.118151
H	-0.7957580489	-3.5021837901	 3.1722802628	 0.108471
H	-1.3459107905	-2.2339486322	 2.0881621361	 0.13621
H	 0.8445610191	-4.0406157617	 1.5369476059	 0.102398
H	 2.0616074244	-2.3975257185	 0.232415295	 0.101596
