21
gdb 37428	3.04616	1.58425	1.27436	0.4138	85.55	-0.2329	0.0316	0.2646	1059.0132	0.186159	-349.936619	-349.929377	-349.928433	-349.968357	30.105	
C	-0.0041198311	 1.4989355709	-0.1287655939	-0.283409
C	 1.3095653991	 0.7927765718	 0.0594044841	-0.069794
C	-0.0060560113	 0.008587627	 0.0679917461	-0.069797
C	 0.3915173812	-0.7148694287	-1.2271394536	 0.004121
C	-0.5061150247	-0.6155633195	-2.4726187249	-0.290491
C	 0.2874811011	-0.3313776228	-3.7256283947	-0.049643
C	 1.4323349611	 0.3511031685	-3.7331184025	-0.04964
C	 2.071819297	 0.9212034337	-2.4894812222	-0.290492
C	 1.7443099828	 0.0915386503	-1.23599717	 0.004118
H	-0.3429340185	 2.0767407744	 0.7253271836	 0.108812
H	-0.273017624	 1.9395872268	-1.0862430685	 0.107457
H	 1.9635412634	 1.0284835941	 0.8909826179	 0.080244
H	-0.5164377456	-0.4497276561	 0.9071710859	 0.080244
H	 0.6105878923	-1.767005703	-1.0293413889	 0.072108
H	-1.0881643542	-1.5357664798	-2.5985350565	 0.096641
H	-1.2499427033	 0.1817539829	-2.3325061759	 0.109834
H	-0.1307444902	-0.6838318644	-4.6653943125	 0.080552
H	 1.9321864987	 0.5459401765	-4.678889821	 0.080552
H	 3.1568418906	 0.9947855482	-2.6263092179	 0.096642
H	 1.7255737202	 1.9555278409	-2.3519554474	 0.109834
H	 2.5675052653	-0.6004787817	-1.0421769872	 0.072106
