13
gdb 43041	3.03252	1.66374	1.23768	4.9455	67.96	-0.2726	-0.0301	0.2426	951.7467	0.090006	-415.563302	-415.55653	-415.555586	-415.594682	25.586	
O	-0.1180607186	 0.0686139822	 0.0824824292	-0.282254
C	-0.052699328	 1.2500372909	 0.0615433453	 0.386742
N	-1.116987789	 2.277455302	-0.0939171434	-0.217092
C	-0.9857849104	 2.9870081325	 1.2534619583	-0.202034
C	 0.3667316091	 3.5138717084	 0.7829170629	-0.115024
C	-0.0190524841	 3.2158840039	-0.609552966	-0.055014
C	 1.0287997304	 2.2982088584	 0.0377954989	 0.073698
C	 2.4294876533	 2.2061107766	-0.1854049835	 0.177692
N	 3.5681507947	 2.1163019776	-0.3697511749	-0.336432
H	-1.7367870372	 3.7757417308	 1.3276076172	 0.141971
H	-1.0398766602	 2.3219238123	 2.1199753977	 0.140027
H	 1.0004065646	 4.3049139358	 1.1654485194	 0.136496
H	 0.0064659153	 3.7051941487	-1.5709127312	 0.151222
