14
gdb 25092	3.44352	1.37288	0.98723	2.7162	77.2	-0.2405	-0.0892	0.1513	1105.3273	0.103732	-432.902113	-432.894803	-432.893859	-432.93535	27.128	
N	-0.0461973424	 1.1409271391	 0.9029474844	-0.469304
C	-0.0222214306	 0.13004475	 0.1157088851	 0.30413
C	-1.2931098257	-0.5243713795	-0.191729437	-0.091441
C	-1.5809097851	-1.4508186267	-1.1149568527	-0.008362
N	-0.7491232579	-2.0670148755	-2.0336191903	-0.371238
C	 0.612385143	-1.9774989953	-2.2181731087	 0.389822
O	 1.1570849073	-2.5961438834	-3.1114393718	-0.337899
C	 1.4704363665	-1.1436844405	-1.296960985	-0.044877
N	 1.2357599156	-0.3058944437	-0.3730865118	-0.275527
H	 0.9137070963	 1.4670195298	 1.038103779	 0.229234
H	-2.1177874496	-0.1613180491	 0.4093804248	 0.124981
H	-2.6062093027	-1.7918691936	-1.2059052036	 0.134991
H	-1.1798622191	-2.6952560764	-2.6984023792	 0.266815
H	 2.5180105445	-1.3366667153	-1.5390909432	 0.148678
