21
gdb 38318	3.36474	1.53702	1.35212	1.7479	79.84	-0.2374	0.0827	0.3201	1025.3172	0.18716	-387.084407	-387.077712	-387.076768	-387.115231	28.718	
C	-0.054145989	 1.5877043164	 0.1696417103	-0.240244
C	 1.4675602053	 1.3571071823	 0.047921913	 0.0541
O	 1.2833120537	 0.1051937043	 0.7920236967	-0.303063
C	 0.0144654812	 0.0495425097	 0.0559174377	 0.0541
C	 0.511721513	-0.2280028181	-1.3804392836	 0.015478
C	-0.3954744632	 0.1254609209	-2.576593455	-0.246149
C	 0.5177126196	 0.9295900376	-3.5265422787	-0.186556
C	 1.4191346329	 1.7583498198	-2.5865779846	-0.246149
C	 1.6825531883	 0.8255747144	-1.3868833509	 0.015478
H	-0.328682361	 1.898961443	 1.1776217511	 0.11118
H	-0.5867523631	 2.1749967591	-0.5814869448	 0.094449
H	 2.2091926735	 2.0274546266	 0.4832331251	 0.075592
H	-0.7274691512	-0.6150952094	 0.4993922576	 0.075592
H	 0.8830263091	-1.253024498	-1.4465061363	 0.075294
H	-0.8224702807	-0.7592055802	-3.0572883144	 0.09548
H	-1.2385652193	 0.7479769098	-2.254252772	 0.096236
H	 1.1375876632	 0.2371654716	-4.1095413903	 0.099646
H	-0.0384712444	 1.5432944786	-4.2421271935	 0.092529
H	 2.3408424551	 2.0873248521	-3.0746946046	 0.095479
H	 0.8906568138	 2.6639718772	-2.2659664582	 0.096236
H	 2.6624461033	 0.3481940822	-1.4563022246	 0.075294
