14
gdb 27683	2.83782	1.35998	0.92464	1.9344	76.07	-0.2139	-0.0174	0.1965	1185.4497	0.099529	-436.699784	-436.691421	-436.690477	-436.732664	30.773	
C	-0.0020796473	 1.5197531235	 0.1481606201	-0.501263
C	 0.0130050776	 0.0364659917	 0.0384925923	 0.165259
C	-0.0023149234	-0.7331905572	-1.0891762081	 0.106656
O	 0.022720456	-2.0704515007	-0.6671761385	-0.238289
C	 0.0507076225	-1.9765129199	 0.6728100296	 0.458663
O	 0.0791370648	-3.1106758814	 1.3629594784	-0.399171
N	 0.0471691615	-0.7817571637	 1.1635032408	-0.369472
C	-0.0354175717	-0.4597750069	-2.4601123025	 0.266057
C	-0.0640777028	-0.2073973995	-3.638920859	-0.433521
H	 0.8882102132	 1.8753807515	 0.6775585117	 0.145168
H	-0.0319411652	 1.9813005928	-0.8410237482	 0.137988
H	-0.8734318046	 1.8541094076	 0.72107208	 0.14519
H	 0.0744499163	-3.8494948489	 0.7415951664	 0.321311
H	-0.089266087	 0.0150585412	-4.676713423	 0.195424
