17
gdb 4945	5.00918	1.29319	1.11926	1.7889	71.49	-0.1831	0.0478	0.2309	1081.3646	0.142486	-363.893633	-363.885461	-363.884517	-363.926668	30.121	
C	 0.0208048179	 1.5324549011	-0.0440792804	-0.367312
C	-0.0183442576	 0.004782115	 0.0598628717	-0.155785
N	-1.3630299173	-0.5417287265	 0.032581349	 0.034449
C	-2.1197490945	-0.8472437699	 1.1277206498	-0.075085
C	-3.3749866774	-1.2343693818	 0.7052905024	-0.31613
C	-3.3686537645	-1.1514108382	-0.713365002	 0.303278
O	-4.3836354831	-1.4486574371	-1.5789994895	-0.4493
C	-2.122944559	-0.7184267489	-1.1083982939	-0.191306
H	 1.0559603348	 1.8879961274	-0.0227172582	 0.116713
H	-0.43982867	 1.8716490119	-0.9761601834	 0.131628
H	-0.5199785547	 1.9915919539	 0.7885024912	 0.128953
H	 0.5511469447	-0.4448633778	-0.7609686873	 0.118647
H	 0.4523515854	-0.3245815885	 0.991417354	 0.116528
H	-1.706528515	-0.767767981	 2.1210337947	 0.112725
H	-4.1906000414	-1.5574349822	 1.3353357791	 0.086249
H	-5.1440526802	-1.7317114675	-1.0639259202	 0.293932
H	-1.7210125781	-0.53466686	-2.0905460569	 0.111816
