17
gdb 19791	3.0859	2.63769	1.86968	1.0269	66.41	-0.224	0.0704	0.2944	765.591	0.143543	-363.82008	-363.813521	-363.812576	-363.850425	26.28	
C	-0.0377064241	 1.5712229482	-0.0575750164	-0.393789
C	 0.0281451622	 0.0465408277	-0.0122142135	 0.009196
C	 0.6479523039	-0.6077699959	-1.2443905533	 0.030375
O	 2.0274770539	-0.2777384554	-1.4553685821	-0.255671
C	 1.7130481238	-1.5141637101	-0.7943529316	 0.027277
C	 1.7744713847	-1.4427800444	 0.7133386457	-0.054802
C	 2.191688734	-0.1410211319	 1.2983934405	-0.24952
N	 0.7637641992	-0.4692996449	 1.175124011	-0.113373
H	 0.9475605055	 2.0018140743	-0.2531794892	 0.132001
H	-0.714864932	 1.9024896465	-0.8509610405	 0.116554
H	-0.4079345083	 1.9625188937	 0.8938454161	 0.128455
H	-0.992587435	-0.3491923733	 0.079990292	 0.087033
H	 0.0581141424	-0.7594677438	-2.1470312719	 0.095803
H	 2.0055556616	-2.4180903103	-1.3205050011	 0.099782
H	 1.8618253709	-2.3773600207	 1.2604504948	 0.090712
H	 2.5461748796	-0.0982871575	 2.3248939804	 0.111815
H	 2.6394647078	 0.5740771178	 0.617823989	 0.138151
