16
gdb 8101	2.82611	2.14313	1.5326	4.4049	65.31	-0.2695	0.0047	0.2742	875.8465	0.129298	-383.751442	-383.743782	-383.742838	-383.783123	28.604	
C	 0.0453560165	 1.5980592018	 0.0399414779	-0.424616
C	 0.0646496362	 0.0866980641	 0.0624898648	-0.064613
C	 1.3016818098	-0.7802490759	-0.2694074627	-0.345683
C	 2.4969960533	-0.1765343797	 0.4081511201	 0.459162
O	 3.6217414399	 0.102433681	 0.1474045799	-0.327549
O	 1.8678852906	-0.0572526447	 1.644037756	-0.294575
C	 0.6894944367	-0.7521659661	 1.1202919751	 0.438902
C	 0.088091227	-1.8005316182	 1.992988263	-0.488166
H	 0.9171848562	 2.01530271	 0.5477032031	 0.149822
H	 0.0309311858	 1.9715976658	-0.9883726333	 0.128929
H	-0.8498048964	 1.9730330879	 0.5471198063	 0.124923
H	-0.8287627449	-0.3800583319	-0.351973321	 0.103508
H	 1.3103121435	-1.5314115611	-1.0461910688	 0.123078
H	-0.3449980434	-1.3503316699	 2.8925116752	 0.142694
H	-0.7091980998	-2.3250424075	 1.4590516275	 0.132247
H	 0.842801139	-2.5286824157	 2.3038656568	 0.141938
