22
gdb 117694	1.96368	1.17561	0.90517	4.5474	83.	-0.2624	0.0355	0.2979	1425.6726	0.190761	-404.371031	-404.359996	-404.359052	-404.407511	39.682	
C	 0.0827812358	 1.5510982508	-0.1633277015	-0.380753
C	 0.1366599719	 0.0484660512	 0.0631590374	-0.050412
O	 0.642313588	-0.5410174865	-1.1236926866	-0.283806
C	 0.6962237011	-1.9640795576	-1.2121257663	 0.351784
C	 1.4300350483	-2.6030817666	-0.0245931016	-0.433087
C	-0.7124691117	-2.557130984	-1.3755765616	-0.421794
C	 1.4807775559	-2.1976231742	-2.5284249187	-0.353473
C	 2.8516126621	-1.6943086626	-2.4808506827	 0.278512
N	 3.9430024282	-1.3166366862	-2.4458943212	-0.321527
H	 1.0790521524	 1.9359861736	-0.3973984058	 0.135796
H	-0.5819503827	 1.7910299479	-0.997901675	 0.124164
H	-0.2859183024	 2.0574319713	 0.7337402892	 0.114461
H	 0.7860652716	-0.1805562183	 0.9198621894	 0.097542
H	-0.8674697226	-0.3349791902	 0.2992447452	 0.087511
H	 0.8531578508	-2.5052969566	 0.8986712681	 0.121497
H	 1.5806777255	-3.671946785	-0.2050649907	 0.119061
H	 2.4083615214	-2.1381291783	 0.1221508863	 0.149934
H	-1.2307991208	-2.0840635517	-2.2147027772	 0.123992
H	-0.6645715767	-3.6353828409	-1.5567935719	 0.118145
H	-1.3099559076	-2.4035552608	-0.4731239297	 0.123905
H	 1.5057025839	-3.2662715172	-2.7649089247	 0.143906
H	 0.9519021076	-1.6891342978	-3.3408056105	 0.154641
