15
gdb 72526	2.34269	1.88928	1.70104	0.9699	59.75	-0.2483	-0.0427	0.2056	873.5215	0.113222	-494.896439	-494.889212	-494.888267	-494.927921	27.809	
O	 0.0324461536	 1.368520098	 0.0880805449	-0.488032
C	 0.0198983452	-0.0163269208	 0.0682356193	 0.221022
C	 0.8310485154	-0.7451089997	 1.1638080922	-0.11345
O	 1.0128397091	-2.0852730848	 0.6194217571	-0.273605
C	 0.3624191598	-2.1073726314	-0.6362660003	 0.092534
O	-1.0421726607	-2.0511420942	-0.4814191721	-0.273576
C	-1.3600024756	-0.7086196496	-0.0099683777	-0.113487
C	 0.6581147441	-0.6994160633	-1.1445150185	 0.372849
O	 1.1776654418	-0.1962965415	-2.0991915354	-0.335452
H	 0.4723749509	 1.6567122123	-0.7257999572	 0.297635
H	 1.804687189	-0.2677195748	 1.3154002292	 0.123925
H	 0.3037237869	-0.8139509367	 2.1208146431	 0.120934
H	 0.6476860998	-2.9930746574	-1.196193897	 0.123826
H	-1.866332016	-0.7777801042	 0.958269294	 0.120957
H	-2.0128598034	-0.204245802	-0.7298312918	 0.123921
