17
gdb 62204	5.86065	0.61109	0.57218	5.3107	76.53	-0.2657	0.0107	0.2764	1832.8614	0.134195	-417.960824	-417.950968	-417.950024	-417.996652	34.654	
O	 0.0950265982	 1.438211475	-0.1224596658	-0.419203
C	 0.0312233226	 0.0412826284	 0.0259522503	-0.015212
C	 0.6330945251	-0.6622841305	-1.2114965909	-0.167196
N	-0.0051089664	-0.0941277585	-2.3940415369	-0.319989
C	 0.7220911444	-0.3509580323	-3.644741765	-0.284074
C	-0.0151047116	 0.1533577244	-4.7967851639	 0.266195
C	-0.6402798446	 0.550329508	-5.7422315759	-0.406586
C	 0.756014248	-0.3584521819	 1.2417545841	 0.285458
N	 1.3212174567	-0.7161705423	 2.1830735699	-0.314283
H	-0.037983034	 1.5747711459	-1.075794679	 0.294693
H	-1.0133430456	-0.2965497161	 0.1485330046	 0.11135
H	 1.701615739	-0.4268424533	-1.2537706321	 0.136858
H	 0.5323578686	-1.7543386577	-1.1175452118	 0.11501
H	-0.954579454	-0.4427845146	-2.4881368105	 0.234947
H	 1.6960705071	 0.150233261	-3.5777220212	 0.148943
H	 0.9361596996	-1.4236060863	-3.7952826202	 0.126077
H	-1.182961103	 0.9079876708	-6.5824074458	 0.207012
