15
gdb 50927	2.24663	1.15743	0.80149	2.1864	69.11	-0.2812	-0.0087	0.2725	1353.7599	0.108908	-457.710303	-457.701087	-457.700143	-457.745915	31.531	
O	 0.0562912908	-0.0971977758	 0.3367622295	-0.263713
C	 0.0746481899	 1.0912123281	 0.244608745	 0.178303
O	 1.224438287	 1.7867550888	 0.0973501616	-0.183218
C	 1.112325915	 3.2252932579	 0.0215868349	-0.124807
C	 0.9779536417	 3.8099678125	 1.3526815714	 0.349695
C	 0.8779457074	 4.2892497424	 2.4491539533	-0.439053
C	 2.360963233	 3.7068606696	-0.6969024627	 0.07957
C	 2.3844541368	 3.8084913418	-2.1577071982	-0.176427
O	 2.2427410255	 4.970917545	-1.3335342074	-0.225359
H	-0.823462459	 1.7374372478	 0.2580489101	 0.090768
H	 0.2429973133	 3.4963865551	-0.5919168875	 0.123941
H	 0.7843070811	 4.715485583	 3.418062523	 0.21507
H	 3.2893236488	 3.5383990186	-0.1537106472	 0.121948
H	 3.3323862681	 3.7191768413	-2.6838909807	 0.130445
H	 1.5017323505	 3.5320515639	-2.7322792149	 0.122837
