14
gdb 129954	3.17443	1.28962	0.99181	2.518	67.62	-0.2295	-0.0214	0.2081	1124.5062	0.101958	-432.868106	-432.860144	-432.8592	-432.901098	28.964	
N	 0.2543741506	 1.3331018106	-0.333036351	-0.619984
C	 0.0778416057	-0.0389025416	-0.1425918887	 0.062782
C	-1.0493423163	-0.7777940752	 0.0566558904	 0.009893
O	-0.7273821344	-2.0700127969	 0.2917506946	-0.165314
N	 0.6392991872	-2.2116158244	 0.2339795303	-0.199529
C	 1.1159900184	-1.013899435	-0.0092688278	 0.368912
C	 2.6036372082	-0.8068967126	-0.0871099677	-0.440778
C	 2.9928639158	-0.0517470457	-1.2802409865	 0.265379
N	 3.2548392662	 0.5792221057	-2.2124107389	-0.313878
H	 0.9523712584	 1.5504123032	-1.0355124911	 0.270026
H	-0.6059804663	 1.8185338923	-0.5494639015	 0.252668
H	-2.101087828	-0.5415783359	 0.0689149907	 0.146374
H	 2.9583429414	-0.2543781985	 0.7920725984	 0.177912
H	 3.100591193	-1.7811360159	-0.0851418611	 0.185538
