17
gdb 124795	4.03224	1.05661	0.8769	5.2841	70.85	-0.2316	0.023	0.2545	1299.5261	0.136975	-451.356599	-451.347457	-451.346513	-451.390658	33.345	
C	-0.0168992448	 1.4925465689	-0.3171007055	-0.383767
C	-0.0417683613	 0.0598346056	 0.2195558048	 0.058933
O	 0.437129933	 0.0527155678	 1.5514072301	-0.443964
C	-1.416660873	-0.5440044593	 0.1362462462	 0.328922
N	-2.0162008352	-1.0203466412	 1.2087226893	-0.305653
N	-3.1956999174	-1.493037161	 0.6938154053	-0.255767
C	-3.2324147954	-1.2672144933	-0.6385285123	 0.418591
N	-4.3172157866	-1.5574007385	-1.4379927893	-0.600001
N	-2.1186251692	-0.6758716538	-1.0304441199	-0.367784
H	 1.0000515767	 1.8885280001	-0.2522719503	 0.119966
H	-0.3452750745	 1.5162013785	-1.3592772893	 0.127865
H	-0.6763875025	 2.1290604134	 0.2798478056	 0.118829
H	 0.6196031287	-0.5538958124	-0.4158863582	 0.083863
H	-0.1432795251	-0.5251469058	 2.0619110376	 0.293869
H	-3.9060734329	-1.8539396627	 1.3072344507	 0.275731
H	-4.7918550331	-2.4248706741	-1.230586163	 0.257688
H	-4.0843168775	-1.4803894924	-2.4183921918	 0.272678
