17
gdb 123719	3.61173	1.64131	1.14424	2.7028	79.48	-0.228	0.0134	0.2414	1027.5307	0.140351	-380.911888	-380.905079	-380.904135	-380.943314	26.757	
C	-0.0079029302	 1.397504603	-0.1365158243	-0.179532
C	 1.3303577355	 2.0266674993	 0.1099199815	-0.071108
C	 2.437979075	 1.3434771145	 0.3841651014	-0.053623
C	 2.4938721438	-0.1559287194	 0.4834562317	-0.387201
C	 1.1617000011	-0.7934974394	 0.2395223783	 0.396355
C	 0.7405024259	-2.1115403874	 0.2281612369	-0.34354
C	-0.6344061097	-2.0436612563	-0.0663895336	 0.003432
N	-1.0475886455	-0.7884508558	-0.2276492224	-0.282326
N	 0.0618817211	-0.0457033717	-0.0369639789	-0.025699
H	-0.7501590838	 1.7676717453	 0.5832958287	 0.136822
H	-0.3870580782	 1.6670187295	-1.1313625883	 0.136809
H	 1.350972882	 3.1106599006	 0.0509717694	 0.101113
H	 3.3713284973	 1.8736538973	 0.5506768625	 0.09761
H	 3.2344764726	-0.5461325931	-0.2295986681	 0.13245
H	 2.8751982081	-0.4468780445	 1.4729559347	 0.132437
H	 1.3440416043	-2.9869393868	 0.407269239	 0.097556
H	-1.3411141991	-2.854460565	-0.1679636284	 0.108445
