21
gdb 119480	4.77833	0.76569	0.73111	1.7528	79.23	-0.2466	0.0751	0.3216	1584.0326	0.181645	-424.188485	-424.17892	-424.177976	-424.223215	35.702	
O	-0.1607889163	 1.5013708563	-0.0830247591	-0.419924
C	-0.0289626487	 0.0902351386	-0.1689558845	-0.065954
C	-1.3835143693	-0.5268454318	 0.1707204343	-0.304066
C	-1.3607687499	-2.0292726625	 0.1422382757	 0.374257
C	-1.5198911628	-2.8399551879	-1.1149300891	-0.321033
C	-2.5256625063	-3.01979147	-0.008708209	-0.126092
C	-1.9472278399	-3.8979552217	 1.0899394156	 0.126504
O	-1.7100606344	-5.2303283648	 0.6855441166	-0.433357
C	-0.7242816445	-2.9221746924	 1.2212850206	-0.339438
H	 0.6885197966	 1.8965197493	-0.2996125747	 0.284582
H	 0.2755173819	-0.2250495559	-1.1795331158	 0.088949
H	 0.7355363301	-0.2821316633	 0.5324651389	 0.086346
H	-1.6859733412	-0.167030596	 1.1625597017	 0.102052
H	-2.1254435492	-0.1471541726	-0.5419232965	 0.104311
H	-1.8905845028	-2.2926803037	-1.9763942395	 0.107345
H	-0.8302919533	-3.644005058	-1.3557490059	 0.116052
H	-3.5801401341	-2.8197811962	-0.1585049675	 0.082211
H	-2.5668866632	-3.8680252463	 1.9961835728	 0.068067
H	-1.3095224858	-5.7008597963	 1.4236009765	 0.281204
H	 0.2506063568	-3.3555731233	 0.9743913675	 0.091358
H	-0.6680685439	-2.4488603217	 2.2056909013	 0.096626
