16
gdb 49218	3.91139	0.94237	0.78664	4.3375	78.16	-0.2651	-0.0724	0.1927	1370.2608	0.124826	-400.793155	-400.784988	-400.784044	-400.826583	29.509	
O	-0.0490106216	-0.0143620192	-0.013160561	-0.262061
C	 0.0121607021	 1.1947031126	-0.0166497121	 0.069396
C	 1.2689060666	 1.9486072351	 0.030639768	 0.240888
C	 1.3594086392	 3.2853614221	-0.0006804045	-0.152732
C	 2.7842904048	 3.7638154439	 0.0206283728	-0.271996
C	 3.5678395129	 2.4778379642	 0.4375096732	-0.149764
C	 2.6269428827	 1.2868232169	 0.0759582996	-0.324594
C	 4.8971274197	 2.3861315688	-0.1560194008	 0.265714
N	 5.9465944376	 2.3180732829	-0.6355479423	-0.320315
H	-0.9057440357	 1.8219129133	-0.0537089807	 0.075553
H	 0.5134492604	 3.9611952269	-0.0707778625	 0.121925
H	 3.0883374876	 4.1159297272	-0.9739075722	 0.147309
H	 2.9571755001	 4.5943951769	 0.7115445149	 0.135402
H	 3.6915412525	 2.4963795853	 1.5255362352	 0.137268
H	 2.6829131045	 0.4757525221	 0.8051679642	 0.143003
H	 2.8796982365	 0.853297141	-0.8982378019	 0.145006
