21
gdb 86811	4.09965	0.78653	0.74823	1.6949	79.4	-0.2374	-0.014	0.2233	1617.8831	0.179493	-424.24135	-424.23116	-424.230216	-424.278166	36.054	
C	 0.4060657007	 1.5176895134	-0.7307434906	-0.397666
C	 0.0350441443	 0.1542047103	-0.1864591833	 0.167036
C	 0.6228262556	-1.110313825	-0.8499504027	-0.298111
C	 1.1087493403	-1.4570493278	 0.5697751161	 0.172407
C	 2.5844151598	-1.7258957247	 0.8061309564	-0.334597
C	 3.0321879998	-3.0869212246	 0.2937208385	 0.379918
C	 4.4647079413	-3.4878006034	 0.5956123373	-0.471625
O	 2.2816523402	-3.8093671753	-0.32431352	-0.293097
O	 0.7147304225	-0.1536529924	 1.0600401811	-0.323048
H	 1.485776524	 1.5913051557	-0.894166366	 0.113499
H	-0.1047210468	 1.7004431324	-1.6827188543	 0.116226
H	 0.1107483297	 2.3042358382	-0.0289083823	 0.126488
H	-1.0538398172	 0.0893149085	-0.0450796485	 0.071923
H	-0.0747899887	-1.8079105449	-1.3122894324	 0.116064
H	 1.4350932917	-0.8955468728	-1.5498900375	 0.099009
H	 0.510380766	-2.2484975011	 1.0394312518	 0.08336
H	 3.1932133744	-0.9490839428	 0.3230119023	 0.122214
H	 2.8119622833	-1.6481514393	 1.87797374	 0.127514
H	 4.6073800094	-3.5797700178	 1.6785330895	 0.142069
H	 4.6924167159	-4.4406325284	 0.1163272299	 0.14316
H	 5.163713294	-2.7187858284	 0.2489734849	 0.137255
