17
gdb 2268	3.73448	2.69226	2.09274	1.7765	63.93	-0.2273	0.0827	0.3101	713.9123	0.147355	-309.684472	-309.677318	-309.676374	-309.715074	27.155	
C	-0.0737492454	 1.5431293694	-0.0260307906	-0.40803
C	 0.101637614	 0.0402129912	 0.0376083252	 0.116286
O	 1.1666240431	-0.4652522882	-0.8244571418	-0.310253
C	 1.7110502057	-1.2072765592	 0.2688670861	 0.069749
C	 2.1956592484	-0.2813281821	 1.3413040967	-0.350561
C	 0.7220373386	-0.6462062117	 1.2639383166	 0.255346
C	-0.0537562614	-1.2632788879	 2.3898782896	-0.496335
H	 0.8295277463	 2.0679254403	 0.2956392465	 0.121157
H	-0.3031065382	 1.853738165	-1.0503823763	 0.128447
H	-0.9055172106	 1.8532008885	 0.6160259217	 0.116306
H	-0.8367290291	-0.4626757107	-0.2371104532	 0.075087
H	 2.0772216073	-2.2091815705	 0.074017089	 0.099377
H	 2.7212233081	-0.7532709523	 2.1667435445	 0.109266
H	 2.5621752108	 0.7047655105	 1.0702344626	 0.112381
H	-0.437560286	-0.4997271974	 3.077642733	 0.121639
H	-0.9100919712	-1.8371063134	 2.0173360607	 0.119169
H	 0.5730357398	-1.9430354516	 2.9759009098	 0.12097
