25
gdb 59112	2.00658	1.38116	1.00148	1.4747	88.25	-0.2533	0.065	0.3183	1342.79	0.227544	-389.48763	-389.476965	-389.476021	-389.522591	40.596	
C	-0.2337930641	 1.3356765099	-0.3294331245	-0.404842
C	-0.1459317174	-0.1916748413	-0.2908013483	 0.116434
O	 0.4832243912	-0.6873106633	-1.4773269984	-0.433411
C	 0.5762080661	-0.7089367701	 0.9514202567	 0.007146
C	-0.0656950558	-0.6111561276	 2.3808732585	-0.001434
C	-1.5848007652	-0.4724182427	 2.4759796773	-0.405969
C	 0.4642321775	-2.0485370136	 2.6681834378	-0.239557
C	 0.7780755639	-2.2482572773	 1.1548280154	 0.006985
C	-0.1739155183	-3.1846121417	 0.4132818089	-0.406248
H	 0.7697553327	 1.7793492429	-0.3058801583	 0.10279
H	-0.7285137153	 1.6620208126	-1.2484190112	 0.121824
H	-0.7904525625	 1.7320466002	 0.5251550756	 0.120167
H	-1.1583051607	-0.6072281801	-0.3370107823	 0.085221
H	 1.3952796509	-0.3756015741	-1.471024757	 0.273244
H	 1.5596516039	-0.218004966	 0.9794910183	 0.051887
H	 0.3920037237	 0.1642258038	 3.0031439571	 0.064457
H	-2.1085718836	-1.2271559734	 1.8810621662	 0.12085
H	-1.9050433286	-0.600063977	 3.5161902181	 0.112809
H	-1.931709253	 0.512015111	 2.1447614636	 0.114263
H	 1.3565931997	-2.0580381539	 3.2996564746	 0.092425
H	-0.2651980769	-2.7433638079	 3.0965428977	 0.089953
H	 1.8042834128	-2.5716940066	 0.9551677343	 0.061526
H	-1.2247584207	-2.9545170018	 0.6185352867	 0.110052
H	-0.021431256	-3.1178483601	-0.6669672642	 0.135202
H	-0.0037413344	-4.2206310422	 0.7271875973	 0.104224
