18
gdb 58153	3.44286	0.7378	0.62876	4.3652	87.	-0.2865	-0.0502	0.2364	1729.3918	0.145168	-401.939284	-401.928974	-401.92803	-401.975066	36.511	
C	-0.0231876552	 1.5626060726	-0.0213194218	-0.393747
C	 0.0288566065	 0.0316317935	 0.0400731575	 0.012873
C	 0.7814299859	-0.4555678014	 1.2843080438	-0.400849
C	-1.4095605792	-0.5470217294	-0.0143961559	-0.062986
O	-2.1568558537	-0.0722649069	-1.1269069843	-0.409539
C	-1.4143833375	-2.0141063919	 0.0113493559	 0.0653
C	-1.4164476929	-3.2226076603	-0.0248923605	 0.074723
C	-1.4208738048	-4.5875781947	-0.0578333211	 0.202797
N	-1.4213110374	-5.7489448022	-0.0867171695	-0.332827
H	 0.9884712877	 1.9759210224	-0.071160564	 0.116381
H	-0.5847218213	 1.9070354108	-0.8917944445	 0.13061
H	-0.5063923818	 1.970452632	 0.874398186	 0.117709
H	 0.552615769	-0.3407782701	-0.8522950123	 0.079636
H	 0.8633946151	-1.5452844195	 1.3143581637	 0.132166
H	 1.7935027398	-0.040867979	 1.3015014349	 0.124166
H	 0.275198246	-0.1284122209	 2.2001934717	 0.120628
H	-1.9575146788	-0.1856284801	 0.8660315856	 0.132544
H	-1.7582767974	-0.4318435448	-1.9281788549	 0.290417
