25
gdb 57569	2.66231	1.1272	1.04468	0.0214	92.07	-0.2637	0.0861	0.3498	1346.5172	0.228156	-352.331559	-352.321522	-352.320578	-352.366311	39.308	
C	 0.1293823044	 1.6699294854	 0.1537163041	-0.425878
C	 0.0952309941	 0.1296635825	 0.1641647034	 0.214413
C	 0.7925306206	-0.3648525655	 1.4459291197	-0.425878
C	-1.3733216417	-0.3060283974	 0.0721741809	 0.047301
C	-1.8996454556	-1.6301982191	 0.5647805801	-0.285026
C	-2.3216347946	-0.34749046	 1.2432677255	-0.292373
C	 0.8213732458	-0.4960636134	-1.0342159141	 0.047302
C	 0.8321664995	 0.0910798587	-2.4228289383	-0.285025
C	 2.1086335828	 0.0299986867	-1.6161938238	-0.292374
H	 1.1527117216	 2.0566038115	 0.190446256	 0.109473
H	-0.3607142651	 2.0834170575	-0.7331090854	 0.111464
H	-0.4014698552	 2.057362155	 1.028726917	 0.115387
H	 0.3100085986	 0.0216642439	 2.3491713439	 0.109472
H	 0.807671168	-1.4573898988	 1.5072328847	 0.111464
H	 1.8325020297	-0.0243911122	 1.4558127133	 0.115387
H	-1.8262002144	 0.0324465966	-0.8574770849	 0.079801
H	-2.6228761188	-2.1550419439	-0.0499985922	 0.106694
H	-1.2333407783	-2.2865032748	 1.1133343086	 0.109678
H	-1.931597438	-0.1594631169	 2.2374273429	 0.10955
H	-3.3352331846	 0.0095036182	 1.0957863829	 0.106723
H	 0.7516551683	-1.5816973472	-1.0128875848	 0.079801
H	 0.717084038	-0.5825915214	-3.2650881002	 0.106694
H	 0.3905672678	 1.0686481454	-2.5808172404	 0.109678
H	 2.505673575	 0.96724852	-1.2423504365	 0.109549
H	 2.8717606723	-0.6850868707	-1.9040587523	 0.106723
