22
gdb 61641	3.94824	0.75612	0.70193	4.124	85.08	-0.2374	0.034	0.2715	1675.752	0.193188	-404.362763	-404.352446	-404.351502	-404.398954	36.893	
C	 0.1173664721	 1.5705777345	-0.2136117721	-0.405514
C	 0.1234635896	 0.0639597231	-0.0570301107	-0.004425
C	 1.4124227151	-0.7182817192	-0.0529601139	-0.290803
C	 0.5767798879	-0.6374110727	 1.2060082058	 0.003947
C	 1.0494460881	 0.1250021034	 2.4303189521	-0.209813
N	 1.7780643924	-0.7008699285	 3.3808440715	-0.024658
C	 3.0867083518	-1.2126554737	 3.0117148985	-0.343029
C	 1.268198451	-0.9794269326	 4.6144542976	 0.150594
O	 1.8047283218	-1.6540276767	 5.4688250887	-0.345507
H	 0.9961561191	 2.0375251849	 0.2403970376	 0.116595
H	 0.1171328205	 1.8447910276	-1.2740997281	 0.12132
H	-0.7717078052	 2.0191547068	 0.2435478781	 0.119537
H	-0.7098067659	-0.4233459908	-0.5570105939	 0.088797
H	 1.4643095617	-1.6604163364	-0.5875209637	 0.114655
H	 2.3362740114	-0.146690456	-0.0740827623	 0.109728
H	 0.0197515848	-1.5346927494	 1.4645059571	 0.091097
H	 1.6842844881	 0.9693850991	 2.1319697746	 0.103691
H	 0.188218315	 0.5471737909	 2.9612078807	 0.117393
H	 3.7503529166	-0.3899193698	 2.7182050915	 0.117853
H	 3.4993150523	-1.7227087649	 3.8822325188	 0.166467
H	 3.0190279243	-1.9158009084	 2.1754508714	 0.133888
H	 0.2765809676	-0.5065791512	 4.7605542007	 0.068187
