18
gdb 126255	1.89951	1.75615	0.99222	4.6978	74.6	-0.2237	0.0136	0.2374	1205.42	0.147962	-435.257173	-435.248083	-435.247139	-435.292043	32.327	
C	 0.2457441032	 1.2172376869	-0.3186518729	-0.371851
C	 0.4047564655	-0.2850430655	-0.0279023695	-0.30193
C	 0.9944442074	-0.5723157139	 1.3210880197	 0.170096
C	 2.2920308646	-0.7013413983	 1.7873510266	 0.349146
N	 2.159414186	-0.9020113875	 3.1203176169	-0.245711
N	 0.859225275	-0.8995884509	 3.4908011644	-0.130597
N	 0.1701674418	-0.7035051318	 2.4097757686	-0.238856
O	 3.5401878535	-0.6628757666	 1.2902135311	-0.258818
C	 3.6855493728	-0.7161088194	-0.1240476184	-0.256382
H	 1.214948462	 1.7280572315	-0.3333223645	 0.110134
H	-0.2362823291	 1.3783508274	-1.2882542175	 0.11208
H	-0.3668990416	 1.6922477102	 0.4528010329	 0.137688
H	-0.5817325063	-0.7593451564	-0.0501533713	 0.127902
H	 0.9919190364	-0.7558924105	-0.8218203095	 0.094256
H	 2.8912750966	-1.0508403507	 3.7964526648	 0.279618
H	 3.23062052	 0.156328265	-0.6051891207	 0.141369
H	 4.759524551	-0.7141138527	-0.3139058965	 0.143662
H	 3.2438682814	-1.632363987	-0.5308748543	 0.138194
