16
gdb 6336	5.31925	1.05435	0.89372	4.7582	63.49	-0.2395	-0.022	0.2175	1259.9578	0.128807	-417.111036	-417.101443	-417.100499	-417.147217	31.73	
C	-0.1884317595	 1.5073745755	-0.0427890018	-0.502091
C	 0.171728875	 0.0305329905	 0.0293336677	 0.41394
O	 1.299797623	-0.3785165657	 0.10663784	-0.291072
N	-0.9604422559	-0.8028585582	-0.0031667703	-0.381354
C	-1.0076299063	-2.200810069	 0.0463763804	 0.394734
O	-0.0419765839	-2.915314108	 0.1263744189	-0.304495
C	-2.4456640459	-2.7518320827	-0.0126598735	-0.278335
N	-2.5451324924	-4.196561704	 0.0342779575	-0.484344
H	 0.7313874092	 2.0902164434	-0.0225212709	 0.159825
H	-0.7400666911	 1.7321885269	-0.9620685285	 0.142047
H	-0.8193917747	 1.7972839382	 0.8044960587	 0.142812
H	-1.8527834801	-0.3350009956	-0.0696931958	 0.252554
H	-3.0179061701	-2.3188720706	 0.819302198	 0.128361
H	-2.922048768	-2.3823306265	-0.931113983	 0.128306
H	-1.9950902393	-4.5859246838	-0.7270153635	 0.239528
H	-2.0805363901	-4.5278578803	 0.8757791162	 0.239585
