13
gdb 62356	4.25475	1.1484	1.10806	3.615	66.2	-0.2636	-0.0293	0.2343	1072.837	0.086487	-456.507752	-456.500005	-456.499061	-456.539921	29.421	
O	-0.0282826714	 1.3747793385	 0.0127616676	-0.450041
C	-0.0142527091	-0.0077608464	 0.025901391	 0.218057
C	 1.0540454421	-0.5806949912	-0.749078345	 0.275003
C	 1.9363211462	-1.0838418919	-1.3903008378	-0.379884
C	-0.4715067751	-0.7812634634	 1.2185281	-0.001179
O	-1.4773375941	 0.0119576352	 1.8967885017	-0.286837
C	-2.3545636961	-0.1597973317	 0.8040683198	 0.460491
O	-3.4851567919	 0.1828297697	 0.7420543637	-0.30195
C	-1.3320473339	-0.8740823119	-0.0247098857	-0.343429
H	-0.4418122899	 1.6664854348	 0.8371541947	 0.308505
H	 2.7234568083	-1.5140669133	-1.9596553409	 0.208846
H	 0.0613637038	-1.5226894345	 1.7972281725	 0.146201
H	-1.4870035089	-1.650681544	-0.7576849717	 0.146218
