19
gdb 47047	3.35532	1.36897	1.07684	4.5001	75.09	-0.256	0.0189	0.2749	1129.4818	0.161622	-423.065755	-423.05819	-423.057246	-423.098113	29.587	
O	-0.0242850181	 0.0640051654	-0.6467666387	-0.324584
C	-0.0474305545	 1.1688009524	-0.1772470687	 0.404661
C	-1.3169129814	 1.994736205	-0.034075096	-0.335123
C	-1.2910104535	 2.9022965968	 1.200053748	-0.234815
C	-0.1023692631	 3.8494659152	 1.0659851493	-0.029248
C	 0.54919012	 4.3220598795	 2.3970873677	-0.249248
C	 1.590815988	 3.1732580209	 2.2674142509	-0.243033
C	 1.196239135	 3.0504572805	 0.7783174736	 0.147065
O	 1.1132293751	 1.7214686022	 0.26106415	-0.236092
H	-1.4231650017	 2.6036267945	-0.9420071022	 0.130523
H	-2.1485826376	 1.2878596496	-0.027147435	 0.134968
H	-2.228728858	 3.4581666092	 1.2977769133	 0.10829
H	-1.1937148393	 2.2878418117	 2.1035456461	 0.111042
H	-0.3328837372	 4.6299617884	 0.3348625061	 0.074794
H	 1.0047841088	 5.3109171161	 2.3072420841	 0.109164
H	-0.091097974	 4.3141586483	 3.2819807818	 0.107462
H	 2.6349260688	 3.3973657198	 2.4917557727	 0.109418
H	 1.2958786709	 2.278667359	 2.8209386226	 0.119732
H	 1.8845088417	 3.5957606055	 0.1260209745	 0.095022
