13
gdb 51409	6.09093	0.95033	0.92233	2.0764	60.55	-0.2811	-0.0447	0.2364	1191.6608	0.086787	-493.63901	-493.631408	-493.630464	-493.671932	26.949	
O	 0.5857462305	 0.0312951339	 0.0771034865	-0.258748
C	 0.6583741323	 1.1935019669	 0.3252916834	 0.173936
O	 0.5691847555	 2.1331778363	-0.653060542	-0.217767
C	 0.7966121714	 3.4938344831	-0.3948759756	 0.170832
C	 1.2996051727	 3.9838458224	 0.9964290714	-0.153259
O	 2.6168436113	 3.3571307266	 0.6968162757	-0.3012
C	 2.260344605	 3.979400386	-0.6092296847	-0.107092
C	 1.9018437472	 5.2114610665	 0.2541076632	 0.481853
O	 2.110736675	 6.3691870939	 0.3816351469	-0.290221
H	 0.7713381481	 1.6187297066	 1.3333362604	 0.101106
H	 0.0008747403	 4.0713314345	-0.8718947353	 0.126067
H	 0.8897908456	 3.8744737372	 1.9970067505	 0.136451
H	 2.9286150552	 3.820438486	-1.4510612606	 0.138043
