20
gdb 92719	2.28514	1.56547	1.05043	3.463	84.32	-0.2063	0.0043	0.2106	1194.2533	0.170895	-403.200527	-403.191402	-403.190458	-403.23438	34.028	
C	 0.1955142952	 1.57323099	 0.0255811704	-0.386466
C	 0.0084641978	 0.0539788488	 0.0270249846	 0.012656
C	 0.6662569445	-0.6255472344	-1.204801893	-0.284416
C	 1.9023446191	-1.2585306551	-0.6190411631	-0.207934
C	 1.8819642451	-1.2295852037	 0.7181259099	 0.366743
C	 2.8957606383	-1.7746606467	 1.6701644936	-0.470303
N	 0.7128983255	-0.5681507557	 1.1752780158	-0.103151
C	 0.2212505996	-0.5207545489	 2.4454211821	 0.135855
O	 0.7254275773	-1.0045530386	 3.4389221696	-0.342243
H	 1.2581205293	 1.8256886681	-0.048358311	 0.131955
H	-0.3254294067	 2.0173590119	-0.8287863009	 0.120619
H	-0.201421123	 2.0247250159	 0.9397196948	 0.122328
H	-1.0568929801	-0.1844128055	 0.0945947247	 0.095669
H	 0.0045456662	-1.3729818215	-1.6624445895	 0.112484
H	 0.8875031171	 0.1144938404	-1.9821819088	 0.109836
H	 2.6926318328	-1.7048527989	-1.2059866454	 0.098242
H	 3.7264788394	-2.204681598	 1.1051547643	 0.116013
H	 3.2800211313	-0.9931378837	 2.332037974	 0.143427
H	 2.463557367	-2.5389802954	 2.3196578183	 0.156642
H	-0.7392289855	 0.0323664711	 2.4769123695	 0.072045
