18
gdb 49520	2.86391	1.68787	1.39849	4.1663	76.47	-0.2378	0.0268	0.2646	971.6961	0.149898	-401.919382	-401.912467	-401.911523	-401.950766	28.007	
O	-0.0185669108	-0.0051253541	 0.2577715356	-0.335564
C	 0.0313450912	 1.1996926609	 0.1211924202	 0.117798
N	 1.1460685986	 1.9069337483	-0.1888568328	-0.014707
C	 2.587153733	 1.5936340441	-0.1142645351	-0.039498
C	 2.777101935	 2.9166261994	-0.934107012	-0.212131
C	 1.5468155319	 3.3211256741	-0.0517196181	-0.051992
C	 2.2051505609	 3.3798732594	 1.35394685	-0.045229
C	 1.9081368701	 2.2727990904	 2.3328979198	-0.3099
C	 2.9901423052	 2.0753764884	 1.3056576795	-0.03591
H	-0.8610044257	 1.8587660777	 0.1707566157	 0.068441
H	 2.9132823817	 0.6158557644	-0.460363794	 0.10498
H	 3.7047571666	 3.4717603057	-0.7835913336	 0.102832
H	 2.5285097029	 2.806120388	-1.9909487552	 0.112051
H	 0.831259954	 4.091037586	-0.3380570656	 0.089248
H	 2.6340749698	 4.3164768892	 1.6889428414	 0.095583
H	 2.2541022587	 2.4445257058	 3.347275397	 0.116224
H	 0.9876651288	 1.7040488697	 2.2798254322	 0.140512
H	 4.0287681581	 1.9988344627	 1.6027219351	 0.097262
