21
gdb 106308	3.48605	1.14348	1.06034	1.9578	78.32	-0.2498	0.0721	0.3219	1212.5062	0.183029	-424.214924	-424.206206	-424.205262	-424.247857	34.587	
O	-0.0868597132	 1.4019508027	-0.1848119584	-0.425103
C	-0.0096941569	-0.0056630249	 0.0085559212	-0.194135
C	-1.4109088613	-0.5548334965	 0.0099126645	 0.366136
C	-2.304818415	-0.5388092251	-1.2689397728	-0.286787
C	-3.074063713	-1.6343468596	-0.4960710397	 0.420666
O	-3.91740356	-2.4812939926	-1.2121806211	-0.486668
C	-1.6838263958	-2.0857130508	 0.0646738983	-0.348407
C	-3.6615735343	-0.8464675524	 0.693207259	-0.282126
C	-2.3945770979	-0.0231061332	 1.0811493431	-0.248022
H	 0.8068153662	 1.7564221057	-0.1762151637	 0.287754
H	 0.5772537361	-0.4846858597	-0.7916122665	 0.082208
H	 0.4821819614	-0.2482168303	 0.9661489358	 0.081421
H	-2.832987906	 0.383830441	-1.5221808022	 0.095409
H	-1.7884138032	-0.9399898486	-2.1441406462	 0.096662
H	-4.410270488	-3.0202776875	-0.5841374691	 0.276134
H	-1.1125347757	-2.6474702693	-0.6782406787	 0.09666
H	-1.6452982255	-2.5827475254	 1.0398274046	 0.079327
H	-4.5057722409	-0.2228467163	 0.3851837727	 0.101399
H	-4.0033720776	-1.509182064	 1.4965746052	 0.083452
H	-2.0443487986	-0.23620279	 2.0963787018	 0.089258
H	-2.5402635008	 1.0552380665	 0.993054302	 0.114762
