19
gdb 40014	3.52889	1.35452	1.12929	2.1485	81.49	-0.2312	0.0034	0.2346	1112.9486	0.16082	-385.868884	-385.861402	-385.860458	-385.90111	30.128	
C	-0.2068693076	 1.4903685371	 0.0189354271	-0.307037
C	 1.2241375403	 1.0511040462	-0.0704841808	-0.300836
C	 0.1099699608	 0.0086854533	 0.0019128795	 0.337341
C	-0.0988713389	-0.7622817545	 1.3068224713	-0.3273
C	 0.1522333189	-2.2610288049	 1.1906652238	 0.024496
O	-0.9889317993	-3.0565283295	 0.8507687059	-0.25844
C	 0.0682665815	-2.913663284	-0.1227945117	 0.007336
C	-0.1953738973	-2.0753852642	-1.3173216606	-0.107764
C	-0.160665388	-0.7424654001	-1.2473790167	-0.113989
H	-0.5573621003	 1.9084579725	 0.9572131242	 0.11518
H	-0.6713589963	 1.9239207381	-0.8606444584	 0.115501
H	 1.7446568619	 1.1737802619	-1.0140060471	 0.116235
H	 1.856024602	 1.1637013152	 0.8042417778	 0.116329
H	 0.5383707383	-0.3416356519	 2.0914941958	 0.097863
H	-1.1362468885	-0.6384913824	 1.6397500906	 0.12335
H	 0.7854617976	-2.7078469435	 1.9566334947	 0.090529
H	 0.624786336	-3.8350707677	-0.2932891804	 0.08712
H	-0.3920414191	-2.5761666942	-2.260247442	 0.092334
H	-0.3137254117	-0.1481528573	-2.1460294331	 0.09175
