17
gdb 86834	2.87045	1.25002	1.03804	4.0922	73.86	-0.2673	0.0089	0.2761	1187.5181	0.135052	-421.843045	-421.834442	-421.833498	-421.876568	31.95	
C	-0.4512362037	 1.3623608282	-0.0451893558	-0.406286
C	 0.1612695783	-0.034905418	-0.0316253751	-0.131834
C	 1.158290162	-0.370165067	-1.1455808858	-0.250724
C	 2.0442272032	-1.4485005323	-0.4775689279	-0.088178
O	 2.0453464712	-1.1025300543	 0.9274161615	-0.217057
C	 0.978854527	-0.3049111557	 1.2318120405	 0.447549
O	 0.7797027135	 0.0910815161	 2.3420721985	-0.33732
C	 1.5430792819	-2.8073208243	-0.6683683878	 0.358102
C	 1.1235643958	-3.9190627178	-0.8445531513	-0.471927
H	 0.3265551273	 2.1313316559	-0.094219158	 0.124696
H	-1.1139492189	 1.491882419	-0.9053837383	 0.118835
H	-1.0264065733	 1.5265727214	 0.8692771855	 0.146642
H	-0.6411865005	-0.7855291463	-0.0301477308	 0.123823
H	 0.6984792331	-0.7303312117	-2.0661964798	 0.128016
H	 1.7720899301	 0.5055616262	-1.3806557958	 0.117097
H	 3.0842620339	-1.3895591796	-0.8095939604	 0.127685
H	 0.7610092992	-4.9068430599	-0.9917256092	 0.210881
