20
gdb 116743	4.62661	0.66172	0.62503	2.4309	81.24	-0.2357	-0.0138	0.2218	1860.5811	0.16728	-440.295158	-440.284123	-440.283179	-440.333402	36.784	
C	-0.4529524341	 1.2848494251	-0.71175524	-0.378977
C	 0.3117803469	 0.163729803	 0.0172287484	-0.268605
C	 1.2607258991	-0.5414684367	-0.9392602078	 0.385118
O	 2.3982044098	-0.1726733532	-1.1081141917	-0.302532
C	 0.687869925	-1.7666136659	-1.6742950091	-0.281774
N	 1.3334992786	-2.0525458074	-2.9288985629	-0.216958
C	 2.5148786598	-2.4908810174	-2.8798509118	 0.154437
O	 3.1921399575	-2.728251724	-4.0164978536	-0.190524
C	 4.533375555	-3.1737954102	-3.850915012	-0.251037
H	 0.2450424687	 2.0229291201	-1.1161267806	 0.141277
H	-1.0477467452	 0.8912658966	-1.5420433502	 0.129862
H	-1.1324704261	 1.7944883147	-0.0232627245	 0.124025
H	 0.9057833725	 0.5864699123	 0.8321654853	 0.122562
H	-0.3983015124	-0.5566234789	 0.4400811701	 0.106069
H	 0.7617645316	-2.5915874167	-0.941048297	 0.119001
H	-0.384217921	-1.6159506104	-1.8405053459	 0.119832
H	 3.0708309436	-2.7268099126	-1.9618432861	 0.082308
H	 5.1508341965	-2.4074108123	-3.3681053462	 0.1364
H	 4.5807607977	-4.099990817	-3.2650902272	 0.124346
H	 4.9184909864	-3.3662139891	-4.8528902972	 0.145168
