19
gdb 97225	2.83848	1.52651	1.10655	3.8498	79.3	-0.2189	0.0426	0.2614	1132.3362	0.160521	-419.191175	-419.182839	-419.181895	-419.224544	31.096	
C	 0.3570831541	 1.3761040421	 0.0654625562	-0.316512
N	 0.3809778335	-0.0739154425	 0.0111379959	-0.310476
C	 0.3388436396	-0.6486543174	-1.1122016079	 0.412048
O	 0.2273571505	 0.0323499987	-2.2951722656	-0.264283
C	 0.6441710554	-0.6054736011	-3.5094146671	-0.054563
C	 1.7279095721	-1.6490693915	-3.2329387693	-0.265254
C	 1.1082296457	-2.6562214155	-2.2891697375	-0.010279
C	 1.5221093721	-2.7955924669	-0.8638102456	-0.242182
N	 0.3139138597	-2.0524412499	-1.2127414691	-0.121636
H	 0.8066983104	 1.8600137085	-0.8109668757	 0.107678
H	-0.6754453465	 1.7411942419	 0.1491198386	 0.119822
H	 0.8879196423	 1.7059073829	 0.9639193419	 0.113156
H	-0.2240774529	-1.0772542229	-3.9883795666	 0.115595
H	 0.9991684959	 0.199043591	-4.1593336017	 0.118844
H	 2.0528300254	-2.1180353834	-4.1658105035	 0.114892
H	 2.597734481	-1.1577279887	-2.7835188382	 0.12203
H	 0.6134048851	-3.5007379278	-2.7656102902	 0.102619
H	 1.3547228323	-3.7324648861	-0.3413037266	 0.127159
H	 2.3715591641	-2.2158679713	-0.5130152079	 0.131342
