23
gdb 63845	2.75239	1.45226	1.43151	1.235	84.63	-0.2324	0.079	0.3114	1093.4721	0.206854	-388.289517	-388.281061	-388.280117	-388.322313	34.656	
C	 0.0938386867	 1.5091196371	 0.0540708089	-0.409252
C	-0.0346868347	-0.0179669617	-0.0234062523	 0.393286
C	-1.5128496187	-0.4185532893	 0.0720909046	-0.409243
C	 0.6033170217	-0.5621039914	-1.3482123261	-0.271196
C	 1.7638384219	-1.5277499562	-1.0931273173	-0.013733
C	 1.3395837915	-2.5599425664	-0.010582502	-0.246577
C	 1.6768989485	-1.4355682315	 1.0053556699	 0.139466
C	 2.7130357752	-0.9132519386	-0.0260117142	-0.246542
O	 0.601022009	-0.5365615241	 1.1743895369	-0.321299
H	 1.1422597574	 1.8154689617	 0.0003453926	 0.11414
H	-0.445399974	 1.9868443357	-0.7711076732	 0.107378
H	-0.3196529179	 1.8746763878	 0.998433917	 0.118562
H	-2.0875173484	 0.0168086559	-0.7526146198	 0.107377
H	-1.6258019758	-1.5055191391	 0.0312491213	 0.114143
H	-1.9381676874	-0.0673675409	 1.0166529161	 0.118564
H	-0.1670569461	-1.0693688329	-1.9399582777	 0.096948
H	 0.9588313561	 0.2803737242	-1.9522004204	 0.096947
H	 2.1912140155	-1.8929894259	-2.0301742221	 0.059286
H	 0.3177215558	-2.9473638842	-0.0204113699	 0.094711
H	 2.0470926488	-3.3902157837	 0.0622833562	 0.096145
H	 2.0050051345	-1.699787835	 2.0129088264	 0.070051
H	 3.6574837065	-1.4594442466	 0.0441863698	 0.096139
H	 2.9105717038	 0.161378445	-0.0495347748	 0.094702
