17
gdb 37673	3.09529	2.4435	2.08108	0.4229	71.75	-0.2114	0.0731	0.2844	753.909	0.141135	-380.816446	-380.811234	-380.81029	-380.845633	23.5	
C	-0.0131048748	 1.5561274464	-0.0685823022	-0.245104
C	 1.4598759115	 1.8997944408	-0.0008236708	-0.041618
C	 2.3936589921	 1.0343000059	-0.7653451745	-0.044132
C	 1.8771218681	-0.1943707892	-1.4723842183	-0.053478
C	 1.6193185809	-1.2525613488	-0.4723679673	-0.038928
C	 1.3309540939	-0.3651753223	 0.7610278205	-0.06639
C	 0.0195127468	 0.0413063435	 0.0245642701	 0.014058
N	 0.472007279	-0.6474996332	-1.2405173622	-0.166739
N	 2.2301955932	 0.8252238097	 0.697381939	-0.127064
H	-0.546917674	 1.9969606645	 0.780439094	 0.109208
H	-0.4937045853	 1.896571012	-0.9917992189	 0.118619
H	 1.7543786542	 2.9167722573	 0.2432968943	 0.090411
H	 3.3536306135	 1.4227603272	-1.0962177667	 0.091372
H	 2.2394046409	-0.4315548343	-2.4658229795	 0.098531
H	 1.8805267368	-2.3023864219	-0.5304469248	 0.097933
H	 1.296514915	-0.7960096377	 1.7595999178	 0.08001
H	-0.9005199217	-0.4314891597	 0.3696402195	 0.08331
