22
gdb 86446	1.88987	1.58846	0.91145	3.2656	84.71	-0.252	0.0264	0.2784	1335.9277	0.194709	-404.388252	-404.378969	-404.378025	-404.422125	35.514	
C	-0.0263068085	 1.5799491235	 0.0445047759	-0.406619
C	 0.0097207343	 0.0520685869	-0.022354161	 0.003206
C	 0.7527525865	-0.4655098999	-1.2585414673	-0.199564
C	 0.7465308835	-1.9905115568	-1.2950194419	 0.127967
C	 1.5901298069	-2.5804557096	-2.4140647528	-0.398675
O	 1.2501219113	-2.5668042725	-0.0687497206	-0.267547
C	 0.8645178995	-2.0515905032	 1.1378678209	 0.361923
N	 0.7682619219	-2.7836287015	 2.1671865802	-0.501693
C	 0.6763321724	-0.5553982791	 1.2203152979	-0.257073
H	 0.9879183527	 1.994445519	 0.0843589957	 0.115627
H	-0.5259353783	 2.0024108427	-0.8335220053	 0.112963
H	-0.5618472276	 1.9249274313	 0.9350015847	 0.118427
H	-1.0256863974	-0.3158228337	-0.0719805167	 0.078965
H	 0.2895750011	-0.0909573514	-2.1788716863	 0.099353
H	 1.7902163349	-0.1034948997	-1.247638693	 0.099035
H	-0.2943162999	-2.3321690449	-1.4068602685	 0.081725
H	 2.6315262487	-2.2576832551	-2.3196421543	 0.125577
H	 1.5643289576	-3.6725437978	-2.3771315393	 0.12859
H	 1.2108365878	-2.2557759889	-3.3875538099	 0.117443
H	 0.9660698796	-3.7552951997	 1.9159894698	 0.214056
H	 1.6749187199	-0.1076456724	 1.3317677744	 0.118782
H	 0.1238513831	-0.3365256072	 2.1359198873	 0.127533
