16
gdb 67756	2.5518	2.00016	1.59037	2.5839	72.63	-0.2227	-0.0334	0.1893	895.5387	0.124559	-400.72952	-400.722342	-400.721398	-400.760821	28.379	
C	 0.020991989	 1.5682330927	 0.042666379	-0.487343
C	-0.0406148427	 0.060595306	 0.0476931579	 0.137041
C	-1.3849240929	-0.6252603867	-0.0498546395	-0.123327
C	-1.2935339486	-1.8298471893	 0.5093741889	-0.095375
C	 0.0818590868	-1.9725621436	 1.0833626691	-0.059087
C	 1.2817740229	-1.6568708225	 0.2217627763	-0.205073
N	 0.6854395824	-0.6460606536	 1.2209317458	-0.149815
C	 0.9461832992	-0.707736774	-0.877743417	 0.435131
O	 1.4484748867	-0.4477174991	-1.9339533338	-0.32657
H	 1.0491812877	 1.9141375205	 0.1745062322	 0.137557
H	-0.3464815069	 1.9530333796	-0.9134144478	 0.136561
H	-0.5929442058	 1.9850469993	 0.8464297799	 0.130008
H	-2.2189454038	-0.2150015011	-0.6041096678	 0.121305
H	-2.0468601405	-2.6044587336	 0.5508700202	 0.118665
H	 0.2724883343	-2.6613172347	 1.9024794386	 0.106586
H	 2.2416069623	-2.1392110099	 0.3680433782	 0.123734
