21
gdb 121385	4.30292	0.84715	0.74389	1.7479	82.11	-0.2424	0.0225	0.2649	1562.2952	0.18275	-424.215783	-424.206604	-424.205659	-424.250302	33.576	
C	 0.0028012799	 1.3915884077	 0.0319563097	-0.227753
O	 0.0126164409	-0.0154852466	 0.0310163516	-0.232675
C	-1.2816923101	-0.5769325195	 0.0244423631	-0.069058
C	-1.1513930255	-2.0997208061	-0.0330714862	-0.066266
C	-2.5223785859	-2.7728031738	 0.1144591268	-0.098724
O	-2.4464850456	-4.16302247	-0.1410259395	-0.250142
C	-2.09548734	-4.4555143546	-1.4800185146	-0.114656
C	-0.9631748912	-3.6099110188	-1.9931154491	-0.093298
C	-0.5120613397	-2.5532284626	-1.3224323731	-0.048427
H	 1.0428990805	 1.7265863177	 0.0365929949	 0.12805
H	-0.4983479809	 1.7981347075	-0.8608932907	 0.104476
H	-0.5047236632	 1.7960467325	 0.9221822315	 0.103979
H	-1.8348307817	-0.2745458809	 0.9313216603	 0.084479
H	-1.8551446889	-0.2107793775	-0.8451458565	 0.086288
H	-0.5164020748	-2.3961718951	 0.8135417551	 0.09851
H	-2.9073962709	-2.6711575968	 1.1335244369	 0.1073
H	-3.2453961796	-2.2952718006	-0.5700922773	 0.084468
H	-1.8204287251	-5.5171294735	-1.4949164914	 0.116629
H	-2.9750313476	-4.3480475115	-2.1429562945	 0.094423
H	-0.5259595817	-3.9066456857	-2.9431373872	 0.090574
H	 0.3221778808	-1.9637669618	-1.6898107398	 0.101823
