22
gdb 57254	2.11515	1.398	1.28048	3.891	85.33	-0.2862	0.0434	0.3296	1178.5236	0.192362	-367.224536	-367.214348	-367.213404	-367.259371	38.755	
C	 0.1695650119	 1.4852757682	 0.1569582491	-0.411496
C	 0.0319697389	-0.0527966987	 0.033199305	 0.013305
C	 0.558643767	-0.6927788024	 1.3394889303	-0.432306
C	-1.4027908586	-0.3886103876	-0.0717976137	 0.285281
N	-2.5256686793	-0.6527207518	-0.1509290449	-0.354599
C	 0.7277611531	-0.5625939458	-1.2565623444	 0.37465
C	 0.2261935141	 0.077319628	-2.5435996969	-0.477749
C	 2.1938005685	-0.9276375081	-1.2234272142	-0.324612
C	 1.1480135115	-2.008522902	-1.3657253797	-0.306053
H	 1.2306239545	 1.7521394581	 0.1634021722	 0.125076
H	-0.3160256916	 2.0069757807	-0.6688794535	 0.137183
H	-0.2827025417	 1.8352383177	 1.0885807435	 0.129153
H	-0.0268681224	-0.3263285779	 2.1862515456	 0.136725
H	 0.4799848822	-1.7813494861	 1.3309486922	 0.13741
H	 1.6011539436	-0.4118379524	 1.5074547861	 0.126521
H	 0.4732293514	 1.1420393346	-2.59891039	 0.119461
H	 0.6865759762	-0.4082000198	-3.4084785341	 0.116829
H	-0.8593881523	-0.0265416228	-2.6428149285	 0.14279
H	 2.7893265638	-0.6644658001	-2.0912088266	 0.114815
H	 2.7393531606	-0.8775646125	-0.2887797326	 0.113199
H	 0.9949782149	-2.6744665288	-0.5255408078	 0.117727
H	 1.0255867036	-2.4892343407	-2.3301061671	 0.116689
