18
gdb 69459	3.7661	1.22782	1.09797	3.4806	72.63	-0.2506	-0.0301	0.2205	1139.0954	0.147117	-439.072167	-439.063769	-439.062825	-439.105504	31.035	
C	 0.0612465847	 1.3992548378	-0.1410120189	-0.475966
C	-0.0215830758	-0.0934668889	 0.0371410723	 0.323244
C	-1.3191943211	-0.8166320695	-0.2899627601	-0.145402
O	-1.2080766581	-2.1109820059	 0.2961978527	-0.253165
C	-0.3745632506	-2.0304557504	 1.4343735474	 0.002455
C	 0.3955353891	-3.328840463	 1.6169492917	 0.150945
O	 0.5663059557	-4.1472626774	 0.7543706236	-0.236578
C	 0.5822137623	-0.8662353991	 1.156680438	-0.12308
N	 1.2046715641	-0.8758678687	-0.1721317112	-0.365428
H	 1.0388766676	 1.7660306604	 0.1790405652	 0.137381
H	-0.069400459	 1.6726121876	-1.1941473003	 0.127976
H	-0.7148227915	 1.9106471864	 0.4386100824	 0.119387
H	-2.1732280125	-0.2604946736	 0.1285761602	 0.098899
H	-1.4915466766	-0.9568738013	-1.3627220383	 0.119265
H	-0.9452018597	-1.8251455344	 2.357646915	 0.086887
H	 0.84272841	-3.4399982357	 2.6314335694	 0.081993
H	 1.148563298	-0.4252444266	 1.9703999852	 0.102009
H	 1.0032524533	-1.759242438	-0.6414828444	 0.249178
