20
gdb 108952	3.27698	1.09207	1.05223	2.7274	80.88	-0.2146	0.0156	0.2301	1247.4098	0.170752	-403.118466	-403.109579	-403.108634	-403.152082	33.524	
C	-0.1934487204	 1.499176784	 0.109920829	-0.313787
N	 0.0365602209	 0.0743408041	-0.0549941365	-0.093572
C	 0.6754046524	-0.4589656166	-1.2477542763	-0.038166
C	 1.5138214361	 0.4493316045	-2.152170783	-0.340811
C	 2.648768539	 0.912658693	-1.2563057296	 0.295285
C	 3.6611905992	 1.9029440239	-1.7330291503	-0.175623
O	 4.5805017998	 2.1872291625	-0.6947798766	-0.412735
C	 2.5785929461	 0.3461770036	-0.0465547776	-0.174041
C	 1.3758274455	-0.5278626398	 0.0825495481	-0.070013
H	 0.6435531727	 2.1467783687	-0.1859562978	 0.105636
H	-1.0739591093	 1.7788440519	-0.4781875768	 0.116422
H	-0.4161153843	 1.6971968435	 1.1634176142	 0.120208
H	 0.174619534	-1.312025222	-1.6974621679	 0.08642
H	 1.8851054289	-0.110775279	-3.020448584	 0.109598
H	 0.9358208855	 1.2922856662	-2.555972241	 0.109646
H	 4.1737380866	 1.4944811621	-2.6230032319	 0.094747
H	 3.1438658145	 2.8175014625	-2.0749462652	 0.095625
H	 5.2444210594	 2.7905643868	-1.0396669041	 0.29012
H	 3.2807662572	 0.5257960205	 0.7567780251	 0.109542
H	 1.4118999462	-1.4180348004	 0.7043897623	 0.0855
