16
gdb 50970	1.95939	1.08376	0.72191	3.852	74.61	-0.2571	-0.0352	0.2219	1490.4443	0.120021	-437.845133	-437.835102	-437.834157	-437.882023	33.749	
N	 0.1479892214	 1.263845712	-0.1503580384	-0.433557
C	 0.0694629339	 0.008688095	-0.2160946203	 0.132065
O	-1.0962352167	-0.6013313555	 0.1083908329	-0.190359
C	-1.1105145852	-2.0367027658	 0.0438256088	-0.112812
C	-2.4219834361	-2.4804144141	 0.7118389415	-0.288112
C	-2.499205033	-2.0943603787	 2.1788722169	 0.14252
O	-2.8816624103	-2.8416888945	 3.0416280133	-0.234638
C	-1.0131029731	-2.522378437	-1.3322770272	 0.338132
C	-0.9397700116	-2.9238233272	-2.462117026	-0.430293
H	 1.0805612656	 1.5710572162	-0.4187743073	 0.235074
H	 0.8614233264	-0.6874680945	-0.5187163988	 0.102371
H	-0.2591811988	-2.4272343729	 0.620889901	 0.123912
H	-3.2461493557	-1.9866874322	 0.1816293168	 0.152386
H	-2.5500775446	-3.5608227176	 0.6201874939	 0.140274
H	-2.1865221932	-1.0541624912	 2.4063137905	 0.110255
H	-0.8733564988	-3.2762589422	-3.4624344976	 0.212784
