18
gdb 14343	4.91409	1.55579	1.32628	1.5859	74.38	-0.2361	0.0063	0.2424	962.8881	0.154752	-347.772992	-347.765871	-347.764927	-347.804147	27.784	
C	-0.1429139028	 1.5624525226	 0.0276147008	-0.397787
C	 0.0360971567	 0.0419315471	 0.0245878366	-0.000565
C	 0.8397949355	-0.4919941272	-1.216097022	-0.263393
C	 1.4874956623	-1.7717630096	-0.6718376247	 0.108656
O	 2.9428290145	-1.9990359823	-0.7049920505	-0.308865
C	 2.9794197158	-2.1208536089	 0.7512562256	-0.15634
C	 1.60433249	-1.5048064944	 0.7922386653	 0.186667
C	 0.8807439572	-0.4704716706	 1.1998186551	-0.207316
H	 0.8274092922	 2.0707974642	 0.0532935161	 0.117719
H	-0.6727282277	 1.8952041953	-0.8710727338	 0.116546
H	-0.7208394084	 1.8942404561	 0.8967562186	 0.114083
H	-0.963892635	-0.4165473628	 0.0329759139	 0.082481
H	 0.215130801	-0.6387714031	-2.1021700791	 0.093767
H	 1.6298146344	 0.2260650475	-1.4629867668	 0.114576
H	 0.9743871222	-2.6896608943	-0.9892933596	 0.077508
H	 3.0489571181	-3.1738936652	 1.0553322609	 0.106419
H	 3.7984067858	-1.5531098626	 1.2053627927	 0.118972
H	 0.9315559283	 0.0450765184	 2.1522702808	 0.096874
