19
gdb 109235	2.88464	1.39737	1.21744	1.368	76.18	-0.2296	0.0339	0.2635	1117.2501	0.160248	-419.19735	-419.188859	-419.187915	-419.230387	31.697	
C	-0.0453384139	 1.3399461118	 0.0019913314	-0.232209
O	 0.019432502	-0.0876244673	 0.054845704	-0.240888
C	 0.6812781667	-0.5888262409	 1.0924726328	 0.446043
N	 1.2388143677	 0.0862099112	 2.0226591725	-0.34218
C	 1.829818835	-0.8904092255	 2.9455578476	-0.193307
C	 1.442005635	-2.266526895	 2.3887942156	-0.057746
C	 0.0059423992	-2.6145110047	 2.2425357982	 0.001755
C	-1.1192007622	-1.9045938044	 2.955769279	-0.425257
N	 0.7569780013	-2.0111174408	 1.0934664622	-0.188587
H	 0.959837483	 1.7681111523	-0.0405278431	 0.141332
H	-0.6038784315	 1.5781852824	-0.9036596859	 0.131117
H	-0.555155223	 1.7360433985	 0.8847443143	 0.136538
H	 2.9202080108	-0.7762315305	 2.9671858885	 0.114172
H	 1.4728016582	-0.7183896916	 3.9689228835	 0.109756
H	 2.184319322	-3.0588695871	 2.3861110901	 0.098344
H	-0.206106706	-3.66152286	 2.0361084166	 0.101033
H	-0.8964061121	-0.8539812199	 3.1525930992	 0.143647
H	-2.0410207546	-1.956481043	 2.3672226997	 0.13157
H	-1.3090071576	-2.3978000657	 3.9151662738	 0.124867
