17
gdb 35768	3.13265	1.49886	1.34069	5.4607	71.66	-0.2456	0.0208	0.2664	991.003	0.139039	-417.984315	-417.977171	-417.976227	-418.015963	27.991	
N	-0.0446943363	-1.1747755693	-0.3388849814	-0.32663
C	-0.0029741023	-0.0385156194	-0.1355192452	 0.290795
C	 0.0078353863	 1.4250357353	 0.0768506957	-0.009943
O	-0.633659044	 1.7852929596	 1.2904340433	-0.270273
C	 0.2272601245	 1.8889700291	 2.4323248283	-0.058865
C	 1.6062249944	 2.3944797822	 2.0193203107	-0.023413
C	 1.473358872	 3.3278862523	 0.7878999305	-0.240497
C	 1.4420882001	 1.9811193793	 0.0244542784	-0.032597
N	 2.1858087741	 1.3109859448	 1.143764744	-0.319839
H	-0.5955236985	 1.8783188791	-0.7188509656	 0.131806
H	-0.275168913	 2.5882235568	 3.1076719318	 0.114716
H	 0.3304830175	 0.9156222236	 2.9284939452	 0.123271
H	 2.2073590594	 2.693493588	 2.8804579872	 0.082144
H	 0.6148112348	 4.00081757	 0.7194454082	 0.114959
H	 2.399069474	 3.8724767654	 0.5899270754	 0.106458
H	 1.8714482815	 1.8887432521	-0.9747279761	 0.093589
H	 3.1800284156	 1.4902601211	 1.0159954094	 0.224318
