10
gdb 23802	4.03053	1.87757	1.28089	3.9222	52.32	-0.281	-0.0942	0.1868	814.2843	0.059613	-458.560134	-458.554164	-458.55322	-458.590517	21.88	
F	 0.0570175358	 0.0408728196	 0.002337705	-0.044894
C	-0.022873215	 1.3608206979	 0.0107817139	 0.321099
C	-1.1948567026	 2.0151154392	 0.0301988206	-0.397738
C	-1.1834132626	 3.4674308521	 0.0381529763	 0.469713
O	-2.1326466288	 4.196856338	 0.0549778702	-0.318743
O	 0.0923581577	 4.0685592573	 0.0243529824	-0.260057
N	 1.2764321449	 3.3760566353	 0.0045578664	-0.019296
C	 1.2146411812	 2.0889125382	-0.0017982507	-0.072717
H	-2.1537371049	 1.5148085767	 0.0403039801	 0.159669
H	 2.1652287243	 1.5670765457	-0.0174988643	 0.162965
