19
gdb 81496	3.58813	1.25182	1.05377	3.1813	81.05	-0.264	0.0292	0.2932	1172.3214	0.160116	-382.027493	-382.018957	-382.018013	-382.060147	33.233	
C	-0.1758486512	 1.5974465166	-0.01796999	-0.44849
C	 0.0251538287	 0.0912006243	 0.0216571562	 0.044175
C	 1.2012732776	-0.6019997482	-0.7476778511	-0.084616
C	 2.1703181429	-0.0726021812	 0.3482744138	-0.263268
C	 0.9187520927	-0.5906561404	 1.1135113657	-0.084574
C	 0.9643153083	-1.8524070184	 0.1760422655	 0.19676
N	-0.2663283435	-2.607184832	-0.0061734417	-0.564993
C	 2.1125084682	-2.755250588	 0.3558349459	 0.210388
N	 2.9543562924	-3.5385223893	 0.4883972334	-0.353314
H	 0.7387782212	 2.1797966002	 0.1150984081	 0.118729
H	-0.6169703221	 1.8906116798	-0.9769865598	 0.122512
H	-0.8777656215	 1.901764453	 0.7662296989	 0.12252
H	-0.9279774721	-0.416737586	-0.1198959033	 0.102489
H	 1.3709164026	-0.6416444397	-1.8250594833	 0.080696
H	 3.1033131635	-0.6196079993	 0.4932183694	 0.128972
H	 2.3460605096	 1.0004143691	 0.3684423217	 0.105276
H	 0.760953367	-0.6171340712	 2.1930964158	 0.080686
H	-0.1806511771	-3.2200590322	-0.8121435576	 0.243026
H	-0.4247234773	-3.2103580471	 0.7960959323	 0.243026
