17
gdb 48856	2.97801	1.38234	1.13647	2.8821	69.21	-0.2556	-0.0416	0.214	1089.1874	0.135999	-458.955495	-458.947702	-458.946758	-458.988002	29.313	
O	-0.412766566	 0.5961820812	 0.7472839128	-0.257768
C	 0.2385987558	 0.9499485841	-0.202955588	 0.111531
C	 1.3941840938	 1.8945287446	-0.1275085103	 0.252741
C	 1.9750174885	 2.1844743029	 1.2436516621	-0.155932
O	 2.9163952723	 3.2350462448	 1.2318655751	-0.237438
C	 2.4009506548	 4.4127367656	 0.6418820643	-0.08314
C	 2.2005278261	 4.241159059	-0.8694309809	-0.239403
C	 1.5074462177	 2.9283968014	-1.1920475139	-0.012463
O	 2.3174800718	 1.7592594725	-1.2143070242	-0.272815
H	 0.035139581	 0.5907532456	-1.2364189312	 0.092318
H	 1.137472107	 2.402041801	 1.924385065	 0.117119
H	 2.4966928024	 1.3011508096	 1.6230034018	 0.130326
H	 1.4450443345	 4.6877067076	 1.1184293433	 0.093921
H	 3.121833004	 5.2070717553	 0.8517520627	 0.116628
H	 1.6098322397	 5.0755726535	-1.2618201304	 0.108931
H	 3.1676142714	 4.2502743951	-1.3827928596	 0.133235
H	 0.7516582452	 2.9498995363	-1.9779241287	 0.10221
