19
gdb 60195	2.46194	1.28263	1.04338	2.6679	76.29	-0.2441	0.0079	0.252	1219.872	0.158216	-419.183533	-419.174089	-419.173145	-419.217752	34.883	
C	 0.2509685085	 1.3035152241	 0.1480137823	-0.396975
C	-0.2942871888	-0.10494935	 0.3960116738	 0.113121
O	-1.0606707455	-0.1584553752	 1.5950444975	-0.426578
C	-1.0622117101	-0.615953601	-0.8322285742	-0.166663
N	-1.5202971569	-2.0171234809	-0.8311599815	-0.097024
C	-1.5258640676	-2.8420120056	 0.3652266179	-0.24528
C	-2.8158538464	-2.3812987076	-0.2480181317	-0.144539
C	-3.5997299072	-1.3766287565	 0.427318195	 0.301567
N	-4.2211832364	-0.5251886594	 0.9063473426	-0.360647
H	 0.7741416608	 1.6565296024	 1.0400019394	 0.130932
H	 0.9478794912	 1.3225459952	-0.6958867075	 0.118364
H	-0.5634114145	 2.0050141345	-0.0684967518	 0.118164
H	 0.5486943697	-0.7822768986	 0.5826402211	 0.09632
H	-1.8905198341	 0.3163359576	 1.4626779939	 0.293837
H	-1.925774617	 0.0372616109	-1.0129244398	 0.119245
H	-0.4054815772	-0.5096365135	-1.7034228342	 0.11701
H	-1.2298920541	-3.8772267843	 0.2154614614	 0.126418
H	-1.2592943122	-2.3950551661	 1.3166536068	 0.167727
H	-3.411332632	-3.067264096	-0.8454315011	 0.135002
