15
gdb 11772	4.68728	1.69811	1.55631	3.0254	65.34	-0.2629	0.018	0.2809	826.2663	0.121199	-362.653781	-362.647538	-362.646593	-362.684053	24.597	
N	-0.0098862632	-1.141837963	-0.053755569	-0.338183
C	-0.000606708	 0.0140960231	-0.0237394215	 0.162177
C	 0.0139717254	 1.4553467288	 0.0163742695	 0.161007
C	-0.3182645444	 2.282196087	 1.3092852355	-0.261792
C	 0.3606497934	 3.3886013441	 0.466089911	 0.0886
C	 1.3335250617	 2.3034631476	-0.0554742037	-0.261777
O	-0.5472774618	 3.5770991649	-0.6298480202	-0.272432
C	-0.8467658869	 2.2215057616	-1.0134697239	-0.108676
H	-1.3703096916	 2.4160337333	 1.5665026822	 0.12047
H	 0.267145829	 1.9569620643	 2.1691932083	 0.124532
H	 0.6744953916	 4.3516288027	 0.8609581544	 0.097684
H	 2.0725513561	 1.9801899241	 0.6775050507	 0.124535
H	 1.7823462217	 2.4566343958	-1.0383123841	 0.120475
H	-0.5389488185	 2.0349617913	-2.0474252341	 0.121693
H	-1.9172281344	 2.0172016644	-0.9086680149	 0.121687
