21
gdb 79356	2.639	1.72217	1.52919	1.6879	79.67	-0.2513	0.0746	0.3259	986.3349	0.186866	-387.109133	-387.101823	-387.100879	-387.140509	30.477	
O	 0.1127238187	 1.3379913726	 0.2067103782	-0.452831
C	 0.0171251772	-0.0684834242	 0.0087929267	 0.153453
C	-1.4205314982	-0.5104841225	-0.1992936511	-0.100108
C	-1.6513402788	-0.5800447255	-1.7060887023	-0.062065
C	-0.3323377835	-0.2307557872	-2.3868053074	-0.240714
C	 0.7068920835	-0.5568318739	-1.2875452676	-0.05317
C	 0.9099789827	-2.0798721862	-1.2026254789	-0.220443
C	-0.4493747197	-2.816372466	-1.0375460865	-0.226672
C	-1.6123849184	-1.8451692697	-0.8840310071	-0.035538
H	-0.4715039995	 1.761476127	-0.4310608416	 0.27776
H	 0.486297676	-0.5083125466	 0.8959582528	 0.075647
H	-2.177013011	-0.143107483	 0.4854623656	 0.08118
H	-2.5883330523	-0.2638045785	-2.1507828474	 0.076382
H	-0.1527041698	-0.8020846394	-3.3046475452	 0.09426
H	-0.3061495836	 0.831121631	-2.6601915175	 0.089341
H	 1.6606806377	-0.0448672905	-1.4351143097	 0.068758
H	 1.4264779925	-2.4299599085	-2.1024083754	 0.095709
H	 1.570323389	-2.3079897915	-0.3585603871	 0.097453
H	-0.6410700951	-3.4602000599	-1.9038093817	 0.100897
H	-0.4189710416	-3.4841487993	-0.1694646323	 0.101266
H	-2.5755294457	-2.3154897181	-0.7057458847	 0.079435
