21
gdb 114845	3.12338	1.22923	1.15732	2.4203	76.52	-0.2502	0.0745	0.3247	1163.0344	0.185597	-424.235549	-424.227571	-424.226627	-424.268205	31.539	
O	-0.1650843411	 1.5378046127	 0.2434110654	-0.422281
C	 0.041889585	 0.1400893166	 0.0833841503	-0.110714
C	-1.3268618038	-0.5075729258	-0.0535474725	 0.05824
C	-2.0909422474	-0.1680278192	-1.3712708315	-0.236893
C	-2.4703503888	-1.580943327	-1.86741928	 0.083195
C	-1.2286982587	-2.2803570943	-2.4677211733	-0.215728
C	-0.439261203	-2.64254712	-1.1727651419	-0.222581
C	-1.3696951405	-2.0571270396	-0.086648809	 0.038366
O	-2.6700490128	-2.302660727	-0.6394266262	-0.264789
H	 0.6950030329	 1.9650687432	 0.2938455697	 0.285482
H	 0.6563022371	-0.0622593401	-0.8078379887	 0.083032
H	 0.5739636702	-0.2827001766	 0.9522494511	 0.083607
H	-1.9203801931	-0.1785107034	 0.8047958228	 0.088596
H	-2.9801378927	 0.4334215667	-1.1728701776	 0.106456
H	-1.4706072721	 0.3804834792	-2.0857460865	 0.098167
H	-3.3746781823	-1.6386086013	-2.4734752086	 0.073237
H	-1.5169304065	-3.1768736329	-3.0213447816	 0.103206
H	-0.6699316115	-1.6298969371	-3.1458623237	 0.09526
H	-0.3608819451	-3.7249391609	-1.0473962318	 0.105059
H	 0.5734941411	-2.2336691477	-1.1518703461	 0.098231
H	-1.2930565871	-2.5337380854	 0.8915374797	 0.072851
