15
gdb 132944	2.37599	1.74279	1.01156	6.7422	72.34	-0.2151	-0.0186	0.1965	1092.2333	0.112988	-461.969004	-461.961111	-461.960167	-462.001371	29.693	
C	-0.0197939288	 1.5049541583	 0.018622736	-0.470925
C	-0.0024324951	 0.0054179992	-0.0183677218	 0.123817
C	-0.0376985671	-0.6961864605	-1.1811950305	-0.057736
N	-0.0215718789	-2.0636715661	-1.204502862	-0.329017
C	 0.0311815459	-2.787255929	-0.0437662159	-0.102001
C	 0.068386036	-2.146832308	 1.1482164148	 0.133136
F	 0.1197863731	-2.8628385297	 2.2688256492	-0.063081
C	 0.0551231878	-0.6895659444	 1.2744457349	 0.213804
O	 0.0886621625	-0.1076532729	 2.3543958213	-0.390378
H	 0.8702964655	 1.8849248492	 0.5309167826	 0.145327
H	-0.0640669875	 1.9369391846	-0.9847587567	 0.106463
H	-0.8767498034	 1.8631128523	 0.5986455351	 0.145369
H	-0.0805207309	-0.2166377091	-2.1522888355	 0.128428
H	-0.0498071449	-2.5477461622	-2.0852391745	 0.271904
H	 0.0415251058	-3.8660743116	-0.1244822669	 0.144889
