21
gdb 78378	2.82701	1.4822	1.32937	1.6647	82.88	-0.2057	0.0622	0.268	1088.8157	0.183016	-383.171024	-383.162707	-383.161763	-383.203446	32.843	
C	-0.0555973869	 1.5726591632	 0.0601208782	-0.438239
C	 0.0392790679	 0.0663888981	-0.0992379758	 0.034424
C	 0.4890013593	-0.7492686863	-1.245430662	-0.074174
C	 1.8076624083	-0.3197075493	-1.92526327	 0.000869
C	 2.4749326395	-0.4011447999	-0.5535126984	 0.01183
C	 2.925052519	 1.0665759262	-0.7703657908	-0.203664
N	 2.1085562291	 1.1307416732	-2.0146937922	-0.075853
C	 2.7409825857	 1.6245769146	-3.2168142625	-0.329741
N	 1.1915219721	-0.8356671702	 0.134090458	-0.190269
H	 0.5577736997	 2.117715756	-0.6505693374	 0.154794
H	-1.0992893762	 1.8649248793	-0.1002195674	 0.112986
H	 0.2061803013	 1.8610739186	 1.0842748239	 0.116771
H	-0.8045057763	-0.4173826643	 0.3965141989	 0.098605
H	-0.1021965625	-1.5858199036	-1.6108773802	 0.088466
H	 2.1187213225	-0.928988466	-2.7780719024	 0.068248
H	 3.2563627544	-1.1181064439	-0.3079194791	 0.089694
H	 2.6767977498	 1.8185070209	-0.0157036709	 0.108172
H	 4.0069166125	 1.1092663566	-0.9681873243	 0.094272
H	 3.6784199136	 1.094779189	-3.4755302924	 0.088413
H	 2.0532124438	 1.5290044994	-4.063670819	 0.122353
H	 2.9797059034	 2.6872832987	-3.1011902441	 0.122042
