15
gdb 54054	1.94952	1.48691	0.95563	4.9031	68.06	-0.2875	-0.0522	0.2354	1207.6777	0.111058	-454.007546	-453.998329	-453.997385	-454.042771	31.566	
C	 0.0347210857	 1.5151563261	 0.0544391963	-0.509543
C	 0.0433990169	 0.0010915259	 0.0509870579	 0.434939
O	 1.0626444147	-0.646776754	 0.0748940111	-0.320143
N	-1.1989069056	-0.6679390908	 0.0168037329	-0.141302
C	-1.1701108846	-2.1334458708	 0.0291321875	-0.30556
C	-1.0100986938	-2.6762104234	 1.3826040336	 0.284546
N	-0.8931886539	-3.1107519968	 2.445827716	-0.296895
C	-2.443270914	-0.0477959162	-0.0412237981	 0.175653
O	-3.4868972675	-0.6487873085	-0.0866120453	-0.29526
H	 1.0732781113	 1.841505673	 0.0935494458	 0.166869
H	-0.4352023577	 1.9196730563	-0.8468868063	 0.156628
H	-0.499838177	 1.9110818926	 0.9229491511	 0.161141
H	-2.1179259725	-2.4798579472	-0.3867888821	 0.189091
H	-0.3376106783	-2.4717196086	-0.589613792	 0.184452
H	-2.3798917538	 1.0494727723	-0.0484180985	 0.115384
