16
gdb 110694	2.5301	1.76157	1.32667	4.6527	69.87	-0.2581	-0.0631	0.1951	972.3406	0.12559	-437.884025	-437.876593	-437.875649	-437.916006	28.556	
O	 0.0160093249	 1.2402273449	 0.5709563013	-0.42335
C	 0.046825628	 0.0613234795	-0.209061221	-0.091898
C	-1.3167871107	-0.6008527829	-0.2283745935	-0.027012
C	-1.5895091206	-2.0877879258	-0.1372631204	-0.106875
C	-0.5523657117	-3.0513715035	 0.3114729907	-0.088155
C	-0.1959349658	-2.7804648476	 1.5760140252	-0.160592
C	-0.8607827776	-1.5195884974	 1.9905438625	 0.339779
O	-0.586847133	-0.7902940651	 2.9157965547	-0.350628
N	-1.8632300205	-1.212427343	 1.0021108924	-0.119707
H	-0.1651508254	 0.9792809148	 1.4845386585	 0.305959
H	 0.3057200501	 0.3673851838	-1.2279220675	 0.114254
H	 0.8215300329	-0.6381770348	 0.1304567188	 0.104066
H	-2.0695537485	-0.0269072791	-0.765876852	 0.122173
H	-2.4493036782	-2.472281022	-0.6807031501	 0.117474
H	-0.1896934039	-3.8642238776	-0.305520009	 0.131205
H	 0.5552465699	-3.2721532944	 2.1786730194	 0.133309
