13
gdb 132907	3.1736	1.42867	0.99121	5.7408	63.93	-0.2655	-0.0733	0.1922	1086.9843	0.088289	-497.914967	-497.907422	-497.906477	-497.947446	27.323	
C	-0.0307941009	 1.5510419243	 0.0160820922	-0.499125
C	-0.0081079729	 0.0514210349	-0.0183624402	 0.026407
C	-0.0399477424	-0.695286939	-1.1457369194	 0.05522
O	-0.0186198522	-2.0255122917	-1.1502585063	-0.208042
C	 0.041080465	-2.7667377312	 0.0754021904	 0.453957
O	 0.0567569287	-3.9533378842	-0.0219343252	-0.320612
N	 0.0743863733	-2.0304833324	 1.2371348525	-0.384142
C	 0.0506990037	-0.7505581201	 1.1660850764	 0.328111
F	 0.0852133215	-0.0855568448	 2.3092479305	-0.04427
H	 0.8631638478	 1.9513751745	 0.5047406289	 0.151172
H	-0.0766493819	 1.9590169434	-0.9968033908	 0.134806
H	-0.8965495312	 1.9231624875	 0.5730441844	 0.151163
H	-0.0855974185	-0.2779750912	-2.1468378733	 0.155355
