17
gdb 28935	3.16434	1.36446	1.03228	2.4946	74.46	-0.2009	0.0447	0.2455	1145.4649	0.13767	-418.028249	-418.020373	-418.019429	-418.061513	30.023	
O	-0.1230954513	 1.3053076447	 0.1936993588	-0.430507
C	-0.0103724949	-0.027577885	 0.0326504062	 0.442575
N	-0.0527633565	-0.6775471952	-1.0999618768	-0.383684
C	 0.1080396223	-2.0032728862	-0.7349542102	-0.099529
C	 0.2439866788	-2.1231742643	 0.6163728553	-0.144761
N	 0.1662730235	-0.8239554795	 1.1196930041	-0.059655
C	 0.2491949413	-0.3772701382	 2.481879504	 0.062435
C	-0.3334300678	-1.199148864	 3.5985286809	-0.285908
C	 1.1670991645	-1.056674109	 3.4604760149	-0.285957
H	-0.2396360296	 1.668417966	-0.6930528543	 0.314003
H	 0.1151377296	-2.7890385977	-1.4741805401	 0.108372
H	 0.3847911715	-2.9739582842	 1.2606459655	 0.125774
H	 0.1519976988	 0.6989092982	 2.5359689942	 0.130364
H	-0.8373414902	-0.6774808499	 4.4043564952	 0.125009
H	-0.7763758681	-2.1534883494	 3.3368095219	 0.128231
H	 1.7256394097	-1.9159298066	 3.1066831383	 0.128227
H	 1.7020572685	-0.4363435697	 4.170709802	 0.125012
