14
gdb 19548	4.29503	1.73955	1.69817	3.015	63.27	-0.2422	-0.0264	0.2158	798.9809	0.107166	-382.477801	-382.471532	-382.470588	-382.508481	23.715	
O	-0.2477167993	 0.0333001455	-0.1523101128	-0.275144
C	-0.0489907147	 1.2054926921	 0.0717442186	 0.000678
C	 1.2483885791	 1.858787596	 0.0135690887	 0.25197
C	 1.9172928834	 2.9189117243	 0.9342429476	-0.167665
C	 3.1888895622	 2.0666395652	 1.0027644081	-0.229676
C	 2.7251500496	 1.4853461656	-0.3555960597	 0.003488
O	 2.8092224941	 2.6342852036	-1.2565513262	-0.283964
C	 1.7207222475	 3.1929393479	-0.5386140134	 0.047835
H	-0.8803876537	 1.8946961058	 0.3498871339	 0.067603
H	 1.4329354955	 3.494545852	 1.712484279	 0.111948
H	 4.1568390653	 2.5762209253	 1.0066240994	 0.113056
H	 3.1308743169	 1.3272231523	 1.8039167378	 0.121495
H	 3.1006969706	 0.5627345436	-0.7878654747	 0.111514
H	 1.1652286435	 4.0175266509	-0.9653240663	 0.126862
