17
gdb 67982	3.10564	1.73765	1.29397	4.459	71.85	-0.2605	0.0053	0.2658	976.2357	0.137203	-421.828825	-421.821912	-421.820968	-421.859871	28.017	
C	 0.0395455975	 1.4938135873	-0.123195623	-0.497147
C	 0.0220285042	 0.0002768327	 0.0369955245	 0.467503
O	 0.4372200621	-0.6374145401	-1.1947316328	-0.290163
C	 0.3710858125	-1.974003111	-0.8956632016	 0.440963
O	 0.6395204909	-2.8520848995	-1.659780089	-0.347606
C	-0.0956524821	-1.9801927724	 0.5397329814	-0.202736
C	 0.6467612972	-0.7821501102	 1.2365611351	-0.102327
C	-0.627486732	-0.5073595933	 2.0705883878	-0.270181
C	-1.1551346671	-0.8237897258	 0.6506273391	-0.102292
H	 1.0458610044	 1.8356548733	-0.3816011628	 0.140217
H	-0.6378340071	 1.7970717229	-0.9266250961	 0.140183
H	-0.2700575426	 1.9925919467	 0.7979421223	 0.130022
H	-0.2372732249	-2.9328762444	 1.042885528	 0.098688
H	 1.6888883723	-0.7714813237	 1.5581548985	 0.090694
H	-0.860040277	-1.2478143695	 2.8383897091	 0.109872
H	-0.7748672528	 0.5056056542	 2.4518306091	 0.103617
H	-2.1865416257	-0.8610224873	 0.2979508004	 0.090693
