22
gdb 15666	3.13569	1.58996	1.17853	0.1428	82.75	-0.2345	0.0293	0.2637	1108.894	0.200959	-313.091496	-313.082848	-313.081904	-313.124406	33.101	
C	-0.0186609443	 1.6341070933	-0.0253665001	-0.385754
C	-0.0406461833	 0.1015221448	-0.0089197441	-0.193712
C	 0.7420919441	-0.5288334348	-1.1643013154	 0.042407
C	 2.2661274233	-0.2286299475	-1.1727308046	-0.261353
C	 2.8448820588	-1.4361940118	-1.8698872457	-0.071806
C	 1.9604962459	-2.4274617847	-1.961469052	-0.063645
C	 0.6399101356	-2.0846994055	-1.3041134762	-0.050847
C	 0.4633599497	-2.8638188135	 0.0128841797	-0.387202
H	 1.0006293057	 2.0223352598	 0.0712895311	 0.117875
H	-0.4333245529	 2.025489019	-0.9613801307	 0.112188
H	-0.609127171	 2.047471558	 0.7983550953	 0.109077
H	 0.3592132688	-0.2553207759	 0.948494921	 0.095453
H	-1.0827779338	-0.2414644545	-0.0509057362	 0.091581
H	 0.340599556	-0.1165766309	-2.0998986927	 0.071374
H	 2.5024969829	 0.7129657829	-1.6809813072	 0.100201
H	 2.6706561894	-0.1334223436	-0.1531235271	 0.098886
H	 3.8708133542	-1.4760179778	-2.2203395978	 0.086987
H	 2.1555546909	-3.4050410723	-2.3909694759	 0.085108
H	-0.2078287951	-2.3419155859	-1.9528422586	 0.067731
H	 1.2682843395	-2.6404236702	 0.7208121297	 0.115703
H	-0.4910630927	-2.6322910805	 0.4959009136	 0.111884
H	 0.4848910383	-3.9421276982	-0.1778178862	 0.107863
