20
gdb 96958	2.84085	1.33688	1.07892	2.1922	81.8	-0.2435	0.0288	0.2723	1205.361	0.170546	-403.134322	-403.125351	-403.124407	-403.168476	33.011	
C	 0.0077427107	 1.4058719881	 0.2361975057	-0.341125
N	-0.080669299	-0.0342886427	 0.4356501821	-0.335986
C	-1.0908504129	-0.6461717928	 0.0241687685	 0.472579
O	-2.2280284927	-0.1701030381	-0.629920879	-0.284737
C	-2.8180402868	-1.5050673126	-0.6462280696	 0.110778
C	-2.4937753034	-2.2634983073	-1.9484571993	-0.264029
C	-1.234748319	-2.8938864422	-1.2614944918	 0.024409
C	 0.1254381512	-2.7232419855	-1.919814524	-0.403415
C	-1.5522554317	-2.0822085923	 0.0440319522	-0.215842
H	 0.8778517093	 1.6290073901	-0.3916641936	 0.125786
H	-0.8810004889	 1.8503785199	-0.226737648	 0.12581
H	 0.1816118063	 1.8900849335	 1.2033313855	 0.125825
H	-3.8272180439	-1.5004963055	-0.2356027366	 0.09142
H	-3.2509075874	-2.9922957295	-2.2472698154	 0.107099
H	-2.2916630697	-1.5959462374	-2.7895041369	 0.115373
H	-1.4160846219	-3.9539462595	-1.0609712616	 0.082863
H	 0.3412461372	-1.6703163116	-2.1244191133	 0.129448
H	 0.9261006287	-3.1050266565	-1.2779360557	 0.124713
H	 0.1647951354	-3.2683408176	-2.8692265765	 0.113718
H	-1.5240172113	-2.6033014605	 0.9990450172	 0.095314
