19
gdb 58410	2.07905	1.06994	0.75536	2.8536	73.31	-0.2556	-0.0365	0.2191	1479.6513	0.15448	-460.175518	-460.164792	-460.163847	-460.212832	36.698	
C	-0.1777109316	 1.6036004431	 0.1118344485	-0.412675
C	 0.0069142085	 0.0883822053	 0.0786477476	 0.122229
O	-1.2270885297	-0.5891881596	 0.3049628152	-0.426193
C	 0.6498705293	-0.4314667346	-1.2265805414	-0.10824
C	 2.1458917722	-0.0525398141	-1.3437051625	-0.314443
C	 2.7118475158	-0.2959536454	-2.7300344589	 0.159555
O	 3.3638978111	 0.5128605233	-3.3378221511	-0.238404
C	 0.5065174355	-1.9472693197	-1.259724469	 0.167712
O	 0.075666664	-2.577189665	-2.1892025108	-0.253816
H	 0.774589844	 2.1380799207	 0.0547853212	 0.129819
H	-0.7993542129	 1.9363456565	-0.7282079813	 0.11754
H	-0.6756647699	 1.8902768994	 1.0416262489	 0.135779
H	 0.6388092284	-0.2181031612	 0.9221818295	 0.097085
H	-1.8470133745	-0.3243117575	-0.3847604786	 0.286015
H	 0.0972580786	-0.0331036323	-2.0872320572	 0.095146
H	 2.3181627888	 0.9965960228	-1.0921925813	 0.132582
H	 2.7261045084	-0.661023689	-0.6326812159	 0.128232
H	 2.4831685238	-1.293719195	-3.1646197873	 0.099884
H	 0.8732852104	-2.4534226377	-0.3368112356	 0.082193
