19
gdb 76595	2.83559	1.05637	1.01448	2.5928	86.07	-0.256	-0.0548	0.2013	1302.8202	0.156497	-385.86447	-385.8546	-385.853656	-385.899269	36.095	
C	 0.5714623493	 0.8252606253	 1.5793361403	-0.41933
C	 0.4044826604	-0.254162089	 0.5330731371	-0.020987
C	 0.0828398783	 0.0179542567	-0.8993881616	-0.02099
C	-0.1133691674	 1.404640294	-1.4706178848	-0.419332
C	 1.4724436259	-0.5432061304	-0.5398231467	-0.16436
C	 2.7010305725	 0.2765058645	-0.6599844247	 0.250127
O	 2.7776196172	 1.475512247	-0.4493412107	-0.331271
C	 3.884727673	-0.4709004207	-1.0676365635	 0.245616
C	 4.8627712179	-1.0871547663	-1.4041899397	-0.403575
H	 1.1080251168	 1.6924436009	 1.1954678056	 0.159265
H	-0.4101443033	 1.1507122691	 1.9414119055	 0.115498
H	 1.1306912266	 0.441172632	 2.4388497462	 0.119176
H	-0.0245930257	-1.1724849918	 0.9273019707	 0.094139
H	-0.5414578437	-0.7352058339	-1.3746158499	 0.094136
H	 0.6001644009	 2.1221107131	-1.0664306559	 0.159264
H	 0.0085201727	 1.3905223766	-2.558720739	 0.119176
H	-1.1279676284	 1.7580238158	-1.2554919058	 0.115498
H	 1.6317941644	-1.58947648	-0.7743569108	 0.096408
H	 5.7357932426	-1.6161680129	-1.7004546324	 0.211542
