19
gdb 81588	3.3825	1.2082	1.04027	1.6726	75.6	-0.2384	0.0839	0.3223	1200.8678	0.158406	-422.925742	-422.917611	-422.916667	-422.958972	31.055	
C	-0.2833556206	 1.34600084	 0.9560249836	-0.431734
C	-0.1173981064	-0.0879055053	 0.4887219909	 0.030862
C	 1.0036314355	-0.4150157021	-0.5393422429	 0.000634
O	 2.0185041273	-0.1493401447	 0.5079014305	-0.312237
C	 0.9727003273	-0.9747841395	 1.1604785831	 0.003237
C	 1.0149794056	-1.905454325	-0.0845475494	 0.001226
C	-0.0342078271	-2.9214029705	-0.4475035001	 0.028118
C	-0.5386136023	-3.9074850497	 0.5197275059	-0.175139
O	-1.3596457731	-2.8234818784	 0.0826342224	-0.224083
H	 0.6876505437	 1.813315491	 1.1306912368	 0.135775
H	-0.8260851173	 1.9353976893	 0.2088703582	 0.113847
H	-0.8635476977	 1.3851947709	 1.8843675293	 0.114554
H	-1.0693442888	-0.5907596499	 0.3187120147	 0.109175
H	 1.1881357999	 0.0031785327	-1.5304507182	 0.089161
H	 1.1194733099	-1.2233181181	 2.2129466024	 0.089806
H	 2.0082072397	-2.3432036394	-0.2245616891	 0.092457
H	-0.0104954089	-3.226908042	-1.4958270857	 0.099052
H	-0.8467502416	-4.8946258103	 0.17912679	 0.118157
H	-0.2109327651	-3.8539653489	 1.5569137677	 0.117131
