16
gdb 14722	11.2262	0.5859	0.56272	3.9672	74.71	-0.2676	-0.0619	0.2058	1898.4616	0.126977	-383.705202	-383.695644	-383.6947	-383.741101	30.962	
C	-0.0522831029	 1.5213096427	 0.0110910482	-0.387584
C	-0.0270560862	 0.0034118969	 0.0025308848	-0.022751
O	-1.3660872589	-0.4641112959	 0.0125403375	-0.240473
C	-1.4458244552	-1.870331629	 0.0057217554	-0.208769
C	-2.835450543	-2.2995509108	 0.016407004	 0.050187
C	-3.9757315334	-2.6961010418	 0.0248726083	 0.085606
C	-5.3512900016	-3.1201982836	 0.035204441	 0.020907
O	-5.7130141937	-4.2744852156	 0.0336061147	-0.229413
H	 0.9674432871	 1.9172269471	 0.0036620508	 0.11959
H	-0.5797455551	 1.900539003	-0.868347452	 0.132371
H	-0.5630620141	 1.8908201762	 0.9044048299	 0.132371
H	 0.4977348657	-0.3734874107	-0.8914192232	 0.091893
H	 0.5143910511	-0.3832128774	 0.8822807161	 0.091894
H	-0.947090218	-2.2927738098	-0.8849136171	 0.13035
H	-0.9304466528	-2.3022734699	 0.8822020472	 0.130348
H	-6.0788287089	-2.2833040813	 0.0451049845	 0.103474
