23
gdb 112648	2.4664	1.20232	0.88717	1.201	88.99	-0.2282	0.0304	0.2585	1412.3543	0.204633	-388.30493	-388.294842	-388.293898	-388.339835	37.38	
C	-0.1018469281	 1.3875267896	-0.1414729608	-0.233668
O	-0.0525921164	 0.0328571175	 0.2374764981	-0.241448
C	-1.2834583668	-0.6436894143	 0.1073096242	 0.133913
C	-1.7431206983	-0.9149014399	-1.3498138339	-0.334742
C	-2.4591021274	-2.2449706592	-1.2346313689	 0.330976
C	-3.3216380582	-2.772260516	-2.3371387944	-0.491727
C	-2.1825936784	-2.8333255889	-0.068081779	-0.171607
C	-1.2177474691	-2.0423705584	 0.7838995341	-0.075357
C	 0.1908648255	-2.661821144	 0.8008490097	-0.375099
H	 0.8799600154	 1.8197923738	 0.067909849	 0.124209
H	-0.3198052698	 1.5148591616	-1.2124423635	 0.106122
H	-0.8631711762	 1.941945697	 0.4308664248	 0.101481
H	-2.0715664135	-0.0568111703	 0.6077776017	 0.064156
H	-2.386503772	-0.1221607989	-1.7498811989	 0.09412
H	-0.8745837692	-0.9858036166	-2.0206525117	 0.108959
H	-2.7516123412	-2.88078513	-3.2690996451	 0.124126
H	-3.7480860576	-3.7472048953	-2.0849504273	 0.121588
H	-4.1480325394	-2.0846421812	-2.5590170778	 0.122017
H	-2.554854403	-3.808024717	 0.2327939285	 0.081099
H	-1.5632076897	-1.9681648997	 1.8227947073	 0.070306
H	 0.5935250332	-2.7595785625	-0.2118948638	 0.113387
H	 0.8802054183	-2.0435858554	 1.3804713472	 0.12466
H	 0.1580416117	-3.6611784618	 1.2471931006	 0.10253
