22
gdb 112178	2.40335	1.19118	0.99774	3.6807	83.27	-0.2382	0.0397	0.2779	1335.1322	0.192413	-404.389569	-404.379173	-404.378229	-404.424745	38.2	
C	 0.1365831599	 1.6215812078	 0.0820575884	-0.387998
C	-0.122174105	 0.1162489887	-0.0464422864	-0.186839
C	 0.6409651097	-0.5126925124	-1.2060975596	 0.039463
N	 2.1003932851	-0.6046370007	-1.0318403864	-0.352066
C	 2.190662955	-1.9561613991	-1.255231669	 0.42798
O	 3.1216057212	-2.7152560377	-1.3268230264	-0.377823
C	 0.648629517	-2.0799198092	-1.4011527087	 0.106338
C	-0.0073148299	-2.9287255232	-0.3140892962	-0.4445
C	 0.2319635133	-2.5374480043	-2.7992031286	-0.440472
H	 1.1952964289	 1.8268613548	 0.2751236372	 0.114775
H	-0.1454469998	 2.153840418	-0.8332473494	 0.11716
H	-0.4367111424	 2.0518610159	 0.9083819615	 0.120028
H	 0.1513143653	-0.3843471053	 0.8880806875	 0.103369
H	-1.1942383251	-0.060107042	-0.2012552031	 0.101817
H	 0.3696712257	 0.0014442412	-2.1387753163	 0.074458
H	 2.8194201165	 0.1044178591	-1.020818327	 0.244765
H	 0.3130041729	-2.6385808192	 0.6898765804	 0.123684
H	-1.0996954925	-2.8578804137	-0.3598512302	 0.114411
H	 0.2676539455	-3.9785378435	-0.4551733083	 0.133189
H	 0.5328376828	-3.5769400283	-2.962095482	 0.134588
H	-0.854797408	-2.4737685548	-2.9244232718	 0.113891
H	 0.700915124	-1.928483542	-3.5786877456	 0.119781
