18
gdb 19080	5.86155	1.40627	1.36772	2.094	73.75	-0.1888	0.066	0.2548	988.5598	0.152454	-343.857239	-343.84982	-343.848876	-343.888258	29.379	
C	-0.2231479132	 1.2223720505	-0.1119284869	-0.320206
N	 0.1013158787	-0.1941464144	 0.032939974	-0.073789
C	 1.5464368938	-0.4562905301	-0.0817590539	-0.064917
C	 0.8848280177	-0.4718535499	 1.2492085457	-0.064944
C	 1.1500051272	-2.0090543726	 1.3628595435	-0.064918
C	 1.8110104448	-1.9936178846	 0.0315906675	-0.064944
N	 0.5331981176	-2.7024785088	 0.2187601455	-0.073789
C	 0.7022029745	-4.1515134688	 0.2860125172	-0.320206
H	 0.547816214	 1.9099718083	 0.2792452563	 0.091444
H	-0.3712537677	 1.4449516486	-1.1733301349	 0.124976
H	-1.1606311231	 1.426517293	 0.4148495282	 0.124967
H	 2.2167354646	 0.2733945516	-0.5184229083	 0.09124
H	 0.93462975	 0.2432557549	 2.0607219793	 0.09123
H	 1.4154011806	-2.5430269987	 2.2666592912	 0.09124
H	 2.6962766355	-2.5131449458	-0.3130990162	 0.09123
H	 1.6483183657	-4.4799662927	 0.7520387442	 0.091444
H	-0.1263937759	-4.5783830427	 0.85982457	 0.124976
H	 0.6623910453	-4.5600699178	-0.7286508723	 0.124967
