21
gdb 82611	2.3611	1.73613	1.36051	1.258	81.52	-0.2382	0.0759	0.3141	1060.8244	0.183126	-387.040027	-387.031471	-387.030527	-387.073448	32.941	
C	 2.524520775	 2.0642042297	-1.3802227291	-0.424926
C	 2.9988545583	 0.6309451439	-1.4747586885	-0.030752
C	 4.240870687	 0.0692851148	-0.8347839424	 0.063023
O	 4.7140621897	 0.6869527344	 0.3481727527	-0.271393
C	 4.1305430414	 0.0742478475	 1.4828790486	 0.063049
C	 2.8341623369	 0.6424286935	 1.9978677261	-0.031745
C	 2.3751331429	 2.0795028633	 1.8450738739	-0.429282
C	 2.8272928661	-0.5363068627	 1.0216032723	-0.103179
C	 2.8989147353	-0.5401912462	-0.4950588643	-0.102354
H	 3.0710359412	 2.6239140234	-0.6251615241	 0.135771
H	 2.6965805975	 2.5610637008	-2.3407839756	 0.112575
H	 1.454523789	 2.134876621	-1.1615846151	 0.117495
H	 2.8781740758	 0.2348791947	-2.4828920042	 0.087437
H	 5.0226296842	-0.4079444448	-1.4204558509	 0.08766
H	 4.852782562	-0.3980104993	 2.1440496411	 0.08776
H	 2.618591477	 0.2533827888	 2.9922714358	 0.088025
H	 1.4174260241	 2.1670318486	 1.3253485445	 0.121546
H	 2.2503223339	 2.5232885519	 2.8376663714	 0.112391
H	 3.1133018895	 2.6808093566	 1.3146657419	 0.140025
H	 2.4755795704	-1.4725425931	 1.4411127544	 0.088464
H	 2.5900759527	-1.4797771066	-0.9401357683	 0.08841
