18
gdb 133101	2.71028	1.41382	1.00069	1.0132	82.08	-0.2367	-0.0041	0.2326	1191.7977	0.148429	-409.994391	-409.986329	-409.985384	-410.027295	30.866	
C	-0.1449340428	 1.5628247714	 0.0058579871	-0.372315
C	 0.0591486839	 0.037976524	-0.0308840331	-0.296175
C	 0.7799527273	-0.4934122226	 1.1848778721	 0.174992
C	 2.1167632782	-0.8964281956	 1.1511310624	-0.190255
C	 2.7658724467	-1.3716035582	 2.2889257698	-0.107841
C	 2.0782463179	-1.4553047342	 3.4962752719	-0.112485
C	 0.7432729655	-1.0623141131	 3.5628194243	-0.227539
C	 0.1277940763	-0.5921213279	 2.4140995863	 0.236288
F	-1.160883015	-0.2134812146	 2.4831487183	-0.087641
H	 0.814525476	 2.0855292069	 0.070287587	 0.118136
H	-0.6602770852	 1.9064235705	-0.8964550359	 0.113038
H	-0.7468069801	 1.8512766258	 0.8717355045	 0.131394
H	-0.9186679692	-0.4491864662	-0.1164542141	 0.115477
H	 0.6279360223	-0.2355733261	-0.9258471509	 0.101919
H	 2.6536660593	-0.8374680081	 0.2088701098	 0.096153
H	 3.8043190421	-1.6785858901	 2.2302845968	 0.096095
H	 2.5738823678	-1.8257773424	 4.3869596534	 0.102658
H	 0.174031499	-1.1148760197	 4.4835099703	 0.1081
