15
gdb 5205	8.54009	1.00215	0.90195	1.8027	83.88	-0.1908	0.0092	0.2	1258.1149	0.119888	-325.548693	-325.540835	-325.539891	-325.583067	27.834	
C	-0.0818638555	 1.4638292927	 0.011004474	-0.508164
C	-0.009082686	 0.011571133	 0.0028958765	 0.162432
C	 0.0632331735	-1.1942341408	-0.0038169034	-0.053248
C	 0.1338845553	-2.6014237007	-0.0117825059	 0.172084
C	 1.2187003547	-3.4667090103	-0.0227094768	-0.25907
C	 0.7167779515	-4.7906805277	-0.0268886158	-0.128276
C	-0.6599336682	-4.7107973198	-0.0184516151	-0.102293
N	-1.0027791312	-3.3887141047	-0.0093349868	-0.302562
H	 0.9214408397	 1.9041297935	 0.0037034933	 0.152601
H	-0.6153299291	 1.8468851594	-0.8668105303	 0.146943
H	-0.5985538883	 1.8379136325	 0.9026194274	 0.146942
H	 2.2526164331	-3.1596153071	-0.0270765903	 0.096023
H	 1.295891006	-5.7010316367	-0.0351263294	 0.096128
H	-1.4148067036	-5.4806376443	-0.0181909575	 0.117045
H	-1.9382632318	-3.0212179889	-0.0018842398	 0.263415
