10
gdb 133414	3.15748	1.41242	0.97588	3.2733	53.31	-0.2861	-0.1004	0.1856	1027.0445	0.051733	-557.800808	-557.794041	-557.793096	-557.832458	24.691	
F	 0.0883909569	 0.0443413855	 0.0021915226	-0.022573
C	-0.0138211	 1.3568502153	 0.0108551499	 0.230228
C	-1.1808966238	 2.0145525675	 0.0300138379	-0.395912
C	-1.1781174176	 3.4711754516	 0.0380206766	 0.477087
O	-2.1357250012	 4.188280307	 0.0546934969	-0.314283
O	 0.0867257751	 4.0836701306	 0.0246048328	-0.263696
N	 1.2779795946	 3.3944543363	 0.0049670368	-0.102211
C	 1.2119165325	 2.1189765714	-0.0011899725	 0.248801
F	 2.3461137108	 1.4491996227	-0.020130154	-0.027913
H	-2.1380761272	 1.5110290222	 0.039935703	 0.170471
