23
gdb 101253	3.16638	0.87475	0.80718	1.4905	82.8	-0.2453	0.0733	0.3187	1558.087	0.202315	-425.416403	-425.405349	-425.404405	-425.452406	40.928	
C	-0.0863718365	 1.5250748844	 0.0952183644	-0.385983
C	-0.0617843917	 0.0034521667	-0.0594824385	-0.17706
C	 0.8475757933	-0.4724942694	-1.2018997582	 0.114932
O	 2.1913053468	-0.015878615	-1.025722481	-0.435126
C	 0.7891028829	-1.9755322904	-1.3709050216	-0.057133
C	-0.1649464483	-2.6369603536	-2.354527706	-0.361116
C	 1.3298096837	-2.6829902333	-2.5772263293	 0.390484
C	 1.9719771904	-1.94365425	-3.7285275985	-0.441205
O	 1.9792700135	-3.8882310836	-2.2466154209	-0.470398
H	 0.9261630469	 1.9116602504	 0.237093963	 0.129221
H	-0.502654373	 2.0048186616	-0.7978626183	 0.111065
H	-0.6968511413	 1.8280327465	 0.9512189832	 0.107088
H	 0.2834149152	-0.4633229732	 0.8745537973	 0.084517
H	-1.0739374677	-0.381181438	-0.2365823433	 0.099351
H	 0.5202963988	 0.014018737	-2.1292816868	 0.078385
H	 2.5780181536	-0.5254274805	-0.3048678004	 0.27749
H	 0.9395702855	-2.5320219527	-0.447121995	 0.087238
H	-0.6552442366	-3.551838531	-2.0414399438	 0.110226
H	-0.7622848408	-1.991796726	-2.9922135608	 0.106461
H	 1.4497786677	-1.0120378419	-3.9588566704	 0.119519
H	 3.0123661686	-1.7025079535	-3.4945348231	 0.134511
H	 1.9549716343	-2.5631470945	-4.6341494962	 0.099679
H	 1.8809786545	-4.4879360299	-2.9949118658	 0.277854
