22
gdb 86613	3.07443	1.09179	0.9043	0.6371	83.33	-0.2276	0.0688	0.2964	1371.2288	0.19334	-404.304443	-404.294873	-404.293929	-404.339031	35.976	
C	-0.2979469553	 1.5174555221	 0.1457529681	-0.380278
C	-0.2151446453	-0.0049556191	 0.1995727304	-0.048891
C	 0.5885426502	-0.6575474453	-0.9666114628	-0.269837
C	 1.8248074746	-0.7412284	-0.0328441111	 0.065494
C	 0.8828131085	-0.5597573975	 1.1687435407	 0.109414
O	 1.4039563846	 0.2668847609	 2.1859551078	-0.432008
N	 2.6057023599	-1.9609737469	-0.0659956269	-0.076275
C	 3.8124423984	-1.9312403627	-0.8912352689	-0.228381
C	 3.9111268618	-1.8926926623	 0.592177033	-0.222059
H	 0.6814435339	 1.9727081995	-0.0297106604	 0.121087
H	-0.9684565174	 1.8379821291	-0.6587063104	 0.109077
H	-0.6797403657	 1.9268927634	 1.0867112402	 0.106763
H	-1.2134343971	-0.4233349671	 0.3594746513	 0.063091
H	 0.2265603392	-1.6573262558	-1.2175649607	 0.107886
H	 0.6946845731	-0.0735614332	-1.8839394853	 0.095596
H	 2.4520651395	 0.1607023851	-0.1317725076	 0.06321
H	 0.5945935306	-1.5454909605	 1.5577848594	 0.074167
H	 0.8092682697	 0.2350207248	 2.9416391724	 0.283573
H	 4.0334215797	-2.8444445105	-1.4362494812	 0.114172
H	 4.0384717705	-1.0129128549	-1.4310192261	 0.108979
H	 4.1950996677	-0.9493589538	 1.0539415762	 0.121921
H	 4.2036365488	-2.7790203554	 1.1475984219	 0.1133
