20
gdb 82080	2.562	1.46491	1.22345	2.1295	79.89	-0.2039	-0.016	0.188	1127.4939	0.169171	-403.115589	-403.10639	-403.105446	-403.149703	34.154	
C	-0.4994538698	 1.5955144111	-0.3036341994	-0.32283
N	-0.0820118531	 0.2140753857	-0.1310894846	-0.088098
C	 0.5443402056	-0.5096391984	-1.2273134108	 0.00506
C	 1.9830672257	-0.1334307325	-1.4640311827	-0.296995
C	 1.6294354161	-1.0426818122	-0.3100383645	-0.110591
C	 0.9692867358	-0.2203521822	 0.8243202311	-0.074819
C	 1.9188523318	 0.7766947058	 1.4681049141	 0.385913
C	 2.589841916	 0.3010081572	 2.7457321534	-0.481028
O	 2.1563672859	 1.8640170206	 0.9867744119	-0.31776
H	 0.2921216191	 2.276594606	-0.639405205	 0.125876
H	-1.3179260713	 1.6115801321	-1.03252379	 0.111208
H	-0.8926312529	 1.9770669303	 0.6440888955	 0.115268
H	-0.063014637	-1.0282969042	-1.9621759551	 0.092561
H	 2.4619117922	-0.6399850473	-2.296889825	 0.110851
H	 2.3311912403	 0.8771403893	-1.2781011752	 0.140424
H	 2.0031517044	-2.0516463701	-0.2026925863	 0.097268
H	 0.53899318	-0.8629522211	 1.6035022611	 0.082999
H	 2.963613452	-0.7229843358	 2.6371028548	 0.137835
H	 3.4075978961	 0.9733992346	 3.0072461963	 0.142611
H	 1.8580726932	 0.2878793709	 3.5623466504	 0.144248
