21
gdb 95069	2.85493	1.58585	1.26591	1.7261	78.18	-0.2476	0.0803	0.3278	1077.3147	0.184332	-424.220918	-424.213141	-424.212197	-424.252668	31.802	
C	 0.2919300404	 1.5584255328	-0.0427649703	-0.399412
C	 0.0047770136	 0.0692979836	-0.0222624203	 0.218864
O	 0.6629131372	-0.5166015896	-1.1218834065	-0.25101
C	 0.1771495543	-1.7900527163	-1.5284517746	-0.09538
C	 0.256982328	-2.8624181928	-0.4370540465	-0.025483
C	-0.6967243865	-2.6016579584	 0.7646246593	-0.265163
C	 0.458062019	-1.8151549797	 1.4428253968	 0.134301
C	 1.4466542302	-2.6054136941	 0.5335815126	-0.232799
O	 0.4639645796	-0.4140686096	 1.2239424723	-0.274141
H	 1.3721843096	 1.7189890016	-0.0048190597	 0.13307
H	-0.1029049222	 2.0030267564	-0.9590156951	 0.119013
H	-0.1685993397	 2.0408439968	 0.8220970896	 0.124207
H	-1.0784140716	-0.120393899	-0.1172139795	 0.058421
H	-0.8588975762	-1.7017160223	-1.8951029137	 0.090777
H	 0.8087851129	-2.0715110772	-2.3768499929	 0.110008
H	 0.1869681354	-3.8498547412	-0.9029184655	 0.066546
H	-1.6493155396	-2.0951427433	 0.588729711	 0.100161
H	-0.8941490671	-3.5232794678	 1.3186935265	 0.102265
H	 0.5764817073	-1.9306296491	 2.5222898614	 0.077846
H	 1.7831014304	-3.5247786314	 1.0205820689	 0.094875
H	 2.3039854151	-2.0487082394	 0.153289506	 0.113036
