18
gdb 128160	3.18184	1.2392	0.94859	2.0142	76.02	-0.207	0.0402	0.2472	1255.8668	0.148513	-435.27167	-435.262282	-435.261338	-435.306922	33.091	
C	 0.1830445314	 1.0855254425	 0.6221313624	-0.319845
N	-0.0163314554	 0.0109547093	-0.356554734	-0.410485
C	-1.269263133	-0.655082193	-0.2835677809	-0.000386
C	-1.3616165945	-1.9962761093	 0.0432329491	 0.439936
O	-0.3822118456	-2.8728370166	 0.3273277392	-0.437945
N	-2.6619559255	-2.3460289403	 0.0279367157	-0.030966
C	-3.2419114876	-3.6304356437	 0.3457634611	-0.326897
N	-3.4580261397	-1.2813552745	-0.2902618153	-0.294413
C	-2.6179841239	-0.2698126787	-0.4780955729	-0.052951
H	 1.1826307214	 1.5120177193	 0.4913217906	 0.11505
H	-0.5541802107	 1.8995550844	 0.5474695367	 0.10909
H	 0.1180179078	 0.6687686414	 1.631339256	 0.129072
H	 0.1584094436	 0.3644408426	-1.291188977	 0.230159
H	 0.4384385055	-2.3662221575	 0.2192174795	 0.303696
H	-3.6159482508	-3.6547167036	 1.3749636067	 0.139653
H	-4.0718577107	-3.8199559513	-0.337054388	 0.151154
H	-2.4801156157	-4.4023794638	 0.2247555587	 0.151412
H	-3.0091300066	 0.6993149227	-0.7553601077	 0.104667
