12
gdb 5012	3.50731	2.39225	1.4222	3.1518	60.7	-0.2232	-0.0515	0.1717	787.3568	0.085441	-418.540676	-418.534616	-418.533672	-418.570786	23.357	
O	 0.0008431638	 1.3605958303	 0.0078045108	-0.414789
C	-0.0598322809	 0.0184421003	 0.0011842336	 0.211246
C	-1.2121125497	-0.6973899806	 0.0043706503	-0.185942
C	-1.1313697795	-2.1265038593	-0.0037384365	-0.159591
C	 0.074577121	-2.7224968567	-0.0144117244	 0.054462
O	 1.2344203875	-2.013828127	-0.0176458888	-0.202369
C	 1.2406828542	-0.6478034586	-0.0098869982	 0.377496
O	 2.288205411	-0.0367045803	-0.0143425415	-0.38523
H	 0.9509418847	 1.5739513614	 0.0034456573	 0.313082
H	-2.1702092363	-0.1910794267	 0.0128399683	 0.125882
H	-2.0263836258	-2.7344574618	-0.0015756411	 0.121037
H	 0.2605771001	-3.787259811	-0.0214074699	 0.144715
