13
gdb 132795	2.35518	1.78458	1.016	2.8418	64.6	-0.2339	-0.0131	0.2208	1030.9515	0.089545	-502.04811	-502.040895	-502.039951	-502.079638	27.783	
N	-0.0161441386	 1.4076070667	 0.1693167172	-0.598078
C	 0.0018756732	 0.0371401951	 0.0632104532	 0.09979
C	-1.1627809219	-0.7352890427	 0.0367009442	 0.18633
F	-2.3391917333	-0.0867576232	 0.0546095017	-0.08891
C	-1.11069119	-2.1160664972	-0.0153165458	-0.094488
N	 0.0397396082	-2.794701255	-0.0454960456	-0.285985
C	 1.1715742464	-2.0850521646	-0.0283072779	-0.094488
C	 1.1867140065	-0.7033611085	 0.0233276036	 0.18633
F	 2.3451957303	-0.023100196	 0.0279460997	-0.08891
H	 0.8252631961	 1.87999651	-0.1216142679	 0.267172
H	-0.8733331791	 1.8569138367	-0.1119470695	 0.267172
H	-2.0374426223	-2.6825598315	-0.0343904953	 0.122032
H	 2.1130994644	-2.6261569697	-0.0580155276	 0.122032
