20
gdb 63806	2.98437	1.64512	1.47952	1.7869	76.83	-0.2329	0.0687	0.3016	981.8959	0.171955	-403.113185	-403.105489	-403.104545	-403.144647	31.847	
C	-0.1497244416	 1.5756020454	-0.0135812255	-0.456882
C	 0.0231577278	 0.0576947074	 0.0010016434	 0.402224
O	-1.2571368266	-0.5809055935	 0.0213170485	-0.480328
C	 0.8951255531	-0.5030862174	-1.1611804901	-0.208567
N	 1.5898862351	-1.6969153294	-0.6382231981	-0.096576
C	 2.5504060825	-1.4587072525	 0.4536524792	-0.041322
C	 2.2821496478	-0.1417384332	 1.1931332495	-0.271827
C	 0.7649634077	-0.5180469097	 1.2117121644	-0.0681
C	 1.1647529898	-1.9428555148	 0.7339629836	-0.0561
H	 0.8071264029	 2.1008849452	 0.051763963	 0.119292
H	-0.6382438201	 1.8984442086	-0.9413039909	 0.107238
H	-0.7798824778	 1.8906686645	 0.823099506	 0.12504
H	-1.7397790595	-0.3048728217	-0.7651776651	 0.2745
H	 0.2607087361	-0.804490239	-2.0012979958	 0.09526
H	 1.6190553286	 0.2290951429	-1.5336864009	 0.099016
H	 3.4916875706	-1.9954344501	 0.4091089655	 0.08891
H	 2.7071681657	-0.166823532	 2.1994020796	 0.108047
H	 2.5808457906	 0.7946032974	 0.7102079139	 0.092231
H	 0.2331531978	-0.3961357338	 2.1541585052	 0.076014
H	 0.7691731594	-2.9041516742	 1.0354271845	 0.091932
