21
gdb 71873	2.87629	1.85884	1.41949	0.7205	87.81	-0.2139	0.0039	0.2178	994.6906	0.184215	-349.912446	-349.905143	-349.904199	-349.94339	31.191	
C	 0.114346676	 1.5203563685	 0.0672760012	-0.488005
C	-0.0120811264	 0.0058895731	 0.0566398389	 0.348477
C	 0.1400724655	-0.6616439079	-1.3804374484	-0.286984
C	-1.3299603151	-1.2194902502	-1.3519909377	-0.022794
C	-1.5513524391	-2.6743773638	-0.7836318055	-0.29375
C	-1.0486300571	-2.0593091354	 0.5103142688	 0.161079
C	 0.1424166947	-2.1235121602	 1.1127865031	-0.162045
C	 0.7574885133	-0.7282103201	 1.1923755397	-0.294719
C	-1.4185518904	-0.6417213028	 0.092760411	-0.099885
H	 1.1504426487	 1.8319639458	-0.1128306313	 0.111949
H	-0.5074454844	 1.9818945472	-0.7076453958	 0.110147
H	-0.1928068755	 1.9366783772	 1.0338573793	 0.111419
H	 0.2673784675	 0.0911701681	-2.1627294881	 0.09881
H	 0.9360292877	-1.4030579552	-1.4862809128	 0.096972
H	-1.9808983821	-0.9083179536	-2.1721717693	 0.066436
H	-2.6212794359	-2.9104143586	-0.8110899434	 0.104326
H	-0.9807533823	-3.5109839923	-1.1962744359	 0.100294
H	 0.7282075736	-3.0268088841	 1.2477502406	 0.086931
H	 1.8381379408	-0.7683565622	 1.0048714865	 0.097797
H	 0.6276264068	-0.2171890174	 2.1581574599	 0.096124
H	-2.302071306	-0.1578537162	 0.5137014791	 0.057422
