13
gdb 2555	3.66511	2.51653	1.68949	1.0166	66.61	-0.2386	0.0281	0.2667	739.7382	0.099242	-270.097243	-270.090084	-270.08914	-270.127903	27.026	
C	 0.0364675937	-1.1794460557	 0.0078637052	-0.459272
C	 0.0023377389	 0.0220635286	 0.0023146457	 0.258383
C	-0.0237017062	 1.4632245443	 0.0059026975	 0.030917
C	 0.4969464072	 2.1798746437	 1.2616723413	-0.285062
C	 1.3259504363	 2.1979245209	 0.0221962412	-0.285068
C	-1.1101458499	 2.0815033808	-0.7117302665	 0.25868
C	-2.0112049772	 2.6097491922	-1.3065981296	-0.459489
H	 0.0565393642	-2.2409281485	 0.0062251893	 0.195782
H	-0.03077284	 3.0819042049	 1.5463594275	 0.137333
H	 0.8019627393	 1.5402967637	 2.0808766419	 0.137344
H	 2.2080780869	 1.570917463	-0.0214463474	 0.137344
H	 1.3753278261	 3.112513789	-0.5559724264	 0.13733
H	-2.8109790992	 3.0663848732	-1.8347969395	 0.195779
