17
gdb 45202	3.60693	1.54114	1.31591	2.6852	72.25	-0.2242	0.0051	0.2294	967.6133	0.139517	-417.944187	-417.937679	-417.936735	-417.974882	26.953	
O	-0.2133232611	-0.0078992447	 0.2056468092	-0.337966
C	-0.1022948187	 1.177437148	 0.0947696465	 0.317539
N	-1.0553952373	 2.2180116775	 0.026923264	-0.374608
C	-0.0698075337	 3.1527210493	-0.5796683302	 0.038667
C	 0.4973851717	 4.5278364409	-0.13188717	-0.223355
N	 1.8482265963	 4.1192684257	 0.414595189	-0.130077
C	 1.363503401	 3.0180830703	 1.3259036709	-0.184965
C	 1.0192272151	 2.256028641	 0.0229220538	 0.117559
C	 2.2939795486	 2.9623359784	-0.504994425	-0.271087
H	-2.0020214167	 2.0712078587	-0.2988358117	 0.248803
H	-0.1106333018	 3.0881605121	-1.6728621285	 0.09138
H	 0.6186927387	 5.2045579492	-0.9808362663	 0.110195
H	-0.0577635052	 5.0431086037	 0.6542779412	 0.123983
H	 2.1972859009	 2.5706005835	 1.8710463969	 0.116878
H	 0.5545189367	 3.2893316798	 2.0075629375	 0.116402
H	 2.3489079028	 3.1963856937	-1.5707100364	 0.113372
H	 3.2465321428	 2.5789473929	-0.1388565308	 0.127279
