18
gdb 75921	2.81912	1.43018	1.20301	4.4042	71.48	-0.2521	0.0101	0.2622	1081.4373	0.149088	-439.105171	-439.096994	-439.09605	-439.137909	31.262	
N	-0.0602743019	 1.5001059362	 0.4668210802	-0.518559
C	-0.0774210189	 0.1326988131	-0.0660750562	-0.252425
C	 0.6645881879	-0.7338244481	 0.9656235066	 0.470302
O	 1.848185781	-0.8407627259	 1.1070179509	-0.351844
O	-0.2344427079	-1.3634766436	 1.7630248084	-0.222739
C	-1.579254401	-0.9904975059	 1.4049746854	-0.136527
C	-1.4691115608	-0.4642086672	-0.015664743	 0.373085
C	-2.6455855125	 0.0650894583	-0.7783588071	-0.332203
C	-2.0219325462	-1.2534598616	-1.1739413748	-0.318523
H	 0.9018994039	 1.8159557559	 0.5503140298	 0.245271
H	-0.5273760511	 2.1271704107	-0.1806828376	 0.23191
H	 0.3991665673	 0.0172943164	-1.0495738637	 0.085442
H	-2.2118722907	-1.876196871	 1.5004652937	 0.119167
H	-1.9197754933	-0.2195987021	 2.1044264398	 0.128664
H	-3.6164501671	 0.0497664283	-0.2932351459	 0.121478
H	-2.4960061667	 0.9185003893	-1.4319163347	 0.115337
H	-1.4430756475	-1.2888823477	-2.0909224352	 0.121561
H	-2.5692315245	-2.1644343551	-0.9553215166	 0.120605
