16
gdb 29310	3.24775	1.27139	0.91894	0.6368	84.42	-0.1883	0.0017	0.1901	1209.6763	0.122845	-400.758413	-400.749151	-400.748207	-400.792111	34.125	
C	 0.0609050057	 1.5197926959	 0.1042003636	-0.54943
C	 0.0488952962	 0.0249992517	 0.0433403417	 0.023506
C	 0.0001997922	-0.7677108934	-1.1027701444	 0.13085
N	 0.0065425677	-2.084771297	-0.7014713748	-0.335543
C	 0.0579574237	-2.1626210791	 0.6659687466	-0.188101
C	 0.0848101626	-0.8687236096	 1.1443783973	 0.287939
O	 0.1373140375	-0.5457491983	 2.4692375366	-0.451935
C	-0.0485864019	-0.3970031077	-2.4588495076	 0.279174
C	-0.0906062921	-0.0828203955	-3.6232083255	-0.468478
H	 0.9636246172	 1.9059285866	 0.5959606019	 0.124167
H	 0.0319276408	 1.943316068	-0.9027187965	 0.14451
H	-0.8034536971	 1.9181322095	 0.6519512575	 0.124512
H	-0.0227401541	-2.8657530055	-1.3321751357	 0.2671
H	 0.0716214453	-3.1036718847	 1.1887932789	 0.126617
H	 0.1473412916	 0.4126967945	 2.5483326769	 0.297218
H	-0.1277332654	 0.1989721045	-4.6459881566	 0.187894
