18
gdb 99551	2.17693	1.27182	0.85887	3.1069	79.14	-0.2539	0.0167	0.2706	1341.5874	0.146321	-398.08307	-398.072781	-398.071837	-398.118491	36.741	
C	-0.2198396165	 1.4690623752	 0.0294943337	-0.333968
N	 0.0795064299	 0.0378303845	-0.0310595654	-0.279258
C	 0.7584046123	-0.4912388712	 1.1458947779	-0.12423
C	-0.1076536136	-0.4992281706	 2.3435452587	 0.277011
N	-0.8503663234	-0.4897424908	 3.2299803975	-0.328448
C	 1.3081902518	-1.9270161168	 0.8220207726	-0.162875
N	 2.1604844369	-1.9492109385	-0.3634702897	-0.507437
C	 2.0118329363	-2.4754128085	 1.9771433762	 0.335197
C	 2.6117200764	-2.8870242521	 2.9325602264	-0.43533
H	 0.718023492	 2.0324671456	 0.0728043661	 0.131361
H	-0.743978792	 1.7597095273	-0.8844862141	 0.13233
H	-0.8357818857	 1.7591065113	 0.8940533497	 0.130552
H	-0.779993002	-0.4831530962	-0.1802033529	 0.234427
H	 1.6223273244	 0.1501848952	 1.3560935262	 0.129151
H	 0.4292269858	-2.5551409473	 0.6150404296	 0.12273
H	 1.7329719746	-1.3439240898	-1.0612454273	 0.239526
H	 3.068160149	-1.5531389364	-0.1361655794	 0.232067
H	 3.1256936838	-3.267901551	 3.7805208841	 0.207195
