20
gdb 98852	2.85475	1.18255	0.89382	1.8514	77.04	-0.2181	0.0119	0.2301	1343.1562	0.169532	-440.290911	-440.281069	-440.280125	-440.326682	34.402	
C	-0.5686700333	 1.2783888536	-0.7234349823	-0.240252
O	-0.6982555197	-0.1491310424	-0.6901830815	-0.233972
C	-0.8931591543	-0.6846193281	 0.532319885	 0.45713
O	-0.9229305337	-0.041253465	 1.5501582047	-0.363897
C	-1.0858816552	-2.1846530158	 0.423866554	-0.070681
C	-1.5173466503	-2.9512284795	 1.690189474	-0.256193
C	-2.5617892719	-3.6411650312	 0.7793262137	-0.162327
N	-2.3617782567	-2.5710709827	-0.2194943477	-0.068488
C	-2.3574713481	-2.9092279365	-1.6248772192	-0.326896
H	-0.4137775797	 1.5390118066	-1.7704370149	 0.13223
H	-1.4741051854	 1.755740215	-0.3401449988	 0.142659
H	 0.281758834	 1.6017407212	-0.1180223051	 0.140973
H	-0.2042080368	-2.6266972761	-0.0701455416	 0.077914
H	-0.7677108743	-3.5867371296	 2.1603077951	 0.107619
H	-1.9537807294	-2.2826359917	 2.4322189162	 0.133728
H	-2.2159939802	-4.6263727332	 0.4255604161	 0.084836
H	-3.5885816151	-3.7388931441	 1.146422948	 0.105511
H	-3.3613015975	-3.2206783668	-1.9326778178	 0.120048
H	-2.0780392735	-2.0287900749	-2.2103812439	 0.132383
H	-1.6533551291	-3.7274614589	-1.8710396841	 0.087673
