18
gdb 119868	3.36117	0.98648	0.81215	3.7599	75.61	-0.2457	-0.0238	0.2218	1396.5236	0.148238	-439.132959	-439.123877	-439.122933	-439.167604	32.623	
O	 0.1019759585	 1.4178996055	-0.064663816	-0.415675
C	 0.058711529	 0.0016483854	-0.0767435903	-0.064924
C	-1.3646041419	-0.5372408617	 0.1688259699	-0.322629
C	-1.4198430866	-2.0289868619	 0.1313202352	 0.223295
C	-1.5935761846	-2.922649122	 1.1100204414	-0.209718
C	-1.5623839173	-4.3281762342	 0.5670513482	-0.204926
N	-1.350746618	-4.1009516652	-0.8432892823	-0.331419
C	-1.252725786	-2.7687472536	-1.1651482485	 0.364433
O	-1.0706887785	-2.296914042	-2.2711398524	-0.394824
H	-0.3389939673	 1.7299306282	-0.8612676722	 0.284727
H	 0.4434789861	-0.4116005417	-1.0181107591	 0.120274
H	 0.720696548	-0.3272700529	 0.731283832	 0.108121
H	-1.732960034	-0.1540747966	 1.1252537777	 0.107608
H	-2.014468875	-0.1437433304	-0.6238349696	 0.113088
H	-1.7479560341	-2.717107441	 2.1618074861	 0.113907
H	-0.7542998106	-4.9213448162	 1.0201123653	 0.126719
H	-2.5040483824	-4.8605332983	 0.7664068538	 0.126723
H	-1.2619816254	-4.8256668016	-1.5344532894	 0.25522
