17
gdb 34417	2.35013	1.71366	1.27878	3.8231	72.26	-0.2527	0.0186	0.2713	1017.9482	0.138692	-417.994648	-417.98711	-417.986165	-418.026859	28.603	
N	 0.0022612397	-1.1515709833	 0.0410694793	-0.34232
C	-0.0126465795	 0.0048814193	 0.050395679	 0.215611
C	-0.0378142142	 1.4523963692	 0.0449298866	 0.141328
C	-0.3187009642	 2.1650428832	-1.3099582182	-0.221446
N	 0.7672817407	 3.1220081102	-1.0012374714	-0.319407
C	 1.319665197	 2.2308458957	 0.0479637736	-0.049528
C	 1.4344247696	 2.8433441586	 1.4560550738	-0.076998
O	 0.3190393581	 2.3519759565	 2.1956043377	-0.244331
C	-0.7270410078	 2.0719367784	 1.2884166938	-0.131484
H	-0.1231353359	 1.5035028461	-2.1614174186	 0.119911
H	-1.3100729947	 2.6160652125	-1.4242375557	 0.11828
H	 1.3924969967	 3.324636445	-1.7719220654	 0.231046
H	 2.1938148749	 1.644196448	-0.2498847709	 0.095968
H	 2.3387190578	 2.5396212833	 1.9905282448	 0.115254
H	 1.4074270494	 3.9385306107	 1.373746534	 0.106997
H	-1.2560929514	 2.9875998153	 0.9843227042	 0.107774
H	-1.428934816	 1.3959270312	 1.7802022733	 0.133346
