18
gdb 64881	3.03612	1.01141	0.87927	3.9426	73.59	-0.2425	-0.0331	0.2094	1337.1053	0.144687	-439.079906	-439.070453	-439.069509	-439.115176	33.552	
C	-0.198897708	 1.725631845	 0.0627464445	-0.47075
C	 0.0228182733	 0.21495546	 0.0665064389	 0.261001
C	 0.8879626825	-0.3507956344	-1.0873472229	-0.31875
C	 2.0108910269	-0.5585403776	-0.0249150671	-0.042026
N	 1.025903035	-0.2873456825	 1.0498862289	-0.379085
C	 2.6003021114	-1.9518686592	 0.03066374	 0.166095
O	 3.7162026011	-2.2325466635	-0.3213097079	-0.246163
C	-1.2957984923	-0.5058792807	 0.30177459	 0.140481
O	-1.8821879513	-1.1581050762	-0.5210839599	-0.248527
H	 0.7533787239	 2.2532310892	-0.0541348043	 0.128882
H	-0.8585752515	 2.0213293664	-0.7597402182	 0.141767
H	-0.659691772	 2.0566883199	 1.0010059902	 0.126899
H	 0.4774150899	-1.2720300772	-1.5046185825	 0.138404
H	 1.1315258838	 0.3367981403	-1.8966885236	 0.122664
H	 2.8253967849	 0.1682229218	-0.1144663286	 0.091434
H	 1.3252204526	 0.3792571266	 1.7535713305	 0.224955
H	 1.8867090456	-2.715378472	 0.4162823102	 0.084371
H	-1.6770667859	-0.3954184058	 1.3437161318	 0.078347
