15
gdb 15955	3.17337	1.90549	1.35261	0.6767	67.24	-0.2423	0.0266	0.2689	903.5724	0.117852	-362.571157	-362.563735	-362.562791	-362.602881	27.885	
C	-0.2318561744	-1.1299748773	-0.5049866293	-0.441091
C	-0.0979851361	 0.0183211983	-0.174855881	 0.356178
C	 0.0791172712	 1.412178387	 0.1921121376	-0.266586
N	 0.1931567909	 1.7070368089	 1.6534029479	-0.313714
C	 1.3065045387	 2.6675871166	 1.4248260574	-0.259836
C	 1.4682302895	 2.0688908474	 0.0289407916	 0.428624
C	 2.6432428436	 1.5860873701	-0.6841415985	-0.251781
O	 1.9023441953	 2.7468741141	-1.1184172433	-0.262323
H	-0.3543285953	-2.1471263762	-0.7847957372	 0.198946
H	-0.6714222128	 2.0297904206	-0.3238970538	 0.104966
H	-0.6445251651	 2.1128770579	 2.0548849001	 0.226988
H	 1.0102719769	 3.7244046701	 1.3758060391	 0.10894
H	 2.1407659037	 2.5602173244	 2.1250213418	 0.117217
H	 3.6371713477	 1.7920079117	-0.2906322193	 0.120833
H	 2.5558693762	 0.7129503064	-1.3273875232	 0.13264
