17
gdb 97491	9.9856	0.39753	0.38675	3.0378	99.77	-0.2354	-0.0353	0.2	2731.4144	0.132567	-384.660381	-384.649909	-384.648965	-384.698518	34.864	
C	 0.0818767128	 1.5912446403	 0.1471074411	-0.367193
C	-0.0252426559	 0.0611593967	-0.0026999691	-0.344219
C	 0.6158935243	-0.4402495356	-1.2090933693	 0.304598
C	 1.153530339	-0.8399652455	-2.2179597646	-0.233878
C	 1.756133191	-1.2891340229	-3.3509531189	-0.175636
C	 2.2940806935	-1.6802140732	-4.362738373	 0.23363
C	 2.9265403783	-2.2050235989	-5.5590599945	-0.447735
C	 3.0447956317	-3.7344404604	-5.5396046144	 0.172524
O	 2.9173433635	-4.4185859768	-6.5169439474	-0.227126
H	 1.1280828971	 1.9048109132	 0.1895172879	 0.13323
H	-0.3899154041	 2.0978655684	-0.6986759355	 0.133753
H	-0.4147433981	 1.9151952805	 1.0661623524	 0.119956
H	 0.4228658638	-0.4269267923	 0.8726767561	 0.138378
H	-1.0821725323	-0.235822426	-0.0056255993	 0.138695
H	 2.3966730983	-1.916570219	-6.4733309737	 0.160517
H	 3.9523136516	-1.81345803	-5.6489724115	 0.160713
H	 3.2766302956	-4.1631633783	-4.5412328463	 0.099792
