19
gdb 55101	4.41113	0.89753	0.84319	3.9365	77.04	-0.2474	-0.0158	0.2316	1409.3006	0.157065	-423.015711	-423.006641	-423.005697	-423.050729	33.125	
C	 0.2033831738	 1.6063319254	-0.5041590643	-0.482269
C	-0.1958674555	 0.2288913906	-0.0087430549	 0.377157
O	-0.7024739938	 0.0586177101	 1.0771227223	-0.299263
C	 0.1125908053	-0.9326278563	-0.9352440753	-0.089641
C	 1.5120316061	-1.6156008722	-0.6873350248	-0.332308
C	 0.7873851298	-2.9588640616	-0.7896580479	 0.469532
C	 1.1528684634	-4.1256850937	-1.5933918188	-0.269132
O	 1.2012633925	-4.1502675836	-0.1574501715	-0.266775
C	-0.5760567188	-2.2912989102	-0.6272389021	-0.33337
H	-0.4133475629	 1.8804297023	-1.3684406349	 0.142015
H	 0.0683346643	 2.3448493497	 0.2867470496	 0.143607
H	 1.2443759998	 1.6080994364	-0.8464386388	 0.13927
H	 0.0153072465	-0.6294278185	-1.9808382268	 0.080032
H	 2.3111791507	-1.404123533	-1.4007334685	 0.110816
H	 1.8729099308	-1.4368720295	 0.3299298608	 0.130713
H	 0.3740746432	-4.740646645	-2.0434616521	 0.116647
H	 2.1208405903	-4.1630010147	-2.0924861198	 0.114531
H	-0.9180327228	-2.3073244849	 0.4110088185	 0.142372
H	-1.3850158227	-2.6100042416	-1.2876639507	 0.106065
