19
gdb 53940	2.13101	1.47122	1.21723	2.8746	72.	-0.2417	0.0077	0.2494	1128.1602	0.157938	-456.425104	-456.414912	-456.413968	-456.460118	37.967	
C	-0.0564968224	 1.4996127329	 0.4980924961	-0.400195
C	 0.104974217	-0.0002542458	 0.1383016795	 0.027189
C	 1.1237768004	-0.6530611887	 1.0812337467	-0.442259
C	-1.2779599194	-0.6919847655	 0.3623645247	 0.389229
N	-2.244008835	-0.3539068363	-0.526505258	-0.519859
O	-1.4646065316	-1.4252520726	 1.3158165096	-0.376752
C	 0.4915210733	-0.0667780552	-1.354250827	 0.418998
N	 1.6526015238	-0.6911329654	-1.6692791718	-0.529334
O	-0.2101388221	 0.4370439573	-2.2237532045	-0.401297
H	 0.9124376712	 2.0075953358	 0.453474936	 0.118485
H	-0.7379274978	 1.9957762862	-0.1935951082	 0.14139
H	-0.4475677135	 1.596917644	 1.5147629862	 0.130074
H	 0.770002541	-0.5735261452	 2.1095596918	 0.14707
H	 1.2423869214	-1.72164821	 0.8789087559	 0.124922
H	 2.0967175827	-0.1551344743	 1.0111902983	 0.105197
H	-1.9771050641	 0.1016318885	-1.3901380472	 0.280122
H	-3.1285083349	-0.8289887118	-0.4485121546	 0.254409
H	 2.2411291489	-1.1295924171	-0.9854185736	 0.267989
H	 1.9056503412	-0.7433588568	-2.6426612496	 0.264621
