17
gdb 18713	3.27814	2.19558	1.51338	1.7273	68.44	-0.2307	0.0093	0.24	845.008	0.144643	-363.845705	-363.838826	-363.837881	-363.876544	27.41	
O	-0.0417914694	 1.4412644797	 0.097150789	-0.441479
C	 0.024454634	 0.0244248303	-0.0198947631	 0.136347
C	 0.9216951356	-0.5814861988	 1.0807987225	-0.284588
C	 0.7710125999	-2.0721034178	 1.242537166	-0.086656
C	-0.3734217854	-2.7020581154	 0.9770562415	-0.018957
C	-1.5567514498	-1.9629635481	 0.4696026127	-0.080654
N	-2.0039239837	-0.7756015501	 1.2589210689	-0.349029
C	-1.3608493455	-0.5852691697	-0.0521201441	-0.062116
H	-0.5368717141	 1.6241920095	 0.9046868546	 0.282483
H	 0.4891868118	-0.1564388422	-0.9964867823	 0.092201
H	 1.961920929	-0.3096183885	 0.8765204816	 0.107501
H	 0.6593424794	-0.0952403257	 2.0302212904	 0.120497
H	 1.6222856933	-2.6259947112	 1.6285271942	 0.091469
H	-0.4712864015	-3.7730919275	 1.1260623063	 0.088144
H	-2.3414232106	-2.5605453818	 0.0137737152	 0.085145
H	-3.0117409165	-0.6727187882	 1.1664458015	 0.231914
H	-1.9803464163	-0.2557044945	-0.8833967049	 0.087779
