18
gdb 83401	2.6375	1.3758	1.118	13.0534	73.45	-0.1782	-0.0184	0.1598	1137.1774	0.14803	-439.021902	-439.013306	-439.012362	-439.055475	31.813	
C	-0.0258096594	 1.482319066	-0.2248278789	-0.446923
C	 0.1170067311	-0.0064814937	-0.0008560656	-0.046841
C	 1.3916793399	-0.7783793074	-0.1017059877	-0.116008
N	 2.5448770375	 0.0076656666	 0.4938940712	-0.282692
H	 3.4089947959	-0.5290170046	 0.5373630422	 0.312076
H	 2.7422116108	 0.9124677847	 0.0609759553	 0.296381
C	 1.7958750247	 0.0353252199	 1.8517569647	-0.260808
C	 0.6225914574	-0.6994119387	 1.2298383476	 0.208029
C	-0.064717064	-1.8980942561	 1.9428229387	 0.294901
O	 0.395623209	-2.0897654913	 3.0825473188	-0.484343
O	-0.907654128	-2.4728666066	 1.2408157005	-0.479203
H	 0.786920522	 2.0716676212	 0.2189162619	 0.088999
H	-0.0645658059	 1.7218200969	-1.2924454237	 0.133433
H	-0.9524176681	 1.8401815305	 0.2329656182	 0.158142
H	-0.6905981513	-0.621076139	-0.3991192635	 0.153726
H	 1.6344560512	-1.6023622087	-0.7597429267	 0.144163
H	 2.3076299016	-0.6027385242	 2.5707994337	 0.184495
H	 1.6819631957	 1.0558926845	 2.2237112732	 0.142473
