20
gdb 121192	2.39635	1.07591	0.81322	3.1504	80.23	-0.2621	0.0267	0.2887	1443.8748	0.170619	-403.142786	-403.133228	-403.132284	-403.178015	33.948	
C	 0.3000151985	 1.348751272	-0.0955116113	-0.231326
O	 0.1137747312	-0.0433348595	 0.0155053542	-0.235745
C	 0.7588578779	-0.5965264066	 1.1402729746	-0.071762
C	 0.4792170817	-2.090771926	 1.1389434307	-0.02464
C	 1.1981119504	-2.8650918386	-0.0011408571	-0.221239
C	 2.2888116209	-3.3190397896	 1.0049188594	-0.228979
C	 1.3314380594	-2.9116391649	 2.171427009	-0.156343
C	 1.8950676682	-2.2269424316	 3.3233491566	 0.275664
N	 2.3520003946	-1.6671560826	 4.2267425174	-0.339082
H	 1.3649018826	 1.6113638721	-0.1959596432	 0.106985
H	-0.23177112	 1.6786414497	-0.9910797618	 0.128577
H	-0.1036561917	 1.8853176144	 0.7771264261	 0.109456
H	 1.84457714	-0.3998263643	 1.0989324979	 0.092794
H	 0.3883714301	-0.1381508879	 2.0720502487	 0.104845
H	-0.598862884	-2.2476490304	 1.216198883	 0.091209
H	 0.6020420612	-3.7013761626	-0.3739028725	 0.109029
H	 1.5205856814	-2.2610264868	-0.8502018799	 0.120593
H	 2.600311205	-4.3645359668	 0.9865718909	 0.116184
H	 3.1792150537	-2.6882930443	 0.9773769526	 0.127063
H	 0.7626460788	-3.7759716659	 2.5248457948	 0.126716
