21
gdb 29769	2.36834	1.50231	0.93954	1.2274	88.53	-0.182	0.0567	0.2387	1294.766	0.181734	-383.314669	-383.304032	-383.303087	-383.350395	37.829	
C	-0.0938804543	 1.4567573089	 0.0052754836	-0.339733
N	-0.0155340061	 0.0126565206	-0.0023398566	-0.008365
C	 0.0102974047	-0.7828508357	-1.1212237821	-0.206635
C	 0.0698833841	-2.1015480147	-0.7326546595	 0.191319
C	 0.1274193312	-3.2963128589	-1.6349826126	-0.500987
C	 0.0646122092	-2.115151058	 0.6974166738	 0.154445
C	 0.1133479717	-3.3243789356	 1.5801236337	-0.50779
C	 0.0092907423	-0.7985875686	 1.1159940723	 0.146528
N	 0.0192088081	-0.2075127066	 2.4021252847	-0.612939
H	 0.5904461943	 1.873993408	-0.739215851	 0.128935
H	-1.1077600278	 1.8121524828	-0.2172633857	 0.123868
H	 0.1909406253	 1.8097613272	 0.9971208627	 0.156379
H	-0.0183471594	-0.3453606251	-2.1075441216	 0.104178
H	 1.0449969054	-3.8800762509	-1.4873989519	 0.117488
H	-0.7115862474	-3.9825235111	-1.4624690027	 0.116943
H	 0.0949486127	-2.9973912373	-2.687109524	 0.114688
H	 1.0643649315	-3.8666022551	 1.4966579879	 0.119296
H	-0.0139105648	-3.049661318	 2.632527969	 0.098205
H	-0.6791485022	-4.041985629	 1.3338734314	 0.120528
H	-0.8942589257	-0.2202549258	 2.8463044435	 0.24015
H	 0.6650793673	-0.6827839072	 3.0211792051	 0.243498
