16
gdb 13189	4.46545	1.31067	1.23022	2.9139	61.11	-0.2481	-0.0472	0.2009	998.0601	0.129278	-420.854294	-420.846351	-420.845407	-420.887415	27.982	
O	-0.1921472087	 1.4142287666	 0.1210022809	-0.425158
C	-0.039454379	 0.0266693823	 0.0132886366	 0.017187
C	 0.7309288841	-0.3227620741	-1.2447865304	 0.140117
O	 1.1522731226	 0.5300942431	-1.988121535	-0.25835
C	 0.6553494971	-0.5666858491	 1.2460083068	-0.058786
C	 1.9725965841	 0.0910082358	 1.7167346301	-0.077473
O	 1.4273385597	 0.3424496874	 3.0255418589	-0.268405
C	 0.1221725668	-0.1209675199	 2.6274476015	-0.086849
H	 0.2469748199	 1.7903195222	-0.6585082778	 0.29886
H	-1.0279576524	-0.4616977482	-0.0823052263	 0.099705
H	 0.8921855107	-1.4023118081	-1.4419602997	 0.101421
H	 0.7228751133	-1.6533854722	 1.142032143	 0.08432
H	 2.8564358087	-0.5563060914	 1.7545424671	 0.101553
H	 2.2221299241	 1.021151608	 1.1918460624	 0.109144
H	-0.6062707161	 0.6965983341	 2.5838190785	 0.121643
H	-0.2522280348	-0.9154850165	 3.2833710334	 0.101072
