19
gdb 8594	4.12401	1.92592	1.75232	1.1877	77.29	-0.2031	0.084	0.2871	844.5003	0.166003	-327.789568	-327.78269	-327.781746	-327.820076	28.392	
C	-0.1905506421	 1.632094176	-0.1551946566	-0.415368
C	-0.0164715939	 0.1187699955	-0.0332734641	 0.054477
C	 0.9672023161	-0.6245453391	-1.0337690518	-0.357058
C	 1.862866326	-0.8042078965	 0.2043499752	 0.29805
C	 2.5169279157	-1.645969384	 1.3397005872	-0.275089
C	 1.954469356	-0.2856631772	 1.9452641276	-0.020865
C	 2.6249502487	 0.446700656	 0.7763845827	-0.250457
N	 0.6990208353	-0.6019456256	 1.1233920383	-0.167186
H	 0.7231945619	 2.1712739044	-0.4116711286	 0.122369
H	-0.9246798398	 1.8466791755	-0.9406789719	 0.116701
H	-0.582108303	 2.0462419984	 0.7799869823	 0.125842
H	-1.0189963164	-0.3177229736	-0.0474600593	 0.089886
H	 0.5364721989	-1.5503408569	-1.4206444458	 0.114396
H	 1.3860491048	-0.0375667617	-1.854720737	 0.101991
H	 1.9665368061	-2.5423375164	 1.6242488836	 0.108748
H	 3.602370548	-1.7730233913	 1.3585156757	 0.091435
H	 1.9219979374	-0.0109394778	 3.0028922033	 0.079958
H	 3.7185484354	 0.428266638	 0.7342376025	 0.086431
H	 2.2427000749	 1.4330373665	 0.5301832468	 0.095739
