15
gdb 123821	3.64325	1.59855	1.13961	4.3646	74.03	-0.2256	-0.0389	0.1867	1003.9696	0.11463	-416.808513	-416.801815	-416.80087	-416.839553	26.218	
C	-0.0206718018	 1.4872995671	 0.1071861712	-0.271693
C	 1.364630021	 2.167709387	-0.0517285332	-0.341747
C	 2.1627348652	 1.4087248449	-1.055103342	 0.3505
C	 1.9691656851	 0.0825734557	-1.3232428956	 0.213186
C	 0.9245296463	-0.692756875	-0.6836768469	-0.154814
C	 0.005516127	-0.0286450657	 0.0312758097	-0.083709
N	 2.9377046696	-0.2792051846	-2.2265955566	-0.18861
N	 3.6744354118	 0.68921523	-2.5193776513	-0.034299
O	 3.1898483117	 1.8574579126	-1.7441684893	-0.234944
H	-0.4722224404	 1.8135387018	 1.0485786774	 0.119195
H	-0.6885926175	 1.8538150457	-0.6873812991	 0.129527
H	 1.2535119504	 3.218397816	-0.3316993124	 0.137993
H	 1.9112670261	 2.1514934931	 0.9023062181	 0.139896
H	 0.9158494916	-1.7711644295	-0.7887790227	 0.114426
H	-0.7980002761	-0.5646821391	 0.5253776926	 0.105092
