16
gdb 44553	3.65952	1.49617	1.42036	5.1053	66.97	-0.257	0.0602	0.3171	940.4906	0.126947	-437.905449	-437.898687	-437.897743	-437.936878	26.742	
O	 0.0360629476	-0.0466656866	-0.0210324109	-0.390242
C	-0.0162501238	 1.1505764364	-0.0052474603	 0.463492
N	-1.1396155575	 1.9479107699	 0.0138431352	-0.357595
C	-0.8431751075	 3.3516059594	 0.0894426839	-0.039198
C	-0.7834334492	 4.0724705294	 1.4557404514	-0.063313
C	-0.0092222003	 3.2670873564	 2.4524657523	-0.307125
C	 0.761341791	 4.0281626265	 1.4135836527	-0.061343
C	 0.7088238399	 3.3278951432	 0.0542358999	 0.088049
O	 1.1003700958	 1.9566013624	-0.0146613401	-0.248103
H	-2.0457975852	 1.522513821	 0.1031928938	 0.262134
H	-1.332482507	 3.9363391578	-0.6930686838	 0.094958
H	-1.4265256495	 4.8953244791	 1.7418046113	 0.09528
H	 0.0380213364	 3.6971820683	 3.4472886895	 0.123234
H	-0.0410577407	 2.182287617	 2.4457137138	 0.140995
H	 1.4734542395	 4.7994750862	 1.6777171521	 0.096752
H	 1.1878038108	 3.8765751336	-0.7573715607	 0.102026
