19
gdb 92072	2.71581	1.49907	1.11551	3.1092	74.37	-0.2566	-0.0257	0.2309	1111.5605	0.160622	-423.046779	-423.038818	-423.037874	-423.079517	31.284	
O	 0.1280715318	 1.363968005	 0.2562246855	-0.44137
C	 0.0144254594	-0.0106938456	 0.0238207045	 0.059468
C	-1.4637481151	-0.4555774613	-0.0329289151	-0.255396
C	-1.6222973794	-1.9258878232	-0.4108020356	-0.038377
C	-1.8574466682	-2.3063266561	-1.8536181094	-0.283827
C	-0.5341329953	-2.6243711859	-1.2101782776	-0.025789
C	 0.7268557061	-1.8713786347	-1.6160045876	-0.32578
C	 0.6965012934	-0.3942085624	-1.2819543565	 0.358587
O	 1.1919433702	 0.4643689342	-1.9814215965	-0.337802
H	 0.6047546264	 1.7117452647	-0.5155376178	 0.29016
H	 0.5115425155	-0.5786446256	 0.8292441028	 0.088225
H	-1.9125556925	-0.2574850076	 0.9441219782	 0.117695
H	-1.9774667449	 0.1977453177	-0.7467971016	 0.115214
H	-2.1225754359	-2.5412048615	 0.3296998029	 0.091524
H	-2.5328704455	-3.1243529609	-2.0778568365	 0.115179
H	-1.8846731471	-1.4972434078	-2.5786371424	 0.117746
H	-0.3650317369	-3.670089177	-0.9735232561	 0.091527
H	 1.5791131422	-2.2787200284	-1.0527929925	 0.133973
H	 0.9669142356	-1.9886668037	-2.6773846886	 0.129043
