21
gdb 84764	2.22293	1.50551	1.21402	0.5879	89.11	-0.2406	0.0209	0.2614	1156.4929	0.181223	-349.939129	-349.929837	-349.928893	-349.972426	36.595	
C	-0.187423252	 1.5676908849	-0.015135579	-0.41495
C	 0.0446531158	 0.0546227631	-0.0218548855	-0.029496
C	 0.8887613106	-0.4675947023	-1.163587633	-0.071237
C	 1.6655398509	-1.4827652189	-0.7940482389	-0.083706
C	 1.4888215364	-1.8190282885	 0.6657402637	-0.2885
C	 0.7763358243	-0.5472711503	 1.2430348284	 0.07792
C	 1.8508271499	 0.4135520998	 1.8006266076	-0.428225
C	-0.1752641285	-0.8737656271	 2.3015324876	 0.299437
C	-0.9610911287	-1.1304257481	 3.1755443912	-0.465673
H	 0.7509043561	 2.1293024059	-0.0316153322	 0.119037
H	-0.7640703419	 1.8623808184	-0.8981363454	 0.112678
H	-0.7567642842	 1.8734824291	 0.868486182	 0.12458
H	-0.9442247668	-0.4236228684	-0.0785527749	 0.091411
H	 0.810846567	-0.0647900126	-2.1680614831	 0.090489
H	 2.3218208805	-2.0460536126	-1.4481077521	 0.09296
H	 0.8605189198	-2.7106597978	 0.7890371551	 0.116124
H	 2.4295131909	-2.0235792597	 1.1886482975	 0.105284
H	 2.5774307227	 0.6649089165	 1.0221309342	 0.119287
H	 1.4078394439	 1.3377168047	 2.1780310276	 0.123781
H	 2.3817048789	-0.0652160952	 2.6280550128	 0.120452
H	-1.6542414957	-1.3635041409	 3.9452471364	 0.188349
