17
gdb 48466	2.21429	1.55644	1.20402	2.2585	80.52	-0.2443	-0.0282	0.2162	1095.614	0.13418	-384.672633	-384.663913	-384.662968	-384.706421	32.231	
O	 0.2034645983	 0.0579788986	 0.4788862208	-0.238013
C	 0.1762728913	 1.2218457992	 0.1909622113	 0.126237
C	 1.4213910687	 2.0875697383	-0.1087316102	 0.002758
C	 1.6712829027	 3.0395696296	 1.1197440119	-0.267013
C	 2.7699865484	 2.3435219789	 1.9568171523	-0.263781
C	 3.4047090661	 1.3921335482	 0.9729276143	-0.070688
C	 2.6908186811	 1.25461593	-0.1392804129	-0.080998
C	 1.1451639441	 2.8218250226	-1.3391813123	 0.258298
C	 0.8731650294	 3.4077496346	-2.3536803007	-0.445653
H	-0.7761209702	 1.7948719974	 0.1340269157	 0.089913
H	 2.0302795004	 3.9976736341	 0.7380055884	 0.127606
H	 0.7526203376	 3.2346191443	 1.6808199789	 0.111459
H	 3.4806617435	 3.0644762073	 2.375191612	 0.111671
H	 2.3498225996	 1.7919277859	 2.8083425721	 0.121746
H	 4.3223549906	 0.8562624406	 1.1882479252	 0.103704
H	 2.9145991745	 0.6019394759	-0.9729061632	 0.112423
H	 0.6547760238	 3.9300086644	-3.2523281937	 0.200329
