21
gdb 65976	2.25625	1.45666	1.32961	2.5197	81.99	-0.2361	-0.0197	0.2164	1129.1105	0.181224	-387.090981	-387.081732	-387.080788	-387.125208	34.974	
C	-0.0113629385	 1.6242392903	-0.1289797655	-0.438943
C	-0.0357584996	 0.0936283367	 0.000604075	 0.192487
C	 0.942504291	-0.6297180906	-0.9953582269	-0.277896
C	 1.9432256554	-0.9295084211	 0.1600230888	-0.339967
C	 0.8992962783	-0.379888485	 1.1405016286	 0.373254
O	 0.8128198647	-0.3575640227	 2.3363435123	-0.311669
C	-1.459258544	-0.4244746558	 0.0355815945	-0.034146
C	-1.8312646696	-1.7368772887	 0.6814379303	-0.292671
C	-2.2660068584	-0.434945708	 1.3100944346	-0.271359
H	 1.0116430701	 2.0135497553	-0.1689207987	 0.113075
H	-0.5229094171	 1.9324309782	-1.0476682091	 0.118269
H	-0.5201809348	 2.0893248694	 0.7200923514	 0.13522
H	 0.5076893973	-1.5327331931	-1.4277112209	 0.111618
H	 1.3300507591	-0.0020729678	-1.7999129117	 0.102754
H	 2.2211258253	-1.9739884748	 0.325264042	 0.130863
H	 2.8609398075	-0.3331156865	 0.1436805513	 0.132501
H	-2.0120436452	-0.1791188412	-0.8696996666	 0.082244
H	-2.5769581003	-2.3523640196	 0.190454338	 0.10805
H	-1.0595579613	-2.3008352084	 1.1943522957	 0.118052
H	-1.7588167036	-0.1388612595	 2.2209650198	 0.140881
H	-3.3130868263	-0.1577177873	 1.2575850968	 0.107384
