16
gdb 18897	3.12943	2.58553	1.81121	1.3518	67.73	-0.2133	0.0719	0.2852	770.6723	0.12914	-346.490227	-346.483309	-346.482364	-346.520762	27.67	
C	 0.0312665011	 1.525765861	 0.0051511922	-0.524972
C	-0.0136023809	 0.0330904125	-0.0055727624	 0.263145
C	 0.8407216695	-0.9817382787	-0.7588164754	-0.141323
C	 0.8164470079	-0.9868830914	 0.7663784598	-0.135336
C	-0.3685042699	-1.9946104846	 0.7472870713	-0.141097
C	-0.3380788115	-1.9964421058	-0.7902729378	-0.189501
C	-1.2057683646	-1.0045097927	-0.0251085375	 0.327514
O	-2.5659838479	-0.8498787028	 0.0370575666	-0.447742
H	 1.0684079961	 1.8781550947	 0.0370064877	 0.122328
H	-0.4343984548	 1.9540303234	-0.8907214417	 0.115061
H	-0.4863096428	 1.9369077939	 0.8794565725	 0.126954
H	 1.6628992717	-0.8026132941	-1.4406718859	 0.080188
H	 1.6161998865	-0.8172224766	 1.4766839978	 0.080507
H	-0.6809803419	-2.7799144618	 1.4218307275	 0.090064
H	-0.6120046223	-2.7907183977	-1.4719683785	 0.085896
H	-2.8854782062	-0.5963103592	-0.8367422963	 0.288316
