18
gdb 51733	3.39531	0.9621	0.82142	2.5358	73.3	-0.2467	-0.0272	0.2194	1383.7721	0.146173	-439.037844	-439.028983	-439.028039	-439.072811	31.493	
O	-0.3189395223	 0.0824075982	-0.0117130219	-0.237724
C	-0.0810316255	 1.2631919853	-0.0174781315	 0.152575
C	 1.3152334945	 1.852207762	-0.0717295306	-0.295601
C	 1.4849351994	 2.7893854043	-1.2673873708	 0.048205
O	 0.602184791	 3.933697232	-1.1962892631	-0.300461
C	 1.6992608464	 4.8737832824	-1.3072937335	-0.127273
C	 2.6988710843	 3.7235007838	-1.3055108826	 0.271659
C	 4.0221109859	 3.5728731895	-0.6694237101	-0.302975
N	 3.8825484479	 3.6457908038	-2.1403111494	-0.35577
H	-0.8949534314	 2.0184841752	 0.0128989088	 0.101769
H	 1.4832112747	 2.4300299141	 0.8462848568	 0.12258
H	 2.0374992254	 1.0307709557	-0.1154462315	 0.117321
H	 1.3323960123	 2.2363811017	-2.206786554	 0.091293
H	 1.6650021294	 5.4428226315	-2.2437123899	 0.118152
H	 1.7343976312	 5.5640469296	-0.4565736934	 0.111491
H	 4.5099501989	 4.4310081541	-0.2146904504	 0.127251
H	 4.2668785517	 2.6173926519	-0.2116240023	 0.120876
H	 3.9725656463	 2.7201136749	-2.5539165607	 0.23663
