17
gdb 28214	4.71317	1.24713	1.0092	1.6762	76.64	-0.185	0.0116	0.1966	1167.0668	0.138633	-418.035414	-418.027729	-418.026785	-418.067832	28.664	
C	 0.0370422733	 1.4206424615	 0.0748364834	-0.491771
C	-0.0059071968	-0.058700989	-0.0503806764	 0.350654
N	-0.1595306188	-0.7674617043	-1.1382518472	-0.388484
C	-0.0648646057	-2.0619508104	-0.6769517565	 0.290019
C	 0.1554255076	-2.0846218632	 0.6484912457	 0.237622
C	 0.047606828	-3.4522562964	 1.2243941357	-0.346801
C	 0.1296991251	-4.2574741621	-0.1276777107	-0.163561
N	-0.304917658	-3.3299434183	-1.2229770418	-0.402406
O	 0.1621895647	-0.7892708368	 1.0951852351	-0.223358
H	 1.0323786656	 1.7665736964	 0.3758551887	 0.143477
H	-0.2115659297	 1.8634068245	-0.8900043016	 0.155758
H	-0.6750080171	 1.7732541668	 0.8276720045	 0.143825
H	 0.842061146	-3.7545719035	 1.9137658212	 0.116338
H	-0.9120986918	-3.622129127	 1.7326730816	 0.118767
H	 1.1696368819	-4.572535851	-0.2836444241	 0.108358
H	-0.5011260293	-5.1489664364	-0.1144862919	 0.115423
H	 0.1675899848	-3.5149855308	-2.1001834255	 0.236139
