18
gdb 104496	2.86514	1.38611	1.11696	3.523	72.77	-0.2505	-0.0365	0.2139	1116.0868	0.147322	-439.036819	-439.028425	-439.027481	-439.070017	31.565	
O	 0.2333569169	 1.2133385389	 0.7501687776	-0.424292
C	 0.1117950101	 0.0000943726	 0.0373259042	-0.16386
C	-1.2948767356	-0.5680850453	 0.0904782422	 0.196432
C	-2.3258065242	 0.3262647677	-0.5218059421	 0.145288
O	-2.0771449	 1.4107160204	-0.9957025785	-0.288834
C	-1.6339347576	-2.0184439563	 0.0359464167	-0.071388
C	-0.5972416398	-2.8881795909	 0.7483874208	-0.266825
C	-0.860264955	-2.0018025455	 1.9926306963	-0.161475
N	-1.9378956309	-1.2224934143	 1.2784653752	-0.1738
H	-0.3333757403	 1.8467381499	 0.2921527548	 0.299489
H	 0.3730101628	 0.1253948947	-1.0245520113	 0.10504
H	 0.8408125662	-0.6890586006	 0.4659730203	 0.110436
H	-3.3622358302	-0.0694894913	-0.4877740074	 0.098997
H	-2.4234759177	-2.3934404632	-0.6103499953	 0.099504
H	-0.9476288179	-3.9124342221	 0.8856784975	 0.12195
H	 0.4093907205	-2.9187693086	 0.3241917985	 0.116708
H	-1.3134794924	-2.5419779685	 2.8253116394	 0.123115
H	-0.044181865	-1.3835343375	 2.372702601	 0.133514
