22
gdb 15828	4.60874	0.94678	0.86327	1.6917	78.7	-0.261	0.0867	0.3477	1422.1234	0.198885	-350.19175	-350.182102	-350.181158	-350.226672	34.766	
C	 0.0144065248	 1.61913332	-0.1346760554	-0.379747
C	-0.0232496119	 0.0914801555	-0.0291427352	-0.178604
C	 0.6360093181	-0.5986113382	-1.2289510263	-0.153594
C	 0.711710484	-2.1390616397	-1.1427136368	-0.01198
C	-0.671524713	-2.8006245365	-1.1866690446	-0.411015
C	 1.6386563032	-2.6405881255	-2.2387671947	 0.093655
C	 1.5013083118	-3.9139206994	-2.9573592118	-0.190518
O	 1.1251715544	-2.6803993296	-3.5753594175	-0.238797
H	 1.0448677932	 1.9873141849	-0.1912636607	 0.113287
H	-0.5085178308	 1.9660115081	-1.0328106667	 0.116116
H	-0.461190366	 2.0914058166	 0.73061768	 0.110436
H	 0.4830348654	-0.2245571031	 0.8931349332	 0.091846
H	-1.0652094434	-0.2348409718	 0.0688057995	 0.099948
H	 0.1088984222	-0.3230823992	-2.1521320838	 0.107582
H	 1.6563656084	-0.2052813547	-1.3369712193	 0.087837
H	 1.1960435609	-2.3961981477	-0.1883229034	 0.072559
H	-1.3449229692	-2.3583634308	-0.4488133573	 0.115833
H	-1.1199164001	-2.6775467864	-2.1772308061	 0.134773
H	-0.6126139301	-3.870972734	-0.968123192	 0.111076
H	 2.6466644609	-2.2217710756	-2.1827591578	 0.085369
H	 2.3880309826	-4.3921034512	-3.37253048	 0.110506
H	 0.6791532345	-4.5887335718	-2.7306511832	 0.113431
