20
gdb 6045	2.83529	1.64298	1.36625	2.5769	71.36	-0.2399	-0.0103	0.2295	1025.8172	0.172441	-386.157992	-386.14776	-386.146815	-386.193342	36.402	
C	 0.089797666	 1.3802822993	 0.2043784691	-0.24815
O	-0.0452565955	-0.0237813284	 0.2161354131	-0.281323
C	-1.3543299718	-0.5627237632	 0.0354408062	 0.263828
C	-2.3100957148	-0.1514578363	 1.1690310228	-0.422079
C	-1.941056532	-0.2065221677	-1.3416944592	-0.422131
C	-1.1909900769	-2.1031183407	 0.093233255	 0.369974
C	 0.1924621027	-2.6726238384	 0.3091174395	-0.471118
O	-2.1681028706	-2.8053692593	-0.0350525233	-0.322834
H	 1.1518193682	 1.5886723074	 0.356728353	 0.129229
H	-0.2158946917	 1.8249770212	-0.752247667	 0.110715
H	-0.4766401825	 1.8648490346	 1.0110279059	 0.110703
H	-2.5806409154	 0.9059082739	 1.1001346839	 0.113977
H	-3.2232068516	-0.7462861798	 1.1021314803	 0.145192
H	-1.8474697405	-0.3290862251	 2.1448209846	 0.12057
H	-1.218441512	-0.422815603	-2.1346594831	 0.12057
H	-2.8384680154	-0.8038117876	-1.5147958279	 0.145206
H	-2.2134655058	 0.8510600828	-1.3989171351	 0.113981
H	 0.6147058059	-2.2961106166	 1.2455916361	 0.146699
H	 0.1332786478	-3.7613534679	 0.3242411114	 0.130298
H	 0.8686690659	-2.3338952051	-0.4814762553	 0.146693
