21
gdb 81541	4.00797	1.22968	1.08084	1.6359	83.12	-0.233	0.0965	0.3295	1194.702	0.183211	-387.025058	-387.01695	-387.016006	-387.057675	32.002	
C	-0.1721956232	 1.5986674998	 0.1613976453	-0.441776
C	 0.0373997512	 0.0955342253	 0.0541847708	 0.060659
C	 1.1920630651	-0.5099479861	-0.8117744939	-0.144168
C	 2.1943017681	-0.102784652	 0.3128799353	-0.251118
C	 0.9519040787	-0.6770549687	 1.0623862489	-0.144136
C	 0.9698884106	-1.8079387322	 0.0039387025	 0.54652
C	-0.1205479709	-2.8694859126	-0.2304527294	-0.384065
C	 1.0498329089	-3.8680131625	-0.1694852478	-0.090685
O	 2.0019302995	-2.8068819678	 0.0471192908	-0.337622
H	 0.7516494447	 2.1571709774	 0.3281570725	 0.120081
H	-0.6312725496	 1.9855085743	-0.7551986292	 0.116119
H	-0.8523098804	 1.830365549	 0.9886314522	 0.11613
H	-0.9315685697	-0.3901125118	-0.1132615487	 0.06304
H	 1.3282090011	-0.4243848606	-1.8915558062	 0.064649
H	 3.1078361019	-0.6937311252	 0.3772426983	 0.118984
H	 2.4029698858	 0.9599301404	 0.4343914442	 0.090954
H	 0.8116179035	-0.7838150018	 2.1397486316	 0.064642
H	-0.8601506723	-2.963902701	 0.5669579701	 0.11324
H	-0.634788628	-2.8071289183	-1.1914204675	 0.113241
H	 1.0313857528	-4.574656384	 0.668535797	 0.102655
H	 1.2574129322	-4.4174260914	-1.0952387768	 0.102656
