16
gdb 130077	5.09622	1.28785	1.03603	1.9794	80.6	-0.1854	-0.0056	0.1798	1106.0112	0.127693	-396.958016	-396.950939	-396.949995	-396.98922	28.256	
N	-0.0730798831	 1.3393680022	 0.1490852111	-0.586722
C	 0.0392915351	-0.0459887497	 0.0473753346	 0.400886
N	-1.0539442404	-0.8144525142	 0.0274135261	-0.380107
N	-0.5400715518	-2.0656035774	 0.0077856905	 0.044321
C	-1.1112798555	-3.3418075695	-0.0157514464	-0.008136
C	-0.133735785	-4.2587818623	-0.039823323	-0.137281
C	 1.2222242968	-3.5598614474	-0.0310021851	-0.418617
C	 0.8189401402	-2.1119124531	 0.0008237029	 0.445077
C	 1.2490666961	-0.8034983428	 0.0284246259	-0.483886
H	 0.6119815423	 1.8396639229	-0.4006557224	 0.244969
H	-1.0086536709	 1.6541462021	-0.0740422568	 0.250507
H	-2.1851426515	-3.44726794	-0.0119735475	 0.139525
H	-0.2651908394	-5.3293050101	-0.059523967	 0.111031
H	 1.8254752403	-3.8468035717	 0.839334579	 0.140413
H	 1.8178189987	-3.809371069	-0.9179983534	 0.139047
H	 2.258663618	-0.4272298699	 0.0484766114	 0.098972
