16
gdb 126482	2.60303	1.51886	0.97049	1.7883	74.27	-0.2475	-0.0609	0.1866	1172.1225	0.1238	-437.890029	-437.881903	-437.880959	-437.923298	29.89	
C	 0.0988999728	 1.5286183725	 0.0081213874	-0.387039
C	-0.0547682479	 0.0095340073	 0.002851138	-0.246152
C	-1.4678839656	-0.5059111046	 0.0129821517	 0.219562
N	-2.42025796	 0.363926323	 0.0243043567	-0.123109
O	-3.7348115692	-0.1077353576	 0.0337710272	-0.231427
C	-3.9839483788	-1.421665205	 0.0310930727	 0.114222
C	-3.0420505604	-2.3834056798	 0.0195434022	-0.270502
C	-1.6518479521	-1.9905481132	 0.0090425728	 0.338258
O	-0.6913565418	-2.7450711044	-0.0017465793	-0.35733
H	 1.1594688144	 1.7944529204	 0.0000824394	 0.113967
H	-0.375987564	 1.9809010608	-0.8664727634	 0.131426
H	-0.3607083435	 1.9732158084	 0.8947399892	 0.131403
H	 0.4400925102	-0.4382621871	-0.8683768026	 0.139436
H	 0.4552635474	-0.4458735245	 0.8612753456	 0.139459
H	-5.0542423736	-1.6009457133	 0.039582415	 0.154888
H	-3.3139280278	-3.4308937328	 0.0180718472	 0.132938
