16
gdb 35067	2.51702	1.55255	1.51869	4.3686	68.83	-0.2492	0.025	0.2742	964.2999	0.125783	-437.865438	-437.857979	-437.857035	-437.897589	28.178	
N	-0.3538637666	-1.1221575065	-0.1747229753	-0.349691
C	-0.2254187832	 0.0252097237	-0.0933856991	 0.325072
C	-0.0653249378	 1.4434469568	-0.0116992298	-0.289416
C	 0.50770493	 2.0748887694	 1.2717013793	 0.040059
O	 0.8852467525	 1.2243083428	 2.300420929	-0.244107
C	 2.2984093017	 1.0156196369	 2.3445794137	-0.092099
C	 2.7868704601	 0.4538159184	 1.0222787061	-0.09644
O	 2.5063143656	 1.3514199592	-0.0610983183	-0.254878
C	 1.3370357859	 2.0827054587	 0.0280825805	 0.081126
H	-0.8274441887	 2.0142515274	-0.5323264209	 0.13577
H	 0.0328020126	 2.9930889925	 1.6116880502	 0.114738
H	 2.8151319295	 1.9572069002	 2.5796957538	 0.107737
H	 2.4754795951	 0.3026413068	 3.1529234073	 0.129274
H	 3.8729474067	 0.3269512435	 1.0288283755	 0.120654
H	 2.314912942	-0.5169198695	 0.8334992386	 0.145559
H	 1.4275947746	 3.0093480497	-0.5292633507	 0.126642
