16
gdb 31290	2.10848	1.57585	0.95173	3.3209	79.42	-0.2441	-0.0303	0.2138	1205.222	0.126287	-396.996688	-396.988348	-396.987404	-397.030501	30.022	
C	 0.0091738975	 1.612887236	-0.1860404392	-0.371734
C	-0.0217179993	 0.1077968052	 0.1267504533	-0.301988
C	-1.4103199286	-0.4454289592	 0.1539465572	 0.214918
C	-2.0885611778	-1.0130051784	 1.2208425657	 0.143287
N	-3.3395925645	-1.3535254656	 0.7269444624	-0.319821
C	-3.3576589124	-0.9864580255	-0.5761208544	 0.020578
N	-2.2203967884	-0.4398015636	-0.9514227917	-0.296584
C	-1.7035888944	-1.2477641624	 2.5552733011	 0.208443
N	-1.3857846522	-1.4407554466	 3.6538490964	-0.35201
H	 1.0407262111	 1.9711945466	-0.2477892875	 0.116095
H	-0.4859763065	 1.8147074053	-1.1393592882	 0.139993
H	-0.5048958804	 2.1860061723	 0.5916901405	 0.120865
H	 0.5515539326	-0.4305147209	-0.6376110545	 0.124722
H	 0.462972987	-0.0911681585	 1.0879556277	 0.12094
H	-4.0795183617	-1.7936891682	 1.249304851	 0.284356
H	-4.2216209819	-1.1415252965	-1.2052548498	 0.147939
