25
gdb 93687	2.96384	1.07897	0.99361	1.3874	88.19	-0.2579	0.0736	0.3315	1358.0214	0.229635	-389.522747	-389.513084	-389.51214	-389.556163	38.935	
C	-0.1913722134	 1.5855124141	 0.0122277005	-0.413988
C	-0.0192466521	 0.0539859129	 0.003883523	 0.291768
C	-1.415343275	-0.5909896489	 0.0063829168	-0.420869
C	 0.7487904637	-0.4069559737	-1.2591691809	-0.21919
C	 2.2319257245	-0.0097406108	-1.2662368686	-0.207945
C	 2.9491252346	-0.5132900701	-0.0160975903	 0.151236
O	 4.2956189703	-0.0602512522	-0.0896906199	-0.443605
C	 2.2405182794	-0.0190915444	 1.2496185146	-0.242455
C	 0.7574090244	-0.4194260429	 1.2567820748	-0.214106
H	 0.7628248334	 2.1184963336	 0.0067698435	 0.115899
H	-0.7565506726	 1.9151807268	-0.8665993165	 0.108678
H	-0.74380333	 1.9080019878	 0.9018785546	 0.107437
H	-1.9918785017	-0.2885236612	-0.8751631144	 0.10704
H	-1.3474279913	-1.6846079696	 0.0012953698	 0.10617
H	-1.9864238937	-0.2959933027	 0.8940759962	 0.106145
H	 0.6763802216	-1.501423365	-1.3271975321	 0.087267
H	 0.2537115258	-0.0131976278	-2.1550705104	 0.088896
H	 2.7295958143	-0.410751839	-2.1554685954	 0.098064
H	 2.3469295845	 1.079774796	-1.3106933325	 0.103706
H	 2.9227691962	-1.6181974937	-0.0214962868	 0.055856
H	 4.7443432995	-0.3337824724	 0.7168203078	 0.27618
H	 2.7384798324	-0.4286789667	 2.1389394773	 0.077633
H	 2.3539985448	 1.0703040173	 1.3028511887	 0.104158
H	 0.2697292095	-0.0365981385	 2.1615336209	 0.088377
H	 0.6887223108	-1.5147615489	 1.3130576895	 0.087647
