19
gdb 87827	2.89611	1.37991	1.17432	2.1302	76.18	-0.2245	0.0676	0.2921	1128.4127	0.157022	-422.960111	-422.951355	-422.95041	-422.993119	33.854	
C	-0.1017755391	 1.4814356812	 0.0583612549	-0.403572
C	-0.0034076133	-0.0286294046	 0.0408385621	-0.091211
C	 1.3569936045	-0.7039291978	-0.1279769101	-0.37074
C	 0.6399496301	-0.7522877166	 1.1772759428	 0.403612
O	 1.1517868157	-0.0839546362	 2.3485304504	-0.318665
C	 0.8791752422	-1.2498440685	 3.1361031122	 0.040453
C	-0.5999052816	-1.5467579326	 3.1600182904	-0.369422
C	 0.2464179862	-1.9743775688	 1.9773687841	 0.233047
O	 0.3866982303	-3.2748328777	 1.5417848984	-0.449047
H	 0.7327652396	 1.9191471894	 0.6127996611	 0.133639
H	-0.0905413779	 1.8903606606	-0.9576969479	 0.114479
H	-1.0265775378	 1.8111561311	 0.5438829111	 0.116926
H	-0.8436746228	-0.5399393049	-0.4254244275	 0.079842
H	 1.4243867486	-1.6218713539	-0.7025094146	 0.120619
H	 2.2280159067	-0.058816799	-0.1845016459	 0.121487
H	 1.5960834429	-1.5342892403	 3.8956162193	 0.115393
H	-0.8758007399	-2.3671381551	 3.817080223	 0.115132
H	-1.3219403439	-0.7385156991	 3.0818897758	 0.116546
H	-0.4879391505	-3.6215245671	 1.3353257104	 0.291481
