12
gdb 5010	3.43919	2.50876	1.45065	1.8458	61.38	-0.2175	-0.0525	0.165	777.0293	0.085007	-414.716013	-414.709121	-414.708177	-414.748337	24.777	
N	 0.0107797296	 1.3135114998	-0.0969435072	-0.540275
C	-0.0537786601	-0.0317707901	-0.0093213606	 0.27306
N	-1.1815991866	-0.6737532548	 0.065369964	-0.335236
C	-1.1000792017	-2.0455373941	 0.164284394	-0.078737
C	 0.0655906483	-2.7100406086	 0.1819634395	 0.016875
O	 1.2586679782	-2.0421517451	 0.0980558717	-0.197952
C	 1.2847897091	-0.6896259114	-0.003021232	 0.402335
O	 2.3300038912	-0.0927171437	-0.0836067105	-0.355948
H	 0.9138663781	 1.7426063661	-0.2040535199	 0.284114
H	-0.8353717683	 1.8513688684	-0.1611187605	 0.271166
H	-2.03657855	-2.5863289199	 0.2295074828	 0.120133
H	 0.2007237422	-3.7789210366	 0.2581308486	 0.140464
