22
gdb 6411	2.93233	1.29372	1.04475	2.2924	75.16	-0.2467	0.0695	0.3162	1238.6475	0.197446	-387.343309	-387.333031	-387.332087	-387.378637	37.211	
C	-0.4411763674	 1.4441632223	 0.07982843	-0.390431
C	-0.2320696837	-0.0491269332	-0.1474744698	 0.14586
C	 1.1261894872	-0.528312085	 0.3704232129	-0.38438
O	-1.2940241207	-0.7249022885	 0.5316816434	-0.287596
C	-1.6532605735	-2.0124836413	 0.0164843088	 0.099578
C	-2.1350573868	-2.8556573705	 1.1915141534	-0.387483
C	-2.7412358672	-1.8106562251	-1.0480355965	-0.052172
O	-3.8324969103	-1.0790228201	-0.5257380802	-0.423685
H	 0.3513423129	 2.0247112112	-0.4016356931	 0.115309
H	-1.4032587953	 1.7671011028	-0.327952523	 0.116924
H	-0.4307960511	 1.667396592	 1.1514346375	 0.125898
H	-0.2991255495	-0.257058847	-1.2264215074	 0.071322
H	 1.251233956	-1.6059450544	 0.2281663365	 0.116737
H	 1.9415963463	-0.0246190129	-0.1587785995	 0.113784
H	 1.2190053539	-0.3118985293	 1.4393802097	 0.123354
H	-0.7795991519	-2.4904367981	-0.4497911756	 0.06683
H	-2.3728279666	-3.8717841576	 0.8617227132	 0.112157
H	-1.3647522194	-2.9082015648	 1.9647211359	 0.116558
H	-3.037892625	-2.4153739154	 1.6215455768	 0.134063
H	-2.3066807503	-1.3043858686	-1.9262767835	 0.080232
H	-3.1265140051	-2.7787704368	-1.3869998249	 0.102207
H	-3.4328096824	-0.3542253298	-0.0271547245	 0.284936
