18
gdb 12592	3.1406	1.90448	1.27099	2.7138	73.96	-0.2371	-0.0145	0.2226	976.3973	0.152837	-347.850474	-347.842251	-347.841307	-347.883138	30.53	
C	-0.1280896455	 1.5785336789	-0.0070894288	-0.396996
C	 0.0258758946	 0.0500726763	 0.0365316279	-0.192457
C	 0.8416593444	-0.4727399866	-1.1620126214	 0.396605
O	 0.6456220245	-0.1835725869	-2.3136160898	-0.313375
C	 1.9549386126	-1.3895512337	-0.6362151155	-0.371803
C	 1.7962339655	-1.2870622125	 0.8548130951	-0.180472
C	 0.7678706176	-0.5181240322	 1.2293340967	 0.328835
C	 0.3357058131	-0.2328937836	 2.6330933307	-0.492854
H	 0.8399725015	 2.0740090653	 0.1201808077	 0.119332
H	-0.5385838803	 1.876343058	-0.9754008292	 0.140822
H	-0.7990484616	 1.9341475186	 0.7799621354	 0.116352
H	-0.9810629823	-0.391319463	-0.0343590336	 0.104244
H	 1.8161874125	-2.4071103509	-1.0267790781	 0.133874
H	 2.929127989	-1.052518998	-1.0132284369	 0.134364
H	 2.4538801945	-1.8016763302	 1.5475104513	 0.091489
H	 0.9748724179	-0.7427503833	 3.3592209385	 0.124726
H	 0.3634681649	 0.8415187832	 2.8517106772	 0.131087
H	-0.6992731528	-0.5575783193	 2.8022519727	 0.126226
