16
gdb 43958	3.54082	1.47111	1.44242	3.3818	68.96	-0.2492	-0.022	0.2272	943.5241	0.125617	-437.77117	-437.764594	-437.763649	-437.802005	26.821	
O	-0.3181704452	 0.0209325901	-0.6552006438	-0.285441
C	-0.1225892926	 1.0840878716	-0.1851939359	 0.365257
O	-1.0950138748	 2.0272340775	 0.2528647125	-0.319192
C	-0.015186607	 2.7294398144	 0.9889100725	 0.363958
C	 0.9402983499	 3.9780705052	 1.0377517636	-0.264566
N	 2.0533119906	 2.8859159012	 1.0363493147	-0.169309
C	 1.7917312072	 2.2466481915	 2.3637505854	-0.159633
C	 0.2441940257	 2.1089514993	 2.3782587453	-0.271977
C	 1.0066493724	 2.1536338719	 0.1095952118	-0.132544
H	 0.9881952909	 4.5741011124	 0.1289798422	 0.137209
H	 0.9461971344	 4.6012085998	 1.9355748016	 0.121178
H	 2.310018377	 1.2873122028	 2.4098898294	 0.12578
H	 2.1880755638	 2.8920890678	 3.1510908799	 0.116928
H	-0.2477502968	 2.6649603587	 3.180029608	 0.11348
H	-0.0936907338	 1.070881876	 2.4251643888	 0.124121
H	 1.0843757684	 2.6818438599	-0.8446236761	 0.134749
