23
gdb 108663	2.07171	1.40155	0.95118	1.3717	88.79	-0.2219	0.0233	0.2452	1339.2744	0.205269	-388.312857	-388.302673	-388.301729	-388.348054	37.783	
C	 0.4363703237	 1.5616694468	-0.177390093	-0.391461
C	-0.0010647562	 0.1225390192	 0.1551792775	-0.058782
C	 0.2763741275	-0.8819959417	-0.9932784703	-0.229463
C	 1.5614499433	-1.6326025214	-0.5787761284	-0.282146
C	 1.6580964792	-1.3997230162	 0.9162832451	 0.219258
C	 2.689034435	-2.1413460244	 1.7137582378	-0.508748
C	 0.7869917889	-0.4615704364	 1.3188627863	 0.152206
C	 0.56098911	 0.085179367	 2.7063377877	-0.15982
O	 0.8047917796	-0.827881897	 3.7693430409	-0.405315
H	 1.4995498584	 1.595516686	-0.4399862196	 0.115394
H	-0.1356520704	 1.9573463483	-1.0235033555	 0.111382
H	 0.281762876	 2.2368513615	 0.6711895313	 0.113377
H	-1.0738553581	 0.1519599957	 0.3922928101	 0.062972
H	-0.5538581967	-1.5912009063	-1.0685981914	 0.097712
H	 0.3653972545	-0.3880862486	-1.9652969189	 0.09215
H	 1.5254181253	-2.6999758356	-0.8306972024	 0.095579
H	 2.456650391	-1.238250971	-1.0819817639	 0.101454
H	 3.692734477	-1.9339631363	 1.3186546869	 0.120069
H	 2.6656904082	-1.8705410333	 2.7688075462	 0.147415
H	 2.5482890417	-3.2269716262	 1.6247205666	 0.114982
H	 1.223735591	 0.9379037061	 2.9028001654	 0.121885
H	-0.4679201028	 0.4794361455	 2.7658053908	 0.089911
H	 0.311351614	-1.6303262315	 3.5690526207	 0.279988
