18
gdb 71787	3.10973	1.94893	1.7976	0.5192	73.19	-0.2198	0.0478	0.2675	859.7805	0.149338	-401.865222	-401.858759	-401.857815	-401.895609	27.297	
C	 0.0358547527	 1.5033953031	-0.0727195123	-0.509551
C	-0.071810992	 0.0106374651	 0.0172886675	 0.436301
O	 0.4554696349	-0.6847364458	-1.1474975743	-0.32539
C	-0.4650748426	-1.7675713245	-0.8895740393	 0.077418
C	-0.0485051072	-2.5551723563	 0.4026647036	-0.02488
C	 1.2382974265	-1.9710445428	 1.0050127016	-0.237948
C	 0.361371855	-0.7517857694	 1.328255909	-0.059977
N	-0.9051233088	-1.6225895077	 1.2764780628	-0.177768
C	-1.3412503488	-0.8839561453	 0.0230886827	-0.099786
H	 1.088889055	 1.8064236627	-0.0913932045	 0.132685
H	-0.444007281	 1.8743230189	-0.9827769314	 0.130019
H	-0.4389329393	 1.9744447634	 0.7936782213	 0.127272
H	-0.7540793848	-2.3048675223	-1.7932299046	 0.082148
H	-0.2592713019	-3.6256852497	 0.4313535431	 0.074316
H	 1.5310669229	-2.5036646117	 1.9123108447	 0.110792
H	 2.0957525822	-1.8280725808	 0.3453913882	 0.11591
H	 0.5356284821	-0.1469124433	 2.2207173869	 0.070596
H	-2.3752037649	-0.5740618036	-0.129225595	 0.077842
