16
gdb 17950	3.26602	2.28245	2.0907	1.1459	62.98	-0.227	0.0735	0.3006	739.3998	0.132058	-383.701023	-383.694711	-383.693767	-383.731043	25.603	
O	-0.1142766093	 1.4019243413	-0.0366661042	-0.46441
C	 0.0227441838	 0.032407464	-0.0232818892	 0.383296
C	-1.0374631652	-1.0369299594	 0.0789949629	-0.123171
C	-0.4579147287	-1.7887428357	-1.1212105166	-0.246881
C	 0.8185716362	-0.8893692335	-0.9940411501	 0.007602
O	 1.8416927145	-1.5104811801	-0.2296746232	-0.266421
C	 1.2838217249	-1.7733044146	 1.0680979979	-0.10414
C	 0.0493131226	-0.8854991326	 1.1601975188	-0.158025
H	 0.664656232	 1.7908571281	 0.3773685712	 0.289336
H	-2.0834434341	-0.9319523365	 0.3409813666	 0.092303
H	-0.2893304002	-2.8667653192	-1.0364324569	 0.099065
H	-1.0161430393	-1.5779908449	-2.0374821132	 0.106278
H	 1.2534426307	-0.4780611726	-1.9037913725	 0.087633
H	 1.0499104415	-2.8423555455	 1.1684047614	 0.099318
H	 2.0329952682	-1.5192209991	 1.8272503865	 0.103378
H	-0.2872173775	-0.5097259399	 2.1191167908	 0.094837
