16
gdb 47388	2.58507	1.40251	1.1428	4.3073	69.16	-0.2559	0.0123	0.2682	1087.1483	0.127486	-434.129945	-434.121936	-434.120992	-434.162986	29.67	
O	 0.0122705862	-0.0550460561	-0.134328051	-0.399551
C	-0.0286312854	 1.1507547917	 0.0109822547	 0.445261
N	-1.2018320885	 1.8482157392	 0.1730144326	-0.336693
C	-1.3267672309	 3.2945601891	 0.0881565565	-0.1693
C	-0.0729436525	 3.9421532567	 0.6699258075	-0.213861
C	 1.1792287429	 3.3554485344	-0.0056911266	-0.140681
N	 1.135514039	 1.9096240029	 0.1015753182	-0.325519
C	 1.2881053451	 3.8184612944	-1.4100255677	 0.281322
N	 1.3766094002	 4.1714091875	-2.5070488203	-0.319454
H	-2.0172787012	 1.2795182273	 0.0085453315	 0.257407
H	-1.4708058436	 3.6315247643	-0.9493226021	 0.132009
H	-2.2064435449	 3.6092798999	 0.6580425484	 0.122616
H	-0.1007281955	 5.0248465846	 0.5297489951	 0.132275
H	-0.0028996571	 3.728628816	 1.7402562764	 0.132736
H	 2.0714708164	 3.7179568935	 0.517359175	 0.139353
H	 1.9544168098	 1.3868251547	-0.1695456883	 0.262081
