25
gdb 103624	2.06802	1.22347	1.13897	1.5217	88.09	-0.2546	0.068	0.3226	1320.061	0.227284	-389.485729	-389.474968	-389.474024	-389.5207	40.994	
C	 0.8179874723	 1.5424890491	-0.2599325003	-0.402833
C	 0.0978640767	 0.2125166753	-0.0493251637	 0.015454
C	 0.5566470825	-0.9485188184	-0.9803467855	-0.278664
C	 1.2258711717	-1.6748406696	 0.2268327623	 0.32215
C	 0.8212467359	-3.1354205152	 0.4252509321	-0.476885
C	 2.7547098674	-1.5413938596	 0.2040318533	-0.12276
O	 3.3573060609	-2.1924501331	-0.9069192619	-0.426407
C	 0.512897735	-0.6552155599	 1.1893499031	-0.017796
C	 1.2607119599	-0.0188456371	 2.3571278846	-0.417631
H	 1.9068403953	 1.4307436883	-0.2780672905	 0.117445
H	 0.5234637957	 1.9831570924	-1.2189035316	 0.113859
H	 0.5714301176	 2.264610445	 0.5262269341	 0.11113
H	-0.9801527039	 0.3996561541	-0.0844461388	 0.062878
H	-0.2755443148	-1.5130765796	-1.4102748148	 0.087129
H	 1.2391272113	-0.6782398094	-1.7908015684	 0.106187
H	 1.1860103028	-3.7711708747	-0.3911235293	 0.104556
H	 1.2131874285	-3.536984589	 1.3683653813	 0.109353
H	-0.2681222033	-3.2416580446	 0.4455971515	 0.114946
H	 3.0480802166	-0.4924677744	 0.1083633785	 0.106972
H	 3.1760691653	-1.9096718576	 1.153447292	 0.082796
H	 3.2353724877	-3.1401140943	-0.798747813	 0.282939
H	-0.3842433611	-1.1408867387	 1.5902920759	 0.063548
H	 2.1650196255	 0.5108007566	 2.0448192247	 0.116866
H	 0.6204229607	 0.7063860387	 2.8717313103	 0.112933
H	 1.5562872637	-0.7719579043	 3.0962505741	 0.111833
