14
gdb 35294	6.06427	0.9633	0.90981	5.0189	74.9	-0.2673	-0.0068	0.2605	1224.6971	0.099427	-399.484563	-399.47666	-399.475716	-399.517187	29.398	
C	 0.0591545893	-1.2174571239	 0.1108964628	-0.370827
C	 0.0714992353	-0.0188184873	 0.0214280882	 0.176256
C	 0.0473256092	 1.3938001643	-0.128006867	 0.299272
C	-0.7471567516	 2.2273566592	-1.1518526475	-0.324628
C	 0.4142042392	 3.2946023276	-1.1127696047	-0.184631
C	 0.0852818077	 4.6583366349	-0.7292868264	 0.286895
N	-0.1756164397	 5.7435117594	-0.4293901135	-0.318834
C	 1.1169831659	 2.4186511548	-0.0497421667	-0.058834
O	 0.2179785508	 2.2381653352	 1.0287297592	-0.255992
H	 0.0545642887	-2.2760060201	 0.2014000653	 0.201171
H	-0.8360070002	 1.7559886176	-2.1309655716	 0.135774
H	-1.7226496907	 2.5630798408	-0.7995513373	 0.144234
H	 0.9684789502	 3.3012724001	-2.0547087345	 0.137549
H	 2.179075606	 2.3335226275	 0.1464098237	 0.132595
