19
gdb 76267	2.45061	1.53438	1.01355	5.698	80.61	-0.2132	0.0016	0.2148	1186.0594	0.159571	-419.266731	-419.25736	-419.256416	-419.30054	34.886	
C	 0.0023942972	 1.6109774245	 0.0736580958	-0.401393
C	 0.0630148624	 0.0776085684	-0.0072250551	-0.056285
N	 0.8376630217	-0.3973798414	-1.13337025	-0.097096
C	 0.4282918263	-0.2527460292	-2.5067718013	-0.347408
C	 1.8550778519	-1.2662478425	-0.7432241849	 0.431041
O	 2.6010588021	-1.846771049	-1.5093374763	-0.416363
C	 1.8131039553	-1.3123825477	 0.7282917966	-0.371311
C	 0.785972757	-0.5616568995	 1.1687477825	 0.367047
N	 0.3152739871	-0.3757960087	 2.4433183157	-0.586923
H	 1.0100601423	 2.0278291484	 0.1556781593	 0.134873
H	-0.4718411502	 2.0230266952	-0.8213629843	 0.131358
H	-0.5897853029	 1.9438470033	 0.933222981	 0.108552
H	-0.966954177	-0.3145846228	-0.0522227216	 0.097104
H	 0.4291747614	 0.7953068469	-2.8309697068	 0.114942
H	 1.1491591923	-0.8074629427	-3.111125144	 0.16503
H	-0.5754244889	-0.6658932257	-2.6829093548	 0.110264
H	 2.5129518472	-1.8923403658	 1.31137077	 0.101476
H	 0.9392438691	-0.6208311576	 3.1966863239	 0.260713
H	-0.2167203943	 0.461626566	 2.6213389443	 0.254379
