14
gdb 62349	4.18415	1.14017	1.09535	4.1131	69.61	-0.2464	-0.022	0.2245	1095.2678	0.099086	-436.628314	-436.620237	-436.619293	-436.660826	30.453	
N	-0.1481615511	 1.4322373144	-0.2048151057	-0.574026
C	-0.0642927066	 0.0032083734	-0.0512000172	 0.102536
C	 1.0007444984	-0.606736555	-0.8065407545	 0.295501
C	 1.9044589784	-1.1143140679	-1.4145499011	-0.411416
C	-0.4469872768	-0.7388511231	 1.20518655	 0.030987
O	-1.4524586644	 0.0279901598	 1.9113444005	-0.273497
C	-2.3577327224	-0.1762586962	 0.8593635879	 0.454596
O	-3.5020245925	 0.128506057	 0.8316968485	-0.308751
C	-1.3473951019	-0.880014148	-0.0031211879	-0.304575
H	-0.7157379992	 1.8236200641	 0.5425406773	 0.255995
H	 0.7815613186	 1.8307685246	-0.1149998337	 0.243069
H	 2.700302741	-1.5584444989	-1.9606242324	 0.208395
H	 0.1237343901	-1.4614346927	 1.7717688793	 0.138982
H	-1.5245162516	-1.6849321315	-0.7001270011	 0.142206
