17
gdb 65837	2.61697	1.35252	1.20639	3.4531	75.89	-0.2346	0.0268	0.2614	1111.1044	0.13572	-417.995838	-417.987227	-417.986283	-418.028903	32.852	
C	-0.1571363209	 1.6315857016	-0.0261289607	-0.434938
C	 0.0659096756	 0.1137592081	-0.012448764	 0.056947
C	 0.9500747374	-0.3676528889	-1.1952078446	-0.103542
O	 1.6999290151	-1.4649327368	-0.6743562311	-0.244157
C	 1.704797716	-1.3996328585	 0.6935432002	 0.460207
N	 2.3051886092	-2.1856474935	 1.4785242516	-0.590459
N	 0.9475350676	-0.301650353	 1.0833542898	-0.341186
C	-1.2238754881	-0.5943525899	 0.0184989882	 0.351363
C	-2.2806845002	-1.1647617723	 0.069784783	-0.491649
H	 0.8065191019	 2.1463919846	-0.0050121146	 0.130631
H	-0.7095830244	 1.9283796459	-0.9223318731	 0.132816
H	-0.7408467512	 1.9408636873	 0.8447048083	 0.133958
H	 0.367442983	-0.7097736448	-2.0509514692	 0.133154
H	 1.634329721	 0.4315472589	-1.5037061906	 0.114803
H	 2.8308766519	-2.8796876058	 0.9522168868	 0.225081
H	 0.5617766799	-0.3618039617	 2.0143654561	 0.25998
H	-3.2091655038	-1.6792518512	 0.1145014739	 0.206993
