20
gdb 59286	2.56876	1.31703	1.0826	3.0754	81.71	-0.2067	0.0013	0.2081	1221.7239	0.170472	-403.205346	-403.19616	-403.195216	-403.239604	34.318	
C	 0.0170713355	 1.5523765536	-0.0186140894	-0.386929
C	-0.0144457424	 0.0206439341	 0.0542815864	 0.028918
C	 0.7912201613	-0.5201906517	 1.2420675672	-0.386967
N	-1.3848549278	-0.4844069853	 0.0655208396	-0.083408
C	-2.3579897258	-0.2483781026	 1.0522061739	-0.010015
C	-3.5164017129	-0.8515483398	 0.7682605436	-0.16151
C	-3.3576646231	-1.5835680683	-0.5369001635	-0.393674
C	-1.9054236563	-1.2876915577	-0.9399523892	 0.408178
O	-1.3060017386	-1.6608111162	-1.92555969	-0.38802
H	 1.048847409	 1.9055458264	-0.1079724772	 0.121332
H	-0.5457557705	 1.9122786909	-0.8840998133	 0.129203
H	-0.4119349797	 2.0058546112	 0.8819054098	 0.113594
H	 0.4036372585	-0.3862871413	-0.8714610543	 0.124076
H	 1.834019975	-0.196635678	 1.1702797157	 0.121345
H	 0.3952156582	-0.1537747839	 2.1957649575	 0.113598
H	 0.7707880579	-1.6131723846	 1.2605998811	 0.129161
H	-2.1043176073	 0.3636049272	 1.9059722655	 0.12603
H	-4.4123408899	-0.8211977023	 1.3683714004	 0.106449
H	-3.5007051471	-2.6676911536	-0.4591199665	 0.144298
H	-4.0334685239	-1.2360400882	-1.3270459173	 0.144342
