15
gdb 44740	3.12131	1.7312	1.5191	3.9752	64.07	-0.267	-0.02	0.247	885.2114	0.11481	-457.801889	-457.795492	-457.794547	-457.832771	25.631	
O	 0.015817624	 0.0191565806	 0.4953474856	-0.319315
C	-0.0159090467	 1.1348884175	 0.0593878682	 0.412629
C	-1.3359913897	 1.9028969792	-0.1187265042	-0.344997
C	-1.1477112396	 3.2072490006	-0.9150943117	 0.009109
O	 0.0278149831	 3.8179985133	-0.3558699363	-0.224303
C	 1.0531934652	 3.0601581951	-0.9176873196	 0.130797
O	 1.1494175988	 1.7741530112	-0.2405811056	-0.239604
C	 0.6027015492	 2.8168664688	-2.3483100838	-0.08477
C	-0.7243123919	 2.8968233665	-2.3400622216	-0.093949
H	-2.0553219668	 1.2197248275	-0.5775458394	 0.139353
H	-1.7018605379	 2.1314232917	 0.8879328525	 0.149951
H	-1.988420629	 3.8950720039	-0.8111168922	 0.10116
H	 2.0161195008	 3.5411813979	-0.7543108352	 0.111484
H	 1.2638499115	 2.5277681049	-3.1525610298	 0.128389
H	-1.4137593212	 2.6847120711	-3.146024547	 0.124066
