21
gdb 105629	2.00395	1.34494	1.16535	1.3285	84.49	-0.2481	0.042	0.2901	1239.3748	0.179892	-387.045765	-387.035713	-387.034769	-387.080385	37.4	
C	 0.1539954133	 1.6266828385	 0.1344175634	-0.395623
C	 0.1404453467	 0.0985241448	 0.0375123702	-0.239831
C	 0.7640823922	-0.4445568112	-1.2634129228	 0.065667
C	 2.3219042215	-0.3874801155	-1.2524195409	-0.10806
O	 2.4137671848	-1.7865659595	-0.937309551	-0.292411
C	 1.024726954	-1.9961013225	-1.2730478002	 0.123667
C	 0.3129771868	-2.9303952618	-0.3198201732	-0.416918
C	 0.0975549805	 0.0727970489	-2.4454723515	 0.278164
C	-0.4597819614	 0.4805632934	-3.4307014788	-0.456757
H	 1.1735663301	 2.0239372433	 0.0831695376	 0.116565
H	-0.4215343495	 2.0779526515	-0.6783994051	 0.133996
H	-0.2801227639	 1.954609873	 1.0835067993	 0.115184
H	 0.6931253702	-0.3279761272	 0.8818423448	 0.109615
H	-0.8902661251	-0.2657508511	 0.115174491	 0.106027
H	 2.7629770623	-0.1505470076	-2.2285246747	 0.105276
H	 2.7786143688	 0.2401437918	-0.4796314557	 0.106299
H	 0.9376124902	-2.378494971	-2.3002082915	 0.076279
H	 0.367079607	-2.5823576997	 0.7138785449	 0.123551
H	-0.7387616386	-3.0381016207	-0.604910716	 0.124082
H	 0.7791156906	-3.9196925148	-0.3695364888	 0.130977
H	-0.9478411707	 0.8437599675	-4.3011085811	 0.194251
