19
gdb 69418	4.66678	0.91211	0.86209	1.4724	81.59	-0.2349	0.0501	0.285	1393.1091	0.156958	-385.821849	-385.81284	-385.811896	-385.855669	34.259	
C	-0.0814854497	 1.5040846961	 0.3996707937	-0.488525
C	-0.029417806	 0.0263849848	 0.1947333314	 0.475519
C	-0.4114354329	-1.0464393974	 1.1641411321	-0.338351
C	 0.9693179093	-1.0640021713	 0.5289368979	-0.186768
C	 0.855577928	-1.4405168697	-0.9437928839	 0.130384
C	 0.4379674198	-2.8510272589	-1.3680799286	-0.375438
C	 1.5224965663	-3.8081938663	-1.1956495668	 0.30115
C	 2.4404462345	-4.5680652428	-1.0385724649	-0.454408
O	-0.1983586582	-0.4607401352	-1.1513641452	-0.33965
H	 0.6402251818	 2.0163633374	-0.2441066476	 0.128429
H	-1.0803438322	 1.8880701819	 0.1630164616	 0.133067
H	 0.1377435982	 1.7543092104	 1.4415862104	 0.123871
H	-0.4079371533	-0.7558396489	 2.2103069802	 0.114236
H	-1.1693045009	-1.7777578489	 0.8977174884	 0.112802
H	 1.8841837187	-1.0353000397	 1.1044749692	 0.101486
H	 1.750445564	-1.1418472029	-1.5032846383	 0.093323
H	-0.4412213413	-3.1639162597	-0.7939729259	 0.132627
H	 0.1264814886	-2.8149243743	-2.4197824832	 0.139888
H	 3.2408352652	-5.2527576446	-0.9054816006	 0.196359
