13
gdb 131972	2.88053	1.62664	1.04038	5.4935	66.43	-0.2384	-0.0657	0.1728	1031.9292	0.091104	-486.007816	-486.000453	-485.999509	-486.039728	27.496	
N	 0.0293058108	 1.3939989818	 0.1456513989	-0.602238
C	-0.0282368987	 0.0417319717	 0.0461423626	 0.393202
C	-1.1408985264	-0.8100537954	 0.0279850195	 0.23039
C	-0.6221077608	-2.1281266955	-0.0188463058	-0.045552
N	 0.6916290862	-2.123024761	-0.0320116632	-0.21941
N	 1.0334171684	-0.7896038286	 0.0083288616	-0.274655
N	-2.4873150584	-0.396756466	 0.0180967351	 0.332343
O	-3.360905064	-1.257135939	-0.0185064854	-0.372776
O	-2.7145238869	 0.8260865765	 0.0428535875	-0.428329
H	 0.8280632845	 1.8723453628	-0.2394447007	 0.263757
H	-0.8746809192	 1.8314001581	 0.0118788731	 0.292358
H	-1.1802423601	-3.0503296708	-0.0460545962	 0.151597
H	 2.0079080847	-0.5419803546	 0.038922243	 0.279312
