20
gdb 11283	4.6843	1.22354	1.04229	0.8844	81.14	-0.253	0.058	0.311	1171.5013	0.177282	-311.859389	-311.850896	-311.849952	-311.8933	32.22	
C	 0.011110119	 1.6055296871	-0.0185093367	-0.409313
C	 0.0411782126	 0.078230511	-0.05036705	 0.064278
C	 0.8844097676	-0.5259132552	-1.1897369359	-0.213586
C	 1.1190690391	-1.9695746757	-0.7355597251	-0.215138
C	 1.445335945	-1.8185012264	 0.7758468789	-0.146017
C	 0.617008549	-0.5698463196	 1.2384210512	-0.230952
C	 1.2028532383	-3.0220511837	 1.5571046512	 0.304947
C	 0.9869427835	-4.0179458946	 2.1961971934	-0.46086
H	 1.0210401593	 2.0137668147	 0.1071063378	 0.111156
H	-0.4015936494	 2.0155648033	-0.9466502002	 0.111831
H	-0.6020550095	 1.9767364043	 0.809650366	 0.114041
H	-0.9875976868	-0.2832482635	-0.179710399	 0.073194
H	 0.3930990795	-0.4546747769	-2.1648660639	 0.093304
H	 1.8429679215	 0.0056829284	-1.2679545184	 0.091906
H	 0.2023910327	-2.5576763383	-0.8538780527	 0.108508
H	 1.9145607106	-2.4864254886	-1.2784530603	 0.101232
H	 2.5105678435	-1.5694526849	 0.8602955166	 0.100998
H	 1.2671255214	 0.1315366952	 1.7711923739	 0.099523
H	-0.1747634592	-0.8594498466	 1.9327503078	 0.111392
H	 0.8024098722	-4.89642282	 2.7628699654	 0.189556
