14
gdb 130996	7.43216	0.766	0.69745	4.6352	64.12	-0.2491	-0.0327	0.2164	1487.4146	0.101132	-470.022393	-470.014336	-470.013392	-470.056647	27.483	
O	-0.1743357869	 0.2159756024	 0.5279475096	-0.23623
C	 0.0780378768	 1.1383801485	-0.1994493059	 0.138742
C	 1.3933928019	 1.892371469	-0.1501845367	-0.152926
O	 1.3358326219	 2.9070167103	-1.1442241691	-0.255531
C	 2.4175786114	 3.6828933374	-1.2513310463	 0.457954
N	 3.4994928743	 3.5500100497	-0.4979905082	-0.308963
N	 4.2837209706	 4.5511571787	-0.9909665479	-0.198649
C	 3.6440059286	 5.201531135	-1.9778238375	 0.035611
N	 2.4489235526	 4.6782541034	-2.1755325998	-0.328287
H	-0.6323731598	 1.513979258	-0.9675108593	 0.10543
H	 1.5421702173	 2.323462234	 0.8480533569	 0.151452
H	 2.228102686	 1.2040317321	-0.3343270384	 0.151449
H	 5.1999399701	 4.7042564868	-0.6044789292	 0.285252
H	 4.0730000151	 6.0331651746	-2.5163856582	 0.154697
