23
gdb 111316	2.07123	1.57226	1.219	1.0139	85.62	-0.2386	0.0802	0.3188	1187.8884	0.20404	-388.258404	-388.248597	-388.247653	-388.292466	37.434	
C	-0.1077410308	 1.3484155155	-0.0061833452	-0.241388
O	 0.2436785397	-0.0119167417	 0.1169802508	-0.240432
C	 0.7021870942	-0.5983664921	-1.077076047	 0.082896
C	 1.3680192631	-1.9501972713	-0.8797966843	-0.078036
C	 0.3816708856	-2.9560695812	-0.3540975343	-0.301566
C	 0.34889733	-2.6111580856	-1.8132237267	-0.071959
C	-0.3509669322	-1.2613635687	-2.0729142193	 0.287609
C	-1.8263032267	-1.1700309454	-1.6883676927	-0.44385
C	-0.1267338694	-0.7891982198	-3.5098396947	-0.446719
H	 0.7407353954	 1.9531210165	-0.3633720376	 0.103764
H	-0.9527349647	 1.5042650405	-0.6919238799	 0.107178
H	-0.3963798645	 1.7000088655	 0.9876449986	 0.125413
H	 1.3463188523	 0.1106602696	-1.6177586026	 0.055944
H	 2.4372265095	-2.107987804	-0.8093321386	 0.082069
H	 0.8084677633	-3.9263481533	-0.1202454118	 0.108228
H	-0.4095283488	-2.6464880526	 0.3203970977	 0.120498
H	 0.5359365277	-3.3525583298	-2.5820490951	 0.078239
H	-1.9852465722	-1.3595912969	-0.6246469354	 0.123751
H	-2.2339737037	-0.1774126299	-1.9110288754	 0.107414
H	-2.4136917476	-1.9006924478	-2.2564328491	 0.109514
H	-0.7055389405	-1.3943767007	-4.2175385196	 0.111063
H	-0.4349291659	 0.2550887302	-3.6347365025	 0.108177
H	 0.928483906	-0.8673046068	-3.7936684555	 0.112192
