18
gdb 86958	3.25932	1.06465	0.92523	3.1836	76.72	-0.2607	-0.0031	0.2576	1309.4997	0.146871	-439.093298	-439.084502	-439.083558	-439.12781	31.808	
C	 0.5161082193	 1.459932795	-0.3611157942	-0.391332
C	 0.0414356238	 0.0562060778	 0.0153304266	 0.071411
O	 0.3181663827	-0.8827409619	-1.0405528486	-0.262991
C	 1.2838819194	-1.8115080452	-0.6282094764	 0.16298
O	 2.5536920402	-1.5642011158	-1.2426361886	-0.195707
C	 2.6771550829	-1.9506146159	-2.5308349522	 0.132935
N	 3.7283746391	-1.6785934667	-3.1728398215	-0.442838
C	 1.4361328653	-1.6041941175	 0.8523729193	-0.119783
C	 0.7404143005	-0.5328507103	 1.2107466946	-0.081897
H	 1.597672754	 1.4637733754	-0.5193016272	 0.140754
H	 0.0250811624	 1.787040816	-1.2815334295	 0.130223
H	 0.2705819382	 2.1737972866	 0.4321672418	 0.114757
H	-1.0487392888	 0.0647406584	 0.1545682034	 0.093786
H	 0.9512304691	-2.8150170196	-0.929131608	 0.089297
H	 1.8049414737	-2.5005491263	-2.9092424955	 0.091024
H	 3.6634547246	-2.0552203035	-4.1165532536	 0.227739
H	 2.0709759137	-2.2273836095	 1.4664285135	 0.122202
H	 0.6783780098	-0.0962551371	 2.1993437562	 0.11744
