17
gdb 29839	3.88219	1.09826	0.86537	4.5722	86.94	-0.2057	0.0116	0.2174	1317.8356	0.135019	-380.888511	-380.879239	-380.878295	-380.923435	33.149	
C	 0.0130525938	 1.459885951	 0.0248085152	-0.341453
N	 0.0033930998	 0.0099606087	 0.0008313842	-0.015651
C	-0.0027490199	-0.7844166702	-1.1195184473	-0.222983
C	 0.0158211699	-2.0834801916	-0.6644422313	 0.12748
N	 0.0355724381	-2.0929392724	 0.7209086877	-0.35274
C	 0.0291843354	-0.831827927	 1.0875771774	 0.324931
C	 0.047017293	-0.3406978042	 2.4959122821	-0.51103
C	 0.0136437119	-3.2642185057	-1.4450587576	 0.236262
C	 0.0119516238	-4.2602521814	-2.1217708322	-0.428537
H	 0.9710948426	 1.8451419897	 0.3893306195	 0.146427
H	-0.1506737645	 1.8346909815	-0.9863642995	 0.149716
H	-0.7844356808	 1.8412776153	 0.6688233953	 0.14738
H	-0.0213798102	-0.3707444268	-2.1139190692	 0.133875
H	 0.9272247762	 0.278751354	 2.7050267275	 0.131297
H	-0.8396239155	 0.2588548127	 2.7344427493	 0.131631
H	 0.0672290992	-1.2051912272	 3.1599825698	 0.161846
H	 0.010329807	-5.1433044464	-2.7105525209	 0.181549
