17
gdb 38822	3.08008	1.82554	1.3104	2.2553	72.31	-0.246	0.0266	0.2726	951.1381	0.139006	-417.973041	-417.966252	-417.965308	-418.004261	27.058	
C	 0.0083810791	 1.5569558897	 0.0276961176	-0.268305
C	 1.5448784375	 1.5428595038	 0.0350869258	-0.093542
N	 2.0757242332	 0.8456890985	-1.1375840993	-0.380083
C	 1.569143712	 0.0393262668	-0.0469786961	 0.312471
C	 2.3370821038	-1.0435545307	 0.6402214696	-0.268061
N	 1.604849353	-1.5980711768	 1.7769802104	-0.268848
C	 0.378477327	-1.3340974163	 1.9202722938	 0.132506
O	-0.4730539675	-0.5813617575	 1.1682070742	-0.240665
C	 0.0370361117	-0.0004172829	-0.0344641464	 0.056102
H	-0.4396999472	 1.886809447	 0.9669085736	 0.127159
H	-0.4646183642	 2.0848013081	-0.806702651	 0.102998
H	 2.2036581253	 2.2253903929	 0.5594861027	 0.103927
H	 1.4542066816	 0.8821894629	-1.9450494516	 0.226463
H	 2.5502135026	-1.8621102563	-0.0617121891	 0.121305
H	 3.3107148047	-0.6819948146	 0.9880592222	 0.126178
H	-0.1731660388	-1.7367355425	 2.7679394614	 0.125047
H	-0.4619565439	-0.4906698021	-0.8784594678	 0.085347
