16
gdb 30111	3.9923	1.15362	1.0079	1.994	72.44	-0.24	-0.0119	0.2281	1174.7287	0.124804	-437.895566	-437.887774	-437.88683	-437.928665	28.411	
C	 0.1361236134	 1.5477159093	-0.3479924847	-0.43764
C	-0.0283744103	 0.0999516592	 0.0310026169	 0.078295
O	 1.1353714615	-0.7319036074	 0.0386990226	-0.255005
C	 0.4589289019	-0.5181693562	 1.2846264138	-0.08206
C	 1.1807924959	 0.1526329309	 2.3714309659	 0.355411
C	 1.194506424	-0.0475775291	 3.7154027838	-0.187842
N	 2.0514887527	 0.865642694	 4.3148266815	-0.256432
C	 2.5109387999	 1.5558012153	 3.3246082706	 0.072438
O	 2.0356478707	 1.192114232	 2.1105504029	-0.173919
H	 1.0133500852	 1.9889633241	 0.1241781953	 0.149114
H	 0.2411836913	 1.6361559198	-1.4343876788	 0.131419
H	-0.7518559189	 2.1164868771	-0.0516036842	 0.124423
H	-0.8993433047	-0.3875612124	-0.4146256173	 0.093955
H	-0.0906416664	-1.3858922979	 1.652645073	 0.103198
H	 0.652740535	-0.7812364763	 4.2910908086	 0.130034
H	 3.2202091089	 2.3682086176	 3.3413662701	 0.154611
