18
gdb 107928	4.01567	1.1467	1.12658	2.5927	71.13	-0.2511	0.0578	0.3089	1134.2243	0.148273	-439.018723	-439.010683	-439.009739	-439.05132	31.05	
O	 0.0112669439	 1.2963520457	 0.3794379637	-0.415431
C	 0.0028248779	-0.0166623946	-0.1553598691	-0.169641
C	-1.391003648	-0.5559293197	-0.2709803869	 0.304932
C	-2.5845082833	 0.1116666965	-0.9414717017	-0.282171
C	-3.4081236561	-0.7326447098	 0.0414585393	-0.067871
C	-3.1820690276	-2.2067568225	-0.3802772972	 0.132271
O	-3.3754898344	-2.6029139095	-1.7156594066	-0.435332
C	-1.7550991302	-1.9677574372	 0.0512945569	-0.119824
N	-2.1736781874	-0.8564632947	 0.9891208725	-0.218255
H	-0.471655452	 1.2490460454	 1.2131515591	 0.291344
H	 0.4686436351	 0.0497760133	-1.1449072069	 0.117756
H	 0.6121954812	-0.7041609208	 0.4525912107	 0.092014
H	-2.6116841818	 1.1741048282	-0.690763318	 0.114168
H	-2.7496479922	-0.0417121352	-2.010861477	 0.110016
H	-4.3601272851	-0.3934654013	 0.4460200128	 0.079115
H	-3.6767841659	-2.8849311043	 0.3267446859	 0.08445
H	-4.2920155503	-2.8739761156	-1.8273188943	 0.287236
H	-1.0173849237	-2.7056657439	 0.3452310267	 0.095222
