13
gdb 10680	2.66561	2.34343	1.35849	2.3684	55.97	-0.26	-0.0594	0.2006	851.592	0.093947	-435.752053	-435.744472	-435.743527	-435.784193	27.307	
N	 0.188802608	 1.0703181459	-0.6275140224	-0.554736
C	 0.023155927	 0.034594831	 0.2247215274	 0.360492
O	 0.8007838773	-0.2770710167	 1.1035076325	-0.362005
C	-1.2518985112	-0.7824652028	 0.0032397453	 0.173909
C	-1.1653273485	-2.2287911637	 0.3530068193	-0.190608
O	-1.8241076863	-1.3253208406	 1.2042839954	-0.233826
C	-2.3130411593	-0.4218036124	-0.9871887027	 0.13458
O	-2.2209622628	 0.4108973237	-1.8586833568	-0.281771
H	 1.0284860728	 1.6199885364	-0.5455604235	 0.26494
H	-0.4885607401	 1.2516382916	-1.3554610503	 0.284764
H	-1.7982615588	-2.9481765369	-0.1658588223	 0.126998
H	-0.1922402402	-2.5712841285	 0.6969461245	 0.161212
H	-3.2438515279	-1.007048137	-0.8382684863	 0.11605
