22
gdb 96464	2.16262	1.80755	1.27236	2.1574	81.91	-0.2147	0.0615	0.2761	1091.4536	0.196767	-404.328915	-404.320659	-404.319715	-404.361057	33.512	
O	 0.0375453473	 1.4286587034	-0.1318996426	-0.427908
C	 0.0343444982	 0.0056910261	-0.0471875346	 0.089157
C	 0.8615912323	-0.5088800896	 1.1489716731	-0.230839
C	 0.5737410327	 0.180851382	 2.4930267045	-0.177028
C	-0.8584879951	 0.0554350116	 3.0359970551	-0.187437
C	-1.9304421505	 0.70191148	 2.1496696462	-0.142972
N	-2.3378111445	-0.203568904	 1.0723957404	-0.090417
C	-2.5794718406	 0.3570228012	-0.2555102417	-0.262857
C	-1.3955735801	-0.5073196452	-0.0015403116	 0.008327
H	 0.9528758105	 1.7254314391	-0.1008752672	 0.283334
H	 0.4767847941	-0.4145765479	-0.9661253356	 0.066818
H	 0.6969157864	-1.5908844113	 1.2343772153	 0.102755
H	 1.9283695014	-0.3836551087	 0.9154318268	 0.083267
H	 1.2709837519	-0.2257966702	 3.2355555474	 0.090781
H	 0.8171316668	 1.2465440081	 2.3996965238	 0.091025
H	-1.1209781779	-0.9993273608	 3.1872288523	 0.101728
H	-0.8886246044	 0.5293842349	 4.0243756859	 0.090946
H	-2.8296335072	 0.9035489886	 2.7439949315	 0.092556
H	-1.5607378365	 1.6669235721	 1.7739857877	 0.101661
H	-3.44350797	-0.0315363282	-0.7894310127	 0.104824
H	-2.3809900832	 1.4157758155	-0.4018656932	 0.127435
H	-1.4448555816	-1.5497052068	-0.3176932109	 0.084846
