17
gdb 51719	4.97558	0.78721	0.70745	2.7664	70.72	-0.2539	-0.0317	0.2222	1512.8151	0.134873	-459.019651	-459.011082	-459.010137	-459.054449	30.541	
O	-0.1980371493	 0.0654668601	 0.3289975384	-0.270494
C	-0.1105789394	 1.254987299	 0.3053082187	 0.163388
O	 0.9421431969	 1.8980857743	-0.2371067079	-0.185101
C	 0.966064909	 3.328262593	-0.2095152087	 0.110667
C	 2.1909812894	 3.8437214417	 0.5688417244	-0.244635
C	 2.3988454444	 5.2696493961	 0.0384703377	-0.323523
C	 1.8661287621	 5.2409657241	-1.4012335243	 0.399854
O	 2.0013464826	 6.1101032429	-2.2196141164	-0.302204
C	 1.1243551152	 3.9155766059	-1.6142437138	-0.340192
H	-0.8704082361	 1.9482155922	 0.7174453464	 0.079621
H	 0.0400693129	 3.6928598514	 0.2551108209	 0.095354
H	 2.0496729759	 3.7885470304	 1.6505338111	 0.115263
H	 3.0449156288	 3.2075432729	 0.3129927751	 0.131092
H	 1.7966520839	 6.0008385313	 0.5935813185	 0.138289
H	 3.4315440406	 5.6238170956	 0.0677036531	 0.140886
H	 1.7699185113	 3.2555564266	-2.207763619	 0.155209
H	 0.1952578819	 4.0547973927	-2.1702382241	 0.136524
