17
gdb 1812	3.59461	2.56585	1.81671	1.7585	59.7	-0.2613	0.0854	0.3467	752.9237	0.146503	-346.840597	-346.832753	-346.831808	-346.872125	29.333	
C	-0.0208981572	 1.5550626034	 0.2612331101	-0.407048
C	-0.0186957584	 0.0495160112	-0.0297302482	 0.069118
O	 0.7778872997	-0.6402353494	 0.9180432462	-0.434732
C	-1.4324165163	-0.5459580167	-0.064861138	 0.397746
C	-2.4599579557	 0.1406579733	-0.934765114	-0.472303
C	-1.6013123266	-1.9638060597	 0.278428229	-0.229588
O	-1.8956627654	-0.9359588137	 1.2432789925	-0.290864
H	 1.0102091593	 1.8977272472	 0.3757883841	 0.126846
H	-0.4872617184	 2.1294781122	-0.5446173685	 0.113997
H	-0.5594891513	 1.7674787009	 1.191542513	 0.121908
H	 0.4516809498	-0.1283650006	-1.0054591167	 0.090899
H	 0.2284959832	-0.709327885	 1.7116992198	 0.287276
H	-2.1122621008	 0.192889146	-1.9724973547	 0.124079
H	-3.405391119	-0.406533674	-0.9150999201	 0.128062
H	-2.6515049479	 1.1611534768	-0.5915391842	 0.133598
H	-2.4715940319	-2.5018350838	-0.093756755	 0.112153
H	-0.7276278831	-2.568035688	 0.5056087647	 0.128852
