18
gdb 15970	2.95497	1.79866	1.29444	2.8697	72.69	-0.2443	-0.0238	0.2205	976.8136	0.153039	-347.787591	-347.77967	-347.778726	-347.820874	29.181	
O	 0.5951828159	-0.2456437238	-0.0269928758	-0.256121
C	 0.3296893367	 0.9219245699	 0.1077794084	 0.158172
C	 1.2994898296	 2.0596242841	-0.0520275249	-0.139761
C	 0.7557167972	 3.3197806462	-0.8018798253	-0.240533
C	 1.221477709	 4.2301828344	 0.3693566549	-0.297897
C	 1.4963104004	 2.964555729	 1.1906386873	 0.353548
C	 1.0006782871	 2.6845765115	 2.5850935427	-0.325715
C	 2.4813705092	 2.7780120523	 2.3033337189	-0.316776
H	-0.7021084396	 1.2466111939	 0.3846304596	 0.06808
H	 2.2396899657	 1.6746967089	-0.4546374375	 0.088841
H	 1.1964334643	 3.5083215712	-1.7818819399	 0.113205
H	-0.3327129137	 3.2942942905	-0.9102062486	 0.108957
H	 2.1284730981	 4.796859774	 0.1376198196	 0.106688
H	 0.4751663988	 4.9211818369	 0.7708032758	 0.103625
H	 0.5260996934	 3.4991420721	 3.1231486632	 0.115117
H	 0.5887159302	 1.7057394949	 2.8084784232	 0.123483
H	 3.0619107003	 1.8611050941	 2.3247663294	 0.121964
H	 3.0172668772	 3.6552582698	 2.6523599791	 0.115122
