14
gdb 133011	2.75648	1.47582	0.96698	3.0452	71.7	-0.233	-0.062	0.1711	1128.4063	0.099569	-477.99273	-477.984791	-477.983847	-478.026064	28.313	
C	-0.0852605259	 1.4449140748	 0.0082461637	-0.318563
N	 0.0040712544	-0.0013671531	 0.0035137949	-0.290625
C	-1.0334518064	-0.7050757759	 0.0087656846	 0.46413
O	-2.3319762171	-0.0037789107	 0.0201156999	-0.253518
C	-3.4387625361	-0.7041596946	 0.0258313387	 0.421783
F	-4.5005519245	 0.0641632663	 0.0355437085	-0.031738
C	-3.4872438165	-2.0515268358	 0.0222010598	-0.382937
C	-2.2050231124	-2.688819279	 0.0114129223	 0.034194
N	-1.0652047624	-2.0736540026	 0.0051837312	-0.289742
H	 0.923806224	 1.8621499635	 0.000554917	 0.127957
H	-0.6254615458	 1.8252973151	-0.8687955532	 0.125647
H	-0.6097439177	 1.8202246543	 0.8969473618	 0.125686
H	-4.4219183096	-2.5894923568	 0.0271761636	 0.132984
H	-2.166685194	-3.7771787355	 0.0080377772	 0.134741
