17
gdb 46837	2.85446	1.85457	1.511	2.953	73.63	-0.2311	-0.0074	0.2237	912.4649	0.139931	-418.006984	-418.000222	-417.999278	-418.038088	27.29	
N	-0.0810344768	 1.2797287499	 0.2926264077	-0.522017
C	-0.0236409771	 0.0529592274	-0.010454432	 0.403256
O	 1.1684113819	-0.5682257024	-0.2798736144	-0.267727
C	 1.2290915869	-1.8817461125	-0.8760909981	-0.079037
C	-0.104139303	-2.6426568328	-0.7962859838	-0.071127
N	-1.1959867517	-1.7395113019	-1.2136174811	-0.29805
C	-1.2604806305	-0.8294867722	-0.0513544632	-0.128535
C	-1.1477132717	-1.8252938353	 1.097235042	-0.055573
C	-0.4769189208	-2.884973883	 0.6585185076	-0.059832
H	 0.8548680976	 1.6925424017	 0.2781391339	 0.216903
H	 1.5230101336	-1.7505651936	-1.9266143546	 0.108222
H	 2.0369096261	-2.4129809652	-0.3610193001	 0.117675
H	-0.0562229072	-3.5440510562	-1.4156876858	 0.083911
H	-0.9433178768	-1.2285030865	-2.0576173984	 0.220158
H	-2.1542887596	-0.205610786	-0.0478892279	 0.102436
H	-1.5012757545	-1.6198493217	 2.0979616512	 0.120374
H	-0.1611273363	-3.7521785797	 1.2230837971	 0.108963
