16
gdb 7988	3.56484	1.73145	1.26398	3.4661	60.83	-0.2706	0.0037	0.2743	950.8079	0.130547	-420.928348	-420.920722	-420.919778	-420.960281	28.343	
C	-0.0001640419	 1.5216797029	 0.0195572731	-0.398538
C	 0.1280472128	 0.0117069905	-0.0225006618	 0.125535
C	 0.8348510157	-0.5676346056	-1.2603721805	-0.262886
C	 1.4519300894	-1.8458374758	-0.6983408907	 0.016128
O	 2.6064970033	-2.2869142404	-1.3570417529	-0.437426
C	 1.7498876933	-1.435678373	 0.7436831114	 0.405184
O	 2.5934191804	-1.9191829031	 1.4475941887	-0.358781
O	 0.9450516534	-0.4192880184	 1.1074966966	-0.226648
H	 0.983129123	 1.9933392053	-0.0652654201	 0.133643
H	-0.6234389881	 1.8637975149	-0.8125534505	 0.127186
H	-0.4633265334	 1.8475766348	 0.9544082651	 0.13754
H	-0.8574554809	-0.4535272032	 0.1065544889	 0.098356
H	 0.1493352988	-0.7290305136	-2.0940166402	 0.119632
H	 1.6396097687	 0.0982442196	-1.5898108386	 0.1253
H	 0.6874334724	-2.6427363683	-0.6567020633	 0.09863
H	 3.1919630933	-2.6283062064	-0.6656534753	 0.297146
