16
gdb 27179	3.09678	1.39849	1.02401	1.8429	72.19	-0.2001	0.0196	0.2196	1120.6191	0.127083	-434.07508	-434.067291	-434.066347	-434.108108	29.311	
O	 0.7372826224	 1.1870750609	-0.1839071696	-0.436698
C	 0.3005471247	-0.0925064261	-0.1121127035	 0.265613
C	-0.0139469932	-0.9178756571	-1.1705730792	 0.220007
N	-0.4052536854	-2.0999288367	-0.5415926198	-0.308474
C	-0.3056579406	-1.9209707977	 0.7952836908	 0.009327
N	 0.1239952201	-0.7084081403	 1.090578761	-0.336999
C	 0.0040769534	-0.7710571812	-2.6326099838	-0.138156
C	 0.7517461499	 0.3413353841	-3.2685812698	-0.237727
N	 1.2450718707	-1.0362022752	-3.419948343	-0.322786
H	 0.8579416006	 1.4792809259	 0.7279479824	 0.30141
H	-0.6975538626	-2.9389513191	-1.0144408233	 0.269616
H	-0.5565679203	-2.6907317781	 1.5087639445	 0.135521
H	-0.8834334879	-1.137646309	-3.1462852643	 0.09211
H	 0.3609911044	 0.7893208989	-4.1776912953	 0.116934
H	 1.2853123904	 1.0230358237	-2.6149373558	 0.141366
H	 2.0105425334	-1.1812118832	-2.7642627913	 0.228937
