20
gdb 91872	2.62829	1.50158	1.06364	3.7667	79.38	-0.2393	0.0083	0.2476	1167.7473	0.172373	-403.170368	-403.16214	-403.161195	-403.20325	31.977	
C	-0.0176556807	 1.5913378099	-0.008600747	-0.408419
C	-0.0331809329	 0.063080984	-0.0914306198	 0.041978
C	 0.9685501444	-0.4859907923	-1.1304242288	-0.241065
C	 0.7780305047	-1.9860437576	-1.2054036647	-0.019899
C	 1.8517415371	-2.9714799721	-0.8537238025	-0.256124
N	 0.7874384916	-2.6605218629	 0.0878196009	-0.080251
C	 1.033484725	-1.8986577761	 1.2354032664	 0.348974
O	 1.7757179409	-2.264115315	 2.1171951621	-0.338392
C	 0.2543806371	-0.5835138257	 1.2910812632	-0.312032
H	 0.9748303185	 1.9572348199	 0.2792653508	 0.119123
H	-0.2766197378	 2.0437787966	-0.9715989257	 0.113879
H	-0.7334966995	 1.9542718144	 0.736192166	 0.119163
H	-1.0336565771	-0.2500865839	-0.4176861184	 0.080708
H	 0.8087721855	-0.0242472109	-2.1098723276	 0.104396
H	 1.9929899579	-0.2415701398	-0.8191928349	 0.106992
H	-0.0150049865	-2.3231393153	-1.8719683832	 0.099418
H	 1.8293375673	-3.970038921	-1.2804979843	 0.126844
H	 2.8430327262	-2.5936296254	-0.616598101	 0.133114
H	 0.8527378869	 0.0838940275	 1.9188723014	 0.128816
H	-0.6801360185	-0.7599726843	 1.8363288172	 0.132776
