21
gdb 39683	3.40267	1.20081	1.15016	0.7251	77.78	-0.2323	0.0831	0.3154	1184.7219	0.184539	-424.216109	-424.207741	-424.206797	-424.250138	31.089	
C	 0.0800687965	 1.0777417865	-0.503809929	-0.055546
C	 1.4920672923	 1.4243261104	 0.0037142576	-0.294562
C	 1.393707024	 0.0807662282	 0.7616293936	 0.134597
O	 0.0675832648	-0.1654645935	 0.2330549612	-0.295884
C	 2.3711476694	-1.0180154043	 0.3697209546	 0.113996
C	 1.9058426418	-2.4210447804	 0.8300631253	-0.254339
C	 2.1540684846	-3.2999145785	-0.4064307167	-0.215291
C	 1.9473846189	-2.291838888	-1.5373185002	-0.067838
O	 2.5137613617	-1.0769574189	-1.0537326723	-0.274304
H	-0.7226603213	 1.7488817485	-0.1748247439	 0.097844
H	-0.0105157146	 0.9102416568	-1.5828578388	 0.106738
H	 2.2634790181	 1.4462266263	-0.7652471862	 0.127299
H	 1.5622780626	 2.3126166427	 0.6327204546	 0.103791
H	 1.3722071749	 0.1691028835	 1.8580410658	 0.067809
H	 3.3562742529	-0.7620853945	 0.7870243111	 0.070523
H	 2.4421275209	-2.7619871207	 1.7182406992	 0.100967
H	 0.8378062038	-2.394227905	 1.0643474298	 0.127391
H	 3.1836430378	-3.6727093642	-0.419840656	 0.104213
H	 1.4785896039	-4.1569203103	-0.4676477079	 0.101482
H	 2.4612332092	-2.5543264048	-2.4668894813	 0.100496
H	 0.8767051578	-2.1590749397	-1.7496865305	 0.100621
