16
gdb 67981	3.19097	1.73332	1.28825	1.8754	70.	-0.2515	0.0076	0.2591	962.2099	0.124503	-437.835634	-437.828708	-437.827764	-437.866676	27.964	
C	 0.0341545046	 1.4919969341	-0.1119616527	-0.506759
C	 0.0371231445	-0.0017305436	-0.0124916016	 0.409011
O	 0.438028795	-0.6526459111	-1.2232973155	-0.291709
C	 0.3678112309	-1.9972799555	-0.9049551501	 0.421412
N	 0.6332633091	-2.9620725744	-1.6677835176	-0.550062
C	-0.0860294074	-2.0091471886	 0.5202769641	-0.163235
C	 0.6090193392	-0.7895384243	 1.2111436092	 0.009333
O	-0.5905411841	-0.4799065321	 1.992239788	-0.31831
C	-1.1032124101	-0.8292910853	 0.6655845646	 0.009325
H	 1.0331090308	 1.8655016137	-0.3546286293	 0.136622
H	-0.6548176723	 1.826291791	-0.8929002006	 0.136625
H	-0.2811316823	 1.9106822422	 0.8462618605	 0.149768
H	 0.9191095612	-2.624769839	-2.5894796276	 0.227446
H	-0.2300316652	-2.9498458761	 1.040770844	 0.111651
H	 1.5795505652	-0.7358689564	 1.7038663618	 0.109442
H	-2.1811534192	-0.8231834945	 0.5056080227	 0.109442
