18
gdb 35997	4.51277	0.57015	0.5397	4.1209	85.01	-0.2664	0.0209	0.2873	2027.4021	0.146717	-364.784011	-364.774407	-364.773463	-364.820995	33.543	
N	 0.0391699321	-0.4905012934	 1.6517995286	-0.302641
C	 0.0683064358	 0.3368632432	 0.8470061117	 0.278847
C	 0.0887835114	 1.3873451127	-0.1807187247	-0.471628
C	 1.406594575	 1.9926769552	-0.3555953252	 0.073442
C	 2.4934244071	 2.4861708192	-0.5017892426	 0.105391
C	 3.8050339837	 3.107229392	-0.6693214038	-0.379148
C	 3.8814977814	 4.5140317205	-0.093237971	 0.040667
C	 4.1767644929	 4.7172284658	 1.3684366512	-0.24759
C	 5.213731444	 5.0750635455	 0.3305475029	-0.277572
H	-0.2648491224	 0.9479766566	-1.1225848788	 0.179397
H	-0.6522901236	 2.1482535428	 0.0969174371	 0.179859
H	 4.5640286559	 2.476609053	-0.1878319623	 0.132482
H	 4.0629411789	 3.1275090261	-1.7366719871	 0.132978
H	 3.182702802	 5.2116792186	-0.545103897	 0.092863
H	 3.669400439	 5.5204869688	 1.8905345472	 0.115411
H	 4.3508523962	 3.835347165	 1.9762865172	 0.118818
H	 6.0856455556	 4.4345438297	 0.2436987456	 0.113078
H	 5.4150722949	 6.123070279	 0.1391010911	 0.115346
