19
gdb 92322	2.26917	1.73054	1.07815	1.1491	79.25	-0.228	0.005	0.233	1132.0158	0.15907	-422.998982	-422.990515	-422.989571	-423.031947	32.296	
C	-0.2126566191	 1.4039372587	-0.0875061878	-0.502196
C	-0.0998478044	-0.0715527699	 0.124259464	 0.138919
C	-1.0439399226	-0.9772850459	 0.3733993372	 0.063253
C	-2.4400786989	-1.3490042518	-0.091538029	 0.06994
O	-3.1805115097	-0.4420921854	-0.8597635499	-0.422994
C	-1.7356801043	-2.5909812075	-0.7767453958	-0.301084
C	-0.5123245509	-2.3609700437	 0.1786622124	 0.096575
O	 0.817398	-2.215952219	-0.2910576677	-0.279318
C	 1.2005605694	-0.8464120356	-0.0808148039	-0.14708
H	 0.2410230466	 1.7100280111	-1.0389570695	 0.123275
H	-1.2582678563	 1.7216755262	-0.0783235454	 0.139349
H	 0.3125557545	 1.9604261556	 0.6993457713	 0.135458
H	-3.1045464859	-1.6736814233	 0.7144841345	 0.105565
H	-2.6103358167	-0.1327661397	-1.5725241622	 0.280562
H	-2.2559164377	-3.5503898327	-0.7264444094	 0.104713
H	-1.4666254692	-2.356237573	-1.8098983443	 0.107346
H	-0.5394658275	-3.039253648	 1.0418915397	 0.078644
H	 1.739522572	-0.4868140449	-0.9687674097	 0.106489
H	 1.8946343805	-0.7740374913	 0.7728746157	 0.102584
