20
gdb 58536	2.09793	1.43284	1.38092	2.8507	73.93	-0.2421	0.0072	0.2494	1115.8536	0.170272	-440.308548	-440.29892	-440.297975	-440.342824	35.781	
C	-0.0198589234	 1.5869081363	-0.032049398	-0.418158
C	 0.0151453304	 0.0492202267	 0.0136041888	 0.000929
C	 0.8495465273	-0.4141138172	 1.2185042944	-0.419768
C	-1.4113465518	-0.5428747292	 0.0063277773	 0.11056
N	-2.1711653971	-0.0576438304	-1.1363577298	-0.561961
C	-1.5369420988	-2.0727196607	 0.2006820078	-0.120845
O	-2.1496814475	-1.8770139746	 1.5152432488	-0.248512
C	-2.1170500026	-0.5090609984	 1.3879660855	 0.421636
O	-2.5480309785	 0.30116365	 2.1465209519	-0.340847
H	 0.9961870031	 1.9870826447	 0.0354080261	 0.118229
H	-0.4500252601	 1.9621983768	-0.9646855939	 0.11975
H	-0.5957008247	 1.9900209078	 0.8077717923	 0.142952
H	 0.4910065017	-0.3120784623	-0.9073949215	 0.089366
H	 0.4298506511	-0.0400536606	 2.1583851594	 0.141001
H	 0.9239078505	-1.5025585485	 1.2925963227	 0.118453
H	 1.8678103453	-0.0235900862	 1.1345430838	 0.11865
H	-3.1066526095	-0.4551009384	-1.1328874815	 0.235656
H	-2.2927205166	 0.9481196523	-1.0738752667	 0.245047
H	-2.2338869107	-2.5619384265	-0.4840055469	 0.121183
H	-0.6152710481	-2.6496604416	 0.2795626892	 0.126677
