18
gdb 93206	2.57612	1.44543	1.06411	2.1891	75.46	-0.2479	-0.0373	0.2106	1152.714	0.148674	-439.136108	-439.127383	-439.126439	-439.169437	32.726	
C	 0.0144454307	 1.502000168	-0.0638435674	-0.470148
C	-0.0304535835	 0.0042033106	 0.0199156978	 0.220028
C	-1.1566309902	-0.7196448443	-0.0330655369	-0.210203
C	-1.1547023653	-2.228133775	-0.0121916818	 0.089902
O	-1.284166794	-2.7519595516	-1.3322800063	-0.429543
C	 0.0896896087	-2.7490133188	 0.7095531934	-0.196384
N	 1.27100297	-2.0393211245	 0.2442326446	-0.342367
C	 1.3049082309	-0.6733502429	 0.1059370908	 0.338607
O	 2.3524597688	-0.05642802	 0.0032998212	-0.368973
H	 0.6317776459	 1.8214877871	-0.9088692958	 0.147575
H	-0.9886578629	 1.9216153361	-0.1702827692	 0.114914
H	 0.4831957618	 1.9261851802	 0.8302876983	 0.141325
H	-2.1167578274	-0.2291192048	-0.1740563131	 0.102643
H	-2.0362768312	-2.5991657041	 0.5199490683	 0.096997
H	-0.5601563496	-2.385716102	-1.853502142	 0.285751
H	-0.0496943229	-2.6306261997	 1.7954992454	 0.108582
H	 0.2048933139	-3.8149907447	 0.4963078085	 0.122392
H	 2.1783188963	-2.4559994397	 0.3959121141	 0.248903
