18
gdb 10826	4.34477	1.49868	1.19211	2.9697	68.39	-0.2306	-0.0202	0.2104	1015.7092	0.153885	-384.971179	-384.963394	-384.96245	-385.003293	29.321	
C	-0.0732649714	 1.5382345082	 0.0684737181	-0.40364
C	 0.0074844453	 0.0216254155	-0.016767831	 0.145386
C	 0.7031080101	-0.4770949223	-1.2870603244	-0.205394
C	 0.8196255299	-2.0111454068	-1.284006802	-0.322905
C	 1.3037367777	-2.557224941	 0.0502178773	 0.380047
O	 2.0172205581	-3.5264340734	 0.1515210075	-0.299201
C	 0.7605127823	-1.8254897405	 1.2789415266	-0.175102
O	 0.7324040388	-0.4197653143	 1.1295263881	-0.255823
H	 0.9301267132	 1.97433735	 0.0439987717	 0.127588
H	-0.6488770738	 1.9411048241	-0.7699340303	 0.116262
H	-0.5553703563	 1.8412965439	 1.0013180567	 0.126881
H	-1.0132543408	-0.4022405618	 0.0225116829	 0.061366
H	 0.1572929865	-0.1408816675	-2.175498252	 0.102193
H	 1.7020158322	-0.026517161	-1.3283999057	 0.113637
H	-0.1772021176	-2.4487225837	-1.4460946741	 0.12552
H	 1.4676000703	-2.3906554406	-2.0778817879	 0.125591
H	-0.2538801851	-2.2200942509	 1.4803590361	 0.103832
H	 1.3916837208	-2.0559941183	 2.1394986523	 0.133762
