21
gdb 30683	3.61254	0.99138	0.82973	3.2625	84.83	-0.2161	0.0367	0.2529	1440.554	0.183843	-383.321984	-383.312707	-383.311763	-383.3565	34.666	
C	 0.004102753	 1.5639277532	 0.2319757469	-0.392592
C	-0.0236646216	 0.0409476423	 0.0755595111	-0.160517
C	-1.4351601762	-0.5577853742	-0.1265248295	-0.073815
C	-2.0794133094	-0.1212581291	-1.4482725139	-0.403479
C	-1.3855499615	-2.0556273442	 0.0033849019	 0.289334
C	-1.6798453406	-3.0253490245	-0.9227550918	-0.194695
N	-1.4567186875	-4.2294017586	-0.286607532	-0.240163
C	-1.0440892838	-3.9427371091	 0.9785655517	 0.008292
N	-0.9893947516	-2.6495426384	 1.1877623987	-0.307425
H	 1.0210091365	 1.9148545046	 0.4348737199	 0.109386
H	-0.3451242775	 2.0810570549	-0.6675986266	 0.11191
H	-0.6290502174	 1.8859867593	 1.0668026932	 0.113018
H	 0.6106290571	-0.2601021234	-0.7693875205	 0.085288
H	 0.4086734673	-0.4249476756	 0.9666674176	 0.119431
H	-2.0598563932	-0.1867004618	 0.699120703	 0.083694
H	-1.4719300239	-0.4375489493	-2.3046175639	 0.110259
H	-3.0778025578	-0.5549849542	-1.5639913989	 0.11159
H	-2.182667024	 0.9654907559	-1.4996523991	 0.114183
H	-2.0199812058	-2.9810122312	-1.9432022802	 0.125567
H	-1.583733562	-5.1446326158	-0.6839041454	 0.26403
H	-0.8031202602	-4.7138556208	 1.6954920976	 0.126704
