20
gdb 116546	2.76346	0.96779	0.84599	2.1983	82.38	-0.2221	-0.0029	0.2193	1465.9226	0.170318	-436.493442	-436.482968	-436.482024	-436.529591	36.628	
C	 0.3009697956	 1.3299977843	 0.1869202558	-0.367113
C	 0.3803657021	-0.1954627193	 0.0290376963	-0.152236
N	-0.8845334347	-0.8455436825	 0.3095531786	-0.30987
C	-1.7296507905	-1.0337938293	-0.6320347539	 0.418035
N	-1.6583895205	-0.6173571471	-1.9357169344	-0.321059
C	-2.1870850459	-1.3620872182	-3.0760685135	-0.342393
N	-2.8778778255	-1.7838276089	-0.2577744731	-0.331534
C	-4.2014116558	-1.5649153582	-0.557170963	 0.154792
O	-4.6482632317	-0.8433016067	-1.4177475466	-0.299694
H	 1.2854557282	 1.7877584501	 0.0455718519	 0.110007
H	-0.3901414978	 1.77204378	-0.538671612	 0.116392
H	-0.0614096855	 1.5861703038	 1.1863874559	 0.130459
H	 0.7732522506	-0.4426045384	-0.9747984412	 0.071111
H	 1.1168325646	-0.5849721923	 0.741334161	 0.102712
H	-0.8151693613	-0.1019471093	-2.1300888691	 0.249478
H	-3.2765307529	-1.3647581976	-3.0515551586	 0.175923
H	-1.867471026	-0.8487647549	-3.9856260281	 0.127376
H	-1.8144638732	-2.3941320997	-3.1149640411	 0.11809
H	-2.7072555033	-2.2521578354	 0.6221391886	 0.26139
H	-4.8463427166	-2.1775449802	 0.1033885165	 0.088135
