19
gdb 111864	2.49711	1.55878	1.24949	1.6101	71.68	-0.2189	0.0779	0.2968	1093.4632	0.157741	-460.121813	-460.112822	-460.111878	-460.155524	32.728	
C	 0.2270969112	 0.8617642754	 0.4940709213	-0.238216
O	-0.4262431122	-0.1135694504	-0.3049805561	-0.239049
C	 0.3696336428	-0.5788384143	-1.3378927057	 0.003728
C	 1.4705533644	-1.6039516893	-1.0673309099	-0.035364
O	 1.446697729	-2.2437919388	 0.1809782187	-0.266891
C	 0.1708302597	-2.8565685085	 0.3328002024	 0.031252
O	-0.4515105493	-2.9012508525	-0.9371036545	-0.291826
C	 0.2233968158	-2.0182086892	-1.8004308299	 0.346244
C	 0.0966027216	-2.4033036301	-3.245424625	-0.468952
H	 1.1294310013	 0.4505918057	 0.9631791984	 0.128354
H	 0.5039628199	 1.7447941851	-0.1003355529	 0.107502
H	-0.4815146086	 1.1647242814	 1.2681145403	 0.128809
H	 0.5864658598	 0.1493426695	-2.1251752871	 0.084609
H	 2.4657726354	-1.5346850528	-1.491546078	 0.105664
H	 0.3044756898	-3.8801280701	 0.7053779719	 0.108384
H	-0.4402413774	-2.2675778318	 1.0271890183	 0.109548
H	-0.9512521056	-2.3723499293	-3.561131568	 0.135892
H	 0.6628503837	-1.7150929124	-3.8785956429	 0.120425
H	 0.4751745987	-3.4173685375	-3.4063967514	 0.129887
