26
gdb 5851	2.6994	1.34623	1.17417	0.0397	88.01	-0.2933	0.0754	0.3687	1243.3438	0.244084	-315.488437	-315.477545	-315.476601	-315.523304	41.335	
C	 0.0657441067	 1.5760575368	 0.1502609499	-0.389385
C	 0.0078920496	 0.0851430133	-0.2043646778	-0.183259
C	-1.4056110284	-0.5325248362	-0.0902528592	 0.059497
C	-2.2733030588	-0.0723772367	-1.2755303516	-0.417999
C	-1.3921491946	-2.0883890529	 0.1072095983	 0.26592
C	-0.7935527039	-2.4299790801	 1.4875915118	-0.410814
C	-2.8323509795	-2.6402379858	 0.0826174986	-0.41171
C	-0.5701767583	-2.7992598004	-0.9855579108	-0.406877
H	 1.0857635439	 1.961851746	 0.0540579152	 0.109494
H	-0.5739295153	 2.1820811006	-0.4990366997	 0.11661
H	-0.257261941	 1.7464328735	 1.1834712543	 0.113026
H	 0.3836844466	-0.0587950595	-1.2255565503	 0.093534
H	 0.7064266267	-0.4456221997	 0.450273294	 0.093109
H	-1.8639843635	-0.1230191163	 0.8229536458	 0.06021
H	-1.9424926017	-0.5270619584	-2.2160866426	 0.113239
H	-3.3286498095	-0.3184239279	-1.137215612	 0.113872
H	-2.2116000879	 1.0124096329	-1.4024549323	 0.111113
H	-1.3738014792	-1.9658470696	 2.2930148647	 0.106181
H	-0.8055492867	-3.5129125558	 1.6522819955	 0.106087
H	 0.2438177246	-2.0992109246	 1.5896519629	 0.111285
H	-3.2893437378	-2.557290746	-0.9072423505	 0.111413
H	-2.837618938	-3.7007131494	 0.357203681	 0.104422
H	-3.474339083	-2.1106396727	 0.7961274573	 0.105274
H	 0.4838634895	-2.5073509244	-0.9574155907	 0.110596
H	-0.613553619	-3.8853231549	-0.8476718019	 0.105817
H	-0.9516902516	-2.5836242716	-1.9888025397	 0.109345
