22
gdb 60492	4.22475	0.62863	0.57256	4.1687	81.89	-0.2469	0.036	0.2829	1963.2732	0.192105	-441.514038	-441.503089	-441.502144	-441.55203	38.182	
C	-0.1160909474	 1.4937128241	-0.0697009532	-0.388804
C	-0.0862333996	-0.0288201421	-0.1379279947	 0.15919
C	 0.9479716098	-0.6287504277	 0.818239836	-0.393449
O	-1.4086939815	-0.4710572973	 0.1659673622	-0.269557
C	-1.7032645847	-1.8096252135	-0.1849735406	-0.072105
C	-3.2017074653	-2.005458142	-0.0021644243	-0.163145
N	-3.9509873517	-1.0651238541	-0.8139119422	-0.267551
C	-4.9466374343	-1.4338417992	-1.6588995129	 0.156266
O	-5.3560813576	-2.5662581619	-1.8123118177	-0.328049
H	 0.8615326102	 1.9112871949	-0.3271242178	 0.117179
H	-0.8587569138	 1.8952596631	-0.7645695487	 0.115446
H	-0.3774746913	 1.8234532608	 0.9408510472	 0.12496
H	 0.1579050051	-0.3391754797	-1.1680309312	 0.068282
H	 0.976892239	-1.7201294598	 0.7546505388	 0.118988
H	 1.9488627048	-0.2576444846	 0.5766102847	 0.118131
H	 0.7153469497	-0.3498471618	 1.8510238605	 0.123727
H	-1.4202347658	-2.0013643977	-1.2325525822	 0.09696
H	-1.1611040875	-2.5263117961	 0.4496308686	 0.096006
H	-3.5016181134	-3.0102662221	-0.3066706702	 0.146615
H	-3.4532596372	-1.8793850875	 1.05874019	 0.117189
H	-3.6551693306	-0.1022995	-0.7821031509	 0.253042
H	-5.3592904071	-0.5638141756	-2.2080020613	 0.070678
