17
gdb 16003	4.04521	1.91666	1.55195	2.1632	68.9	-0.2394	0.0286	0.268	851.1643	0.14409	-363.864273	-363.857496	-363.856552	-363.895098	26.655	
C	 0.0052871974	 1.53402501	 0.0170713133	-0.315776
C	 1.3092813546	 0.7574862811	-0.0585135676	-0.338317
C	 0.0116033647	 0.0302398502	 0.0546333364	 0.469714
C	-0.4086702212	-0.7404137018	 1.281347857	-0.302054
C	-1.9181672651	-1.0013086432	 1.1942052674	-0.153187
N	-2.3285286387	-1.5052795886	-0.1137812005	-0.265969
C	-1.5691854808	-1.2855989351	-1.0990611785	 0.11738
O	-0.3917604081	-0.6081427344	-1.151528523	-0.264144
H	-0.2299505936	 2.0704442766	 0.930497124	 0.116583
H	-0.3455160542	 2.0040537171	-0.8940886925	 0.126503
H	 1.8080555618	 0.7183985146	-1.0201163437	 0.128997
H	 1.9705058549	 0.7605071738	 0.8011962466	 0.118585
H	 0.1305554022	-1.6951593427	 1.3130412055	 0.113688
H	-0.1485100123	-0.1839810847	 2.1868723877	 0.103343
H	-2.2301759647	-1.728090809	 1.9519838204	 0.109357
H	-2.4763776387	-0.0789125908	 1.403146624	 0.113346
H	-1.8108399981	-1.667944613	-2.0890073567	 0.121951
