19
gdb 40228	2.10872	2.03319	1.2695	2.9053	74.66	-0.2439	0.0464	0.2903	1030.6518	0.160963	-419.144641	-419.136713	-419.135769	-419.17772	30.617	
C	-0.3312698039	 1.476659635	 0.1171448941	-0.288657
N	 1.0530602627	 1.0058213547	-0.0978967601	-0.363623
C	-0.0349341275	 0.0304309999	-0.0292658716	 0.236316
C	-0.090279166	-0.9462444381	 1.1532757498	-0.131874
O	-0.6367285267	-2.1625913978	 0.6526749278	-0.258707
C	-1.3219536827	-1.8853418569	-0.5634476167	-0.146101
C	-0.5045564671	-0.7883503001	-1.2134729685	 0.261441
C	-0.6847407584	-0.2611189271	-2.5788655226	-0.315045
N	 0.4161505001	-1.2016321596	-2.2854428411	-0.344977
H	-0.5193918311	 1.8899311893	 1.1052744198	 0.122154
H	-0.844931813	 1.9856478197	-0.693774546	 0.115408
H	 1.3317954411	 1.1725113432	-1.0644564462	 0.222877
H	 0.9078467186	-1.1498214017	 1.5528349801	 0.123887
H	-0.7163262738	-0.5465546406	 1.964828815	 0.095052
H	-1.3480747212	-2.7975010388	-1.1628001752	 0.124329
H	-2.3533781457	-1.544995903	-0.3695038922	 0.087809
H	-1.4671800834	-0.6546431097	-3.222510419	 0.126135
H	-0.4442047087	 0.7845361294	-2.763601311	 0.105918
H	 1.2990743167	-0.6991103579	-2.2132329064	 0.227658
