13
gdb 49125	3.52934	1.25235	0.92435	3.7333	72.74	-0.2611	-0.1117	0.1494	1152.3809	0.089773	-452.804929	-452.797286	-452.796342	-452.837584	27.525	
N	-0.1359213334	 1.2992863186	 0.0110088837	-0.514453
C	-0.0043896874	 0.0328737741	 0.0032654289	 0.416885
N	 1.1331881436	-0.7687015685	-0.0071054042	-0.415958
C	 0.8255418372	-2.1359706858	-0.0130735447	 0.379401
O	 1.6261010693	-3.0322244094	-0.0224023109	-0.31834
C	-0.6843840083	-2.1774785261	-0.005649721	 0.087082
C	-1.5234123063	-3.3905405167	-0.0081756302	 0.090088
O	-1.1104827722	-4.5222886462	-0.0164999701	-0.232718
C	-1.1408661557	-0.9131928951	 0.0038019626	-0.227196
H	 0.7669475529	 1.7782232401	 0.0090281653	 0.227732
H	 2.0834451822	-0.4340731203	-0.0102462424	 0.268159
H	-2.6139563942	-3.1673668641	-0.0015028812	 0.084247
H	-2.1669539476	-0.5708374905	 0.0109610442	 0.15507
