15
gdb 131551	3.1159	1.58116	1.09688	2.7165	67.07	-0.2287	-0.0084	0.2203	1030.4949	0.115182	-453.923926	-453.916852	-453.915908	-453.955548	27.402	
O	 0.1932189529	 1.3474489414	 0.3626075754	-0.416673
C	 0.0640161449	-0.0281646147	 0.0672156124	-0.021129
C	-1.4321538102	-0.474331549	-0.1577410199	-0.195
N	-1.3949938503	-1.513947965	-1.207320887	-0.400891
C	-0.2211854599	-1.3379928851	-1.9090641346	 0.436309
N	 0.2267499245	-1.794164698	-3.0493285308	-0.280749
O	 1.5383826682	-1.2430376241	-3.1164988536	-0.184378
C	 1.7774998464	-0.5025313072	-2.0165876931	-0.075866
C	 0.6946832008	-0.5096270171	-1.207311804	 0.102098
H	 0.0008872034	 1.8383342968	-0.4447025565	 0.279563
H	 0.4788000066	-0.5398333831	 0.9420790812	 0.118598
H	-1.8901578672	-0.8595173416	 0.7563979427	 0.123415
H	-1.9991224955	 0.412929816	-0.4761729093	 0.104731
H	-2.2425371492	-1.6965139762	-1.7242608662	 0.254205
H	 2.7500895244	-0.0363162932	-1.9754257967	 0.155769
