16
gdb 104960	2.54144	1.36317	1.05535	4.021	70.6	-0.2919	-0.095	0.1969	1156.9998	0.121684	-437.884834	-437.875597	-437.874653	-437.919393	32.448	
C	-0.3014561217	 1.133968817	 0.7028805561	-0.391583
C	 0.3128724861	-0.2085546924	 0.2863234687	-0.269182
C	 0.734762856	-0.2323484777	-1.1661666769	 0.292991
C	 0.4554771093	-1.3945537648	-2.0464425356	-0.230711
O	-0.3034644786	-0.201472398	-2.1552217809	-0.247186
C	 1.9270528414	 0.6076531213	-1.5275689338	 0.266756
O	 2.7018649656	 1.0619913852	-0.7238666559	-0.276995
C	 2.120254116	 0.8582358667	-2.9742231026	 0.243872
N	 2.3315896735	 1.0575583084	-4.093167153	-0.312203
H	 0.4245663061	 1.9467183421	 0.6154868659	 0.139407
H	-1.1666881614	 1.373503067	 0.0780680227	 0.136328
H	-0.6338398435	 1.0929681622	 1.7435163552	 0.123942
H	 1.1911264174	-0.4306997244	 0.9009739243	 0.128826
H	-0.4090477525	-1.0161317432	 0.4425023985	 0.111493
H	 1.0995552255	-1.6184527808	-2.8946755012	 0.145726
H	-0.0554423892	-2.2451725186	-1.5986183416	 0.13852
