16
gdb 54232	2.33256	1.51852	1.29855	1.5564	64.59	-0.2602	-0.0098	0.2503	1035.9103	0.123773	-475.086693	-475.077865	-475.07692	-475.120466	31.907	
C	-0.1027129916	 1.572083174	-0.1537141155	-0.454488
C	-0.0243156232	 0.044903239	-0.0539781855	-0.002569
C	 0.8732796516	-0.6733597691	-1.0790635327	-0.115199
O	 1.7791573049	-1.0917314216	 0.0068223153	-0.243157
C	 1.0004512825	-0.493291414	 0.9492417326	 0.448915
O	 1.1370178247	-0.4882877448	 2.1354360572	-0.35158
C	-1.4305615776	-0.5509450295	 0.0974961928	 0.353234
N	-1.8542997787	-0.6341302319	 1.3855700348	-0.525401
O	-2.0953504727	-0.8608837357	-0.870450997	-0.366559
H	 0.8900519011	 2.0064245255	-0.3033477358	 0.133089
H	-0.7403303483	 1.8543395853	-0.9962380456	 0.149828
H	-0.5291087681	 1.9947651831	 0.759686022	 0.14421
H	 0.4290905801	-1.5372646104	-1.5723987779	 0.151352
H	 1.4004001565	-0.0353669171	-1.7897353028	 0.128448
H	-1.2054364205	-0.5189667837	 2.1501585075	 0.282941
H	-2.7564967908	-1.0456919591	 1.5633016506	 0.266935
