18
gdb 19571	3.7576	2.04881	1.8898	1.7025	70.96	-0.2542	0.0955	0.3497	798.7689	0.156246	-347.772932	-347.766583	-347.765638	-347.803063	26.098	
C	 0.0492398089	 1.4777680174	 0.0096977824	-0.310065
O	 1.2284186446	 0.6414218468	-0.0066354116	-0.303107
C	-0.0396296139	 0.0253406248	 0.0026709184	 0.548416
C	-0.5818108909	-0.9648502161	 1.0416380035	-0.126029
C	-1.7360962952	-1.1781816256	 0.013056691	-0.230001
C	-0.6025602214	-0.9535301428	-1.0359874925	-0.126029
C	 0.3045094259	-2.1808305021	-0.797580925	-0.211414
C	 0.3201817657	-2.1893822815	 0.7718051455	-0.211414
H	-0.1082736707	 2.0333741545	 0.9334150722	 0.115985
H	-0.126627851	 2.0433891686	-0.9045809329	 0.115985
H	-0.7672388653	-0.6822361984	 2.0773473422	 0.065578
H	-2.2299474555	-2.1531498926	 0.0126765458	 0.094035
H	-2.4738617767	-0.3733879307	 0.0248100343	 0.100341
H	-0.8086056725	-0.6596684124	-2.0646460841	 0.065578
H	-0.1212701451	-3.0946393867	-1.2208977277	 0.095223
H	 1.3015725664	-2.0387046529	-1.2216606692	 0.110848
H	 1.3255305358	-2.0517772298	 1.1774121139	 0.110848
H	-0.097158559	-3.1077960105	 1.1935579937	 0.095223
