18
gdb 37690	3.25913	2.19341	1.77443	1.5843	78.42	-0.2188	0.0095	0.2283	823.6484	0.152562	-364.765478	-364.759897	-364.758952	-364.794922	25.399	
C	-0.0282465299	 1.5096181047	 0.0850368647	-0.163633
C	 1.5165257798	 1.3683880824	-0.0051361574	-0.076372
C	 1.7815819555	 0.655886619	 1.327435911	-0.081605
C	 2.0386654577	-0.8612055816	 1.2676208423	-0.09508
C	 2.549659714	-1.4742081097	 0.0345566366	-0.069948
C	 2.0963124311	-0.95533962	-1.1083461123	-0.10374
C	 1.1589148414	 0.1757860636	-0.9579929327	-0.026583
N	-0.0539808039	-0.0142356157	 0.0043847037	-0.15547
C	 0.6216951166	-0.30507997	 1.2920856437	-0.03041
H	-0.4587579235	 1.9187585228	 1.0029852508	 0.098872
H	-0.505075445	 1.94980982	-0.7950478378	 0.10165
H	 2.1939745156	 2.1702899469	-0.3045576688	 0.061957
H	 2.0997768787	 1.2169213287	 2.1971635233	 0.091386
H	 2.3610357028	-1.2929291129	 2.2097067771	 0.084709
H	 3.2428102173	-2.3065621757	 0.0882996903	 0.09729
H	 2.3778510474	-1.313496862	-2.0913484013	 0.093819
H	 0.7574697044	 0.5283311686	-1.9082807984	 0.077695
H	-0.0372163598	-0.5325603893	 2.1202453452	 0.095461
