20
gdb 26101	3.10633	1.21537	1.08208	1.1199	79.78	-0.2393	0.0068	0.2461	1209.6061	0.170516	-403.19368	-403.184668	-403.183724	-403.227174	34.328	
C	-0.2613283419	 1.5084879262	-0.1452823007	-0.403058
C	 0.0151745567	-0.0017635491	 0.017855683	 0.142231
C	 0.8576507413	-0.2435082615	 1.2814654684	-0.417936
C	-1.3263113122	-0.7577515237	 0.1312088805	-0.403054
C	 0.7509708147	-0.4963504294	-1.2017030812	 0.279127
C	 1.9674897331	-1.083315485	-1.3247319457	-0.147971
O	 2.1918954623	-1.3505538019	-2.6501728373	-0.144772
C	 1.0780510049	-0.9019459485	-3.2668812303	 0.068812
N	 0.192989135	-0.3898287121	-2.4801144251	-0.309041
H	 0.6738167266	 2.0752502021	-0.2003211425	 0.109941
H	-0.8277794494	 1.6997311336	-1.0601127433	 0.134994
H	-0.8383552619	 1.8846334009	 0.7062928858	 0.105864
H	 0.3229313336	 0.115741177	 2.1662177532	 0.113283
H	 1.0639845082	-1.3092530845	 1.4266383748	 0.112706
H	 1.8143129884	 0.287330264	 1.2318128126	 0.112709
H	-1.9206705632	-0.6258064366	-0.7763628994	 0.134986
H	-1.1615714119	-1.8304110899	 0.2761384403	 0.109943
H	-1.9041530125	-0.3833967443	 0.98302177	 0.105868
H	 2.7492664874	-1.3677975091	-0.6435487342	 0.14609
H	 1.0383138509	-1.0140252283	-4.3392330587	 0.149278
