21
gdb 76150	2.07186	1.419	1.17378	0.6824	86.26	-0.2265	0.0535	0.28	1203.5409	0.178169	-387.050008	-387.039196	-387.038252	-387.084709	40.587	
C	-0.0436948744	 1.5345755887	-0.0024293493	-0.450946
C	 0.0089501089	 0.0167682709	-0.0027396045	 0.24274
C	-1.2309455032	-0.6249647483	-0.5985903216	-0.456811
C	 1.3217648494	-0.6663927794	-0.2309176794	 0.022356
O	 2.4341136967	 0.1381792732	-0.4763367689	-0.419129
C	 0.7067994102	-0.7009492832	 1.1822082525	 0.026702
C	 1.3703509893	 0.1146576587	 2.2861388544	-0.475826
C	 0.1694746343	-1.9574822603	 1.6279976529	 0.289721
C	-0.2589211909	-3.010065527	 2.027105899	-0.459934
H	 0.9027447681	 1.9909051187	 0.2850139811	 0.134635
H	-0.2870979559	 1.8938917802	-1.0085604877	 0.118928
H	-0.8270723736	 1.893977014	 0.6739990469	 0.115439
H	-1.3612676425	-0.3012581327	-1.6375611938	 0.113507
H	-1.1778502785	-1.7151738716	-0.581230431	 0.129088
H	-2.1266351944	-0.3291732398	-0.0406327712	 0.118592
H	 1.306012367	-1.6067421221	-0.7815697178	 0.092466
H	 3.2183965556	-0.3333409961	-0.17527069	 0.292187
H	 2.0074496996	 0.8967080775	 1.8711611279	 0.130139
H	 0.6243199518	 0.5794169736	 2.9379814092	 0.126338
H	 1.9927926305	-0.5364265321	 2.9073896928	 0.122637
H	-0.642753318	-3.9360906927	 2.3761910786	 0.18717
