24
gdb 100536	2.67672	1.01312	0.8832	3.3344	87.15	-0.2306	0.0328	0.2634	1497.0559	0.215199	-405.589494	-405.57787	-405.576926	-405.627108	40.927	
C	-0.1146006387	 1.5884752493	-0.0082307912	-0.377446
C	 0.0510322842	 0.0660252543	-0.0183591332	-0.156505
N	 0.7541539011	-0.4326543378	-1.2012845368	-0.09047
C	 2.1974810601	-0.2526091205	-1.2453798593	-0.34392
C	 0.0017012496	-0.8925902935	-2.2552521904	 0.419181
O	-1.2179535168	-0.9531777346	-2.1920871272	-0.39865
C	 0.7388749774	-1.3821489017	-3.5102425328	-0.088317
C	 1.0217627815	-2.8901459038	-3.3606458245	-0.383912
C	-0.1127008378	-1.0998249603	-4.7537532977	-0.380746
H	 0.8520031218	 2.1023935848	-0.0391572331	 0.111638
H	-0.7054277954	 1.912442205	-0.8696979381	 0.136513
H	-0.6334134328	 1.9073578056	 0.9014627565	 0.117795
H	 0.604176199	-0.2622083745	 0.8699379184	 0.096109
H	-0.9274495152	-0.4142817449	-0.0093865099	 0.146011
H	 2.6954288994	-1.1050814033	-1.7113936685	 0.140371
H	 2.5022905818	 0.6590427397	-1.7768525448	 0.127395
H	 2.5705256812	-0.17900435	-0.2204493127	 0.129486
H	 1.6923925485	-0.8567697322	-3.618679997	 0.076252
H	 0.0818618488	-3.4351311797	-3.2293598322	 0.136509
H	 1.5213868962	-3.2778982511	-4.2538501763	 0.114819
H	 1.6574582985	-3.1066021064	-2.4957991781	 0.113141
H	-0.2635529067	-0.0256208633	-4.897190775	 0.1124
H	 0.3772269248	-1.4980868028	-5.6479600164	 0.101062
H	-1.0970189806	-1.5610263481	-4.6505577499	 0.141283
