19
gdb 61268	4.75273	0.80578	0.77126	1.9617	77.22	-0.2491	0.0417	0.2908	1492.699	0.156952	-422.960436	-422.950693	-422.949749	-422.995938	34.854	
O	-0.3865605503	 1.3135460859	 0.1171749972	-0.416297
C	-0.0577012336	-0.061874538	 0.0354005672	 0.09476
C	 0.7258753928	-0.3963166257	-1.255094665	-0.396995
C	 0.0282256482	-0.0147938588	-2.4752377767	 0.30989
C	-0.5554458958	 0.2924067017	-3.4793714601	-0.429932
C	 0.6877772515	-0.5594147361	 1.2767416577	-0.039397
C	 1.9591560454	 0.2019629019	 1.7243321288	-0.087622
O	 1.3719587881	 0.5387459986	 2.9907772447	-0.268004
C	 0.1293429839	-0.1133505112	 2.6463728781	-0.097074
H	 0.4207831761	 1.8314802681	 0.026571368	 0.286383
H	-1.0269847211	-0.5726253565	-0.0119089687	 0.105121
H	 1.7053684214	 0.1026723077	-1.215944354	 0.124895
H	 0.9377679886	-1.4731931152	-1.2698235165	 0.133386
H	-1.0713969296	 0.5676822305	-4.3655280641	 0.196801
H	 0.8409162843	-1.6392107192	 1.1982297747	 0.082206
H	 2.8680553777	-0.4020899253	 1.8338365348	 0.104462
H	 2.214377241	 1.0988192266	 1.1390743798	 0.079405
H	-0.7004683514	 0.5991143909	 2.5860458091	 0.119239
H	-0.1196891874	-0.915772426	 3.3504460451	 0.098773
