19
gdb 68997	2.86548	1.32892	1.19904	1.9813	76.58	-0.2313	0.064	0.2953	1133.2318	0.157974	-422.961549	-422.95304	-422.952096	-422.99485	32.109	
C	 0.224325307	 1.552604231	 0.0450304547	-0.490635
C	 0.1078189543	 0.0573305231	 0.0383999068	 0.198692
C	-0.9265053676	-0.7277233597	 0.8248438707	-0.397193
C	 0.5338797298	-1.0116930456	 1.0352087545	 0.455151
O	 1.008203798	-1.8870934088	 0.0076315843	-0.326815
C	 0.7212754827	-0.8784650668	-0.9998375722	-0.12764
C	 1.2602993187	-0.9837893413	 2.3212267007	-0.060775
C	 2.2223610222	-2.0391535269	 2.6708808986	-0.173798
O	 2.6719634024	-0.7465214987	 2.2652172789	-0.236971
H	 1.2466660777	 1.87300689	-0.1822540375	 0.130013
H	-0.4441294957	 2.0061263331	-0.6969089069	 0.123213
H	-0.0450864879	 1.9657499393	 1.0221006715	 0.122467
H	-1.4168436954	-0.1582691737	 1.6096024996	 0.114454
H	-1.5447001999	-1.4853352215	 0.3497457624	 0.1136
H	 0.0713605204	-1.2622231124	-1.7953095092	 0.102293
H	 1.6527480055	-0.4935027176	-1.4308715442	 0.112557
H	 0.7472497423	-0.4567880377	 3.1257859124	 0.09461
H	 2.3860222604	-2.2898478025	 3.7182045166	 0.112044
H	 2.4032771247	-2.8365498235	 1.9540879985	 0.134733
