16
gdb 124937	2.32673	1.86205	1.04771	1.9227	75.16	-0.2525	-0.0726	0.1798	1093.2532	0.123923	-434.091867	-434.083231	-434.082287	-434.126259	30.591	
C	 0.0595962079	 1.4881234864	-0.0301206773	-0.48013
C	-0.0180473196	-0.0122463433	-0.0158370154	 0.289098
C	-1.2065277453	-0.6873367809	 0.0065719275	 0.082524
C	-2.5516299111	-0.0233202703	 0.0195442486	-0.508151
C	-1.1646180069	-2.1392780787	 0.018199362	 0.427194
O	-2.1019265188	-2.9163109509	 0.0389543716	-0.383142
N	 0.1551659436	-2.6133421681	 0.0051274408	-0.279063
N	 1.2941008683	-1.9118740852	-0.0167989863	-0.045275
N	 1.2197818916	-0.6410785515	-0.0273552671	-0.26618
H	 1.1032845827	 1.8027229241	-0.0530935909	 0.153205
H	-0.4560611775	 1.901872678	-0.9037705935	 0.14175
H	-0.4211063199	 1.9165816858	 0.8563812124	 0.141981
H	-2.6959921117	 0.6014464996	-0.8693484568	 0.139668
H	-3.3330664377	-0.7835305472	 0.0451734733	 0.165418
H	-2.6649857756	 0.6305319129	 0.891709084	 0.139312
H	 0.2851370401	-3.6176767905	 0.012634467	 0.281791
