24
gdb 119144	2.2111	1.00742	0.86839	2.3011	85.19	-0.2375	0.0747	0.3121	1524.4878	0.215816	-405.526894	-405.515944	-405.515	-405.563074	40.351	
C	-3.0203675766	 1.4500204621	-0.6653003876	-0.383116
C	-2.982194529	-0.0800367573	-0.602100007	-0.18911
C	-1.7459096285	-0.5992880426	 0.1423628808	-0.271551
C	-1.5182133269	-2.1062664463	 0.1572270929	 0.321854
C	-2.620711106	-3.0573618375	-0.1331711741	-0.283995
N	-1.516736116	-2.8775520602	-1.0998480051	-0.354154
C	-0.4215461846	-2.5897572556	 1.1119113446	 0.10024
C	 0.9705664667	-2.0872737364	 0.7319597499	-0.427338
O	-0.7463793622	-2.2850887909	 2.4674948007	-0.438695
H	-3.915233278	 1.8041050648	-1.1859785631	 0.114312
H	-3.0249633234	 1.8859695166	 0.3397632622	 0.117011
H	-2.1467667473	 1.8473381941	-1.1937018596	 0.115919
H	-3.8898325006	-0.4445868502	-0.1080818013	 0.108889
H	-3.0060591791	-0.4791733063	-1.6252430147	 0.092184
H	-0.8546611891	-0.1174722127	-0.2841036738	 0.099669
H	-1.8053820008	-0.2607506279	 1.1849443634	 0.096565
H	-2.6417325072	-4.023890591	 0.3635194183	 0.115154
H	-3.5994802447	-2.6672680063	-0.3928995253	 0.109011
H	-1.8332150077	-2.2954470938	-1.8719052964	 0.224641
H	-0.4179238772	-3.6836569696	 1.0540303595	 0.090337
H	 1.0437000957	-0.996358258	 0.8220171394	 0.104603
H	 1.7238336358	-2.5308943172	 1.3890763955	 0.121268
H	 1.2018498928	-2.3586188413	-0.3016790995	 0.137479
H	-0.4110644359	-1.4047181366	 2.6632322305	 0.278823
