23
gdb 62881	3.01007	1.46708	1.14897	0.0735	90.98	-0.2616	0.098	0.3596	1169.9771	0.205313	-351.084402	-351.075593	-351.074649	-351.117112	35.785	
C	-0.1059357061	 1.5641469912	-0.0038762032	-0.471861
C	-0.0294205056	 0.0323553295	 0.0034657125	 0.374935
C	-1.4517477046	-0.4917747252	-0.217679241	-0.46811
C	 1.158300382	-0.6682256312	-0.7711313808	-0.170971
C	 2.1285000471	-0.1472421709	 0.3364129638	-0.238301
C	 0.8696951467	-0.6736850012	 1.0964226956	-0.171055
C	 0.9721790228	-1.8917331223	 0.1526296038	 0.471885
C	 0.2709616856	-3.1995713275	 0.0399111222	-0.377601
C	 1.7769955541	-3.1425126112	 0.2728843683	-0.381175
H	 0.8463922519	 2.0729400838	 0.1442391954	 0.113627
H	-0.5192433097	 1.9130541688	-0.9574161907	 0.112536
H	-0.7872934362	 1.9080542152	 0.7830734126	 0.112539
H	-1.8482213594	-0.1158357519	-1.1684184896	 0.108283
H	-1.522585858	-1.5772890195	-0.2319775696	 0.127771
H	-2.1167004499	-0.1211529348	 0.5715531945	 0.108292
H	 1.3289520624	-0.6767108403	-1.8504535247	 0.061704
H	 3.0389563427	-0.7327312871	 0.4753965775	 0.094554
H	 2.3424151212	 0.9189238001	 0.372632815	 0.089007
H	 0.7065522584	-0.6883888966	 2.1768387536	 0.061704
H	-0.3552398279	-3.5319819317	 0.8628865944	 0.111658
H	-0.0773981522	-3.5258485648	-0.9358448595	 0.111661
H	 2.4250468774	-3.43099651	-0.5494048598	 0.109461
H	 2.1466134873	-3.4370800422	 1.2506233996	 0.109457
