18
gdb 34933	2.74382	1.52315	1.22371	4.166	79.98	-0.2664	0.0333	0.2998	1062.2593	0.148476	-364.783071	-364.775315	-364.774371	-364.815319	30.408	
N	 0.076559998	-1.1623153068	 0.0473261936	-0.356779
C	 0.0827830668	-0.005279675	 0.0441422005	 0.307842
C	 0.0844053118	 1.4342250224	 0.0500088773	-0.188457
C	 0.5023162643	 2.2470057977	 1.2610021485	-0.06327
C	 1.6208460089	 1.5423614405	 2.0446027272	-0.330212
C	 2.4737846793	 1.5617259383	 0.7547419466	 0.382844
C	 3.9318877681	 1.8983538905	 0.6663868979	-0.349915
C	 3.4362298724	 0.5342349028	 0.2393783993	-0.306602
C	 1.3596809641	 2.2604268663	 0.0018128879	-0.14592
H	-0.7415809607	 1.8692294224	-0.5050700107	 0.132718
H	-0.1594236064	 3.0119986764	 1.6470809628	 0.103555
H	 2.0372180416	 2.1771196677	 2.8304314822	 0.113355
H	 1.3699010308	 0.5634216531	 2.4632497654	 0.123758
H	 4.2502547231	 2.5917477004	-0.1058301005	 0.115011
H	 4.4926450522	 1.9766626551	 1.5924062372	 0.115469
H	 3.6560580983	-0.314478093	 0.8779156485	 0.124936
H	 3.4193448089	 0.3010119895	-0.8198397895	 0.121026
H	 1.4765082187	 3.0328411919	-0.7495634442	 0.10064
