15
gdb 124418	3.37556	1.20621	0.94377	2.139	70.39	-0.271	-0.0162	0.2548	1183.6058	0.114133	-413.006183	-412.998117	-412.997173	-413.039788	28.814	
C	-0.1926469167	 1.5483529012	 0.0243872828	-0.390192
C	 0.1196886414	 0.0341132058	-0.0189648119	-0.257956
C	 0.851946669	-0.3180712281	-1.2402246923	 0.285682
N	 1.445010472	-0.5861189323	-2.1950462971	-0.331279
C	 0.881248211	-0.4207011154	 1.1986211514	 0.325213
C	 2.1468995791	-0.9407940623	 1.3266668638	-0.156958
N	 2.274542685	-1.14231633	 2.6585600388	-0.160424
N	 1.1661351395	-0.7759243374	 3.3256610557	-0.105953
N	 0.3205015052	-0.3379977904	 2.4399182527	-0.253583
H	 0.7312055645	 2.1316333929	 0.0113173703	 0.137989
H	-0.8045974631	 1.8392843211	-0.8326232423	 0.135617
H	-0.7342318009	 1.7684808891	 0.9461521738	 0.156066
H	-0.833802137	-0.5086290909	-0.0436352991	 0.151412
H	 2.9178199131	-1.1753746642	 0.6128713217	 0.17524
H	 3.0572175779	-1.5175548593	 3.1707558817	 0.289126
