20
gdb 114184	3.04109	1.10325	0.90993	2.443	81.95	-0.2312	-0.0215	0.2097	1357.6112	0.16989	-403.135601	-403.126363	-403.125418	-403.170056	34.272	
C	-0.022233378	 1.7234607053	-0.2572216568	-0.386467
C	-0.3218484563	 0.2230746377	-0.2937098601	-0.164315
C	 0.7001886581	-0.5583687471	-1.1120704695	-0.08958
N	 2.0743475985	-0.6404522852	-0.5010828816	-0.393424
C	 2.0400819277	-2.1148901242	-0.533421367	 0.24129
C	 3.1441305629	-3.0679224345	-0.9173221848	-0.327077
C	 2.62541607	-3.0487451732	 0.494315062	-0.295367
C	 0.6303109712	-2.0987511483	-1.0451887034	 0.321978
O	-0.2040416448	-2.9266670976	-1.275504602	-0.318186
H	 0.9709902924	 1.9048313428	 0.1648471311	 0.130136
H	-0.0486005986	 2.1592882568	-1.2625659456	 0.109892
H	-0.7536200392	 2.2570791272	 0.3571232349	 0.115595
H	-0.3330208289	-0.1783946444	 0.7261457099	 0.104897
H	-1.314235679	 0.0364299759	-0.7217419129	 0.110554
H	 0.7090615084	-0.2036478867	-2.1525587636	 0.094764
H	 2.7859338471	-0.2603200424	-1.1172599255	 0.221586
H	 2.8827001796	-3.9000146065	-1.5627135429	 0.136276
H	 4.1209375212	-2.6327433277	-1.1044485919	 0.123145
H	 3.2441132388	-2.5907132899	 1.2581527222	 0.129553
H	 1.998646009	-3.868787518	 0.8285394275	 0.13475
