16
gdb 76936	2.24233	1.2213	0.99765	2.808	72.57	-0.263	-0.0472	0.2158	1226.156	0.121542	-437.887503	-437.878098	-437.877154	-437.92188	33.459	
C	-0.0391490966	 1.5751357702	 0.1497378699	-0.421594
C	 0.0289547317	 0.0695033025	 0.006905465	-0.070187
C	 0.6477037343	-0.635013575	-1.2017164343	-0.197811
C	 1.2957225389	 0.1233482527	-2.3036923445	 0.153723
O	 1.2117564204	-0.2056181563	-3.4617748676	-0.257862
C	 1.3261347398	-0.6625095398	 0.1881510831	 0.220433
O	 2.448354349	 0.1314198858	 0.4108011994	-0.442181
C	 1.3289090871	-1.9304205422	 0.8869175756	 0.257044
N	 1.3550317196	-2.9488037633	 1.4345564111	-0.331424
H	 0.9049120926	 2.0577527748	-0.1035440562	 0.148489
H	-0.8253739385	 1.9833548628	-0.4922958144	 0.137192
H	-0.2781663795	 1.8371657797	 1.1845827857	 0.140037
H	-0.8363392105	-0.4568557345	 0.3976439123	 0.130527
H	 0.1710147074	-1.5520612118	-1.5297624372	 0.133086
H	 1.8733542815	 1.0184957218	-1.9994482581	 0.093771
H	 3.2310102327	-0.3443821974	 0.10818379	 0.306756
