17
gdb 30554	3.99484	0.93141	0.88185	1.9028	79.36	-0.2181	0.0162	0.2343	1383.987	0.136066	-418.027835	-418.019132	-418.018188	-418.06258	31.158	
C	-0.2285132587	 1.4230713054	-0.5262189018	-0.310666
N	-0.045579558	 0.0046594184	-0.3144610294	-0.194621
C	-0.9342040101	-0.6096016412	 0.3408367916	 0.073637
N	-0.9035171181	-1.9741230198	 0.5785551452	-0.4356
C	 0.18655959	-2.7796401697	 0.2661888096	 0.423659
C	 0.3787593247	-3.7283090247	-0.6876003666	-0.240666
C	 1.7029005435	-4.2361271754	-0.4914411559	-0.171869
C	 2.2116713465	-3.5519913374	 0.5668868379	-0.005505
O	 1.3052216259	-2.6663004057	 1.0478910643	-0.157225
H	 0.6277277983	 1.9739354205	-0.1187003596	 0.122956
H	-0.2599906108	 1.6393806475	-1.6010508947	 0.122028
H	-1.1470862724	 1.8286651031	-0.0685351554	 0.089527
H	-1.8310425029	-0.1352202109	 0.7675035936	 0.077884
H	-1.5677268262	-2.3214527649	 1.2527233187	 0.252634
H	-0.3358530606	-4.016083768	-1.4418670984	 0.110742
H	 2.2047483534	-4.9994094592	-1.0648878011	 0.110048
H	 3.1608818257	-3.5735988981	 1.0766798021	 0.133037
