18
gdb 106018	2.85265	1.59449	1.20689	2.0718	75.66	-0.2334	-0.0067	0.2268	1066.148	0.147559	-401.904321	-401.896362	-401.895417	-401.936957	30.396	
C	-0.558106998	 1.3634189021	 0.1326938465	-0.391884
C	 0.3451199444	 0.141282773	-0.0804456571	-0.308521
C	 0.8674874083	-0.4277714951	 1.2032183584	 0.213122
C	 2.045461917	-0.0361026792	 2.0756754357	-0.093463
C	 1.4828952824	-0.9765254826	 3.2110751889	-0.210219
C	 2.1082712831	-2.1188820611	 2.3988066865	-0.160664
N	 2.1552383194	-1.2081672885	 1.1914333684	-0.181148
C	 0.1403315179	-0.7814739268	 2.4736825141	 0.401757
O	-1.0030407091	-0.7001316368	 2.8269565966	-0.338664
H	-0.0080200946	 2.1822978893	 0.6079601413	 0.114237
H	-0.9434097118	 1.7280463947	-0.8236694009	 0.116031
H	-1.4074554584	 1.112472895	 0.7732538684	 0.149501
H	-0.2105248659	-0.6454117214	-0.6058051113	 0.117978
H	 1.1981073889	 0.3917973997	-0.7202286709	 0.117506
H	 2.6600550819	 0.8531648504	 2.0528955407	 0.120115
H	 1.5512141488	-0.8678003267	 4.2899002698	 0.098098
H	 3.1373116698	-2.3566834584	 2.6775598171	 0.121433
H	 1.5288260358	-3.0399564076	 2.2695643678	 0.114785
