23
gdb 87784	3.84861	0.97072	0.90848	0.1292	91.4	-0.2489	0.0873	0.3362	1421.6541	0.205198	-351.121204	-351.11206	-351.111116	-351.15573	35.831	
C	 0.1894522079	 1.4948688541	-0.3852942998	-0.403866
C	 0.1664889079	 0.0010475903	-0.1517609198	-0.049574
C	 1.4563831886	-0.7694353744	 0.0276861212	-0.352062
C	 0.5193852997	-0.5828115612	 1.1877886636	 0.375358
C	 0.8073800986	 0.1804306068	 2.4945818362	-0.383488
C	 0.0706789773	-0.9416390863	 3.2481055405	 0.387809
C	 0.4675253186	-1.549592197	 4.5602565491	-0.317568
C	-0.8333563531	-0.7874104365	 4.4345181434	-0.319395
C	-0.2366724445	-1.6926123338	 1.9403044836	-0.384423
H	 0.9979772006	 1.9709042908	 0.1791436647	 0.115825
H	 0.3448876881	 1.7280138683	-1.444578482	 0.115272
H	-0.7511778256	 1.9649493621	-0.0757015465	 0.113982
H	-0.6202318288	-0.5257924011	-0.6888669199	 0.077855
H	 1.5388567434	-1.7585243038	-0.4130025759	 0.105
H	 2.385030644	-0.2047110122	 0.0305410761	 0.104088
H	 1.8679640918	 0.28742907	 2.7460845799	 0.095409
H	 0.3335779847	 1.1657150199	 2.5665402614	 0.096295
H	 0.4199712373	-2.6298183952	 4.6588042835	 0.108499
H	 1.2792720148	-1.0869826701	 5.1134301003	 0.108401
H	-0.9006250925	 0.1896551847	 4.9033952442	 0.10817
H	-1.7604271207	-1.3525105039	 4.4486307811	 0.108302
H	-1.3017497687	-1.7697691073	 1.6944860148	 0.094378
H	 0.2105180506	-2.6898046043	 1.8645706904	 0.095731
