19
gdb 89808	3.19929	1.35117	1.13181	1.905	74.55	-0.2502	0.0778	0.328	1118.8022	0.160042	-423.001769	-422.993925	-422.992981	-423.034038	31.315	
O	 0.0151915061	 1.4221067181	-0.0921612622	-0.441294
C	 0.0167542994	 0.007811204	-0.0901647071	 0.134386
C	 0.7930543772	-0.6238125393	 1.1025943837	-0.35154
C	 0.0734501366	-1.9342657621	 1.417591658	 0.362917
C	 0.7243159654	-3.2835138019	 1.2180397945	-0.317166
C	 0.4075045585	-2.7899067074	 2.6083572651	-0.318065
C	-1.3341578835	-1.7393352814	 0.936897275	-0.029121
O	-1.9138273033	-0.4835159216	 1.3395413494	-0.279308
C	-1.3715070978	-0.605389893	 0.01070729	-0.008887
H	-0.485947559	 1.6976601903	 0.6849504606	 0.286934
H	 0.4677875262	-0.2856410477	-1.0450013554	 0.093022
H	 1.8531436624	-0.7602871421	 0.8763617951	 0.104978
H	 0.7236089401	 0.060548348	 1.9542401383	 0.109707
H	 0.1231340842	-4.0917014771	 0.8129628405	 0.112855
H	 1.7619433636	-3.300707246	 0.9016132386	 0.115536
H	 1.2322204034	-2.4741436925	 3.2387333577	 0.11633
H	-0.4072750208	-3.2623156004	 3.1472615061	 0.116368
H	-2.0276740066	-2.5754144691	 0.8829014118	 0.094701
H	-2.0872866622	-0.5039002389	-0.8007561899	 0.097647
