16
gdb 33590	3.97525	1.51463	1.37218	2.112	79.05	-0.2299	0.0203	0.2502	953.9816	0.12522	-363.49222	-363.48566	-363.484716	-363.522944	27.201	
C	-0.0169048324	-1.1065146059	-0.0476261451	-0.336464
C	-0.0073562604	 0.0952028073	 0.0161395749	 0.035016
C	 0.0472251855	 1.5102237222	 0.0987324301	 0.307011
C	-0.9247449031	 2.3952324184	 0.8249963983	-0.090771
C	-0.0647150669	 3.6507884286	 1.0675390773	-0.081286
C	 1.3670595166	 3.1594105097	 1.4026916522	-0.25366
C	 1.2838318239	 2.4425239965	 0.032986302	-0.141591
C	 0.2352493538	 3.488012045	-0.4591607142	 0.018761
N	-0.8742521324	 2.4479977665	-0.6688429493	-0.21522
H	-0.0354276713	-2.1662514917	-0.1093215065	 0.181532
H	-1.7909877182	 2.0223927024	 1.3573654949	 0.108014
H	-0.5229603642	 4.5254248332	 1.5236698449	 0.082016
H	 2.0892473923	 3.981799645	 1.3830479254	 0.105678
H	 1.5151369113	 2.55196298	 2.3000890119	 0.106016
H	 2.1504604657	 2.1107601914	-0.533147897	 0.086951
H	 0.3944994197	 4.2785057114	-1.1878399899	 0.087998
