16
gdb 54804	2.49658	1.66436	1.12929	1.4328	69.37	-0.2425	-0.0245	0.218	1052.9421	0.124345	-437.910841	-437.902761	-437.901817	-437.94397	30.385	
N	-0.0252765821	 1.2481733621	 0.3365209661	-0.522955
C	 0.141222064	-0.0335533819	-0.103197867	 0.378737
O	 1.1854849137	-0.4800770602	-0.5327195361	-0.361822
C	-1.1443006248	-0.8472564737	-0.0181026962	-0.247902
C	-1.0803545328	-2.376486902	 0.0564213163	-0.043896
C	-0.3814746768	-2.791591593	 1.2940511795	-0.273477
C	-1.8469163838	-2.3658038261	 1.4135914488	-0.174977
C	-1.9161822198	-0.877778838	 1.3309241374	 0.408782
O	-2.4460150893	-0.0039324352	 1.9629216973	-0.337703
H	 0.7959282712	 1.8268379907	 0.4157254084	 0.260791
H	-0.8395801744	 1.4880602983	 0.8835716901	 0.274684
H	-1.8449278306	-0.491167287	-0.7822390735	 0.134654
H	-1.2623064514	-3.0423749381	-0.7751226889	 0.113762
H	-0.2355832401	-3.8578502924	 1.4318209147	 0.132348
H	 0.4096135838	-2.1783244338	 1.7125455404	 0.141661
H	-2.5978238369	-3.0338872698	 1.8147150528	 0.117313
