20
gdb 70334	2.22185	2.06168	1.37991	1.4189	77.74	-0.2205	0.0743	0.2948	1014.9207	0.170674	-403.120387	-403.112189	-403.111245	-403.152392	32.891	
C	 0.1622479056	 1.5247265872	 0.1066473017	-0.488538
C	 0.0158416714	 0.0250352996	 0.0057093641	 0.263485
C	-0.7282247777	-0.7667702996	 1.0241934129	-0.282393
N	 0.7423187949	-0.8037367511	 0.9987580936	-0.148553
C	 1.359626252	-1.9491051305	 0.2945802854	-0.199245
C	 0.9848674689	-1.8482619938	-1.1731347015	-0.028711
O	-0.4244493783	-1.955776674	-1.4191503365	-0.294972
C	 0.1616961476	-0.6398432436	-1.3638723107	 0.364086
C	 0.0825639903	 0.1629397128	-2.6339033883	-0.501492
H	 1.1075384533	 1.868423479	-0.3277368762	 0.118843
H	-0.6550228715	 2.0410163863	-0.4087253299	 0.118472
H	 0.1503018028	 1.8274461058	 1.156206489	 0.130915
H	-1.143488401	-0.2618517659	 1.893687452	 0.104406
H	-1.2787828914	-1.6345012523	 0.6781748768	 0.131347
H	 2.4481475127	-1.8726617512	 0.4033125071	 0.109992
H	 1.0446136533	-2.8983156805	 0.7407863538	 0.11827
H	 1.6293021214	-2.2675052279	-1.944903673	 0.092503
H	-0.9087367776	 0.6143599029	-2.748585412	 0.131603
H	 0.8219075076	 0.9692343504	-2.6430914498	 0.12785
H	 0.2610217058	-0.4845890136	-3.4953665584	 0.132132
