16
gdb 35668	4.51787	1.01208	0.95138	4.2018	74.58	-0.2787	0.007	0.2858	1225.75	0.124064	-400.727875	-400.719495	-400.718551	-400.761631	30.692	
C	 0.2119300398	-1.1952189567	 0.0900060122	-0.473372
C	 0.057721618	-0.0041169587	 0.0522849339	 0.353062
C	-0.1446199369	 1.4452429073	 0.0168262722	-0.060326
C	-0.7749032679	 1.9941368728	 1.3135376762	-0.246987
C	 0.4657581189	 2.2763698577	 2.1684089573	-0.247815
C	 1.4602730839	 2.784228914	 1.1051192434	-0.016998
O	 1.1247729227	 2.1224821859	-0.1107406667	-0.258296
C	 1.365060281	 4.2479849636	 0.9197198088	 0.275331
N	 1.2855962082	 5.393190195	 0.788294458	-0.320807
H	 0.3503477296	-2.2482477258	 0.1122230046	 0.207365
H	-0.7382031089	 1.7081050579	-0.8648715878	 0.124901
H	-1.3111949234	 2.9221238753	 1.0952529732	 0.131624
H	-1.4668654998	 1.2867609848	 1.7709033453	 0.130171
H	 0.2968515854	 2.9990656415	 2.9675063109	 0.134966
H	 0.8532264696	 1.3514255295	 2.6034167779	 0.131895
H	 2.49805755	 2.5432948961	 1.3582309706	 0.135285
