18
gdb 27160	2.8703	1.40962	0.99867	1.3128	79.84	-0.1799	0.0415	0.2214	1172.8495	0.150443	-398.12729	-398.118903	-398.117959	-398.160351	32.12	
N	-0.0531364915	 1.3866086027	-0.1798998534	-0.609377
C	-0.0155455211	-0.0173298575	-0.0866778508	 0.178731
C	-1.0974579786	-0.8746446482	 0.0343787849	 0.223044
N	-0.5776078418	-2.1499261595	 0.2218378073	-0.298316
C	 0.7847576982	-2.1106158059	 0.1913823538	-0.084027
C	 1.1702550344	-0.8024921259	 0.0042182718	-0.205601
C	-2.5509243525	-0.6295806559	 0.0482951408	-0.149789
C	-3.1849783341	 0.2034584507	-1.0112469443	-0.234272
N	-3.4225801427	-1.2464603588	-0.9901192979	-0.318404
H	 0.621731485	 1.7499790301	-0.84138556	 0.2383
H	-0.9737008209	 1.7326187029	-0.4180371858	 0.236085
H	-1.1371000584	-2.9755391797	 0.3428575105	 0.261457
H	 1.3728768533	-3.0077663145	 0.3001066469	 0.115676
H	 2.1847596775	-0.4375901058	-0.0483836943	 0.086712
H	-3.0414425129	-0.6272706068	 1.0218617925	 0.100688
H	-4.0502079165	 0.8136320101	-0.7686990031	 0.119626
H	-2.5449385627	 0.6066999938	-1.7911855424	 0.111066
H	-2.8221967147	-1.6776712817	-1.6905431264	 0.2284
