19
gdb 72185	3.04641	2.009	1.6079	1.7176	77.04	-0.2315	0.0809	0.3124	900.5491	0.161286	-385.858247	-385.85161	-385.850665	-385.888722	28.444	
C	 0.0208730848	 1.4662769098	-0.0467956212	-0.492723
C	-0.0444719154	-0.0341261104	 0.0012757222	 0.472183
O	 0.1718676125	-0.6724581391	-1.278656928	-0.347764
C	-0.7312401006	-1.7425863947	-0.8810494537	 0.077439
C	 0.0947541997	-2.8559446814	-0.2400933038	-0.228585
C	 0.4569549688	-2.2473957244	 1.1083766541	-0.069784
C	-0.6615796529	-1.3869607609	 1.6206542349	-0.091718
C	 0.6603899889	-0.7420780326	 1.1902163441	-0.12742
C	-1.2997521341	-0.8835470044	 0.3059294008	-0.161364
H	 1.0373917593	 1.7932187877	-0.2937016073	 0.127612
H	-0.6598348559	 1.8565619165	-0.8086230996	 0.123436
H	-0.2481643441	 1.8940347202	 0.9241295822	 0.121523
H	-1.3853815646	-2.0439821966	-1.7019278056	 0.072466
H	-0.4977838469	-3.7680960216	-0.0959823901	 0.092883
H	 0.9584096558	-3.0953819913	-0.8671901727	 0.11039
H	 1.0301991748	-2.8286576179	 1.8231173144	 0.084756
H	-1.122700547	-1.4532004934	 2.5966413856	 0.086299
H	 1.4471734109	-0.3160945982	 1.8026990977	 0.077797
H	-2.312510404	-0.4907199373	 0.2610821159	 0.072575
