18
gdb 79028	4.69577	1.37147	1.30789	3.3062	74.59	-0.2253	0.0665	0.2918	1012.0426	0.149088	-401.842597	-401.835901	-401.834957	-401.873362	27.759	
C	-0.1466487661	 1.5737833057	 0.0980289525	-0.435567
C	 0.0336811447	 0.0727413877	-0.0172466863	 0.08231
C	 0.8021822044	-0.6040599523	-1.1611215013	-0.102897
C	 2.1185865647	-0.1358583937	-0.4554987556	-0.044407
C	 3.1751620169	-1.2250920166	-0.6079973623	 0.023633
O	 3.3506982697	-2.0282847192	 0.5684667779	-0.233752
C	 2.368009973	-2.4212736481	-0.4008096219	 0.016222
C	 0.9969873814	-1.7990368979	-0.168786995	-0.032428
N	 1.2221363255	-0.5630498692	 0.7372474804	-0.14627
H	 0.7251881568	 2.1450534545	-0.228866203	 0.119408
H	-1.0008557032	 1.8936981472	-0.508350958	 0.120156
H	-0.3564302554	 1.844048089	 1.1381763439	 0.134066
H	-0.9001283199	-0.4290672712	 0.2635163911	 0.071637
H	 0.5724143592	-0.6347999761	-2.2337947011	 0.062679
H	 2.4333035248	 0.905284183	-0.4644091105	 0.080448
H	 4.0266829252	-1.1354361989	-1.2739423385	 0.102787
H	 2.5096147985	-3.3808085331	-0.8861240523	 0.103585
H	 0.1520421696	-2.4285569308	 0.11277369	 0.07839
