20
gdb 112539	2.54349	1.15612	1.00201	2.9091	76.17	-0.2419	-0.0284	0.2135	1290.1776	0.1689	-440.28309	-440.27311	-440.272166	-440.318216	36.363	
C	-0.6935643618	 1.5530232456	 0.0371154378	-0.41095
C	-0.1148454294	 0.1427923969	-0.0401163883	 0.194422
C	-1.1955620185	-0.9091241772	-0.3015338362	-0.439568
N	 1.0832735538	 0.0360755354	-0.9490629253	-0.38441
C	 1.9742174212	-0.4678602974	 0.1416339033	-0.11861
C	 3.2156006172	 0.4146969256	 0.3106689125	-0.053503
O	 3.9058047989	 0.5185726031	-0.9162852188	-0.418519
C	 0.8179840823	-0.2498561434	 1.1274775533	 0.350189
O	 0.6881519168	-0.3229471485	 2.3134779429	-0.302009
H	 0.0980013495	 2.2927004	 0.1803064829	 0.124179
H	-1.2238773443	 1.7991961483	-0.8890101703	 0.12003
H	-1.3978875027	 1.6295092269	 0.8713180612	 0.130818
H	-1.6813502595	-0.7196650081	-1.2655584249	 0.125221
H	-0.7779485124	-1.9212092019	-0.3192819196	 0.119732
H	-1.9627357212	-0.8738861988	 0.4774107887	 0.140833
H	 0.9436570156	-0.6468484113	-1.6859241981	 0.223263
H	 2.2725009199	-1.5184376192	 0.0365446968	 0.102564
H	 2.9143126505	 1.4047684291	 0.6873814413	 0.08916
H	 3.9011942818	-0.0265659875	 1.0399229818	 0.120556
H	 3.2477347923	 0.8374767524	-1.5485294712	 0.286601
