14
gdb 48225	2.72297	1.35825	0.95808	3.0763	75.06	-0.2671	-0.0727	0.1944	1160.6603	0.101477	-429.052984	-429.044292	-429.043347	-429.086985	30.285	
N	 0.080141656	 1.2495522108	-0.4345954956	-0.43218
C	 0.0625199463	 0.0447210702	-0.0507761659	 0.087873
N	-1.1463215412	-0.6710565243	 0.0066455641	-0.123355
C	-1.1143953686	-2.0751040572	 0.1007279763	 0.10751
N	-0.0179062306	-2.7074741185	 0.0446156124	-0.461536
C	-2.3940109644	-0.0385901613	-0.0816781898	 0.314405
N	-3.4165693082	-0.6858121767	-0.48191564	-0.488674
C	-2.4968032158	 1.3296814564	 0.3911407638	 0.267889
N	-2.7871910396	 2.3707032782	 0.8029972506	-0.33234
H	 1.0199329586	 1.6365146511	-0.377594589	 0.246586
H	 0.9048718394	-0.5776813995	 0.248270455	 0.159322
H	-2.1127613366	-2.4921197086	 0.2260966937	 0.152572
H	-0.1780426098	-3.7038707705	 0.1761338711	 0.243996
H	-4.2591739055	-0.1189015701	-0.4068540766	 0.257929
