20
gdb 60852	2.1862	1.34494	1.11559	3.7799	76.26	-0.2428	0.0196	0.2624	1204.0765	0.168243	-440.288438	-440.278197	-440.277253	-440.323567	37.057	
C	 0.0706380247	 0.579809124	 0.8442223878	-0.350833
N	-0.4439786704	-0.5447107906	 0.0715028534	-0.100581
C	-1.5408224447	-1.2301399102	 0.5398571108	 0.13482
O	-2.0610734872	-1.061111261	 1.6217605461	-0.339244
C	-0.046377569	-0.7006379528	-1.3066201266	 0.251352
C	-0.8217500803	 0.1271431629	-2.314295949	-0.442751
C	 1.4411260291	-0.9403354282	-1.5480848597	-0.38247
C	 0.4673795564	-2.074544688	-1.7017060066	 0.111828
O	 0.4519382092	-3.1542288574	-0.8244598929	-0.421358
H	 1.1583341331	 0.5172119481	 0.9419771116	 0.123805
H	-0.1785455508	 1.536710643	 0.3704588698	 0.127366
H	-0.3914769983	 0.5422462073	 1.8304113398	 0.16855
H	-1.8874626786	-1.986493405	-0.1866347345	 0.098992
H	-0.7030169345	 1.1995969174	-2.1224853044	 0.12505
H	-0.4685509181	-0.0669476767	-3.3314721847	 0.12209
H	-1.8906224111	-0.1080557515	-2.2759438861	 0.128766
H	 1.8953670145	-0.498577353	-2.4284929287	 0.12104
H	 2.0873175937	-0.9693122856	-0.6765993974	 0.119338
H	 0.2273262954	-2.41424701	-2.7037276844	 0.115076
H	 0.5694825468	-2.8180324027	 0.0712778959	 0.289164
