16
gdb 124329	4.03382	1.15433	0.90753	1.8507	73.57	-0.2716	-0.0524	0.2192	1247.7165	0.124149	-434.134052	-434.125461	-434.124517	-434.167863	30.208	
C	-0.107418708	 1.5021926069	-0.0380520235	-0.48594
C	 0.0412034219	 0.0056106246	-0.0020288007	 0.431728
O	 1.0826917516	-0.5993756676	 0.0109778788	-0.305619
N	-1.1801713865	-0.7187849424	 0.0173275864	-0.037039
C	-1.3369816821	-2.0749095357	 0.050326916	 0.035725
N	-2.6062433205	-2.3862208846	 0.0594638334	-0.310632
C	-3.2340609471	-1.1558839591	 0.0307081457	 0.358279
C	-4.7165936134	-1.0122644809	 0.0295510475	-0.480997
N	-2.4131176081	-0.1256892004	 0.00487302	-0.296853
H	 0.887207977	 1.9463454778	-0.0507681754	 0.148894
H	-0.6759204881	 1.8065403584	-0.9207943039	 0.165517
H	-0.672378864	 1.848971299	 0.8312249154	 0.165509
H	-0.4931578414	-2.7459855862	 0.0652739673	 0.174216
H	-5.1456152967	-1.4728399175	 0.924911638	 0.147248
H	-4.9960754395	 0.041760177	-0.0002379557	 0.142698
H	-5.1490299551	-1.5239463894	-0.8358475693	 0.147267
