16
gdb 131385	3.32593	1.36986	1.04307	2.8448	71.51	-0.2121	0.0208	0.2329	1107.7497	0.127104	-434.057961	-434.050203	-434.049259	-434.090455	29.468	
O	-1.0829306896	 0.8597539484	 0.3522574553	-0.437398
C	-0.3700288945	-0.2801301257	 0.1845985507	 0.329001
N	 0.0112055161	-0.6936123715	-1.0109295122	-0.324076
N	 0.6728697432	-1.848869254	-0.7523759596	-0.20336
C	 0.6996896272	-2.1524557542	 0.5655760226	-0.124234
C	 0.0298350348	-1.1457819042	 1.2363796702	 0.168747
C	-0.2153861639	-1.030422783	 2.6870591569	-0.115006
C	-0.2370561869	 0.2896742967	 3.3783115978	-0.248749
N	-1.483153664	-0.4730745909	 3.2090186922	-0.331417
H	-1.2350721381	 1.2351793675	-0.5242726818	 0.30646
H	 1.0625717752	-2.3682394902	-1.5183442238	 0.276946
H	 1.1840812129	-3.0427038882	 0.9357958503	 0.138481
H	 0.1343160567	-1.8870494552	 3.2589060888	 0.083038
H	 0.1224391272	 0.3645765768	 4.4012271795	 0.113523
H	-0.0890083158	 1.1768818665	 2.7704184541	 0.125222
H	-2.0080335505	-0.0713295289	 2.4350753889	 0.242822
