19
gdb 39986	4.01995	1.37523	1.27603	2.0583	78.65	-0.2263	0.0855	0.3118	1039.7021	0.160873	-385.816258	-385.80949	-385.808546	-385.847235	28.507	
C	-0.019191699	 1.5164505577	 0.002195353	-0.323416
C	 1.3039796745	 0.7850221654	 0.0131682886	-0.323415
C	 0.0131223957	 0.0124424839	 0.0125244158	 0.369365
C	-0.4676912078	-0.8394411485	 1.2075421523	-0.339735
C	-1.1036235191	-2.0012478805	 0.4491256337	-0.037684
C	-0.2584095737	-2.3314322976	-0.8187883504	 0.050902
O	-1.4660579416	-2.6872738888	-1.5754631919	-0.320224
C	-1.8166122909	-1.4700908617	-0.831707985	 0.050902
C	-0.4376551865	-0.8206247092	-1.1604830732	-0.109969
H	-0.3274730996	 2.0247967622	 0.9104160936	 0.110853
H	-0.3175379237	 2.0205674531	-0.9116908005	 0.111871
H	 1.9011292741	 0.7941277274	-0.8932869895	 0.111871
H	 1.886833841	 0.8007565171	 0.9287839365	 0.110853
H	 0.3561237707	-1.1676365838	 1.8506670488	 0.104202
H	-1.1918903917	-0.3119280354	 1.8378268624	 0.104202
H	-1.5650086399	-2.8278279089	 0.9881713073	 0.077686
H	 0.6193857762	-2.9703091929	-0.9238147565	 0.089007
H	-2.8230868448	-1.0673851928	-0.9523560881	 0.089007
H	-0.2448121441	-0.4870527867	-2.1798244169	 0.073723
