20
gdb 103190	3.10082	1.45671	1.37082	2.9026	77.65	-0.2365	0.0799	0.3164	1036.238	0.171624	-403.067825	-403.059868	-403.058924	-403.099898	32.127	
C	-0.0735196466	 1.6033994118	-0.0826792839	-0.464542
C	-0.0120883618	 0.0825671771	-0.111713308	 0.304592
C	-1.4090548013	-0.512779677	 0.1188045325	-0.089389
O	-1.8602301208	-0.2220448565	 1.4268333893	-0.427153
C	 0.7918900951	-0.6373008993	-1.1865546684	-0.128095
C	 2.2531915874	-0.6847747031	-0.6780626868	-0.108323
C	 2.2518238918	-0.0330473847	 0.6947265247	-0.184804
N	 0.8786071272	-0.622338897	 0.9357525713	-0.215754
C	 1.2216487314	-1.6482628595	-0.1731455471	-0.025981
H	 0.893024826	 2.0762089397	-0.2635575954	 0.115314
H	-0.7562354445	 1.9491957238	-0.866779822	 0.117829
H	-0.4714453017	 1.9465846637	 0.8763583154	 0.137074
H	-2.1337752404	-0.0762195028	-0.577019333	 0.09829
H	-1.3812453344	-1.5980063208	-0.0649945415	 0.081861
H	-1.1213900477	-0.4763802686	 1.9984522896	 0.286603
H	 0.5639250145	-0.7945235611	-2.2343492686	 0.089313
H	 3.0750577204	-0.8825688304	-1.355176526	 0.09479
H	 2.9597356208	-0.5170113752	 1.373157593	 0.110825
H	 2.3272300323	 1.0512863186	 0.8088056525	 0.104374
H	 1.1622172823	-2.7230043587	-0.0844608776	 0.103176
