11
gdb 33369	4.63417	0.52546	0.47332	4.6961	86.27	-0.3036	-0.0734	0.2302	2062.1638	0.065177	-377.236869	-377.22828	-377.227336	-377.271493	28.838	
N	-0.0918760959	-3.7657038212	-0.01727159	-0.323411
C	-0.0551435707	-2.6052881045	-0.0114018953	 0.225306
C	-0.0148339661	-1.2396272923	-0.0044663686	 0.044081
C	 0.0169327349	-0.0343932571	 0.0016905724	 0.122043
C	 0.0431839141	 1.4257782451	 0.0092663778	-0.530777
C	 1.3967809387	 1.9739995752	-0.0006933603	 0.12227
C	 2.5102299402	 2.4363849846	-0.0088231633	 0.043853
C	 3.7704476484	 2.9640861543	-0.0179942836	 0.225316
N	 4.8401599541	 3.4153111187	-0.0257618083	-0.323411
H	-0.5107708653	 1.8053154856	-0.8609466462	 0.197365
H	-0.4940488824	 1.7959104716	 0.8938955054	 0.197365
