20
gdb 99647	2.36064	1.17994	0.89353	3.3121	80.43	-0.2383	0.0241	0.2624	1365.8676	0.170093	-399.290535	-399.280466	-399.279522	-399.326047	35.83	
C	 0.2863185123	 1.4198917031	 0.5673322842	-0.331702
N	-0.0389581466	 0.0448285679	 0.1930292527	-0.275457
C	 0.3754861838	-0.3335247453	-1.1521628992	-0.139457
C	 1.8435385797	-0.2117820621	-1.3614735385	 0.271756
N	 2.9903952282	-0.1080995468	-1.4690217741	-0.333777
C	-0.0781069656	-1.7593421242	-1.4488835103	 0.015716
C	-1.4370035047	-1.9991056545	-2.0066230411	-0.256373
N	-0.2474019206	-2.2860188117	-2.7964802617	-0.078029
C	 0.033681051	-1.457357156	-3.9606109877	-0.324802
H	 1.3566908442	 1.6677132037	 0.4932518801	 0.127866
H	-0.267532813	 2.1104461973	-0.078176356	 0.127635
H	-0.0400993198	 1.5913674153	 1.5961215779	 0.129613
H	 0.3671269901	-0.6009877165	 0.8629651589	 0.230872
H	-0.1054397699	 0.359932675	-1.8504054079	 0.124554
H	 0.3424764489	-2.4839447967	-0.7515368671	 0.102123
H	-2.0259445636	-2.8554143307	-1.6894708375	 0.121939
H	-2.0221850085	-1.1148905386	-2.2608936649	 0.110666
H	-0.3442922749	-0.4244783809	-3.8924553044	 0.100017
H	 1.1138679297	-1.4212080923	-4.1289934374	 0.145804
H	-0.4335196509	-1.9219082461	-4.8340378059	 0.131036
