19
gdb 81178	2.64239	1.46977	1.17232	3.5722	76.75	-0.2378	0.019	0.2568	1106.3094	0.159628	-419.155771	-419.147084	-419.14614	-419.190015	32.222	
C	-0.1363126978	 1.5390934426	-0.2369802007	-0.439042
C	 0.0772520773	 0.0483464617	-0.0774703239	 0.056451
N	 1.3334397837	-0.6000280172	-0.7138136287	-0.150643
C	 2.1086909245	-0.067344495	 0.5048568765	-0.204125
C	 0.8066894451	-0.6036996985	 1.1365684926	 0.367734
C	 1.0096703232	-1.7992888941	 0.1942876574	-0.23331
N	 0.431024353	-0.6568444696	 2.5208972184	-0.431971
C	 0.4663596123	 0.4287250713	 3.3428818689	 0.133078
O	 0.7939547718	 1.545234116	 3.0023052223	-0.320003
H	-0.2094627597	 1.7889569424	-1.3008224525	 0.124686
H	-1.0809312241	 1.8205424573	 0.2390225018	 0.124693
H	 0.645265524	 2.1478069032	 0.2173458161	 0.145462
H	-0.8210123077	-0.4916545433	-0.3994769069	 0.06888
H	 3.0289037194	-0.6228351222	 0.7035973116	 0.10036
H	 2.2877188372	 1.0045471933	 0.4998955265	 0.125776
H	 0.1287300697	-2.3646635945	-0.1237684458	 0.101923
H	 1.8687419367	-2.4514565248	 0.3716951416	 0.103853
H	 0.1327664125	-1.5394017198	 2.9069058277	 0.247763
H	 0.1604720389	 0.1766861011	 4.3780920068	 0.078437
