17
gdb 25703	4.22773	0.79425	0.74196	0.4097	83.15	-0.2167	0.019	0.2357	1575.9956	0.135387	-384.696542	-384.687503	-384.686559	-384.733162	31.472	
C	 0.0392592533	 1.5318312665	 0.172928862	-0.495495
C	 0.0171912865	 0.0780874866	 0.0980467458	 0.051378
C	-0.0030587049	-1.1233511226	 0.0361387081	 0.086413
C	-0.0362237241	-2.5851400361	-0.0353889231	-0.463785
C	-1.4146161743	-3.1568246699	-0.1638445415	 0.380205
C	-2.0404599873	-3.8618085076	-1.1440150034	-0.274153
C	-3.3647628449	-4.1356090702	-0.6655557713	-0.168623
C	-3.4381486842	-3.5747809998	 0.5677743406	-0.018181
O	-2.2592610994	-2.9763893497	 0.8897311561	-0.170609
H	 0.6234970974	 1.9652532054	-0.6464187399	 0.145939
H	-0.9729834539	 1.9467165881	 0.1125405635	 0.149074
H	 0.4822060976	 1.876495391	 1.1139057916	 0.146686
H	 0.5473161177	-2.9321364439	-0.896077183	 0.140724
H	 0.4527845711	-3.0054985381	 0.8546204762	 0.142764
H	-1.6141665127	-4.1487048343	-2.0926598817	 0.107151
H	-4.1478836394	-4.6752705595	-1.1743658867	 0.109525
H	-4.2119963587	-3.5124241561	 1.3147458167	 0.130987
