15
gdb 47624	2.91791	1.39918	0.97464	5.7378	74.57	-0.2407	-0.0854	0.1553	1140.1988	0.114281	-416.840054	-416.832249	-416.831304	-416.872746	28.725	
O	 0.0346982705	-0.0400139699	 0.1006574456	-0.290785
C	-0.0037234962	 1.1627252864	-0.0104604802	 0.318363
C	-1.3097908927	 1.9531573592	-0.0900456723	-0.283346
N	-1.2269299428	 3.1831159533	-0.8743319539	-0.291993
C	-0.1387587453	 4.0478876028	-0.435219364	-0.226753
C	 1.1617922502	 3.3418290739	-0.1727651364	-0.125146
C	 1.2370185739	 2.0041285652	-0.0252799959	 0.047214
C	 2.4912529287	 1.3451994668	 0.1760839992	 0.242432
N	 3.5131113201	 0.8266102374	 0.3351594582	-0.322511
H	-2.0857279475	 1.2977332025	-0.4921721345	 0.143173
H	-1.6059499149	 2.207785025	 0.93851777	 0.139594
H	-1.0862590884	 2.9453767425	-1.8513192391	 0.232492
H	 0.01628308	 4.8360327758	-1.1804251241	 0.136536
H	-0.4399122667	 4.5725429389	 0.4871704646	 0.143641
H	 2.062157641	 3.9468899902	-0.0941472973	 0.137088
