14
gdb 48144	4.14513	0.92433	0.77421	4.624	76.61	-0.2571	-0.073	0.1841	1374.4361	0.099511	-432.842711	-432.833755	-432.832811	-432.877369	31.613	
N	 0.5771777501	 0.3920497731	-1.7916338255	-0.48769
C	 0.0413939072	 0.0164589263	-0.7014752898	 0.280722
N	-1.3011413826	-0.3642857958	-0.7012088209	-0.341114
C	-2.1684931823	-0.2340709433	 0.3724629946	 0.229923
N	-1.7597934973	 0.2085130411	 1.5017937494	-0.516236
C	-3.5185116715	-0.6380249005	 0.0833756266	 0.273932
C	-4.6569148539	-0.9578270197	-0.1350897097	-0.42149
C	 0.8506674442	-0.1846193157	 0.5725187096	 0.132343
O	 1.9297540406	 0.3357297792	 0.6922400993	-0.25274
H	 1.5681834589	 0.5754028509	-1.615205394	 0.247944
H	-1.7154529554	-0.4138690542	-1.6216784864	 0.27182
H	-2.5060794139	 0.1927214629	 2.1919489986	 0.240174
H	-5.6644685028	-1.2412862972	-0.3212137784	 0.221189
H	 0.4305361087	-0.870903507	 1.3234718467	 0.121224
