23
gdb 86609	3.49869	0.96694	0.84129	1.2452	86.03	-0.25	0.073	0.323	1450.2505	0.205417	-388.266256	-388.256611	-388.255667	-388.300767	36.873	
C	-0.1762599538	 1.489325284	-0.0577694485	-0.388262
C	 0.0057358191	-0.0245418053	 0.0217444858	-0.042829
C	 1.1191071287	-0.5785978321	-0.9086916134	 0.141641
O	 1.4062650185	 0.2334409204	-2.0248706897	-0.431825
C	 2.0974547746	-0.5901089031	 0.2940019499	-0.297739
C	 0.8577352675	-0.5438655288	 1.2343344999	 0.024821
C	 0.9347991732	 0.2516441711	 2.5084268807	 0.025935
C	-0.0572882148	 0.0135426579	 3.6218203716	-0.271577
C	 1.3800506274	-0.4117877179	 3.7897936104	-0.276786
H	 0.7719868406	 2.0267404239	 0.0343855124	 0.116416
H	-0.610742091	 1.7693452803	-1.0212232542	 0.122583
H	-0.8437445922	 1.83905417	 0.7360818649	 0.110326
H	-0.9683536766	-0.5097533626	-0.0934157625	 0.062388
H	 0.8809861841	-1.6057376432	-1.2226759384	 0.060874
H	 2.1472016522	-0.1569696056	-2.4986885064	 0.281374
H	 2.7922797514	-1.4282203311	 0.3941660219	 0.088028
H	 2.6616971725	 0.3468696693	 0.3329259038	 0.102275
H	 0.5445301868	-1.5661823938	 1.4778270819	 0.060106
H	 1.2581506955	 1.2812035992	 2.3812212409	 0.078612
H	-0.4127796377	 0.8663884282	 4.1896352231	 0.109094
H	-0.8015842661	-0.7633293612	 3.4786538993	 0.108242
H	 1.6010698898	-1.4738905955	 3.7583523555	 0.107683
H	 2.0076669404	 0.1504578861	 4.4724571511	 0.108621
