19
gdb 38754	2.36143	2.30969	1.79941	1.8485	72.51	-0.229	0.0664	0.2954	867.4335	0.163583	-423.022316	-423.01601	-423.015066	-423.052717	26.861	
C	-0.0106015258	 1.5906571421	-0.150189922	-0.271747
C	 1.5375596172	 1.5846972394	-0.0356828164	-0.061588
C	 2.0629265439	 1.7591420666	 1.3993751931	-0.233214
C	 1.8798453183	 0.3504966139	 2.00806472	 0.04129
C	 0.4307638278	 0.0367812372	 2.4359794619	-0.078749
O	-0.3807155161	-0.4112808469	 1.3551724962	-0.255904
C	-0.0259445847	 0.0502145606	 0.0711030748	 0.085724
C	 1.5252882289	 0.0216394686	-0.1626022975	 0.093898
O	 2.2256626672	-0.5275768285	 0.9340002045	-0.245874
H	-0.5628720854	 2.1918454542	 0.577493259	 0.101639
H	-0.3590644736	 1.8548374539	-1.1523366345	 0.103175
H	 2.0926680045	 2.1691070408	-0.7698456093	 0.069969
H	 3.1281379664	 2.0059550376	 1.3860341816	 0.107499
H	 1.5385222744	 2.5362806453	 1.9630612593	 0.100285
H	 2.5626293711	 0.1591064737	 2.8394300641	 0.0839
H	 0.4260587043	-0.782798786	 3.1613688581	 0.112037
H	-0.017818079	 0.9173722248	 2.9232608175	 0.086862
H	-0.6413470188	-0.5262510892	-0.6227081274	 0.083327
H	 1.8736503192	-0.4456197183	-1.0838718328	 0.07747
