18
gdb 90902	2.4871	1.95858	1.46183	2.062	69.76	-0.2307	0.0553	0.286	935.1731	0.148637	-439.037769	-439.030254	-439.029309	-439.06921	30.655	
O	-0.0855344071	 1.441135941	-0.0831657513	-0.446894
C	-0.0038106851	 0.0258107953	 0.0021654423	 0.056614
C	 0.593124015	-0.5496269355	 1.3098676717	-0.20852
N	-0.2290727306	-1.7311573884	 1.6608492643	-0.105782
C	-1.6476937088	-1.4665190181	 1.960986866	-0.036007
C	-2.1343856856	-0.1367501568	 1.3708606263	-0.31558
C	-1.4217332747	-0.5439599125	 0.0326346329	 0.410657
O	-2.1328627859	-0.4187216	-1.1597940065	-0.507943
C	-1.2287330538	-1.9667912715	 0.618123076	-0.116476
H	 0.7917185214	 1.7914896471	-0.2623868665	 0.29132
H	 0.5179743866	-0.380033078	-0.8780757009	 0.072288
H	 1.629846969	-0.8768637051	 1.1880424752	 0.103817
H	 0.5637452675	 0.1985764097	 2.1081670698	 0.112327
H	-2.0816039168	-2.0032338034	 2.7973754425	 0.09286
H	-3.2163015916	-0.1507740236	 1.2213059558	 0.111735
H	-1.8360242537	 0.7984684347	 1.8523955167	 0.104232
H	-2.0546221311	 0.5037037144	-1.4332408887	 0.286188
H	-1.3246581948	-2.923702409	 0.1199504445	 0.095163
