16
gdb 97244	2.58295	1.5072	0.99215	3.2001	70.04	-0.2556	-0.0709	0.1847	1158.318	0.123462	-475.029831	-475.021244	-475.0203	-475.064452	29.959	
C	 0.4228201467	 1.4606055494	 0.14631669	-0.333016
N	 0.5171627457	 0.0139237702	 0.0964220872	-0.25463
C	 0.5539975586	-0.5756428601	-1.0181518543	 0.308418
O	 0.5347647662	 0.0857856145	-2.2189570621	-0.253174
C	 0.3833242359	-0.7101083066	-3.3900015578	-0.006695
O	 1.2928944345	-1.7568760664	-3.4228069034	-0.216346
C	 0.9867434862	-2.7153866496	-2.4230490017	-0.183707
C	 0.6863468801	-2.0927297291	-1.059521613	 0.273233
O	 0.5535303915	-2.7804459924	-0.0815144491	-0.269267
H	-0.1828914315	 1.7405433629	 1.0128625405	 0.134794
H	 1.4250251816	 1.8775545431	 0.308052152	 0.140663
H	 0.0061256293	 1.9148259218	-0.7590904349	 0.126249
H	-0.6544540384	-1.0809747681	-3.4437023029	 0.102058
H	 0.5946944587	-0.0488262251	-4.2307021622	 0.138794
H	 0.1153673139	-3.324770167	-2.7134131897	 0.134499
H	 1.845806061	-3.3832753274	-2.3260783387	 0.158127
