19
gdb 82913	2.60472	1.60793	1.48996	3.2564	73.75	-0.2303	0.0749	0.3052	1002.1494	0.159825	-423.006144	-422.998442	-422.997498	-423.037866	31.333	
C	-0.1128444549	 1.4671101865	 0.0700055991	-0.489577
C	 0.142905795	-0.0099120732	-0.0329168342	 0.420543
O	-0.5215371597	-0.828427772	 0.9785780704	-0.322363
C	 0.9205588731	-0.8073002092	 0.9341659522	-0.022798
C	 1.5589404258	-1.9969253676	 0.2314250705	-0.272103
C	 1.1335732524	-1.9052886352	-1.2394563026	-0.117772
C	-0.3194045401	-2.0639177408	-1.6027069847	 0.133072
O	-1.2754852894	-2.6669411792	-0.8019853014	-0.431567
C	 0.2377167292	-0.6640446037	-1.3957285283	-0.197059
H	 0.6546763469	 2.027680934	-0.4738343864	 0.127908
H	-1.0858201857	 1.7229603196	-0.3623909074	 0.136128
H	-0.1070196543	 1.7866149599	 1.1148067531	 0.131654
H	 1.3798488139	-0.3853842975	 1.8255355977	 0.098365
H	 2.6479570707	-1.9207477194	 0.3153780258	 0.110436
H	 1.2604572988	-2.9431656664	 0.6978649773	 0.125847
H	 1.8762318882	-2.1580213083	-1.9893732593	 0.085766
H	-0.4924707206	-2.3243250556	-2.6439972909	 0.100896
H	-1.2567261848	-2.2001934746	 0.048644611	 0.299893
H	 0.3150798455	 0.0036131526	-2.2468305319	 0.082731
