13
gdb 18824	4.50187	2.42362	1.98411	4.8286	55.87	-0.26	0.0054	0.2654	669.1361	0.097732	-398.575776	-398.570441	-398.569497	-398.605138	21.273	
O	-0.0160366735	-0.0195245398	 0.0620588629	-0.328273
C	 0.0116999723	 1.1670745102	 0.0080773723	 0.443253
O	-1.1075287787	 1.957666138	 0.1528411774	-0.226165
C	-0.6892786166	 3.2989540547	-0.0118958104	 0.085572
C	 0.4785719132	 3.8278246789	 0.8168726713	-0.119289
C	 1.3199723677	 2.6501362263	 1.2775852263	-0.199549
N	 1.183713404	 2.016364623	-0.1164480304	-0.221014
C	 0.6597456141	 3.3292421509	-0.6131435217	-0.065226
H	-1.4883598172	 3.9664171546	-0.3018444769	 0.131775
H	 0.4882675178	 4.839304031	 1.2032687192	 0.108103
H	 2.3678744335	 2.9071740245	 1.439311887	 0.136446
H	 0.9590524206	 2.027958519	 2.1026390196	 0.137548
H	 1.002991493	 3.7746922488	-1.5369636466	 0.11682
