25
gdb 106805	2.3002	1.42715	1.06047	0.1552	92.6	-0.2462	0.0836	0.3298	1292.3799	0.229857	-352.376934	-352.3674	-352.366456	-352.410647	37.689	
C	 0.2342537062	 1.5101679706	 0.2268365385	-0.374476
C	-0.1503190817	 0.0640412816	-0.1155631109	-0.276242
C	 0.5894720333	-0.4882033195	-1.3165683186	 0.35046
C	 1.9933119485	-1.035251829	-1.1468889203	-0.383079
C	 0.86718102	-1.9710741641	-1.5333632302	 0.298966
C	 0.4358438987	-3.0643233975	-0.5837684923	-0.481662
C	 0.7257727781	-2.2561805321	-3.0263763468	-0.256886
C	 0.8209381454	-0.8819331648	-3.7213809349	-0.235601
C	 0.2825565506	 0.1255118057	-2.6822838007	-0.263595
H	 1.3062389757	 1.5903542475	 0.4363163074	 0.116303
H	 0.0067022641	 2.1915679418	-0.5992082556	 0.11662
H	-0.3093713453	 1.8644065433	 1.1083900512	 0.107078
H	 0.0388279285	-0.569243222	 0.758900542	 0.090923
H	-1.2321952605	 0.0117460955	-0.3018784554	 0.089477
H	 2.7673427246	-0.7858497135	-1.8666490463	 0.100417
H	 2.3612143689	-1.1173760042	-0.1281304455	 0.099094
H	 0.5219262797	-2.7588708894	 0.4630020584	 0.113247
H	-0.6053284342	-3.3601540816	-0.7618725294	 0.110462
H	 1.0566140724	-3.9593020969	-0.712506747	 0.114098
H	 1.4751113399	-2.965557103	-3.3973856709	 0.090961
H	-0.2577124262	-2.7107867099	-3.2060634417	 0.091569
H	 1.8627063174	-0.6524103336	-3.9662698928	 0.102896
H	 0.2658509629	-0.8483279527	-4.6625773655	 0.094133
H	-0.8061541905	 0.2327510629	-2.7812460739	 0.091206
H	 0.7136815834	 1.124073225	-2.8155047588	 0.09363
