19
gdb 59897	2.27781	1.00062	0.82378	1.4109	77.89	-0.2648	0.0143	0.2791	1473.5603	0.157483	-419.267949	-419.257549	-419.256605	-419.305591	36.264	
C	 0.1633820511	 1.5334494623	-0.5263263499	-0.384322
C	-0.1625988479	 0.1165850323	-0.0416317664	 0.040301
C	-0.1650674038	 0.013742816	 1.4874678104	-0.384326
N	-1.4483135426	-0.3250834502	-0.5846096786	-0.329554
C	-1.5767762826	-1.3890970808	-1.4086850732	 0.436809
O	-0.6656500364	-2.0955945242	-1.7934006674	-0.373817
C	-3.015024573	-1.7130021974	-1.8876236267	-0.460063
C	-4.0654096161	-0.8331366621	-1.3946806353	 0.266141
N	-4.8554496436	-0.1022169572	-0.9716864735	-0.313855
H	 1.1403981896	 1.8506565376	-0.1495551113	 0.123988
H	 0.1846940319	 1.5776521767	-1.6185291664	 0.128194
H	-0.5816734418	 2.2538303699	-0.1686119622	 0.116558
H	 0.5697982416	-0.5837952407	-0.4507240797	 0.129582
H	-0.9233164101	 0.673192605	 1.9258728433	 0.11656
H	-0.3744585554	-1.0097013189	 1.810003527	 0.128193
H	 0.8074473456	 0.3102297657	 1.8917545133	 0.123988
H	-2.2757790511	 0.1937606113	-0.3279174516	 0.265328
H	-2.9987811924	-1.6972323634	-2.981682715	 0.185145
H	-3.2251747531	-2.7456439019	-1.5927003066	 0.185149
