25
gdb 64283	2.51108	1.43064	1.22877	0.0732	91.3	-0.274	0.0783	0.3523	1198.5129	0.2305	-352.367022	-352.35807	-352.357126	-352.40032	36.433	
C	-0.0353045051	 1.5619662685	-0.1254560123	-0.429251
C	-0.0195311474	 0.0270065934	-0.0281334247	 0.320107
C	-1.4647971587	-0.4737674601	 0.1236160261	-0.440621
C	 0.6540425548	-0.5907493155	-1.2932224463	-0.229631
C	 2.1338764825	-0.7820977219	-0.9245723429	-0.232518
C	 2.0782646251	-1.2947817044	 0.525030835	 0.010086
C	 3.0288666555	-0.6253918877	 1.5513048465	-0.239365
C	 1.9029871695	 0.3896978979	 1.8995652061	-0.244833
C	 0.8758549323	-0.5113712343	 1.1371014889	-0.013075
H	 0.9471943551	 1.9719975686	-0.379544875	 0.110799
H	-0.7341934246	 1.8857393359	-0.904865434	 0.106286
H	-0.3532546457	 2.0207205891	 0.8171551136	 0.110226
H	-2.0676763041	-0.2191515589	-0.7557506619	 0.105894
H	-1.4941896057	-1.5624559857	 0.2433331752	 0.106832
H	-1.9505223311	-0.0279109356	 0.9992475671	 0.107539
H	 0.2039753291	-1.5691822833	-1.5040137091	 0.087886
H	 0.5069628357	 0.0265197583	-2.1860281774	 0.086216
H	 2.6617927032	-1.458648796	-1.6033677286	 0.091214
H	 2.6575180186	 0.1815874463	-0.9648334803	 0.092756
H	 2.0258778255	-2.3871677961	 0.5526216728	 0.056884
H	 3.266256511	-1.2847864516	 2.3905615579	 0.095706
H	 3.9664500877	-0.2180030533	 1.1616640519	 0.091078
H	 1.7045223805	 0.5483899337	 2.9624235152	 0.094003
H	 2.0555499787	 1.3676848256	 1.4396433241	 0.0991
H	 0.2821733778	-1.098949843	 1.842417312	 0.056683
