13
gdb 5455	3.40411	2.00944	1.27354	4.8304	68.46	-0.2449	-0.0393	0.2056	888.7419	0.096369	-361.512785	-361.505754	-361.50481	-361.544284	25.194	
C	-0.0054726873	 1.5454816631	 0.076642356	-0.516579
C	 0.0146540701	 0.0513268793	 0.0407837142	 0.157144
C	-0.0028877401	-0.7494584378	-1.0730325638	 0.193864
O	 0.0245919901	-2.0730716662	-0.7237386897	-0.171336
C	 0.0602487362	-2.1088036451	 0.6251588437	-0.010247
C	 0.056139181	-0.8531226034	 1.1487481538	-0.249655
C	-0.0429828783	-0.4271354419	-2.4451667079	 0.224964
N	-0.0764040366	-0.123336334	-3.5633922937	-0.347757
H	 0.8841910569	 1.9379856622	 0.5805364574	 0.14371
H	-0.0374955674	 1.9632201899	-0.9321770768	 0.152681
H	-0.8785473167	 1.9131584147	 0.6262115524	 0.143713
H	 0.0854900986	-3.0929173097	 1.0642270989	 0.152304
H	 0.0796382336	-0.593050881	 2.1955578653	 0.127193
