18
gdb 77763	2.80759	1.51797	1.14507	3.6824	77.29	-0.2429	0.0088	0.2517	1098.2026	0.147416	-401.881589	-401.873653	-401.872709	-401.913777	31.089	
C	-0.105728505	 1.5673871269	 0.0059366275	-0.444633
C	 0.0254086016	 0.0541256628	 0.0293412308	 0.044995
C	 1.2452956494	-0.6448684811	-0.6852596641	-0.294192
C	 2.0581518574	-0.1429964232	 0.5350216001	 0.445474
O	 3.0978257145	 0.3745509438	 0.79366343	-0.32417
C	 0.7740366825	-0.6581091149	 1.2208220442	-0.267674
C	 0.9314797258	-1.8445728142	 0.2393869138	 0.441823
C	 0.1732828753	-3.0823343488	 0.0125996186	-0.347473
N	 1.6005185901	-3.1011116761	 0.455676605	-0.403233
H	 0.8393495552	 2.0661468156	 0.2422430245	 0.14003
H	-0.4305527238	 1.9116525025	-0.981530132	 0.123176
H	-0.8525935438	 1.9000729495	 0.7343127367	 0.124763
H	-0.9176880673	-0.4450479792	-0.2084912088	 0.085509
H	 1.4935934425	-0.6494830591	-1.7449228833	 0.091032
H	 0.5017841513	-0.6827219829	 2.2729179243	 0.098649
H	-0.531658958	-3.4505054825	 0.7526333963	 0.128686
H	-0.0527041098	-3.3691956508	-1.0115165932	 0.119575
H	 2.2119688021	-3.3359867683	-0.3229995105	 0.237661
