17
gdb 34935	2.79058	1.53981	1.24084	4.7616	76.47	-0.2488	0.0311	0.2799	1035.9762	0.137242	-380.824227	-380.816645	-380.815701	-380.856376	29.453	
N	 0.1135686003	-1.1629651473	 0.0925907989	-0.354019
C	 0.1133138877	-0.0066916647	 0.0559173006	 0.312176
C	 0.0964477772	 1.4334411748	 0.0449520149	-0.193051
C	 0.498535045	 2.2526416128	 1.2549447714	-0.064265
C	 1.6164384565	 1.5454502296	 2.0374031071	-0.344309
C	 2.4762094618	 1.6059595517	 0.7505523823	 0.361922
C	 3.9259330619	 1.8834352721	 0.6846543709	-0.319588
N	 3.3695850336	 0.6124234876	 0.1790628946	-0.348752
C	 1.3551343231	 2.2821256953	-0.0072183285	-0.121756
H	-0.733058541	 1.8518203013	-0.5173177636	 0.135879
H	-0.1667061083	 3.0112976773	 1.6459895906	 0.107163
H	 2.0233267048	 2.1570657273	 2.8456869493	 0.117511
H	 1.3701028286	 0.5510808376	 2.4220074587	 0.127819
H	 4.3288604466	 2.5399481243	-0.0824724213	 0.122308
H	 4.481850391	 1.8855920545	 1.6196031057	 0.114369
H	 3.5311060109	-0.1482196566	 0.8340169407	 0.241283
H	 1.4588990802	 3.0522162622	-0.7616851523	 0.105309
