13
gdb 16604	3.33851	2.38466	1.53287	5.0373	58.37	-0.2438	-0.0887	0.1551	779.2669	0.095765	-398.608293	-398.601827	-398.600883	-398.639348	24.009	
O	-0.0047952969	-0.002080795	-0.0055382882	-0.264569
C	-0.0445665923	 1.1942955536	 0.0132860617	 0.326014
C	-1.270910336	 2.1006534055	 0.0922292726	-0.3721
C	-0.6958704356	 3.5069416803	 0.0598389295	-0.030771
C	 0.1538688302	 3.9796554243	 1.1759267584	-0.24853
N	 0.7859374557	 3.4726622065	-0.0695981047	-0.124788
C	 1.2126748866	 2.1216894608	 0.0044541633	 0.278481
O	 2.3466242324	 1.7443632188	 0.0698673799	-0.27602
H	-1.9190256404	 1.9051362856	-0.7676568881	 0.155409
H	-1.853243368	 1.8780326382	 0.9918380198	 0.153159
H	-1.1775622479	 4.2438759092	-0.5746317634	 0.118417
H	 0.2985140114	 5.0414633589	 1.3458794508	 0.146463
H	 0.2337912009	 3.3603771934	 2.0669587383	 0.138835
