23
gdb 60060	2.88593	0.9566	0.93637	0.8233	81.55	-0.2504	0.0578	0.3082	1431.7794	0.203569	-425.409394	-425.399085	-425.398141	-425.444878	38.372	
C	-1.53090334	-0.3389500173	-0.1881260101	-0.393613
C	-0.041587682	-0.0866266093	 0.0837075356	 0.045277
C	 0.3975789123	-0.7696007544	 1.3857940925	-0.38882
C	 0.7911087949	-0.5124419463	-1.1400941084	-0.212199
C	 2.2934861298	-0.25033331	-1.0558886117	 0.31659
O	 2.4697998769	 1.0807316843	-0.6280599556	-0.469668
C	 3.1566005574	-1.3411218269	-0.3553690258	-0.128037
O	 3.6764948965	-1.7957957684	-1.6183503928	-0.2717
C	 3.0809105183	-0.6892993381	-2.3203586883	-0.123285
H	-1.8657097703	 0.1746334191	-1.0957635209	 0.109326
H	-1.7328067267	-1.4092839182	-0.3185593651	 0.10964
H	-2.1485106671	 0.0147981817	 0.6439543357	 0.109291
H	 0.1051925283	 0.9920999626	 0.209937392	 0.095363
H	 0.3284276772	-1.8617208464	 1.3084850204	 0.107752
H	 1.4260278646	-0.5090806404	 1.6518345367	 0.11957
H	-0.2434950172	-0.4592336657	 2.2177354459	 0.108553
H	 0.6425462075	-1.580721285	-1.3461501915	 0.100724
H	 0.4121309526	 0.0273822838	-2.0178177259	 0.099314
H	 3.4136639973	 1.2679053573	-0.5885140694	 0.280814
H	 3.9411318119	-0.919921539	 0.2921700255	 0.085679
H	 2.6376059763	-2.138113218	 0.1857182619	 0.109307
H	 2.4958167247	-1.0135069783	-3.1891769725	 0.104384
H	 3.8269620866	 0.0513800429	-2.6466552682	 0.08574
