17
gdb 1246	7.08814	1.17517	1.06631	4.1615	66.01	-0.2293	0.0361	0.2654	1089.5602	0.147662	-305.900638	-305.892269	-305.891325	-305.933679	28.992	
C	 0.0715115674	 1.4913150006	 0.0699145525	-0.323996
N	-0.0219258638	 0.038854467	 0.0195671813	-0.05534
C	 0.7073345671	-0.5695287076	 1.1241912831	-0.320073
C	-1.3941750348	-0.4407035505	-0.0463341145	-0.128866
C	-2.0099171145	-0.2143718573	-1.4436244157	-0.34605
C	-3.3508215113	-0.7829064761	-1.5452123491	 0.258707
N	-4.4101890277	-1.2405225897	-1.6063339873	-0.30542
H	 1.1241755161	 1.7885563076	 0.0714550771	 0.125623
H	-0.3943844574	 1.9430731801	-0.8101751889	 0.119349
H	-0.4075029552	 1.922817506	 0.9695983715	 0.098402
H	 0.2990068027	-0.3032491769	 2.1174703314	 0.09775
H	 0.687271081	-1.6592601355	 1.029381791	 0.123051
H	 1.7521049394	-0.2455387555	 1.0943199725	 0.122697
H	-1.3909730618	-1.5163692125	 0.1523892701	 0.122105
H	-2.0457615795	 0.0226122624	 0.7182107956	 0.099409
H	-2.0724369828	 0.8530727524	-1.677711078	 0.152494
H	-1.3625949349	-0.6713380246	-2.1992123625	 0.160157
