23
gdb 77975	2.3776	1.48165	1.24848	0.1666	91.05	-0.2206	0.0214	0.242	1179.8291	0.205679	-351.163573	-351.154281	-351.153337	-351.196659	36.663	
C	 0.1756370599	 2.0255895441	 0.7949648548	-0.419094
C	 0.1757673587	 0.5146985485	 0.6978305649	-0.03683
C	 1.2144488071	-0.3543468348	 0.0113151416	-0.124515
C	 2.6280682194	 0.1514593353	-0.3018761284	-0.030539
C	 2.737678684	 1.2427007407	-1.3788934269	-0.399281
C	 3.1544888022	 0.5400860771	 1.0685809316	-0.08335
C	 2.312168217	 0.2041750901	 2.0472299205	-0.148962
C	 1.0507471691	-0.4150510622	 1.5288714099	 0.292254
C	 0.4448605858	-1.5809279534	 2.2764095909	-0.485453
H	 1.1627604983	 2.4252920469	 1.0348075511	 0.123271
H	-0.1556625943	 2.4803031784	-0.1452138793	 0.112834
H	-0.5156167046	 2.3553829369	 1.5795185372	 0.108064
H	-0.8274751433	 0.1121997666	 0.561272063	 0.07649
H	 0.8311979942	-1.1608684672	-0.6058594612	 0.073567
H	 3.2169942057	-0.7061828413	-0.6643687727	 0.08007
H	 2.1911797508	 2.1472424549	-1.1022134152	 0.122478
H	 3.7847557112	 1.5198172114	-1.5438140403	 0.108661
H	 2.3355949122	 0.8857277993	-2.332527481	 0.112915
H	 4.1089777	 1.0394542995	 1.2014386034	 0.087728
H	 2.4840892105	 0.3641363057	 3.1071006851	 0.08686
H	 0.107844993	-1.2815635462	 3.2764935692	 0.114068
H	-0.4234445338	-1.9821842591	 1.7441696487	 0.112939
H	 1.1674938472	-2.3956445514	 2.4017117032	 0.115828
