18
gdb 78432	3.44015	1.39969	1.36922	1.7856	74.23	-0.2455	0.0206	0.266	1024.8344	0.149739	-401.931879	-401.924763	-401.923819	-401.963245	28.389	
C	-0.0608584439	 1.4324489384	-0.006624791	-0.427968
C	 0.0492776028	-0.0779186807	 0.0384186478	-0.013339
C	 1.4090113637	-0.6683255636	-0.2224539325	-0.079357
C	 0.783786888	-0.6805499888	 1.1970434312	-0.056026
C	 0.7367196069	-2.2238274761	 1.1631871187	-0.045038
N	-0.5652455657	-2.8769885034	 0.9822242813	-0.261811
C	-0.6291491829	-3.1483261451	-0.257815041	 0.105084
O	 0.4003470375	-2.8409854171	-1.0966595149	-0.231106
C	 1.3815673156	-2.1949698166	-0.2483452665	 0.056754
H	 0.8413591589	 1.9101111393	 0.3901196418	 0.115863
H	-0.2017328572	 1.7857541966	-1.0333720946	 0.122633
H	-0.9115177377	 1.7794311031	 0.5888871622	 0.125062
H	-0.8263533707	-0.5941761213	-0.3463577247	 0.099108
H	 2.2227617396	-0.0623220959	-0.6030097762	 0.086019
H	 1.0654499878	-0.0916872496	 2.0617097484	 0.088759
H	 1.308225163	-2.6965890051	 1.9640914273	 0.085828
H	-1.4652477476	-3.6346064352	-0.749892882	 0.136523
H	 2.3457325417	-2.6803279688	-0.4015248254	 0.093011
