21
gdb 42031	3.11068	1.43838	1.05302	1.5392	77.94	-0.246	0.0816	0.3275	1162.0836	0.186111	-424.246678	-424.239036	-424.238091	-424.278986	30.296	
C	-0.0026466987	 1.4349229739	-0.046278432	 0.008976
O	 1.3382187323	 1.9080491546	 0.0194691746	-0.290795
C	 2.0917948868	 0.822562219	 0.5439214915	 0.155031
C	 3.5690769316	 0.7848070976	 0.2093855299	-0.250553
C	 4.1165619381	-0.5371442102	 0.80008802	-0.194288
C	 3.3177303502	-1.7868402261	 0.3648520957	-0.194288
C	 1.7935868406	-1.6625227945	 0.6051677174	-0.250536
C	 1.3618063875	-0.3675166104	-0.0522890466	 0.155068
O	 0.0044133849	 0.0206651017	 0.1150631473	-0.290852
H	-0.6187613932	 1.8602072918	 0.7590087154	 0.101089
H	-0.4122042039	 1.7257296036	-1.0243452611	 0.101127
H	 1.9730262811	 0.7893352668	 1.6417747388	 0.064934
H	 3.7056318467	 0.8138178975	-0.8783118268	 0.10373
H	 4.1017027056	 1.6437487567	 0.6293876457	 0.104395
H	 5.1678807791	-0.6608831304	 0.5206389353	 0.09991
H	 4.0958498967	-0.4647826854	 1.8955420305	 0.102048
H	 3.4889086293	-1.9642486562	-0.7051517348	 0.102049
H	 3.7050000499	-2.667412732	 0.8876226369	 0.099909
H	 1.2662498299	-2.5251657499	 0.1860787824	 0.104394
H	 1.5677633549	-1.6291958099	 1.6777670737	 0.103718
H	 1.5995093005	-0.4173137283	-1.1300189236	 0.064935
