23
gdb 104504	1.82384	1.28064	0.99102	0.5711	91.28	-0.2572	0.0529	0.3101	1381.4187	0.20303	-351.11913	-351.108419	-351.107475	-351.155035	39.903	
C	-0.7586753565	 1.4700452713	 0.7246395994	-0.383168
C	-0.0711445288	 0.2292604718	 0.1389287501	-0.257692
C	 0.8713488339	-0.4702930462	 1.1082342346	 0.371911
C	 2.0891672974	 0.3571415278	 1.534999965	-0.436036
C	 2.9693565288	 0.7099931061	 0.4238647851	 0.32542
C	 3.6817840476	 0.9940545043	-0.5021564356	-0.463343
C	 0.2876621226	-1.3824464069	 2.1660109608	-0.350925
C	 1.0958603514	-1.966671404	 1.0283840335	-0.027612
C	 0.4667854567	-2.8677413958	-0.0124626365	-0.419089
H	-0.039857062	 2.2573375007	 0.9727473573	 0.119969
H	-1.4682371465	 1.8938119136	 0.0072475045	 0.111319
H	-1.310892473	 1.2219159847	 1.6375173572	 0.114763
H	-0.8414265895	-0.4753575646	-0.188653649	 0.093075
H	 0.4898828261	 0.5122550515	-0.760205047	 0.111065
H	 1.7620384658	 1.2742193815	 2.0419787925	 0.128117
H	 2.6614910657	-0.2071884263	 2.2816310165	 0.123008
H	 4.3185065796	 1.2468316112	-1.3132393217	 0.193404
H	 0.7111975187	-1.3719421925	 3.1655324462	 0.103531
H	-0.786695892	-1.5416433789	 2.1460400758	 0.105692
H	 2.1056617708	-2.2717901775	 1.2952434682	 0.082334
H	-0.5768933753	-2.609163479	-0.2108165424	 0.11671
H	 1.0094084507	-2.8199624515	-0.9631242907	 0.121281
H	 0.4819031077	-3.9095048114	 0.3266957063	 0.116267
