15
gdb 129626	3.1255	1.3166	0.98518	2.0395	70.07	-0.2155	-0.0474	0.1682	1135.6465	0.112272	-453.940102	-453.931784	-453.93084	-453.973632	29.872	
N	-0.2940772179	 1.3481066198	-0.4058161422	-0.615887
C	-0.095676103	 0.0020920197	-0.1096480805	 0.076633
C	-1.0110123958	-1.0097697374	-0.0003125042	 0.349234
C	-2.5042191495	-1.0202122292	-0.0638882887	-0.395519
C	-2.9343857908	-0.4464573966	-1.4081211228	 0.148672
O	-3.1135431763	 0.7321727002	-1.5907564704	-0.239339
O	-0.3698052529	-2.1893933333	 0.1908154379	-0.214391
N	 0.9927248106	-1.9639910129	 0.244753313	-0.138578
C	 1.1474394686	-0.6758245005	 0.0586498134	-0.002214
H	 0.247769368	 1.9865530011	 0.1594422069	 0.250786
H	-1.2674228941	 1.6207249115	-0.450892015	 0.262498
H	-2.860615676	-2.0468848023	 0.054617508	 0.142904
H	-2.9342971256	-0.3940313423	 0.726570617	 0.139824
H	-3.0252229021	-1.1782313128	-2.2377451596	 0.106202
H	 2.1444627869	-0.2574902051	 0.0482364671	 0.129175
