16
gdb 69248	2.939	1.58194	1.17194	3.6219	71.74	-0.2276	-0.0209	0.2067	1041.1177	0.125	-437.91951	-437.911865	-437.910921	-437.951422	29.672	
C	-0.0631834795	 1.5193176619	 0.0527747979	-0.482006
C	 0.0807456802	 0.0200411902	-0.0296385429	 0.392323
O	-0.7373029619	-0.7215854112	 0.9050756966	-0.282443
C	 0.6765804796	-0.7411751461	 1.1060549088	-0.189442
C	 1.3671773464	-2.0511086272	 0.856137218	 0.464936
O	 2.0248192611	-2.6288976378	 1.6971659521	-0.363958
N	 1.2156005905	-2.5466969206	-0.4270658798	-0.374042
C	 0.699206234	-1.8304732614	-1.4991955203	 0.022836
C	 0.1917933805	-0.5988959315	-1.3694590732	-0.192253
H	 0.800358848	 2.0160734884	-0.4007901966	 0.131031
H	-0.9611059608	 1.8442257133	-0.4836711888	 0.132954
H	-0.1512064511	 1.8415497688	 1.0927794704	 0.135737
H	 1.0312761813	-0.2297661303	 1.9986965766	 0.111076
H	 1.6768886778	-3.4288264422	-0.5936428672	 0.260244
H	 0.7541043509	-2.3435491406	-2.4517212006	 0.13041
H	-0.174902237	-0.0650915239	-2.2366284909	 0.102599
