16
gdb 108404	2.54074	1.37348	1.08398	3.6671	69.55	-0.259	0.025	0.284	1125.5347	0.123694	-437.844787	-437.836348	-437.835403	-437.878325	30.668	
O	 0.6356676999	 0.2550298569	-0.723553389	-0.403363
C	-0.1942728527	 0.2845554245	 0.4223226064	-0.18982
C	-1.4671515567	-0.4978008877	 0.2308090317	 0.428864
O	-2.4271154318	-0.4530594269	 1.2753149347	-0.311108
C	-2.7680470971	-1.8528385597	 1.0353762937	-0.107208
C	-1.808260436	-1.914116052	-0.1457127675	-0.18925
C	-2.1256611542	-0.769192094	-1.1124229277	-0.273465
C	-3.4690365854	-0.3604607239	-1.4148667307	 0.312434
N	-4.5539168936	-0.036512226	-1.6522875338	-0.345054
H	 0.3212013908	 0.9252395258	-1.3380631471	 0.29702
H	 0.3796661172	-0.1562012817	 1.2441591099	 0.132099
H	-0.4607535986	 1.3078570731	 0.7244900061	 0.122513
H	-2.4516548939	-2.4692208919	 1.8819902997	 0.1256
H	-3.8354636086	-1.9891212748	 0.8383302872	 0.13866
H	-1.1898143617	-2.747951998	-0.4471038619	 0.123967
H	-1.4316017877	-0.7316124937	-1.9458194316	 0.13811
