19
gdb 40205	3.02525	1.54965	1.23726	2.4568	73.94	-0.242	0.0702	0.3122	1047.9511	0.160361	-422.99537	-422.987859	-422.986915	-423.02764	29.54	
C	-0.0706181221	 1.4651017513	 0.1158691377	-0.257304
O	 1.1459401265	 0.7120268006	 0.066904946	-0.276319
C	-0.099079287	 0.0066937219	 0.0042666969	 0.421298
C	-0.4238209581	-0.9341630505	 1.1562951852	-0.162987
O	-0.1966049698	-2.2433616924	 0.6479857943	-0.262074
C	-0.4977934402	-2.2443873073	-0.7383897763	 0.125676
C	-2.0080934386	-2.2814128077	-1.1197293243	-0.248276
C	-1.894653351	-0.8405503909	-1.697467246	-0.239508
C	-0.3995870753	-0.7747514091	-1.2589685349	-0.140482
H	-0.287103909	 1.9422160895	 1.0718353286	 0.113197
H	-0.2801442522	 2.0783861895	-0.7600196321	 0.114507
H	 0.2303984876	-0.7719064251	 2.0160199777	 0.125215
H	-1.4709203487	-0.8094591823	 1.4774747161	 0.093361
H	 0.1277240965	-3.0054614599	-1.2082606341	 0.084937
H	-2.2755647105	-3.0525123891	-1.8456925679	 0.104161
H	-2.663879209	-2.3857629354	-0.2520627667	 0.109659
H	-2.0262612634	-0.7839939324	-2.7799133737	 0.107222
H	-2.5456806712	-0.0918233071	-1.2378138546	 0.099117
H	 0.3282158255	-0.5471667836	-2.0378976819	 0.0886
