22
gdb 9427	5.8729	0.75509	0.7061	2.1726	76.27	-0.2495	0.0763	0.3259	1654.8676	0.197417	-387.334319	-387.323633	-387.322689	-387.370634	36.907	
C	-0.0882201023	 1.4954196915	 0.0149036759	-0.384894
C	-0.0353486723	-0.0231222957	 0.0106453674	-0.026529
O	-1.3565529295	-0.520301827	 0.013826145	-0.245338
C	-1.4262830448	-1.92905968	 0.0099000412	-0.056988
C	-2.8942272736	-2.3523699269	-0.0322681062	 0.016407
C	-3.5929145442	-1.8531690678	-1.3015783212	-0.385445
C	-3.0062126957	-3.8697690158	 0.1155502297	-0.078209
O	-4.3823957817	-4.20559955	 0.2169343363	-0.422616
H	 0.9230575217	 1.913056654	 0.0123360953	 0.113111
H	-0.6185115671	 1.8627873764	-0.8683241821	 0.126391
H	-0.6122331255	 1.8582257386	 0.9036917479	 0.126583
H	 0.5071408917	-0.389159001	-0.8780802975	 0.083405
H	 0.5132034438	-0.3934371225	 0.8940124333	 0.082749
H	-0.886330461	-2.3353794156	-0.8649854821	 0.078487
H	-0.9329560651	-2.3362746663	 0.9101848891	 0.078577
H	-3.3875167731	-1.9053335466	 0.8406093429	 0.091872
H	-3.1220638475	-2.2812833047	-2.1958357372	 0.099595
H	-4.6441930774	-2.1480605817	-1.3002017582	 0.128402
H	-3.5249315561	-0.7656887556	-1.373308746	 0.125427
H	-2.541850764	-4.3617674003	-0.7560774288	 0.081617
H	-2.4546071975	-4.1994312554	 1.0112508805	 0.081323
H	-4.4568339688	-5.1635087576	 0.2455972547	 0.286076
