22
gdb 100431	3.17843	0.80862	0.68081	0.7403	86.62	-0.2396	0.0338	0.2734	1713.1321	0.19238	-404.340391	-404.329853	-404.328908	-404.37776	37.212	
C	-0.2001822362	 1.4611555617	-0.0246876574	-0.224624
O	-0.0733432399	 0.0458459985	 0.0945325529	-0.242584
C	-1.2296990356	-0.655807548	 0.1670613669	 0.404696
C	-0.9303392178	-2.1350052485	 0.2791445414	-0.488911
N	-2.3460225938	-0.0591589506	 0.1311127943	-0.292379
C	-3.5881472475	-0.8055183436	 0.2210424343	-0.188671
C	-4.3639812133	-0.430849195	 1.4686646734	 0.048227
C	-5.2101383847	 0.8126890993	 1.490341181	-0.245271
C	-5.8671783765	-0.5466627142	 1.4822835611	-0.273661
H	 0.8201596801	 1.84662269	-0.0592816778	 0.119928
H	-0.7432737538	 1.7296142904	-0.9354804086	 0.129821
H	-0.7413384668	 1.8784915446	 0.8291503945	 0.13205
H	 0.1459157759	-2.2886998252	 0.3560960362	 0.141312
H	-1.4142543517	-2.5673124472	 1.1590316442	 0.142861
H	-1.2996358663	-2.67367773	-0.598646466	 0.144828
H	-4.1996876757	-0.5493017536	-0.6553242028	 0.09507
H	-3.4491774099	-1.8974517368	 0.195597316	 0.083749
H	-3.8532016074	-0.6778704947	 2.3959840979	 0.076981
H	-5.2475357147	 1.3978025298	 2.4025064357	 0.107506
H	-5.2546422489	 1.4049053735	 0.582284022	 0.113705
H	-6.3592113488	-0.8669377832	 0.5691854808	 0.107482
H	-6.3508321169	-0.893875527	 2.3886279201	 0.107886
