23
gdb 102602	3.20373	0.73496	0.63452	1.852	91.63	-0.2467	0.0476	0.2943	1859.1676	0.202948	-388.27296	-388.261247	-388.260303	-388.311649	40.65	
C	-0.1871866374	 1.5144410771	 0.1406010997	-0.396055
C	 0.0848863707	 0.0104548279	 0.0306376866	-0.177387
C	 0.8115382769	-0.4159131848	-1.259816573	 0.008139
C	 2.2909112241	 0.0114501294	-1.2416919377	-0.056995
O	 2.9070532494	 0.0152286027	-2.5132885476	-0.429663
C	 0.6586051221	-1.9474161102	-1.4490541485	-0.370323
C	 1.2579300088	-2.5004289248	-2.6632197287	 0.002772
C	 1.7352796247	-2.9740065871	-3.6647843179	 0.122109
C	 2.2969968342	-3.5558099219	-4.8770510204	-0.501949
H	 0.7348036484	 2.103358581	 0.1465399046	 0.124192
H	-0.7973750957	 1.8648109923	-0.6989299351	 0.118695
H	-0.7276903591	 1.74489991	 1.0639529042	 0.113875
H	 0.6684310592	-0.3255931361	 0.8995203997	 0.095542
H	-0.8715792708	-0.5241488837	 0.0899801683	 0.09304
H	 0.3415037358	 0.0839002079	-2.1166474861	 0.086343
H	 2.3753335045	 1.0378480283	-0.8712713642	 0.102265
H	 2.8367312498	-0.6303631169	-0.5262734545	 0.076745
H	 2.7971552429	-0.8673407733	-2.8888576643	 0.282283
H	 1.0913780321	-2.4509542198	-0.5725400185	 0.125505
H	-0.4102257224	-2.1977487042	-1.4408685286	 0.126104
H	 1.6780054546	-4.384153502	-5.2389114753	 0.151031
H	 2.3618940868	-2.8153371439	-5.6816823267	 0.153234
H	 3.3052648503	-3.9472082479	-4.7033868959	 0.150498
