20
gdb 75258	2.71135	1.69941	1.32887	1.7614	84.1	-0.204	0.0146	0.2186	1047.2241	0.172448	-365.97283	-365.965036	-365.964092	-366.004584	31.563	
C	-0.039665822	 1.5336931377	 0.0065239981	-0.499621
C	-0.0063911063	 0.0378545884	-0.046150232	 0.230055
C	-0.1576495613	-0.7451678334	-1.1309859437	-0.171917
C	-0.0130273927	-2.2368688153	-0.8360704838	-0.364116
C	 0.140080215	-2.243871452	 0.6764614982	 0.236917
C	 1.3178845677	-2.6141128684	 1.5997854884	-0.261607
C	 1.3451285211	-1.1242736785	 2.1107687233	-0.276729
C	 0.1731535671	-0.8293713005	 1.1540444583	 0.16708
N	-0.9406443311	-1.7374140449	 1.5383359348	-0.395816
H	 0.89512163	 1.9312925596	 0.4211830681	 0.129599
H	-0.1803604048	 1.9703015143	-0.9858464212	 0.1231
H	-0.8448436919	 1.8907683643	 0.6602493077	 0.130134
H	-0.4115684623	-0.3751511886	-2.1203969281	 0.087179
H	-0.8668462525	-2.8220878337	-1.2025218614	 0.110412
H	 0.8756214234	-2.6569114852	-1.325875153	 0.113427
H	 1.1084951936	-3.386181747	 2.343985422	 0.1061
H	 2.2213855944	-2.8789018952	 1.0454256412	 0.100783
H	 1.1400348273	-0.9638504502	 3.171625752	 0.106111
H	 2.2654250661	-0.6048539039	 1.8351224741	 0.102465
H	-1.7388572209	-1.5043102474	 0.9502825772	 0.226446
