22
gdb 60977	2.34595	1.16339	0.95207	2.5755	83.83	-0.2364	-0.0217	0.2147	1361.9925	0.190019	-404.337802	-404.327039	-404.326095	-404.374048	38.821	
C	 2.3386379663	 0.3004648522	 0.9832699005	-0.401893
C	 1.1330529039	-0.5881571751	 0.6374811512	-0.031549
C	-0.1204415169	 0.049311668	 1.2215631125	 0.164176
O	-0.6119415914	-0.252737414	 2.2776686785	-0.253317
N	 0.9795152288	-0.6481896104	-0.810654893	-0.122762
C	 1.7912150982	-1.6097254723	-1.5549737954	-0.292184
C	 0.3093647774	-1.782289129	-1.4704677106	 0.330693
C	-0.2529994112	-2.9418338037	-0.6673383273	-0.461306
C	-0.5510381754	-1.3711608675	-2.6497825274	-0.438029
H	 3.2496117573	-0.1242836109	 0.5513096923	 0.12609
H	 2.2064914	 1.3060500203	 0.5728056131	 0.130282
H	 2.4653976226	 0.3700140241	 2.0669370139	 0.131661
H	 1.2625045335	-1.566402389	 1.1225924247	 0.080168
H	-0.5437810894	 0.8569952617	 0.5818834171	 0.084538
H	 2.2611257919	-1.2360667028	-2.4620090972	 0.111511
H	 2.4049701951	-2.3061056416	-0.9838899104	 0.105807
H	 0.4222020294	-3.2819501575	 0.1205365897	 0.124964
H	-1.2090717611	-2.6731973288	-0.2035071408	 0.13065
H	-0.4381464337	-3.7934396374	-1.3304351453	 0.123554
H	-0.6473089674	-2.1934192182	-3.3676557896	 0.114303
H	-1.5593366808	-1.0969534436	-2.3187184214	 0.117886
H	-0.1166640072	-0.5086860847	-3.1603268251	 0.124758
