14
gdb 87620	2.86288	1.56794	1.18737	2.2302	63.95	-0.2616	-0.0372	0.2244	999.1988	0.100904	-473.850774	-473.843346	-473.842402	-473.882808	27.844	
O	 0.0351451072	 1.3775692682	-0.0566231761	-0.417792
C	 0.0597937972	 0.0005680032	 0.0387190423	 0.11552
C	-0.3678103976	-0.7234471073	 1.2637412325	-0.357527
C	-1.286539259	-0.7463238277	 0.0422102924	 0.112202
N	-2.4731424169	 0.0550393008	 0.008633964	-0.322725
C	-3.2804005774	-0.6079759096	-0.7190632504	 0.105906
O	-2.8588003191	-1.8053947011	-1.2214959499	-0.211917
C	-1.5364438702	-1.9673452987	-0.7541088064	 0.40735
O	-0.8721324174	-2.9220270907	-1.0125756951	-0.334945
H	-0.8702544498	 1.669275885	 0.1170075581	 0.305619
H	 0.8435414972	-0.4417889383	-0.5681670712	 0.139992
H	 0.1127110493	-1.6662884154	 1.5022524357	 0.150989
H	-0.734472667	-0.14249372	 2.1023625081	 0.143661
H	-4.2868703165	-0.3189331883	-0.9926497239	 0.163668
