25
gdb 105235	1.79832	1.3911	1.11855	1.036	89.12	-0.2438	0.0839	0.3277	1335.4677	0.2258	-389.477861	-389.46658	-389.465636	-389.514088	41.64	
C	 0.9270663515	 1.2239310511	 0.2929088999	-0.249382
O	 0.0814385987	 0.1740289298	-0.131046427	-0.28639
C	 0.5212960662	-0.533402882	-1.2677600287	 0.438714
C	 1.7052649094	-1.4496942768	-1.0502151257	-0.378378
C	 0.3043956862	-2.0215839951	-1.1684922307	-0.044788
C	-0.3806315477	-2.6476370628	 0.0259107003	-0.404393
C	 0.2640388404	 0.2253406786	-2.5727720666	-0.027671
C	 0.9071335407	-0.3987703443	-3.8178258683	-0.409975
C	-1.2483292257	 0.4196189669	-2.7699777293	-0.382681
H	 1.9521433396	 0.8727915455	 0.4768373143	 0.106121
H	 0.9703916612	 2.0495368186	-0.4310534114	 0.108681
H	 0.509146315	 1.606211317	 1.2276793672	 0.123591
H	 2.416559262	-1.6230222038	-1.8493522167	 0.107934
H	 2.1421043107	-1.4405688427	-0.0565139341	 0.110334
H	 0.08915792	-2.5146683631	-2.1130480405	 0.080386
H	-0.1909554735	-2.0673618331	 0.9309110922	 0.126519
H	-1.4657429818	-2.690174087	-0.1185448418	 0.114919
H	-0.0243399869	-3.6711002348	 0.1868119572	 0.109257
H	 0.7147741063	 1.2202856255	-2.4514742687	 0.070155
H	 0.5252326931	-1.4063860174	-4.0153386171	 0.118278
H	 0.6774537364	 0.2103455967	-4.6978788655	 0.113299
H	 1.9960208769	-0.4571891303	-3.7340397193	 0.115479
H	-1.703418306	 0.8484470988	-1.8740046202	 0.127023
H	-1.4524322453	 1.0843003847	-3.6157567956	 0.102432
H	-1.7395180973	-0.53933692	-2.9711670341	 0.110535
