17
gdb 33770	3.61831	1.43505	1.22299	3.8542	76.93	-0.2482	-0.0126	0.2356	1020.5193	0.138837	-380.860846	-380.853771	-380.852827	-380.89208	28.584	
N	 0.0241628096	-1.1610890605	-0.053197778	-0.336308
C	-0.002312499	-0.0055760435	-0.0259809783	 0.196609
C	-0.0270020625	 1.4477484643	 0.031303799	 0.161646
C	-0.2530007864	 2.1233079685	 1.417750661	-0.252019
C	 0.7160335008	 3.1907826684	 0.8429289126	-0.06328
N	 1.3226286889	 2.1362234796	-0.0714788704	-0.342175
C	-0.0705746505	 4.1356687082	-0.0402749812	-0.031047
C	-0.8662369586	 3.5791404459	-0.9512174543	-0.067177
C	-0.9334050801	 2.0720320417	-1.0541873476	-0.263659
H	-1.2665674544	 2.422946827	 1.6935327159	 0.11291
H	 0.2033175019	 1.5306581716	 2.2138523322	 0.11613
H	 1.419951398	 3.6872101712	 1.5102237109	 0.080029
H	 1.973150665	 1.5862352827	 0.4914219515	 0.227435
H	 0.0203530814	 5.2082089439	 0.0885685298	 0.099089
H	-1.4707052686	 4.165207984	-1.636300637	 0.101723
H	-0.5931434421	 1.7353635217	-2.0405167288	 0.13677
H	-1.9632585334	 1.7129204752	-0.9336412373	 0.123325
