14
gdb 44989	3.37959	1.32557	1.10042	4.8509	66.97	-0.2938	-0.0157	0.2781	1061.2467	0.101396	-436.724365	-436.717139	-436.716195	-436.756319	27.285	
O	 0.1019337687	 0.1052364833	-0.4207578696	-0.30215
C	-0.0072003094	 1.2206604493	-0.0213370261	 0.411025
C	-1.2842438831	 2.0412561075	 0.1906942106	-0.376353
C	-0.8198767322	 3.3328181059	 0.8205134028	-0.110744
C	-0.0657718129	 3.2586230755	 2.125438244	-0.331677
C	 0.699077899	 3.2393873787	 0.8233656071	 0.285499
O	 1.09016289	 1.9681920687	 0.3530522028	-0.246226
C	 1.5675292444	 4.3104245963	 0.4268968454	 0.246943
N	 2.247950508	 5.1955429533	 0.1270999939	-0.33061
H	-1.7609745835	 2.2018997378	-0.7806702431	 0.160139
H	-1.9787325259	 1.4612836823	 0.8044230801	 0.157901
H	-1.2978688875	 4.2655984102	 0.5519591363	 0.135494
H	-0.010710975	 4.1638474577	 2.7184283808	 0.153657
H	-0.0648685506	 2.3316719236	 2.690138895	 0.147102
