23
gdb 115647	2.38163	1.38329	1.05255	1.0112	86.41	-0.2436	0.0859	0.3295	1267.833	0.205587	-388.262151	-388.252858	-388.251913	-388.296405	35.214	
C	-0.3567748893	 1.4954524282	-0.0399660501	-0.237451
O	-0.4810364448	 0.259954567	 0.6267694174	-0.242922
C	-1.342027763	-0.63964278	-0.0182327158	 0.119868
C	-0.8782558243	-1.3617498728	-1.3136992857	-0.263297
C	-1.5399358193	-2.6492182307	-0.7485585079	-0.311419
C	-1.4998840144	-2.0191046941	 0.6649471083	 0.323301
C	-0.3774563212	-2.4048310271	 1.6707958931	-0.262873
C	-1.3800984723	-2.1452809639	 2.8269879316	-0.20275
C	-2.5366604174	-2.2218240028	 1.7929708657	-0.300209
H	 0.3144774584	 2.1210501411	 0.5534760869	 0.125602
H	 0.067754349	 1.378326849	-1.0482034499	 0.108618
H	-1.3285906803	 2.0057560041	-0.1338250603	 0.10297
H	-2.3302912315	-0.1725247915	-0.1716756037	 0.058154
H	-1.228081934	-0.9799754184	-2.2754003181	 0.092301
H	 0.2121984851	-1.4447215076	-1.3327366147	 0.108554
H	-2.564582761	-2.7789556287	-1.1115290354	 0.099449
H	-1.0023103219	-3.5915081127	-0.8804979398	 0.097869
H	-0.1158456426	-3.4642539196	 1.5816126549	 0.088971
H	 0.5332703975	-1.8045319335	 1.651235403	 0.109983
H	-1.3941044767	-2.8585942995	 3.6543778211	 0.089306
H	-1.2666168509	-1.1367942367	 3.231820727	 0.111453
H	-3.340433958	-1.482415569	 1.8661074969	 0.089463
H	-2.9863476172	-3.2196043811	 1.7518039954	 0.095059
