23
gdb 106273	2.64574	1.2333	1.00155	1.309	87.1	-0.2614	0.0765	0.3379	1306.4867	0.204485	-388.247574	-388.237698	-388.236754	-388.281889	37.639	
C	-0.1617198907	 1.5828772906	-0.0076861562	-0.446987
C	 0.0170193037	 0.0712734869	 0.028305817	-0.03235
C	 1.1879802884	-0.6440067504	-0.7373177334	 0.321647
C	 1.4383047479	-0.6458424189	-2.2222586162	-0.513018
C	 2.1533406057	-0.1539449573	 0.3881949179	-0.30313
C	 0.8720901692	-0.6437076632	 1.1260418542	 0.358925
C	 0.6234151749	-0.650338129	 2.606749667	-0.224333
O	 1.6434329323	-1.4250895306	 3.223987636	-0.421028
C	 0.9040611404	-1.8761709602	 0.1759556651	-0.289857
H	 0.7640571064	 2.1364704649	 0.1677638671	 0.117238
H	-0.5531000528	 1.8963782155	-0.9823653438	 0.116202
H	-0.8867810669	 1.9051315149	 0.7483050247	 0.113809
H	-0.954444896	-0.4135788513	-0.1367719283	 0.053007
H	 1.5924110291	 0.3710680677	-2.600780012	 0.115772
H	 2.3303537897	-1.2317667933	-2.470171277	 0.117893
H	 0.5910988254	-1.0801207406	-2.7651697127	 0.11465
H	 3.0525412625	-0.7543372661	 0.5473305622	 0.094528
H	 2.3892339085	 0.9112873289	 0.429212879	 0.082991
H	 0.624672759	 0.3851006223	 2.9865188954	 0.084029
H	-0.3761558933	-1.0711272972	 2.8081484715	 0.082787
H	 1.4874884022	-1.423340809	 4.1728567555	 0.286894
H	-0.0456926729	-2.3971923956	 0.0155870765	 0.07759
H	 1.7289820973	-2.5775144289	 0.3229703106	 0.092739
