21
gdb 59412	2.55634	1.02254	0.98042	2.5919	80.55	-0.2464	-0.0254	0.221	1369.2448	0.178923	-424.230942	-424.220577	-424.219633	-424.266093	38.108	
C	-0.0572577108	 1.3997830773	-0.2718982123	-0.387844
C	-0.0100085023	-0.0857570641	 0.1157669589	 0.004814
C	 0.6076891679	-0.2713600524	 1.5101191494	-0.388632
C	-1.3966838338	-0.699267282	 0.0503585874	-0.030674
C	-1.9972153187	-1.1454001507	-1.24460593	-0.32574
C	-1.5643306361	-2.1934892846	-0.2359594522	 0.260584
O	-0.4567068942	-2.9674621694	-0.5968442385	-0.464538
C	-2.6387394682	-2.9210130337	 0.4920907369	 0.0991
O	-3.6691108519	-2.4200888561	 0.8754412539	-0.271124
H	 0.9455408364	 1.8391665469	-0.2575821125	 0.11213
H	-0.4739151222	 1.5349077444	-1.2744197518	 0.117983
H	-0.6801520591	 1.9686171194	 0.4281575107	 0.116189
H	 0.6207296062	-0.6103986242	-0.6122115784	 0.084583
H	-0.0007916193	 0.2213715181	 2.2771220349	 0.121556
H	 0.6841252625	-1.3296244587	 1.7847180346	 0.094385
H	 1.6137806903	 0.157460543	 1.5561887437	 0.11668
H	-2.1074612072	-0.3274987328	 0.7858469815	 0.107657
H	-3.0642949764	-1.0278619524	-1.3945186636	 0.136124
H	-1.3796203539	-1.096819021	-2.1352961499	 0.128702
H	 0.1115520833	-3.071432212	 0.1742492878	 0.290933
H	-2.4082752426	-3.998061355	 0.6568648496	 0.077133
