18
gdb 58710	2.01429	1.48361	1.21221	2.1715	71.54	-0.2699	0.0132	0.2831	1126.7523	0.14637	-439.073759	-439.064439	-439.063495	-439.107977	33.718	
C	 0.0757241868	 1.4946992993	-0.1303179171	-0.431442
C	-0.0461894593	-0.0138218046	 0.0696870758	 0.073222
O	 0.626426609	-0.4566103207	 1.2347425202	-0.43279
C	-1.5121053767	-0.5166131533	 0.0812781338	 0.102135
C	-2.1924099097	-0.5628535723	-1.3175204927	-0.117571
O	-2.0107429462	-1.9846734826	-1.3987346127	-0.265287
C	-1.6116453257	-2.064968233	-0.0172345237	-0.115443
C	-2.2587387587	 0.1070268396	 1.1636196765	 0.23256
N	-2.8179598095	 0.6138799204	 2.0402227563	-0.345855
H	 1.1312568935	 1.776646622	-0.1472472811	 0.137246
H	-0.3812692726	 1.8147837638	-1.0718253241	 0.12564
H	-0.4161172476	 2.0379190571	 0.6842506492	 0.139402
H	 0.4461886233	-0.5363538008	-0.7587483531	 0.109311
H	 0.2990331328	 0.0558936599	 1.9840973404	 0.294688
H	-3.2498408102	-0.2733106425	-1.3144920269	 0.121531
H	-1.6679720825	-0.0280567994	-2.1172241553	 0.117078
H	-0.6658980162	-2.5953167518	 0.1245335714	 0.135245
H	-2.3893538206	-2.5103665512	 0.6134891031	 0.120329
