17
gdb 69739	3.51854	1.61919	1.40859	3.2471	71.26	-0.2321	0.0282	0.2603	951.524	0.137864	-417.972695	-417.965657	-417.964713	-418.003879	27.99	
C	-0.0429005188	 1.5441247268	 0.0452036548	-0.522093
C	 0.1004467466	 0.0547934266	 0.0014750515	 0.329301
N	-0.8140092561	-0.8558185484	 0.7179656466	-0.362031
C	 0.6355774981	-0.9387707883	 0.9954820963	-0.108857
C	 1.2541526467	-1.8027398002	-0.1289540863	-0.029747
N	 0.5925309207	-3.0649788266	-0.4450269793	-0.261239
C	-0.2011562119	-2.7912301433	-1.3973302266	 0.134369
O	-0.2259235991	-1.5433296027	-1.9515465618	-0.225971
C	 0.6905010128	-0.7748455387	-1.1597368561	 0.022791
H	 0.859062499	 2.0396942214	-0.329714419	 0.127611
H	-0.8871664923	 1.8774034294	-0.5694142421	 0.138038
H	-0.2147785231	 1.8919461781	 1.069676395	 0.121265
H	-1.2367772466	-0.3215571802	 1.4763120772	 0.230577
H	 1.0212194946	-0.7836417872	 1.9961562945	 0.097359
H	 2.338348449	-1.9058976775	-0.0567727141	 0.082978
H	-0.884284045	-3.4901578338	-1.8668439359	 0.13645
H	 1.3773144254	-0.2357245055	-1.8140129347	 0.089201
