22
gdb 83263	1.79501	1.74345	1.53746	2.0247	81.45	-0.2164	0.065	0.2814	1091.1969	0.194057	-404.333585	-404.324082	-404.323137	-404.367404	36.233	
C	 0.0178907122	 1.604016242	-0.1693550813	-0.427972
C	 0.0709332596	 0.1050046102	 0.0363764807	-0.022503
N	 1.2256814327	-0.7626923861	-0.2847466139	-0.161825
C	 2.5225998454	-0.0722796672	-0.4265851279	-0.156162
C	 2.8629149598	 0.6498920145	 0.8995458729	-0.280846
C	 1.8403721246	 0.1076979112	 1.93230125	 0.05235
O	 1.2213546646	 1.1102237671	 2.7332456848	-0.434178
C	 0.7813893814	-0.6336167488	 1.1205744266	 0.330048
C	 0.1438240289	-1.8323282982	 1.7821124943	-0.486829
H	 0.7870882512	 2.1553441279	 0.3678600854	 0.133035
H	 0.0851312939	 1.8478706103	-1.2362867406	 0.115891
H	-0.9479102848	 1.9752687389	 0.188439603	 0.124121
H	-0.8515662989	-0.3742649388	-0.2930081673	 0.083681
H	 3.2690467573	-0.8398257789	-0.6550824586	 0.106151
H	 2.4972336674	 0.6117758943	-1.2812664311	 0.106448
H	 3.892793271	 0.4527900729	 1.2115358026	 0.097253
H	 2.7543907062	 1.7344170606	 0.8219693813	 0.111834
H	 2.3301436025	-0.6276762651	 2.5886164917	 0.067006
H	 1.8807744245	 1.4519537921	 3.3450756849	 0.283621
H	-0.3934842697	-1.5260672063	 2.6864873597	 0.124959
H	-0.5635135609	-2.3216241039	 1.1080363677	 0.122315
H	 0.9004511113	-2.5710912285	 2.0718908953	 0.111601
