23
gdb 100737	2.76475	0.97792	0.8517	1.5499	82.79	-0.2413	-0.0115	0.2298	1493.9437	0.201259	-425.446445	-425.434769	-425.433825	-425.484044	40.805	
C	 0.0591990027	 1.3779404114	 0.1107763183	-0.237653
O	-0.0617136959	-0.0141823613	-0.0636497305	-0.253906
C	 0.6666993029	-0.5426554592	-1.1670215105	 0.153354
C	 2.1556918863	-0.6773553385	-0.8351943718	-0.421857
C	 0.0186484528	-1.8960144227	-1.5083084961	-0.097946
C	-1.4973514345	-1.7563983261	-1.760899437	-0.407141
C	 0.6480358409	-2.51913798	-2.7560469797	 0.392767
C	 0.747513937	-4.0330085972	-2.7822708894	-0.481606
O	 1.0235542906	-1.8390349877	-3.685484181	-0.317844
H	 1.0780440813	 1.6848012136	 0.3887293003	 0.106909
H	-0.2285187832	 1.9278202582	-0.7988103348	 0.105756
H	-0.6174819926	 1.6600767137	 0.9216408167	 0.124917
H	 0.5483219812	 0.1187117762	-2.0384586892	 0.084354
H	 2.7090247958	-1.0616025562	-1.6956981805	 0.134242
H	 2.5912333172	 0.2904956443	-0.5718294242	 0.116821
H	 2.2971449759	-1.354484532	 0.0139269762	 0.115239
H	 0.1653243611	-2.5740186613	-0.6577738531	 0.079783
H	-1.961416395	-2.7268351125	-1.9627511228	 0.111201
H	-1.9752114822	-1.3162317219	-0.8850226457	 0.141586
H	-1.6810211721	-1.107201426	-2.623039475	 0.128955
H	-0.196950544	-4.4969751471	-2.4794669261	 0.137902
H	 1.0337495419	-4.3748272622	-3.777695281	 0.140531
H	 1.5038909718	-4.3559508852	-2.0564297532	 0.143636
