22
gdb 6979	2.39278	2.12978	1.54588	1.3507	76.77	-0.2584	0.0704	0.3288	964.2655	0.200356	-350.226972	-350.217978	-350.217034	-350.259777	34.677	
C	 0.284382448	 1.5009430166	-0.0311068648	-0.418432
C	 0.0150932988	-0.0150546559	-0.0066910689	 0.288102
C	-1.4942271451	-0.2674949475	 0.0665728131	-0.442214
C	 0.6846423439	-0.7146315388	-1.2106446401	-0.230412
C	 2.1811057053	-0.8760520108	-0.8309281951	-0.213984
C	 2.2336357906	-0.7728544356	 0.7181800382	-0.253898
C	 0.7606001842	-0.6892193754	 1.1683706203	 0.136442
O	 0.5457104553	 0.0297632001	 2.3722309083	-0.446347
H	 1.3491542506	 1.7316167626	-0.1339148636	 0.107224
H	-0.2367779656	 1.9612845544	-0.8773570145	 0.103251
H	-0.0683450311	 1.9719525158	 0.889354052	 0.130387
H	-2.0138356444	 0.18333084	-0.7859943863	 0.105233
H	-1.7163779239	-1.3407021352	 0.0645628222	 0.101845
H	-1.9129460666	 0.1619809416	 0.9822634326	 0.123573
H	 0.2268907352	-1.7005421449	-1.3565262502	 0.089637
H	 0.5420339305	-0.1595791995	-2.1429035031	 0.091512
H	 2.5809942303	-1.8264284313	-1.194190836	 0.096331
H	 2.7894091586	-0.0907789152	-1.2882404977	 0.102897
H	 2.7556317509	-1.6167501409	 1.1801286645	 0.086711
H	 2.748318246	 0.1375416215	 1.0408348176	 0.105708
H	 0.3581304357	-1.7115433197	 1.269992237	 0.054479
H	 0.9894913129	-0.4382363819	 3.0855568644	 0.281954
