18
gdb 16463	3.14175	2.74728	1.81482	1.5913	70.85	-0.2346	0.0865	0.3211	777.7785	0.155566	-347.764461	-347.758075	-347.75713	-347.794476	26.404	
C	 0.0179406457	 1.5213580035	-0.0424995062	-0.507593
C	 0.0319004074	 0.0112166611	 0.0026563982	 0.319084
C	 0.4668958347	-0.7290929697	-1.2628180058	-0.136887
O	 0.3571971202	-2.0991503163	-0.8540474692	-0.282091
C	-0.088502765	-1.9695641885	 0.4788000258	 0.150462
C	 0.648224175	-0.8062008477	 1.2035788716	-0.124649
C	-0.6319013613	-0.5559314438	 2.0314952584	-0.264538
C	-1.1520745506	-0.8406757505	 0.6049094852	-0.124633
H	 1.0160331044	 1.9145101094	-0.267445541	 0.120412
H	-0.6606487189	 1.882366748	-0.8238745488	 0.12042
H	-0.3050086716	 1.9606388428	 0.9052842861	 0.123449
H	-0.1914124555	-0.5352481672	-2.1200889704	 0.09755
H	 1.500248125	-0.5028523915	-1.5575312256	 0.097551
H	-0.2251664922	-2.9441380845	 0.9458979168	 0.084529
H	 1.6873257019	-0.7887488133	 1.5376863832	 0.068377
H	-0.872035297	-1.3000672477	 2.7964829468	 0.092291
H	-0.7809031959	 0.4526428004	 2.4214837895	 0.097893
H	-2.1842450761	-0.8628697546	 0.2502295455	 0.068375
