18
gdb 105763	2.43562	1.41929	1.17972	2.1333	72.32	-0.2619	0.0149	0.2768	1117.9155	0.146988	-439.085475	-439.076285	-439.075341	-439.120529	32.32	
C	 0.1693226363	 1.1123054014	-0.3021528669	-0.265315
O	 0.3047695947	-0.2560572211	 0.0502181695	-0.280806
C	 0.6685946624	-0.5389501702	 1.3875111652	 0.227834
C	 0.731930805	-2.0744541448	 1.4964871071	-0.265852
C	 2.1097046388	-2.365672764	 0.8918464911	-0.080483
O	 2.9254294885	-1.2266397793	 1.1815541977	-0.260749
C	 2.1393369349	-0.1766828786	 1.710545187	-0.098828
C	-0.2775135848	 0.0704149524	 2.3419860473	 0.240787
N	-1.0172220568	 0.5642519765	 3.0798924705	-0.342293
H	 1.1181580985	 1.6586287601	-0.226244426	 0.119462
H	-0.1581759483	 1.1238058326	-1.3431962167	 0.141414
H	-0.5829568358	 1.615617789	 0.3182940223	 0.139349
H	 0.6855692652	-2.3710680148	 2.5471957312	 0.129702
H	-0.0942363273	-2.5374288172	 0.9559979822	 0.135032
H	 2.5755408508	-3.2574691705	 1.323430398	 0.111575
H	 2.0441823953	-2.495747515	-0.1949824765	 0.116676
H	 2.4430740241	 0.7696761781	 1.2535772379	 0.121215
H	 2.2705618585	-0.0892890546	 2.7989400091	 0.111279
