17
gdb 54464	3.47479	1.37006	1.13174	3.953	72.84	-0.2169	0.0201	0.237	1074.4119	0.136643	-417.953494	-417.945718	-417.944774	-417.985816	30.824	
N	 0.077581818	 1.1793045651	-0.4628867582	-0.541384
C	-0.0213567638	-0.0121581568	 0.2196101679	 0.299757
O	 0.9044074289	-0.4657098188	 0.8694294488	-0.373618
C	-1.3137357344	-0.7207118585	 0.0674709781	 0.237576
C	-1.8177296006	-1.6261071665	 1.1781099983	-0.327623
C	-1.4527631246	-2.2443427978	-0.124882764	-0.089269
C	-2.5021918743	-1.9769299866	-1.2389788789	-0.051097
N	-3.6342077255	-1.2013461676	-0.666508509	-0.338287
C	-2.3763531384	-0.5195170112	-1.0591787323	-0.154191
H	 0.885629211	 1.7403451769	-0.2394426199	 0.257726
H	-0.7580137278	 1.6788917096	-0.7198707133	 0.253614
H	-1.0798158629	-1.7627248821	 1.9605915989	 0.140938
H	-2.8526296316	-1.5550348755	 1.4849852629	 0.145139
H	-0.6222978952	-2.9274425353	-0.2403979647	 0.114952
H	-2.6185435223	-2.5593870818	-2.1429154607	 0.100908
H	-4.3037310797	-1.0532100712	-1.4211500868	 0.232813
H	-2.3679361568	 0.2679005681	-1.802189477	 0.092049
