18
gdb 89864	3.04175	1.1319	0.96383	3.6093	77.78	-0.2481	0.0283	0.2764	1262.7731	0.146712	-401.939352	-401.9307	-401.929756	-401.973132	32.276	
C	-0.6866054391	 1.3258269412	 0.2575244324	-0.397277
C	 0.0055865837	-0.0055809747	 0.0632580804	 0.149473
C	 0.7827714009	-0.2379278758	-1.2574074079	-0.38428
C	 1.9954476298	-0.3106654317	-0.3442687579	 0.467098
C	 3.2026415233	-1.1691136971	-0.3845970202	-0.355889
C	 3.3548172225	 0.3548924132	-0.5160173764	-0.264769
C	 3.6901303598	 0.9395531263	-1.778437321	 0.289744
N	 3.9205768919	 1.406166184	-2.812923461	-0.344182
O	 1.2458480007	-0.103150173	 0.8349660151	-0.318449
H	-0.0297468997	 2.1531155298	-0.0277617307	 0.128734
H	-1.5935819016	 1.3737441924	-0.3549278415	 0.123412
H	-0.973954289	 1.4577127439	 1.3051177763	 0.132233
H	-0.6580476449	-0.8342798884	 0.3350933738	 0.089228
H	 0.5433046542	-1.1596656381	-1.7896353749	 0.122377
H	 0.7782863533	 0.6008627398	-1.9561456341	 0.136813
H	 3.5486914659	-1.5959895544	 0.5501166923	 0.140809
H	 3.3860392001	-1.7691342941	-1.2690874517	 0.142153
H	 3.7326846283	 0.8757383467	 0.357319537	 0.142773
