18
gdb 94342	2.84421	1.27993	1.07252	2.8834	79.21	-0.2426	0.0278	0.2704	1171.928	0.146456	-401.87199	-401.863288	-401.862344	-401.905369	33.438	
O	 0.4730697425	 0.8081980713	-0.6168299018	-0.440179
C	 0.1935361971	-0.2910217123	 0.1937365671	 0.108113
C	-0.0542942988	-0.0774532562	 1.7244490145	-0.251779
C	-1.2919099582	-1.0225432177	 1.6351968858	-0.324247
C	-1.234267766	-0.8529705823	 0.1160814779	 0.315665
N	-2.1877237384	-0.094565033	-0.6853385323	-0.378321
C	-1.9467534856	-1.5351586729	-0.9973147179	-0.346218
C	-1.299884676	-1.8505933446	-2.2398003954	 0.375448
C	-0.7501439912	-2.1480536278	-3.266574882	-0.426679
H	-0.3833056515	 1.1047098713	-0.9604039955	 0.291801
H	 0.9496344631	-1.0654229534	 0.0178129678	 0.08843
H	 0.7481445483	-0.3656640203	 2.40566658	 0.103623
H	-0.3423752098	 0.9580827032	 1.9202756297	 0.110813
H	-1.0719390427	-2.0465906919	 1.9497076805	 0.117076
H	-2.2102623692	-0.6950584525	 2.1304837966	 0.104564
H	-3.0782621739	 0.0073674472	-0.2035179431	 0.23851
H	-2.7345449894	-2.2268030362	-0.7033779327	 0.112546
H	-0.2602677203	-2.3960351817	-4.1754626291	 0.200834
