17
gdb 54729	3.04465	1.51756	1.4952	4.7625	72.31	-0.2284	0.0324	0.2608	967.8699	0.134877	-417.928833	-417.920913	-417.919968	-417.961586	30.155	
C	-0.3799061601	 1.3008622635	-0.3924251193	-0.473889
C	-0.2275508139	-0.1909965144	-0.1755181782	 0.410673
O	 0.7836739521	-0.8143723713	-0.3905447237	-0.348106
N	-1.3149395688	-0.7830101198	 0.4902888867	-0.065188
C	-2.734588142	-0.765526169	 0.285812527	-0.082536
C	-3.1395489904	-1.0049938146	-1.2163454042	-0.071895
N	-1.8941145921	-1.0443503542	-2.0008768915	-0.324357
C	-2.3309246521	-2.2408421943	-1.2495449221	-0.063054
C	-1.9303191894	-2.04603102	 0.2596370838	-0.059845
H	 0.4892715484	 1.6686758988	-0.9374325403	 0.14059
H	-1.2912621968	 1.5246414387	-0.9517750788	 0.134051
H	-0.4420153232	 1.812339708	 0.5741059667	 0.135588
H	-3.3946446723	-0.3691122927	 1.0481534736	 0.107017
H	-4.0997793601	-0.7738303575	-1.6571875773	 0.10315
H	-2.1281506552	-1.182787806	-2.9823333945	 0.240585
H	-2.5112739088	-3.1866329725	-1.7409964881	 0.106296
H	-1.8634700153	-2.8471723326	 0.9852639603	 0.11092
