19
gdb 126919	4.97863	0.8073	0.70235	3.278	80.56	-0.183	0.0521	0.2351	1608.7314	0.160923	-415.404208	-415.394686	-415.393742	-415.438757	34.98	
C	-0.0965745965	 1.5772799025	-0.0192731319	-0.401765
C	-0.0387035706	 0.0556668811	 0.058165622	-0.107391
N	-1.3765067821	-0.5158649635	-0.0533875463	-0.413559
C	-1.4892053556	-1.8986357279	-0.0188697749	 0.478505
C	-0.5390577108	-2.9027957899	-0.072696227	-0.378884
C	-1.3005555875	-4.1032114541	-0.0811741594	 0.376625
N	-0.8012990985	-5.4032565983	-0.1915757593	-0.591508
N	-2.6044116168	-3.8808453118	-0.0239981693	-0.315454
N	-2.6994197708	-2.5099780443	 0.0250995971	-0.300482
H	 0.9089977304	 2.0021526278	 0.0423117943	 0.124573
H	-0.5555264172	 1.9022715084	-0.9573492453	 0.131798
H	-0.6821644166	 1.9938033296	 0.8088381514	 0.115325
H	 0.5583623611	-0.3382465797	-0.7718570785	 0.123084
H	 0.4652021917	-0.2582328666	 0.9874018533	 0.097684
H	-2.0439333188	-0.050099718	 0.549029217	 0.229593
H	 0.5320336175	-2.7954159442	-0.09490566	 0.087348
H	 0.0250159716	-5.5592589432	 0.3703700457	 0.240203
H	-1.5132177072	-6.085776613	 0.0377026843	 0.245425
H	-3.5982160633	-2.082837775	-0.1113791433	 0.258878
