21
gdb 53226	4.56085	0.69315	0.67137	1.2614	89.6	-0.2353	0.0553	0.2906	1777.5433	0.179726	-387.064852	-387.054371	-387.053427	-387.101836	38.036	
C	 0.6748976055	 1.4883246982	-0.779155909	-0.498668
C	 0.3285709177	 0.1364153152	-0.3638985246	 0.103283
C	 0.04444489	-0.9837675004	-0.0222358778	 0.039815
C	-0.3119427569	-2.3202567283	 0.4072535295	-0.16361
C	-0.2380230296	-2.665054413	 1.9305321209	-0.261564
C	-1.5527231964	-3.468696135	 1.7899227779	 0.416723
C	-1.347147699	-4.9714511717	 1.6236425669	-0.451945
O	-2.4415839881	-3.1914648246	 2.8554750301	-0.477845
C	-1.8227231693	-2.7224345605	 0.4467120437	-0.284829
H	 1.4578974001	 1.4834595509	-1.5458508235	 0.144678
H	-0.1922009205	 2.0123758867	-1.1969394785	 0.14516
H	 1.0433506706	 2.0829254734	 0.0644660381	 0.145773
H	 0.254245193	-3.0591699927	-0.1702047099	 0.093989
H	 0.6489756777	-3.1930133142	 2.2882265572	 0.098763
H	-0.4086486543	-1.7768473548	 2.5414084632	 0.120775
H	-0.9855766874	-5.4106313062	 2.5586460901	 0.12463
H	-2.2894049114	-5.4642580122	 1.3513403948	 0.105578
H	-0.6226618533	-5.1943408849	 0.8337548906	 0.121261
H	-3.2253804333	-3.7409496883	 2.7456601677	 0.271739
H	-2.4542254268	-1.8494433867	 0.6225568788	 0.11344
H	-2.2110510284	-3.2975376208	-0.3980042864	 0.092855
