14
gdb 105169	2.8818	1.14642	0.96796	3.0213	64.29	-0.2822	-0.078	0.2042	1185.5926	0.0982	-473.803958	-473.795154	-473.79421	-473.837942	30.77	
O	 0.1892442786	 1.3568301443	-0.4446099386	-0.413926
C	 0.1214279968	 0.0409040761	 0.0503542839	-0.14394
C	-1.3047618768	-0.4832648837	 0.0778328008	 0.254376
O	-1.8318948095	-1.1186941522	-1.0966405759	-0.244163
C	-1.6163971438	-1.9409940326	 0.0376209347	-0.163491
C	-0.5461800276	-2.9132414023	-0.0324496186	 0.318291
N	 0.2938560949	-3.7060240784	-0.0620805291	-0.313636
C	-2.3272572171	 0.3703166341	 0.7769539143	 0.131392
O	-2.0412593849	 1.3524990762	 1.4135949436	-0.253554
H	-0.2258181883	 1.9259608096	 0.2147126132	 0.303764
H	 0.7171665025	-0.5897118817	-0.6142221194	 0.144388
H	 0.5392783195	-0.0460742546	 1.0645005231	 0.118526
H	-2.5180099079	-2.3081175566	 0.5269109206	 0.149933
H	-3.3760384364	 0.0295518516	 0.6453069276	 0.112039
