21
gdb 112022	3.35332	1.23945	1.0932	1.4265	83.02	-0.2289	0.0223	0.2512	1183.4631	0.18491	-387.079237	-387.071239	-387.070294	-387.1116	32.098	
O	-0.1126666661	 1.4985703023	 0.0683986716	-0.423317
C	 0.0337248276	 0.0848198967	 0.0572645755	-0.091734
C	-1.3645977221	-0.5314499796	-0.052695445	-0.013165
C	-2.0583031587	-0.1437453181	-1.3433032048	-0.064796
C	-2.5507097031	-1.0983883366	-2.1335589867	-0.077266
C	-2.3911151489	-2.5427479269	-1.7052048587	-0.048164
C	-2.7593062632	-2.6438592363	-0.1922854999	-0.228489
C	-1.3390628204	-2.0688081283	 0.0811177499	-0.037007
C	-0.9117894446	-2.7491119445	-1.2559245817	-0.220233
H	 0.7631688127	 1.8930568318	 0.032789469	 0.286691
H	 0.6569230564	-0.2429382361	-0.7885492853	 0.087899
H	 0.5153599822	-0.2698008971	 0.9835446495	 0.080718
H	-1.9371244803	-0.1189173691	 0.7923282011	 0.086671
H	-2.123748029	 0.9115431827	-1.5846178687	 0.099907
H	-3.0556598067	-0.8685907258	-3.067099916	 0.08303
H	-2.8347923735	-3.2519940185	-2.4055042813	 0.055402
H	-3.6241158597	-2.0728062441	 0.155391142	 0.093838
H	-2.8395289476	-3.6822131454	 0.1415926514	 0.091165
H	-0.8288203786	-2.3764471938	 0.9984245566	 0.05482
H	-0.6762439772	-3.8052857487	-1.0978990437	 0.091842
H	-0.1321566293	-2.2832131046	-1.8631958846	 0.092188
