14
gdb 130978	5.31095	0.84224	0.78022	2.2184	65.38	-0.243	-0.0467	0.1963	1382.5979	0.100594	-470.006548	-469.998319	-469.997375	-470.041699	27.99	
O	-0.2719015455	 0.7299608375	 0.7328806519	-0.218887
C	 0.3352406758	 1.6295325113	 0.2202954045	 0.151502
C	 1.3810717655	 1.4213959917	-0.8767387332	-0.262341
N	 1.5104810331	 2.5531266947	-1.7688073645	-0.399242
C	 2.372819539	 3.573983528	-1.5823960626	 0.556466
N	 2.4829344385	 4.6581524493	-2.309782604	-0.375823
C	 3.5134270641	 5.2925861556	-1.6714808528	 0.056515
N	 4.0226162178	 4.6899310458	-0.633796241	-0.136762
O	 3.2357887275	 3.4997793171	-0.5634381085	-0.221383
H	 0.1833651684	 2.6941388454	 0.5098066274	 0.096747
H	 2.3465073561	 1.2433298005	-0.390237819	 0.177871
H	 1.1268018922	 0.5193294445	-1.4395079447	 0.150508
H	 0.8382266504	 2.6887417606	-2.5059379798	 0.27856
H	 3.9039320573	 6.2480181078	-1.9934709838	 0.146269
