16
gdb 44116	2.51221	1.65423	1.33435	2.856	75.	-0.245	0.0185	0.2635	997.7565	0.124477	-400.717668	-400.710015	-400.709071	-400.749994	29.69	
N	-0.0066499203	 0.9107324578	 0.7561851712	-0.532105
C	-0.0280463623	-0.1520413745	 0.0826406978	 0.41374
C	-1.2719997912	-0.9447047025	-0.2940419668	-0.327857
C	-0.7374333987	-2.1475931557	-1.0452264081	-0.103344
C	 0.7440319381	-1.9509707731	-1.1041223744	 0.07716
O	 1.0938704059	-0.7704629967	-0.4297197352	-0.229265
C	 0.1897530666	-3.1000166974	-0.2732679066	-0.269526
C	 0.2460546265	-3.0950530669	 1.1561525853	 0.333679
C	 0.2782332768	-3.085179624	 2.358403185	-0.432991
H	 0.9510190916	 1.242054146	 0.8805591418	 0.226704
H	-1.8318329988	-1.1999444737	 0.6090863105	 0.152877
H	-1.9210563186	-0.3349012623	-0.9284409894	 0.138888
H	-1.2964571442	-2.5548335826	-1.8778710558	 0.108478
H	 1.3706426522	-2.1460937573	-1.9653350936	 0.119011
H	 0.3073826714	-4.0749828056	-0.7390861557	 0.121766
H	 0.3193630552	-3.0737486715	 3.4194334541	 0.202786
