16
gdb 30225	3.66556	1.29956	1.01069	1.6998	72.51	-0.1958	0.0384	0.2342	1136.336	0.126495	-434.050629	-434.042595	-434.041651	-434.083474	29.842	
N	 0.0459200203	 1.560178918	 0.1617813518	-0.502282
C	 0.0414656813	 0.1311659159	-0.0727901225	-0.126242
C	-1.3732434289	-0.5729360618	 0.0753875942	-0.173378
N	-1.2134460603	-1.0222373648	-1.3236404633	-0.046692
C	 0.0237541406	-0.472669547	-1.484895346	 0.330084
N	 0.6329112387	-0.8452047272	-2.5792470475	-0.362827
C	-0.2911308136	-1.7054442264	-3.16875345	-0.232503
C	-1.4223316625	-1.8564252645	-2.38253921	 0.292099
O	-2.5690772894	-2.5660679075	-2.4987480886	-0.432486
H	 0.9963496354	 1.9148886155	 0.1253102371	 0.240734
H	-0.466092881	 2.0370159403	-0.5755282696	 0.232741
H	 0.7905520302	-0.3249192979	 0.5809818086	 0.107481
H	-1.4161290029	-1.3902994425	 0.7990327497	 0.135221
H	-2.2108214221	 0.1119078864	 0.2254125323	 0.131286
H	-0.1043662792	-2.1564145429	-4.1324784205	 0.096813
H	-2.5350981968	-3.0642792336	-3.3216244455	 0.309951
