22
gdb 113326	2.46925	1.06242	0.85891	1.4426	90.79	-0.2289	0.0445	0.2735	1475.5069	0.191026	-367.154327	-367.143715	-367.14277	-367.189952	39.122	
C	 0.3604086479	 1.5725221076	 0.072082452	-0.377347
C	-0.1902102654	 0.1598621634	-0.1146026863	-0.114544
N	 0.5427059463	-0.5145974359	-1.1823000004	-0.113037
C	 1.6753480661	-1.3502499918	-0.8323831111	-0.280965
C	 0.4200595731	-1.9721162006	-1.3835077185	 0.100438
C	-0.4377418478	-2.8490399955	-0.472396081	-0.247983
C	 0.0091197973	-4.315399557	-0.4664223871	-0.385796
C	 0.3919669953	-2.3625028238	-2.7765950693	 0.310537
C	 0.3527280453	-2.7172646283	-3.9250335765	-0.432255
H	 1.4122069602	 1.5433081012	 0.375107873	 0.118675
H	 0.2939805354	 2.1367590132	-0.8618632223	 0.1301
H	-0.2003966664	 2.105098791	 0.8464690644	 0.110838
H	-0.1447998379	-0.3765524941	 0.8469435601	 0.084799
H	-1.2448339852	 0.2051238114	-0.4100149452	 0.108021
H	 2.5604522472	-1.2541338456	-1.4549285109	 0.120259
H	 1.8730064899	-1.5310024857	 0.2254429192	 0.104652
H	-0.4035705783	-2.4561864947	 0.5473194843	 0.099974
H	-1.4811732467	-2.7836462009	-0.8038299888	 0.108981
H	 1.033986943	-4.4127104284	-0.0931514488	 0.11623
H	-0.6429291326	-4.914832158	 0.1759460476	 0.112136
H	-0.0218191106	-4.7391014511	-1.4739072846	 0.135278
H	 0.324901194	-3.0128266565	-4.94448195	 0.191009
