15
gdb 20246	4.13095	3.03493	2.47654	2.0777	68.87	-0.2074	-0.0316	0.1758	618.6837	0.121361	-325.406725	-325.401739	-325.400794	-325.435317	21.808	
C	-0.2066368824	 1.3172842788	 0.1006739456	-0.274886
C	 1.3819274068	 1.2548600001	 0.0583472652	-0.040834
C	 2.1797180162	 0.0927929641	 0.7359202174	-0.070565
C	 1.5467848165	-1.2875760673	 0.5024558277	-0.066312
C	 0.1025631113	-1.0918599719	 0.2988941229	-0.100814
C	-0.0401187874	-0.0586984047	-0.5636946385	 0.005629
C	 1.3415441521	 0.2880373697	-1.1414419747	-0.005615
N	 2.3654838826	-0.6497070115	-0.5547694125	-0.145317
H	-0.7225287489	 1.3418405379	 1.0621980841	 0.110197
H	-0.5462342525	 2.1444305034	-0.5325611115	 0.108791
H	 1.9324997801	 2.1967973956	 0.0186707841	 0.09333
H	 2.9997934298	 0.2214950567	 1.4333889186	 0.102792
H	 2.0034849948	-2.1419147455	 0.9921382402	 0.098861
H	-0.5974730735	-1.3053115543	 1.1006460784	 0.102563
H	 1.4674003547	 0.569737999	-2.1844404073	 0.082178
