18
gdb 45476	2.99201	1.74393	1.53718	3.4191	75.67	-0.2504	0.0265	0.2769	931.5258	0.151802	-401.973579	-401.967055	-401.96611	-402.004403	27.109	
N	-0.0945120523	 1.2652692727	-0.5049313063	-0.560003
C	-0.0414484364	 0.079369682	-0.0700600091	 0.415549
O	 1.1088465649	-0.5698880837	 0.2894936905	-0.257648
C	 0.8208138458	-1.8992707059	 0.7903811463	 0.068278
C	 0.8012752508	-1.8350290312	 2.3217024031	-0.203368
C	-0.5469398456	-1.1386282086	 2.6384315767	-0.24462
C	-1.4408071394	-1.4950435697	 1.4468156879	-0.050974
C	-0.6331777545	-2.2037571936	 0.3924831944	-0.100006
C	-1.1965239923	-0.843191504	 0.0846899442	-0.125918
H	 0.8431473148	 1.6678173981	-0.5522804157	 0.219041
H	 1.5672036832	-2.5748508787	 0.3701268678	 0.089619
H	 0.7997588107	-2.8565955491	 2.7188775113	 0.102873
H	 1.674767456	-1.3138523626	 2.7211631893	 0.111424
H	-0.98063267	-1.5013456774	 3.5736379455	 0.104226
H	-0.4227179671	-0.0559604656	 2.7410121898	 0.124032
H	-2.4682521758	-1.7864294405	 1.63124992	 0.096121
H	-0.9168465018	-3.1149303084	-0.117030542	 0.097206
H	-2.046609351	-0.6879822238	-0.5655729339	 0.11417
