13
gdb 129078	2.54164	1.87727	1.21827	3.3218	74.04	-0.257	-0.0873	0.1697	960.1103	0.090356	-445.015847	-445.008537	-445.007593	-445.048145	26.9	
N	-0.0887344259	 1.3300839261	-0.4827889225	-0.453366
C	 0.0045240613	 0.1264439057	-0.0691324605	 0.253671
C	 1.2502966948	-0.5394628306	 0.3240409589	-0.022655
N	 1.4362863763	-1.6411896988	 0.9585325697	-0.162037
N	 0.4493899894	-2.3888514647	 1.5011708801	-0.1451
N	-0.8459387197	-2.0915609259	 1.8958854789	-0.053051
N	-1.5724188423	-1.302657404	 1.2677255238	-0.184975
C	-1.2319258645	-0.7153795184	 0.0044278851	 0.302684
N	-2.0012326464	-0.8523972037	-0.9900410448	-0.431001
H	 0.826861204	 1.789457401	-0.4600810027	 0.229695
H	 2.1713170549	-0.056073667	 0.0009991299	 0.134177
H	 0.8268599939	-3.0783373637	 2.1348497156	 0.290858
H	-2.8153893357	-1.415918356	-0.7255052917	 0.241099
