19
gdb 120945	3.48105	0.886	0.81293	0.7959	71.82	-0.2313	0.0709	0.3022	1448.0327	0.157177	-460.102654	-460.093322	-460.092378	-460.13718	34.454	
O	-0.0110228125	 1.4237013143	 0.0131685148	-0.423371
C	-0.0131830756	 0.0168768496	 0.2081088948	-0.072524
C	-1.3871173192	-0.504185898	-0.198803346	-0.208388
C	-1.5002433808	-2.0090013681	-0.0669531817	 0.07259
O	-1.3170233106	-2.5059722242	 1.299300607	-0.309691
C	-2.5125431016	-3.2825395514	 1.2003091385	 0.051995
C	-3.7140901305	-2.3860890051	 1.0499218543	-0.366683
C	-2.8555488456	-2.7216591233	-0.1521775923	 0.291271
O	-3.3238891421	-3.3581748371	-1.2826699462	-0.454546
H	 0.8270516566	 1.7685780351	 0.3343401424	 0.285676
H	 0.7653970855	-0.4713959234	-0.4013041976	 0.083486
H	 0.1768594641	-0.2469570453	 1.2583946932	 0.109209
H	-2.1471068998	-0.0079102962	 0.4134069698	 0.107533
H	-1.576290811	-0.2278236042	-1.2440725483	 0.106691
H	-0.779605386	-2.5165722987	-0.7230980802	 0.087559
H	-2.5166207773	-4.2824697883	 1.6161367215	 0.113031
H	-4.6640664498	-2.9131435763	 1.0495203435	 0.117636
H	-3.7236524308	-1.4004527406	 1.5065567274	 0.117626
H	-3.9879689127	-2.7955209287	-1.6957698649	 0.290901
