24
gdb 100084	3.08862	0.90987	0.84692	3.3649	85.72	-0.24	0.0307	0.2707	1511.2465	0.214923	-405.599317	-405.587813	-405.586868	-405.636197	42.204	
C	-0.0396533192	 1.4610265767	 0.2888807279	-0.403341
C	-0.0399997688	-0.0268294018	-0.0792307939	-0.18191
C	 0.732226057	-0.4249956914	-1.3648524256	 0.287376
C	 0.1969172937	 0.3507642255	-2.5830039528	-0.420225
C	 2.2392812526	-0.1579255902	-1.1928383316	-0.421621
C	 0.4895224845	-1.9513323244	-1.5624945026	-0.319611
C	 1.3230933841	-2.59308255	-2.6677519736	 0.386459
N	 2.2211684433	-3.5326329256	-2.2436887288	-0.50913
O	 1.2026441801	-2.3135205267	-3.8472098913	-0.361533
H	 0.9721469379	 1.8453060207	 0.4508431004	 0.116636
H	-0.5096884648	 2.0732423201	-0.486065977	 0.122023
H	-0.5997088074	 1.6197122078	 1.2159434556	 0.112273
H	 0.372022193	-0.59914056	 0.7632419292	 0.083932
H	-1.0805575189	-0.3599663896	-0.1903358491	 0.090613
H	 0.4449378553	 1.4141939078	-2.5135535735	 0.103781
H	 0.6175206123	-0.0466326516	-3.5080801357	 0.152765
H	-0.8939795544	 0.264037135	-2.6497712983	 0.101946
H	 2.650737612	-0.7189261904	-0.3449447595	 0.095551
H	 2.7959026339	-0.4446757497	-2.0903129149	 0.127663
H	 2.436424321	 0.902953375	-1.0144850009	 0.115586
H	 0.6650851236	-2.4672825867	-0.6110289696	 0.081844
H	-0.5621479724	-2.1112216006	-1.8248423556	 0.124426
H	 2.3989011083	-3.7073319755	-1.2710343261	 0.256787
H	 2.8368242934	-3.9399076745	-2.9290890126	 0.257711
