19
gdb 52108	5.16184	0.70843	0.67368	1.0773	76.89	-0.2377	-0.0255	0.2122	1637.0355	0.157456	-422.98676	-422.977809	-422.976865	-423.021922	32.162	
O	-0.8802071064	 0.979462473	 0.6597671894	-0.233822
C	-0.005847516	 1.0252384326	-0.1661670808	 0.157976
C	 1.2249042557	 1.8974423838	-0.0811579921	-0.267008
C	 1.3412161382	 2.8441761111	-1.2965370053	-0.341486
C	 2.6043686577	 3.655756478	-1.2753132503	 0.304058
C	 2.7772786132	 4.952406713	-0.5012931038	-0.340822
C	 3.0194093234	 4.9287750375	-1.9790571567	 0.037535
O	 4.3321032981	 4.4423591183	-2.2667777997	-0.284125
C	 3.9946430113	 3.158013676	-1.678419254	-0.127112
H	-0.0613428741	 0.403427755	-1.0918225875	 0.07
H	 1.1993095412	 2.4580642978	 0.8569487682	 0.127796
H	 2.1013757354	 1.2336015989	-0.0607589026	 0.120227
H	 1.2946281308	 2.2555784293	-2.2228420982	 0.107444
H	 0.4750733858	 3.5164220546	-1.311973032	 0.116742
H	 1.8449044054	 5.4129122165	-0.1868400775	 0.116542
H	 3.6165703951	 5.0997931814	 0.1733257217	 0.11694
H	 2.5355710417	 5.5601767647	-2.7158663319	 0.107988
H	 4.6910565497	 2.8666140735	-0.8830067973	 0.106202
H	 3.9678408539	 2.378930995	-2.4506990397	 0.104926
