23
gdb 95816	2.24344	1.44607	1.2048	0.9741	87.86	-0.2354	0.024	0.2593	1201.2198	0.206849	-388.298211	-388.288981	-388.288037	-388.331863	35.669	
C	-0.4409702258	 1.401496085	 0.8551841036	-0.385898
C	-0.054790906	-0.0873469312	 0.7325467643	-0.032295
C	 0.205420608	-0.4784519706	-0.7266824537	-0.084919
O	 1.34024913	 0.1321697059	-1.3099490412	-0.245612
C	 2.5582487322	-0.5359058647	-1.0433976157	-0.084919
C	 3.213284394	-0.1671212964	 0.2926223457	-0.032294
C	 3.6889930691	 1.3006968701	 0.299194411	-0.385898
C	 2.3809267696	-0.4570547989	 1.5220735534	-0.069159
C	 1.0580080648	-0.4247593187	 1.7001551849	-0.069159
H	 0.358297659	 2.0357418947	 0.4630579964	 0.136654
H	-1.3543295629	 1.6132363212	 0.2883821831	 0.108619
H	-0.6164565054	 1.6809308582	 1.8983470505	 0.111
H	-0.9328016482	-0.6770411885	 1.0354730427	 0.074218
H	 0.2902170297	-1.5738434228	-0.8050571822	 0.085349
H	-0.6521153203	-0.1653191544	-1.3344097668	 0.096613
H	 2.4033390357	-1.625443856	-1.0894905963	 0.085349
H	 3.238675325	-0.2603401094	-1.8581587878	 0.096614
H	 4.11084226	-0.8001362369	 0.356545502	 0.074216
H	 2.8458369018	 1.974990759	 0.1280960634	 0.136656
H	 4.1470715161	 1.5647224682	 1.2570670771	 0.110999
H	 4.4291597396	 1.4720632387	-0.490179304	 0.108619
H	 2.9796815589	-0.6649814253	 2.4084795398	 0.082623
H	 0.7055466551	-0.6094631972	 2.7146070899	 0.082624
