23
gdb 100320	1.91307	1.40754	1.10775	2.4545	81.39	-0.2515	0.0827	0.3343	1267.3771	0.203824	-425.397467	-425.38702	-425.386076	-425.43261	39.205	
C	 0.4690094502	-0.6500737305	 1.1908609452	-0.244831
O	-0.0140619959	-0.1783484341	-0.0469718457	-0.294587
C	 0.7379629047	-0.5052479854	-1.2372490806	 0.330644
C	 0.7380466403	-2.0200014482	-1.4889747478	-0.436087
C	-0.0961851061	 0.1959132323	-2.3292151174	-0.086959
O	-1.4519496484	-0.1937576464	-2.2685257687	-0.430378
C	 2.1718274553	 0.0109364669	-1.1411974022	-0.020676
C	 2.8332343909	 0.8498213612	-2.2131536771	-0.284764
C	 2.4855555454	 1.4637152698	-0.8841019064	-0.268556
H	 0.4650218712	-1.746666798	 1.2574756209	 0.10892
H	 1.4835999225	-0.2882571264	 1.4027620767	 0.112277
H	-0.2048443174	-0.2579193211	 1.9571835244	 0.125972
H	-0.2856021787	-2.3813760603	-1.6062610508	 0.131663
H	 1.2922159222	-2.2400997399	-2.4067399746	 0.120093
H	 1.221728323	-2.5682695851	-0.6756172319	 0.109607
H	 0.0025320463	 1.2871575889	-2.2212171693	 0.085684
H	 0.2761144924	-0.0839983304	-3.31860164	 0.106345
H	-1.6875042066	-0.124363386	-1.3342289351	 0.287031
H	 2.8422725176	-0.6930528297	-0.6552953709	 0.082304
H	 3.8753198281	 0.6476360962	-2.4349190059	 0.111395
H	 2.2536039659	 1.151901043	-3.0773051868	 0.121371
H	 1.6537542892	 2.1581436291	-0.8479032958	 0.123903
H	 3.287587858	 1.6972579944	-0.1925922902	 0.109629
