21
gdb 95288	2.08018	1.79297	1.37167	0.5866	77.17	-0.249	0.0667	0.3157	1064.6846	0.183061	-424.228342	-424.219841	-424.218897	-424.260925	33.679	
C	-0.4883650327	 1.4377623728	 0.0078628102	-0.425148
C	 0.0182371796	-0.0023971964	-0.0197297298	 0.018216
C	 0.9315020094	-0.3691229733	-1.2070066205	-0.231763
C	 1.5904289038	-1.6965273086	-0.7798964549	-0.231752
C	 1.8379756482	-1.5065800284	 0.7113115057	 0.063834
O	 2.9348355283	-0.5934955877	 0.9719582944	-0.296734
C	 2.0687741864	 0.37518401	 1.5901835139	-0.137418
C	 0.8094681734	-0.445568249	 1.2239881946	 0.347737
O	-0.0948673995	-0.7433554559	 2.2549090384	-0.490865
H	 0.3373195178	 2.157654088	-0.000580365	 0.112595
H	-1.113605782	 1.6479047309	-0.8658041332	 0.11366
H	-1.0899965184	 1.6194464984	 0.9036377123	 0.127037
H	-0.8517802707	-0.6730807013	-0.0407897548	 0.085029
H	 0.3797870756	-0.4457176159	-2.1479438067	 0.095775
H	 1.7005994629	 0.4002664045	-1.3428269286	 0.108676
H	 0.8979934554	-2.5349173743	-0.9250928564	 0.099712
H	 2.5123967719	-1.9244557815	-1.3222985837	 0.107856
H	 1.9395994561	-2.4340461582	 1.2873100163	 0.063208
H	 2.2370416631	 0.4507072391	 2.6756865408	 0.08501
H	 2.1797822735	 1.3729140801	 1.1497890494	 0.105051
H	 0.4039551279	-0.9748254532	 3.0454575076	 0.280283
