18
gdb 106483	2.64885	1.69551	1.28212	1.527	71.55	-0.2119	-0.0187	0.1931	1022.2421	0.14804	-439.049743	-439.041788	-439.040843	-439.082268	30.408	
C	-0.0600486373	 1.3906902093	-0.0423610812	-0.275856
O	 0.0906524844	-0.0268408299	-0.0525678023	-0.300292
C	 0.6769454633	-0.5573177896	 1.0691984904	 0.313616
C	 0.0476492303	-0.6378511055	 2.5106254234	-0.258916
N	 1.0037723385	-1.7941308549	 2.7222765435	-0.127654
C	 0.8047666553	-2.0928909485	 1.2483962623	-0.239745
C	 2.3143387435	-1.0768231882	 2.6825199329	-0.283715
C	 2.1043311141	-0.1559837179	 1.4682155989	 0.369303
O	 2.8385348792	 0.648917105	 0.960908128	-0.338997
H	 0.9086520245	 1.8956182675	 0.005282175	 0.150816
H	-0.5660401813	 1.6527587525	-0.9731766449	 0.132885
H	-0.6840214376	 1.7153812133	 0.8026511865	 0.108527
H	 0.1654448399	 0.1948224535	 3.2088167096	 0.112563
H	-0.9852575758	-0.9921569697	 2.4986267839	 0.123807
H	-0.1403440442	-2.6157198906	 1.0887364929	 0.125208
H	 1.6269803466	-2.6213968842	 0.7591366984	 0.117783
H	 2.4880105946	-0.5208132941	 3.6083497148	 0.13425
H	 3.142341792	-1.7761217782	 2.535525348	 0.136417
