18
gdb 35748	4.04746	1.00128	0.88918	4.4601	76.29	-0.2736	0.0327	0.3063	1297.0982	0.148662	-401.960178	-401.952081	-401.951136	-401.993635	30.583	
N	-0.122965404	-1.1341525042	-0.2079270625	-0.32294
C	-0.0702557256	 0.0158167946	-0.1030544945	 0.265425
C	-0.0022212546	 1.4660059191	 0.0384644873	-0.142892
C	-0.5801347274	 1.9989741889	 1.3752365664	-0.223234
C	-0.0367701658	 3.4345046872	 1.4223065957	-0.299986
C	 1.3709908202	 3.3189492197	 0.8376555541	 0.438723
C	 2.255684664	 4.470092818	 0.6354420351	-0.254469
O	 2.4726757651	 3.5593759272	 1.717761811	-0.267119
C	 1.4435746295	 2.0321778776	 0.0053591424	-0.305562
H	-0.5776108582	 1.9048507462	-0.7860714625	 0.125775
H	-1.6694176801	 1.9352293607	 1.4118695604	 0.11957
H	-0.1792605263	 1.4078587543	 2.2050069521	 0.131633
H	-0.6513590712	 4.0883608979	 0.7913730157	 0.110279
H	-0.0097488076	 3.8628880159	 2.4261908776	 0.125456
H	 3.0055041632	 4.4453184634	-0.1548395271	 0.11607
H	 1.9216647619	 5.4671857619	 0.9226056127	 0.114926
H	 2.1361287955	 1.3407151151	 0.493333552	 0.145134
H	 1.7976691614	 2.1935793966	-1.0150050761	 0.123209
