14
gdb 33744	3.427	1.58285	1.33827	5.1574	65.18	-0.2741	-0.0151	0.259	926.4446	0.101595	-436.622582	-436.616134	-436.61519	-436.653409	25.678	
N	 0.0483394081	-1.1302374801	-0.0472046092	-0.328106
C	 0.0487366778	 0.0246741065	-0.0170866201	 0.17511
C	-0.010555085	 1.4688465262	 0.0344953617	 0.29324
C	-0.3121165985	 2.2801084894	 1.3365696287	-0.268825
C	 0.5064519888	 3.2937742194	 0.489526186	 0.001321
O	 1.2546445638	 2.1694168237	-0.0537326238	-0.277254
C	-0.4956527029	 3.6055546205	-0.6603756954	 0.024106
O	-0.1191438684	 3.0213595018	-1.9090651612	-0.210223
C	-0.8929365856	 2.2434039787	-1.0093063726	-0.027184
H	-1.3546965393	 2.5028250962	 1.5762632873	 0.118047
H	 0.2372143089	 1.8981430768	 2.197216134	 0.139677
H	 1.1245926738	 4.0830501893	 0.9101744257	 0.109289
H	-1.1323991501	 4.4821820913	-0.6797247001	 0.120757
H	-1.8675815615	 1.8924290702	-1.3262635709	 0.130045
