20
gdb 77881	2.13249	1.61396	1.2753	2.1247	80.41	-0.2222	-0.0176	0.2046	1124.3304	0.168563	-403.125298	-403.115621	-403.114677	-403.159422	35.455	
C	-0.3984108641	 1.6462149236	-0.0761948159	-0.426921
C	-0.0656611048	 0.159026976	-0.1191528469	-0.102996
C	 0.5903088441	-0.5272894427	-1.3351284875	-0.126446
N	 2.001836862	-0.273761829	-1.4848341765	-0.116064
C	 2.6832820311	 0.9811954214	-1.1739904397	-0.326567
C	 1.6260222896	-1.2471963096	-0.466063964	 0.204633
C	 2.1998007421	-2.6320705226	-0.4721826004	-0.498477
C	 1.0552589637	-0.4980271841	 0.7355792487	 0.335976
O	 1.2904733017	-0.5115706993	 1.9105049047	-0.31203
H	 0.4302235151	 2.2749890125	-0.4057068088	 0.124091
H	-1.2584647642	 1.8674404329	-0.7166920166	 0.121539
H	-0.6595407372	 1.9399589113	 0.9457488572	 0.135312
H	-0.9686194332	-0.4098848186	 0.1502191378	 0.10818
H	 0.0556491001	-0.9403403477	-2.1846990662	 0.101051
H	 2.4455002054	 1.4189788343	-0.1966533974	 0.125183
H	 3.7611027309	 0.793336071	-1.2009594479	 0.129507
H	 2.4496404473	 1.712249903	-1.9540039973	 0.127618
H	 2.3512587387	-2.9736676444	-1.4991889481	 0.133774
H	 3.1680601108	-2.6505736094	 0.0396198262	 0.136022
H	 1.5390132508	-3.3355707185	 0.0439746886	 0.126615
