17
gdb 31190	1.94579	1.6661	0.95198	6.2464	82.44	-0.2245	-0.002	0.2224	1221.2673	0.137789	-380.940456	-380.931912	-380.930968	-380.974457	31.304	
C	 0.0449517928	 1.5545559544	 0.3243813735	-0.371618
C	-0.0279337399	 0.0823108173	-0.121504793	-0.316409
C	-1.4137335487	-0.4777637139	-0.1220019027	 0.228407
C	-2.2430417593	-0.8386804014	-1.1780992403	 0.104896
C	-3.4827952058	-1.301842523	-0.6302689125	-0.253212
C	-3.3749564845	-1.2105402904	 0.7299067655	-0.074729
N	-2.1236886886	-0.7114832906	 1.0209211423	-0.291801
C	-1.8949357747	-0.7531863133	-2.5473135308	 0.193329
N	-1.6030892305	-0.6809015601	-3.6671077379	-0.36657
H	 1.0787015231	 1.9113245638	 0.3006936962	 0.124095
H	-0.5528675328	 2.1899427691	-0.3349163959	 0.137623
H	-0.3301721424	 1.6858017434	 1.3449470709	 0.108719
H	 0.3700963054	-0.0134500801	-1.1357700568	 0.144344
H	 0.6184370505	-0.5275279034	 0.5236951507	 0.112407
H	-4.3328565065	-1.6563727083	-1.1900480643	 0.119593
H	-4.0709628116	-1.4574581118	 1.5145775148	 0.13266
H	-1.7718308264	-0.5486928216	 1.9491923304	 0.268265
