24
gdb 7194	5.2213	0.74743	0.68614	0.9171	83.35	-0.2503	0.0868	0.3371	1743.6842	0.221268	-351.40789	-351.397076	-351.396132	-351.444132	37.959	
C	-0.0766301644	 1.5909728293	 0.0751199568	-0.378753
C	 0.020302159	 0.064890066	-0.0093767498	-0.174986
C	 0.7631452606	-0.5485737179	 1.1835843833	-0.165132
C	 0.8147042415	-2.0864852346	 1.193102003	 0.007595
C	 1.5982910539	-2.6703129953	 0.009726206	-0.390034
C	 1.3974700573	-2.5757037645	 2.5199909876	-0.054145
O	 1.3076531104	-3.9838228753	 2.5808546057	-0.233729
C	 1.8539967837	-4.5186935394	 3.7601684729	-0.22638
H	 0.9181552715	 2.0499230764	 0.1011760236	 0.112923
H	-0.6112391366	 2.0059885269	-0.7851067337	 0.110447
H	-0.6074827934	 1.9053392033	 0.9807951966	 0.11239
H	-0.9891313926	-0.3641617804	-0.0644543951	 0.094284
H	 0.5204723712	-0.2126907522	-0.9445041323	 0.100252
H	 1.7886220311	-0.1517428802	 1.2129006773	 0.089179
H	 0.2799261735	-0.2037361492	 2.1086416394	 0.087288
H	-0.2160427139	-2.4655001665	 1.145447926	 0.07879
H	 2.616537829	-2.2622468957	-0.0214656257	 0.104083
H	 1.6730951468	-3.7557609598	 0.1052670864	 0.13088
H	 1.1185912977	-2.4441003413	-0.9464471361	 0.110908
H	 2.4518301728	-2.2564582234	 2.6130245789	 0.078233
H	 0.8490944587	-2.1257319867	 3.365794648	 0.078815
H	 2.9258211919	-4.282489094	 3.8600493908	 0.10152
H	 1.3383751279	-4.1422824455	 4.6586025172	 0.100977
H	 1.7352808926	-5.6043144501	 3.7156781131	 0.124593
