15
gdb 2440	4.28774	3.50844	2.72222	1.692	60.22	-0.2333	0.0066	0.2399	571.8519	0.127757	-308.500974	-308.49576	-308.494815	-308.529551	21.462	
C	-0.0728213962	 1.5542869315	 0.0610233322	-0.236499
C	 1.4665354217	 1.427795336	 0.004791842	 0.093037
C	 2.0785800288	 1.1411778727	 1.3858579049	-0.256969
C	 1.3013485774	 0.0181675167	 2.043945946	-0.060725
C	 0.2951182061	-0.5415236441	 1.3721800461	-0.053862
C	 0.0323958431	 0.0116721966	-0.0149514298	 0.050075
O	 1.3158646622	 0.1623348433	-0.7020299045	-0.294775
H	-0.5423154442	 1.9985013104	 0.940621873	 0.099199
H	-0.4686912405	 1.9878475553	-0.8588260942	 0.107153
H	 2.0396452298	 2.1591346953	-0.5716132714	 0.074248
H	 3.1345740621	 0.8621814468	 1.2737933769	 0.116064
H	 2.0614731358	 2.0469433638	 2.0076276609	 0.105189
H	 1.5915881634	-0.3077442348	 3.0384669316	 0.093187
H	-0.3161249102	-1.3424085274	 1.7741546412	 0.090112
H	-0.6878537394	-0.5590448723	-0.6040131347	 0.074569
