15
gdb 79388	3.31354	1.39522	1.11444	2.6979	70.25	-0.273	0.006	0.279	1050.3347	0.113458	-416.714069	-416.706975	-416.706031	-416.745651	27.622	
O	 0.1626159684	 1.4455737828	-0.0900826583	-0.442287
C	 0.1185038505	 0.0552021498	-0.0685399084	 0.164514
C	 0.0539957052	-0.6597372078	 1.2913554729	-0.103593
N	-1.4392433016	-0.2504820252	 1.4626656765	-0.195466
C	-1.7897386174	-1.6952045773	 1.7854639932	-0.222561
C	-0.7103167466	-1.8990734759	 0.7178694937	 0.209639
C	-0.1632158477	-3.1137087083	 0.1592157994	 0.14891
N	 0.2685180769	-4.0917126551	-0.2819427705	-0.337466
C	-1.2532856663	-0.638803543	-0.034406452	-0.103593
H	-0.4851321124	 1.7619608523	 0.5536267266	 0.300438
H	 0.844410475	-0.3248138835	-0.7903282682	 0.115563
H	 0.7334849046	-0.6515268856	 2.1444843525	 0.107926
H	-1.5504996162	-1.9883607413	 2.8111812117	 0.125025
H	-2.8164650105	-1.968089418	 1.5273199962	 0.125025
H	-2.0964702018	-0.606211124	-0.7254777054	 0.107926
