17
gdb 53425	2.70414	1.06616	0.904	4.3078	76.85	-0.2475	0.0065	0.254	1353.1764	0.135805	-421.849554	-421.840528	-421.839583	-421.885219	31.334	
C	-0.102981472	 1.4330003376	 0.1232783162	-0.496999
C	 0.0185676304	-0.016646368	 0.0730043482	 0.031291
C	 0.1201737615	-1.2149776821	 0.0139588736	 0.108637
C	 0.224425712	-2.6691356364	-0.0316518042	-0.305938
C	 0.673379121	-3.2948247686	 1.3048060999	-0.240767
C	-0.6661539654	-3.4779217823	 2.0284663637	-0.075301
O	-1.6284918591	-3.7345951518	 0.9907780077	-0.216078
C	-1.1838425089	-3.2894448768	-0.2130314783	 0.441106
O	-1.8194194789	-3.3896831091	-1.2180298283	-0.334421
H	 0.3661428176	 1.8988320629	-0.7500524214	 0.153982
H	-1.1540638829	 1.7409079432	 0.1393097821	 0.155377
H	 0.3781927045	 1.8432137487	 1.0178377168	 0.148546
H	 0.8453290882	-2.9792865726	-0.8763374559	 0.13116
H	 1.1377630553	-4.2677826625	 1.1187621006	 0.119536
H	 1.3737113813	-2.6709163426	 1.8605603741	 0.125132
H	-0.6844649911	-4.3262216316	 2.7150411561	 0.127272
H	-0.9660820535	-2.5731586779	 2.5684622891	 0.127465
