17
gdb 86765	2.76996	1.07254	0.93202	3.7332	74.78	-0.2638	0.0054	0.2692	1301.7893	0.135647	-418.043387	-418.034235	-418.033291	-418.078516	31.764	
C	-0.0053993707	 1.6082957955	 0.0826977556	-0.403559
C	 0.0593826786	 0.0950212977	-0.0773546588	-0.136564
C	 0.9508891076	-0.482369696	-1.2238244232	-0.1949
N	 1.7343285836	-1.1578966915	-0.1819663953	-0.081525
C	 2.9516267749	-1.9245213998	-0.2048524446	-0.300424
C	 4.0778681927	-1.1808857375	-0.7927916379	 0.262255
N	 4.940014825	-0.5867923064	-1.2805972094	-0.299092
C	 1.0240379545	-0.6418573694	 0.8832831959	 0.413041
O	 1.1729306992	-0.7558680031	 2.0699700258	-0.365943
H	 0.9940521166	 2.0534501104	 0.044281724	 0.131496
H	-0.6115291483	 2.0621302314	-0.7071822485	 0.12547
H	-0.4512378365	 1.8674124823	 1.0471483314	 0.143396
H	-0.9406748354	-0.3472564113	-0.0595017245	 0.109761
H	 0.4565557567	-1.1654877513	-1.9218165397	 0.116593
H	 1.5192702181	 0.2699381803	-1.7806839674	 0.13043
H	 3.1852491538	-2.1796582549	 0.8346983155	 0.189044
H	 2.8293503395	-2.8636880963	-0.7598820689	 0.160521
