13
gdb 64638	2.37234	1.63973	1.42582	4.0752	62.53	-0.2989	-0.0578	0.2411	949.8036	0.088863	-452.795859	-452.788061	-452.787117	-452.82838	27.914	
C	-0.0328931897	 1.5463845216	-0.0047642969	-0.40875
C	-0.0058724427	 0.0059005856	-0.0219808319	-0.050921
N	 0.8002260768	-0.5081049605	-1.1447796403	-0.249537
C	 1.7473014635	-1.155679387	-0.6086196133	 0.12624
O	 1.8119742053	-1.2422306207	 0.7599020375	-0.198513
C	 0.7178234479	-0.5318354394	 1.2409444534	 0.440741
O	 0.4854533619	-0.3855625909	 2.3931924818	-0.294677
C	-1.3678737939	-0.5372790905	-0.0893670001	 0.308115
N	-2.4430050188	-0.955789833	-0.1349015646	-0.31903
H	 0.9898537325	 1.9293730836	 0.0264575002	 0.143345
H	-0.5219462972	 1.9113060948	-0.9091312198	 0.162134
H	-0.5762520554	 1.894700087	 0.8759652772	 0.164653
H	 2.5489206197	-1.6646358007	-1.1294513832	 0.176199
