16
gdb 28344	3.18935	1.39482	0.97683	4.8398	79.75	-0.1991	-0.0313	0.1678	1164.0409	0.124487	-437.9639	-437.95558	-437.954636	-437.996566	31.561	
C	-0.0198115617	 1.5293487303	 0.0290967157	-0.473459
C	-0.0517465062	 0.0273966964	-0.0050624787	 0.064613
C	-1.1868223821	-0.7175751511	-0.1538646929	-0.109371
C	-1.1812303586	-2.1333758547	-0.1812158962	-0.27676
C	 0.0254694846	-2.7607778463	-0.0555129641	 0.450431
N	 0.2529811524	-4.1096585664	-0.1198554294	-0.560268
O	 1.1602866113	-2.0718740672	 0.1010327814	-0.251673
C	 1.2163824676	-0.6461448016	 0.135399487	 0.375876
O	 2.3083654531	-0.1642031168	 0.2817850171	-0.343897
H	 0.6096973321	 1.9309215192	-0.772641614	 0.138194
H	-1.026053329	 1.942857608	-0.0793790615	 0.111872
H	 0.4082851031	 1.8958786267	 0.9686008656	 0.137607
H	-2.1398120508	-0.204540758	-0.2547543129	 0.104981
H	-2.0887181766	-2.707304624	-0.3072510754	 0.09435
H	-0.5336583785	-4.7108173282	 0.0649542076	 0.266655
H	 1.1293309295	-4.4184523264	 0.2727423108	 0.270849
