15
gdb 82629	2.45332	2.13349	1.58524	1.2034	57.75	-0.2333	0.0595	0.2927	853.0828	0.113474	-494.864266	-494.857522	-494.856577	-494.895078	27.489	
O	 0.0800034046	 1.384909136	-0.1112211244	-0.454814
C	 0.0405931895	-0.0218632334	-0.0541151466	 0.068588
C	 0.4229990837	-0.6267138569	 1.3174663356	 0.094347
O	-0.5866139254	-0.080477435	 2.1743877229	-0.266542
C	-1.7252078942	-0.56694461	 1.4669114508	-0.067142
C	-1.2636763412	-1.8470299566	 0.7945599519	-0.005811
O	 0.0986953414	-1.9983344363	 1.1780647039	-0.240968
C	-1.3801832064	-0.5879920802	-0.0254861766	 0.279262
O	-2.2745700402	-0.4387238027	-1.062573268	-0.46718
H	-0.2536190963	 1.6957400673	 0.7413739974	 0.291856
H	 0.646082793	-0.416698936	-0.8718329516	 0.109725
H	 1.4167910691	-0.4790760283	 1.7310155286	 0.109046
H	-2.6859837486	-0.384570273	 1.9242615521	 0.124647
H	-1.8276598805	-2.7605865368	 0.6783747954	 0.13034
H	-2.3322540485	 0.506492672	-1.2520774415	 0.294645
