22
gdb 101581	2.74513	0.87138	0.7456	1.9008	79.43	-0.2441	0.0177	0.2619	1636.9627	0.191969	-441.528292	-441.517014	-441.51607	-441.565989	39.258	
C	-0.0231489354	 1.5636544282	 0.0445371791	-0.388526
C	-0.0349731732	 0.033474405	 0.0718280051	-0.178679
C	-1.4344039898	-0.5711366141	-0.0010999603	 0.148328
C	-1.4360269487	-2.094886686	-0.0437660356	-0.410136
O	-2.1417596258	-0.12101368	 1.1890155053	-0.256169
C	-3.4816088015	-0.0330391167	 1.1200187433	 0.419421
O	-4.1410787366	-0.305447883	 0.1465171828	-0.366994
C	-4.0608192352	 0.465363354	 2.443371697	-0.273709
N	-5.5076069256	 0.5821288391	 2.4810966424	-0.486078
H	 0.9995551255	 1.9489046195	 0.0925836154	 0.114927
H	-0.4813935487	 1.9465163434	-0.8741012205	 0.116267
H	-0.5785424571	 1.972833722	 0.8926832544	 0.126835
H	 0.5396658354	-0.3607482972	-0.7748869255	 0.101111
H	 0.4580912301	-0.3320767295	 0.9811400307	 0.104879
H	-1.9760800408	-0.1785527643	-0.86754455	 0.105637
H	-2.4585353551	-2.4748407035	-0.0980841095	 0.139183
H	-0.8933086201	-2.4464385359	-0.9267705287	 0.119465
H	-0.9496999199	-2.5072459305	 0.8460636634	 0.120878
H	-3.718574844	-0.2097182447	 3.2363871189	 0.1367
H	-3.6020241822	 1.4360132359	 2.6660662817	 0.136743
H	-5.8077095573	 1.1879987836	 1.7219787692	 0.235316
H	-5.916385174	-0.3223025652	 2.2614445511	 0.234598
