19
gdb 89962	2.57518	1.41601	1.07666	3.2484	76.01	-0.249	-0.0288	0.2202	1147.269	0.158546	-423.007428	-422.998847	-422.997903	-423.040958	32.405	
O	 0.5470581929	 0.6780325626	-0.8375681405	-0.427829
C	-0.004924295	-0.295836427	 0.0072932487	 0.160182
C	 0.0734857362	-0.1264643219	 1.5525900619	-0.356084
C	-1.408164909	-0.5671285315	 1.6797141203	 0.274552
C	-2.4379340853	 0.5820378413	 1.8063133467	-0.292152
C	-2.3742336447	 0.8310055603	 0.2737936625	-0.238854
C	-1.5435757411	-0.4668953538	 0.0864873065	-0.106254
C	-1.6821675703	-1.8608306031	 2.3681176668	 0.064077
O	-0.840882225	-2.6290789823	 2.7676373407	-0.255837
H	 0.2483035251	 1.5442458789	-0.5418189425	 0.281045
H	 0.4532143173	-1.2408039433	-0.2979077018	 0.106183
H	 0.7824624174	-0.7798338707	 2.0624435888	 0.135257
H	 0.2434738465	 0.9066636188	 1.8733623158	 0.092347
H	-3.4198306082	 0.2115655025	 2.1187733576	 0.108588
H	-2.154438565	 1.4051654746	 2.4682033743	 0.106144
H	-3.3399602883	 0.8335634808	-0.2343831076	 0.115071
H	-1.8491881944	 1.744264901	-0.0246386115	 0.089265
H	-2.0004467194	-1.2497178894	-0.5201388762	 0.078259
H	-2.7671878696	-2.1028105678	 2.4681506995	 0.06604
