19
gdb 1625	3.51112	1.96377	1.36639	2.7421	68.05	-0.2444	-0.0176	0.2268	924.3641	0.168626	-310.940657	-310.931602	-310.930658	-310.974334	31.889	
C	 0.0504326823	 1.5484232573	-0.0196069074	-0.399725
C	 0.0130263965	 0.0151579452	 0.0419996866	 0.032526
C	 0.7698446588	-0.4864318022	 1.2818725661	-0.397651
C	-1.4331908054	-0.5439473121	 0.015693318	-0.035914
C	-2.2555634835	-0.07004453	-1.19848961	-0.423946
C	-1.3967789245	-2.0599034618	-0.0255523349	 0.160866
O	-1.9256945492	-2.798820568	 0.7638365965	-0.255559
H	 1.0828495222	 1.9056830541	 0.0515235653	 0.11545
H	-0.3686642358	 1.9392324249	-0.9503226114	 0.11697
H	-0.5093539475	 1.9883735915	 0.8142399274	 0.116556
H	 0.5279028285	-0.3699012768	-0.8513419829	 0.074724
H	 0.7865747999	-1.5791328706	 1.3417789299	 0.125833
H	 1.8067119767	-0.1361708957	 1.2729192829	 0.113213
H	 0.3000889773	-0.1153934062	 2.2001118248	 0.120888
H	-1.949833989	-0.2612907706	 0.9407827431	 0.089484
H	-3.2465451833	-0.5341573348	-1.2020212894	 0.130258
H	-2.3966951556	 1.0127824345	-1.1806479602	 0.13044
H	-1.7581933413	-0.3298366503	-2.1401512568	 0.120232
H	-0.8322495472	-2.4682599883	-0.9005385775	 0.065357
