18
gdb 15387	2.86856	1.52635	1.10729	1.1091	75.13	-0.23	0.049	0.279	1114.3009	0.151312	-347.749454	-347.740572	-347.739628	-347.783177	32.408	
C	 0.1017965255	 1.4767407313	-0.2649500649	-0.386438
C	 0.5060877801	 0.0163908681	-0.1758678725	-0.041464
O	 0.1194223308	-0.6250405281	-1.3883781899	-0.241327
C	 0.4421404728	-1.9666337886	-1.4278501755	 0.139699
C	 0.607282343	-2.5752993105	-2.7739831704	-0.325756
C	 1.8402625282	-2.4010925807	-1.8836200744	-0.240052
C	 2.831257517	-1.4243721805	-2.2180550241	 0.341911
C	 3.6800691412	-0.6142263918	-2.4857513946	-0.467731
H	 0.6092257075	 1.9616337983	-1.1034585954	 0.131623
H	-0.9775865298	 1.5700702823	-0.4151598376	 0.125532
H	 0.3715946518	 2.0019939386	 0.6560745266	 0.114681
H	 1.5904614296	-0.0837181196	-0.0332784552	 0.108823
H	 0.0088673538	-0.4749222849	 0.6764443786	 0.085547
H	-0.0034529205	-2.5703966785	-0.6347091655	 0.088116
H	 0.2454664599	-3.5819085623	-2.9482816582	 0.120149
H	 0.5295339167	-1.8979655356	-3.6158435954	 0.140773
H	 2.2244020005	-3.3061170818	-1.4211604665	 0.112415
H	 4.4247996319	 0.1017026145	-2.729918575	 0.193498
