15
gdb 126493	2.67011	1.49586	0.97008	1.0455	71.17	-0.2596	-0.0923	0.1672	1156.5572	0.111087	-453.896599	-453.888505	-453.88756	-453.929959	29.327	
C	 0.0372516948	 1.5425559887	-0.0598288023	-0.387529
C	-0.0680136021	 0.0190736419	-0.0553162301	-0.258264
C	-1.4626119299	-0.531193874	 0.0457218635	 0.256152
N	-2.4538973698	 0.2932198028	 0.1238753831	-0.110922
O	-3.739312059	-0.2029559142	 0.2172855223	-0.215742
N	-4.0313100054	-1.5386016181	 0.2322091809	-0.041497
C	-3.0537606773	-2.37376883	 0.1548897596	-0.015933
C	-1.6484468052	-1.9936979622	 0.05200177	 0.272811
O	-0.7293090171	-2.790796686	-0.0207380788	-0.33373
H	 1.0858374856	 1.8415353491	-0.1363463739	 0.119031
H	-0.5070792298	 1.9770651845	-0.9022978859	 0.135235
H	-0.3778400036	 1.9734593998	 0.8549586551	 0.135347
H	 0.3825767182	-0.4140736844	-0.9577458017	 0.142032
H	 0.5091393456	-0.4173592831	 0.7702531255	 0.141991
H	-3.327713725	-3.4249723648	 0.1698894928	 0.161018
