16
gdb 31630	3.58409	1.08739	0.88172	3.75	68.95	-0.216	0.0119	0.2279	1288.3056	0.124021	-475.071119	-475.062254	-475.06131	-475.105344	31.183	
C	-0.0219065091	 1.4372704071	-0.0510429557	-0.346214
N	-0.0725645996	-0.0078724531	-0.0941755026	-0.11957
C	-1.196361391	-0.8260258423	 0.0191434897	-0.233396
C	-0.7769563753	-2.095253997	-0.0666877034	 0.333488
C	-1.4484447975	-3.4197844186	-0.0420900999	-0.177956
O	-1.3726444955	-4.1060059375	-1.284092923	-0.408941
O	 0.59883395	-2.1009018108	-0.2397437126	-0.259184
C	 1.0480748897	-0.7936181497	-0.2625057797	 0.479976
O	 2.1968148424	-0.4671123735	-0.4015562389	-0.410472
H	 1.0223911144	 1.7266521443	-0.1766066725	 0.176595
H	-0.6169541972	 1.8763577152	-0.8584172774	 0.140102
H	-0.3878089506	 1.8162614461	 0.9088328773	 0.138981
H	-2.1879689837	-0.4271617491	 0.1502765222	 0.153746
H	-1.0277572633	-4.0320893163	 0.7709215192	 0.110871
H	-2.5111048892	-3.2720382343	 0.1697482227	 0.126156
H	-0.4389079944	-4.2200051604	-1.4923186752	 0.295819
