19
gdb 99651	2.47245	1.27199	0.93464	2.4537	78.14	-0.2286	0.0246	0.2532	1277.6222	0.156561	-422.953674	-422.943944	-422.943	-422.988389	35.983	
C	-1.2239268727	 1.3827748039	 0.1552907203	-0.247065
O	-1.3346215579	 0.0158461441	 0.5163688142	-0.25185
C	-1.849490845	-0.8226319064	-0.521805487	-0.083547
C	-0.9405391375	-0.8717916178	-1.6753484652	 0.340365
C	-0.2042483001	-0.9222285302	-2.6240757319	-0.462374
C	-2.0976176813	-2.2155359588	 0.0420309844	-0.079197
C	-1.2150548093	-2.7781553672	 1.1424032301	-0.327551
C	-2.651293231	-2.4177943394	 1.4321011846	 0.122873
O	-3.0067464314	-1.3568959508	 2.2607029914	-0.433387
H	-0.8354999853	 1.9089384666	 1.0294455119	 0.135391
H	-0.5337615189	 1.5150309691	-0.6862154751	 0.133344
H	-2.2023973158	 1.8046451037	-0.1161904846	 0.115874
H	-2.8124704658	-0.4031956204	-0.8610856439	 0.104396
H	 0.4470100765	-0.9697227373	-3.4619778223	 0.202891
H	-2.4334353554	-2.9027124453	-0.7287111945	 0.100475
H	-0.9202982411	-3.820835807	 1.0925819872	 0.10891
H	-0.4605617383	-2.1093758046	 1.5416597039	 0.128279
H	-3.354562978	-3.2352001775	 1.5592019765	 0.102298
H	-2.4443097517	-0.6104468248	 2.0107928801	 0.289873
