17
gdb 75074	2.22568	1.80266	1.00841	5.156	79.34	-0.2196	-0.0153	0.2043	1143.781	0.13591	-418.056154	-418.047646	-418.046702	-418.089529	31.414	
C	-0.0122593886	 1.490686947	 0.0965144392	-0.502936
C	-0.0269486847	 0.0005702771	 0.0095526999	 0.389124
C	-0.0754787261	-0.7553894638	-1.0917517127	-0.231987
C	-0.0717476181	-2.2052858894	-0.7203870496	-0.390881
C	-0.0121421407	-2.1866193727	 0.8103860188	 0.412697
O	 0.0097799559	-3.1258515805	 1.5545080582	-0.315539
N	 0.0126427637	-0.8104227149	 1.181865081	-0.171561
C	 0.0667961931	-0.3016195941	 2.4776305933	 0.074555
N	 0.1018405318	-1.0245363411	 3.5201018432	-0.420029
H	 0.8937961491	 1.8657085932	 0.5866733212	 0.142613
H	-0.0483869946	 1.9086425153	-0.9114563237	 0.139742
H	-0.8715408633	 1.8792094862	 0.6555357785	 0.142608
H	-0.1118492387	-0.3696599499	-2.0997218444	 0.107111
H	-0.9670793636	-2.7524012918	-1.038443914	 0.148641
H	 0.7883149451	-2.7650728411	-1.1065154915	 0.148648
H	 0.074998518	 0.7922599559	 2.4767108533	 0.099355
H	 0.1383510618	-0.4249748854	 4.3433602492	 0.227838
