20
gdb 90160	3.37792	1.46762	1.32153	1.6175	78.5	-0.2157	0.0668	0.2825	1046.9279	0.172456	-403.088565	-403.080838	-403.079894	-403.1203	30.927	
C	-0.2011435649	 1.4676691579	 0.0282241609	-0.32883
N	 0.1091311715	 0.0512349601	 0.0075410767	-0.11322
C	 1.180201961	-0.4425379448	-0.9040037155	-0.236655
C	 1.8702947213	-1.1498105122	 0.2762783395	 0.178151
C	 2.2250429623	-0.1513949577	 1.3477634267	-0.366829
C	 0.7844458663	-0.5477308431	 1.1623906177	 0.233546
C	 0.227717895	-1.6892652109	 1.9812445496	-0.14491
O	 1.2285177016	-2.7171943069	 1.8907659079	-0.263233
C	 1.886991242	-2.6203818612	 0.6166581084	-0.15259
H	 0.675755655	 2.119798084	 0.1901940194	 0.093292
H	-0.6619112959	 1.7543749459	-0.9230356004	 0.11944
H	-0.9240006257	 1.6680219241	 0.8256750131	 0.122661
H	 0.7918442445	-1.1153280543	-1.6764210475	 0.107957
H	 1.7784195122	 0.3431678327	-1.3857341455	 0.096452
H	 2.7117202631	-0.5566680035	 2.2283533736	 0.132238
H	 2.5563313566	 0.8408337296	 1.0582909376	 0.113192
H	 0.0846927307	-1.4961621291	 3.048824834	 0.105876
H	-0.7288147453	-2.0065172326	 1.5398339344	 0.099409
H	 1.3479469289	-3.188739685	-0.1582829153	 0.093827
H	 2.8764329197	-3.068629093	 0.7497394248	 0.110226
