14
gdb 17166	4.45095	1.91675	1.59944	4.2933	62.72	-0.2481	-0.0388	0.2094	791.1324	0.106178	-382.444836	-382.43852	-382.437576	-382.475446	24.002	
O	 0.0422323937	-0.0373409444	 0.0408782743	-0.241436
C	 0.0880842324	 1.1641866616	-0.0019938201	 0.025848
C	 1.3396839634	 1.9615507731	-0.0033709883	 0.397428
O	 2.6418168205	 1.3323693674	 0.0470019488	-0.339914
C	 2.9280011181	 2.7614629756	 0.0021856378	 0.086111
C	 1.7801632728	 3.1080226309	-0.9963828951	-0.128438
C	 1.2286301238	 4.2247515713	-0.0864519963	-0.281195
C	 1.7389571567	 3.1764608648	 0.9234521424	-0.128418
H	-0.831891053	 1.7911715482	-0.0425423041	 0.082604
H	 3.9674256237	 3.0856997848	 0.0129274051	 0.106686
H	 1.8103853229	 3.0269911377	-2.0823447579	 0.100188
H	 1.7680055654	 5.1752704999	-0.1087658266	 0.109387
H	 0.1509244434	 4.4015487469	-0.1158884825	 0.110947
H	 1.7225079963	 3.1730015323	 2.0127226126	 0.1002
