19
gdb 122738	12.13748	0.39764	0.38876	4.2882	86.12	-0.2649	-0.0595	0.2053	2697.3134	0.155587	-423.000189	-422.989233	-422.988289	-423.038798	35.806	
C	 0.0338307702	 1.5429734078	-0.0854991491	-0.385396
C	 0.0176150492	 0.025936832	-0.0137734399	-0.033911
O	 0.6626382137	-0.4863483472	-1.1654872302	-0.239176
C	 0.7058629065	-1.890151544	-1.2044805973	-0.045845
C	 1.4277137096	-2.2852862072	-2.4987502101	-0.361079
C	 1.5438172167	-3.7233734912	-2.6685024555	 0.081629
C	 1.636679669	-4.9204844157	-2.8029795448	 0.030211
C	 1.7311751445	-6.3506636949	-2.9338953311	 0.019516
O	 2.2535602119	-6.9239700699	-3.8624919939	-0.22896
H	 1.0616613368	 1.9145887308	-0.1227603692	 0.128913
H	-0.489372182	 1.8906191332	-0.9806651802	 0.128911
H	-0.458678184	 1.9699900801	 0.7929952509	 0.11839
H	 0.5333574029	-0.3259950131	 0.8953234777	 0.090204
H	-1.0179443231	-0.3499935034	 0.0371759088	 0.090204
H	 1.244803476	-2.2972405895	-0.333556522	 0.100331
H	-0.30840416	-2.3212024905	-1.1925050193	 0.10033
H	 0.8902370355	-1.8531362914	-3.3516770104	 0.154507
H	 2.4253510596	-1.829409644	-2.5027375065	 0.154508
H	 1.274804587	-6.9123425618	-2.0929516279	 0.096715
