20
gdb 107082	3.51933	1.00459	0.91064	1.9051	86.	-0.2354	0.0349	0.2704	1368.2267	0.169508	-365.937848	-365.928712	-365.927768	-365.971835	34.821	
C	 0.1392721857	 1.5089736624	 0.2375841043	-0.379991
C	-0.0303453609	 0.0331124347	-0.1483519266	-0.287915
C	-1.4575548037	-0.4263246168	-0.050413005	 0.375653
C	-2.0535142963	-1.0061140327	 1.1705138008	-0.282349
N	-1.851373857	-1.8965796923	 0.0049587586	-0.175651
C	-3.0149383376	-1.5790919984	-0.9208828966	-0.141463
C	-2.5536492182	-0.0940021445	-1.0643139219	-0.328934
C	-2.9935486	-2.3630149922	-2.1392830569	 0.317345
C	-2.9851533489	-2.9925792901	-3.1631543304	-0.421074
H	 1.1843357961	 1.8194140878	 0.1479524129	 0.117325
H	-0.4572299989	 2.1606649603	-0.4099750278	 0.119443
H	-0.1788107083	 1.6862282123	 1.2701790605	 0.118839
H	 0.3294299618	-0.1275278276	-1.1726094652	 0.104885
H	 0.5866083751	-0.6000915523	 0.4996337506	 0.109327
H	-1.3865365792	-1.24196476	 1.9942985024	 0.119913
H	-3.0690281586	-0.7516677337	 1.4702567236	 0.107292
H	-3.9789332839	-1.7107455495	-0.4150335441	 0.103289
H	-3.2728364108	 0.6834141441	-0.7923448076	 0.104828
H	-2.1632069566	 0.1101150432	-2.0624862903	 0.12374
H	-2.9758329099	-3.5594313546	-4.0609163513	 0.195498
