18
gdb 103365	3.30261	1.42781	1.27872	1.2648	71.74	-0.2131	0.0076	0.2206	1029.27	0.148476	-439.021312	-439.013465	-439.012521	-439.053341	31.515	
O	-0.1491006414	 1.4790320217	-0.0563737377	-0.44192
C	-0.0091844814	 0.0545681184	 0.0133563302	-0.162216
C	-1.4287917223	-0.508836858	-0.0077993798	 0.492066
O	-2.2025424599	 0.1632495205	 0.9320291556	-0.491685
C	-2.029566331	-0.7971106094	-1.4600881215	-0.134926
N	-1.1069241187	-1.9841003094	-1.4465997315	-0.313061
C	-1.5385075472	-2.0776453613	-0.0084270923	-0.124305
C	-3.0653230216	-2.2554154817	-0.1056127341	-0.084846
C	-3.3898094536	-1.3992629183	-1.0789690906	-0.083254
H	 0.6915893705	 1.8806105052	 0.1783517109	 0.295722
H	 0.5777356703	-0.3360102039	-0.8207544492	 0.126487
H	 0.4697066819	-0.2378271261	 0.9600074332	 0.09236
H	-1.8520465574	 1.0648913033	 0.9550455829	 0.287694
H	-1.9537797115	-0.0952239536	-2.2906228594	 0.067684
H	-1.5008547518	-2.7525545971	-1.9898929061	 0.203375
H	-0.9605404202	-2.7120091283	 0.6653500567	 0.062053
H	-3.6879809266	-2.8732040634	 0.5245166841	 0.104941
H	-4.3571035183	-1.1196614387	-1.4703201116	 0.103829
