18
gdb 79549	2.552	1.71704	1.22789	1.0767	83.02	-0.2368	0.0354	0.2722	1046.9148	0.146805	-364.711839	-364.703744	-364.7028	-364.744073	32.017	
C	-0.1720888714	 1.4556908454	-0.0866289975	-0.317397
N	 0.1120067158	 0.0326801573	 0.0357115542	-0.081326
C	 1.4352115198	-0.5163206224	-0.1662460743	-0.06051
C	 2.565709551	 0.3295055941	 0.3896819741	-0.135084
C	 3.2114799877	-0.3818740286	 1.5416115313	-0.32531
C	 1.8811773037	 0.3110079268	 1.7827469027	 0.192392
C	 1.7302614117	 1.3707562495	 2.7231480042	 0.206325
C	 1.5898886368	 2.256404567	 3.5266262019	-0.42888
C	 0.7599954746	-0.543132206	 1.1922172843	-0.153719
H	 0.6074029652	 2.113498724	 0.3176351367	 0.122144
H	-0.3148166691	 1.6901277129	-1.1462277195	 0.119893
H	-1.1074445925	 1.6711782371	 0.4384347003	 0.125905
H	 1.555506125	-1.3286342608	-0.8751881648	 0.100574
H	 3.0272607794	 1.1877830252	-0.0834340389	 0.106498
H	 3.2511126376	-1.4678962583	 1.5567763015	 0.115643
H	 4.0727356089	 0.1078577481	 1.9858825525	 0.127087
H	 1.4640423813	 3.0380945488	 4.2338276908	 0.186757
H	 0.2755157444	-1.3673315701	 1.7049384506	 0.099009
