16
gdb 65839	2.68595	1.35549	1.23571	4.2292	72.14	-0.2556	0.016	0.2716	1086.3658	0.122872	-437.872173	-437.863688	-437.862743	-437.90536	31.705	
C	-0.068305516	 1.6018029276	 0.0623541134	-0.439005
C	 0.0624311846	 0.083500416	-0.0273335647	 0.1462
C	 0.9109329215	-0.404719435	-1.2259672702	-0.131029
O	 1.652413561	-1.4932811994	-0.6837093939	-0.252056
C	 1.6794689454	-1.3786948976	 0.6774226457	 0.49168
N	 2.3485150249	-2.0707230066	 1.4830427156	-0.574119
O	 0.8641443974	-0.3744348748	 1.0847752205	-0.241659
C	-1.2485190176	-0.572198113	 0.0094703988	 0.36577
C	-2.3279370125	-1.0984591007	 0.0236928904	-0.49176
H	 0.9244960638	 2.0581948794	 0.0843565566	 0.134042
H	-0.6227536482	 1.9820573362	-0.7999963182	 0.136444
H	-0.6078540488	 1.8790505743	 0.9699597072	 0.152367
H	 0.3086340821	-0.7625620602	-2.0610111408	 0.140621
H	 1.5966611563	 0.3801822764	-1.5664859167	 0.117777
H	 2.9301686772	-2.7333249429	 0.9757466767	 0.232967
H	-3.2797772509	-1.5701950497	 0.0467729498	 0.21176
