18
gdb 85634	3.26352	1.15969	0.94527	1.5239	82.01	-0.2434	-0.0276	0.2158	1271.9068	0.146324	-401.938734	-401.929706	-401.928762	-401.972917	33.545	
C	-0.2586146918	 1.5411720001	-0.0779944546	-0.397957
C	 0.0438239902	 0.0502364251	-0.0246379958	 0.079803
O	 0.9655604238	-0.2694436733	-1.1062901254	-0.26709
C	 2.120267158	-0.6650914653	-0.5035877446	 0.251709
N	 2.148084667	-0.7996441902	 0.7622897017	-0.329425
C	 0.788081711	-0.4911682729	 1.2411778046	 0.003478
C	 0.825202991	 0.4207023399	 2.4661555148	-0.395231
C	 3.2179471192	-0.9023688969	-1.3812868322	 0.262099
C	 4.1366266667	-1.1022797193	-2.1289546418	-0.353926
H	 0.645944369	 2.1364055576	 0.0745264373	 0.130792
H	-0.6760612578	 1.7991463002	-1.0548414386	 0.13074
H	-0.9878878552	 1.8156306257	 0.6898638712	 0.122639
H	-0.8688696635	-0.5202357163	-0.2179445996	 0.092788
H	 0.3310253337	-1.442738645	 1.5449360643	 0.093607
H	 1.3112543264	 1.3741792586	 2.244013608	 0.123581
H	-0.1835303653	 0.6217573236	 2.8404030735	 0.113374
H	 1.3944975677	-0.0673362019	 3.2609647403	 0.13398
H	 4.9545018098	-1.2818834899	-2.782835073	 0.205038
