25
gdb 110055	2.15695	1.31163	1.08047	1.5875	87.55	-0.2539	0.059	0.3129	1312.8737	0.229254	-389.511927	-389.501678	-389.500733	-389.546824	39.092	
C	-0.1598060086	 1.7541403439	 0.3420862949	-0.390327
C	-0.193243576	 0.2326955409	 0.159943718	-0.188109
C	 0.7363333278	-0.5148822903	 1.1194808349	 0.010269
C	 0.6275564196	-2.0620512432	 1.1387967756	-0.008496
C	 0.6117907196	-2.7319520311	-0.243898977	-0.398825
C	 1.8734438207	-2.4523931912	 1.9618910424	-0.216669
C	 2.9800030701	-1.4795996526	 1.4952156393	-0.236552
C	 2.2565418253	-0.2162045898	 0.9455970148	 0.127468
O	 2.64294092	 0.1098112135	-0.3876918675	-0.433799
H	 0.8334984713	 2.1495443362	 0.1127722806	 0.135264
H	-0.8772567955	 2.2459815239	-0.3223332081	 0.106515
H	-0.4117436269	 2.0379120854	 1.3704793288	 0.106109
H	-1.2179296434	-0.132902841	 0.3082491907	 0.086344
H	 0.0720663345	-0.0032525253	-0.8760209484	 0.091099
H	 0.4866188129	-0.1892253272	 2.1405502342	 0.06651
H	-0.2892649544	-2.3621131801	 1.6595815898	 0.064645
H	 1.5327047488	-2.5494881083	-0.8111505415	 0.096107
H	 0.5203114783	-3.8181606526	-0.1390023366	 0.115799
H	-0.2265808882	-2.3863200359	-0.8554200889	 0.120951
H	 1.6661073565	-2.3007291449	 3.0273072894	 0.094821
H	 2.1549506945	-3.5027971122	 1.8382390054	 0.09031
H	 3.6833079907	-1.2379426565	 2.2965865982	 0.10035
H	 3.5767083249	-1.9109890754	 0.6845193656	 0.098263
H	 2.5327181393	 0.6760021934	 1.513456455	 0.084828
H	 2.4671829083	-0.6518373595	-0.9489902199	 0.277123
