26
gdb 9419	5.36778	0.68248	0.64009	0.0608	89.83	-0.2945	0.0855	0.3799	1899.8713	0.24487	-315.49305	-315.481905	-315.480961	-315.529855	39.816	
C	 0.1330968652	 1.5685690448	 0.0933090242	-0.380008
C	 0.039577937	 0.0407278167	 0.062688334	-0.160474
C	-1.399905222	-0.4753292587	-0.0497655265	-0.172553
C	-1.4885601877	-2.0059318442	-0.0789895499	-0.176798
C	-2.9155792097	-2.5874239013	-0.0743154798	 0.044273
C	-3.6932042303	-2.2091133643	-1.3437190607	-0.389408
C	-2.8623678066	-4.1141628005	 0.1309706441	-0.164454
C	-4.2182413545	-4.7853068196	 0.3731097586	-0.391333
H	 1.1711435407	 1.9052401465	 0.1790332755	 0.109415
H	-0.2851824795	 2.0097393302	-0.8184343297	 0.112243
H	-0.4220189461	 1.9821292356	 0.9428261685	 0.112194
H	 0.6290313974	-0.3458117027	-0.7794639541	 0.093049
H	 0.5018839915	-0.3732396874	 0.968779735	 0.092575
H	-1.9870156241	-0.0936102463	 0.7978638189	 0.088629
H	-1.8587585383	-0.0503668282	-0.9514160607	 0.09448
H	-0.9506685255	-2.3845708449	-0.9607153175	 0.087118
H	-0.9496799575	-2.4012171365	 0.793114272	 0.085571
H	-3.4461928982	-2.1569473932	 0.7892785326	 0.064309
H	-4.7150032086	-2.5986095798	-1.3241865078	 0.112163
H	-3.7642361789	-1.1248925623	-1.4680597169	 0.113572
H	-3.1994801417	-2.6148085871	-2.2357260326	 0.108193
H	-2.3756736095	-4.5744391147	-0.7405196553	 0.089721
H	-2.208191207	-4.3253876631	 0.9867461696	 0.088869
H	-4.0931142981	-5.8525361242	 0.5823334348	 0.110157
H	-4.732318525	-4.3381645237	 1.2317915635	 0.11147
H	-4.8828444933	-4.6994035713	-0.4919228197	 0.117028
