19
gdb 41732	3.73507	1.40925	1.218	1.9606	74.13	-0.2301	0.0877	0.3178	1053.6127	0.162249	-423.01539	-423.008311	-423.007367	-423.046682	28.403	
C	 0.0066276712	 1.3319966885	-0.1101007805	-0.084594
C	 1.4390196999	 1.8910344749	 0.05268804	-0.348323
C	 2.0906658654	 0.8429085551	 0.9249908511	 0.30002
C	 3.5680615553	 0.6723514523	 1.1873541529	-0.17866
O	 3.6533984242	-0.3224890552	 2.2036509121	-0.258309
C	 2.502551012	-0.2200769125	 3.0432915283	-0.098129
C	 1.3790580822	 0.2987824777	 2.162918203	-0.181087
C	 1.224427442	-0.3810525121	 0.8257262932	 0.08545
O	 0.0852976426	-0.08603676	 0.0603969043	-0.271259
H	-0.6593306239	 1.764704995	 0.6494146249	 0.101044
H	-0.4310399162	 1.528240128	-1.0926170466	 0.112477
H	 1.9563945591	 1.9428994687	-0.9125214046	 0.110954
H	 1.4316443382	 2.8968998252	 0.4840188447	 0.107241
H	 4.1380898563	 0.3062596765	 0.3260414702	 0.109012
H	 4.0162164135	 1.6247515954	 1.5180535405	 0.089143
H	 2.3259160825	-1.2163801335	 3.4626296437	 0.111167
H	 2.6786879952	 0.4788743883	 3.8770487732	 0.093084
H	 0.536686297	 0.8016758145	 2.6248482424	 0.092082
H	 1.5986779337	-1.3846477968	 0.6523314171	 0.108689
