20
gdb 90558	2.82119	1.17787	1.02086	3.7521	80.52	-0.2412	0.0293	0.2705	1249.6046	0.17117	-403.143231	-403.134305	-403.133361	-403.177879	33.316	
C	-0.0740313598	 2.0230286198	 2.0000563494	-0.409433
C	-0.1439215728	 0.5514597217	 1.6069486071	 0.040543
C	 0.0333318847	 0.1161972302	 0.1115016824	-0.272399
C	 1.0971936694	-0.905607497	 0.5410961471	-0.128442
C	 2.253555165	-0.2427618684	 1.2101764368	 0.071708
N	 2.8062380825	 1.000129229	 0.7448159185	-0.288555
C	 3.8888483023	 1.5751026837	 1.3375628623	 0.14395
O	 4.4181011112	 1.1752500387	 2.3518377053	-0.318297
C	 0.9854947476	-0.412805986	 2.0033919811	-0.087772
H	 0.8380816619	 2.4996110483	 1.6340701486	 0.118495
H	-0.9323858938	 2.5724481268	 1.5968527906	 0.110051
H	-0.0919762094	 2.1341803382	 3.0896515424	 0.120531
H	-1.0902429883	 0.135021537	 1.9674041318	 0.081132
H	-0.8627996077	-0.3486681636	-0.3036658397	 0.110383
H	 0.3580303999	 0.8940351066	-0.590374788	 0.083633
H	 1.1678015619	-1.9169981383	 0.1582601831	 0.092781
H	 3.033610186	-0.923058676	 1.5403399426	 0.121711
H	 2.5205272933	 1.3487210085	-0.1566472854	 0.249973
H	 4.2384700534	 2.4670943469	 0.7788587936	 0.070481
H	 1.0027163427	-0.9943250162	 2.9183678305	 0.089526
