19
gdb 30287	3.00939	1.62866	1.09335	1.7187	83.76	-0.1609	0.0483	0.2091	1106.2439	0.16244	-382.093447	-382.085606	-382.084662	-382.125459	30.815	
C	-0.1150862891	 1.5026086682	-0.0638928958	-0.327252
N	 0.0697206057	 0.0678373565	 0.0277042892	-0.168653
C	 0.7414971779	-0.544463145	-1.1441259187	-0.146366
C	 1.3738230119	-1.8812853653	-0.6454652787	-0.3611
C	 1.5482270945	-1.5218829364	 0.7961128332	 0.233965
C	 0.78239895	-0.4393828915	 1.1361525584	 0.342906
C	 0.8541873107	-0.2562319915	 2.5416206091	-0.324561
C	 1.6688304406	-1.2740647642	 3.009874267	-0.068117
N	 2.066818774	-2.0567558303	 1.9494291578	-0.369403
H	 0.8355933836	 2.0570446287	-0.1740512258	 0.094022
H	-0.7493253663	 1.7387361325	-0.9246530905	 0.114769
H	-0.6219304678	 1.8671830385	 0.8342114612	 0.124193
H	 0.0336740118	-0.6853320667	-1.966304456	 0.101192
H	 1.5499671721	 0.1188408604	-1.4981334788	 0.086714
H	 0.6809115565	-2.7241574855	-0.7862433181	 0.108106
H	 2.2898336604	-2.1170094329	-1.1975668581	 0.103352
H	 0.3896087427	 0.505164376	 3.1482599953	 0.088202
H	 2.0199365755	-1.4810134169	 4.0083205926	 0.111813
H	 2.6975349454	-2.8353588346	 2.0156449667	 0.256218
