17
gdb 105039	2.45161	1.37274	1.02034	1.0557	64.25	-0.266	-0.0496	0.2164	1159.7104	0.132723	-496.069562	-496.060108	-496.059164	-496.104491	33.717	
O	 0.4346828209	 0.916499879	-0.4901411409	-0.417032
C	-0.0315454411	 0.125219501	 0.5831205841	-0.118424
C	-1.3938283071	-0.4937897022	 0.3127412602	 0.322382
C	-1.548540715	-1.9498035514	 0.1935901044	-0.224142
O	-1.9278419896	-1.2614044357	 1.3960716624	-0.272467
C	-2.3694568529	 0.4094872424	-0.451057823	-0.04171
O	-2.0254262885	 0.42221553	-1.8184321296	-0.43322
C	-3.8083063676	-0.0455880824	-0.2750898654	 0.138572
O	-4.4566872824	-0.41713572	-1.2244450633	-0.266681
H	 0.0889665842	 0.5535533915	-1.3145322676	 0.30069
H	 0.6772843399	-0.6737092598	 0.8499991316	 0.097007
H	-0.1159205908	 0.7868641219	 1.4549085022	 0.116638
H	-2.3713551066	-2.3677751057	-0.384247569	 0.129761
H	-0.6699301258	-2.5852498719	 0.2846478823	 0.128309
H	-2.2954389657	 1.4317180015	-0.046546829	 0.112939
H	-2.7804775615	 0.0203996205	-2.2799077478	 0.298365
H	-4.2206337006	-0.0180532685	 0.7480106085	 0.129013
