23
gdb 80651	2.47835	1.6382	1.22557	0.2467	90.92	-0.221	0.026	0.247	1141.1735	0.207673	-351.164864	-351.156464	-351.15552	-351.197184	34.28	
C	-0.1554198601	 1.5465052023	 0.0149914661	-0.405952
C	 0.0407544585	 0.0199997864	 0.011542879	-0.058291
C	 0.7645208566	-0.4550660463	-1.2675563103	-0.011537
C	 1.0975426337	-1.9713284225	-1.177187759	-0.231924
C	 2.3414943193	-1.5305501968	-0.3449554622	-0.046608
C	 2.2993850608	-0.2063466211	-1.1652240688	-0.221176
C	 1.8744721435	-1.2327919416	 1.0624162141	-0.17276
C	 0.7768955132	-0.492002997	 1.2473805621	 0.323708
C	 0.216110083	-0.1711384693	 2.6044589203	-0.486611
H	 0.8053282064	 2.0714152315	 0.0340752595	 0.117812
H	-0.6945714008	 1.8639986365	-0.8840008789	 0.110264
H	-0.7342627615	 1.8788032452	 0.8815044614	 0.113623
H	-0.9646127981	-0.4321402409	 0.0133178223	 0.072469
H	 0.2445768504	-0.0950971077	-2.1599730458	 0.052575
H	 0.3753575497	-2.6337288843	-0.6921141766	 0.088517
H	 1.3779297797	-2.3773628529	-2.1534690411	 0.089687
H	 3.2434902271	-2.143888203	-0.3751639777	 0.052715
H	 2.7819076797	-0.3115913988	-2.1410437356	 0.09039
H	 2.6562029721	 0.7015287226	-0.6730246639	 0.090765
H	 2.4268923735	-1.6394758617	 1.9055693335	 0.074076
H	 0.7788125751	-0.6771384146	 3.3940447486	 0.117572
H	 0.2385058555	 0.9049449185	 2.8160908782	 0.123565
H	-0.8343299774	-0.4811131944	 2.6848810849	 0.117124
