17
gdb 62359	2.32469	1.86103	1.19432	3.1108	79.03	-0.2432	0.0052	0.2485	1042.3774	0.134064	-384.618333	-384.610045	-384.609101	-384.650801	32.265	
C	-0.1321819587	 1.5528708101	-0.0083155679	-0.478612
C	 0.0032771729	 0.0252544745	 0.0055036789	 0.15331
C	-1.3042026967	-0.5787696982	-0.2127549262	 0.259841
C	-2.3935136971	-1.0543102124	-0.3944480207	-0.431343
C	 1.2051985237	-0.6493062445	-0.7876513684	-0.19895
C	 2.1533686622	-0.1554168123	 0.3580561104	-0.27097
C	 0.889124275	-0.6598953715	 1.1344499246	-0.19892
C	 0.98111275	-1.8464421197	 0.1559757166	 0.458154
O	 0.9763910807	-3.0354219225	 0.1486464963	-0.322043
H	 0.8105829157	 2.078127119	 0.1483294608	 0.122979
H	-0.5458551631	 1.875850907	-0.9678694228	 0.136781
H	-0.8300135463	 1.8664929576	 0.7732671443	 0.136766
H	-3.3478217328	-1.4923874878	-0.5538271924	 0.196823
H	 1.3722548697	-0.6265707763	-1.8623297029	 0.098658
H	 3.07445313	-0.7205072781	 0.5063984823	 0.122182
H	 2.3422449867	 0.9149177319	 0.3950371564	 0.116689
H	 0.7032098281	-0.6489618769	 2.2062133708	 0.098654
