19
gdb 89830	3.26562	1.28732	1.02062	3.7942	77.57	-0.2257	0.0616	0.2872	1199.6253	0.160436	-419.243196	-419.234638	-419.233694	-419.276327	32.399	
C	-0.0605559523	 1.3787700769	 0.0755051945	-0.337068
N	-0.0355481425	-0.062360703	 0.1068730365	-0.108202
C	-1.1943731391	-0.8698138085	-0.2222802814	-0.230277
C	-0.6236371559	-2.2857389256	-0.1547318755	 0.376431
C	-1.1300483847	-3.314890389	 0.821944971	-0.317222
C	-1.3532878287	-3.4819804326	-0.6735590121	-0.32509
N	 0.7840975701	-2.0781933293	-0.3881165694	-0.416607
C	 1.1418585907	-0.7688755895	-0.0680370052	 0.444822
O	 2.2693131142	-0.3326953153	 0.0249335121	-0.424899
H	 0.9603130093	 1.7296461439	 0.2361685452	 0.164722
H	-0.4218492882	 1.7622491682	-0.8904465241	 0.11348
H	-0.7071510382	 1.7761659227	 0.8661460186	 0.119926
H	-2.0147833337	-0.7178181411	 0.4882118696	 0.112387
H	-1.5717048088	-0.6373217285	-1.2323434864	 0.103703
H	-0.4026622963	-3.9645408986	 1.2986059681	 0.116188
H	-1.9811663272	-3.0632843942	 1.446721195	 0.118583
H	-2.3567955915	-3.34390029	-1.0639939846	 0.119647
H	-0.7761441814	-4.2411524869	-1.190945965	 0.12087
H	 1.4539953944	-2.7922727797	-0.1465628668	 0.248608
