14
gdb 26612	2.46102	1.91905	1.07905	1.8163	72.37	-0.191	-0.0322	0.1588	1023.0539	0.102664	-470.047873	-470.040281	-470.039337	-470.07964	29.492	
N	 0.0243017529	 1.3799357314	-0.1505013445	-0.570173
C	-0.0243740112	 0.0097343254	-0.0661182009	 0.263938
C	-1.1878681842	-0.6991887895	-0.0395099679	 0.243302
O	-2.4048633378	-0.0942159438	-0.0349444134	-0.456573
C	-1.1644856107	-2.1312340711	-0.0082913311	 0.323656
N	-2.2405950151	-2.814227239	 0.0224115255	-0.600771
O	 0.0994500689	-2.7120254791	-0.0083456655	-0.211082
C	 1.1894459699	-1.9153262984	-0.0243706862	 0.113666
N	 1.2008435448	-0.6422085508	-0.0521921783	-0.31892
H	 0.8862486423	 1.7932883397	 0.1702247022	 0.260697
H	-0.8167048562	 1.8659550176	 0.1208387491	 0.269821
H	-3.0477652296	-0.823528621	-0.0004410584	 0.307868
H	-2.0733192784	-3.8164740529	 0.0482323845	 0.228002
H	 2.1031135143	-2.4989705284	-0.009817875	 0.146569
