18
gdb 23492	3.21903	1.45865	1.24926	1.4991	78.68	-0.2234	0.0243	0.2476	1042.0307	0.149426	-401.889888	-401.882565	-401.881621	-401.921577	29.464	
O	-0.1671344927	 1.3289978702	-0.030648601	-0.405142
N	 0.0242750045	-0.0759266138	-0.0124980404	-0.299033
C	-1.0901876378	-0.6727149869	 0.0838725476	 0.47551
C	-1.4135744367	-2.1153638654	 0.0215603194	-0.165831
C	-2.5812970392	-2.4143526363	 0.9747759923	-0.039197
C	-2.818605794	-1.4767481593	 2.1604000548	-0.242503
C	-3.0988092298	-0.0969238558	 1.5023773502	-0.208723
C	-2.5620555693	-0.2602024683	 0.0694234581	-0.145653
C	-2.8697456036	-1.7408312417	-0.3234508601	-0.083734
H	 0.7352419864	 1.6481848553	-0.133351871	 0.302928
H	-0.7867711868	-2.9060737478	-0.3703157705	 0.09911
H	-2.800282074	-3.4720537523	 1.0748823239	 0.091659
H	-3.6678535456	-1.8172198048	 2.7602598321	 0.100874
H	-1.9473262057	-1.4417060712	 2.8220847116	 0.112013
H	-4.1749967016	 0.1059285658	 1.4709491219	 0.099814
H	-2.61555713	 0.7307644719	 2.0273828413	 0.117607
H	-2.8151484114	 0.5392989894	-0.6253315624	 0.092362
H	-3.4874582127	-2.098706699	-1.1347399579	 0.097941
