15
gdb 43278	3.35381	1.73504	1.38579	3.6019	71.24	-0.2405	-0.0667	0.1738	912.1771	0.113149	-420.551688	-420.545271	-420.544327	-420.582336	26.104	
O	-0.0943130072	-0.0504432728	-0.2667027147	-0.312551
C	-0.024396646	 1.1295956806	-0.0415007474	 0.361208
C	-1.2024077035	 2.0607877102	 0.1783235134	-0.165099
C	-0.8272700561	 3.2635537945	 0.648236541	-0.2183
C	 0.6496880651	 3.204069268	 0.8511773189	 0.396069
C	 2.0455855761	 3.8697523701	 0.8993290614	-0.305521
C	 2.1824749557	 2.328992522	 1.1785927551	 0.021847
O	 1.0444982111	 2.4314956478	 2.0945916915	-0.340917
C	 1.2005801684	 2.0556661404	 0.0032195837	-0.137806
H	-2.2187897701	 1.7213641149	 0.0169860238	 0.129574
H	-1.48118421	 4.0762507885	 0.9404111371	 0.132967
H	 2.4464049624	 4.2751000116	-0.0328619533	 0.107497
H	 2.2440849987	 4.4999718097	 1.7662287323	 0.120016
H	 3.056511559	 1.7699451734	 1.5099946485	 0.109421
H	 1.5418693465	 2.3094705013	-1.0054952812	 0.101595
