18
gdb 20808	5.57682	1.20609	1.08396	2.3722	75.27	-0.2273	0.031	0.2583	1152.7472	0.15486	-344.025059	-344.01661	-344.015665	-344.058738	30.279	
C	 0.0481132527	 1.5490180286	-0.2363977716	-0.365386
C	 0.0006249467	 0.0389633309	 0.0613033821	-0.301773
C	-1.390862718	-0.5018417434	 0.1763228776	 0.395404
C	-2.1913082402	-0.7730240513	 1.2683649914	-0.380664
C	-3.423140378	-1.2282643809	 0.7363604984	 0.355277
C	-4.6506342817	-1.6664548632	 1.4717444194	-0.490014
N	-3.392465915	-1.2399367144	-0.5948459169	-0.289541
N	-2.1557395669	-0.7951560809	-0.9079409354	-0.255913
H	 1.0825897881	 1.8986605609	-0.3086085355	 0.115764
H	-0.4547739644	 1.7827640963	-1.1800708941	 0.117192
H	-0.4520632869	 2.1157189924	 0.5542079215	 0.128853
H	 0.5450896519	-0.5046603466	-0.7215434469	 0.106918
H	 0.5283246271	-0.1659971688	 0.9978818314	 0.120024
H	-1.9196748638	-0.6609896762	 2.3065738604	 0.092056
H	-5.0443128294	-0.8665400414	 2.1086509023	 0.124595
H	-5.4274115912	-1.9530589681	 0.7596476361	 0.13715
H	-4.4445632147	-2.5246821225	 2.1210845084	 0.125078
H	-1.8949478764	-0.7294457312	-1.8772312888	 0.264981
