19
gdb 83208	2.59299	1.50966	1.25649	1.725	80.52	-0.2519	0.0368	0.2887	1081.621	0.159055	-385.844289	-385.835839	-385.834895	-385.877083	32.688	
C	-0.2154292814	 1.5326621326	-0.0653882949	-0.424454
C	 0.025183802	 0.0375141017	 0.0058626922	-0.00969
C	 1.3634383841	-0.6283592117	-0.2269731851	-0.091763
C	 2.6154763421	 0.2104710108	-0.0473003095	-0.095773
O	 2.4798137691	 0.8840949666	 1.2042827577	-0.26449
C	 1.643371368	 0.0988998228	 2.0625860458	-0.066962
C	 0.9832687063	 0.9668159555	 3.0346618602	 0.319054
C	 0.4335259202	 1.6378629424	 3.8657039782	-0.439687
C	 0.7159076812	-0.6867341338	 1.1385156258	-0.081383
H	 0.6220719879	 2.1047158888	 0.3350289911	 0.149366
H	-0.3788239614	 1.8399500759	-1.1045178333	 0.109271
H	-1.109244063	 1.8039237465	 0.505436398	 0.121071
H	-0.801583526	-0.5428606676	-0.398949738	 0.086122
H	 1.4280953813	-1.5027156169	-0.8648471409	 0.089045
H	 3.5046516689	-0.4394654154	-0.0492160212	 0.096589
H	 2.7567208767	 0.9847454296	-0.809214706	 0.1117
H	 2.261107876	-0.6280981956	 2.6178841855	 0.100421
H	-0.0523002496	 2.2414990651	 4.5919061866	 0.196781
H	 0.2847380375	-1.5973008273	 1.5374790777	 0.09478
