19
gdb 46188	2.98953	1.61188	1.21118	2.6073	80.6	-0.2329	-0.0253	0.2076	1054.4686	0.160018	-385.847472	-385.839933	-385.838989	-385.879998	29.768	
O	-0.0765469043	 0.0719816756	-0.4208992362	-0.304722
C	-0.0792274552	 1.2290733815	-0.1026989072	 0.309506
C	-1.1699540798	 2.1773847356	 0.4271367622	-0.341659
C	-0.1072071614	 3.3160153204	 0.4759919732	-0.353876
C	 0.9781454197	 2.3386976465	-0.0617349238	 0.301869
C	 2.4112955985	 2.1654746373	 0.5360489795	-0.100291
C	 2.7870982713	 1.4031949593	-0.7680500459	-0.230914
C	 1.9729588923	 2.6483109747	-1.22612195	-0.100289
C	 2.7936238264	 3.4825920048	-0.1999156947	-0.228939
H	-1.9981305236	 2.3250100502	-0.2719041945	 0.131501
H	-1.586555863	 1.8694703897	 1.3904357268	 0.131442
H	-0.323331606	 4.1584488851	-0.1846822575	 0.110559
H	 0.0895110072	 3.7018312711	 1.4786632655	 0.110575
H	 2.6435793908	 1.8839672618	 1.5643807243	 0.07664
H	 3.8483622418	 1.4075875143	-1.030832197	 0.088573
H	 2.3257644057	 0.4284745431	-0.9203595356	 0.132962
H	 1.6962346715	 2.9274796694	-2.2440399205	 0.076651
H	 2.3422294434	 4.4077531746	 0.1658635491	 0.096924
H	 3.8550450546	 3.617883945	-0.4268631779	 0.093491
