18
gdb 31779	2.94192	1.29943	0.96109	1.7667	76.67	-0.1832	0.0404	0.2236	1210.1357	0.147681	-439.112656	-439.103399	-439.102454	-439.146495	34.11	
C	 0.342783641	 1.2801756962	 0.2749427397	-0.358121
N	 0.0494047589	-0.134487324	 0.1293397864	-0.089128
C	 0.0498411443	-0.8230014378	-1.0488081149	 0.355988
O	 0.3583794668	-0.1348722673	-2.1788634726	-0.439953
C	-0.2775100763	-2.1404515235	-0.8202838261	-0.303805
C	-0.4885820017	-2.2521427945	 0.584127156	-0.220313
C	-0.292515203	-1.0156546212	 1.1538196038	 0.236522
C	-0.380959596	-0.586681647	 2.5747226515	-0.189493
O	 0.8692377998	-0.1483826597	 3.1263990955	-0.41295
H	 0.8391743364	 1.4392185071	 1.2332497808	 0.163306
H	 1.0021902872	 1.5932903489	-0.5356851663	 0.149658
H	-0.5687591256	 1.8879992569	 0.2331493507	 0.130967
H	 0.4004285881	-0.7604255738	-2.9080611151	 0.308066
H	-0.3522995379	-2.9188926723	-1.563683519	 0.086504
H	-0.766935091	-3.1467381336	 1.1214497868	 0.092678
H	-1.0522268911	 0.2701450877	 2.7083814921	 0.109768
H	-0.7999852003	-1.4199961426	 3.1563156996	 0.102764
H	 1.5152603806	-0.8322101497	 2.9169344111	 0.27754
