19
gdb 83258	1.78798	1.76661	1.55	0.7027	70.2	-0.2292	0.0663	0.2955	1032.0515	0.157849	-460.133394	-460.124159	-460.123215	-460.167355	34.447	
C	-0.3520286321	 1.4660023309	 0.0365039962	-0.446139
C	-0.0370522214	-0.0102903435	 0.1447229775	-0.075324
C	 1.2906527511	-0.6061706529	-0.2850261067	-0.006548
O	 2.362763101	 0.2836837562	-0.4528350959	-0.262543
C	 2.8085980096	 0.7572387638	 0.8237977215	-0.114405
C	 1.8874047006	 0.1766076064	 1.9322944105	 0.030373
O	 1.3640548976	 1.1438334904	 2.8242645363	-0.432788
C	 0.8743108192	-0.6649929213	 1.1611442598	 0.31272
O	 0.3506188615	-1.8051756625	 1.769739622	-0.466903
H	 0.5465395327	 2.0871434263	 0.0779430112	 0.132592
H	-0.8309672857	 1.6775623156	-0.9250515725	 0.129473
H	-1.0460262611	 1.7917897025	 0.8202553899	 0.123679
H	-0.8781212818	-0.6652099749	-0.0709951035	 0.103533
H	 1.3294494964	-1.4718274248	-0.9384219092	 0.102661
H	 3.852289468	 0.4516963243	 0.9650978619	 0.108016
H	 2.7725900678	 1.8526801743	 0.8463968935	 0.108703
H	 2.4597495136	-0.4992935311	 2.5780703311	 0.08577
H	 0.7090620333	 1.6659213341	 2.3504695825	 0.286019
H	 1.0784472098	-2.4065962734	 1.9659667239	 0.281111
