23
gdb 123026	4.84591	0.54422	0.51716	2.0292	84.3	-0.2456	0.0812	0.3267	2198.3299	0.203505	-425.40113	-425.390294	-425.389349	-425.438367	38.483	
C	-0.0652066592	 1.4887522188	-0.0026662742	-0.38392
C	-0.0821926678	-0.0091587135	 0.2524035772	-0.02573
O	-1.3398051095	-0.5192443654	-0.1339151181	-0.242606
C	-1.4620832874	-1.9112880153	 0.0599537774	-0.041481
C	-2.8526489865	-2.3455447399	-0.3886652215	-0.223103
C	-3.0625969494	-3.8370664455	-0.2405444242	-0.016055
C	-3.4264717061	-4.4325629642	 1.1102825678	-0.326075
C	-4.4335931756	-4.4045579916	-0.0122641618	 0.088058
O	-5.4968839395	-3.4970587385	 0.0338247242	-0.415322
H	 0.8998202042	 1.9154913914	 0.2870002462	 0.111584
H	-0.2344449674	 1.6988872235	-1.0626174992	 0.125634
H	-0.8518394312	 1.9846481143	 0.5732280952	 0.125477
H	 0.7225691552	-0.5070438307	-0.3162706838	 0.081364
H	 0.1047602306	-0.2216602168	 1.3195193115	 0.081201
H	-0.6859138719	-2.4477149236	-0.5150787404	 0.076682
H	-1.3051162561	-2.169251559	 1.1215786357	 0.08278
H	-3.605788023	-1.8033479297	 0.1893105803	 0.117184
H	-2.9910191377	-2.049155621	-1.4352650741	 0.106354
H	-2.4118930395	-4.4484474512	-0.8615318235	 0.08455
H	-2.9948342718	-5.3811179694	 1.4110207247	 0.108301
H	-3.5921286034	-3.7296129346	 1.9209513656	 0.113193
H	-4.6684248334	-5.3499422575	-0.5018903841	 0.084032
H	-6.1052048636	-3.7881317004	 0.7206499493	 0.287896
