22
gdb 105242	1.8432	1.5447	1.07481	2.8671	82.67	-0.2309	0.0811	0.312	1253.0318	0.193265	-404.295752	-404.2861	-404.285155	-404.330083	36.625	
C	 2.0756286232	 0.8776404016	-0.7399376378	-0.418181
C	 1.1570218308	-0.265061351	-0.3568731413	-0.04803
C	 1.686636148	-1.5542219398	 0.2426820904	-0.324587
C	 0.833797625	-0.6395250395	 1.0749641142	 0.294727
C	 1.4563157015	 0.0974016045	 2.2491409997	-0.095771
O	 1.4886670062	-0.7207740114	 3.4009522954	-0.425119
N	-0.481973016	-1.1010229987	 1.4937007639	-0.129047
C	-1.6628215665	-0.3269517482	 1.1154997515	-0.223728
C	-1.426369279	-1.6884186887	 0.5596043721	-0.237733
H	 2.9346273416	 0.956298749	-0.0684827899	 0.122978
H	 2.4680881947	 0.7301163874	-1.7522941585	 0.118931
H	 1.5518551935	 1.8399141163	-0.7249923959	 0.118309
H	 0.3382226023	-0.4015109274	-1.0602948549	 0.079593
H	 1.2549189061	-2.4907136785	-0.0955559045	 0.111791
H	 2.7427845496	-1.6134438658	 0.4866441085	 0.117615
H	 2.4871658113	 0.3866559897	 2.0289667957	 0.09741
H	 0.8856829029	 1.0241814947	 2.4358951211	 0.078644
H	 0.6389096763	-1.1829878925	 3.3963911976	 0.284262
H	-2.399702748	-0.1668824313	 1.8970803674	 0.120134
H	-1.5183381277	 0.512032697	 0.437974987	 0.117179
H	-1.1585237743	-1.757853029	-0.4922651961	 0.119983
H	-1.9809273617	-2.5436556285	 0.9361253144	 0.120639
