17
gdb 124922	2.28919	1.83608	1.03178	1.3421	81.78	-0.2292	-0.0496	0.1797	1126.3599	0.135312	-418.000099	-417.991361	-417.990417	-418.034022	31.716	
C	 0.1007987386	 1.52217529	 0.1230594917	-0.471435
C	-0.0663469043	 0.0343574541	 0.1218138399	 0.315509
C	-1.1999238387	-0.6860396354	-0.0362745332	 0.117567
C	-2.5694854736	-0.1104596032	-0.2503138224	-0.483782
C	-1.0916682437	-2.1386832175	 0.0030462751	 0.219079
N	-2.1234683764	-2.8963520923	-0.1392151322	-0.523133
C	 0.2742430265	-2.618577184	 0.2149679025	-0.025414
N	 1.3301972337	-1.9048624709	 0.3615612917	-0.064536
O	 1.1643754592	-0.5335335055	 0.3149636936	-0.28675
H	 0.795197666	 1.8211682916	-0.6690199138	 0.152313
H	-0.8450029684	 2.039023684	-0.026370738	 0.142746
H	 0.5350913555	 1.8489179178	 1.0736323497	 0.152313
H	-2.9881269906	-0.4860297141	-1.1898225117	 0.148537
H	-3.2463991579	-0.4585156475	 0.5368620944	 0.148537
H	-2.5810726133	 0.9791525111	-0.2693923203	 0.114823
H	-1.8553696648	-3.8814594994	-0.0834437666	 0.210954
H	 0.459147512	-3.6905444687	 0.2596643496	 0.132674
