17
gdb 71211	2.39856	2.09147	1.61796	3.1961	71.07	-0.2259	-0.016	0.2099	901.7721	0.13633	-421.801586	-421.794418	-421.793474	-421.832924	28.557	
C	 0.0303872351	 1.4950237037	 0.0099677658	-0.515107
C	 0.0401065286	 0.0027586998	 0.0941807625	 0.292432
O	 0.7998863813	-0.7005234493	-0.9583129435	-0.333329
C	 0.8200872017	-1.7968833403	-0.0261725677	 0.125779
C	-0.676872956	-2.1691565117	 0.3586126388	-0.217767
C	-0.3231477635	-1.8130064611	 1.842194574	-0.265955
C	 0.7328061373	-0.8809989263	 1.2104193748	-0.128426
C	-1.2624980034	-0.8160865326	-0.0471609205	 0.461113
O	-2.3654026146	-0.4764304144	-0.366081805	-0.340796
H	 1.0466426811	 1.8972202305	 0.0293324044	 0.130139
H	-0.4594934479	 1.8145177142	-0.9144171993	 0.148977
H	-0.5312267534	 1.9133019591	 0.8511248737	 0.133478
H	 1.5504504556	-2.5778704772	-0.2290878559	 0.096391
H	-1.1907088866	-3.0803247572	 0.0669582465	 0.09364
H	-1.1181472243	-1.3914735573	 2.4634717103	 0.116713
H	 0.1505614512	-2.6471350121	 2.3655347171	 0.116216
H	 1.5887770276	-0.4629071578	 1.737602674	 0.086501
