15
gdb 3035	10.59289	1.0954	1.06573	2.9672	61.77	-0.2587	0.0331	0.2918	1059.6836	0.125976	-304.687053	-304.679807	-304.678863	-304.718938	25.36	
N	-0.0414870044	-1.1325850911	-0.0377309748	-0.301845
C	-0.0080240768	 0.0213283087	-0.0895106721	 0.255662
C	 0.0636652835	 1.4791237092	-0.1479857569	-0.331674
C	 1.4468917178	 2.0212370202	 0.2777175354	-0.219038
C	 1.5007842262	 3.5293891213	 0.2050242297	 0.029877
C	 2.7723627109	 4.2288738075	-0.095107131	-0.249035
N	 1.6809357252	 4.2133243044	-1.0876809948	-0.314424
H	-0.1726802545	 1.8019824573	-1.1681508851	 0.158654
H	-0.717909734	 1.8941305014	 0.4988030541	 0.156576
H	 1.662605114	 1.6860201194	 1.2986146107	 0.129985
H	 2.2208301291	 1.5880436829	-0.3666527766	 0.11651
H	 0.7852099393	 4.0366455355	 0.8513502473	 0.097631
H	 2.9788207342	 5.2001569296	 0.3444995336	 0.126256
H	 3.6537749477	 3.6201344791	-0.2810571129	 0.116231
H	 1.8944897918	 3.5307598446	-1.8125742068	 0.228635
