21
gdb 40695	3.61719	0.96132	0.88757	1.765	83.43	-0.2512	0.0903	0.3415	1412.0606	0.182371	-387.041106	-387.032303	-387.031359	-387.075412	33.391	
C	-0.2904509368	 1.1013014193	-0.3810171132	-0.254899
C	 0.9761055373	 1.2254332416	 0.4256234778	-0.275005
C	 0.4454478757	-0.139687509	 0.0534040502	-0.029106
C	-0.0974455488	-1.0267955707	 1.1322003943	 0.021007
O	-1.2240810714	-0.5505821822	 1.8776326894	-0.267535
C	-1.3917027267	-1.7297116481	 1.0718907092	 0.064209
C	-2.3358591885	-1.6746487669	-0.0788473552	-0.010023
C	-2.7701568913	-2.9740061489	-0.7195617909	-0.269346
C	-3.74850916	-2.1803770893	 0.1026738697	-0.265865
H	-1.2205316981	 1.3196470786	 0.1298131723	 0.132987
H	-0.2665715388	 1.3706362146	-1.4311752884	 0.107128
H	 1.8756891547	 1.5791163134	-0.065532657	 0.11
H	 0.8757134515	 1.5324950105	 1.4612091806	 0.123112
H	 1.0022929992	-0.6770164083	-0.7102331838	 0.088917
H	 0.6743269042	-1.4827831344	 1.7583673114	 0.08551
H	-1.4800600227	-2.6423948773	 1.668026367	 0.081175
H	-2.2041530802	-0.8276259212	-0.740669241	 0.09793
H	-2.8887791235	-2.9935048959	-1.7968747379	 0.114875
H	-2.3869436757	-3.8986298205	-0.2998682766	 0.112901
H	-4.023876347	-2.56709587	 1.0783297476	 0.116739
H	-4.5458687831	-1.6513401953	-0.4067860654	 0.115289
