18
gdb 38524	3.04338	1.9874	1.45778	1.1082	76.56	-0.2211	-0.0013	0.2198	909.6422	0.150451	-401.879135	-401.872547	-401.871603	-401.909841	27.299	
C	-0.0318607767	 1.478692515	-0.148207277	-0.207776
C	 1.516205368	 1.5497003335	 0.0923111978	 0.133568
O	 2.0259360669	 2.4518709456	 1.0508970956	-0.282531
C	 2.3090021695	 1.891173937	 2.3534635138	-0.109595
C	 1.1877974712	 0.9890489589	 2.8084365834	-0.198536
C	 0.8308868323	 0.062606295	 1.9234150764	 0.204233
C	-0.4891395514	-0.4632508161	 1.4015847642	-0.237779
N	-0.0433477255	-0.0263109403	 0.0180231228	-0.143997
C	 1.3927128343	 0.076120769	 0.5189721861	-0.097715
H	-0.6132239706	 2.022072976	 0.6028371531	 0.109109
H	-0.365739959	 1.7701650692	-1.1466458533	 0.109927
H	 2.0742639877	 1.7081347629	-0.8357536433	 0.087861
H	 3.2683604305	 1.3551456615	 2.3094878122	 0.106668
H	 2.4384120836	 2.7505183255	 3.0145406923	 0.116186
H	 0.6005099406	 1.2352093069	 3.6874457149	 0.097568
H	-0.6111085455	-1.5511584936	 1.4055193357	 0.117125
H	-1.4048809936	 0.0064975935	 1.7750739771	 0.113981
H	 2.1132378376	-0.6782803595	 0.1959115881	 0.081702
