15
gdb 69190	1.99247	1.76983	1.15497	6.5277	71.55	-0.259	-0.0429	0.2161	1071.5055	0.111658	-416.791274	-416.783079	-416.782134	-416.824251	30.051	
C	-0.02596589	 1.5253867852	 0.0281736159	-0.508853
C	 0.0910616381	 0.0344061237	 0.015666439	 0.328834
N	-0.7999178514	-0.8626888616	 0.7433938105	-0.342508
C	 0.6779989812	-0.9125037413	 1.0369994346	-0.251486
C	 1.2563364476	-1.7681600622	-0.0533557497	 0.46766
O	 2.03580144	-2.664048467	-0.1129405981	-0.283005
C	 0.6300498606	-0.816982185	-1.1619101184	-0.336401
C	-0.3130084939	-1.3412463238	-2.1285057165	 0.300263
N	-1.0629684503	-1.7537096213	-2.9055261868	-0.326932
H	 0.8933628506	 1.9967965629	-0.3326048731	 0.140164
H	-0.8491735145	 1.8532330475	-0.6155293264	 0.155439
H	-0.2221756684	 1.8914648265	 1.0410187409	 0.132315
H	-1.2202355989	-0.3389854357	 1.5124193141	 0.24565
H	 1.0510351541	-0.7389159517	 2.0380491298	 0.129744
H	 1.4660051152	-0.326271116	-1.6722072559	 0.149117
