15
gdb 74896	2.93748	1.72613	1.18763	1.9907	68.62	-0.2303	-0.0476	0.1827	993.3863	0.114164	-453.972202	-453.964847	-453.963903	-454.003908	28.78	
N	-0.0064144658	 1.2762869599	 0.0711087476	-0.537133
C	-0.0842825055	-0.0810338342	 0.0094398182	 0.234174
N	-1.1993328005	-0.7102703038	 0.0717078364	-0.305208
C	-1.1750948593	-2.1215530813	-0.1007494148	-0.017273
C	-0.7500988699	-2.708552552	-1.4399853939	-0.323658
C	 0.14773151	-2.8268474306	-0.2459457298	 0.087166
O	 1.3365125179	-2.0607949367	-0.1634917884	-0.221844
C	 1.2864270957	-0.7238824929	-0.0911426153	 0.396087
O	 2.3007187812	-0.0743316548	-0.0449191728	-0.341341
H	 0.9035602649	 1.6704233789	 0.2456982459	 0.277697
H	-0.8273186804	 1.7779685775	 0.366623712	 0.263373
H	-1.9701709267	-2.6328439139	 0.4324028096	 0.106316
H	-1.2355020303	-3.6097999091	-1.7977224471	 0.126885
H	-0.4738066789	-1.9934434781	-2.2078667033	 0.133753
H	 0.3234546176	-3.7973351492	 0.2020042954	 0.121009
