19
gdb 15365	6.02972	0.85391	0.81497	3.2066	73.66	-0.2396	-0.0188	0.2208	1427.5896	0.163972	-365.05012	-365.040962	-365.040017	-365.085196	31.948	
C	-0.1392307033	 1.5100272971	-0.4578716963	-0.377431
C	 0.0439849421	 0.1423338674	 0.2104984733	-0.183052
C	-1.2780075609	-0.5589553865	 0.4271047336	 0.001818
N	-1.8694033801	-1.2586491521	-0.726421755	-0.337531
C	-1.4743732099	-2.0353807213	 0.464116339	-0.042444
C	-0.3684431215	-3.0576914146	 0.2780120955	-0.282451
C	-0.8857014905	-4.291481401	-0.4333461215	 0.158571
O	-0.7721487474	-5.4194186179	-0.0265077466	-0.241094
H	 0.8229623787	 2.0063441184	-0.6146524955	 0.114235
H	-0.6276350158	 1.3981074149	-1.430733713	 0.13035
H	-0.7598174223	 2.1725099686	 0.1559617146	 0.111847
H	 0.6941561878	-0.4799116928	-0.4119054491	 0.104536
H	 0.5467116638	 0.2612112472	 1.1789579349	 0.099382
H	-1.9691894979	 0.0034905403	 1.0564116141	 0.083235
H	-2.8766497734	-1.1309689965	-0.7566381578	 0.233725
H	-2.2783251724	-2.3815515307	 1.1130952981	 0.093864
H	 0.4225569903	-2.6289675636	-0.3480885136	 0.125455
H	 0.0660120876	-3.3578396243	 1.2362502998	 0.119329
H	-1.4032771049	-4.0722963927	-1.3940297045	 0.087657
