23
gdb 120694	3.02289	0.81121	0.72699	2.5419	88.17	-0.2397	-0.0097	0.23	1703.6172	0.203713	-388.313834	-388.303204	-388.30226	-388.350377	38.278	
C	-0.0532224925	 1.5541986929	-0.1199475448	-0.381885
C	 0.1457766833	 0.0373297909	-0.0644794342	-0.156692
C	 0.445126138	-0.4717250239	 1.3528880671	-0.205045
C	 0.6229179585	-1.9750168358	 1.3926261499	 0.005142
C	 1.9313287437	-2.6241120215	 1.0884068689	-0.284089
C	 1.3945742433	-2.699987153	 2.5080603591	-0.147366
C	 2.0895600976	-1.9296002988	 3.5802144825	 0.391226
C	 1.8732422807	-2.4287805754	 4.9980779903	-0.482253
O	 2.7876871102	-0.9626497234	 3.3473069058	-0.326798
H	 0.8395275487	 2.0819313908	 0.2330831601	 0.118859
H	-0.2603024583	 1.893205848	-1.1398623064	 0.109335
H	-0.892007864	 1.8676993589	 0.5117956766	 0.112079
H	-0.750126319	-0.4653145525	-0.4533510343	 0.088544
H	 0.9686082392	-0.2519472163	-0.7303166676	 0.099488
H	 1.3452829659	 0.0136766714	 1.7400222011	 0.133929
H	-0.3787646712	-0.183951281	 2.0207978745	 0.088219
H	-0.2566918643	-2.5303098306	 1.0728312713	 0.088752
H	 1.9566381946	-3.5414754273	 0.5111184363	 0.112962
H	 2.7894953198	-1.970858561	 0.967239516	 0.137007
H	 0.962394916	-3.6424155116	 2.828239134	 0.082701
H	 2.2412330222	-3.4568447563	 5.0961208582	 0.138621
H	 2.3960946853	-1.7835004539	 5.7046670306	 0.139164
H	 0.8033381422	-2.4518849908	 5.234905055	 0.138098
