19
gdb 37208	3.17018	1.93496	1.60779	0.4781	83.46	-0.2269	-0.0093	0.2176	899.3255	0.162758	-348.68146	-348.675266	-348.674321	-348.711517	27.374	
C	-0.2253922561	 1.399934409	-0.2083291179	-0.294779
C	 1.1663747803	 0.8323402846	-0.0712641033	-0.00735
C	-0.0472561153	-0.0939372888	 0.0174174449	-0.114199
C	 0.1747210668	-0.8528758808	-1.2733211387	 0.099145
C	-0.3861935555	-0.4434157938	-2.4223507153	-0.107835
C	 0.6561071337	-0.1327339633	-3.4759493495	-0.264451
C	 1.9377574748	-0.1978858558	-2.643863089	-0.055252
C	 2.125041388	 0.2950683025	-1.1600924829	-0.065234
C	 1.6738920598	-1.0973452666	-1.4789414422	-0.120886
H	-0.5744223332	 1.9933852821	 0.6329615192	 0.103141
H	-0.5866300247	 1.7476810517	-1.1676254075	 0.112057
H	 1.6924661518	 1.0941630222	 0.842634681	 0.085392
H	-0.3364680996	-0.5519723256	 0.9566970776	 0.085301
H	-1.3858297322	-0.0249483888	-2.4841346872	 0.096385
H	 0.7193958539	-0.839999804	-4.3160875667	 0.106387
H	 0.446610576	 0.8521599518	-3.9142397404	 0.106842
H	 2.883664171	-0.2623562867	-3.1770901835	 0.076724
H	 3.173166128	 0.4926823172	-0.9500737089	 0.079832
H	 2.1788359325	-2.0256072569	-1.2334281697	 0.078781
