17
gdb 44203	3.86125	1.17436	1.12342	2.995	73.83	-0.2362	-0.0123	0.2239	1124.0002	0.13545	-421.791447	-421.783809	-421.782865	-421.824043	29.153	
O	 0.2261248485	 0.0320061198	-0.0202335305	-0.317851
C	 0.1283061012	 1.2263206345	-0.0617356658	 0.416109
C	-1.0938093173	 2.1850034335	-0.0044624061	-0.367098
C	-0.1014890944	 3.3509777155	 0.1199514805	-0.157681
C	 1.1101317984	 2.3474004636	 0.0010712643	-0.262569
C	 0.7718164461	 3.3945772535	-1.0606377237	 0.469941
C	 0.5350916027	 3.2741572703	-2.5664568496	-0.362937
C	 1.5999181813	 4.38833033	-2.6521146152	-0.081119
O	 1.7030722415	 4.4569477086	-1.206157322	-0.314868
H	-1.7756171474	 2.1913627486	-0.8603195288	 0.119879
H	-1.6682605941	 2.0042438996	 0.9084400226	 0.138452
H	-0.1838370233	 4.1852690724	 0.8042276603	 0.115797
H	 2.0957377761	 2.3610934442	 0.4494542617	 0.118524
H	 0.8071701691	 2.3179431486	-3.0144437551	 0.13142
H	-0.4640029957	 3.5638567926	-2.897049539	 0.12246
H	 2.552311225	 4.0976643122	-3.1076328207	 0.116288
H	 1.2687473523	 5.3424494326	-3.073659653	 0.115254
