17
gdb 71088	3.04784	1.58913	1.43174	3.8288	71.7	-0.2343	-0.0054	0.2289	952.4086	0.13698	-421.80787	-421.800785	-421.799841	-421.839164	28.7	
O	-0.1248441449	 1.3538747781	 0.0608883138	-0.486052
C	-0.0347969759	-0.028888881	-0.014997585	 0.41114
C	 0.3912031664	-0.7829867204	-1.3081181414	-0.30283
C	-0.4247399191	-1.9229586099	-0.6816803897	-0.041185
C	 0.0459500479	-2.1530402915	 0.8232890121	-0.166132
C	 0.7581937312	-0.8012707769	 1.0710718957	-0.295111
C	-1.3925205525	-1.7534087702	 1.2051575603	 0.441442
O	-2.2092181817	-2.1450458707	 1.9864909482	-0.331111
C	-1.3893519898	-0.8526801701	-0.015677781	-0.207868
H	 0.7512606622	 1.7117510632	 0.2422286105	 0.28373
H	-0.1082677929	-0.3791166968	-2.1920921624	 0.112465
H	 1.459089924	-0.9225446344	-1.5066970486	 0.091213
H	-0.8032183506	-2.7826178958	-1.227727186	 0.093295
H	 0.5090221103	-3.074166442	 1.1694303865	 0.087306
H	 1.8330426918	-0.8208065979	 0.8643059337	 0.097461
H	 0.5939763038	-0.4159289227	 2.0819417815	 0.115378
H	-2.2601855903	-0.4163298609	-0.4976870482	 0.09686
