25
gdb 117833	2.28105	1.05617	0.90224	0.2535	85.96	-0.2471	0.0777	0.3248	1492.2403	0.225038	-426.612482	-426.600559	-426.599615	-426.649674	42.449	
C	 0.1671941381	 1.5341732683	-0.0685302546	-0.395688
C	 0.0844491564	 0.0108823049	 0.0631581596	-0.198561
C	-1.3477730196	-0.566233929	 0.0488588475	 0.339098
C	-1.3060935522	-2.0973505016	 0.1506790784	-0.438195
C	-2.1929939817	-0.0031065665	 1.2036383731	-0.084891
O	-1.5332198306	-0.2458165105	 2.4271800211	-0.238028
C	-2.2653786979	 0.1992766173	 3.5430336448	-0.223149
O	-2.089702734	-0.1228055169	-1.0962089309	-0.285597
C	-1.6708657763	-0.5826475466	-2.3609237228	-0.244749
H	 1.2080311814	 1.85566096	-0.1727223162	 0.106451
H	-0.3883236103	 1.8869393174	-0.9419940816	 0.123988
H	-0.2423625847	 2.0353243275	 0.8137059465	 0.120169
H	 0.6564401056	-0.4606884739	-0.7449768605	 0.087618
H	 0.5572962719	-0.308136695	 0.9969078243	 0.115242
H	-0.9796963064	-2.3818320261	 1.1539106011	 0.135055
H	-2.303125854	-2.5159564903	-0.0201068238	 0.114415
H	-0.6139265654	-2.5423857574	-0.5699674567	 0.109457
H	-2.3520669176	 1.0741641884	 1.0487582756	 0.095867
H	-3.1828792531	-0.4864537382	 1.1892125845	 0.088043
H	-2.4497597519	 1.2845075941	 3.5043940057	 0.105004
H	-3.239297569	-0.3093737039	 3.6214043348	 0.104711
H	-1.6754479189	-0.0272678086	 4.4346479783	 0.125432
H	-0.6441780241	-0.2767734614	-2.6067554812	 0.106522
H	-1.7385285173	-1.6747478481	-2.457382912	 0.107162
H	-2.3463233283	-0.1305944841	-3.0922081451	 0.124627
