15
gdb 44290	3.94917	1.87378	1.63705	4.0491	67.78	-0.2486	0.0227	0.2713	819.4065	0.115824	-416.74937	-416.743743	-416.742799	-416.779244	23.834	
N	-0.0392094589	 1.2909403666	 0.1279929236	-0.544936
C	 0.0082660471	 0.0437884064	-0.0229560909	 0.439129
O	 1.1615368288	-0.7157710928	-0.1218696054	-0.255803
C	 0.7342185708	-2.0771188175	-0.1169890628	 0.08642
C	 0.0420129449	-2.5182586954	 1.1793254125	-0.119383
C	-1.2135641033	-2.9428194519	 0.4248488214	-0.124286
C	-1.2203268953	-1.6433660902	 1.156601428	-0.037884
N	-1.1421448829	-0.8158076295	-0.0893397399	-0.158307
C	-0.6733815495	-2.0856817919	-0.7559783462	-0.046768
H	 0.9055202572	 1.6698572044	 0.2051247671	 0.227667
H	 1.5131660377	-2.7182471086	-0.5229481459	 0.101975
H	 0.4719267193	-2.9178573264	 2.0869048043	 0.104185
H	-1.8435193943	-3.8154835774	 0.4816837753	 0.114302
H	-1.755367819	-1.3170171348	 2.0369616466	 0.117817
H	-0.8514156527	-2.1883275611	-1.8235109978	 0.09587
