23
gdb 64198	2.56038	1.3095	1.29145	1.7385	84.7	-0.2379	0.0765	0.3144	1179.6462	0.204575	-388.273991	-388.264553	-388.263609	-388.308131	36.399	
C	-0.2633879346	 1.5258289304	 0.1269837998	-0.427843
C	-0.006324737	 0.0280709157	 0.0165707298	 0.351383
C	-1.2136992002	-0.7173081423	-0.5389026522	-0.42764
O	 1.1658328437	-0.2212108993	-0.8173659696	-0.331701
C	 1.8737521206	-0.8468548642	 0.2663325323	-0.12634
C	 0.6972564767	-0.6335480804	 1.2379280866	 0.272029
C	 0.9607292642	 0.0740860176	 2.5919801606	-0.290076
C	 0.8493317423	-1.3055360831	 3.2949323816	-0.218666
C	 0.1421036343	-1.8489175367	 2.0242074821	-0.290435
H	 0.614650654	 2.0476953786	 0.5168535332	 0.117712
H	-0.4909121193	 1.936040874	-0.8622927388	 0.121409
H	-1.1130593791	 1.73583492	 0.7856066822	 0.110677
H	-1.4552659419	-0.3387387521	-1.5373983455	 0.12136
H	-1.0102802442	-1.7882993143	-0.6223425168	 0.117656
H	-2.0937493152	-0.5798337572	 0.0986972135	 0.110649
H	 2.1228234176	-1.8940950807	 0.0454394227	 0.09314
H	 2.7997956874	-0.3109980122	 0.5169309238	 0.093231
H	 1.8988878141	 0.6270334089	 2.692905855	 0.098193
H	 0.1364914371	 0.7381078988	 2.8700676235	 0.101945
H	 1.8289035883	-1.7672451384	 3.4463519567	 0.10497
H	 0.2980797424	-1.3488612399	 4.2367401266	 0.098207
H	-0.9475387711	-1.8089385584	 2.1185053039	 0.101952
H	 0.4214071398	-2.8444816149	 1.668003549	 0.098186
