17
gdb 97496	3.45476	0.76807	0.63573	1.7348	81.77	-0.2439	-0.0911	0.1528	1753.7966	0.131601	-421.835108	-421.824442	-421.823498	-421.87396	35.283	
C	 0.002496877	 1.5718780615	-0.1010980056	-0.367809
C	-0.0407861362	 0.0464457208	 0.101086871	-0.330431
C	-1.3899531099	-0.4962721112	 0.1234130659	 0.170422
C	-2.5192499968	-0.9253987227	 0.138755684	 0.037723
C	-3.8549810043	-1.4546703066	 0.1597988481	 0.067249
O	-4.1201518501	-2.6309080864	 0.3063483271	-0.278275
C	-4.9939152619	-0.4183592528	-0.0200094212	 0.308005
C	-6.3904127775	-0.9874183712	 0.0039726589	-0.482451
O	-4.732722784	 0.750499495	-0.1656611227	-0.271179
H	 1.0389308251	 1.9204967656	-0.1091017595	 0.121452
H	-0.4654191954	 1.8512838504	-1.048231152	 0.139142
H	-0.5305950505	 2.0852288556	 0.702865209	 0.139155
H	 0.5251771847	-0.456805239	-0.6937194593	 0.146649
H	 0.4606810813	-0.2252827297	 1.0391654222	 0.146655
H	-6.5026271444	-1.7396987903	-0.7831476442	 0.157054
H	-6.5665706027	-1.5097232788	 0.949611741	 0.157056
H	-7.1150509042	-0.1840727701	-0.1294266328	 0.139582
