18
gdb 86585	2.99947	1.18666	0.91456	2.1159	68.59	-0.2388	0.0282	0.267	1266.1159	0.14614	-476.240438	-476.230825	-476.229881	-476.275511	34.748	
C	 0.092867104	 1.6103674931	-0.1511675143	-0.393523
C	 0.6226668569	 0.1949547461	-0.2417386931	 0.129285
O	 2.0813774774	 0.1422437588	-0.2033414476	-0.325813
C	 2.0762721163	-0.6146352535	 1.0257739436	 0.018615
C	 0.5286620674	-0.6898098847	 1.026196966	 0.04657
O	-0.1457046818	-0.0779953086	 2.0915126058	-0.424217
C	 2.7980515056	-1.9517675725	 0.9659373808	 0.345044
N	 3.4166834696	-2.1957045906	-0.2134889417	-0.518899
O	 2.7693635563	-2.709744418	 1.9189588177	-0.379269
H	 0.4214752203	 2.0948373669	 0.7701871395	 0.136125
H	 0.4491410811	 2.1917629886	-1.0068205991	 0.122088
H	-1.0014411014	 1.6067237773	-0.1655192294	 0.12566
H	 0.2557844183	-0.2991421822	-1.1495879598	 0.082085
H	 2.4720119069	-0.0378688468	 1.8700447074	 0.111244
H	 0.1493122034	-1.7003549087	 0.8357474021	 0.09107
H	-0.1117250491	-0.6742241825	 2.8468848831	 0.297744
H	 3.3750840217	-1.5021351272	-0.9422134482	 0.273618
H	 3.9257524771	-3.0538395053	-0.341838793	 0.262573
