18
gdb 6229	2.16939	2.10588	1.62258	2.3756	64.52	-0.2263	0.0633	0.2896	917.7734	0.149211	-422.046951	-422.037236	-422.036291	-422.080125	36.103	
C	-0.041972195	 1.549546153	-0.0521657636	-0.449177
C	 0.0159176605	 0.0400395238	 0.035556735	 0.328883
O	-1.1509011135	-0.5994502244	-0.4016981122	-0.449615
C	 1.323977409	-0.688984872	-0.2098407424	-0.071582
O	 2.4481106368	 0.0806478055	-0.5319822629	-0.415619
C	 0.7086421314	-0.6581421057	 1.1896977453	 0.296979
C	 1.3754608357	 0.126878282	 2.2978829539	-0.458939
O	 0.0667059207	-1.8253604392	 1.6224513748	-0.444155
H	 0.9133182261	 2.0142173123	 0.1931933436	 0.134437
H	-0.2912378615	 1.8461722088	-1.0783487604	 0.108374
H	-0.8193338186	 1.9435148062	 0.6095011112	 0.124466
H	-1.235368922	-0.4284384667	-1.3466729587	 0.278488
H	 1.2233964785	-1.6404851507	-0.7337389238	 0.090252
H	 3.2216014595	-0.3314171846	-0.1324492117	 0.288874
H	 1.9470333628	 0.9743376818	 1.9159574714	 0.129556
H	 0.6341087261	 0.4923564301	 3.0148403215	 0.131805
H	 2.0725880047	-0.5219099807	 2.8444786604	 0.100691
H	 0.7439064288	-2.4228226494	 1.9595084486	 0.276281
