17
gdb 2266	3.59395	2.70874	2.08046	1.1359	63.73	-0.2444	0.0808	0.3251	711.0096	0.14786	-309.68896	-309.681821	-309.680877	-309.719504	27.502	
C	-0.1253317128	 1.581527578	 0.0084172585	-0.416109
C	 0.0602384353	 0.0694289791	-0.0006773062	-0.022825
C	 1.1707312536	-0.5786617762	-0.9038004225	-0.247745
C	 1.7236352185	-1.3142785159	 0.3228645744	-0.099033
C	 2.1590901342	-0.2994873072	 1.3577487333	-0.343968
C	 0.6986921725	-0.6272028315	 1.2120759221	 0.392908
O	-0.0357971455	-1.1914756408	 2.2431904515	-0.464141
H	 0.8139614051	 2.103307085	 0.2209435226	 0.112455
H	-0.490483715	 1.9406548028	-0.9600355089	 0.115207
H	-0.8553855416	 1.8842875873	 0.7679413819	 0.110948
H	-0.8967052297	-0.4207324305	-0.2074099601	 0.080751
H	 0.762807093	-1.2359350998	-1.6744876455	 0.102648
H	 1.8657550055	 0.1252782198	-1.3749322664	 0.092254
H	 2.0767520311	-2.3374682613	 0.3484717349	 0.090945
H	 2.6132888575	-0.7297850454	 2.2450066704	 0.11017
H	 2.5761515154	 0.6592671919	 1.0558257735	 0.101331
H	-0.0761281971	-0.5593398354	 2.9687187665	 0.284204
