19
gdb 108929	3.37327	1.24545	1.02566	1.5201	77.06	-0.2135	0.0572	0.2707	1216.6493	0.159287	-419.210738	-419.201914	-419.200969	-419.243964	33.325	
C	-0.0252142818	 1.3574705604	 0.019804862	-0.231906
O	 0.0925695998	-0.0672732174	 0.0060855177	-0.261343
C	 0.6835075304	-0.574259086	-1.0784394977	 0.462931
N	 1.1772012209	 0.0872659155	-2.0612295915	-0.409306
C	 1.6762046865	-0.8870036993	-3.0095237642	 0.339061
C	 1.5136266532	-0.5345044279	-4.4650272837	-0.460636
C	 2.8290017969	-1.7556555314	-2.5400156515	-0.327743
C	 1.4170043626	-2.2631863361	-2.3808370887	-0.067831
N	 0.8029049022	-1.9544273082	-1.108325442	-0.363024
H	 0.9623389963	 1.8238836028	-0.0277208815	 0.141891
H	-0.6163866861	 1.704948765	-0.832020298	 0.13768
H	-0.5230686607	 1.6046394947	 0.9580663941	 0.127665
H	 2.1133606395	 0.3473600526	-4.71494489	 0.125882
H	 1.8382490952	-1.3584254154	-5.1079604021	 0.106783
H	 0.4685578442	-0.3054265265	-4.6978850505	 0.116004
H	 3.4288619889	-2.2286168972	-3.3110223029	 0.107298
H	 3.3720783652	-1.4639710399	-1.6466116477	 0.113862
H	 1.0631627012	-3.1446798081	-2.9021865457	 0.095597
H	 0.0386440256	-2.5140211576	-0.7614255662	 0.247136
