16
gdb 127482	2.67426	1.33746	0.89759	2.7813	78.27	-0.2121	-0.0575	0.1547	1235.9926	0.124906	-434.098442	-434.089641	-434.088697	-434.132644	31.303	
C	-0.0354550062	 1.3669973074	-0.036816407	-0.333017
N	 0.0070720781	-0.0804688615	 0.0420033922	-0.03234
N	 0.0085644772	-0.7943415356	-1.0993426836	-0.323129
C	 0.0602829371	-2.0793842519	-0.7180798797	 0.39638
N	 0.1493045979	-3.088436055	-1.6708570932	-0.592028
C	 0.0816661736	-2.1956039238	 0.6811590936	-0.370674
C	 0.0440768657	-0.8848297172	 1.1438763866	 0.296334
C	 0.0455026616	-0.3846017151	 2.5130552833	 0.075121
O	 0.0708082343	-1.0966997549	 3.4933680674	-0.272934
H	 0.8563888702	 1.8151589163	 0.4112736345	 0.147076
H	-0.0716564771	 1.6229115535	-1.0948236293	 0.166012
H	-0.9246002003	 1.7652010648	 0.460741867	 0.145958
H	-0.1394364295	-2.7749029103	-2.5879958053	 0.253244
H	-0.32977146	-3.9385025742	-1.4096726174	 0.251121
H	 0.1262414416	-3.0826819393	 1.2908681908	 0.126241
H	 0.0211859357	 0.7227576168	 2.6129400802	 0.066634
