19
gdb 114963	3.31748	0.97765	0.84184	4.0331	72.88	-0.2261	0.0259	0.252	1388.2719	0.160124	-456.349571	-456.340353	-456.339409	-456.384029	33.599	
O	-0.1362368418	 1.3315516147	 0.3383754623	-0.426257
C	-0.0518323009	-0.0774904352	 0.1726936767	-0.088179
C	-1.4675990486	-0.5918358381	-0.0764079184	 0.012197
C	-1.5604156359	-2.1431661438	-0.0248196319	-0.192625
N	-2.0884660692	-2.460928488	 1.3119144127	-0.320757
C	-2.490228698	-1.3552159223	 1.8176580347	 0.342979
C	-3.1273946825	-1.311418051	 3.1799248881	-0.130294
O	-3.1271192668	-2.5766218553	 3.7828049704	-0.421461
N	-2.3693624471	-0.225969901	 1.0279303264	-0.340211
H	 0.7278313123	 1.6631219029	 0.5987238428	 0.294292
H	 0.5884745832	-0.3486380687	-0.6810673082	 0.095715
H	 0.358010323	-0.5631786095	 1.0720891849	 0.100323
H	-1.8344723091	-0.176159748	-1.0194190808	 0.092835
H	-2.2445038106	-2.5282025263	-0.790474895	 0.115714
H	-0.589953581	-2.6257369387	-0.1857913348	 0.107516
H	-2.5849461803	-0.5861412948	 3.8089213191	 0.101459
H	-4.1527520394	-0.9211760002	 3.0715471598	 0.1144
H	-2.7682298979	-3.1774986593	 3.1099926243	 0.294576
H	-2.1908269893	 0.6684193025	 1.4653090269	 0.247779
