20
gdb 87850	3.48759	1.35021	1.26462	2.3846	78.87	-0.2231	0.0896	0.3128	1087.431	0.172091	-403.090929	-403.083289	-403.082345	-403.122776	30.875	
C	-0.1825263369	 1.4176656511	-0.0352899934	-0.317649
N	 0.0415469874	-0.0165404709	 0.0605284327	-0.138969
C	 1.4066902843	-0.4963571928	-0.1707009669	-0.334848
C	 0.8014187138	-0.5312047262	 1.1849763575	 0.415769
C	 1.2825843474	 0.2784906498	 2.4127110517	-0.322463
C	 0.9180197331	-0.7916277461	 3.4690576623	 0.074746
C	 1.4615222069	-2.111132257	 2.8758557421	-0.235301
C	 0.3041687225	-1.7825990778	 1.90616373	 0.000044
O	-0.4198474019	-1.19635969	 3.0386223299	-0.298388
H	 0.6732539544	 2.0296828301	 0.294489345	 0.098502
H	-0.4005483765	 1.6730416356	-1.077023224	 0.12293
H	-1.0525528803	 1.6889977293	 0.570962509	 0.129705
H	 1.4990554509	-1.3981721604	-0.7723868724	 0.110598
H	 2.1851070006	 0.2463637687	-0.3468400939	 0.102871
H	 2.3468411402	 0.5277731343	 2.3939582382	 0.102818
H	 0.7062736426	 1.1934659024	 2.5692022269	 0.115607
H	 0.9882851977	-0.5290072332	 4.5243547208	 0.081067
H	 2.4852960941	-2.1472139015	 2.4940732274	 0.095547
H	 1.2332875284	-2.9686335822	 3.5091536428	 0.112291
H	-0.2593252687	-2.5180069233	 1.3342305844	 0.085126
