17
gdb 125881	3.73563	1.13387	1.06158	0.9026	74.2	-0.266	-0.0236	0.2424	1180.7958	0.13702	-418.002253	-417.99441	-417.993466	-418.03538	29.076	
C	-0.1013419042	 1.5218551855	-0.1725008256	-0.419856
C	-0.0053503823	 0.0251639525	 0.0069171813	 0.011719
C	 1.2861303221	-0.7059116355	-0.2020258035	-0.298639
C	 0.71740701	-0.6117865735	 1.198663672	-0.125972
C	 1.375330268	 0.1930377867	 2.2372391419	 0.381573
N	 2.3132683155	 1.0803583566	 2.0070232131	-0.196987
O	 2.6113016831	 1.5888215645	 3.2802322568	-0.152234
C	 1.821213362	 0.9346641819	 4.1293330391	 0.10503
N	 1.0377330701	 0.0676728952	 3.5767452175	-0.31571
H	 0.8080904916	 2.0238497756	 0.1667869725	 0.147864
H	-0.2489831303	 1.7682589198	-1.2295414834	 0.119489
H	-0.946729232	 1.9350054347	 0.388309739	 0.118569
H	-0.9025427508	-0.5182358516	-0.2780688976	 0.094531
H	 1.2774063093	-1.6792446785	-0.6798370665	 0.11656
H	 2.1704592448	-0.1100541273	-0.4009042227	 0.140724
H	 0.2486184663	-1.4967622507	 1.6123025278	 0.108364
H	 1.9104768668	 1.1851258139	 5.1765032285	 0.164975
