20
gdb 41196	2.90243	1.78141	1.60691	0.2154	79.8	-0.1994	0.0648	0.2642	943.8122	0.173299	-403.022086	-403.015168	-403.014224	-403.052828	29.644	
C	-0.1126142669	 1.4926334094	-0.3177405987	-0.286526
C	 1.4594884032	 1.5517691537	 0.0100928793	-0.299347
C	 1.1835170991	 0.2766790133	 0.868177643	 0.400082
C	 1.2878841491	-1.2675868777	 1.0758576858	-0.304935
N	-0.2430007929	-1.3029772468	 0.7883394578	-0.173537
C	-0.9721673186	-0.9365975704	 2.0110672827	-0.174545
C	-0.1557875285	 0.0360501567	 2.8864253439	-0.082602
O	 0.6878346707	 0.8603706051	 2.0918756375	-0.306034
C	 0.0680981463	-0.0450912944	-0.059217587	 0.045882
H	-0.678526826	 2.0319286003	 0.4383531036	 0.128441
H	-0.4360032949	 1.7836656086	-1.3188648949	 0.100705
H	 2.0575630147	 1.3547100554	-0.8816432194	 0.109496
H	 1.8314099762	 2.4331051748	 0.5362515103	 0.11195
H	 1.8105234908	-1.792179692	 0.2751765371	 0.117424
H	 1.5886796649	-1.6717016968	 2.0457816656	 0.109581
H	-1.9258135654	-0.4958227102	 1.7026236131	 0.111861
H	-1.2022526599	-1.8439617185	 2.5818908704	 0.102879
H	-0.8007789759	 0.7083411294	 3.4616604673	 0.104696
H	 0.4499249991	-0.5269144998	 3.6106924476	 0.096169
H	 0.4488998648	-0.4586761701	-0.9974283451	 0.088359
