17
gdb 43179	2.26002	1.84359	1.79494	3.2686	66.81	-0.234	-0.0268	0.2071	901.1296	0.138635	-458.982055	-458.975124	-458.97418	-459.013269	27.408	
O	 0.0117364104	 0.0549269273	 0.0241298958	-0.32171
C	-0.0252234468	 1.2536499003	 0.0269068585	 0.416705
C	-1.2183330874	 2.2046390542	 0.0485905876	-0.159329
C	-0.7052224484	 3.223474222	 1.07480245	-0.095129
O	 0.7394739838	 3.2385313282	 0.9284608476	-0.269889
C	 1.1301371313	 2.2600151228	-0.0030255775	 0.094269
O	 1.2093022657	 2.7602748914	-1.3291686715	-0.264969
C	 0.0588773446	 3.5207677118	-1.7060610747	-0.072436
C	-1.2645815035	 2.8062243886	-1.3833582303	-0.245556
H	-2.1546226959	 1.7216494737	 0.3281693799	 0.099289
H	-1.0792508142	 4.239408531	 0.9090746733	 0.113867
H	-0.9536989986	 2.9207432293	 2.0981477189	 0.120127
H	 2.1150011606	 1.8692846789	 0.2511558032	 0.112049
H	 0.0911903637	 4.4976701411	-1.2070621565	 0.114681
H	 0.157976828	 3.6910168091	-2.7806495131	 0.119608
H	-1.4446968639	 1.9987568279	-2.1008491136	 0.127671
H	-2.0945201194	 3.5170697124	-1.4710917076	 0.110751
