22
gdb 31603	2.86339	1.14271	0.88091	1.8174	91.96	-0.1877	0.0492	0.2369	1418.4793	0.19387	-367.262617	-367.252425	-367.251481	-367.298055	36.906	
C	 0.1554322999	 1.4432675246	 0.2341914389	-0.368101
C	 0.0109040952	-0.0606316715	-0.0666370406	-0.297246
C	-1.4020043136	-0.5564421198	-0.0820060785	 0.306843
C	-2.2272040356	-0.8193879691	-1.1551993317	-0.343735
C	-3.4945424568	-1.2439059939	-0.6606589442	 0.279653
C	-4.6942279794	-1.6466693112	-1.4643113515	-0.497516
C	-3.3948516102	-1.2243907271	 0.7106498272	-0.203154
N	-2.1285589677	-0.8124896585	 1.0646550309	-0.043203
C	-1.6811920959	-0.6347287866	 2.4286920703	-0.339179
H	 1.2055249702	 1.7508441451	 0.1910253727	 0.109172
H	-0.4065826548	 2.0358445369	-0.4936711072	 0.124576
H	-0.2245461864	 1.6948962293	 1.2294403267	 0.113555
H	 0.4429509951	-0.2691866017	-1.0509169283	 0.112447
H	 0.6144819808	-0.6321680157	 0.6513843394	 0.098737
H	-1.9412716215	-0.7290621664	-2.1937646148	 0.081563
H	-4.4806348298	-2.5022262556	-2.1164140011	 0.119897
H	-5.5282114504	-1.9294169419	-0.8146568357	 0.113539
H	-5.043409275	-0.833502651	-2.1121083021	 0.119777
H	-4.1191625913	-1.4765773708	 1.4703578466	 0.104078
H	-0.650359035	-0.979803883	 2.5456369603	 0.137347
H	-1.7328209126	 0.4130163212	 2.7490206983	 0.133734
H	-2.3138741452	-1.2287723633	 3.0917310343	 0.137217
