19
gdb 37941	2.7127	1.93702	1.39911	1.7696	79.16	-0.2267	0.0019	0.2285	964.599	0.162275	-385.85307	-385.846213	-385.845269	-385.884011	28.543	
C	-0.0984967475	 1.4712594285	 0.0373969983	-0.251402
C	 1.2848794746	 2.143500852	-0.0377467728	-0.231814
C	 1.9822485474	 1.9954615314	-1.3817184223	-0.045825
C	 3.1975065625	 1.1349256863	-1.5626970089	 0.076245
O	 3.1585071783	 0.0260388341	-0.6637272483	-0.305822
C	 1.9606657781	-0.4994391078	-1.3552773154	 0.088794
C	 0.8044481245	-0.8711969843	-0.4769396665	-0.064285
C	-0.0735378138	-0.0372649605	 0.0867315956	-0.048949
C	 1.9090501769	 0.7451069487	-2.2418927107	-0.179357
H	-0.6206016811	 1.8291734349	 0.9330467197	 0.099907
H	-0.7162853865	 1.8011842951	-0.8110676767	 0.1129
H	 1.1727768272	 3.2097020266	 0.1872229895	 0.090794
H	 1.920938568	 1.7144042533	 0.7427469809	 0.121914
H	 2.0041591916	 2.8894964925	-2.0016475826	 0.086973
H	 4.1652241048	 1.4523919021	-1.9337574449	 0.098919
H	 2.2823610253	-1.3730299595	-1.9338023449	 0.081404
H	 0.6735203333	-1.9373872166	-0.3058041408	 0.085648
H	-0.8756165615	-0.487559348	 0.6700450488	 0.090164
H	 1.6195232179	 0.7553674812	-3.284090798	 0.093794
