20
gdb 117899	3.61747	0.75835	0.67691	3.8189	81.19	-0.2907	-0.0833	0.2074	1693.1435	0.168106	-403.182103	-403.171382	-403.170438	-403.219042	37.032	
C	 0.0183035524	 1.6133640132	 0.0544059239	-0.380611
C	 0.0104199399	 0.0826047916	 0.010449895	-0.188817
C	-1.4062376442	-0.496615223	 0.1035308164	-0.17137
C	-1.4643427046	-2.0263250286	-0.012466853	-0.105018
C	-0.8016877341	-2.7702822539	 1.1685540918	-0.416208
C	-2.8989209101	-2.500104755	-0.1623365501	 0.289944
O	-3.8835497546	-1.8150124023	-0.0528133095	-0.271365
C	-3.0486274765	-3.9452629588	-0.4733849514	 0.237426
N	-3.1584075297	-5.0680290436	-0.7279024721	-0.306612
H	 1.0367108329	 2.0071266621	-0.0152569942	 0.115737
H	-0.5612794214	 2.0363441335	-0.7732975896	 0.119322
H	-0.4199960448	 1.9842646527	 0.9872956317	 0.119023
H	 0.4825540295	-0.2596982955	-0.9203083862	 0.098007
H	 0.6305649922	-0.3044437906	 0.8276082278	 0.102193
H	-1.873566119	-0.1928668469	 1.0482875228	 0.111138
H	-2.0281625532	-0.0613748608	-0.6869353973	 0.112854
H	-0.94924877	-2.3464961251	-0.9316416969	 0.113164
H	-0.9007367566	-3.8547041729	 1.0682508538	 0.147404
H	 0.2641991103	-2.5372575764	 1.2109407154	 0.138996
H	-1.2563502284	-2.4695729096	 2.1180246617	 0.13479
