20
gdb 9757	3.39966	1.61746	1.5	1.3546	76.49	-0.2293	0.0194	0.2487	978.5952	0.17606	-349.018527	-349.009946	-349.009002	-349.051427	32.265	
C	 0.0093649948	 1.5109216588	-0.2226337085	-0.390806
C	-0.0877877259	-0.0030466834	-0.0128975017	-0.182981
C	-1.5261908215	-0.5311777491	 0.1908174196	 0.343199
C	-2.1967113407	 0.0648521837	 1.4370784862	-0.414581
O	-2.3211155918	-0.1814875149	-0.9637775021	-0.306278
C	-2.7675783292	-1.3457735063	-1.6489670581	-0.127832
C	-2.2522215342	-2.5005499527	-0.8372013975	-0.102393
C	-1.5583198162	-2.0428045992	 0.196417433	-0.114695
H	 1.0339849218	 1.7984484545	-0.4779405423	 0.107239
H	-0.6474432727	 1.823746523	-1.0387383197	 0.134295
H	-0.2734424196	 2.0698490235	 0.6746157109	 0.11325
H	 0.3289135976	-0.5187946432	-0.8855970173	 0.095917
H	 0.5208938433	-0.3064787294	 0.849000085	 0.086994
H	-2.3038393144	 1.1479196111	 1.3383033283	 0.126375
H	-3.1928560467	-0.3655831583	 1.5686562611	 0.116554
H	-1.6069022256	-0.1428751063	 2.3363643966	 0.107422
H	-3.866806137	-1.3388299815	-1.7213884287	 0.103243
H	-2.3798495509	-1.3541916374	-2.6807023821	 0.101849
H	-2.4394121581	-3.5362661179	-1.0919835424	 0.103747
H	-1.0616805329	-2.6299985952	 0.9590317296	 0.09948
