12
gdb 20695	3.90575	2.00714	1.33677	5.7594	59.27	-0.2743	-0.1042	0.1701	846.2787	0.082949	-414.661762	-414.654902	-414.653958	-414.693429	24.219	
C	-0.0295504755	 1.5009036686	 0.0072345006	-0.48597
C	 0.0013588868	 0.0035423413	-0.0185704449	 0.32016
N	-0.0355517184	-0.6204815542	-1.148808625	-0.350889
C	-0.0058278381	-2.0120604265	-1.1447930854	 0.473691
O	-0.0343731951	-2.7026411723	-2.1157752351	-0.310406
O	 0.0639345999	-2.6765297535	 0.1009006674	-0.242103
N	 0.1027974872	-2.0098629155	 1.2959696405	-0.0182
C	 0.0725522156	-0.7257826132	 1.2340989566	-0.010508
H	 0.8645434702	 1.8915036682	 0.5068185511	 0.155044
H	-0.0811533565	 1.8910877838	-1.0088703399	 0.166603
H	-0.8941604692	 1.8536846572	 0.5813525285	 0.155151
H	 0.1041421932	-0.2148153738	 2.1907775357	 0.147427
