15
gdb 13052	4.14474	1.30729	1.04109	4.9921	62.53	-0.2477	-0.0238	0.2239	1068.3371	0.118061	-399.82685	-399.818847	-399.817903	-399.860287	27.559	
O	-0.6228774183	 0.5704014066	 0.6728959156	-0.242103
C	 0.135129814	 0.881582634	-0.2097149574	 0.150143
C	 1.30525946	 1.833867414	-0.0206553179	-0.299371
C	 1.3334250891	 2.926472975	-1.0913460746	-0.155088
C	 2.6108008648	 3.8172032006	-1.1955128518	-0.182955
N	 2.7763089802	 3.3032547587	-2.5577685177	-0.318509
C	 1.6959875487	 2.4590855189	-2.5293347161	 0.428812
O	 1.2503781898	 1.6632002055	-3.3133301889	-0.359736
H	 0.0278881433	 0.483113995	-1.240221879	 0.116045
H	 1.2495402138	 2.2553314622	 0.9874593463	 0.125445
H	 2.2272062758	 1.2377951709	-0.0896665883	 0.12631
H	 0.4112229833	 3.5141018246	-1.0746865133	 0.116658
H	 2.4383548146	 4.8959538444	-1.1380817118	 0.120506
H	 3.4171394652	 3.5359732297	-0.5101590185	 0.118009
H	 3.4928667458	 3.4477880898	-3.2535493067	 0.255834
