21
gdb 79464	2.44429	1.81397	1.43253	1.7813	80.99	-0.2324	0.0853	0.3177	1023.0113	0.183484	-387.057197	-387.049364	-387.04842	-387.088953	32.049	
C	-0.2125385466	 1.6398610655	 0.0024337374	-0.433021
C	 0.0299863639	 0.1360089911	 0.0153046757	-0.004318
C	 1.0998433041	-0.5381006815	-0.8603253484	-0.100504
C	 2.5249563636	-0.3873969854	-0.1821408422	 0.064928
C	 2.1307677858	 0.1014319251	 1.2229791432	-0.253591
C	 0.7536663455	-0.5983012013	 1.1953870396	 0.267211
C	 0.0521406395	-0.9131656591	 2.4943235398	-0.510708
C	 1.1597690126	-1.7270737314	 0.1144354859	 0.074837
O	 2.5853311059	-1.831506008	 0.0422557246	-0.300384
H	 0.712752024	 2.2185241481	 0.0702017468	 0.116816
H	-0.7120177391	 1.936253639	-0.9264488738	 0.116804
H	-0.8595209996	 1.9446056102	 0.832949614	 0.11666
H	-0.9210515132	-0.3802854143	-0.1736243646	 0.069019
H	 1.0528024891	-0.6417617648	-1.943319317	 0.070971
H	 3.4010834268	 0.0152348238	-0.6885484269	 0.077673
H	 2.8156974963	-0.3102065309	 1.9679768784	 0.10369
H	 2.0687363107	 1.1842133885	 1.3463295937	 0.094944
H	-0.1958814151	 0.0002023913	 3.0483119183	 0.1167
H	-0.8830493311	-1.4578341398	 2.3220939257	 0.111777
H	 0.6837602852	-1.5296243369	 3.1436963888	 0.121623
H	 0.6047848819	-2.6631028692	 0.057432031	 0.078872
