16
gdb 49022	2.75627	1.69208	1.30763	1.115	68.75	-0.2427	-0.0371	0.2056	969.9114	0.124251	-437.80444	-437.797236	-437.796292	-437.836208	27.782	
O	-0.4598870211	 0.4613490406	 0.7385618331	-0.258229
C	 0.0931936002	 1.0112927021	-0.1837882291	 0.066488
C	 1.28372362	 1.8892210763	-0.0440032347	 0.181271
C	 1.5701998286	 2.9756194764	-1.1146094931	-0.131338
O	 2.8650274504	 2.4121693997	-1.4408331515	-0.278458
C	 2.7035805117	 1.3736211921	-0.4757118105	 0.079812
C	 3.2022849297	 1.6359049205	 0.9664080283	-0.065208
N	 2.9566178467	 3.0628542892	 1.2729368911	-0.335101
C	 1.8442288896	 2.1027046321	 1.3791861645	-0.128595
H	-0.2564788417	 0.8681780956	-1.2317489274	 0.07993
H	 0.8953965842	 2.9278435512	-1.9782016508	 0.103521
H	 1.6477919671	 3.9976819303	-0.7388962309	 0.132035
H	 2.8816163059	 0.3673776885	-0.864277493	 0.09483
H	 3.9496526532	 1.0707058963	 1.5092714375	 0.102013
H	 3.3099583465	 3.2279044967	 2.2145035384	 0.239886
H	 1.294956179	 1.9405547722	 2.2963418582	 0.117141
