18
gdb 49562	2.07903	1.89876	1.24617	2.2487	75.92	-0.244	-0.0262	0.2178	1044.1055	0.14719	-401.892492	-401.884394	-401.88345	-401.926458	30.545	
O	-0.6206382501	 0.6378697037	 0.5759079562	-0.250674
C	 0.1047786942	 1.0648535972	-0.2871922727	 0.153249
C	 1.2644383258	 2.0052318214	-0.0768255059	-0.204681
C	 1.2495199393	 3.3107391386	-0.9059422168	-0.079734
C	 0.1582868261	 4.2312692115	-0.4272232027	-0.28783
C	 1.4255216846	 4.1327499088	 0.3755846493	-0.110118
C	 1.3979767832	 2.8625066738	 1.2023125213	 0.360351
C	 0.8703096527	 2.6234987228	 2.5623470759	-0.303644
N	 2.328208889	 2.6110190263	 2.2926642663	-0.386142
H	-0.0499676651	 0.7796348677	-1.354950976	 0.077226
H	 2.1896633147	 1.4447885009	-0.2710390397	 0.106479
H	 1.7377508016	 3.4373509608	-1.8632952985	 0.096741
H	 0.0402549947	 5.1408528239	-1.0069785635	 0.118667
H	-0.7717655732	 3.8317677426	-0.0300919327	 0.123214
H	 2.082921127	 4.9731809081	 0.5566527058	 0.104133
H	 0.5307871993	 3.463482437	 3.1624857885	 0.116171
H	 0.3600097165	 1.6844283761	 2.7446223209	 0.137251
H	 2.6665312998	 1.6517853888	 2.2570961941	 0.229339
