19
gdb 13108	3.97154	1.18363	0.97734	2.3525	72.9	-0.2616	0.0279	0.2894	1228.1107	0.165634	-365.070343	-365.061824	-365.06088	-365.103919	30.729	
C	-0.0840266601	 1.5483956705	-0.0795575695	-0.383438
C	-0.0388885703	 0.0203752603	-0.0017737362	-0.168798
C	 0.7961440275	-0.487737208	 1.1801284071	-0.193106
C	 0.8129831464	-2.0121363817	 1.2861886478	-0.131513
C	 1.4536847544	-2.6559562514	 2.5371390132	-0.109947
O	 0.1710570538	-3.2611066317	 2.89378452	-0.253173
C	-0.4475229138	-2.684925414	 1.8034828822	 0.442997
N	-1.6458035534	-2.7237761337	 1.4340232114	-0.543562
H	 0.9207359213	 1.9734712985	-0.185157949	 0.10996
H	-0.678776947	 1.8842415144	-0.9344315998	 0.114992
H	-0.5308226519	 1.9774387877	 0.8242761481	 0.11565
H	-1.0532623763	-0.3842881738	 0.0814896733	 0.138291
H	 0.3772512768	-0.3838529607	-0.934232785	 0.092555
H	 1.8303009085	-0.1291329437	 1.0869186232	 0.096442
H	 0.4053542831	-0.0658363037	 2.1157356345	 0.101119
H	 1.1604423322	-2.4577090579	 0.3489020454	 0.105798
H	 2.2136980125	-3.4219069294	 2.3661106699	 0.11968
H	 1.7821974214	-1.9587904364	 3.3129962961	 0.118936
H	-2.215170005	-3.2814708752	 2.0730585474	 0.227117
