23
gdb 109163	3.09791	1.05047	0.86123	1.4826	87.74	-0.2229	0.0356	0.2585	1429.3999	0.205187	-388.30618	-388.296132	-388.295188	-388.340974	37.693	
C	-0.9771198923	 0.9526603944	-0.0047933371	-0.413185
C	 0.1445377639	-0.0844109683	 0.0055875123	 0.037133
C	 1.2222150776	 0.110949286	-1.0914396275	-0.267459
C	 2.4360436998	-0.5509429219	-0.4883788551	-0.162707
C	 2.291253765	-0.7573450636	 0.8210947128	 0.318516
C	 3.2876487641	-1.383712689	 1.7427634966	-0.183641
O	 4.4556655139	-1.7398326406	 1.0238335022	-0.414459
C	 0.9593042462	-0.2271973155	 1.3313211944	-0.098711
C	 1.136888195	 1.0797728099	 2.1281029363	-0.394151
H	-0.595464388	 1.9693927945	 0.1342409298	 0.115308
H	-1.5096082088	 0.9314628602	-0.9618700494	 0.110627
H	-1.7128168521	 0.7605565695	 0.7841757218	 0.109018
H	-0.3051338348	-1.0689251337	-0.1754993639	 0.074462
H	 0.9196458587	-0.3294683534	-2.0489203781	 0.096493
H	 1.4091698453	 1.1771035028	-1.2926120815	 0.097188
H	 3.3251726683	-0.8050499081	-1.0514901493	 0.102494
H	 3.5244973232	-0.6838479124	 2.5635949127	 0.092668
H	 2.8276486175	-2.2677062096	 2.2215255239	 0.091297
H	 5.0735212909	-2.1418990674	 1.6405537822	 0.287802
H	 0.4682651441	-0.9527587902	 1.9949674174	 0.060826
H	 1.612530746	 1.8560075791	 1.5195734376	 0.118822
H	 0.1760621032	 1.4656597123	 2.4825482306	 0.112845
H	 1.7684339134	 0.918581385	 3.0077064512	 0.108816
