20
gdb 107554	2.3941	1.55667	1.08682	2.6139	80.79	-0.22	0.0265	0.2465	1165.5546	0.17109	-403.132959	-403.124016	-403.123072	-403.166257	34.038	
C	-0.373992753	 1.4915705219	-0.4973727754	-0.507851
C	-0.17639179	 0.0275308161	-0.2562487761	 0.288634
C	-0.0578993774	-0.9401195541	-1.1715220204	-0.17382
C	 0.1622117174	-2.3099662314	-0.5638750531	-0.267734
C	 0.2237219744	-2.0111643707	 0.929774657	-0.080196
N	 1.3495598643	-1.1264200002	 1.3217472497	-0.383851
C	-0.0119305771	-0.5571172013	 1.1211121923	 0.25772
C	-0.7424663868	 0.033544288	 2.3006992098	-0.205179
O	-0.4705830826	-0.7680588606	 3.4421277355	-0.421577
H	 0.465415716	 2.0752186958	-0.0980182862	 0.132201
H	-0.4595603741	 1.7096781577	-1.5653228257	 0.123924
H	-1.2805608823	 1.8681510065	-0.0062542556	 0.119712
H	-0.0702217612	-0.7743519588	-2.2440764693	 0.084659
H	-0.6565658089	-3.0020678419	-0.8028012936	 0.100068
H	 1.0887375355	-2.7749256963	-0.9227757298	 0.11596
H	-0.1258495725	-2.7369026642	 1.6547587672	 0.096058
H	 1.4699622713	-1.2422427705	 2.3285345314	 0.234006
H	-0.4077914554	 1.0712214952	 2.4622295262	 0.094995
H	-1.8226557241	 0.0668195596	 2.0849536567	 0.097794
H	-0.8432926834	-0.3341162208	 4.2142190496	 0.294476
