16
gdb 43148	2.43298	2.12666	1.70668	3.9943	66.84	-0.2294	-0.0177	0.2117	854.8537	0.126954	-437.860035	-437.853598	-437.852654	-437.89063	26.278	
O	 0.0006575167	 0.0466070845	 0.1066540556	-0.322308
C	-0.0153334738	 1.2329598071	-0.0178152591	 0.439981
C	-1.1717128755	 2.2547121141	-0.0006691131	-0.17985
C	-0.6885018216	 3.0669651829	 1.2219267052	-0.079576
O	 0.7656728572	 3.0382535355	 1.1356650063	-0.291193
C	 1.1088329123	 2.288910887	-0.04433871	-0.002805
C	 0.6961436779	 3.1237422328	-1.2504937355	-0.054541
N	-0.0546651357	 2.335061656	-2.2520655165	-0.344911
C	-0.7951717333	 3.0928899705	-1.2236437017	-0.033871
H	-2.1789011253	 1.8483727736	 0.0579898059	 0.096362
H	-1.0267717813	 4.1094773834	 1.2050432729	 0.106367
H	-0.9982052671	 2.6075488845	 2.1671475694	 0.119586
H	 2.1350219807	 1.9377704667	 0.0339198954	 0.098931
H	 1.2560547886	 4.004934892	-1.5404992365	 0.105127
H	-0.0771285544	 2.8349544146	-3.1365880793	 0.240944
H	-1.3913005756	 3.9544937648	-1.5035397192	 0.101756
