18
gdb 95428	2.58586	1.35518	0.92419	4.0213	75.86	-0.2542	-0.0599	0.1944	1251.0529	0.147605	-439.117523	-439.108991	-439.108047	-439.150957	31.383	
C	-0.2004751837	 1.348217365	 0.3152779388	-0.404356
C	-0.0481772846	-0.1305118796	 0.0068979983	 0.1392
C	 0.742487155	-0.4361589386	-1.2622043291	-0.234263
C	 0.9515384291	-1.9494079232	-1.37779266	-0.171813
N	 1.3820307045	-2.5648612189	-0.128711958	-0.295678
C	 1.2003383478	-1.9195446388	 0.9529535083	 0.293264
O	 0.6113880976	-0.725609323	 1.1492344545	-0.257222
C	 1.7124974201	-2.549193908	 2.2186369975	 0.126435
O	 1.6240948072	-2.05660847	 3.3117337603	-0.247668
H	 0.7797386037	 1.8284824099	 0.3890744008	 0.130602
H	-0.7723974619	 1.8408140931	-0.476697632	 0.120822
H	-0.7250251027	 1.4886897594	 1.2637440334	 0.137495
H	-1.040148762	-0.599232475	-0.0637292457	 0.092729
H	 0.2123337134	-0.042949397	-2.1353674016	 0.108796
H	 1.7117707013	 0.0737416077	-1.2082671917	 0.115968
H	 0.0261067511	-2.4464077244	-1.7000400023	 0.121453
H	 1.6992491373	-2.1841097925	-2.1431391535	 0.120689
H	 2.1904492669	-3.5289651462	 2.0215475523	 0.103547
