17
gdb 9329	6.6433	0.81293	0.77186	5.3688	68.51	-0.2482	-0.0711	0.1771	1471.8008	0.140022	-401.03413	-401.024744	-401.0238	-401.070025	31.609	
C	 0.1014815232	 1.4692052596	 0.1277803381	-0.378435
C	 0.2088319369	-0.048867698	-0.0353482719	-0.171573
C	 0.3293248285	-0.463089776	-1.5070723577	-0.151596
N	 0.4209525801	-1.9035513825	-1.6885203714	-0.321536
C	 1.5782655891	-2.5335784403	-2.0316497867	 0.321707
O	 2.6354030769	-1.9857318958	-2.2621152716	-0.345869
C	 1.4076400756	-4.0611491974	-2.1122890748	 0.088967
O	 2.3036569364	-4.7985290985	-2.4052107654	-0.204734
H	 0.983780675	 1.9736102681	-0.2801355529	 0.127432
H	-0.7776936332	 1.8650659479	-0.3926255249	 0.117335
H	 0.0165850339	 1.7465473097	 1.1821909342	 0.121475
H	 1.0820242056	-0.4278970703	 0.507655424	 0.118722
H	-0.670689908	-0.5341805471	 0.4081105052	 0.092377
H	-0.5286490469	-0.0847983165	-2.0768789509	 0.110703
H	 1.2366348727	-0.0437370624	-1.9489195859	 0.153849
H	-0.3912611974	-2.4644660253	-1.4827866106	 0.249261
H	 0.3848730015	-4.4445639051	-1.8768416069	 0.071916
