12
gdb 7243	4.95455	1.31702	1.04045	3.1452	54.04	-0.2562	-0.0705	0.1858	1022.1478	0.083611	-451.88053	-451.872709	-451.871765	-451.91327	26.905	
N	 0.0666230318	 1.3064894238	 0.0072849409	-0.516441
C	 0.0588785285	-0.036030286	 0.0003948802	 0.34485
O	 1.028743782	-0.7750333084	-0.0130772981	-0.37439
C	-1.3847897422	-0.5998576013	 0.0111349881	 0.352414
O	-2.3574044694	 0.1152311049	 0.0241760367	-0.324926
N	-1.3505344061	-1.9775898537	 0.0039464155	-0.348804
C	-2.424768752	-2.8645302751	 0.0098588061	 0.168507
O	-3.5851377795	-2.5630868035	 0.0225218642	-0.248704
H	 0.9369053596	 1.8106647798	 0.0016516414	 0.27718
H	-0.8178307781	 1.7905202086	 0.0185453364	 0.289894
H	-0.404500505	-2.3472736245	-0.0068864611	 0.281359
H	-2.0598694997	-3.9101448246	 0.0012549797	 0.099062
