14
gdb 25197	2.66588	1.77234	1.06458	3.6902	80.51	-0.2303	-0.0969	0.1334	1036.3811	0.103828	-432.891376	-432.884249	-432.883305	-432.923418	26.847	
N	-0.085226421	 1.2865444714	-0.5063552945	-0.489751
C	 0.0076075382	 0.1328129617	 0.0194620624	 0.261582
N	-1.1842092655	-0.4966905983	 0.3771810554	-0.350762
C	-1.4633350093	-1.6959701719	 0.9456175023	 0.034292
C	-0.6183784333	-2.6840924307	 1.3525008429	-0.04734
N	 0.7394895719	-2.7468755285	 1.30394908	-0.228695
C	 1.561187946	-1.8629381687	 0.8499055492	-0.069354
C	 1.362673642	-0.531694348	 0.2480047567	 0.297902
O	 2.3371963147	 0.1100410906	-0.1032958723	-0.317446
H	 0.8608103629	 1.6152827342	-0.7115015197	 0.251015
H	-1.9751944574	 0.0931046184	 0.1507531647	 0.273671
H	-2.5276959919	-1.8576436597	 1.0809058195	 0.138602
H	-1.0923637241	-3.5601576205	 1.7830914824	 0.116339
H	 2.6231930467	-2.1065538701	 0.9014163109	 0.129946
