18
gdb 70199	3.44422	1.33043	1.13462	4.663	72.3	-0.228	0.009	0.237	1106.6078	0.148168	-439.09638	-439.088334	-439.087389	-439.128785	31.303	
C	-0.1500437596	 1.5437463261	 0.0209908376	-0.453058
C	-0.0281471422	 0.0375609282	 0.0149982255	 0.303434
C	-0.7996828242	-0.7759857048	 1.0620696897	-0.379096
C	 0.7051825343	-0.6446410345	 1.1204060901	 0.09146
O	 1.5477558166	-1.7505602541	 0.8581147224	-0.22114
C	 1.5208226654	-2.3889847518	-0.3361914739	 0.430131
O	 2.2574728599	-3.3156373591	-0.529046529	-0.322004
C	 0.4930419304	-1.9250692457	-1.3579266621	-0.324717
N	 0.2284211571	-0.4927232913	-1.3018217892	-0.351871
H	 0.7304980261	 2.000144227	-0.4407046952	 0.135579
H	-1.0352301771	 1.8635611293	-0.5422178703	 0.11791
H	-0.2530237863	 1.9276470417	 1.0395492512	 0.121066
H	-1.3857172788	-0.2533906148	 1.8104832933	 0.118987
H	-1.2000514821	-1.7423980416	 0.7765532691	 0.122931
H	 1.1509546971	-0.0553091188	 1.9131022666	 0.117326
H	 0.8933925279	-2.1861381023	-2.3395289976	 0.146194
H	-0.4013938146	-2.5560955417	-1.201405526	 0.119897
H	-0.5333988197	-0.2576462017	-1.9302881523	 0.226971
