21
gdb 60856	2.76545	1.15284	1.06629	3.5037	78.28	-0.241	-0.0193	0.2217	1252.0236	0.1797	-424.226371	-424.216353	-424.215409	-424.261673	36.188	
C	 0.7476639427	 0.0182546186	-1.3119671202	-0.409254
C	 0.0580249133	 0.010975848	 0.0527563052	-0.115949
C	 0.0405624328	 1.3898782704	 0.6932942091	 0.140485
O	 0.550367643	 2.371394607	 0.2118459177	-0.252084
C	-1.3699152152	-0.5856690204	 0.045468934	 0.419358
C	-2.3446031555	 0.1853297188	-0.834576552	-0.444091
C	-1.4268122249	-2.130872413	-0.0884983753	-0.334493
C	-1.9386189668	-2.1055343264	 1.363819957	-0.072419
O	-1.8706334482	-0.6660547527	 1.4148130839	-0.323885
H	 1.787306684	 0.3377089713	-1.2095138706	 0.132662
H	 0.7365924965	-0.9772315766	-1.7659868799	 0.111122
H	 0.2648463911	 0.7193557896	-1.9969749264	 0.134685
H	 0.6290409651	-0.6183401966	 0.753417983	 0.093409
H	-0.4835953434	 1.4312445611	 1.6704169948	 0.10362
H	-2.0409981905	 0.1491695059	-1.8852318895	 0.125824
H	-3.3455460448	-0.2463868558	-0.7504971131	 0.121437
H	-2.4009482997	 1.2359579603	-0.5318768243	 0.134506
H	-2.1371811889	-2.4993775897	-0.8303938066	 0.111797
H	-0.4639947027	-2.6215010864	-0.2402045866	 0.111204
H	-2.9607918504	-2.4708394959	 1.5174519186	 0.10691
H	-1.2836722876	-2.5733445574	 2.1086393013	 0.105157
