14
gdb 12301	3.02448	2.44461	1.45822	5.171	61.78	-0.2616	-0.0366	0.2249	821.0453	0.108777	-415.865009	-415.858206	-415.857262	-415.896497	25.058	
N	 0.0318959819	 1.1003024454	 0.6785245748	-0.47213
C	 0.0042241146	-0.0023222901	 0.0646833522	 0.328315
O	 1.1246799563	-0.5345567469	-0.5120454804	-0.252294
C	 0.9995245779	-1.7986825886	-1.1641613342	-0.094949
C	 0.1252604022	-2.7043978195	-0.330781218	-0.09495
O	-1.1828143948	-2.1396530227	-0.236239362	-0.252295
C	-1.2803676876	-0.7887669314	-0.0441461656	 0.328316
N	-2.3978566999	-0.2064488626	 0.0298304772	-0.472128
H	 0.9770642357	 1.4897873744	 0.6454229258	 0.22871
H	 0.5694573543	-1.6684278026	-2.1659130519	 0.129156
H	 2.0130376612	-2.1947436217	-1.263034737	 0.133191
H	 0.0029477947	-3.6861889333	-0.7944350473	 0.133191
H	 0.5557770896	-2.835351922	 0.6706861141	 0.129156
H	-3.1509347962	-0.8929169283	-0.0583305577	 0.22871
