19
gdb 50352	4.6288	0.9793	0.88515	3.4426	84.02	-0.2373	-0.0244	0.2129	1323.112	0.159779	-385.883468	-385.875482	-385.874538	-385.916606	30.525	
O	-0.0036789292	-0.1067531575	 0.1376054389	-0.249723
C	 0.0359082639	 1.0954321562	 0.1034728113	 0.158207
C	 1.2972247172	 1.9343160874	 0.0786153666	-0.087479
C	 1.3373046919	 2.8508652822	-1.2005979047	-0.281711
C	 2.0250738675	 4.1366122999	-0.7072002847	-0.032534
C	 1.4050996728	 5.5820491156	-0.6621614255	-0.241652
C	 1.694821403	 5.6153043904	 0.8869697351	-0.319119
C	 1.7920227042	 4.1112595959	 0.7751153608	 0.315403
C	 1.3198835637	 2.9543205926	 1.2260693257	-0.274272
H	-0.9015527925	 1.7028549055	 0.082335831	 0.067335
H	 2.1457804422	 1.2399711862	 0.1099303775	 0.095764
H	 1.836563925	 2.3592697637	-2.0391730395	 0.110681
H	 0.3076157904	 3.0709330062	-1.511365526	 0.104435
H	 3.0831505091	 4.1854052453	-0.9909783793	 0.082133
H	 1.8857145462	 6.3518001434	-1.269865986	 0.104768
H	 0.3316672613	 5.5696667867	-0.8669469625	 0.110848
H	 2.6550237408	 6.0974652353	 1.0976756056	 0.117424
H	 0.9360530825	 6.0306762496	 1.5535277925	 0.115441
H	 0.9345487398	 2.7327510453	 2.2145024632	 0.10405
