15
gdb 52345	12.51297	0.43356	0.42125	3.0677	83.51	-0.2808	-0.0489	0.2319	2370.2895	0.11127	-416.788769	-416.779091	-416.778147	-416.825715	31.682	
N	-0.1521024947	 1.3248372295	 0.0103159316	-0.429152
C	-0.0553190707	 0.0688455398	 0.0023953333	 0.127879
O	-1.1749856859	-0.6885328048	 0.009630332	-0.180594
C	-0.9820917857	-2.0969490845	-0.0001131019	-0.071229
C	-2.3835468621	-2.7205095338	 0.009794057	-0.369987
C	-2.33734169	-4.1714150662	 0.0012304614	 0.070743
C	-2.2755554015	-5.3776068216	-0.0059562961	 0.048325
C	-2.2089328841	-6.7413783871	-0.0140400727	 0.21232
N	-2.1485083243	-7.9013619136	-0.0209478659	-0.332473
H	 0.7733637049	 1.7482513725	 0.0031547199	 0.235719
H	 0.8724919052	-0.5194543146	-0.010383038	 0.092638
H	-0.4337629649	-2.4103045912	-0.8971894478	 0.129403
H	-0.4167270772	-2.4202823742	 0.8827385613	 0.129413
H	-2.9229918893	-2.3672312233	 0.8964755951	 0.168502
H	-2.9398234897	-2.3574077169	-0.8624011893	 0.168491
