16
gdb 9657	3.50895	1.40166	1.30699	2.7097	67.79	-0.2464	0.0249	0.2712	997.2798	0.12808	-383.679838	-383.671231	-383.670287	-383.712704	32.072	
O	 0.1809233498	 0.6296400187	 0.8017964414	-0.427524
C	-0.220571837	 0.2260312417	-0.4940282624	-0.069671
C	-1.5557376156	-0.4961132051	-0.4832420884	-0.073618
C	-1.7729893355	-1.7070617543	-1.3586220254	-0.352949
C	-1.6022769381	-1.8719712872	 0.1433768096	 0.19781
O	-0.3525164987	-2.3140305667	 0.6225522978	-0.458104
C	-2.732355956	-2.2660121262	 0.9416573021	 0.293036
C	-3.6632156814	-2.632042714	 1.610024725	-0.458557
H	 0.3102104416	-0.1830250195	 1.3050363799	 0.294702
H	-0.3036523331	 1.140065691	-1.0915714728	 0.109223
H	 0.5385741435	-0.4105232359	-0.9684273115	 0.092373
H	-2.4179384239	 0.130080159	-0.279442266	 0.111473
H	-2.7531405162	-1.8861890141	-1.7844155391	 0.126626
H	-0.9339629115	-2.0358945866	-1.9633770189	 0.122653
H	-0.3691943862	-3.2763202052	 0.6672768483	 0.293061
H	-4.4855692716	-2.9381041457	 2.2082380704	 0.199465
