17
gdb 98744	3.09425	0.9607	0.85574	3.7497	71.73	-0.2457	-0.0273	0.2184	1384.9741	0.134029	-458.994046	-458.984718	-458.983773	-459.029263	32.315	
C	-0.2808066249	 1.3732536908	 0.0813092073	-0.243209
O	-0.2129244392	-0.0493622027	 0.2559056524	-0.235553
C	 0.9075006391	-0.5040319991	 0.8452752226	 0.461603
O	 1.8138786225	 0.2094111734	 1.2067282738	-0.376796
C	 0.8653916698	-1.9891211249	 0.9661037627	-0.148165
C	 2.1633098257	-2.7346265048	 1.0552312601	-0.297474
C	 1.2839075464	-2.6777356493	 2.2799279821	-0.103091
C	 1.7266892961	-1.906963937	 3.4742330791	 0.143898
O	 1.455696883	-2.2426886622	 4.6020621976	-0.267697
H	 0.5465927207	 1.7239017815	-0.5402715273	 0.144492
H	-1.2357123945	 1.5651548281	-0.4073327096	 0.137587
H	-0.2349493069	 1.8810519678	 1.0476981325	 0.146019
H	 0.0321731466	-2.4566291956	 0.4571712363	 0.120302
H	 2.2517054205	-3.6813114783	 0.5362808323	 0.135548
H	 3.0569477253	-2.1195775778	 1.0688739783	 0.151197
H	 0.7075866709	-3.561588834	 2.5309827178	 0.117962
H	 2.3386033088	-1.0101908161	 3.2596738323	 0.113377
