17
gdb 129630	3.12302	1.25247	0.92684	4.5315	71.28	-0.2074	0.0191	0.2265	1212.6393	0.137971	-451.320168	-451.311695	-451.310751	-451.353594	31.793	
N	-0.3548535793	 1.3558668051	-0.5392030372	-0.617318
C	-0.242909641	 0.0242114333	-0.1688500761	 0.241679
C	-1.136413069	-1.0355920566	-0.1095725316	 0.267364
C	-2.6197161201	-1.112905299	-0.3190206204	-0.333097
C	-3.1854559685	-0.2967656855	-1.4837540353	-0.083491
O	-3.1726833895	 1.1161285834	-1.2434080652	-0.403422
N	-0.4320028197	-2.1581179298	 0.2330488375	-0.249898
N	 0.8207774616	-1.8734845557	 0.4007359255	-0.139788
N	 0.9467569184	-0.5444617035	 0.149580887	-0.213721
H	 0.0651243016	 2.0080103231	 0.1106713044	 0.24429
H	-1.318221997	 1.6009744632	-0.7546723372	 0.264671
H	-2.8617565551	-2.169271607	-0.4798006533	 0.132199
H	-3.1637607676	-0.8211895967	 0.5939739559	 0.097941
H	-2.5885205422	-0.444993196	-2.3879843144	 0.130094
H	-4.2113660477	-0.6242727225	-1.7002924201	 0.103913
H	-3.7591650678	 1.2882411434	-0.4988689728	 0.28721
H	 1.8586370731	-0.1171260493	 0.1620671131	 0.271375
