17
gdb 60510	2.15406	1.44004	0.91626	3.1935	75.76	-0.2678	-0.0717	0.1962	1244.0643	0.133037	-421.785492	-421.776179	-421.775235	-421.820248	33.92	
O	 0.179149749	 1.5940617775	-0.0400694869	-0.435435
C	 0.0647151462	 0.1979767029	-0.055216774	 0.013377
C	 0.7023906353	-0.3968859984	-1.2988252535	 0.010868
C	 0.1561465953	-1.658500073	-1.9194037422	-0.2648
C	-0.0486162073	-0.3329423013	-2.6038693422	-0.268242
C	 0.7005325413	-0.3700823549	 1.2179775113	 0.193825
O	 1.2594338372	 0.3716593337	 2.0031355219	-0.31745
C	 0.5988322983	-1.7923271922	 1.4481627301	 0.306294
C	 0.4914541122	-2.9723885784	 1.6594230354	-0.408417
H	 0.6634129767	 1.8088256974	 0.7737048156	 0.294177
H	-0.9989478768	-0.0993895881	-0.0391691305	 0.089918
H	 1.7767975435	-0.2442442501	-1.350490892	 0.092873
H	 0.8633930793	-2.36155062	-2.3441699283	 0.116049
H	-0.7012889797	-2.1269548909	-1.4486862922	 0.116288
H	-1.042352686	 0.1016868931	-2.5898891952	 0.122147
H	 0.5173424093	-0.119344142	-3.5032002863	 0.117816
H	 0.4046623563	-4.0146479754	 1.8509938489	 0.220712
