20
gdb 51565	4.01243	0.77438	0.70284	3.8811	82.52	-0.2395	-0.0132	0.2262	1615.5463	0.169246	-403.107223	-403.097946	-403.097002	-403.142677	33.524	
O	-0.5373915306	 0.2715943649	 0.1531206841	-0.24454
C	-0.0106545186	 1.3548069349	 0.1385331727	 0.165576
C	 1.3698291042	 1.6418450565	-0.4086709034	-0.297731
C	 1.3711507889	 2.8150640818	-1.3702918276	-0.047028
C	 1.3040247371	 4.2386548434	-0.8514887169	-0.313916
C	 2.5716174649	 3.726888637	-1.4794359334	 0.041706
N	 3.6863732009	 3.4846889737	-0.6076572577	-0.063345
C	 4.9365815452	 3.0721178493	-1.240557393	-0.223532
C	 4.7879544717	 4.441312172	-0.6737182397	-0.220811
H	-0.5337851449	 2.2511064409	 0.5464986486	 0.070925
H	 2.0270143413	 1.8858666057	 0.4363603298	 0.138118
H	 1.7529125292	 0.7298005706	-0.876893284	 0.116196
H	 0.8470610064	 2.6304511034	-2.304156153	 0.096147
H	 0.7081793891	 4.9664586433	-1.3902872617	 0.115527
H	 1.3290122839	 4.3776325541	 0.2240374214	 0.122759
H	 2.8138185189	 4.0913648995	-2.4816512838	 0.075552
H	 5.5067106352	 2.3138920687	-0.7118684474	 0.121074
H	 4.9504839443	 2.9801691431	-2.3251982382	 0.113865
H	 4.7020865694	 5.2665248653	-1.3781539459	 0.113571
H	 5.2468425234	 4.6989775219	 0.2764148589	 0.119888
