18
gdb 16026	3.79287	1.83766	1.47136	2.5377	67.6	-0.2443	0.0809	0.3253	892.8262	0.155417	-384.927212	-384.920237	-384.919293	-384.958206	27.41	
C	 0.0521585904	 1.4926479741	-0.008109771	-0.247547
O	 1.2197541019	 0.667659709	-0.0081293593	-0.272534
C	-0.0685473973	 0.0320105493	 0.0165908884	 0.422018
C	-0.4034948571	-0.7202672222	 1.2902982759	-0.282552
C	 0.1187878659	-2.1631127991	 1.1895065919	-0.207721
C	-0.3453972071	-2.7953557641	-0.1242223567	-0.063915
O	 0.0852262872	-2.0400535125	-1.2452970254	-0.241148
C	-0.4379634027	-0.7243180985	-1.2451748804	-0.138941
H	-0.1235512922	 2.0607660856	 0.9051643	 0.110038
H	-0.1335776009	 2.0404417289	-0.9321324036	 0.110466
H	 0.0242440894	-0.197155048	 2.1505180287	 0.107609
H	-1.4946528234	-0.732401854	 1.4185308467	 0.100076
H	 1.2142131937	-2.1576270027	 1.2103433912	 0.121445
H	-0.2275211309	-2.7634148612	 2.0380198735	 0.094794
H	 0.0754377741	-3.7962588197	-0.2543925467	 0.109113
H	-1.4466392934	-2.8873349434	-0.1303918981	 0.080998
H	-1.5385423973	-0.7502090831	-1.3434711927	 0.083936
H	-0.0205432802	-0.2208856084	-2.1207738525	 0.113866
