19
gdb 76350	2.60416	1.34991	1.12218	4.4758	71.33	-0.241	-0.0143	0.2267	1137.9742	0.157037	-460.152774	-460.143266	-460.142322	-460.187169	34.939	
C	-0.3440358007	 1.4060241764	 0.0620322278	-0.392019
C	-0.0020556881	-0.0826987072	 0.0210744536	-0.05231
C	 1.2024115439	-0.4584339158	-0.8924088461	 0.080363
O	 1.594704187	 0.548442631	-1.8061835855	-0.422077
C	 2.1211076288	-0.5934736725	 0.3613827757	 0.069596
O	 2.8606449535	 0.5867926296	 0.5807985027	-0.438364
C	 0.8246023041	-0.6520466944	 1.2223278554	-0.11884
C	 0.8651631225	 0.0392926525	 2.559944325	 0.160726
O	-0.0059279145	 0.7414761012	 3.0072508406	-0.255244
H	 0.5267791124	 2.0152597749	 0.3139504243	 0.122766
H	-0.7123183191	 1.7306336008	-0.9153050446	 0.114587
H	-1.1097083376	 1.5954382444	 0.8157264989	 0.138631
H	-0.9067948892	-0.6544498006	-0.2020340241	 0.077146
H	 1.0506188695	-1.4183214075	-1.3983056999	 0.077785
H	 2.1695271445	 0.1563088074	-2.4712442924	 0.29638
H	 2.7847416026	-1.4659986811	 0.4082623232	 0.065799
H	 2.7961154793	 1.09371861	-0.242806565	 0.291307
H	 0.5617309902	-1.7000330871	 1.4241317527	 0.099089
H	 1.7854442011	-0.1751706222	 3.1487117575	 0.084678
