18
gdb 96526	2.59999	1.60709	1.07181	4.1955	68.88	-0.2455	0.0328	0.2783	1109.8859	0.149043	-476.255172	-476.246752	-476.245808	-476.288615	30.738	
C	 0.0164491469	 1.4408005133	 0.0811977472	-0.337767
N	 0.046741359	 0.0023985405	-0.1591453076	-0.135305
C	-1.2336790786	-0.7082671093	-0.1225144962	-0.177463
C	-1.4872273505	-1.5996323906	-1.3362912468	-0.07627
O	-0.6811397063	-2.7634713702	-1.3403215431	-0.215337
C	 0.6817583093	-2.4956567759	-1.3766345789	 0.009134
O	 1.2073232568	-1.9982060248	-0.1493091309	-0.243703
C	 1.2388175442	-0.6433542732	 0.0699810175	 0.435462
O	 2.2492604852	-0.1075816153	 0.4509098047	-0.375848
H	 1.0261222257	 1.8324019723	-0.0290440645	 0.1678
H	-0.6470192301	 1.9230332682	-0.643217417	 0.121487
H	-0.3370820428	 1.6773680797	 1.093711646	 0.126645
H	-1.3172133383	-1.3147502338	 0.7881422434	 0.133204
H	-2.0195104158	 0.0510094054	-0.0869227414	 0.117943
H	-2.5220298816	-1.953300431	-1.3200880395	 0.117856
H	-1.3280270869	-1.0190629448	-2.2587551522	 0.099838
H	 1.1805860127	-3.4524586908	-1.5351680031	 0.132165
H	 0.927214491	-1.7891366997	-2.1841476475	 0.100161
