23
gdb 79289	2.48811	1.67878	1.43462	0.0687	87.5	-0.2571	0.0919	0.349	1071.9773	0.208818	-351.177171	-351.169283	-351.168339	-351.208901	32.914	
C	-0.0715334906	 1.6268376118	-0.0356764914	-0.419901
C	 0.0274799911	 0.1002169241	-0.0340311316	 0.038317
C	 0.9174693264	-0.4941962335	-1.1252584965	-0.056373
C	 2.3149820814	-0.6263323634	-0.5434766593	-0.065486
C	 2.2497375558	-0.1396842835	 0.9016521632	-0.233651
C	 0.7785893753	-0.5472367241	 1.1637769757	-0.064886
C	 0.8209284678	-2.053332186	 0.768355185	 0.039216
C	-0.4962089151	-2.8282681254	 0.8136881739	-0.423191
C	 1.409522466	-1.8402318123	-0.6283932877	-0.070001
H	 0.9105121171	 2.1078902502	-0.0341879939	 0.117961
H	-0.601414103	 1.9752051811	-0.929081179	 0.11001
H	-0.6267956971	 1.9875859955	 0.837324717	 0.108312
H	-0.9901805914	-0.3008027748	-0.0987880829	 0.063662
H	 0.7570369259	-0.2970388431	-2.1778466637	 0.072593
H	 3.2007900543	-0.5296503509	-1.157622256	 0.075881
H	 2.9445742597	-0.6727451199	 1.5598306791	 0.090172
H	 2.4360373898	 0.9321690848	 1.0113535515	 0.091562
H	 0.3823528691	-0.3248637643	 2.1555243582	 0.052333
H	 1.5447679519	-2.571328605	 1.4117032318	 0.061393
H	-1.2528935785	-2.4049988887	 0.1472785372	 0.119382
H	-0.3380955848	-3.8671629523	 0.503799551	 0.110623
H	-0.9100871401	-2.8469176637	 1.8281306428	 0.108436
H	 1.6133878089	-2.6617333765	-1.3039745444	 0.073635
