14
gdb 25162	3.30236	1.23193	0.96361	4.4112	68.37	-0.2201	0.0177	0.2379	1160.1279	0.100409	-436.694479	-436.686505	-436.685561	-436.728066	28.94	
O	-0.1220376938	 0.0584310894	-0.7068863571	-0.413058
C	-0.0639389848	 1.2082289405	-0.3588105936	 0.50178
O	-1.1338416532	 2.0769259836	-0.3098087688	-0.214281
C	-0.6778454821	 3.3017067361	 0.1310568263	-0.034901
C	 0.6379472017	 3.2411272272	 0.3608467576	-0.120313
N	 1.0320159932	 1.9363570101	 0.059478205	-0.12869
C	 2.3668165124	 1.3644427764	 0.1200142978	-0.315087
C	 3.0190717707	 1.5729698707	 1.4092781509	 0.298316
C	 3.5668928736	 1.76701685	 2.4600341365	-0.437303
H	-1.4065746558	 4.0864130877	 0.2263991917	 0.157088
H	 1.3298213605	 3.9804655935	 0.7248565244	 0.161028
H	 2.2382261469	 0.2971982512	-0.089108155	 0.184096
H	 2.9921686852	 1.7788891176	-0.6820639462	 0.150581
H	 4.0493032554	 1.920541766	 3.3939477205	 0.210743
