18
gdb 35765	3.06832	1.46822	1.30557	6.1424	74.74	-0.2293	0.0277	0.2569	1021.5774	0.151858	-398.104114	-398.0968	-398.095856	-398.135876	29.063	
N	-0.0478994644	-1.1393697516	-0.4842865212	-0.331546
C	-0.018137813	-0.017565525	-0.210781572	 0.323724
C	 0.0034717698	 1.430935913	 0.0771211674	-0.14233
N	-0.6501066171	 1.7328483578	 1.3604721345	-0.293703
C	 0.2740148659	 1.9104342185	 2.4958349697	-0.149143
C	 1.6582090894	 2.3798410014	 2.0317587521	-0.001856
C	 1.5372606998	 3.3035635351	 0.7923020323	-0.248687
C	 1.4573487492	 1.9574147998	 0.0328961844	-0.006749
N	 2.1819799718	 1.2685313547	 1.1537357666	-0.313901
H	-0.5771344466	 1.9166505259	-0.7158012315	 0.120933
H	-1.2161231987	 2.5610823209	 1.2452175904	 0.230719
H	-0.1779538467	 2.6279422738	 3.1879677576	 0.102175
H	 0.399075516	 0.960043984	 3.0271188852	 0.129105
H	 2.3009918536	 2.6685030296	 2.8665203151	 0.075671
H	 0.7021779722	 4.0091070256	 0.7265002492	 0.088818
H	 2.4732295048	 3.8247148166	 0.5786888478	 0.106851
H	 1.8957242392	 1.8529152216	-0.9616253055	 0.088099
H	 3.1815582447	 1.4038253883	 1.0149772478	 0.22182
