14
gdb 18634	3.28282	2.12171	1.83977	3.9973	56.77	-0.2623	-0.0022	0.2601	757.7269	0.108341	-419.697897	-419.691354	-419.690409	-419.728568	24.931	
O	 0.1117932583	 1.3669600536	 0.0322135052	-0.421242
C	-0.0333374524	-0.0137089189	-0.016546395	 0.136075
C	-1.3502707404	-0.7136124429	 0.0405434985	-0.130574
C	-2.5448752753	 0.1539669137	-0.316569333	-0.119247
O	-2.2565142184	 0.734417967	-1.6035508692	-0.247017
C	-1.2394248693	 0.0522147873	-2.2422036282	 0.438315
O	-1.020124739	 0.1976286408	-3.4070058991	-0.330448
C	-0.5198278878	-0.7844826604	-1.240296775	-0.257376
H	-0.5463317085	 1.7843738569	-0.5369683224	 0.304175
H	 0.7916755724	-0.4837085993	 0.5071627676	 0.12714
H	-1.5039255979	-1.5724140464	 0.6825960992	 0.111279
H	-3.4657833058	-0.4325991364	-0.3953005641	 0.131276
H	-2.7064364264	 0.9738689116	 0.3900510978	 0.133467
H	 0.0149886605	-1.6539533267	-1.5966236624	 0.124176
