21
gdb 63167	2.30726	1.6395	1.30311	1.4184	78.38	-0.2415	0.0691	0.3105	1089.0525	0.181747	-424.217902	-424.208768	-424.207824	-424.250783	35.597	
C	-0.0450592241	 1.5449276339	 0.050912476	-0.473901
C	 0.0381901512	 0.0275541597	 0.0570558676	 0.281965
C	-1.2440076121	-0.6423888075	-0.4127050475	-0.444768
C	 1.3220783831	-0.7071590152	-0.330965123	-0.197094
C	 2.6411338124	 0.0343405131	-0.3078165505	-0.105214
O	 2.71793967	 0.6964903123	 0.960728878	-0.254386
C	 1.8858988266	 0.0310038413	 1.8990941109	-0.143781
C	 0.8245765902	-0.7196763122	 1.1040371263	 0.322288
O	 0.2213079146	-1.8089448672	 1.7294891435	-0.465458
H	 0.8797361419	 2.0176744057	 0.3836908669	 0.143522
H	-0.2667931019	 1.9061515201	-0.9601059503	 0.111901
H	-0.8592892673	 1.88387684	 0.701923704	 0.114159
H	-1.4785386126	-0.3340031372	-1.4378047929	 0.109113
H	-1.1693007291	-1.7307067005	-0.383754808	 0.122915
H	-2.0875526684	-0.3538675431	 0.2240450326	 0.117944
H	 1.2319886336	-1.5886876407	-0.9565541826	 0.086386
H	 3.4745764323	-0.6760333852	-0.428684418	 0.092658
H	 2.7447710314	 0.8101432261	-1.0749276889	 0.108796
H	 2.4550756398	-0.7030201534	 2.4971862269	 0.078576
H	 1.4878738606	 0.7863118975	 2.5855665122	 0.112683
H	 0.8979649778	-2.4755373677	 1.8951027867	 0.281696
