19
gdb 92456	2.35676	1.81754	1.48521	1.7011	69.2	-0.25	0.0775	0.3276	978.8378	0.161161	-460.167667	-460.160089	-460.159145	-460.199349	30.596	
C	-0.1522958603	 1.4965569426	-0.1042693411	-0.416855
C	 0.0178497048	-0.0056270568	 0.0496710475	 0.135714
O	 0.6408000568	-0.5637136412	-1.1521765707	-0.30818
C	 1.8100092432	-1.2333743611	-0.6934289677	 0.163977
O	 2.7777979071	-0.3158249931	-0.238096404	-0.269255
C	 2.310592218	 0.1346136846	 1.0595694561	-0.088324
C	 0.9368877392	-0.5318169489	 1.1790236201	-0.143189
C	 1.3013717988	-1.9210150943	 0.5812371645	 0.139469
O	 0.2480543979	-2.8277064082	 0.386990423	-0.459095
H	 0.8007856953	 1.9924894586	-0.3012320009	 0.13704
H	-0.816529246	 1.7075763681	-0.9470489215	 0.129682
H	-0.5999693631	 1.9286860598	 0.79719407	 0.114676
H	-0.9729538992	-0.465745933	 0.1561954775	 0.079806
H	 2.220525782	-1.8275804874	-1.508298725	 0.096269
H	 3.002511849	-0.2058617855	 1.8407773697	 0.104272
H	 2.2873601348	 1.2274318737	 1.0732062736	 0.111667
H	 0.4917720144	-0.5244782688	 2.1733183059	 0.083366
H	 2.0869036381	-2.4304364321	 1.1441497409	 0.094571
H	-0.2215908106	-2.5470792472	-0.4082220379	 0.294389
