16
gdb 51211	3.85051	1.29371	1.11492	1.8562	70.05	-0.2429	0.0165	0.2594	1070.7737	0.124059	-437.809692	-437.802248	-437.801304	-437.843315	28.115	
O	-0.0333958977	 0.8691513023	-1.3956675572	-0.310496
C	-0.0020566838	 1.4081651551	-0.3126059018	 0.129893
N	 1.0728121635	 1.4333699711	 0.5319912527	-0.434316
C	 2.3535036286	 0.9110519984	 0.2183665607	 0.411565
C	 2.7275800742	-0.2913281488	-0.6621508309	-0.295768
C	 4.0943528472	 0.1984995387	-0.1282318468	-0.096556
C	 3.6680146363	 1.6965573988	-0.1636946214	 0.036678
O	 4.0381696576	 1.9656096087	 1.2239360581	-0.333938
C	 3.4920128737	 0.6148737547	 1.2488152216	 0.02008
H	-0.8712863991	 1.9364274448	 0.1277808373	 0.079049
H	 1.0080850912	 2.0147077107	 1.3550574971	 0.25668
H	 2.3889450704	-1.2689200806	-0.3097918362	 0.107711
H	 2.5382968629	-0.1793101192	-1.7292443201	 0.130101
H	 5.0961618609	-0.1875046166	-0.2995868634	 0.095363
H	 3.8399095892	 2.4646041979	-0.9165642027	 0.104718
H	 3.4574757049	 0.0732957741	 2.194463543	 0.099235
