21
gdb 73357	2.43584	1.92271	1.56727	1.5396	79.96	-0.2295	0.0851	0.3145	976.0651	0.185325	-387.096605	-387.089212	-387.088268	-387.127914	30.796	
C	-0.002149971	 1.5181823554	 0.011689382	-0.476285
C	 0.0031651104	-0.0081039246	-0.0025150529	 0.269671
C	 0.6042279804	-0.6076839355	-1.3006163083	-0.22788
C	 0.0316975896	-2.0397711507	-1.4220259871	-0.239149
C	-1.2751912533	-2.0021157105	-0.6308797925	-0.085715
C	-1.1522384508	-1.9133643336	 0.8758435114	 0.08868
O	 0.1465872362	-1.9211612265	 1.4177184083	-0.263846
C	 0.6878961751	-0.6089136021	 1.2467769654	-0.097831
C	-1.3968680114	-0.6667668194	 0.0874862239	-0.145881
H	 1.0175419221	 1.9177648095	-0.0251994674	 0.116075
H	-0.5428213151	 1.9168225091	-0.8527492856	 0.117724
H	-0.4780712562	 1.9076107136	 0.9179528018	 0.11582
H	 0.2617330722	-0.0056912	-2.1504510006	 0.092565
H	 1.6992782533	-0.5798414364	-1.304532599	 0.090417
H	-0.1462824455	-2.3155116909	-2.4648477395	 0.094246
H	 0.7180901204	-2.7799098792	-0.9986589878	 0.112955
H	-2.1573756569	-2.492120533	-1.0294798105	 0.080451
H	-1.8990860894	-2.373465967	 1.5147229451	 0.090673
H	 1.7739544173	-0.7027366662	 1.147040823	 0.102792
H	 0.4696094086	 0.0051325612	 2.1349535448	 0.08448
H	-2.3028455858	-0.0753239831	 0.1415491057	 0.080037
