17
gdb 66022	2.36265	1.33267	1.1229	4.3115	79.1	-0.2567	0.003	0.2596	1151.5851	0.1349	-380.8255	-380.816488	-380.815544	-380.859066	33.53	
C	-0.1304626996	 1.5513092739	 0.0031333002	-0.447392
C	-0.06718673	 0.0195739998	-0.0128992468	 0.113175
C	 1.1564615993	-0.524974008	-0.8237274286	-0.202925
N	 1.9311179262	-0.5983946538	 0.4349093987	-0.310533
C	 0.6922607564	-0.5929992355	 1.235152427	-0.164726
C	 0.7393458118	 0.184282001	 2.4725618669	 0.311179
N	 0.7577804757	 0.8000348842	 3.4504922611	-0.329804
C	-1.3552237055	-0.5788571668	-0.3035210756	 0.263776
C	-2.423732041	-1.0742735376	-0.5452633216	-0.440019
H	 0.856974355	 1.967260758	 0.2185798569	 0.144997
H	-0.4645524779	 1.9176993157	-0.971367534	 0.129114
H	-0.8319522547	 1.9045394788	 0.7629960047	 0.145235
H	 0.9386527804	-1.4939873934	-1.2885087978	 0.111383
H	 1.5765321268	 0.1537505831	-1.5719791785	 0.119397
H	 2.5161939536	-1.4171427125	 0.5557997317	 0.234256
H	 0.2887902054	-1.5877548838	 1.4647840077	 0.120811
H	-3.3696218721	-1.5084270432	-0.757607942	 0.202077
