15
gdb 130158	3.94312	1.05949	0.83605	3.5167	72.2	-0.2001	-0.0055	0.1946	1287.1607	0.114415	-450.165571	-450.157036	-450.156092	-450.199143	30.88	
N	-0.2089736424	 1.4229731007	 0.1679054036	-0.590311
C	-0.0306506252	 0.0462178019	 0.0609618738	 0.396806
N	-1.0759989399	-0.7718568269	 0.0162252952	-0.309126
N	-0.516149911	-2.0189013667	 0.0034895857	-0.303805
C	 0.8384883914	-1.9765480643	 0.0161082157	 0.523761
N	 1.5880595632	-3.1512337081	-0.0034710679	-0.424889
C	 2.9590192037	-3.2232819589	-0.0146484527	 0.148533
O	 3.711071411	-2.2781430881	-0.0135115501	-0.292557
C	 1.2078787805	-0.6484564583	 0.0584646153	-0.38417
H	 0.4802658166	 1.9579330335	-0.3419823434	 0.247564
H	-1.1463839133	 1.7020315578	-0.0910329077	 0.249168
H	-1.1194681484	-2.8193671402	-0.0584394704	 0.264336
H	 1.0877704021	-4.0269854988	 0.0008011132	 0.253757
H	 3.2981103864	-4.2766814875	-0.0258523457	 0.087168
H	 2.2096207152	-0.2625502263	 0.0978731255	 0.133767
