23
gdb 120447	4.25917	0.73004	0.71686	1.5604	83.67	-0.2435	0.0733	0.3168	1723.266	0.203006	-425.417421	-425.406998	-425.406053	-425.453022	38.881	
C	 0.1273726403	 1.5285229906	 0.1434798707	-0.384667
C	 0.358069994	 0.0329897833	 0.0062860907	-0.04085
O	 0.391813652	-0.5371860104	 1.3011347148	-0.250018
C	 0.5803446697	-1.9261764734	 1.299181419	 0.165438
C	 2.003367272	-2.4838413607	 0.9998984173	-0.292457
C	 1.8425843991	-3.4371930226	 2.2108928707	 0.412862
C	 1.4282923341	-4.8565217641	 1.8348459194	-0.44855
O	 3.0070524067	-3.445189969	 3.0163686463	-0.472698
C	 0.6593422962	-2.5458443145	 2.7075073397	-0.319709
H	 0.9335236603	 1.9888065587	 0.7218009926	 0.126828
H	 0.0923553335	 2.0021397063	-0.842248471	 0.112729
H	-0.8174701439	 1.7248654558	 0.6582438404	 0.125498
H	-0.4471388043	-0.4303523227	-0.5895411848	 0.082849
H	 1.303853945	-0.1634891081	-0.5242608823	 0.090424
H	-0.1827698037	-2.4110925734	 0.6703178876	 0.058269
H	 2.2034539635	-2.9330015779	 0.0242225246	 0.092063
H	 2.7599472189	-1.728255943	 1.2253998342	 0.116986
H	 2.2510794021	-5.3701445055	 1.3277305864	 0.123917
H	 1.1607598048	-5.4330126441	 2.7298561627	 0.105007
H	 0.5567880471	-4.8597586014	 1.1722381798	 0.11888
H	 2.8573439872	-4.0468707685	 3.7541105897	 0.27182
H	 1.0255389187	-1.8001284706	 3.4168715321	 0.1157
H	-0.2323269933	-3.0358444549	 3.1067419094	 0.089678
