12
gdb 25125	3.31922	1.44537	1.09176	2.4313	64.43	-0.2812	-0.0969	0.1843	1014.7955	0.07778	-472.672634	-472.665533	-472.664589	-472.704899	25.563	
O	 0.0692832633	 0.0194341493	 0.6256952881	-0.284725
C	 0.0046205781	 1.0789847559	 0.0774348014	 0.413105
O	-1.255116881	 1.4660849216	-0.3895573154	-0.211691
C	-1.5952800633	 2.60131922	-1.0504813035	 0.14869
N	-0.9310159418	 3.3661473705	-1.8010001053	-0.265969
C	 0.4341515802	 3.2548877594	-2.0940071478	 0.354162
O	 0.8621414621	 3.4680226931	-3.2018864817	-0.296082
C	 1.3625829077	 2.9385490255	-0.9729428449	-0.152769
C	 1.1604519737	 1.9872458325	-0.0557018203	-0.173476
H	-2.6562772058	 2.785312088	-0.8921202126	 0.161079
H	 2.319927991	 3.4491161496	-1.0167272639	 0.153946
H	 1.9512338558	 1.7230218845	 0.6385454759	 0.153728
