18
gdb 112373	2.74089	1.27685	0.92358	1.0587	75.93	-0.2402	0.007	0.2472	1266.684	0.149006	-435.336509	-435.327568	-435.326624	-435.371129	32.198	
C	-0.2233906778	 1.5626467587	-0.1135868308	-0.380181
C	 0.1636869874	 0.0826958957	-0.0549118163	-0.151998
N	 0.8138993252	-0.3917573065	-1.259987645	-0.12144
C	 0.1443852504	-0.599167314	-2.5298380481	-0.248474
C	 1.2356703707	-1.198648915	-3.4094506442	 0.398833
N	 1.0653977813	-1.5080870592	-4.6277867828	-0.54033
N	 2.3427512552	-1.2966139444	-2.5864923322	-0.412542
C	 2.112960189	-0.8301814415	-1.2804083872	 0.480058
O	 2.919235318	-0.8294182929	-0.378408276	-0.415609
H	 0.6612345889	 2.1882911343	-0.2628718634	 0.133163
H	-0.9278855423	 1.7651175083	-0.9268100519	 0.120157
H	-0.7035286684	 1.8624438157	 0.8228814388	 0.123403
H	 0.8721546611	-0.0947679691	 0.7579556822	 0.148524
H	-0.7266513295	-0.5316951691	 0.1391131621	 0.104526
H	-0.7021796353	-1.2929339829	-2.4434325243	 0.139184
H	-0.2301886421	 0.3312740238	-2.9713580157	 0.144066
H	 1.9135332331	-1.8956416561	-5.0433774226	 0.212747
H	 3.242377085	-1.6598323558	-2.8538380024	 0.265913
