18
gdb 36503	3.88338	1.02647	0.85368	4.7462	77.76	-0.258	0.0096	0.2676	1322.3779	0.148673	-401.971819	-401.963547	-401.962603	-402.00518	30.82	
N	-0.0177979585	-1.1864148939	 0.0143324637	-0.307589
C	-0.0085633634	-0.0325021841	 0.0668641852	 0.271386
C	 0.0001386711	 1.4282341823	 0.1078196734	-0.36479
C	 1.4160040425	 2.014844004	 0.0381974957	 0.129375
C	 1.4077500514	 3.5419404746	-0.0979708743	-0.266275
C	 2.7887701357	 4.0839251491	 0.1670398147	-0.072498
C	 3.7238116062	 3.3468567153	 0.7606339297	-0.063294
C	 3.4474120527	 1.9520997792	 1.2471314506	-0.11936
O	 2.0681779868	 1.6252962142	 1.232983706	-0.258694
H	-0.5999104897	 1.8089239767	-0.725699411	 0.149923
H	-0.473960312	 1.7621782676	 1.0372049956	 0.160002
H	 1.9408680726	 1.5845230342	-0.8302551578	 0.088892
H	 1.0747745608	 3.8218173586	-1.1055247678	 0.109933
H	 0.680607853	 3.9784724801	 0.6017834741	 0.115223
H	 3.0031678708	 5.0990048735	-0.1546293091	 0.096272
H	 4.7293950596	 3.7271303357	 0.9176101105	 0.097985
H	 4.0216978438	 1.219846895	 0.651417931	 0.108547
H	 3.7716076365	 1.8353398481	 2.2875970596	 0.124962
