16
gdb 6670	7.04507	0.75262	0.70962	3.6149	63.35	-0.2616	-0.0276	0.2339	1523.2379	0.126949	-420.92046	-420.9111	-420.910156	-420.95688	30.488	
C	-0.1835639335	 1.4235778997	 0.1883586534	-0.473901
C	 0.0544533792	-0.0572654351	-0.0302626657	 0.378582
O	 1.1662919308	-0.5291057699	-0.1133740092	-0.290118
C	-1.1848158557	-0.9362964283	-0.1414443155	-0.306712
C	-0.835393343	-2.3898152573	-0.434392835	-0.083511
O	-2.0411551198	-3.151431112	-0.5728197778	-0.178841
C	-2.2668984071	-4.1533815784	 0.2972135709	 0.168453
O	-3.2499517855	-4.8294972474	 0.2641713815	-0.27291
H	 0.7706124965	 1.9392356299	 0.3007734012	 0.148907
H	-0.7316499912	 1.846586128	-0.6612820988	 0.145623
H	-0.8024649925	 1.5877067466	 1.0773730085	 0.142188
H	-1.7574896319	-0.860462991	 0.7925269374	 0.133854
H	-1.8455327456	-0.5394606247	-0.9221015528	 0.140844
H	-0.2819439169	-2.4742200535	-1.3724600359	 0.140216
H	-0.2052726548	-2.8053338345	 0.3593994535	 0.128577
H	-1.446229459	-4.2745078423	 1.0320886942	 0.078748
