16
gdb 123487	5.07421	0.97289	0.90725	2.6905	70.63	-0.2517	-0.0278	0.2239	1278.6201	0.125516	-434.029348	-434.021689	-434.020745	-434.063356	27.325	
C	 0.2242991139	 1.017164188	-0.7426704704	-0.277138
N	-0.0189690128	-0.0591012637	 0.2165060943	-0.069765
C	-0.7619704061	 0.3206354783	 1.4178252769	-0.21691
C	-1.4125135733	-0.4802701248	 0.3451236933	-0.222374
C	 1.4612306057	 1.7680898694	-0.3688403406	 0.450633
N	 1.5523247318	 2.8632124525	 0.3284642763	-0.309852
C	 2.9113090821	 3.0519388621	 0.3749606869	 0.039468
N	 3.6206494424	 2.1512871054	-0.247500136	-0.11051
O	 2.6477058563	 1.2824565787	-0.7515384137	-0.18636
H	 0.356443895	 0.572387577	-1.7338690052	 0.137865
H	-0.5999790946	 1.7460350792	-0.7927556389	 0.120386
H	-0.4328206554	-0.1535338236	 2.3371444495	 0.126384
H	-1.0625566578	 1.3610719653	 1.5218415635	 0.12899
H	-2.1568946568	 0.0223763544	-0.2702143008	 0.114986
H	-1.5675480843	-1.5480623062	 0.4659694692	 0.126405
H	 3.3810393841	 3.8825626778	 0.8812608357	 0.14779
