12
gdb 4375	4.21691	2.03393	1.37212	1.3867	58.64	-0.2528	-0.0229	0.2299	813.0326	0.087171	-410.926454	-410.919802	-410.918858	-410.957679	24.015	
N	-0.0406643393	 1.328442043	 0.0571607976	-0.551806
C	 0.0055742903	-0.0164864218	 0.0104864737	 0.460572
N	-1.1746220759	-0.6734390185	 0.0185126769	-0.319973
C	-1.0485313626	-1.991407673	-0.0292604667	 0.076876
N	 0.0883162286	-2.685160027	-0.0818468858	-0.364157
C	 1.1818924944	-1.9080896297	-0.0836185137	 0.448817
O	 2.3622385764	-2.5283121704	-0.1348255551	-0.383466
N	 1.2204287336	-0.5872573365	-0.0399512294	-0.34515
H	 0.8152050224	 1.853593238	 0.0527452053	 0.273465
H	-0.9314554025	 1.7897595649	 0.0953466029	 0.272866
H	-1.970296651	-2.5703662529	-0.0252213138	 0.124422
H	 2.1644469956	-3.4751331762	-0.1617512918	 0.307533
