17
gdb 10135	2.8376	1.25245	0.91504	3.7369	74.67	-0.2841	0.0145	0.2986	1262.1077	0.140107	-326.710587	-326.701346	-326.700402	-326.744865	32.528	
C	-0.0503401522	 1.5792674517	 0.021495955	-0.388102
C	 0.0091106846	 0.0493885354	 0.0086069142	-0.185578
C	 0.715166643	-0.4942081032	-1.2360310901	-0.170465
C	 0.7800676747	-2.0481894451	-1.2806881869	-0.3303
C	 1.3468904982	-2.534041778	-2.5394596922	 0.315054
C	 1.8013433386	-2.9010157938	-3.5878565038	-0.412142
C	 1.5337991701	-2.5786562561	-0.1311334763	 0.299574
N	 2.1156145452	-2.9742061697	 0.7850153356	-0.328326
H	 0.9548382964	 2.014020149	 0.0090944861	 0.122589
H	-0.5898459949	 1.9649024598	-0.8504779578	 0.117518
H	-0.5599868265	 1.9448081546	 0.9176276321	 0.121369
H	 0.5265210956	-0.3076964936	 0.90660232	 0.128715
H	-1.0089561102	-0.3595572784	 0.0555192249	 0.100293
H	 0.1933094656	-0.1717930019	-2.143251073	 0.118685
H	 1.7363274204	-0.1040832749	-1.3006013833	 0.12711
H	-0.2459458934	-2.4319545989	-1.1872564238	 0.155551
H	 2.2065244348	-3.237633637	-4.5102978408	 0.208454
