16
gdb 44272	3.46193	1.88169	1.47875	3.5968	72.69	-0.234	0.031	0.265	879.8142	0.127245	-400.701129	-400.695099	-400.694155	-400.731343	25.625	
N	-0.068113833	 1.3004239272	-0.2096220931	-0.547593
C	 0.0027911211	 0.0548609543	 0.0143715393	 0.421196
O	 1.1895052459	-0.5866846607	 0.2156641185	-0.25788
C	 1.126434905	-1.9731145088	 0.4543671835	 0.111712
C	 0.0655974422	-2.6358008274	 1.2765573418	-0.13468
C	 0.1787615429	-2.9017917676	-0.2384524119	-0.13468
C	-1.2003464517	-2.2316171724	-0.4400430321	-0.093495
C	-1.3107580739	-1.9720930337	 1.0381365462	-0.093494
C	-1.1974336495	-0.8012534678	 0.0750412704	-0.132319
H	 0.86862532	 1.7099458608	-0.2115579277	 0.214985
H	 2.1344197264	-2.3468844705	 0.5952820575	 0.117288
H	 0.289107845	-3.2825235732	 2.1149838371	 0.099815
H	 0.5043483858	-3.7884524538	-0.766649743	 0.099815
H	-1.9488124982	-2.5780998454	-1.1389519837	 0.104454
H	-2.1606786848	-2.0801092291	 1.6974490907	 0.104454
H	-2.1174458633	-0.2537354018	-0.0898049036	 0.120423
