19
gdb 19288	3.40159	1.73711	1.40735	2.6455	70.59	-0.2365	0.0734	0.3099	954.7739	0.166299	-365.018734	-365.010874	-365.00993	-365.050754	30.368	
C	-0.0539634596	 1.5751216153	 0.0241890329	-0.384614
C	 0.1559695514	 0.0584170779	 0.0957994099	-0.187817
C	 0.7261571975	-0.5207289625	-1.1929171724	-0.015072
C	 0.8653683189	-2.0401216157	-1.3312098946	-0.074183
N	-0.5145970643	-2.5950391786	-1.3434295826	-0.357317
C	 0.0835998132	-2.0608928261	-2.5951960386	-0.082482
C	-0.1835055446	-0.5518572681	-2.5035231371	 0.126715
O	-1.5289747054	-0.1771471071	-2.3914373935	-0.431203
H	 0.8874219553	 2.097605112	-0.1823073538	 0.104386
H	-0.7627501031	 1.826296882	-0.7695077967	 0.138389
H	-0.4479457547	 1.9644374071	 0.9682982379	 0.106414
H	 0.8367225723	-0.1860315944	 0.9223060197	 0.087936
H	-0.7921264901	-0.4388551289	 0.3249710281	 0.103059
H	 1.6777924342	-0.0357442027	-1.4395256103	 0.068455
H	 1.6999503351	-2.6638257311	-1.0339883765	 0.092281
H	-0.442194407	-3.6102125684	-1.3774161439	 0.233304
H	 0.1759104497	-2.6855089444	-3.4753192297	 0.092824
H	 0.2490256049	 0.0273430164	-3.3215691134	 0.086422
H	-1.9304115837	-0.8443516927	-1.8171410455	 0.292503
