17
gdb 45807	2.70201	1.66231	1.23974	3.2508	73.27	-0.2384	-0.0179	0.2205	1014.4411	0.136641	-421.8314	-421.823904	-421.82296	-421.863767	29.127	
O	 0.0092380678	 0.0604293881	 0.4776888505	-0.29821
C	-0.048476612	 1.2090953888	 0.1142311937	 0.402015
C	-1.4034836446	 1.8582107884	-0.1939332444	-0.350619
C	-1.4053413881	 2.9902849135	-1.1901181467	-0.116773
C	-0.6926460748	 4.1166511623	-1.1032142904	-0.038835
C	 0.2704134587	 4.4549590096	-0.0306311062	 0.00797
O	 0.1060704947	 3.8518662943	 1.2668832149	-0.251374
C	 1.223388152	 3.4430287972	 0.4797734836	 0.039496
C	 1.2369925062	 2.0249324794	-0.0636916173	-0.359435
H	-2.0703046474	 1.0516467473	-0.5067585179	 0.124602
H	-1.7701374552	 2.2168404046	 0.7754658184	 0.167477
H	-2.0559053185	 2.8656405061	-2.0512184524	 0.10543
H	-0.7807284797	 4.8597518619	-1.8912883661	 0.094907
H	 0.5741680851	 5.4998580331	 0.0166424143	 0.099731
H	 2.1818527841	 3.7954987932	 0.8618586724	 0.104374
H	 2.0405957613	 1.4428329841	 0.3929330967	 0.13222
H	 1.4371301906	 2.0639714083	-1.1441365831	 0.137025
