15
gdb 15205	2.58232	1.95787	1.50866	0.8417	73.83	-0.2281	0.0147	0.2428	899.0283	0.115625	-325.420538	-325.412057	-325.411113	-325.453171	31.129	
C	-0.2313954431	 1.4907325424	-0.057058643	-0.315802
N	 0.0318733277	 0.0573865997	 0.0269443057	-0.109146
C	 1.3783657347	-0.4313421253	-0.2939779042	-0.218535
C	 2.4434027129	 0.4494831866	-0.6808445812	 0.37159
C	 3.3347991402	 1.1664510862	-1.0518031666	-0.459653
C	 0.8570332831	-0.4433238993	 1.1329606777	-0.21853
C	 1.4170322491	 0.4259457396	 2.1282475006	 0.371589
C	 1.8553784533	 1.1325725263	 2.9970228723	-0.45967
H	 0.6080103057	 2.1239993286	 0.2536529068	 0.132555
H	-0.4878466141	 1.7296107973	-1.0928813685	 0.129468
H	-1.0948481689	 1.7158830441	 0.5750059707	 0.129495
H	 1.3740855333	-1.3862524921	-0.8162879876	 0.121351
H	 4.1271568272	 1.7998050086	-1.3660727111	 0.201972
H	 0.5222561809	-1.4058329334	 1.5152995531	 0.121347
H	 2.2550190881	 1.7569634008	 3.757388605	 0.201969
