17
gdb 110961	2.91292	1.28835	1.07744	3.059	70.28	-0.2498	-0.0142	0.2356	1163.5649	0.132494	-458.892226	-458.883216	-458.882272	-458.92616	32.32	
C	 0.2014128254	 1.309396525	 0.2044898683	-0.243734
O	-0.305855997	 0.0969339398	-0.3188279717	-0.249712
C	 0.4876144234	-0.4546031935	-1.3102712507	 0.139874
C	 1.7149967337	-1.3287195065	-0.8924659637	-0.129975
O	 0.7705108431	-2.3547937678	-0.3885713313	-0.328879
C	 0.1064237834	-1.918532372	-1.6636332328	 0.22466
C	-1.2172252605	-2.4994624569	-2.024773012	-0.529015
C	 1.5440124819	-2.0812840885	-2.2345132734	 0.428239
O	 2.1544126363	-2.6409815182	-3.0854056812	-0.312158
H	 1.163466537	 1.1618230511	 0.7148813655	 0.115636
H	 0.3358677094	 2.0642577631	-0.5849135656	 0.111746
H	-0.5305821416	 1.6760990366	 0.9266354403	 0.138004
H	 0.6516943865	 0.2360262854	-2.1527817663	 0.081326
H	 2.5877693067	-1.1022181114	-0.285425325	 0.113954
H	-1.9795456046	-2.185133327	-1.3065361103	 0.151922
H	-1.5128766939	-2.1570294995	-3.0211645478	 0.139537
H	-1.1642971592	-3.5913644898	-2.0361850923	 0.148576
