21
gdb 40247	2.71963	1.60011	1.22138	1.3324	82.28	-0.2167	0.08	0.2967	1089.0067	0.185673	-383.225541	-383.217837	-383.216893	-383.25753	31.391	
C	 0.1486425654	 1.5134242322	-0.0138889873	-0.298405
N	 1.2808580837	 0.5723938848	 0.0844514547	-0.357678
C	-0.102094483	 0.0516361728	 0.0066838038	 0.350563
C	-0.5506931034	-0.664029161	 1.2665816735	-0.278459
C	-0.1832583305	-2.1464067073	 1.1359825026	-0.20314
C	-0.9211728456	-2.8014712532	-0.0384700264	-0.147377
N	-0.8812695278	-2.0407001491	-1.3058973328	-0.101183
C	-1.9215471229	-1.0386992811	-1.5202690466	-0.260043
C	-0.5155367563	-0.6167450433	-1.2747397476	-0.065324
H	-0.0322860691	 2.1077930512	 0.87837625	 0.114377
H	-0.0073245824	 2.0470255787	-0.948835524	 0.109302
H	 1.7365812535	 0.4904787133	-0.8222884927	 0.226597
H	-0.0485191073	-0.2087129829	 2.1241891505	 0.110136
H	-1.6317460503	-0.5471648026	 1.4181952384	 0.093143
H	 0.9002197346	-2.219992059	 0.984670526	 0.115039
H	-0.4152084402	-2.6964974337	 2.0541635064	 0.094894
H	-0.4894438211	-3.7888690183	-0.2376059565	 0.105762
H	-1.9708406755	-2.9687965997	 0.2351726914	 0.098037
H	-2.341759331	-0.9967535291	-2.5226984158	 0.110229
H	-2.6453579272	-0.8704675843	-0.7240978489	 0.106749
H	 0.0751612963	-0.3016798884	-2.1371981288	 0.076782
