15
gdb 1165	3.06241	2.40041	1.92733	3.471	57.71	-0.2517	-0.0369	0.2149	745.2339	0.120988	-345.676743	-345.668356	-345.667412	-345.709618	28.519	
C	 0.1257384667	 1.7019105782	 0.0577800896	-0.434984
C	 0.043377534	 0.1589319269	-0.018634507	 0.050789
C	 0.4969908573	-0.4868092154	 1.299923091	-0.421366
C	-1.3888964404	-0.2314237889	-0.3740691925	 0.161107
O	-2.11232467	-0.8776384491	 0.336308026	-0.24759
C	 0.9752352309	-0.3004797836	-1.136120432	 0.152772
O	 0.6443602362	-0.9466843144	-2.0954244961	-0.245117
H	 1.1658007812	 2.0240189241	 0.173889159	 0.131904
H	-0.2748480913	 2.1725565144	-0.8459432474	 0.134525
H	-0.4403731874	 2.0696443211	 0.9184124337	 0.141028
H	-0.1302071357	-0.1347999077	 2.1224174608	 0.140059
H	 0.4077776582	-1.5748619877	 1.2561913224	 0.143635
H	 1.5369172763	-0.2267561837	 1.5215914073	 0.117349
H	-1.7365745044	 0.1585223744	-1.3544270199	 0.092981
H	 2.0348156285	 0.0164640313	-0.9883843149	 0.082909
