18
gdb 61083	4.57817	0.80008	0.75648	5.0226	76.43	-0.2416	-0.0155	0.2261	1522.259	0.145402	-439.089419	-439.079968	-439.079024	-439.12561	32.636	
C	 0.0838025292	 1.2279200115	-0.2207031854	-0.387404
C	 0.081276631	-0.2923792522	-0.0240096467	-0.060323
C	 0.8470668814	-0.6941182211	 1.2347054768	 0.160082
O	 1.8286593734	-0.1283954882	 1.6400867396	-0.252488
N	-1.2732352801	-0.830105043	 0.0825544228	-0.343498
C	-1.8611805309	-1.1972105155	-0.9586015608	 0.469364
C	-3.2169857822	-1.7871305029	-1.2817561102	-0.376599
C	-2.6883028893	-1.7757857781	-2.7308725945	-0.077093
O	-1.4283007876	-1.1915420239	-2.2738754916	-0.261262
H	 1.104070575	 1.6071396383	-0.1311886164	 0.139545
H	-0.3135039743	 1.4844353942	-1.2056079933	 0.120921
H	-0.5347293532	 1.7080392104	 0.542860546	 0.12792
H	 0.628306793	-0.7551501665	-0.8630148379	 0.113374
H	 0.4247689309	-1.5846037468	 1.7513463978	 0.083169
H	-3.4065161246	-2.7683953773	-0.8441196078	 0.143349
H	-4.0618140014	-1.1279086923	-1.076261001	 0.144205
H	-2.5201036407	-2.751021287	-3.1931599477	 0.128349
H	-3.1954190098	-1.1063202796	-3.4290521496	 0.128387
