16
gdb 92741	3.09168	1.37604	0.98352	4.0383	67.73	-0.2404	-0.0144	0.2261	1138.6139	0.126143	-471.258236	-471.25003	-471.249086	-471.29083	31.361	
N	 0.1068079756	 1.1985616326	 0.8954820922	-0.566099
C	-0.0635128981	 0.0245568461	 0.1788667019	 0.442203
N	-1.2025726297	-0.5291734222	 0.064026101	-0.310986
C	-1.266129359	-1.774984252	-0.6889272346	-0.18583
C	-0.0053802445	-2.6317166989	-0.5301553491	 0.018444
O	-0.0260427496	-3.7541628748	-1.3678775034	-0.435153
C	 1.2273190584	-1.7848869292	-0.81596702	 0.393483
O	 2.2101139039	-2.2247046823	-1.3777320064	-0.377532
N	 1.135400179	-0.4960911322	-0.3486844803	-0.38519
H	 0.8106128069	 1.8369356288	 0.5526547968	 0.250322
H	-0.7779036417	 1.6535517748	 1.0736725142	 0.266936
H	-2.1371205621	-2.348770515	-0.361266503	 0.121402
H	-1.4140862955	-1.5628926892	-1.7586803175	 0.114097
H	 0.0749284751	-2.928398714	 0.5326904668	 0.10214
H	 0.8786613174	-3.8457741247	-1.7038772071	 0.29503
H	 1.977777094	 0.0608218122	-0.3849222114	 0.256733
