14
gdb 24373	3.7752	1.70186	1.1959	2.4083	71.53	-0.1987	-0.0353	0.1634	951.5492	0.103887	-436.714005	-436.707679	-436.706735	-436.744778	24.653	
C	 0.0624877268	 1.4648981439	 0.1439430805	-0.142921
O	 1.387235721	 2.0537002122	 0.0819652029	-0.2652
C	 2.1670904896	 1.4361506913	-0.8184338835	 0.32519
C	 1.9750285586	 0.1551757124	-1.2429701682	 0.196118
O	 3.0162522371	-0.1459534043	-2.0833974075	-0.18312
C	 3.7601696375	 0.9848070412	-2.0945864458	 0.05396
N	 3.3132746187	 1.9591867664	-1.3555703672	-0.328131
C	 0.9598395589	-0.6907711498	-0.6903025101	-0.168863
C	 0.0506528913	-0.0490697738	 0.0652330034	-0.116721
H	-0.3607980138	 1.8212045212	 1.0848332301	 0.130899
H	-0.5328078394	 1.8951507415	-0.6803368258	 0.115637
H	 4.6369078401	 0.9801993839	-2.7219699978	 0.155551
H	 0.9798603797	-1.7667884168	-0.8141953068	 0.117457
H	-0.7295957219	-0.5774467707	 0.5999455835	 0.110144
