22
gdb 60011	2.99683	0.77783	0.69454	5.189	83.27	-0.2778	0.0386	0.3165	1693.6821	0.191819	-404.375921	-404.364916	-404.363972	-404.413093	39.383	
C	-1.6767393171	 1.6933670817	-1.2170315175	-0.405397
C	-1.8785587977	 0.1806775379	-1.309213978	 0.123629
O	-1.1974706285	-0.3679920211	-2.435533363	-0.424797
C	-1.4833970832	-0.5298296683	-0.0049713576	-0.212037
C	-1.5263017561	-2.0675061391	-0.0439585758	 0.034001
C	-0.9754566092	-2.6602510592	 1.2581779815	-0.409582
C	-2.9615570365	-2.5745990464	-0.3318388552	-0.348149
C	-3.0482737625	-4.031204834	-0.4122364045	 0.266986
N	-3.103347458	-5.1840275135	-0.4751507256	-0.316992
H	-1.9633135911	 2.1726547363	-2.1567456138	 0.128149
H	-2.2750765134	 2.1255039649	-0.4083821995	 0.119176
H	-0.6248693023	 1.9328419292	-1.0157960809	 0.10901
H	-2.9374179626	-0.0110218156	-1.5220117872	 0.091621
H	-0.2623260436	-0.1497218115	-2.3499542128	 0.278956
H	-0.4595521571	-0.2268763196	 0.2576125395	 0.089319
H	-2.1236843127	-0.1604538636	 0.8083085357	 0.096958
H	-0.8979909988	-2.3972004513	-0.8782775249	 0.10279
H	-0.9717460749	-3.7533213442	 1.2285077308	 0.143775
H	 0.0511777433	-2.3234625935	 1.4324396325	 0.115598
H	-1.577972015	-2.3490759095	 2.1200391114	 0.114186
H	-3.6474411092	-2.2309704836	 0.4533196212	 0.142307
H	-3.3268350338	-2.1667550861	-1.2793525065	 0.160493
