17
gdb 43060	3.31401	1.82681	1.59791	3.2688	74.02	-0.2232	-0.0103	0.2129	873.8436	0.138844	-384.669811	-384.663727	-384.662783	-384.700108	25.785	
O	-0.0351128432	 0.0034250824	-0.1370267482	-0.327765
C	-0.0311274966	 1.193998308	 0.0015585074	 0.438904
C	-1.1360251303	 2.2676022718	 0.020522819	-0.186609
C	-1.4413773484	 2.6218885749	 1.4952579118	-0.238628
C	-0.2313775822	 3.4424812895	 1.9075263928	-0.052161
C	 0.313017645	 4.2331551373	 0.7570110177	-0.087433
C	 1.1394750574	 3.0955274198	 1.344054192	-0.080671
C	 1.0476714596	 2.2696406635	 0.0271461293	-0.174228
C	-0.034750007	 3.3116633878	-0.4390743309	-0.049249
H	-2.0188242918	 2.0909260776	-0.5944608766	 0.088971
H	-2.3524179382	 3.2272170998	 1.5711113351	 0.10424
H	-1.5881611751	 1.7235113343	 2.1037961461	 0.118952
H	-0.2111079023	 3.8956785942	 2.8933364142	 0.090993
H	 0.4872934549	 5.3005286721	 0.7428595722	 0.091349
H	 2.0230614561	 3.1363018643	 1.9686820058	 0.0952
H	 1.9994089402	 2.116106579	-0.4821109313	 0.086458
H	-0.0672903582	 3.6823764336	-1.4595047266	 0.081676
