11
gdb 21831	6.36953	1.49052	1.20787	5.1551	54.93	-0.2614	-0.0356	0.2258	887.9354	0.074337	-426.899276	-426.89281	-426.891866	-426.931027	22.169	
O	-0.328918699	 0.0344327253	 0.0072474349	-0.260308
C	-0.0683391358	 1.206652339	 0.0088888595	 0.153984
N	 1.1973181081	 1.7655546168	-0.0019654034	-0.39459
C	 2.4165313295	 1.1155641271	-0.0153419956	 0.52891
N	 3.5521518896	 1.8106749765	-0.0162015291	-0.30158
N	 4.4359554148	 0.8170241554	-0.0313861413	-0.064347
N	 3.9123225727	-0.3930720085	-0.0390519485	-0.084313
N	 2.6120343622	-0.227528862	-0.0294890705	-0.246354
H	-0.8314483828	 2.0095584735	 0.0194046442	 0.08917
H	 1.2585094827	 2.7729491302	 0.0032991997	 0.272679
H	 5.4323770282	 0.9752928067	-0.0364021698	 0.306749
