23
gdb 104359	2.38565	1.38952	1.14358	2.5783	84.93	-0.2301	-0.0133	0.2168	1224.518	0.205398	-388.338617	-388.328949	-388.328005	-388.372859	37.012	
C	-0.2171732389	 1.5883479118	-0.0402254339	-0.399133
C	-0.0060428737	 0.0711431206	 0.0007270852	-0.215692
C	 0.7554354016	-0.4936656991	 1.2238757444	 0.199064
C	 0.1320770286	-0.0139321575	 2.5515768908	-0.430983
C	 0.8282952356	-2.0401138298	 1.1749950199	-0.252462
C	 2.1789352997	-2.4199699085	 1.8174746498	-0.227865
C	 3.1280114826	-1.3149652439	 1.3353676668	-0.308487
C	 2.2438951786	-0.071243907	 1.2221888897	 0.390625
O	 2.6470198306	 1.0645570997	 1.16252631	-0.33346
H	 0.733636424	 2.1192677185	 0.0341297895	 0.149561
H	-0.7034264256	 1.8732142008	-0.9787383748	 0.106144
H	-0.859815999	 1.9308257058	 0.7766223202	 0.112433
H	-0.9807057471	-0.4346886235	-0.0378218539	 0.093102
H	 0.5273909885	-0.2415225804	-0.9066991115	 0.092512
H	-0.9414688904	-0.2325303601	 2.5645382661	 0.114598
H	 0.5850403588	-0.5168811126	 3.4123285752	 0.113647
H	 0.27058165	 1.0612407343	 2.6857686339	 0.138603
H	-0.0252320284	-2.511266531	 1.671188881	 0.09795
H	 0.8169273516	-2.3740513846	 0.1299516226	 0.09576
H	 2.1025444709	-2.3988744268	 2.9103726361	 0.107926
H	 2.5081121287	-3.4238777676	 1.5385254993	 0.102689
H	 3.9989293241	-1.1233749515	 1.9660442803	 0.124926
H	 3.504020029	-1.5376878177	 0.3268960132	 0.128541
