19
gdb 56548	1.95209	1.46868	0.9792	2.9652	75.78	-0.2559	0.0108	0.2667	1253.3871	0.158037	-419.267387	-419.257066	-419.256122	-419.303317	36.88	
C	-0.1371690077	 1.4908530028	 0.0715599753	-0.415583
C	-0.0414539483	-0.0344406467	-0.1247956799	-0.117054
C	-1.3737384846	-0.5758202916	-0.4217942512	 0.266158
N	-2.4161596237	-0.992652447	-0.6985018486	-0.335004
C	 0.9520393766	-0.4764245698	-1.2449088792	-0.082326
C	 2.3529510911	 0.1156633715	-1.0517043032	-0.413341
C	 1.0516695296	-2.0107677311	-1.2125385158	 0.403052
N	 0.4057731425	-2.6672692026	-2.2196572022	-0.5136
O	 1.6859648927	-2.583312478	-0.3472831725	-0.371141
H	 0.8146984806	 1.8909024041	 0.4250750771	 0.136395
H	-0.4019394777	 1.9909330923	-0.8647775348	 0.135169
H	-0.9033245803	 1.7307120917	 0.8128316619	 0.1419
H	 0.3009137558	-0.497817992	 0.8085849778	 0.149274
H	 0.5440836198	-0.1473040444	-2.2077511789	 0.086755
H	 2.3405209357	 1.2067590043	-1.0964359944	 0.118537
H	 2.7689291315	-0.2046476719	-0.0933717067	 0.14697
H	 3.0220116542	-0.2432731522	-1.838883131	 0.130426
H	-0.3133547645	-2.2026148197	-2.7496790021	 0.268644
H	 0.3257424369	-3.6687527996	-2.1240103016	 0.264768
