21
gdb 40912	3.48658	1.37102	1.33067	1.6371	81.04	-0.2404	0.0892	0.3296	1070.1683	0.184888	-387.05954	-387.052209	-387.051264	-387.091194	30.279	
C	-0.0298669731	 1.5764648386	-0.1011727844	-0.211733
C	 1.5132004076	 1.524414727	 0.0672951679	-0.283838
C	 1.3811015291	 0.0713038617	 0.5939844922	 0.41133
C	-0.0606700528	 0.0273614813	 0.0157897583	-0.29471
C	 2.4552213867	-1.0004910678	 0.2400030263	-0.326468
C	 2.8493342112	-1.3806493503	 1.6812274373	 0.082846
C	 1.4909758275	-1.5774996561	 2.388906223	-0.239516
C	 1.4950056266	-0.0555735726	 2.1297409767	 0.020106
O	 2.944992048	-0.0661239889	 2.3231054023	-0.304487
H	-0.5231115248	 2.063213234	 0.7446441366	 0.101529
H	-0.4186008314	 2.0151563836	-1.0227111252	 0.096791
H	 2.0326197429	 1.5610867979	-0.8953834845	 0.095538
H	 1.9849083229	 2.2461615461	 0.7396180024	 0.104732
H	-0.837646026	-0.4180892159	 0.6453052723	 0.092666
H	-0.0931790498	-0.4603118925	-0.9633505648	 0.098968
H	 2.0535915334	-1.8427607134	-0.3321725	 0.095359
H	 3.2993581838	-0.574896872	-0.3088288681	 0.105796
H	 3.7146455861	-2.0218570412	 1.8488173788	 0.077253
H	 0.7269349423	-2.2019247119	 1.9181934757	 0.094828
H	 1.6077225753	-1.8116935633	 3.447355509	 0.109086
H	 0.9655346348	 0.6659102855	 2.753949838	 0.073925
