21
gdb 82202	2.35789	1.77726	1.31413	1.0481	80.49	-0.2399	0.0758	0.3157	1057.1835	0.183193	-387.069167	-387.0609	-387.059956	-387.101274	33.862	
C	-0.0053175378	 1.6026125343	-0.0063189207	-0.398204
C	 0.0482887918	 0.0711847086	-0.0134801328	-0.061047
C	 0.7289109821	-0.5606101822	-1.2337977508	-0.045589
C	 2.1986410866	-0.3528645886	-1.5048872377	-0.303448
C	 1.745388231	-1.5801296811	-0.7520989057	-0.039589
C	 1.7326816875	-1.5664093703	 0.7638949653	-0.092724
C	 2.1729692127	-0.3164913719	 1.5130764602	-0.367673
C	 0.7149477031	-0.5581765971	 1.2260698284	 0.393738
O	-0.1283502678	-0.8625448764	 2.301162052	-0.470314
H	 0.998341141	 2.0389300716	-0.0283947682	 0.113118
H	-0.5525155762	 1.9837745417	-0.8743883679	 0.114188
H	-0.5120895529	 1.9731655062	 0.8922451061	 0.102601
H	-0.9811891522	-0.3071124392	 0.0101452371	 0.085733
H	 0.0966871016	-0.7690534913	-2.0904466752	 0.081728
H	 2.5233948883	-0.4984839625	-2.5300437472	 0.107094
H	 2.7508818186	 0.424735758	-0.9900887196	 0.108512
H	 1.848979757	-2.5452264588	-1.2343256437	 0.082102
H	 1.834414779	-2.5127066504	 1.28189781	 0.091529
H	 2.4731313172	-0.4742174606	 2.5442303642	 0.108398
H	 2.7243013358	 0.4675615248	 1.0072735236	 0.109563
H	-0.1932273163	-0.0803955348	 2.8595691127	 0.280283
