19
gdb 82579	3.34908	1.38607	1.21922	1.6901	74.46	-0.2311	0.0629	0.294	1077.6712	0.159319	-422.967064	-422.9593	-422.958356	-422.999187	31.11	
O	-0.0230998627	 1.3800010178	-0.0221852427	-0.437535
C	-0.1718320377	 0.0040820728	-0.1704895055	 0.122115
C	-0.4654922945	-0.879693091	 0.9912976751	 0.007185
O	-1.258423502	-0.1417067665	 1.9341919854	-0.34547
C	-2.3651624353	-0.0832453013	 0.9856305793	 0.449333
C	-3.6876846377	-0.7713227962	 1.3821810975	-0.288729
C	-4.4417293962	 0.4049352016	 0.6992883497	-0.221144
C	-3.1312311799	 1.2387036915	 0.7761535245	-0.289637
C	-1.5101869314	-0.7176310669	-0.1062374832	-0.26008
H	-0.2522604782	 1.5728178361	 0.8975983646	 0.295548
H	 0.5096589345	-0.4012931252	-0.9134075539	 0.108889
H	 0.1118199142	-1.7184867602	 1.3636111696	 0.102627
H	-3.8600336805	-1.7877908293	 1.0198928418	 0.10032
H	-3.8034876454	-0.7544283133	 2.469467265	 0.115048
H	-4.7200804683	 0.1722296822	-0.3315631371	 0.108067
H	-5.3175915595	 0.800983318	 1.2155213562	 0.105027
H	-3.095458387	 1.8421788183	 1.6886511854	 0.110734
H	-2.8435457832	 1.8554854308	-0.0760989322	 0.118851
H	-1.8621175393	-1.4073553292	-0.8627246295	 0.09885
