10
gdb 4215	6.0816	2.76907	1.90272	1.2151	50.27	-0.268	-0.0598	0.2082	587.5551	0.068827	-363.508158	-363.503312	-363.502368	-363.53684	17.906	
F	 0.0000703177	 0.0469851359	 0.0037643097	-0.061694
C	-0.0222527375	 1.3730574205	 0.0107690527	 0.315369
N	-1.1981256687	 1.9520616619	 0.0290749121	-0.278396
C	-1.1818947496	 3.2905855085	 0.0356463733	-0.014972
C	 0.0075522111	 4.0092283208	 0.0237405334	-0.011756
N	 1.1980327297	 3.3985266011	 0.0050665845	-0.214694
C	 1.1882974193	 2.0705109249	-0.0015422556	-0.122815
H	-2.1447293375	 3.7933374517	 0.0507703963	 0.129175
H	 0.0063985253	 5.0948283178	 0.0292711998	 0.124348
H	 2.1359893602	 1.5408890768	-0.0166445862	 0.135435
