16
gdb 48486	2.0925	1.60215	1.17468	2.9968	69.49	-0.279	-0.0554	0.2236	1078.134	0.124183	-437.904058	-437.895634	-437.89469	-437.93818	29.805	
O	 0.1050196111	-0.0133589046	 0.2857452888	-0.221964
C	 0.0884849021	 1.1783552988	 0.1704821456	 0.131517
C	 1.3468701653	 2.044402056	-0.0623839382	 0.041047
C	 1.5624519757	 2.9666471773	 1.1929977034	-0.298315
C	 2.9866796671	 2.5904076173	 1.643117357	-0.072726
O	 3.1718427739	 1.2546946224	 1.2121051049	-0.235032
C	 2.6469737282	 1.1852967436	-0.0955380142	-0.13321
C	 1.1376806566	 2.8160226429	-1.2829849233	 0.23202
N	 0.9530159707	 3.4139900321	-2.2554484863	-0.32913
H	-0.8494610927	 1.7675449422	 0.2459080136	 0.114045
H	 1.4528256664	 4.024221304	 0.9506159901	 0.140441
H	 0.8297469117	 2.7182217465	 1.9668333969	 0.131643
H	 3.7249198424	 3.2600022903	 1.1743608213	 0.107598
H	 3.1222486936	 2.6214451972	 2.7261059486	 0.126628
H	 2.4299144109	 0.1425759034	-0.32884301	 0.151726
H	 3.3477812569	 1.5989479907	-0.8344266982	 0.113712
