21
gdb 58956	2.55707	1.3759	1.11861	1.7459	78.35	-0.2397	0.066	0.3057	1195.566	0.180889	-424.188934	-424.179393	-424.178449	-424.223086	35.951	
C	 0.1815382889	 1.4556986353	 0.1671889692	-0.398981
C	-0.0975245121	-0.0419373949	-0.0116959159	 0.01674
O	-1.4870369186	-0.2914630543	-0.1806817576	-0.4346
C	 0.6694862181	-0.6082688533	-1.1711908049	 0.461469
O	 0.1839633104	-0.2041249048	-2.4716443834	-0.340139
C	 0.367444977	-1.5605667066	-2.9703434968	-0.099834
C	 0.993245988	-2.0073879111	-1.657446885	-0.219869
C	 2.1005172336	-1.0423801768	-1.2484975552	-0.081091
C	 3.1191710575	-0.4394629336	-2.1899815361	-0.42346
H	 1.2335677765	 1.6346421944	 0.4117235025	 0.112861
H	-0.0521197716	 1.9988960636	-0.7543661071	 0.126687
H	-0.4415350851	 1.8540818018	 0.9718245828	 0.121531
H	 0.1998637681	-0.5818981358	 0.8953134011	 0.088425
H	-1.6849476166	-0.0429303081	-1.0925950417	 0.284695
H	-0.6028527423	-2.0268679169	-3.1706499318	 0.114435
H	 0.9841163773	-1.5850884613	-3.8760145649	 0.106482
H	 0.8378882684	-2.9649679678	-1.1787339363	 0.101939
H	 2.4922998945	-1.3110736924	-0.2682728248	 0.090584
H	 2.6366925469	-0.0336361337	-3.0822411029	 0.13566
H	 3.653444608	 0.3834984976	-1.7036731519	 0.119458
H	 3.8613214132	-1.1816512512	-2.5023254991	 0.117009
