18
gdb 23267	2.60261	1.48319	1.06341	1.6892	74.28	-0.2463	0.0073	0.2537	1135.8594	0.147123	-439.043683	-439.035357	-439.034413	-439.076597	31.874	
C	 0.1996234615	 1.6079686573	-0.0434097128	-0.392782
C	 0.0837670636	 0.0836592164	 0.0485772539	-0.105144
C	 0.663806941	-0.6622096069	-1.1423917522	 0.043509
O	 2.0919685998	-0.5681426721	-1.2253058839	-0.25887
C	 1.5179550499	-1.7694393132	-0.6903402963	 0.030472
C	 1.5538089287	-1.8113444326	 0.8225394932	-0.334248
C	 0.8418146571	-0.5327650665	 1.2214471082	 0.389593
N	 0.8387505771	 0.027276259	 2.3619578204	-0.220946
O	 1.5763969269	-0.7135549534	 3.3017031347	-0.391908
H	 1.2403861179	 1.8938805072	-0.2172004706	 0.135273
H	-0.4100376829	 1.9966949353	-0.8652955916	 0.107739
H	-0.1334054823	 2.0705286136	 0.8880758544	 0.135412
H	-0.977720428	-0.1940511359	 0.1339359859	 0.094354
H	 0.1390282966	-0.6679346996	-2.0946516318	 0.094576
H	 1.6822526722	-2.668218487	-1.2785647335	 0.097644
H	 1.0241807372	-2.6915409806	 1.2097971835	 0.125214
H	 2.5682777265	-1.8440880082	 1.2302110411	 0.143184
H	 1.5225930773	-0.157445783	 4.0861479775	 0.306931
