19
gdb 111308	2.37257	1.33906	1.1371	0.8954	70.41	-0.2522	0.0589	0.3111	1160.0333	0.156495	-460.111563	-460.102152	-460.101208	-460.145504	35.295	
C	-0.16628184	 1.5677302853	-0.192736484	-0.463597
C	-0.0080011432	 0.0656355553	-0.0219699151	 0.349353
O	-1.2542383326	-0.5806496194	 0.1666272203	-0.479351
C	 0.7259332936	-0.6918367614	-1.1452329349	 0.012231
O	 2.066736511	-0.198304105	-1.1875810054	-0.255396
C	 1.7371485736	-1.2086149589	-0.2170180496	-0.004482
C	 1.10225274	-0.4850825035	 0.9833853495	-0.092938
C	 1.9961836222	 0.4671981221	 1.7653996713	-0.097484
O	 2.9454304364	-0.2297370136	 2.5644623057	-0.421786
H	 0.7816301099	 2.0290991373	-0.4788100013	 0.140192
H	-0.9082439979	 1.7743760037	-0.9702294642	 0.12475
H	-0.5085142947	 2.0383859212	 0.7370810092	 0.109687
H	-1.6852778237	-0.1831015455	 0.9308546316	 0.28026
H	 0.3010787369	-1.1093459525	-2.0508550419	 0.109153
H	 2.3083938224	-2.1292568442	-0.2510519616	 0.105066
H	 0.6241220591	-1.197927335	 1.6613585088	 0.087824
H	 2.4907172917	 1.1672037911	 1.0787852338	 0.105185
H	 1.3975497761	 1.0590470311	 2.4665482144	 0.105439
H	 3.5891926291	-0.6281406679	 1.9704321833	 0.285894
