13
gdb 131967	4.54718	1.14712	0.92143	4.6837	65.5	-0.2946	-0.0872	0.2074	1171.8604	0.089859	-485.981217	-485.973522	-485.972578	-486.015168	26.055	
C	-0.0397220189	 1.4113737001	 0.0254306428	-0.313302
N	 0.0443935775	-0.0388312418	 0.0236321289	 0.168213
N	 0.1697551696	-0.7332589867	-1.1101831989	-0.223968
C	 0.1599354077	-2.0017946006	-0.7078316632	-0.077335
C	 0.0226550994	-1.9971395752	 0.6841110368	 0.384608
N	-0.0508253875	-0.7455195757	 1.1316454777	-0.27143
N	-0.0300109082	-3.1354904074	 1.5714594251	 0.36295
O	 0.0473625381	-4.2323813869	 1.0259568647	-0.368508
O	-0.1454263128	-2.932743436	 2.7682926917	-0.340773
H	 0.6601664627	 1.7998658938	-0.7142074554	 0.170708
H	-1.0541869299	 1.7297805889	-0.22878204	 0.16538
H	 0.2188706124	 1.7605325734	 1.023693107	 0.176183
H	 0.2525399099	-2.8289140158	-1.3900020971	 0.167274
