19
gdb 117973	2.97054	0.76442	0.63839	0.679	69.41	-0.268	-0.0429	0.225	1703.7545	0.155948	-497.301881	-497.291263	-497.290318	-497.338759	37.035	
O	 0.1344177029	 1.3742361411	-0.2768726319	-0.41768
C	 0.0639942416	-0.0121884957	 0.0118947619	-0.068536
C	-1.3523146673	-0.5684453959	-0.1715234469	-0.224977
C	-1.4095505753	-2.0843319164	 0.0881510846	 0.034136
O	-0.9486275987	-2.3803885859	 1.3814010735	-0.437596
C	-2.812266494	-2.6499678072	-0.1021102294	 0.331213
O	-3.3472940236	-3.2512131034	 0.8106620058	-0.344395
C	-3.5451361102	-2.4948035899	-1.4224015344	-0.129259
O	-4.7477177536	-3.2048447079	-1.4291779245	-0.418859
H	-0.3072543385	 1.8479306248	 0.4348273603	 0.283922
H	 0.7449050056	-0.4998830081	-0.695343481	 0.111476
H	 0.4226561338	-0.2406725123	 1.0231187738	 0.120127
H	-2.0380994734	-0.0666034755	 0.5237835187	 0.100957
H	-1.6859034196	-0.3426760481	-1.1903866406	 0.113236
H	-0.7682847453	-2.5852780329	-0.6605009467	 0.098107
H	-1.654484361	-2.895900836	 1.8021200932	 0.296892
H	-3.7149118708	-1.418756112	-1.5941694633	 0.128196
H	-2.882385873	-2.8333189141	-2.2344044711	 0.125511
H	-4.8495512897	-3.5566300545	-0.5317397921	 0.297529
