18
gdb 13701	5.07141	0.89124	0.81085	1.7128	78.98	-0.2374	0.0413	0.2787	1449.479	0.152014	-347.764908	-347.755656	-347.754712	-347.799734	32.728	
C	-0.1628329843	 1.4511163081	 0.0657506563	-0.363151
C	 0.1636769494	-0.0507831241	-0.0304741496	-0.317437
C	 0.8420970095	-0.5641620852	 1.156397368	 0.098162
C	 1.4008870993	-0.9253027953	 2.1646546158	 0.023467
C	 2.0645134974	-1.4496224289	 3.3210514172	-0.227693
C	 1.2451478296	-2.020393784	 4.4818976473	-0.311704
C	 1.9658761254	-2.9531282977	 3.5556310911	 0.146069
O	 1.2525930245	-3.740213912	 2.6602314308	-0.428021
H	 0.7499683087	 2.0392696445	 0.1927916615	 0.129445
H	-0.6677902952	 1.7895364899	-0.8438496129	 0.11577
H	-0.8153341177	 1.6524831369	 0.9194515005	 0.129827
H	-0.7631768611	-0.6165596872	-0.1902563109	 0.130754
H	 0.7841486962	-0.2347944505	-0.9170994172	 0.129832
H	 3.0079698269	-0.9777658404	 3.5782541007	 0.111848
H	 1.6294525457	-1.8676389386	 5.4845002852	 0.116056
H	 0.1670688851	-1.9744455254	 4.3830143611	 0.128357
H	 2.8609843745	-3.4479535392	 3.92398279	 0.101621
H	 1.050462586	-3.1946159109	 1.8875989553	 0.286799
