19
gdb 61015	2.81485	1.2097	0.9554	1.9098	75.63	-0.242	-0.0276	0.2145	1254.71	0.157233	-422.988875	-422.979961	-422.979017	-423.023471	32.656	
C	-0.0145242123	 1.4382578123	-0.0860657216	-0.416366
C	 0.087797353	-0.0751422429	 0.1803063344	-0.094363
C	 0.7039287291	-0.3179169963	 1.5444987114	 0.164389
O	 1.714290046	-0.9378416434	 1.751290836	-0.247199
C	-1.300019969	-0.719085779	 0.1361946536	 0.129324
O	-2.0089072149	-0.4781167416	-1.1150645841	-0.307772
C	-2.294388514	-1.8777041661	-1.2322518192	 0.106091
C	-1.0380773256	-2.6628738126	-1.4096001018	-0.296575
C	-1.4668780694	-2.2314717579	-0.0195981476	-0.147907
H	 0.9773949127	 1.8957731256	-0.1359162618	 0.12772
H	-0.5295768534	 1.6088565558	-1.0339196751	 0.151928
H	-0.5827496764	 1.9424850967	 0.7040080947	 0.11993
H	 0.7367243438	-0.5470335639	-0.5624292837	 0.097782
H	 0.1350830041	 0.1463272679	 2.386805598	 0.070076
H	-1.9144187175	-0.3376042274	 0.9643341516	 0.084699
H	-3.2869685448	-2.1641801262	-1.557969276	 0.108873
H	-1.1715976141	-3.7235167737	-1.5987112552	 0.120301
H	-0.1859033295	-2.2120848568	-1.90902392	 0.122654
H	-1.6524549879	-2.9299796604	 0.7842676764	 0.106413
