18
gdb 9739	3.68085	1.50545	1.44129	2.2128	68.04	-0.2501	-0.0208	0.2294	950.0218	0.153414	-384.957318	-384.949218	-384.948274	-384.990481	29.466	
C	 0.0246369684	 1.6162418941	-0.0244039826	-0.451309
C	 0.0193099353	 0.0873276456	 0.0004368743	 0.208805
C	 0.7504577046	-0.5604440916	-1.2166879958	-0.27928
C	 2.0343914536	-1.1344637138	-0.6001367928	-0.079096
O	 1.6543816735	-1.5301734571	 0.7069457774	-0.235531
C	 0.8314184449	-0.4968387424	 1.2087276745	-0.134558
C	-1.3970018408	-0.4527003809	 0.0748804976	 0.123461
O	-2.3991569597	 0.2135109734	 0.0913987639	-0.258832
H	 1.045034324	 1.9958129981	-0.1370022115	 0.110632
H	-0.5827344875	 1.9944565232	-0.8502830091	 0.133098
H	-0.3937572568	 2.025594362	 0.8997946894	 0.129145
H	 0.1534918912	-1.3735430674	-1.6435197754	 0.112014
H	 0.936469246	 0.168724436	-2.0084498019	 0.113784
H	 2.4252371415	-2.0123349265	-1.1199015825	 0.115759
H	 2.8266631127	-0.3686287953	-0.5631700759	 0.093912
H	 1.4332290535	 0.3107498736	 1.6539530833	 0.099511
H	 0.2015837923	-0.9244512161	 1.995755365	 0.11669
H	-1.4449031367	-1.566644665	 0.1231930222	 0.081796
