15
gdb 49690	2.55919	1.30868	1.01346	4.4372	72.74	-0.2431	-0.0428	0.2003	1153.4131	0.112621	-416.77239	-416.764398	-416.763454	-416.805428	29.133	
O	-0.0383475654	 0.0217725338	 0.3755119955	-0.255655
C	-0.0334620532	 1.1915415728	 0.0799344104	 0.1517
C	 1.2291219063	 1.9818624752	-0.0238262565	-0.158716
C	 1.5868105584	 2.9096867946	-1.1780175936	-0.158041
C	 0.3780226927	 3.6900990964	-1.7020162202	-0.186221
N	-0.0059675775	 4.0730985289	-0.3009693754	-0.367585
C	 1.2635379533	 3.4872111336	 0.1927463305	 0.229763
C	 2.0890020238	 4.1249761509	 1.1636391862	 0.195247
N	 2.7469082695	 4.6657624008	 1.9476626751	-0.335985
H	-0.9670450443	 1.749724774	-0.1193965863	 0.111154
H	 2.0956955304	 1.4556702185	 0.364225794	 0.136555
H	 2.5427066531	 2.8082643968	-1.6733434472	 0.134465
H	 0.6947713331	 4.5470377118	-2.3029410329	 0.129816
H	-0.3954126576	 3.1362496513	-2.2415737579	 0.12713
H	-0.0217094028	 5.0793462906	-0.1758695218	 0.246375
