18
gdb 34676	3.73317	1.43548	1.30068	1.3746	82.7	-0.2245	0.0281	0.2526	1016.3049	0.149447	-364.711149	-364.704193	-364.703249	-364.74224	29.107	
C	-0.1481952687	-1.2715462247	-0.1514121942	-0.430949
C	-0.0037125118	-0.0898217549	 0.0281324802	 0.310504
C	 0.0250901108	 1.3436383907	 0.1150926118	-0.188995
C	 0.388340724	 2.235752094	 1.2659481776	-0.039897
C	 1.4356281109	 1.8802372349	 2.3263151192	-0.063792
C	 2.5956885469	 2.8070202914	 1.7997674396	-0.20384
C	 2.514427554	 1.806681959	 0.6037067728	 0.013342
C	 2.2418651122	 0.7232629076	 1.6829057196	-0.253116
N	 1.2044365014	 2.2539795507	 0.0209022587	-0.137153
H	-0.2467139111	-2.320762654	-0.2821509829	 0.197057
H	-0.7732598824	 1.76771534	-0.4949646561	 0.123775
H	-0.2511506161	 3.0957800328	 1.454509419	 0.097092
H	 1.1154879126	 1.8683815773	 3.3672736974	 0.069691
H	 2.3598241991	 3.8514148623	 1.5825481496	 0.104204
H	 3.5143976536	 2.7223500942	 2.3834370228	 0.099023
H	 3.2906820438	 1.7116216729	-0.1536059023	 0.077132
H	 3.1484745	 0.5121428098	 2.2533143059	 0.097405
H	 1.7449700307	-0.204080514	 1.4193776614	 0.128515
