27
gdb 100095	2.40026	0.89368	0.83668	1.3445	92.19	-0.263	0.073	0.336	1621.6675	0.248968	-390.699439	-390.687399	-390.686454	-390.736183	44.962	
C	 0.2612964346	-2.5413564815	-0.5405818518	-0.386936
C	-1.0248382221	-2.0307580525	 0.127423543	 0.04478
C	-1.0121726719	-2.3830852355	 1.6231160423	-0.39114
C	-1.2229165189	-0.5048494769	-0.0743272132	-0.218705
C	-2.1182730263	-0.0219210609	-1.2463709946	 0.254816
C	-2.0012662335	 1.5123352038	-1.3370256291	-0.409303
C	-1.7101364326	-0.6378130255	-2.5966523447	-0.407274
C	-3.5818308083	-0.3853558761	-0.9357106597	-0.081763
O	-4.4136592561	 0.0789819066	-1.9917834339	-0.426143
H	 0.366192933	-3.6248867905	-0.4175723302	 0.10576
H	 0.2848428894	-2.3223514853	-1.6109153303	 0.116289
H	 1.1413182755	-2.0701174105	-0.0860508161	 0.109762
H	-1.8710077524	-2.5634341283	-0.3254699222	 0.071739
H	-0.2000519436	-1.8577714075	 2.1402828347	 0.112297
H	-1.9517314347	-2.0993847395	 2.1092082685	 0.106577
H	-0.862936317	-3.4571096644	 1.7781477681	 0.106489
H	-1.6423512644	-0.0779051896	 0.8465749711	 0.084046
H	-0.2357613933	-0.0371086748	-0.1867931259	 0.087709
H	-0.9840786177	 1.8081662723	-1.6148978908	 0.10386
H	-2.6932342561	 1.9098894458	-2.0831161341	 0.129119
H	-2.234624693	 1.982890103	-0.3748375969	 0.100943
H	-1.8029340733	-1.7284394659	-2.5922122563	 0.10735
H	-2.3540051047	-0.2574959233	-3.3931104796	 0.12789
H	-0.673412864	-0.3865543725	-2.8441313712	 0.104535
H	-3.6829155912	-1.4751651931	-0.818755296	 0.081869
H	-3.8707799155	 0.0785021688	 0.0217997306	 0.078812
H	-5.3185512219	-0.1793094362	-1.7971440418	 0.286623
