20
gdb 70379	2.34089	1.52547	1.32641	3.8506	82.84	-0.2659	0.0374	0.3034	1092.2526	0.170185	-366.011034	-366.001972	-366.001028	-366.044168	34.773	
C	-0.0909211546	 1.5459703418	 0.0489940486	-0.506471
C	 0.0346938659	 0.0489480003	 0.036022765	 0.338781
C	-0.8189303693	-0.8504685619	 0.8914532504	-0.344137
C	 0.6740799162	-0.9129825186	 1.0422425753	-0.07887
C	 1.2613634844	-1.7642149196	-0.0845720822	-0.279427
C	 0.6369127016	-0.7716430394	-1.1471530089	 0.084081
C	-0.3217103087	-1.3424425192	-2.1997541101	-0.454865
C	 1.6975026162	-0.0156003669	-1.812340431	 0.257465
N	 2.5311107218	 0.5871223505	-2.3413344666	-0.358076
H	 0.8378816609	 2.0293477752	-0.2696261693	 0.145041
H	-0.8907841629	 1.8845385398	-0.620547414	 0.124227
H	-0.3316748271	 1.9026932485	 1.0553719423	 0.120717
H	-1.3499727295	-0.3292417629	 1.6817277252	 0.117718
H	-1.3661863435	-1.6957942488	 0.4814230673	 0.107465
H	 1.1743464394	-0.6829461631	 1.9747485651	 0.094119
H	 2.3510013132	-1.7737190872	-0.1189810625	 0.130782
H	 0.8929406279	-2.7930602137	-0.1513164959	 0.105242
H	-1.1138154155	-1.924228392	-1.7228443946	 0.124021
H	-0.7854784026	-0.5401862869	-2.7812375839	 0.135976
H	 0.2123821563	-1.9977591459	-2.8941451103	 0.136212
