19
gdb 80759	3.60786	0.96443	0.8775	1.9984	77.71	-0.233	0.0257	0.2587	1366.1011	0.159601	-419.182784	-419.17401	-419.173066	-419.217084	32.377	
C	-0.031960163	 1.5837144583	-0.0153180523	-0.427919
C	 0.0313105111	 0.0796411131	-0.1533156897	 0.025814
C	 0.6531085654	-0.6689083224	-1.2659559515	-0.084919
C	 1.9125530464	 0.0218130629	-1.8051659491	 0.041794
C	 2.433027466	-0.0142838524	-0.3436480477	-0.199364
N	 1.2165434999	-0.7552246122	 0.1506568014	-0.153501
N	 2.6785903616	-0.7632942212	-2.7440700886	-0.294575
C	 3.0992616288	-0.2888513931	-3.9502261054	 0.154094
O	 2.8983641618	 0.8284492747	-4.3747033486	-0.320771
H	 0.7775796669	 2.1057024058	-0.5291683594	 0.132192
H	-0.9747463302	 1.9486415879	-0.4353591184	 0.130138
H	-0.0049751719	 1.8724346187	 1.0409032171	 0.129517
H	-0.8510470232	-0.4138378323	 0.2519491074	 0.100163
H	 0.1748108626	-1.5161904707	-1.7503825392	 0.09334
H	 1.7716520297	 0.9967016781	-2.273997244	 0.124342
H	 3.3136862696	-0.6515028831	-0.232090894	 0.110126
H	 2.6251983098	 0.940995192	 0.1535731176	 0.112697
H	 2.9051565779	-1.7166902591	-2.5041499222	 0.249949
H	 3.6625828107	-1.0580943452	-4.5146273734	 0.076882
