20
gdb 47053	3.41899	1.31061	1.03937	3.0404	78.78	-0.2234	-0.01	0.2134	1168.0482	0.173435	-403.158508	-403.150689	-403.149745	-403.191306	30.742	
O	-0.0366438624	 0.7534895969	-1.4344197029	-0.309618
C	-0.0851327704	 1.3023824131	-0.3599456733	 0.392623
C	-1.3962145303	 1.8929337594	 0.1731435513	-0.266698
N	-1.1940728729	 2.5261905807	 1.4714670074	-0.30743
C	-0.1922374997	 3.5786111026	 1.3777997355	 0.02558
C	 0.3466510438	 4.0501629756	 2.75251	-0.240436
C	 1.6165617377	 3.1768352903	 2.5475445179	-0.233105
C	 1.1940605354	 2.9258359911	 1.0693530062	 0.022609
C	 1.1088106358	 1.4761539424	 0.5639232349	-0.323145
H	-1.7828333334	 2.5710631743	-0.610541678	 0.108436
H	-2.1172893781	 1.0729111407	 0.2653238585	 0.130048
H	-2.0693482475	 2.889383738	 1.8337804064	 0.221347
H	-0.4876397863	 4.3867501875	 0.6866593016	 0.048504
H	 0.5579170114	 5.1220498523	 2.7738865571	 0.101332
H	-0.2823562921	 3.7992803457	 3.6098719138	 0.100658
H	 2.5763768666	 3.6761873878	 2.6970089702	 0.101567
H	 1.6086659251	 2.2621773445	 3.1455639457	 0.105555
H	 1.7717683444	 3.5342070298	 0.3686354013	 0.078981
H	 0.9414605931	 0.8097527876	 1.4195921965	 0.127382
H	 2.0130861897	 1.1463492497	 0.0480064902	 0.115811
