25
gdb 109927	1.96786	1.31857	1.03315	1.2382	88.57	-0.2492	0.074	0.3231	1355.1862	0.226991	-389.493975	-389.483271	-389.482326	-389.528788	41.11	
C	 1.0957117727	 0.968067264	 0.2873483787	-0.385173
C	 1.0904821539	-0.5584689047	 0.1406640982	-0.207351
C	 1.572361464	-1.0237885501	-1.2289780506	 0.018473
C	 3.0899777952	-0.9839421869	-1.6257838659	 0.002247
C	 4.1181344144	-0.9942117641	-0.4960916342	-0.407186
C	 2.8930908333	-2.3539518795	-2.3422174914	-0.292959
C	 1.5153422491	-2.5268309138	-1.6290022591	 0.383535
C	 1.5183832326	-3.544802163	-0.4920750323	-0.456319
O	 0.401502683	-2.7562103076	-2.4816943482	-0.479561
H	 2.1004147076	 1.3815852606	 0.1495602145	 0.117434
H	 0.4439336566	 1.4355986464	-0.4590296542	 0.115906
H	 0.7437372356	 1.2748849695	 1.2773524669	 0.109136
H	 1.7013225399	-1.0038430277	 0.9350446525	 0.090301
H	 0.0695735034	-0.930394767	 0.2971885583	 0.100411
H	 1.0025193292	-0.4917614637	-1.9990117988	 0.079881
H	 3.3335880615	-0.1636942662	-2.3069055137	 0.067926
H	 3.9526177741	-1.8097050602	 0.2156171301	 0.115384
H	 5.1266683103	-1.1219823207	-0.9050359197	 0.112573
H	 4.1082156978	-0.056902069	 0.0703449798	 0.116207
H	 2.7565064135	-2.2541662403	-3.4214225304	 0.098875
H	 3.6506740854	-3.1197539403	-2.1456508899	 0.084137
H	 2.3412013503	-3.3836477264	 0.2091270896	 0.121333
H	 0.576960238	-3.5075992758	 0.0642833263	 0.123265
H	 1.6352338504	-4.5580120346	-0.8987914782	 0.101787
H	 0.3773656781	-3.6948581386	-2.6983244182	 0.269739
