21
gdb 110565	3.16871	1.29004	1.08749	1.5544	83.78	-0.2092	0.0785	0.2877	1208.1607	0.181852	-383.15574	-383.147069	-383.146125	-383.189007	33.619	
C	 0.3217887405	 1.1460489774	-0.6846654502	-0.374251
C	-0.2176173628	 0.7326237648	 0.6835802873	-0.128698
N	-1.4023393376	-0.1113745772	 0.5359059626	-0.112267
C	-1.9482585398	-0.767835257	 1.7570016371	-0.089738
C	-2.5776575759	-1.9091618739	 0.9028775775	-0.028862
N	-2.0174939741	-3.0455426817	 1.6906960388	-0.376736
C	-0.9376734762	-2.0003288053	 1.7699733981	 0.335583
C	 0.3227693001	-2.2778244774	 2.5399275804	-0.530966
C	-1.2049830739	-1.568686393	 0.2690920447	-0.062522
H	 1.1689083629	 1.8308348223	-0.5790039165	 0.109747
H	 0.6665007274	 0.2755939038	-1.2533192374	 0.11455
H	-0.4594900043	 1.6405497805	-1.2685990707	 0.125763
H	 0.588433679	 0.2611846269	 1.2695710807	 0.080319
H	-0.5280662244	 1.6256888472	 1.2408522383	 0.097599
H	-2.3797061952	-0.2156734225	 2.5965392179	 0.073283
H	-3.5488512335	-1.9194745371	 0.4103062517	 0.087734
H	-2.4982459654	-3.1183566303	 2.5923345823	 0.201737
H	 0.7896273531	-3.1958132419	 2.1680045732	 0.136337
H	 1.0453849786	-1.4631655793	 2.4596054953	 0.132814
H	 0.0973110141	-2.4244203526	 3.6028864417	 0.121491
H	-0.7673112627	-1.9743439336	-0.6434554828	 0.087082
