21
gdb 38834	2.53384	1.93251	1.66186	1.5866	79.74	-0.2398	0.0789	0.3187	941.5838	0.187515	-387.096256	-387.089543	-387.088599	-387.126896	29.02	
C	 0.0559632169	 1.5704357334	-0.193979789	-0.29738
C	 1.3320684981	 0.7802044192	-0.0585963247	-0.018114
C	 2.1725196971	 0.8532652399	 1.2147342134	-0.230857
C	 1.4800124451	 0.1952989021	 2.4220953784	 0.118106
C	 0.8427716789	-1.1388785723	 2.0116653863	-0.235569
C	-0.423326548	-0.5802565352	 1.3291871011	-0.044874
C	-0.8472065987	 0.42103592	 2.4068493788	-0.08313
O	 0.3742885106	 1.0030821091	 2.8723512775	-0.283432
C	-0.0128634619	 0.0731656198	 0.0016366341	-0.029456
H	-0.2127545119	 2.2182003079	 0.6324303601	 0.128614
H	-0.2041844675	 1.964553205	-1.1706956545	 0.101446
H	 1.9061766748	 0.6461634501	-0.9702082226	 0.07801
H	 3.1212486049	 0.3276311903	 1.0485384308	 0.092229
H	 2.4249478484	 1.8894997819	 1.4675701949	 0.104715
H	 2.1827278106	 0.1076551041	 3.2564574423	 0.07091
H	 1.4745099464	-1.7250277537	 1.340318215	 0.098693
H	 0.5936333024	-1.7462162597	 2.8873905553	 0.096623
H	-1.1947359608	-1.3352305777	 1.159883221	 0.064489
H	-1.504153884	 1.2141281044	 2.0377497909	 0.102428
H	-1.3601497282	-0.0916205075	 3.2342139209	 0.087364
H	-0.2881863032	-0.5036481111	-0.8761249701	 0.079183
