21
gdb 120425	4.77595	0.74035	0.68466	3.7846	86.44	-0.2345	-0.0429	0.1916	1689.9432	0.182489	-387.137146	-387.127841	-387.126897	-387.172284	34.198	
C	-0.1427928059	 1.6137604411	 0.0129692951	-0.380567
C	-0.0203011693	 0.0872835249	 0.0297324085	-0.174851
C	 0.7154499622	-0.4606003778	-1.1984206729	-0.176484
C	 0.8052391569	-1.9992442513	-1.2644801296	-0.047532
C	 1.4722007445	-2.5272764036	-2.554631255	-0.360592
C	 2.628118453	-3.4316663389	-2.0974957023	 0.380032
O	 3.3708906669	-4.057087787	-2.8177472506	-0.330988
C	 2.6450959447	-3.3819501489	-0.6168402452	-0.186774
C	 1.6512948885	-2.6085575215	-0.1656424625	-0.044654
H	 0.8438372621	 2.0897492179	-0.0021692968	 0.117429
H	-0.6881279668	 1.9569870657	-0.8731175977	 0.116494
H	-0.675828291	 1.9807215919	 0.8953609468	 0.114463
H	 0.4975175283	-0.2219436831	 0.9461178831	 0.098266
H	-1.0218492077	-0.3604855376	 0.0798797736	 0.097319
H	 0.203109472	-0.1114940891	-2.1044571424	 0.101106
H	 1.7304434143	-0.0423355316	-1.2400534293	 0.099553
H	-0.2182225891	-2.3912934369	-1.1749398138	 0.089274
H	 0.7913680465	-3.0966994123	-3.1935068912	 0.130025
H	 1.8788445218	-1.7175256619	-3.1695550256	 0.129908
H	 3.3748154813	-3.9209725769	-0.0259648409	 0.113674
H	 1.4426360669	-2.4188876632	 0.8821805888	 0.114899
