18
gdb 133762	1.95402	1.36095	0.97562	1.9632	61.51	-0.2705	0.0777	0.3482	1251.8836	0.141706	-570.593328	-570.583245	-570.582301	-570.629245	35.099	
C	-0.0508585863	 1.5853190616	-0.016915264	-0.397485
C	-0.0182383128	 0.0570762994	 0.0285830082	-0.191022
C	 0.7341087781	-0.4727041271	 1.2513849038	-0.028257
O	 0.031369944	-0.0896220028	 2.4102519838	-0.244589
C	 0.8140170434	 0.1082971937	 3.5762178076	-0.245741
C	 0.8654422844	-2.0005514154	 1.1912671909	 0.281741
F	 1.5652122727	-2.373621591	 0.1052659314	-0.080107
F	 1.5123488188	-2.4861556472	 2.2652074118	-0.08202
F	-0.3266740313	-2.6023392421	 1.1358968801	-0.07291
H	 0.9587826487	 2.0031913259	-0.0991736672	 0.112822
H	-0.6266619866	 1.9349046865	-0.8783852597	 0.118164
H	-0.5119193481	 1.9869562774	 0.8886877788	 0.134839
H	-1.0362641423	-0.3446824499	 0.0632026668	 0.122961
H	 0.4567618868	-0.3463992099	-0.8711276286	 0.113998
H	 1.7617710326	-0.0762815506	 1.2646836209	 0.088101
H	 1.2390026314	-0.8268179771	 3.9557005182	 0.1275
H	 1.6315827286	 0.8199979985	 3.3897724421	 0.109887
H	 0.145455698	 0.5296735202	 4.3303575151	 0.132117
