20
gdb 9544	3.32023	1.57016	1.35131	2.252	70.7	-0.2461	0.062	0.3081	1007.5494	0.175802	-386.130164	-386.121194	-386.12025	-386.163161	33.942	
C	 0.4272078091	 1.5996473541	-0.146220934	-0.390738
C	-0.0152695021	 0.1650849927	 0.1245990977	-0.041004
C	 0.6253283846	-0.8995009709	-0.8180762728	-0.226535
C	 1.6139309391	-1.2877345811	 0.3154107951	-0.28291
C	 0.7068570254	-0.5195280451	 1.3237781322	 0.447569
O	 1.3411257043	 0.3743408593	 2.2092157225	-0.489807
C	-0.2186076282	-1.4355418325	 2.115471719	-0.141537
O	 0.5909436136	-2.0830494709	 3.0958536986	-0.437651
H	 1.5153408433	 1.6737794349	-0.2332913816	 0.121006
H	-0.0141380095	 1.9610037918	-1.0812907429	 0.104184
H	 0.1190335254	 2.2670167711	 0.6631563366	 0.123358
H	-1.1095562665	 0.1279461884	 0.1872422067	 0.057053
H	-0.0634317277	-1.7072143337	-1.0796038398	 0.095451
H	 1.0665710018	-0.5141463739	-1.7406425329	 0.096477
H	 1.7855277597	-2.3490794038	 0.5090014167	 0.099206
H	 2.578414144	-0.7850288164	 0.2168452422	 0.106248
H	 1.5855430514	-0.1515016229	 2.9820297807	 0.282244
H	-1.0002135034	-0.8249483598	 2.5913820091	 0.093238
H	-0.7042489444	-2.1665502179	 1.4524042746	 0.090325
H	 0.0172632701	-2.4996377234	 3.7445249725	 0.293823
