19
gdb 87514	3.47665	1.44901	1.32774	1.8522	80.75	-0.2178	0.0042	0.222	1035.8749	0.160443	-381.978168	-381.970593	-381.969648	-382.009873	30.532	
C	-0.1578599265	 1.4316001114	-0.0631014284	-0.318674
N	 0.0866093695	 0.0000296671	 0.0248954762	-0.15395
C	 1.4638663993	-0.4940774489	-0.1705236872	-0.359519
C	 0.7967978693	-0.5202747911	 1.14174207	 0.498314
C	 1.1517284446	 0.1462536943	 2.5128114313	-0.155592
N	-0.1497864897	-0.4536122443	 2.9721078892	-0.304887
C	 0.293395419	-1.6220189061	 2.1279088339	-0.152307
C	 1.6329058609	-2.0356697961	 2.7549152967	-0.092177
C	 2.2110987972	-0.8534651776	 3.005105071	-0.094788
H	 0.6949074819	 2.0436745511	 0.2739438106	 0.096436
H	-0.3796230569	 1.6971972528	-1.1011072597	 0.121112
H	-1.0261228181	 1.6806559295	 0.5536915639	 0.13797
H	 1.5655784293	-1.3868844555	-0.7824858214	 0.115307
H	 2.2541586692	 0.2451793577	-0.3075972902	 0.10394
H	 1.3055514534	 1.2157070222	 2.6524295155	 0.071942
H	-0.11189362	-0.688644871	 3.9667048637	 0.199778
H	-0.4474792426	-2.3706661316	 1.8514970407	 0.075817
H	 2.0154073152	-3.0394399282	 2.8727221143	 0.10629
H	 3.195642955	-0.6215923257	 3.3856880697	 0.104989
