23
gdb 93095	2.14236	1.60476	1.37245	1.4688	85.57	-0.2454	0.0222	0.2676	1117.0943	0.206035	-388.315029	-388.305791	-388.304847	-388.347902	37.246	
C	 0.0521637739	 1.5406924822	 0.0048133192	-0.431013
C	-0.0159581201	 0.0062237168	 0.0037994365	 0.269447
C	-1.492126227	-0.4352747256	-0.0012800229	-0.428372
C	 0.704483312	-0.5515197455	-1.2476283776	-0.287369
C	 1.0797153828	-2.0070536911	-1.1322184507	-0.058242
C	 1.0579965694	-2.6918644707	 0.0129125874	-0.066374
C	 0.648041067	-2.0782557201	 1.3276516985	-0.297019
C	 0.6967239533	-0.5453453468	 1.2669961017	 0.116555
O	 2.0479604802	-0.0900884889	 1.3431128801	-0.450643
H	 1.0830998671	 1.8820344755	 0.122572609	 0.128321
H	-0.3477953888	 1.9490423678	-0.9301171012	 0.101615
H	-0.5383367807	 1.9581518474	 0.8285440708	 0.104268
H	-2.0375422862	 0.0737587453	-0.8033325593	 0.110073
H	-1.6014179876	-1.5115782818	-0.1606828617	 0.12025
H	-1.9841157483	-0.1788552817	 0.9441375528	 0.10918
H	 0.0690665567	-0.4030317521	-2.1308466114	 0.102619
H	 1.6099287353	 0.040014938	-1.448140753	 0.105659
H	 1.3958189152	-2.5026002265	-2.0477244578	 0.085795
H	 1.3423319837	-3.7413891503	 0.0197420916	 0.086342
H	-0.3569610638	-2.421146455	 1.608853652	 0.112339
H	 1.3144112555	-2.4128719993	 2.1317212539	 0.108971
H	 0.2103376537	-0.1260567219	 2.155737195	 0.075191
H	 2.5657188365	-0.6289052657	 0.7341107772	 0.282407
