20
gdb 60293	5.17623	0.53404	0.50941	4.4728	82.53	-0.2389	-0.0192	0.2197	2167.007	0.166341	-440.296221	-440.285374	-440.28443	-440.334213	36.975	
C	 0.0253914239	 1.5817527208	-0.1387634904	-0.382368
C	 0.0081162989	 0.0612724792	-0.0078407769	 0.123614
C	-1.3968085684	-0.5168244257	 0.0868714067	-0.387896
O	 0.6185221174	-0.5351805069	-1.1715762579	-0.208357
C	 1.9500033323	-0.6798395516	-1.1593391589	 0.133981
N	 2.5668391453	-1.0823763051	-2.1829916147	-0.23218
C	 3.9959525783	-1.2584947881	-2.0702287399	-0.237429
C	 4.3969292624	-2.6751046486	-2.4647027613	 0.156493
O	 5.3994966239	-3.2197206053	-2.0838921084	-0.23879
H	 1.0495302489	 1.9590572219	-0.2162876537	 0.121767
H	-0.5224911981	 1.891171667	-1.0338257685	 0.135447
H	-0.4432109019	 2.0452864523	 0.734799856	 0.122804
H	 0.5871987268	-0.2395382578	 0.876916447	 0.087107
H	-1.976845082	-0.2548365472	-0.8029659465	 0.134486
H	-1.3609929275	-1.606215033	 0.1656961615	 0.13061
H	-1.9120060055	-0.1189395525	 0.9658141412	 0.121088
H	 2.4310160848	-0.4360510752	-0.1983052899	 0.080513
H	 4.4983936931	-0.5927791983	-2.7902960196	 0.135207
H	 4.4199265549	-1.0390814733	-1.0772757654	 0.109711
H	 3.6798957124	-3.1664935326	-3.1581083904	 0.094192
