18
gdb 117442	6.34716	0.5391	0.50301	4.0858	73.77	-0.2673	-0.0317	0.2356	2064.918	0.14484	-439.117015	-439.106537	-439.105592	-439.154634	35.123	
O	-0.1904025057	 1.4813622634	 0.0120448824	-0.422591
C	 0.0240000006	 0.0790818168	 0.0021930149	-0.07436
C	-1.349303141	-0.5774316063	 0.0118049069	-0.28327
C	-1.2925513078	-2.0922121111	 0.0028820288	 0.362416
O	-0.2467166593	-2.7031944079	-0.0101816107	-0.298931
C	-2.6336287225	-2.818941106	 0.0115933384	-0.298818
C	-2.4560489389	-4.3450979595	 0.0018696676	-0.338101
C	-3.7366576999	-5.046621855	 0.0101602851	 0.254131
N	-4.7579010161	-5.5873299844	 0.0167808275	-0.303504
H	 0.6674407488	 1.9156787654	 0.0064321314	 0.29044
H	 0.5808304763	-0.2443862854	-0.8886555666	 0.104615
H	 0.5978889945	-0.2542056895	 0.8784720071	 0.10463
H	-1.916643106	-0.2456184829	 0.891434201	 0.136716
H	-1.9335099385	-0.2359348415	-0.8529468684	 0.136699
H	-3.2051174576	-2.4994603479	 0.8914149208	 0.147208
H	-3.2214017143	-2.4902466777	-0.8539908488	 0.147211
H	-1.8825443559	-4.6497006447	-0.8788201906	 0.167758
H	-1.8662184768	-4.6589482058	 0.8684194033	 0.16775
