18
gdb 51489	4.17661	0.98703	0.87315	3.5694	78.06	-0.2419	-0.0206	0.2214	1310.8613	0.148152	-401.932166	-401.924115	-401.923171	-401.965881	30.078	
O	-0.1231718009	-0.0686165284	-0.350118566	-0.243463
C	 0.0241200056	 1.0942260361	-0.069408223	 0.150664
C	 1.33009959	 1.8433296739	-0.1680183002	-0.271281
C	 1.3123520975	 2.9610782405	-1.2416682987	-0.053251
C	 0.2755382154	 4.0558914602	-1.0238189833	-0.092923
C	 0.8174303279	 5.2747240444	-0.9802769129	-0.052926
C	 2.3020592638	 5.1956227314	-1.1095170657	-0.085988
N	 2.9264043018	 4.4335731692	 0.0124084313	-0.329013
C	 2.624214629	 3.7528464519	-1.2636305345	-0.064668
H	-0.8377063103	 1.7016670162	 0.2924535578	 0.0726
H	 1.5442277547	 2.3179220484	 0.7974580325	 0.138465
H	 2.1196220338	 1.1201994705	-0.3933795728	 0.114035
H	 1.1553593811	 2.48660951	-2.2205072916	 0.09528
H	-0.7805489991	 3.8421750552	-0.906133804	 0.104018
H	 0.2780547074	 6.2039258751	-0.8421475415	 0.10287
H	 2.8750338974	 5.9832931387	-1.5863861668	 0.093101
H	 3.9237168422	 4.6404778365	 0.0344901929	 0.230631
H	 3.4476233925	 3.4027195303	-1.8766537536	 0.091849
