17
gdb 85480	3.18886	1.21201	0.97278	3.918	73.97	-0.2636	0.0078	0.2715	1196.1349	0.135008	-421.84628	-421.837712	-421.836768	-421.879565	32.116	
C	 0.1884728367	 1.633049673	-0.1890265427	-0.399549
C	 0.0836866938	 0.1341769461	 0.0514301051	 0.108629
O	 0.5832434246	-0.5827543539	-1.0963695002	-0.222735
C	 1.8392461158	-1.0673571592	-0.8889756687	 0.420877
O	 2.455933975	-1.6361443064	-1.7401789654	-0.331372
C	 2.2634601239	-0.7591463852	 0.5420504137	-0.371272
C	 0.9327473756	-0.42122711	 1.2389994871	-0.215855
C	 1.034107733	 0.4540066075	 2.3938382032	 0.316687
C	 1.1270920156	 1.1717203337	 3.3534930596	-0.440045
H	 1.2312360849	 1.9523919404	-0.2798008073	 0.12666
H	-0.3317807905	 1.8926863219	-1.1143230749	 0.136014
H	-0.2655407851	 2.182173425	 0.6392597641	 0.137263
H	-0.9643838565	-0.1553122157	 0.161554657	 0.107356
H	 2.7958277063	-1.6048704563	 0.9771380752	 0.149421
H	 2.9456993899	 0.0966161734	 0.5333485188	 0.150482
H	 0.4673365429	-1.3635115918	 1.5530415589	 0.124133
H	 1.2081625341	 1.8043284174	 4.2028567366	 0.203305
