22
gdb 16335	2.83015	1.77524	1.36458	0.3219	81.82	-0.2414	0.0809	0.3224	1038.1659	0.200166	-313.053658	-313.044963	-313.044019	-313.086526	33.394	
C	 0.1819701921	 1.5137107737	-0.2201036107	-0.373455
C	-0.0996521651	 0.0311637365	 0.0643836886	-0.29513
C	 0.6443945874	-0.5066400453	 1.2581299154	 0.388587
C	 2.0658661795	-1.0005977799	 1.167625101	-0.329718
C	 0.9939096358	-1.9540815491	 1.6200432346	-0.113062
C	 0.6614712757	-1.6989823661	 3.0930911936	-0.246283
C	 0.2695382141	-0.2240246428	 2.7318915392	-0.024203
C	 0.9438000468	 0.921222925	 3.4794742242	-0.411343
H	 1.2496251174	 1.6838872874	-0.3931441624	 0.117109
H	-0.3635841097	 1.8566110437	-1.1050647728	 0.108233
H	-0.1219159482	 2.1451553154	 0.6212801451	 0.118197
H	-1.1790412887	-0.1109099874	 0.2132697192	 0.091284
H	 0.166500315	-0.564458985	-0.818486977	 0.092916
H	 2.4288643444	-1.1545511993	 0.1555194369	 0.104412
H	 2.8347396637	-0.668381325	 1.8618536411	 0.099932
H	 0.7691833611	-2.8608936032	 1.0700294186	 0.079065
H	-0.1846632583	-2.2811368272	 3.4651874479	 0.097695
H	 1.4974352696	-1.8172389901	 3.7925070092	 0.089476
H	-0.8180293804	-0.1115237734	 2.8074419936	 0.066996
H	 2.0351603686	 0.8581550157	 3.417427657	 0.113763
H	 0.6441050436	 1.8946177925	 3.0762242252	 0.114409
H	 0.6733121756	 0.9051169139	 4.5415066624	 0.11112
