23
gdb 107818	3.09253	1.39896	1.21293	0.2308	87.89	-0.248	0.0858	0.3338	1153.5005	0.208104	-351.147864	-351.139769	-351.138825	-351.180088	33.218	
C	-0.1598920382	 1.5345270044	 0.0062611835	-0.386004
C	 0.0910483675	 0.0219076271	 0.0118248082	-0.282109
C	 0.7897097163	-0.4994340719	-1.2347606421	 0.359802
C	-0.0285545381	-0.4528037152	-2.5769806712	-0.276395
C	 0.3660487644	-1.906821027	-2.8265915318	-0.06694
C	 1.8508232892	-2.1169445898	-2.5707493204	-0.034658
C	 2.7806027419	-0.9042744417	-2.5984181177	-0.245675
C	 2.2194614346	 0.0191625669	-1.4833811276	-0.246955
C	 0.9000795056	-2.0475599899	-1.4119032448	-0.130571
H	 0.7776855957	 2.0986152375	-0.021251177	 0.118075
H	-0.7528365362	 1.8345610771	-0.8646186885	 0.118021
H	-0.7065970533	 1.8441963138	 0.9022677896	 0.11025
H	 0.6901350391	-0.2464758393	 0.8932339961	 0.09052
H	-0.8669419528	-0.5023656274	 0.1248770886	 0.092457
H	-1.1012394953	-0.358275658	-2.3833662301	 0.094302
H	 0.2624103386	 0.2988458018	-3.3207295925	 0.083324
H	-0.2002281818	-2.6257410917	-3.4081326636	 0.075996
H	 2.2330953109	-3.0872762787	-2.8694958861	 0.077737
H	 3.8154424399	-1.1967897758	-2.3954587001	 0.095046
H	 2.7780066952	-0.4116680705	-3.5771516518	 0.097242
H	 2.2383124388	 1.0762045163	-1.7674583765	 0.092676
H	 2.8121420524	-0.0858052458	-0.5658983434	 0.089364
H	 0.7362629454	-2.8113713223	-0.662274861	 0.074494
