20
gdb 6282	3.757	1.0481	1.00503	4.1838	76.69	-0.2283	0.0383	0.2665	1269.9584	0.175768	-345.190422	-345.180685	-345.179741	-345.22519	34.49	
C	 0.1060471759	 1.604748356	 0.0162696492	-0.383001
C	 0.0852016286	 0.0657303725	 0.0419184494	-0.154437
C	 0.6684240187	-0.5498218688	-1.2566174195	-0.138048
N	-0.1053226855	-0.1794967014	-2.4334307752	-0.0516
C	 0.6876395368	-0.243128499	-3.653551461	-0.321905
C	-1.333831469	-0.9499088958	-2.5663770008	-0.32591
C	 0.8201236584	-0.4536994023	 1.1985633996	 0.267953
N	 1.4143466221	-0.8625881208	 2.1018774758	-0.32451
H	 1.1350369761	 1.9757009595	-0.0074577809	 0.131279
H	-0.4080517273	 1.9475376628	-0.8833904948	 0.140187
H	-0.3869366146	 2.0208255065	 0.8979688473	 0.131237
H	-0.9525396368	-0.27097142	 0.1539511259	 0.126874
H	 1.6875873838	-0.1693878947	-1.3790032536	 0.115394
H	 0.7494514616	-1.6454214344	-1.1354855249	 0.099021
H	 1.0349243614	-1.2650669686	-3.8962573107	 0.098118
H	 0.0896992313	 0.1155441278	-4.4970983772	 0.121896
H	 1.5662686978	 0.4020240244	-3.5621525953	 0.122805
H	-1.9620112953	-0.8365768394	-1.6784740793	 0.120576
H	-1.9062479423	-0.5819000324	-3.422896416	 0.124568
H	-1.1484298517	-2.0305983018	-2.7157162581	 0.099503
