14
gdb 34902	1.99385	1.95658	1.21532	4.9588	71.2	-0.2702	0.0064	0.2766	1009.9032	0.099565	-399.477508	-399.469658	-399.468714	-399.510209	29.	
C	-0.2133035728	-1.256143234	 0.0099403431	-0.431428
C	-0.126342986	-0.0581916214	 0.0248991307	 0.35679
C	-0.0155400639	 1.3821029109	 0.0398121351	-0.252553
C	-0.2592308011	 2.1157889212	 1.378474179	 0.025978
O	 0.7574455501	 1.7087270174	 2.288374322	-0.214287
C	 1.0711467598	 2.7380293908	 1.359095875	 0.020871
C	 1.4367360482	 2.0601481297	 0.0208074213	-0.221907
C	 2.6094124244	 1.2038408703	 0.0134646213	 0.312416
N	 3.5514677294	 0.5349244884	-0.0003438103	-0.323126
H	-0.2800154576	-2.3162334122	 0.0049342551	 0.208519
H	-0.6120968927	 1.8292365102	-0.7610962035	 0.123266
H	-1.2033127395	 2.4522833131	 1.7880674751	 0.128693
H	 1.4352451864	 3.6830482484	 1.7416353231	 0.130696
H	 1.4998964851	 2.7780678372	-0.800508287	 0.136073
