15
gdb 29328	3.33962	1.28374	0.93058	5.1206	78.89	-0.1985	-0.0064	0.1921	1175.2414	0.114818	-413.034512	-413.025685	-413.024741	-413.067854	32.327	
N	 0.087404307	 1.4299623089	 0.0836224711	-0.621337
C	 0.0228915138	 0.0208263506	 0.0041510043	 0.201912
C	-1.0748767122	-0.8191142002	 0.0185977632	-0.148439
N	-0.6351518173	-2.110348607	-0.0004471215	-0.345586
C	 0.7532514456	-2.1238450051	-0.0409835742	 0.170228
C	 1.5118884106	-3.3037392871	-0.058480102	 0.185963
N	 2.1597705419	-4.2686427476	-0.0676640095	-0.370088
C	 1.1834589018	-0.7987904044	-0.0316987052	 0.1516
N	 2.4818661113	-0.3072702755	-0.1046369277	-0.625357
H	 0.5374577185	 1.8298438609	-0.7344512925	 0.248811
H	-0.829488539	 1.8496472802	 0.1749387205	 0.241406
H	-2.1275143638	-0.5864930153	 0.0484557175	 0.123094
H	-1.2119294027	-2.9316346245	 0.0010706162	 0.274542
H	 3.19328367	-0.9892923497	 0.1235086947	 0.258523
H	 2.6005904244	 0.5372279158	 0.4426225951	 0.254727
