20
gdb 82205	2.38611	1.8133	1.34125	2.5743	77.04	-0.2264	0.0703	0.2967	1027.6472	0.171404	-403.103764	-403.095621	-403.094676	-403.135787	32.978	
C	 0.0527556684	 1.6131802081	-0.0102557348	-0.403737
C	 0.0661908661	 0.0810924904	 0.0014895399	-0.073763
C	 0.7652126255	-0.5832490887	-1.1878911914	-0.029535
C	 2.2228598001	-0.4269244713	-1.4243671473	-0.254366
N	 1.7227289215	-1.6136057339	-0.7175350201	-0.105083
C	 1.7165600587	-1.5620620409	 0.7427870657	-0.053387
C	 2.1673427404	-0.3345225883	 1.5248676822	-0.372517
C	 0.7066309492	-0.570103744	 1.2420918108	 0.392062
O	-0.1464354216	-0.8964288077	 2.2988279256	-0.467067
H	 1.0664080558	 2.0255381706	 0.0055506	 0.114643
H	-0.4485902029	 1.9963983388	-0.9046006751	 0.11962
H	-0.4830227922	 2.0055544308	 0.861287477	 0.108834
H	-0.9716310414	-0.2721058851	 0.006190641	 0.092728
H	 0.1345216878	-0.8721991103	-2.0252001643	 0.090946
H	 2.6234676938	-0.6340592969	-2.4132638204	 0.114709
H	 2.7808372495	 0.3262295684	-0.8783884873	 0.110213
H	 1.8347218864	-2.5275695078	 1.2206824835	 0.105754
H	 2.485556364	-0.5420932305	 2.5417947455	 0.114485
H	 2.7050874295	 0.4790807615	 1.0531159104	 0.112923
H	-0.2017005886	-0.1344967235	 2.8854165191	 0.282538
