17
gdb 42994	2.2702	1.66425	1.30434	3.1648	77.84	-0.2364	-0.0187	0.2177	1035.5548	0.136182	-384.674868	-384.666986	-384.666042	-384.707279	30.662	
O	-0.1077865112	 0.3958406838	-1.1504754132	-0.323673
C	-0.0660470033	 1.3384700793	-0.405900074	 0.415868
C	-1.2121027168	 1.9963804659	 0.2767657203	-0.14297
C	-1.020508181	 2.2995241993	 1.7623030918	-0.292617
C	-0.7397444324	 3.3623828138	 0.756529145	-0.032573
C	 0.7157259326	 3.5597360666	 0.3364222223	-0.244774
C	 1.2358216236	 2.1541481397	-0.0849641566	-0.286951
C	 2.0407244472	 1.477413655	 0.9213640212	 0.350554
C	 2.696124813	 0.9173234489	 1.7600371634	-0.491002
H	-2.2082156074	 1.7973592673	-0.096592736	 0.108862
H	-1.9385421343	 2.3742202456	 2.3340890409	 0.126471
H	-0.1973792914	 1.8276901572	 2.2867747445	 0.14519
H	-1.4083384377	 4.2131477978	 0.6937768618	 0.098613
H	 0.7580364912	 4.2297747533	-0.5277678815	 0.113323
H	 1.3244327518	 4.0006135038	 1.129749978	 0.120609
H	 1.8077556419	 2.2067470788	-1.0163178494	 0.133229
H	 3.2824938141	 0.416109244	 2.4898757113	 0.201842
