17
gdb 12383	3.01143	2.17827	1.3456	1.7583	65.26	-0.2646	0.0126	0.2772	907.0988	0.143706	-401.014404	-401.006931	-401.005987	-401.046273	27.886	
C	-0.0076144401	 1.5633201914	-0.0429432018	-0.39698
C	 0.083806533	 0.039319098	 0.0184413519	-0.065651
C	 0.7480819001	-0.5567988551	-1.2301077804	-0.107118
O	 0.8808444389	-1.9654947901	-1.0894162548	-0.219982
C	 1.7018549965	-2.262406298	-0.0138460527	 0.008148
O	 1.205542839	-1.7685994067	 1.2330032445	-0.255402
C	 0.7809102921	-0.464183269	 1.271019929	 0.378742
N	 0.8753493942	 0.2336995011	 2.3208974493	-0.502967
H	 0.9880270764	 2.0145779574	-0.0950086336	 0.122939
H	-0.5748310663	 1.8757526105	-0.9258362978	 0.10831
H	-0.4974829997	 1.9545547672	 0.8491914346	 0.149453
H	-0.9290916468	-0.3858211899	 0.0593487498	 0.115599
H	 0.1385560953	-0.3824299355	-2.119623903	 0.120661
H	 1.7385159675	-0.1001330983	-1.3949940327	 0.098918
H	 1.7466582654	-3.3474968324	 0.0894723942	 0.129377
H	 2.7131933791	-1.8478079526	-0.1668237315	 0.094592
H	 1.3414090052	-0.3031193378	 3.0555408249	 0.221361
