12
gdb 47968	3.43539	0.81206	0.68719	2.4465	72.97	-0.2891	-0.0925	0.1966	1515.5863	0.074605	-435.431467	-435.422749	-435.421805	-435.466421	29.031	
O	-0.8777624971	 1.1352854084	-0.297743323	-0.214446
C	 0.1819013156	 0.8904008661	 0.226726959	 0.022681
C	 1.348123681	 1.7380857211	 0.1183620483	 0.094086
C	 2.3326236139	 2.4315329285	 0.041731177	 0.046581
C	 3.5068894977	 3.2537753189	-0.0635409111	 0.121716
C	 3.8638236926	 3.8825998303	-1.368902017	-0.192507
O	 3.3036320384	 4.6513003647	-0.3229180843	-0.226306
C	 4.5789871391	 2.9538411677	 0.8715906708	 0.233862
N	 5.4324990506	 2.7022621628	 1.6077866288	-0.314876
H	 0.3403861487	-0.018167078	 0.8397374126	 0.118683
H	 4.916201912	 4.0589298879	-1.5812080854	 0.156153
H	 3.2139404275	 3.6881337614	-2.2189794556	 0.154374
