18
gdb 20097	5.09076	1.52056	1.38366	1.7322	72.02	-0.2392	0.0873	0.3265	952.2702	0.154131	-347.755505	-347.748312	-347.747368	-347.787036	27.982	
C	-0.3334656168	 1.2782060763	-0.2460107238	-0.266699
C	 1.0873361299	 1.1892682296	 0.2452719053	-0.262708
C	 0.284886277	-0.0728287658	 0.0079865823	-0.131687
C	-0.153707647	-0.8889543361	 1.1624405424	 0.442872
C	 0.4818181709	-2.1819762035	 1.714649828	-0.293729
C	-0.9308442929	-2.5930283221	 2.2604747694	-0.236755
C	-1.4802181189	-1.2830142636	 1.6838221888	-0.045216
O	-0.732298837	-0.2153052285	 2.2901880948	-0.290241
H	-1.0811786094	 1.6145971739	 0.4621663367	 0.128789
H	-0.5097128434	 1.5690652857	-1.2753699517	 0.108351
H	 1.8930105364	 1.4184337689	-0.4430905301	 0.110596
H	 1.275278536	 1.4692611485	 1.2755620196	 0.127123
H	 0.5590199036	-0.660399567	-0.8636771148	 0.084548
H	 0.8381810644	-2.8541753293	 0.9299731586	 0.103664
H	 1.2739673952	-2.0279612015	 2.451090271	 0.107479
H	-1.3297421739	-3.4833024137	 1.7684532181	 0.10414
H	-1.0302304179	-2.6986426803	 3.3433121258	 0.110539
H	-2.4801401661	-1.0435519617	 1.3393266897	 0.098935
