18
gdb 91879	2.38712	1.71345	1.09655	3.9183	73.83	-0.2651	-0.0002	0.265	1109.3425	0.1484	-439.08617	-439.07818	-439.077236	-439.118827	30.596	
C	 0.0636772631	 1.5404775363	 0.0716517512	-0.402418
C	 0.0067157235	 0.0267295876	-0.0427425186	 0.119168
C	 0.7311691696	-0.5186100879	-1.2754281315	-0.238971
C	 0.9314487013	-2.0209747545	-1.183609062	 0.020237
O	 2.1044372569	-2.4337664467	-0.4894159527	-0.238361
C	 0.8339153842	-2.6745056222	 0.1354395646	-0.02717
C	 0.5709245526	-1.8467632888	 1.3491911768	 0.391834
N	 0.4227643574	-2.4023288856	 2.4767171441	-0.512672
O	 0.5723091374	-0.4934896195	 1.1828357546	-0.265373
H	 1.1017881036	 1.876957695	 0.1497684297	 0.134136
H	-0.3877753046	 2.0045691985	-0.8102599813	 0.121404
H	-0.4767262164	 1.8790101316	 0.9590565214	 0.130752
H	-1.0431655632	-0.2993592199	-0.0801095172	 0.086357
H	 0.1456057834	-0.2674786866	-2.1659988174	 0.109914
H	 1.7124400942	-0.0424866923	-1.3794211145	 0.126828
H	 0.705209372	-2.6133530927	-2.0693385227	 0.101862
H	 0.5550324996	-3.719337304	 0.2343782841	 0.119639
H	 0.2634395655	-1.6926674683	 3.1959631513	 0.222835
