16
gdb 11654	2.95902	2.00386	1.51627	2.3464	65.81	-0.2499	-0.041	0.2089	874.0185	0.12848	-383.676038	-383.668373	-383.667429	-383.708591	27.936	
C	-0.0885986849	 1.6431476347	 0.0722888321	-0.440013
C	 0.0406137884	 0.1321717703	 0.0889089607	 0.012479
C	 1.1227011865	-0.6636534076	-0.6968505854	 0.028696
C	 2.2249512611	-0.184802819	 0.2762762451	-0.265351
C	 0.9821268613	-0.6397270165	 1.0860834532	 0.310126
O	 0.8713638378	-1.818938345	 0.2022409238	-0.340437
C	 0.8028620021	-0.8331434477	 2.55510191	 0.030649
O	 1.0552263011	 0.0194821734	 3.3685214475	-0.250635
H	 0.8713430565	 2.1614946885	 0.1227882228	 0.127304
H	-0.5962560538	 1.9660417873	-0.8431129585	 0.127048
H	-0.6933390742	 1.9805638116	 0.9200023064	 0.138131
H	-0.9309151958	-0.365018182	 0.0251616867	 0.092555
H	 1.1872753951	-0.8753865495	-1.7642281275	 0.10075
H	 3.0825385945	-0.8522825959	 0.3609496437	 0.117132
H	 2.5035424436	 0.8682722357	 0.2937735658	 0.11354
H	 0.3936152807	-1.8281731482	 2.8376342135	 0.098026
