19
gdb 2342	5.96095	1.31586	1.18791	1.0291	68.88	-0.248	0.0899	0.3379	1062.8097	0.170466	-310.895432	-310.886982	-310.886038	-310.92845	29.904	
C	-0.23386216	 1.3482320776	-0.0444765649	-0.223771
O	-0.2168577208	-0.0517881053	-0.1658665606	-0.229293
C	 0.8266002709	-0.5150098321	-1.0019002856	-0.072692
C	 0.793730332	-2.0193093129	-1.017307724	-0.008011
C	-0.1336475693	-2.7600385953	-1.950703218	-0.283401
C	 1.3587436163	-2.8398233528	-2.1575505875	 0.000896
C	 2.0200837313	-2.2358378289	-3.3789718932	-0.406353
H	 0.7039592114	 1.7358112379	 0.386381565	 0.099846
H	-0.3897557989	 1.8443323572	-1.0166459951	 0.099102
H	-1.0609597165	 1.6109957623	 0.6199296839	 0.124685
H	 0.7066939607	-0.1042827076	-2.017754453	 0.079607
H	 1.7988732986	-0.1522010617	-0.623189149	 0.081538
H	 0.9142347589	-2.4486075719	-0.0264375358	 0.087522
H	-0.6661227174	-3.6282808649	-1.5786233849	 0.109011
H	-0.7021994021	-2.1609162768	-2.6560085723	 0.108751
H	 1.8186988148	-3.7726692406	-1.8404404388	 0.082981
H	 1.5077020604	-1.3324009723	-3.7213380686	 0.116668
H	 3.0658008796	-1.9724460587	-3.1832446014	 0.115471
H	 2.0094931101	-2.9486843732	-4.2110201364	 0.117443
