10
gdb 762	9.42742	3.52572	2.57455	3.9291	44.15	-0.2186	-0.0048	0.2138	467.0228	0.074853	-301.330754	-301.325742	-301.324798	-301.358946	18.119	
N	 0.0205461359	 1.4302438346	 0.1751407287	-0.604998
C	-0.0039181011	 0.0376797321	 0.0396419318	 0.132115
C	-1.0560770049	-0.8268183682	-0.0044212169	 0.005329
O	-0.6112354046	-2.1028091456	-0.0496700463	-0.163972
N	 0.7676624486	-2.1005316997	-0.0442357417	-0.128587
C	 1.1205780839	-0.8397956556	 0.01410564	-0.005548
H	 0.7852081253	 1.8606469037	-0.3284415285	 0.251629
H	-0.8477373791	 1.8715341174	-0.0973096956	 0.249945
H	-2.126337475	-0.6977415578	-0.0044378934	 0.138276
H	 2.1706463011	-0.5824338808	 0.0362408918	 0.125811
