17
gdb 127079	2.60804	1.5399	0.9885	4.2853	74.92	-0.2058	-0.0078	0.198	1165.301	0.135001	-451.292317	-451.282921	-451.281976	-451.326648	33.27	
C	-0.1363337817	 1.5980541001	 0.3255418554	-0.34226
N	-0.1433485154	 0.1434180382	 0.2941743307	-0.166972
C	 0.9407284509	-0.5213804776	 1.0029722918	-0.358806
C	-1.2926944701	-0.5139576477	 0.0064947534	 0.515932
C	-1.6387283409	-1.8642561698	-0.0444415504	 0.056673
N	-0.8464417422	-2.9994748148	 0.2269155727	-0.599928
N	-2.9441752975	-1.9047204029	-0.4456045735	-0.12288
N	-3.4396498788	-0.7774290697	-0.6416484862	-0.06229
O	-2.3478016489	 0.2058524679	-0.3443452947	-0.25924
H	 0.878690354	 1.9470552463	 0.1142038714	 0.128395
H	-0.8128645421	 1.99369216	-0.4312156651	 0.161662
H	-0.4400087452	 1.9923201206	 1.3062777093	 0.127326
H	 0.9196313051	-0.282206337	 2.0763094978	 0.120162
H	 0.852316569	-1.6000891099	 0.8796464426	 0.180443
H	 1.9000016816	-0.1831343956	 0.5970638743	 0.125758
H	-0.6775578119	-3.5496771006	-0.6097132255	 0.247743
H	-1.2927574662	-3.6095801774	 0.9041685161	 0.248284
