19
gdb 1721	4.05463	2.09787	1.87775	1.566	66.91	-0.2393	0.0785	0.3178	803.5901	0.1707	-310.914024	-310.906011	-310.905067	-310.946115	29.479	
C	-0.0115036962	 1.5833809968	-0.0839072835	-0.39009
C	-0.200899536	 0.0747566649	 0.1018593856	-0.209674
C	 0.6645593265	-0.5305221323	 1.2111688726	 0.452665
C	 0.3450967859	 0.0116880447	 2.5978288026	-0.436538
C	 0.8278074568	-2.0724842861	 1.1233096633	-0.335872
C	 2.2927386949	-1.7634930436	 0.7651645558	-0.062515
O	 2.08345627	-0.3456745296	 0.9054757159	-0.323141
H	 1.0494775837	 1.8157430567	-0.2132885945	 0.137221
H	-0.5486446041	 1.9353251949	-0.9697300346	 0.109356
H	-0.3828789126	 2.1536341665	 0.7729396199	 0.114291
H	-1.2532587225	-0.1594575585	 0.311425727	 0.091167
H	 0.0513192008	-0.4357167387	-0.8354197487	 0.09296
H	-0.7028682047	-0.177864931	 2.8561394927	 0.111901
H	 0.9787130646	-0.4671719011	 3.349706728	 0.114906
H	 0.5220851434	 1.0896894607	 2.647419169	 0.126959
H	 0.6816814219	-2.6028055515	 2.0662242053	 0.104252
H	 0.2386302351	-2.5584952563	 0.3432346556	 0.10413
H	 3.0476018098	-2.1374460599	 1.4676821499	 0.099449
H	 2.5991224728	-2.0355426568	-0.2528790121	 0.098574
