20
gdb 118366	2.09369	1.29679	0.94022	4.0352	76.88	-0.2346	0.029	0.2636	1310.5969	0.169887	-440.28094	-440.271143	-440.270198	-440.316534	35.087	
O	-0.0695394336	 1.5317748473	-0.0810982889	-0.406384
C	 0.0593563714	 0.122032909	-0.159646061	-0.064797
C	-1.3365001525	-0.4973092521	-0.1208230746	-0.177112
N	-2.1679981932	-0.1852697452	-1.2759385128	-0.051137
C	-2.1368702204	-1.0091345446	-2.3693664157	 0.146344
O	-2.6552658279	-0.7987043791	-3.4434739422	-0.335939
C	-2.8343628428	 1.0912671394	-1.3290400157	 0.054877
C	-4.2628340443	 1.1555889798	-1.7805602708	-0.257744
C	-3.9288624605	 1.375668108	-0.327550631	-0.281125
H	 0.7961500423	 1.9254705543	-0.2229076362	 0.292596
H	 0.565966065	-0.1850413128	-1.0875991889	 0.096481
H	 0.6412737727	-0.2762484427	 0.6880002259	 0.090328
H	-1.2260551587	-1.5850191024	-0.050251372	 0.11478
H	-1.8513774601	-0.1563278213	 0.7826573476	 0.124435
H	-1.576721474	-1.9427014225	-2.150792149	 0.061714
H	-2.1855183	 1.9215786252	-1.5870899179	 0.110294
H	-4.5532621792	 2.0042067646	-2.3888746711	 0.118088
H	-4.7394581428	 0.2245502666	-2.0569298345	 0.134391
H	-4.1916296575	 0.5848340942	 0.3667556945	 0.1133
H	-3.9852412239	 2.3758070541	 0.0867416144	 0.116608
