24
gdb 122169	2.74898	0.91219	0.80098	1.974	87.68	-0.2208	0.0796	0.3004	1594.5491	0.214434	-405.516185	-405.505115	-405.504171	-405.552706	39.88	
C	-0.0129878427	 1.3770959814	 0.3584324662	-0.385216
C	-0.0315062302	-0.0644737046	-0.1207614523	-0.022753
O	-1.3182311758	-0.6004273919	 0.11006361	-0.249343
C	-1.4481729971	-1.9458273625	-0.3067197774	-0.127226
C	-2.8839414946	-2.3790041055	-0.0989127118	 0.32964
C	-3.8909042458	-1.6190894574	-0.9398572244	-0.448839
C	-3.1304054166	-3.8087608745	 0.2630186857	-0.302597
N	-3.3641760019	-2.7491938537	 1.2356152324	-0.102974
C	-2.4863273185	-2.6643760348	 2.3931159201	-0.31137
H	 0.9725227449	 1.8222682572	 0.1922658541	 0.114391
H	-0.757851093	 1.9693948506	-0.1805310212	 0.127351
H	-0.2425400368	 1.4289506243	 1.4264959644	 0.126795
H	 0.2149423187	-0.1194444591	-1.1950049653	 0.084981
H	 0.7298371787	-0.6596140575	 0.4122996925	 0.084076
H	-1.1914939447	-2.0404498846	-1.3762772334	 0.087683
H	-0.746825963	-2.5879020453	 0.2470825173	 0.083365
H	-3.7106579957	-1.7831276607	-2.0088043709	 0.105514
H	-4.9056764612	-1.9446000447	-0.7012025089	 0.121129
H	-3.8142446453	-0.5458909387	-0.7442011252	 0.13256
H	-4.0118633894	-4.3255807242	-0.1100207117	 0.109144
H	-2.2592453827	-4.449317131	 0.4056033524	 0.098516
H	-1.4778541835	-3.0793695525	 2.2382788375	 0.094542
H	-2.3818261429	-1.616520015	 2.6880158041	 0.132299
H	-2.9466482708	-3.2148323555	 3.2201910556	 0.118332
