18
gdb 16447	4.159	1.93125	1.71867	1.7192	70.89	-0.2442	0.0777	0.3219	838.0898	0.153903	-347.751859	-347.744871	-347.743927	-347.782614	27.854	
C	-0.0958138165	 1.5309122801	 0.0641609064	-0.505083
C	 0.1568796475	 0.0598925235	 0.0045251355	 0.412486
O	-0.7591434887	-0.8081441862	 0.690732152	-0.278633
C	 0.6405791507	-0.9287719773	 0.9913743251	-0.055424
C	 1.2926659619	-1.7954388684	-0.1107629362	-0.04966
C	 0.4020404405	-2.8970225464	-0.7588756948	-0.2222
C	-0.1147863539	-1.8622358232	-1.8089972114	-0.227183
C	 0.7763588044	-0.7604689682	-1.163476915	-0.095996
H	 0.7971429109	 2.0910942635	-0.2316734237	 0.123201
H	-0.9089316339	 1.8131188716	-0.6149525621	 0.129979
H	-0.3798230355	 1.8295329605	 1.0769705901	 0.132799
H	 0.9187997678	-0.8262650384	 2.0357566635	 0.094867
H	 2.3570590286	-1.9892387125	 0.0232978874	 0.068653
H	 0.9811509705	-3.7134225246	-1.1968575073	 0.094449
H	-0.3624915376	-3.3165338587	-0.1027869118	 0.109364
H	 0.1731931505	-2.0993323845	-2.835967757	 0.093661
H	-1.1876911269	-1.6644328541	-1.7777635706	 0.108016
H	 1.4669140595	-0.2042448966	-1.7984563403	 0.066703
