15
gdb 49453	3.35783	1.28618	1.13992	2.3721	71.48	-0.2428	-0.0375	0.2054	1061.91	0.112185	-420.613319	-420.605953	-420.605009	-420.64563	27.771	
O	 0.0691288723	-0.1197888126	-0.4642135079	-0.249362
C	 0.0073505212	 1.0419407075	-0.1451309681	 0.13096
C	 1.226367775	 1.9287909565	-0.0598646384	-0.076435
C	 1.2096302047	 3.3271731869	-0.7806008935	-0.20309
C	 0.0970373641	 4.0607410118	-0.0479443187	-0.093237
C	 0.2585181324	 3.7149947884	 1.2415976044	-0.093201
C	 1.4622664105	 2.7856180083	 1.2383814689	-0.203105
C	 2.3584528928	 3.6660677784	 0.2643779483	 0.428788
O	 3.3902282386	 4.2411383546	 0.2894922793	-0.287359
H	-0.9598328599	 1.5195648789	 0.1036557314	 0.092199
H	 2.1058996901	 1.336985239	-0.3286159731	 0.11196
H	 1.3221820096	 3.4299815901	-1.8567010283	 0.099952
H	-0.5705155229	 4.7882249927	-0.4858526725	 0.120985
H	-0.2441044577	 4.0891266751	 2.1213830153	 0.120987
H	 1.8255501293	 2.3510578046	 2.1659591429	 0.099957
