17
gdb 38784	2.92561	2.0388	1.67406	3.1866	69.58	-0.2268	0.0751	0.302	853.5893	0.138369	-421.768755	-421.762594	-421.761649	-421.798956	26.061	
C	 0.0320581265	 1.5093690412	 0.1216826481	-0.257936
C	 1.3858861798	 2.1673719332	-0.0628599583	 0.042094
O	 2.4525578279	 1.7488642418	 0.7922258236	-0.248714
C	 2.5180375312	 1.3884554583	-0.5918767849	 0.047619
C	 2.3138526441	-0.041949282	-1.0024654415	-0.089271
C	 1.7532059219	-1.1437065983	-0.1288335829	 0.094534
O	 0.9211098238	-0.6604201934	 0.9141727915	-0.287016
C	 0.0607862799	-0.0069652012	-0.0685310383	 0.096613
C	 0.9040175735	-0.5678870872	-1.2255626498	-0.186973
H	-0.3595270087	 1.7353001917	 1.1206243449	 0.124966
H	-0.6700433408	 1.9430795256	-0.6027564086	 0.104685
H	 1.358916328	 3.2425256454	-0.2440101797	 0.089177
H	 3.2968616226	 1.9131010443	-1.1455715873	 0.086022
H	 3.0338330469	-0.4150709696	-1.7256900699	 0.090202
H	 2.2318739765	-2.1062759323	 0.0072802502	 0.109106
H	-0.9468996192	-0.4308146514	-0.0164506561	 0.087306
H	 0.5353317461	-0.9761433462	-2.1563622709	 0.097587
