18
gdb 59161	2.85599	1.18818	1.0939	2.9587	72.59	-0.246	-0.0262	0.2198	1184.3591	0.146127	-439.048343	-439.039581	-439.038637	-439.082077	32.804	
C	 0.473584091	 0.4143890171	-1.402275084	-0.409472
C	 0.013041886	 0.0890893331	 0.0189537686	 0.09508
O	 0.1106189875	 1.2162429491	 0.8839938479	-0.424755
C	-1.4084384609	-0.462886974	 0.0077564967	-0.018401
C	-1.7736632791	-1.9102648488	 0.1149013009	-0.186947
N	-2.154568798	-0.8813042637	 1.1917634662	-0.140545
C	-1.1606904864	-1.5052832395	 2.1411437514	-0.294916
C	-0.8695631203	-2.6021157535	 1.0989763107	 0.401865
O	-0.3422825396	-3.6757479697	 1.1302979317	-0.304703
H	 1.484787758	 0.8275725917	-1.3811065274	 0.132897
H	 0.4729925999	-0.4818984961	-2.0308266553	 0.129186
H	-0.1898284193	 1.1537576116	-1.8674546019	 0.111378
H	 0.7043389139	-0.6412237787	 0.4479422805	 0.107871
H	-0.5341623268	 1.8737290299	 0.5988710999	 0.284396
H	-2.0646732297	 0.0854615695	-0.6707263746	 0.102424
H	-2.4900647755	-2.3841022106	-0.5473356033	 0.12081
H	-0.36469312	-0.8368298037	 2.4727403098	 0.153147
H	-1.6810384606	-1.9230017036	 3.0072217222	 0.140685
