21
gdb 70568	2.47993	1.8039	1.31171	1.3806	81.6	-0.2346	0.0875	0.3222	1051.3468	0.184178	-387.069099	-387.061335	-387.060391	-387.100679	32.232	
C	-0.1017364263	 1.4817745638	 0.018057487	-0.475201
C	-0.0337703213	-0.0323048446	 0.0537417729	 0.352547
C	-0.2093337545	-0.7030583077	 1.4001073518	-0.345696
C	 1.146891948	-0.692002512	 0.7394806046	-0.066802
C	 1.6543352018	-1.9856955558	 0.1313852351	-0.101601
O	 0.5905390855	-2.7626605604	-0.4158601619	-0.256322
C	-0.0659046772	-2.1199716406	-1.4707116212	 0.087984
C	-1.5254113271	-1.8184072516	-1.280076924	-0.328763
C	-0.5053008448	-0.7003783456	-1.220524881	-0.108166
H	 0.474252302	 1.8867006577	-0.8226489058	 0.113806
H	-1.1364546875	 1.8275360021	-0.0912321449	 0.118803
H	 0.3012844077	 1.917443773	 0.9377431665	 0.111062
H	-0.3708999245	-0.0556038753	 2.255578855	 0.103962
H	-0.7247020139	-1.6546396595	 1.452996922	 0.123159
H	 1.9195948555	-0.0497204284	 1.1536516204	 0.07763
H	 2.410060609	-1.7732577911	-0.6423459762	 0.08807
H	 2.1199017729	-2.6231911917	 0.8901455615	 0.109
H	 0.2973327197	-2.4057570835	-2.4573084673	 0.083272
H	-2.1765564471	-1.8666482693	-2.1460779079	 0.109368
H	-1.9764197346	-2.1536376659	-0.3532735806	 0.123031
H	-0.4849829732	-0.0379812036	-2.0811868561	 0.08086
