20
gdb 101147	3.6522	0.99004	0.83601	3.0184	77.09	-0.2538	0.02	0.2738	1428.9901	0.170941	-440.309475	-440.299919	-440.298975	-440.344762	34.009	
C	-0.0926332444	 1.6422150069	-0.30517476	-0.388237
C	-0.2840482583	 0.1339660953	-0.4702519357	-0.175981
C	 0.9895023744	-0.552040585	-0.9992662897	 0.053045
O	 2.0820980852	-0.3347778637	-0.1345195945	-0.44094
C	 0.7732210251	-2.0282606142	-1.1854811799	 0.401663
N	 1.4121661719	-2.9211061618	-0.5463612141	-0.33991
C	 0.9025235163	-4.2196447109	-1.009856671	-0.187895
C	-0.1865231039	-3.8536430451	-2.0540446477	-0.114462
O	-0.16666365	-2.4045837322	-2.083891108	-0.257127
H	 0.7446320003	 1.8487546325	 0.3659442238	 0.140068
H	 0.1198267562	 2.1211825587	-1.2677167028	 0.11204
H	-0.9917085317	 2.1080317597	 0.1089719269	 0.109197
H	-0.5385235245	-0.3221907117	 0.4942295989	 0.100296
H	-1.1083268874	-0.0798169842	-1.1597343404	 0.106916
H	 1.2223212182	-0.1253962568	-1.9889294882	 0.093522
H	 2.3475211974	-1.2078239253	 0.1904952615	 0.293898
H	 1.716885677	-4.8097304025	-1.4426703019	 0.122304
H	 0.4995061957	-4.7892641604	-0.16634317	 0.121826
H	 0.0303836907	-4.2167421477	-3.0618792529	 0.125127
H	-1.1921289083	-4.1741782818	-1.7693360842	 0.12465
