19
gdb 109517	1.95217	1.48099	1.08719	3.9815	77.8	-0.2484	0.0308	0.2792	1209.2265	0.157515	-419.194244	-419.184177	-419.183233	-419.228925	36.391	
C	 0.3485424761	 1.1260286207	 0.3583182945	-0.244897
O	-0.339749941	 0.0703883598	-0.2991520225	-0.235133
C	 0.3982708043	-0.530310002	-1.2945383244	 0.124185
C	 1.3892331949	-1.6569310271	-0.9387588797	-0.272153
C	 1.570612595	-2.0404901501	 0.4273082699	 0.315594
N	 1.7294010456	-2.3499906504	 1.5318136789	-0.359265
C	 0.0573402412	-1.9366507257	-1.6617876903	 0.189848
C	-1.0508712852	-2.6510429147	-0.9146723318	-0.454335
N	 0.2502289851	-2.2383104417	-3.0625222434	-0.551177
H	 1.2490018938	 0.7599685075	 0.8660381239	 0.135637
H	 0.6311023675	 1.9162527382	-0.3517416493	 0.111708
H	-0.3405549093	 1.5374643967	 1.097765909	 0.137692
H	 0.7315299172	 0.1247593344	-2.1000507183	 0.105454
H	 2.2752571348	-1.7263213614	-1.5594604359	 0.135957
H	-1.1230804619	-2.3222733504	 0.1228040682	 0.155143
H	-2.0120215667	-2.4511166263	-1.4009454606	 0.117329
H	-0.8811106626	-3.7330714892	-0.9258659498	 0.12048
H	 0.3948576225	-3.2376125338	-3.1847463671	 0.233748
H	-0.5908821714	-2.0014108043	-3.5831728313	 0.234186
