16
gdb 35179	3.8252	1.22603	1.10655	4.155	74.4	-0.2873	-0.0051	0.2822	1103.5052	0.12487	-400.680259	-400.673047	-400.672103	-400.712129	27.937	
N	-0.1003283988	-1.1637685223	 0.0828043054	-0.327914
C	-0.0497978621	-0.0092743352	 0.0554298983	 0.313551
C	 0.008893225	 1.4338908627	-0.0133535072	-0.296602
O	 0.5955997217	 2.1045755347	 1.1321443834	-0.293902
C	 1.2945831731	 2.1359452092	-0.0833225032	 0.584396
C	 2.7480017743	 1.7407381384	-0.3569639915	-0.150778
C	 2.5029049628	 2.3036134801	-1.7933444022	-0.221466
C	 1.8330459941	 3.3503209261	-0.8469366111	-0.157037
C	 3.0984582562	 3.2077490062	 0.0638490633	-0.228134
H	-0.8911206841	 1.9051072887	-0.4032285757	 0.144696
H	 3.2552589078	 0.8204850451	-0.0745440867	 0.102739
H	 3.3956755653	 2.6524673342	-2.3153510744	 0.10809
H	 1.8466991267	 1.7285326742	-2.4505551983	 0.107231
H	 1.3025613233	 4.2608599907	-1.1207151492	 0.091704
H	 2.9798794959	 3.4606553933	 1.1186243343	 0.119976
H	 4.0254488188	 3.608540954	-0.3520686553	 0.103449
