13
gdb 23988	5.18017	0.96055	0.8103	3.925	88.21	-0.2283	-0.0474	0.1809	1298.6251	0.090454	-378.498302	-378.490662	-378.489718	-378.530564	28.565	
C	 0.1408403779	-1.1646466724	-0.0045162878	-0.412149
C	 0.0263726458	 0.0344904833	 0.0030938909	 0.234291
C	-0.0956007698	 1.4373814518	 0.0118064897	 0.188762
C	-1.2250851578	 2.2520984997	 0.0320207337	-0.235404
C	-0.7910643076	 3.5886284058	 0.0324467872	-0.206071
C	 0.5983484668	 3.574868094	 0.0124782203	 0.213754
N	 1.0023745736	 2.26081248	 0.0001664628	-0.372253
C	 1.5244448728	 4.6391387757	 0.0044996675	 0.188876
N	 2.2935957227	 5.5067732838	-0.0022081976	-0.34129
H	 0.233078128	-2.2227266604	-0.0111115844	 0.202207
H	-2.2426571252	 1.896484776	 0.0448274823	 0.122089
H	-1.401979181	 4.4769342707	 0.0456115988	 0.130905
H	 1.9582934937	 1.945906622	-0.0151111633	 0.286285
