18
gdb 80468	2.52701	1.56252	1.33527	3.4882	72.27	-0.2412	0.0165	0.2577	1037.0298	0.148621	-439.110012	-439.101675	-439.100731	-439.142813	31.397	
C	-0.010848261	 1.3792753282	-0.094154859	-0.344516
N	 0.0047408969	-0.0653425658	-0.173508509	-0.109122
C	-1.208647738	-0.8503987752	 0.0171093353	-0.196928
C	-0.7295764277	-2.2976151821	 0.0095051462	-0.122546
C	 0.03103837	-2.7230432699	-1.2075201241	 0.127636
O	-0.0148570721	-2.0423492317	-2.4202383172	-0.422477
C	 0.800170831	-2.2454957336	 0.0132566687	-0.228821
C	 1.1710766485	-0.7908380352	 0.0209077916	 0.407626
O	 2.2773106077	-0.3115568677	 0.146292011	-0.388255
H	 1.0225326171	 1.7248835916	-0.153344808	 0.167092
H	-0.5914933247	 1.8131936424	-0.9153255839	 0.124968
H	-0.4463606347	 1.721900972	 0.8544081105	 0.123517
H	-1.6918127693	-0.5946961523	 0.9711307676	 0.113019
H	-1.931313587	-0.6535279955	-0.7858183476	 0.120772
H	-1.2853083832	-3.0229749841	 0.5911687137	 0.101689
H	 0.0871916195	-3.7904299564	-1.3932117589	 0.119156
H	 0.1249308608	-1.1024173776	-2.2505334446	 0.293982
H	 1.4434100564	-2.923617447	 0.5579098879	 0.113208
