18
gdb 101536	2.50048	1.00104	0.83005	4.5595	74.75	-0.3122	-0.0658	0.2464	1439.8504	0.144986	-439.132112	-439.121999	-439.121055	-439.16807	35.038	
C	 0.0101214864	 1.5656037345	 0.0828917362	-0.393518
C	-0.0247025945	 0.0355553073	 0.0872633177	-0.184357
C	-1.4271439174	-0.5507167531	-0.0277670171	 0.130588
C	-1.4582132673	-2.0719557874	-0.0906624121	-0.413303
O	-2.1500164875	-0.108389264	 1.1723414913	-0.239794
C	-3.4704673839	-0.0059677875	 1.080346629	 0.365847
O	-4.1630611451	-0.2383976321	 0.1260350933	-0.33799
C	-4.0241921198	 0.4598377271	 2.3613319019	 0.250129
N	-4.5111810758	 0.8222920114	 3.3436773815	-0.306284
H	 1.0383619756	 1.9302262357	 0.1569378157	 0.122738
H	-0.4214111652	 1.9695943277	-0.8394398778	 0.120163
H	-0.5528835218	 1.9748009409	 0.9260554067	 0.134159
H	 0.5585444091	-0.3559979507	-0.7544905756	 0.109692
H	 0.4431939993	-0.3537417357	 0.9994617336	 0.114706
H	-1.9545445227	-0.1273861748	-0.8878276396	 0.118485
H	-0.9840575162	-2.5058899638	 0.7946934022	 0.132523
H	-2.48490345	-2.4378952145	-0.1606751362	 0.145876
H	-0.9144142831	-2.413687591	-0.9762563509	 0.13034
