19
gdb 109179	4.32765	0.99848	0.83799	0.6107	73.65	-0.2171	0.0608	0.2779	1363.4774	0.160217	-456.357468	-456.348205	-456.347261	-456.391531	33.759	
C	 0.0530417153	 1.3524760377	 0.0256620398	-0.223353
O	-0.0439102268	-0.0700220934	 0.0393264048	-0.269307
C	-1.2973099024	-0.5751239865	 0.0516725569	 0.503023
N	-2.3293158671	 0.1712572341	 0.0403429401	-0.381136
C	-3.6290799153	-0.4870342485	 0.0228668996	-0.18839
C	-3.6221489951	-1.9396189501	 0.5249129194	 0.103462
O	-4.8142985876	-2.6326253734	 0.192240086	-0.431553
C	-2.4705429167	-2.6956763039	-0.1349304534	-0.164104
N	-1.2507954361	-1.9483965547	 0.1134278362	-0.371412
H	 1.1217615906	 1.5727146997	 0.0183868732	 0.121519
H	-0.4305851075	 1.7690082339	-0.8619754519	 0.133833
H	-0.4212672334	 1.7843208437	 0.911007681	 0.134164
H	-4.3270629174	 0.1053060295	 0.6306074276	 0.08898
H	-4.0377285216	-0.486895253	-0.998664882	 0.104992
H	-3.4538744484	-1.9453786122	 1.6132239993	 0.078361
H	-5.5540865053	-2.1540666925	 0.5792264606	 0.286776
H	-2.37958394	-3.6968645053	 0.2957623377	 0.11584
H	-2.6919312794	-2.8091098685	-1.2069440377	 0.110289
H	-0.3666874758	-2.3666695865	-0.1271289571	 0.248017
