21
gdb 95120	2.38561	1.51011	1.1143	3.0253	82.97	-0.2449	-0.0196	0.2253	1168.2008	0.182999	-387.116142	-387.107483	-387.106538	-387.149205	33.49	
C	-0.0353218609	 1.6148959608	-0.2183679883	-0.404208
C	 0.0288315729	 0.0957452472	-0.03604225	-0.056079
C	 0.7630011057	-0.6362532683	-1.1872536001	-0.23937
C	 1.291897378	-1.9545257409	-0.5818698824	-0.229272
C	 1.5550932732	-1.636456427	 0.8818693469	-0.056067
C	 2.2688360555	-0.3740947952	 1.2273519172	-0.331138
C	 0.7489996033	-0.3686777117	 1.2286752177	 0.26814
C	 0.0603434763	-0.3201970996	 2.5360920803	 0.062059
O	 0.5747617983	-0.5699318826	 3.6024134639	-0.277625
H	 0.9702266231	 2.0488324952	-0.2445087542	 0.117372
H	-0.5383156289	 1.8765403276	-1.1552450732	 0.115036
H	-0.5840475724	 2.0956072654	 0.5982465773	 0.116611
H	-1.000487251	-0.2879716183	 0.02188205	 0.074051
H	 0.1139608778	-0.8011266952	-2.051426181	 0.102085
H	 1.5970801282	-0.0185456983	-1.5388269825	 0.104812
H	 0.531467544	-2.7413072341	-0.6463760041	 0.105516
H	 2.1816561807	-2.3246636317	-1.1028973182	 0.105009
H	 1.5806690853	-2.441934239	 1.6074671461	 0.105015
H	 2.7202142451	-0.3221345621	 2.2115821124	 0.139312
H	 2.7795918148	 0.1866000712	 0.4518819979	 0.114602
H	-1.0200817488	-0.0501147134	 2.4780674445	 0.064138
