16
gdb 85803	2.62009	1.22096	1.1789	2.5644	73.82	-0.242	0.0051	0.2471	1151.9709	0.121526	-437.861812	-437.852244	-437.8513	-437.896303	33.816	
C	-0.0204789044	 1.4192545604	 0.148490145	-0.345539
N	-0.0047952097	-0.015303015	 0.0274074225	-0.076937
C	-1.0835200559	-1.0070742922	 0.0373962184	-0.204241
C	 0.0139641096	-2.1156147911	-0.0275832437	 0.088688
O	 0.017200596	-2.8904184	 1.1521228923	-0.448617
C	 0.0557604043	-2.9143653217	-1.2415546181	 0.299348
C	 0.1271677576	-3.5802188099	-2.2399064957	-0.478372
C	 1.0277192954	-0.9089244349	 0.012860756	 0.353031
O	 2.2231388707	-0.7932562576	 0.0614526736	-0.374658
H	 1.0159976388	 1.7642795548	 0.1448825672	 0.164903
H	-0.5529455103	 1.8841578151	-0.6894249661	 0.133789
H	-0.4965950212	 1.7375887297	 1.0840519677	 0.133542
H	-1.6531733932	-1.043433566	 0.9712541549	 0.127459
H	-1.7544514627	-0.9556781649	-0.824564373	 0.123819
H	 0.8541031607	-3.3696223684	 1.1781086593	 0.298032
H	 0.1884665243	-4.1693921783	-3.1217217904	 0.205752
