21
gdb 112633	3.15695	1.09147	0.8552	3.937	87.31	-0.2279	-0.0372	0.1907	1411.513	0.181892	-387.147891	-387.138349	-387.137405	-387.182848	35.098	
C	 0.0217069407	 1.6015370067	-0.1502249539	-0.388833
C	 0.034998262	 0.08120165	 0.0327678381	-0.179202
C	-1.365573311	-0.5545632838	 0.1169687415	-0.100178
C	-1.3640037233	-2.098531433	 0.078780878	-0.336658
C	-2.1666936405	-2.5346317775	 1.2850532593	 0.324754
C	-2.4219244279	-3.9799819514	 1.5575375575	-0.485679
C	-2.5684748173	-1.4848400455	 2.0189220381	-0.276076
C	-2.1149501057	-0.2146668962	 1.4246087675	 0.390475
O	-2.2916533169	 0.8983996879	 1.8729570022	-0.348304
H	 1.0420712555	 1.9963206734	-0.1855042995	 0.104081
H	-0.4740137938	 1.8761769496	-1.0885561877	 0.107212
H	-0.5164126203	 2.0876085043	 0.6652879187	 0.154893
H	 0.5716646736	-0.384622962	-0.8036904038	 0.093203
H	 0.5977223889	-0.1818135307	 0.9386116028	 0.097643
H	-1.9735533379	-0.1596833842	-0.7072559615	 0.098592
H	-1.7936807184	-2.502623879	-0.8464435291	 0.113112
H	-0.3454587476	-2.5061765603	 0.1384938033	 0.115081
H	-1.4766420818	-4.5290334417	 1.6525573902	 0.13798
H	-3.0028735244	-4.1294251971	 2.4704893256	 0.13463
H	-2.9628736062	-4.441358782	 0.7217140459	 0.137854
H	-3.1408719975	-1.5221496575	 2.9378523668	 0.105419
