18
gdb 6286	4.16288	1.11476	0.91949	3.8046	70.63	-0.2469	0.048	0.295	1248.7336	0.150639	-384.90269	-384.893255	-384.892311	-384.936773	34.717	
C	-0.0858362423	 1.5128578563	-0.0214831423	-0.403938
C	 0.0436397801	-0.0083897799	-0.0245565383	 0.108718
O	 0.7897729763	-0.4488035311	-1.1724069129	-0.432389
C	 0.7693339971	-0.5387469073	 1.2122701578	-0.200299
C	 0.8435477478	-2.0821581202	 1.2673292042	-0.066797
O	 1.6883312014	-2.6178243544	 0.2640851422	-0.436925
C	 1.3287311596	-2.526355699	 2.5760535879	 0.348109
C	 1.706946744	-2.8653116162	 3.6646507704	-0.450325
H	 0.9027133028	 1.9801416609	 0.0188021627	 0.132102
H	-0.5928264388	 1.8624378913	-0.928067621	 0.107932
H	-0.6700712391	 1.8536974968	 0.8390095307	 0.122842
H	-0.9627836261	-0.4570639961	-0.0560765664	 0.075639
H	 0.2914977188	-0.2309069592	-1.9662272331	 0.29036
H	 1.7895642673	-0.1400554585	 1.2411120618	 0.122242
H	 0.2445944026	-0.1775680901	 2.1023982695	 0.11199
H	-0.186399772	-2.4683456937	 1.1467526576	 0.083351
H	 1.5038912932	-2.1030639314	-0.5355781511	 0.293563
H	 2.0457863972	-3.1796541681	 4.6206426603	 0.193826
