20
gdb 32626	2.85377	1.26383	0.95689	1.558	83.32	-0.1751	0.0487	0.2237	1276.0031	0.169976	-403.188371	-403.178413	-403.177469	-403.223473	36.061	
C	 0.005131296	 1.5550746636	 0.0651466336	-0.372409
C	-0.028838033	 0.0244475309	 0.0009052851	-0.156649
N	-1.3726905452	-0.5248033386	-0.0144860165	-0.035898
C	-2.0872577053	-0.8604919457	 1.1035331401	-0.092848
C	-3.3540977574	-1.2449067495	 0.7215467301	-0.311975
C	-3.3972752884	-1.1290043589	-0.6929515009	 0.243195
O	-4.4413762108	-1.4114137927	-1.5347526284	-0.456717
C	-2.1725323322	-0.6796235966	-1.139720527	 0.212265
C	-1.7167821104	-0.4216966007	-2.5358100069	-0.517519
H	 1.0399147955	 1.9119899779	 0.0877072251	 0.116048
H	-0.4906578371	 1.9962965815	-0.8039501536	 0.132249
H	-0.5045473766	 1.9140808538	 0.9639728815	 0.128301
H	 0.5007893212	-0.3281076924	-0.8896677582	 0.119191
H	 0.4909786906	-0.3992913723	 0.8661649098	 0.115937
H	-1.6362954009	-0.8001021486	 2.0815836752	 0.109705
H	-4.1450302328	-1.5841191567	 1.3740157774	 0.084921
H	-5.1816112722	-1.7181059972	-1.0046257052	 0.293022
H	-1.4340485076	 0.6243614294	-2.7128304495	 0.119746
H	-0.8584448596	-1.0427782912	-2.8245546346	 0.120981
H	-2.5366285538	-0.6591212559	-3.2176397375	 0.148453
