19
gdb 62263	6.2292	0.51152	0.49049	1.9385	75.02	-0.252	-0.0452	0.2069	2120.8859	0.155447	-460.181354	-460.171019	-460.170074	-460.218509	35.262	
O	-0.2107392181	 1.3729961536	 0.0694060042	-0.432646
C	-0.0091406486	-0.0133570041	 0.0286652675	 0.045015
C	 0.7303953619	-0.4362468304	-1.2540843711	-0.206833
C	-0.0443871911	-0.0422240268	-2.5154080627	-0.192035
C	 0.7087183657	-0.3979297487	-3.8079882598	-0.278646
C	-0.0266144394	 0.0886184119	-5.036496857	 0.159085
O	-0.3623282549	-0.6045943844	-5.9613286003	-0.235672
C	 0.7542972897	-0.4699292224	 1.2549425154	 0.136467
O	 1.1179991484	 0.3080931461	 2.103357676	-0.258075
H	 0.1985756809	 1.6725907637	 0.8968444229	 0.296078
H	-0.9811561365	-0.5423909487	 0.0527507765	 0.094962
H	 1.7173049726	 0.0435701881	-1.2596477093	 0.11194
H	 0.8956888443	-1.5215439097	-1.2357894651	 0.101615
H	-1.0219371589	-0.541396096	-2.513384456	 0.111046
H	-0.241925016	 1.034633258	-2.4811574076	 0.13312
H	 1.6921341445	 0.0951945367	-3.7967332689	 0.120475
H	 0.8713148854	-1.4758555277	-3.903060866	 0.119965
H	-0.2540496992	 1.1811022964	-5.0275407851	 0.073839
H	 0.9645426195	-1.5565629156	 1.3291573465	 0.1003
