21
gdb 126502	2.9237	1.00381	0.79845	2.7019	85.73	-0.221	0.0293	0.2503	1499.1214	0.183331	-383.310293	-383.300455	-383.299511	-383.346453	35.028	
C	 0.0825269173	 1.5839028863	-0.1541199569	-0.38078
C	 0.0620874606	 0.055417428	-0.0878930358	-0.153817
C	-1.3646226768	-0.5150382192	 0.0507483264	-0.312596
C	-1.4139951757	-2.008392724	 0.1211874893	 0.288907
C	-1.3872456164	-2.8880460719	 1.193726011	 0.120568
C	-1.3204854974	-2.5601328733	 2.654501114	-0.514753
C	-1.4276968508	-4.1687472646	 0.5938991869	-0.073392
N	-1.4751880983	-4.1094124608	-0.7330995904	-0.235103
N	-1.460142994	-2.7885348957	-0.9934552944	-0.251899
H	 1.1041087022	 1.9638709182	-0.2499857518	 0.11646
H	-0.4918360483	 1.9526811448	-1.0114742638	 0.114301
H	-0.3539500452	 2.0254054388	 0.748789555	 0.116624
H	 0.529873909	-0.3647653573	-0.9866636755	 0.099098
H	 0.6662059853	-0.292129332	 0.7582428194	 0.10809
H	-1.8284955509	-0.1021673654	 0.9542198734	 0.114525
H	-1.9764176175	-0.1631235896	-0.791013293	 0.100994
H	-1.852100291	-3.3089408995	 3.2499278914	 0.127913
H	-0.2892795304	-2.5258148624	 3.0274554276	 0.127593
H	-1.7737059116	-1.5873196247	 2.871922813	 0.120582
H	-1.4320850649	-5.1312426943	 1.086634034	 0.101982
H	-1.5137105753	-2.4805507413	-1.9498851799	 0.264705
