21
gdb 113151	2.90555	0.82037	0.78431	1.0791	90.18	-0.2166	0.0593	0.2759	1625.4248	0.179002	-387.047595	-387.036578	-387.035633	-387.085456	38.465	
C	-0.1124226875	 1.1095357337	 0.3546461003	-0.238689
O	-0.2121695597	-0.0046350466	-0.5141867402	-0.232617
C	-1.3778627632	-0.7341980107	-0.3256705172	 0.097617
C	-1.3959667488	-2.1214807748	-0.8639805527	-0.354839
C	-1.3914130139	-1.9170151683	 0.6556726759	 0.103654
C	-0.1105447558	-2.255182282	 1.4034755175	-0.467331
C	-2.6198937969	-2.1603995927	 1.3633941506	 0.00146
C	-3.6452380937	-2.3554042965	 1.9674263824	 0.092633
C	-4.8833582532	-2.5957409504	 2.6952251326	-0.50042
H	 0.8173646283	 1.6265183979	 0.1070558816	 0.128073
H	-0.9550783662	 1.8025557898	 0.2140085019	 0.110931
H	-0.0868402326	 0.8035064405	 1.4091802194	 0.116199
H	-2.2945113426	-0.1458686062	-0.3790867263	 0.091518
H	-2.3013472546	-2.4873339716	-1.3329176407	 0.121208
H	-0.4694846048	-2.481558906	-1.2983550915	 0.12445
H	 0.7599159785	-1.9074894046	 0.8424097148	 0.128635
H	-0.0988142188	-1.7811335517	 2.38980506	 0.120007
H	-0.022722775	-3.3360718603	 1.5515385281	 0.12223
H	-4.8148993086	-3.5004720301	 3.3099483679	 0.146279
H	-5.1286150945	-1.7614995232	 3.362528643	 0.143622
H	-5.7281468564	-2.7286478164	 2.0098536026	 0.145384
