15
gdb 29238	3.20844	1.4001	0.9806	4.027	70.99	-0.2402	-0.0354	0.2048	1132.0629	0.114793	-454.057874	-454.050014	-454.04907	-454.090379	29.25	
C	-0.0270096749	 1.5472584406	 0.0107750468	-0.475179
C	-0.0055594584	 0.0485448819	-0.025103841	 0.098705
C	-0.0377461738	-0.6818068337	-1.1577038544	-0.033913
N	-0.0167862072	-2.0580354347	-1.1586929388	-0.383749
C	 0.0389478108	-2.8323329563	-0.0083662261	 0.491212
O	 0.0567859878	-4.0429002667	-0.0224904835	-0.389933
N	 0.0712453466	-2.063922187	 1.1413089186	-0.432333
C	 0.0542693755	-0.6635651706	 1.2553908643	 0.396868
O	 0.0879837845	-0.1346033469	 2.3485698385	-0.364324
H	 0.8635938412	 1.9378804848	 0.5136903164	 0.14611
H	-0.071965868	 1.9678276658	-0.9972655709	 0.114963
H	-0.8880809847	 1.9111976371	 0.5806750539	 0.146111
H	-0.0822582597	-0.2248179347	-2.1399303993	 0.137422
H	-0.0419379844	-2.5780368635	-2.0211306889	 0.275119
H	 0.1122965946	-2.5796297461	 2.0102252544	 0.272922
