17
gdb 27296	3.19717	1.32975	0.95014	3.8942	79.29	-0.2301	-0.0293	0.2008	1218.4812	0.13567	-421.893195	-421.884663	-421.883719	-421.926329	31.477	
C	 0.0690096472	 1.5069033857	 0.0437619651	-0.471458
C	-0.0523059359	 0.0185775614	 0.0063168588	 0.380801
C	-1.1754802025	-0.6936748603	-0.2108994723	-0.316781
C	-1.1776908598	-2.1539590568	-0.2259351346	 0.330045
O	-2.1793922568	-2.8324967517	-0.4202216379	-0.376825
C	 0.148632113	-2.7533184382	 0.0163759858	 0.078093
C	 0.2627231587	-4.2476657904	 0.0227733221	-0.473867
C	 1.2014051612	-1.9437455202	 0.221448702	-0.014698
O	 1.1438978556	-0.5874349809	 0.2240702642	-0.22851
H	 0.774357834	 1.8547626933	-0.7185231932	 0.148174
H	-0.9008213846	 1.973515471	-0.1326630493	 0.143617
H	 0.4507960899	 1.8376718334	 1.0155722113	 0.148166
H	-2.1144508088	-0.1813270548	-0.3815133981	 0.114677
H	-0.0728662953	-4.6583001498	-0.9349355001	 0.14644
H	 1.2875558198	-4.5779428472	 0.2117958084	 0.112356
H	-0.3957895983	-4.6755500829	 0.7854669951	 0.146456
H	 2.2135195426	-2.2834676415	 0.4074763228	 0.133314
