25
gdb 80475	2.06735	1.50988	1.31398	0.2161	91.11	-0.2545	0.0696	0.324	1194.2274	0.230378	-352.359314	-352.349858	-352.348913	-352.393239	37.48	
C	 0.0056840085	 1.5808128766	-0.0442564839	-0.422746
C	 0.0680155148	 0.0690623692	 0.0096636343	 0.008931
C	 1.3174746318	-0.7367120618	-0.2683605372	-0.069563
C	 2.661319665	-0.0250406865	-0.1461477251	-0.250158
C	 2.9521968676	 0.1706622475	 1.374949904	 0.035356
C	 3.5453443702	 1.5448612257	 1.6996659383	-0.408752
C	 1.643102654	-0.2387294115	 2.1546279066	-0.003632
C	 1.0338286123	 0.8086695449	 3.0996551689	-0.399103
C	 0.6766973486	-0.7877937609	 1.1028862338	-0.066767
H	 0.9191034786	 2.0634161026	 0.3093222416	 0.123939
H	-0.1565226702	 1.9160659882	-1.0756295419	 0.111254
H	-0.8244780974	 1.9646712981	 0.5587520141	 0.115554
H	-0.830786252	-0.3853597307	-0.4038496402	 0.077401
H	 1.2464262338	-1.5738572464	-0.9548618129	 0.073894
H	 3.4496180862	-0.6212907066	-0.6158203504	 0.093844
H	 2.6598027638	 0.9392582312	-0.669267565	 0.093795
H	 3.7131179626	-0.5676834686	 1.652131771	 0.072649
H	 2.8628052885	 2.3626187923	 1.4450644534	 0.118239
H	 3.7964884441	 1.6412336357	 2.7607787162	 0.11096
H	 4.4673091283	 1.7021452452	 1.1294724166	 0.109997
H	 1.909222733	-1.0931175265	 2.789444003	 0.070204
H	 0.743663832	 1.7276929716	 2.5858777551	 0.11656
H	 0.134437483	 0.4021728534	 3.5744091482	 0.10785
H	 1.7311321964	 1.0789268176	 3.8993731394	 0.107251
H	 0.0930406966	-1.6546959904	 1.3986024522	 0.073042
