17
gdb 55941	4.27055	1.01657	0.90925	2.0302	69.03	-0.2347	0.0581	0.2928	1276.0129	0.136655	-455.137359	-455.12904	-455.128096	-455.171369	30.962	
N	-0.1051470088	 1.2668284549	-0.1444580759	-0.564716
C	 0.0179410858	-0.0738224978	 0.0928606169	 0.494003
O	 0.9938963315	-0.6159289179	 0.5583762636	-0.404566
O	-1.1082911544	-0.7156711897	-0.3072049373	-0.267376
C	-1.0890035151	-2.1286206934	-0.1366957447	 0.185501
C	-1.4315336723	-2.724019087	 1.2721028255	-0.253015
C	-2.575264187	-3.4881574246	 0.5964766692	-0.048968
N	-3.4843690972	-2.4458101344	 0.0716283621	-0.324425
C	-2.2948101901	-2.8442228794	-0.7224549255	-0.108542
H	 0.5710469415	 1.858588188	 0.3066275256	 0.267027
H	-1.0241502635	 1.6414166081	-0.3098976124	 0.266314
H	-0.1432606261	-2.5266075448	-0.5076913532	 0.107652
H	-0.6244009968	-3.3421038263	 1.6663871643	 0.115653
H	-1.7553473995	-1.9989836956	 2.0210707176	 0.113807
H	-2.9269491305	-4.490135855	 0.805152104	 0.097964
H	-4.2804184164	-2.9227401655	-0.3520109991	 0.229423
H	-2.403382451	-3.2240218695	-1.7306919907	 0.094264
