12
gdb 23663	3.94744	1.96634	1.31298	1.4198	59.6	-0.2338	-0.0258	0.208	830.7513	0.085959	-418.881269	-418.875003	-418.874058	-418.911587	23.849	
N	-0.0018831937	 1.3336461853	-0.0968308974	-0.552034
C	 0.0026260025	-0.0237651397	-0.0400651954	 0.451276
N	-1.1906889479	-0.639521538	-0.0193085234	-0.317919
C	-1.1484117091	-1.9711346093	-0.0054032112	 0.025854
C	 0.0305024452	-2.7052902772	-0.0083075313	-0.2963
C	 1.1862628466	-1.9312902896	-0.020041027	 0.340794
F	 2.3663898395	-2.5354358717	-0.0128435672	-0.064282
N	 1.210483716	-0.6221164106	-0.0345288914	-0.360962
H	 0.8618419671	 1.8158590541	 0.0814636623	 0.268578
H	-0.8713934123	 1.803409824	 0.0867598227	 0.267748
H	-2.1099530309	-2.4792542967	 0.0110492002	 0.120795
H	 0.060276267	-3.7850722406	 0.004926969	 0.116449
