17
gdb 71703	3.66479	1.51424	1.4331	0.7675	70.05	-0.2207	0.0736	0.2942	960.4974	0.135465	-421.765518	-421.758278	-421.757334	-421.79663	29.715	
C	-0.0347714834	 1.4237232964	-0.0407220764	-0.491923
C	 0.0213822863	-0.0722223693	 0.005211651	 0.446264
O	-0.2988849477	-0.7087476121	-1.2103496318	-0.265027
C	-0.1720418322	-2.0572102413	-0.8648424059	-0.033887
C	-0.5664156389	-2.3196952729	 0.591504862	-0.185805
C	-0.4286480105	-0.9107570564	 1.1937333581	-0.156663
C	 1.0464721353	-0.8699067858	 0.7918821312	-0.269381
C	 0.8959707361	-2.2888202512	 0.183232597	 0.354406
O	 1.8211873698	-3.3065650137	 0.2053556489	-0.460717
H	 0.6808861601	 1.8179728979	-0.768732042	 0.130227
H	-1.035688319	 1.763709691	-0.3239255583	 0.132505
H	 0.2065171756	 1.8433097109	 0.9395780898	 0.125296
H	-0.3796784286	-2.7628351056	-1.658099135	 0.108333
H	-1.2060043149	-3.1272698434	 0.9177534166	 0.097666
H	-0.9253717409	-0.5200703442	 2.0709635083	 0.089777
H	 1.9071990408	-0.4661981357	 1.3076812711	 0.091063
H	 2.4102462721	-3.1986228045	-0.5507201245	 0.287865
