18
gdb 107085	3.78848	1.00628	0.919	4.9397	77.42	-0.2642	0.0303	0.2945	1305.2011	0.147009	-401.920627	-401.911956	-401.911012	-401.954346	31.989	
C	 0.0210576894	 1.3811135256	 0.3431509885	-0.260169
O	 0.0100176701	 0.0575774026	-0.1717796916	-0.278739
C	-1.2288126952	-0.5324259446	-0.1498882038	 0.469081
C	-1.8341799144	-1.0985420427	 1.1057943622	-0.353802
C	-1.5323847738	-2.0154643878	-0.0603975374	-0.142819
C	-2.6559354783	-1.8650746244	-1.1090697373	-0.14699
C	-2.2956884925	-0.3347069037	-1.2373393796	-0.32394
C	-2.4630459184	-2.627869805	-2.3316492541	 0.267803
N	-2.3056863438	-3.2368711085	-3.3018120525	-0.325175
H	 1.0551911748	 1.7281280745	 0.3006063152	 0.135102
H	-0.6055352775	 2.0551989033	-0.2570471791	 0.116091
H	-0.3293751999	 1.4079558888	 1.3838840323	 0.114959
H	-1.1336863752	-1.192798273	 1.9290850901	 0.127284
H	-2.8609634061	-0.8904464825	 1.4003952328	 0.108827
H	-0.8660783517	-2.8639592912	 0.0176403708	 0.120647
H	-3.6594323149	-2.0680659861	-0.7209617464	 0.121978
H	-3.1077818649	 0.3690793471	-1.0350481201	 0.108745
H	-1.8494481776	-0.1148004324	-2.2081297701	 0.141119
