20
gdb 69954	3.53758	1.48313	1.30201	0.8223	77.73	-0.227	0.0814	0.3084	1042.596	0.172737	-403.115713	-403.10822	-403.107276	-403.147204	30.513	
C	 0.0627865549	 1.5547453857	 0.1342133346	-0.478776
C	-0.0074558916	 0.0590592025	-0.0492853609	 0.34772
C	-0.9627846161	-0.7756231531	 0.718702554	-0.300723
N	 0.4749829477	-0.8014306821	 1.0663980953	-0.147737
C	 1.253165201	-1.9145516572	 0.5021733595	-0.031345
C	 0.5492445004	-3.2751242689	 0.3928468089	-0.097329
O	 0.1737646925	-3.0041718214	-0.979651956	-0.29608
C	 1.0874755124	-1.87418011	-1.0367773087	 0.118232
C	 0.4550828098	-0.5283820386	-1.3862887312	-0.314482
H	 1.0735012175	 1.9294451205	-0.0642750712	 0.115906
H	-0.6241247177	 2.0636718026	-0.5517422406	 0.117602
H	-0.2077513886	 1.8311111814	 1.1564368604	 0.127548
H	-1.5901042181	-0.3209251521	 1.4814945753	 0.108196
H	-1.4030419347	-1.6291448116	 0.2117612261	 0.133717
H	 2.2576325857	-1.9011066831	 0.9284336777	 0.082842
H	 1.2299728493	-4.133383937	 0.4601197349	 0.102281
H	-0.3168056443	-3.4445371662	 1.0407931617	 0.112197
H	 1.9609131071	-2.1187919038	-1.6521350548	 0.07598
H	-0.3604152634	-0.6486214475	-2.1060595777	 0.121721
H	 1.2066869263	 0.1256949297	-1.8428506375	 0.102531
