15
gdb 131097	3.32456	1.20099	0.91044	1.5555	71.71	-0.2446	0.0116	0.2562	1205.2517	0.113171	-416.779618	-416.771342	-416.770398	-416.813252	30.497	
O	-0.9402335802	 0.6200647914	 0.0405376272	-0.407892
C	 0.0364499001	-0.4037494659	-0.151203067	-0.186773
C	 0.9553076395	-0.0853120444	-1.2524567776	 0.314148
C	 1.7052050971	 0.1996192307	-2.1472802593	-0.450285
C	 0.7791265855	-0.7101994427	 1.1266536206	 0.184487
C	 0.2578655135	-0.6363434139	 2.404528534	-0.126528
N	 1.2519116042	-1.015449411	 3.2411900633	-0.179676
N	 2.394448495	-1.3337623237	 2.6035716705	-0.227961
C	 2.1094607479	-1.148802546	 1.3180770352	-0.085797
H	-0.461105505	 1.4255354964	 0.2689921184	 0.283756
H	-0.5603841541	-1.2761391839	-0.4486281457	 0.133616
H	 2.3607203479	 0.4473294345	-2.9456375602	 0.202493
H	-0.7174239314	-0.3437407718	 2.7578762146	 0.147305
H	 1.2254932396	-1.0642539962	 4.2456283381	 0.276457
H	 2.8617495805	-1.3278074034	 0.5648731379	 0.122651
