16
gdb 83502	3.05303	1.54511	1.50258	2.3501	65.16	-0.2593	0.0084	0.2676	933.2733	0.126638	-475.024935	-475.018051	-475.017106	-475.056025	27.638	
O	 0.0642726837	 1.3560691626	 0.1281782629	-0.454487
C	 0.0196063463	-0.0350805326	 0.0019907469	 0.154477
C	-1.3464886585	-0.6337018777	-0.437508766	 0.015211
C	-1.4918617538	-0.0216759394	-1.8315645286	-0.105059
O	-0.1228374253	 0.0340441089	-2.3014682203	-0.29625
C	 0.6732674247	-0.6001437153	-1.2720420624	-0.054524
C	 0.258132373	-2.0501755035	-1.1682193876	 0.454934
N	 0.9120852094	-3.0733168523	-1.4955035038	-0.560366
O	-1.0124563322	-2.0289094469	-0.6220429027	-0.259849
H	 0.1249899583	 1.7199644642	-0.764569108	 0.299367
H	 0.3795814422	-0.4887316636	 0.9276479246	 0.114326
H	-2.196124663	-0.5489306575	 0.2356202164	 0.105938
H	-2.0919921819	-0.6555554639	-2.4909819376	 0.127846
H	-1.9144677267	 0.9883901033	-1.8069166179	 0.116311
H	 1.7261543747	-0.4206420331	-1.4686795606	 0.114781
H	 0.3760563492	-3.9241783331	-1.3116538352	 0.227345
