16
gdb 44185	5.09013	1.0309	0.93277	1.5231	76.	-0.2451	-0.0369	0.2081	1217.8396	0.122911	-400.677933	-400.669981	-400.669037	-400.710958	30.066	
O	 0.19438289	 0.0710064764	-0.7355772316	-0.278939
C	 0.0497657401	 1.1463882736	-0.239099422	 0.386707
C	-1.1465912398	 1.9730857866	 0.2806235474	-0.306452
N	-0.2088931859	 3.059044376	 0.7046571183	-0.132488
C	 0.3285581618	 2.8303204894	 2.1033745667	-0.160818
C	 1.6583331984	 2.2431006565	 1.5287345486	-0.271013
C	 0.9868394403	 2.3095655128	 0.1414299212	-0.102309
C	 0.4314029919	 4.0258913431	 2.9177331844	 0.315559
C	 0.5413753049	 5.006665338	 3.6037301402	-0.406411
H	-1.8183657776	 2.3014697922	-0.5205434963	 0.14255
H	-1.7492337423	 1.5225205238	 1.0768620979	 0.13385
H	-0.2577062654	 2.0752950627	 2.6431534758	 0.105001
H	 2.4994133695	 2.9295930931	 1.6257581915	 0.133881
H	 1.9516511232	 1.2570300865	 1.8915548398	 0.128888
H	 1.5463189805	 2.7598424953	-0.6827485227	 0.111528
H	 0.6293328303	 5.8772872839	 4.2055400407	 0.200467
