19
gdb 105817	2.44384	1.53353	1.24354	1.0552	75.18	-0.2276	0.0593	0.2869	1100.3807	0.156689	-422.924315	-422.91546	-422.914515	-422.957807	33.225	
C	-0.363884147	 1.2576430829	-0.1023598428	-0.256078
O	 0.1338300836	-0.0650301349	 0.0415808668	-0.271052
C	 0.7648388308	-0.5303819011	-1.0906957275	 0.365919
C	 0.0315372588	-1.0888905441	-2.2840205055	-0.056089
C	 0.0511894789	-0.7198679452	-3.7574897867	-0.435983
C	 0.9666120777	-1.9875903877	-1.480390261	-0.227248
C	 2.4872399643	-1.6905213109	-1.6568469101	 0.025846
O	 2.6958196271	-0.6428548711	-2.6195896944	-0.235601
C	 2.3075844535	-0.2920857515	-1.288129659	-0.064375
H	 0.4385042742	 1.9701320856	-0.339669549	 0.112668
H	-1.124857363	 1.3138126321	-0.8923653864	 0.11559
H	-0.8137900342	 1.5342094021	 0.8535825715	 0.128475
H	-0.9822295376	-1.3105771417	-1.9426508512	 0.098578
H	-0.3324361582	-1.5567147101	-4.3526292134	 0.112729
H	-0.6125490956	 0.1344793933	-3.9343250473	 0.108694
H	 1.0459305482	-0.4687613742	-4.1122743981	 0.154209
H	 0.6089766358	-2.8675096654	-0.9610379053	 0.101885
H	 3.3056255037	-2.3782108044	-1.4828602398	 0.111419
H	 2.9287138691	 0.3962108259	-0.726715631	 0.110416
