17
gdb 91606	2.32629	2.03456	1.5068	3.8132	66.61	-0.2675	0.0061	0.2737	927.762	0.137887	-459.016216	-459.009141	-459.008197	-459.047634	28.018	
C	-0.1309294251	 1.5408666015	-0.0501322424	-0.412505
C	 0.0322596699	 0.0334216564	 0.023754614	 0.133049
O	 0.8334983531	-0.4456756102	-1.0929519837	-0.270993
C	 1.8574186886	-1.2158203463	-0.5231036866	 0.205482
C	 1.2027355117	-1.9158787117	 0.6695081905	-0.269569
C	 0.7993572723	-0.5427412198	 1.2499619907	-0.218445
C	 2.1681103363	 0.1393966274	 1.2435777336	 0.462058
O	 2.648659106	 0.9351588184	 1.9928105051	-0.351513
O	 2.8077384207	-0.3277473036	 0.1205987937	-0.238847
H	 0.8307049124	 2.0541408806	 0.0285678567	 0.149945
H	-0.5925650371	 1.8168030364	-1.0019701359	 0.133705
H	-0.7790694303	 1.8905382979	 0.7598835383	 0.123356
H	-0.9514296851	-0.451294865	-0.0344035928	 0.089029
H	 2.3791923518	-1.7800304345	-1.2915969126	 0.110896
H	 0.3582729915	-2.5451096073	 0.3818720659	 0.120815
H	 1.9071362028	-2.4741941257	 1.2877465701	 0.127886
H	 0.2763278606	-0.4874540346	 2.2009174451	 0.105651
