18
gdb 10698	2.5102	1.95855	1.39125	2.14	68.25	-0.2564	-0.0362	0.2202	962.9929	0.151094	-384.934697	-384.925944	-384.924999	-384.967832	31.908	
C	-0.1788780516	 1.5310270133	 0.3540023168	-0.39854
C	-0.108673298	 0.0515485282	-0.0658690488	-0.044338
C	 0.9452672011	-0.7028481048	 0.7517631405	-0.416607
C	-1.4976922409	-0.564053408	 0.0195293317	 0.300661
C	-1.7954062747	-1.889893503	 0.6135028781	-0.225606
O	-2.0943487219	-0.7008835906	 1.3248174628	-0.26649
C	-2.5057229896	-0.1206385096	-1.0033437844	 0.135181
O	-2.2360748441	 0.4478007949	-2.0300912845	-0.262872
H	 0.8039298846	 2.0011642525	 0.2556868265	 0.113889
H	-0.8821085168	 2.0887211412	-0.2695561263	 0.132397
H	-0.4962029455	 1.6191730037	 1.39811556	 0.128217
H	 0.1656672597	 0.0141553683	-1.1268134557	 0.1007
H	 0.6485146542	-0.7709677309	 1.8038691849	 0.131014
H	 1.113065375	-1.7152945481	 0.3722670453	 0.113498
H	 1.901252931	-0.1729224758	 0.7097532023	 0.11803
H	-2.6582865886	-2.4593183409	 0.2677679264	 0.120453
H	-0.9717332514	-2.4830465767	 1.0016372323	 0.130962
H	-3.5517789523	-0.3750078335	-0.719806858	 0.089452
