21
gdb 66190	2.45308	1.44828	1.24772	1.6112	82.84	-0.2451	0.0129	0.258	1133.6307	0.182995	-387.086043	-387.077394	-387.07645	-387.119379	34.056	
O	-0.0141538286	 1.448695482	-0.1677213399	-0.482082
C	-0.0229569982	 0.0266895646	 0.0093930135	 0.369739
C	 0.695395527	-0.7181250457	-1.1634712644	-0.264394
C	 1.5962398254	-1.7968536788	-0.5151706226	-0.258704
C	 1.6768417722	-1.355070593	 0.9260755081	-0.068247
C	 0.8011402592	-0.3930888972	 1.2108725918	-0.160367
C	-1.4976364609	-0.3363099303	 0.0928585743	 0.011774
C	-1.97107405	-1.6397844613	 0.6809215159	-0.276185
C	-2.2679177109	-0.337463965	 1.3849600977	-0.275302
H	 0.907543341	 1.729396637	-0.172701198	 0.268166
H	-0.0161855353	-1.1317685366	-1.8817351017	 0.101431
H	 1.3087229123	 0.0119441323	-1.7016933385	 0.094714
H	 1.1483575543	-2.796744207	-0.5877574841	 0.113481
H	 2.5822943313	-1.8709518331	-0.9882648759	 0.103268
H	 2.3642174288	-1.8041234848	 1.6358092305	 0.096328
H	 0.6637437947	 0.0756157105	 2.178799573	 0.098652
H	-2.0410685165	 0.0217778396	-0.777557453	 0.089121
H	-2.78244024	-2.1622781246	 0.1864331243	 0.105816
H	-1.2298379219	-2.2889510165	 1.1346456236	 0.113249
H	-1.7334551959	-0.1318709988	 2.3055262209	 0.109903
H	-3.2837912579	 0.0411088966	 1.3708111046	 0.109638
