17
gdb 39944	3.00972	1.6103	1.22702	1.137	74.5	-0.2465	0.003	0.2495	1021.5869	0.136807	-421.79891	-421.791735	-421.790791	-421.830547	28.434	
C	-0.2937341984	 1.4337855257	 0.0046476174	-0.233315
O	 1.0591835406	 0.9950101476	-0.0741090519	-0.287978
C	 0.0205648246	-0.0069261687	 0.0342735988	 0.426678
C	-0.0117875124	-0.7612580181	 1.3067288586	-0.116412
C	-0.1043283567	-2.0887949432	 1.3670782614	-0.06778
C	-0.1629416338	-2.9981610633	 0.1698721655	-0.318787
C	-0.2793534059	-2.2707409594	-1.1510285702	 0.053046
O	-1.4475551058	-1.4638096331	-1.3336932891	-0.261033
C	-0.1818309801	-0.8053507605	-1.2176071242	-0.065061
H	-0.5723441472	 1.9375795429	 0.9295212462	 0.116827
H	-0.7023971271	 1.8724294345	-0.9051745754	 0.119329
H	 0.0565642157	-0.1696419689	 2.2149838033	 0.095053
H	-0.1257147481	-2.5760847364	 2.3384618218	 0.098517
H	 0.739975705	-3.6254248088	 0.1467275457	 0.121612
H	-1.0031255914	-3.6995434109	 0.2694489695	 0.12637
H	 0.0004886958	-2.8466951098	-2.0333216026	 0.095275
H	 0.179420675	-0.3211889695	-2.1244145747	 0.097659
