23
gdb 86209	2.4401	1.29216	1.00395	1.411	87.66	-0.2393	0.0265	0.2659	1302.2686	0.206242	-388.314275	-388.304777	-388.303833	-388.347971	37.1	
C	-0.1015886799	 1.5771470593	 0.0199974271	-0.399403
C	-0.017423097	 0.0430382621	 0.0072047656	-0.023189
C	 0.6283421857	-0.4823037606	-1.286344392	-0.233975
C	 0.973183023	-1.9701874063	-1.1735915669	 0.110698
O	 1.493041331	-2.5009429142	-2.3868660114	-0.445972
C	 2.0077720961	-2.2239742299	-0.0625509728	-0.028496
C	 3.4529610976	-1.8896278376	-0.4810985779	-0.385842
C	 1.6089047248	-1.4729069399	 1.1846658919	-0.085983
C	 0.7201445336	-0.4804003246	 1.2167803201	-0.04249
H	 0.898584815	 2.0228829914	-0.0120492883	 0.118339
H	-0.6648018553	 1.9471259566	-0.843259434	 0.110209
H	-0.600017796	 1.938164491	 0.9258720837	 0.111526
H	-1.0506248256	-0.3378049371	 0.0536825002	 0.080529
H	-0.0503582663	-0.3214661626	-2.1347917222	 0.076219
H	 1.5421414742	 0.0844243817	-1.5024171395	 0.105033
H	 0.0529765766	-2.5116809972	-0.8949026843	 0.062095
H	 0.8527761119	-2.326254552	-3.0836820625	 0.277832
H	 1.9839686775	-3.2991004319	 0.163007477	 0.07986
H	 3.5622222381	-0.8302748022	-0.7326070379	 0.112797
H	 4.1429991691	-2.1045874362	 0.3413235746	 0.104795
H	 3.7476458052	-2.4814893712	-1.3494850087	 0.133077
H	 2.1055582504	-1.7756417251	 2.1044703607	 0.083428
H	 0.4914843103	 0.0034591665	 2.1649137775	 0.078911
