17
gdb 29936	2.20467	1.75254	0.98844	4.5192	80.09	-0.2358	-0.0498	0.1859	1163.3248	0.136064	-418.068872	-418.059941	-418.058997	-418.102994	31.339	
C	-0.0356668481	 1.4402758021	 0.0349570975	-0.34706
N	 0.0008148921	-0.0106831773	 0.0423992379	-0.056692
C	 0.0248323854	-0.807221908	-1.0477389597	 0.007585
N	 0.056500507	-2.0936715529	-0.7475034944	-0.321575
C	 0.053324924	-2.1503366131	 0.6155833093	 0.233937
C	 0.083770915	-3.4481470918	 1.3504408569	-0.500355
C	 0.0187626332	-0.8622546195	 1.1490246099	 0.107027
C	 0.0016628043	-0.3851004469	 2.5155991696	 0.07068
O	 0.0163559196	-1.0886863506	 3.5075420404	-0.285518
H	 0.8415784972	 1.8586428951	 0.5364854489	 0.154711
H	-0.0399539603	 1.7811315669	-1.0018590042	 0.149447
H	-0.9369201485	 1.8139632144	 0.5291657769	 0.154694
H	 0.0178691063	-0.3976148129	-2.0483493759	 0.136802
H	 0.9791580303	-4.0172935697	 1.0780048123	 0.137718
H	 0.0760086419	-3.2799288836	 2.4269118852	 0.16154
H	-0.7798686915	-4.0618331009	 1.0722692849	 0.137717
H	-0.0273511579	 0.7231242788	 2.6203276344	 0.059343
