18
gdb 115184	2.46396	1.35662	1.0668	3.3137	67.37	-0.2457	-0.0408	0.205	1152.8777	0.148077	-476.226998	-476.218331	-476.217386	-476.260511	32.578	
O	 0.1163738662	 1.1748986771	-0.6270058907	-0.42597
C	 0.0133476225	-0.2131215262	-0.4062241136	-0.034736
C	-1.3139823858	-0.5443890635	 0.2853569095	-0.082062
N	-2.4345017399	 0.0023653793	-0.529273074	-0.321334
C	-2.8657557831	-1.0349802228	-1.4824301925	-0.284786
C	-2.2183683869	-2.3302813886	-0.9987007283	 0.359822
O	-2.1059202389	-3.3772191597	-1.5841682018	-0.32195
C	-1.5969580963	-2.054205544	 0.3690778298	 0.046891
O	-0.4966980258	-2.879008845	 0.6235997999	-0.4335
H	-0.7561644274	 1.4405689992	-0.95139234	 0.282287
H	 0.0946158316	-0.7821545688	-1.3498551518	 0.080516
H	 0.8503695145	-0.5229315147	 0.2239668166	 0.127255
H	-1.327191159	-0.0560874817	 1.2624272118	 0.093682
H	-3.2018907264	 0.2727699924	 0.0717401511	 0.235749
H	-3.9552031697	-1.1327918062	-1.5268990959	 0.140433
H	-2.5228706207	-0.8277235927	-2.5033625289	 0.149167
H	-2.3980239049	-2.2116382773	 1.1168231365	 0.09327
H	-0.5792456802	-3.6291300667	 0.0147172825	 0.295266
