16
gdb 49106	2.42334	1.33943	0.87447	2.9134	81.61	-0.2225	-0.092	0.1305	1248.5272	0.124411	-437.92233	-437.913933	-437.912989	-437.955781	30.004	
O	-0.0103451036	-0.1056268534	 0.1364254934	-0.296076
C	-0.0155995636	 1.1119945555	 0.0851658033	 0.052378
C	 1.1830061283	 1.910186212	-0.0082244065	 0.09631
C	 1.2894701622	 3.2711260562	-0.095707178	 0.211924
N	 2.5818613087	 3.6859764843	-0.2287954346	-0.336641
C	 3.4917850808	 2.570585233	 0.0696501489	-0.177159
C	 2.580070732	 1.3242226572	-0.0934518538	-0.308606
C	 0.2192793483	 4.2874969943	-0.0499974026	 0.085736
O	 0.4641691042	 5.4737749937	-0.0555640527	-0.270775
H	-0.9745368361	 1.6728211102	 0.1153538406	 0.059026
H	 2.8061454685	 4.6439874738	-0.005909748	 0.263417
H	 4.3457851778	 2.5685723877	-0.6119016824	 0.125081
H	 3.8757735372	 2.6511132332	 1.0960664083	 0.116689
H	 2.7612614544	 0.5593386561	 0.6645946213	 0.138626
H	 2.7278430064	 0.8429053025	-1.0679985674	 0.133544
H	-0.8157342856	 3.9049559338	 0.00291677	 0.106528
