19
gdb 113324	2.51698	1.06711	0.85117	2.2395	79.3	-0.2604	0.0219	0.2823	1418.8742	0.155691	-422.96765	-422.957405	-422.956461	-423.003404	36.887	
C	 0.4468222202	 1.4225924148	 0.1854632418	-0.378862
C	-0.2783285553	 0.1119742303	-0.1491403655	-0.227456
C	 0.3443328757	-0.5661827505	-1.3464312965	 0.047982
O	 1.5811284182	-1.2585104276	-1.1599484166	-0.293457
C	 0.4286567095	-2.0290110752	-1.5897459053	 0.091504
C	-0.0091958489	-3.0718433534	-0.5732889413	-0.13066
O	 0.9563503402	-4.0965051712	-0.4546843114	-0.410678
C	 0.4819608949	-2.4937901229	-2.9574130427	 0.324154
C	 0.4891076534	-2.884733822	-4.0937705409	-0.424065
H	 1.4983951956	 1.2325179176	 0.4199807684	 0.13562
H	 0.411660867	 2.1215565523	-0.6569499057	 0.120681
H	-0.0120754865	 1.913477887	 1.0482167495	 0.118403
H	-0.2573242578	-0.5513450915	 0.7192387827	 0.110733
H	-1.3327352892	 0.313895683	-0.3767066562	 0.110014
H	 0.3338149907	 0.0443377435	-2.2526435459	 0.096557
H	-0.2037093828	-2.5892958509	 0.3926243676	 0.093405
H	-0.9338542306	-3.5505373935	-0.9092628011	 0.121157
H	 1.7932294723	-3.6667740239	-0.2425771995	 0.295039
H	 0.5086363334	-3.2355397061	-5.0960670313	 0.199928
