21
gdb 68190	3.03449	1.35177	1.31044	2.8225	77.91	-0.2349	0.0739	0.3088	1108.8122	0.181153	-424.215881	-424.207014	-424.20607	-424.248479	35.482	
C	 0.027614693	 1.521571854	 0.1218091403	-0.495683
C	 0.0084346418	 0.0261897347	-0.023621975	 0.420302
C	 0.9093242525	-0.7655823559	-1.0063666477	-0.282329
C	 0.6910997756	-1.8060192807	 0.1106246761	 0.044347
O	 0.6583984762	-0.7096065279	 1.069143029	-0.32421
C	-0.8060495739	-2.1868260848	 0.0018385409	 0.439826
C	-1.15463223	-3.1094676477	-1.1653505795	-0.46277
O	-1.1571988662	-2.8084760138	 1.2300716711	-0.48405
C	-1.3471859383	-0.7181590514	-0.1205065516	-0.325562
H	 1.0529234231	 1.8896595176	 0.2172228356	 0.126251
H	-0.4333226067	 1.9958378103	-0.7508910128	 0.119412
H	-0.5328313616	 1.8270726969	 1.0114544593	 0.129804
H	 0.5614068099	-0.9619993547	-2.0234231056	 0.090324
H	 1.9323996032	-0.3871549838	-1.0045946182	 0.108491
H	 1.394505056	-2.6006760523	 0.3583076011	 0.080273
H	-0.6583632205	-4.0771939058	-1.0423551809	 0.124917
H	-2.2363527591	-3.2892136036	-1.1976923482	 0.108815
H	-0.8669424913	-2.6894739863	-2.1328253794	 0.116398
H	-2.0948107144	-3.0242802918	 1.1955468481	 0.272754
H	-1.9931187514	-0.4722558083	 0.7256009396	 0.103142
H	-1.8800789378	-0.5198176647	-1.0554611922	 0.089547
