19
gdb 59245	2.61564	1.48791	1.31682	3.1204	70.17	-0.251	0.074	0.3249	1055.8792	0.159011	-460.121794	-460.113533	-460.112589	-460.154245	32.68	
C	 0.0736899501	 1.5476382874	-0.0026691547	-0.393868
C	 0.040024682	 0.0226989359	 0.0002111964	 0.110454
O	 0.8090384356	-0.4118365965	 1.1312259048	-0.448207
C	-1.3937340992	-0.5232266428	 0.0543326457	-0.123216
C	-1.5821509952	-2.048696181	 0.0439932521	 0.000153
O	-0.8629460266	-2.5763009644	 1.1765488378	-0.262488
C	-2.1917196122	-2.0564696977	 1.3860522694	-0.016843
C	-2.1261302597	-0.5170034534	 1.467635254	 0.117703
O	-1.5266151607	 0.1078773986	 2.5577017676	-0.433657
H	 1.109753118	 1.8956820877	 0.0211049423	 0.126572
H	-0.406042674	 1.9438822128	-0.9027397533	 0.110397
H	-0.4458999916	 1.9406583214	 0.8755151081	 0.138981
H	 0.5178498295	-0.3479672421	-0.9217618725	 0.077297
H	 0.6276619172	-1.3580441456	 1.241774845	 0.298641
H	-2.0026164872	-0.0354036866	-0.7123205784	 0.085154
H	-1.7306560912	-2.7205326942	-0.7930099148	 0.112995
H	-2.9005878968	-2.7429485932	 1.8343403224	 0.112325
H	-3.1385008081	-0.1116294901	 1.3679505606	 0.096896
H	-0.56942964	-0.0289927661	 2.4622155076	 0.290712
