19
gdb 89970	3.04309	1.28786	1.11858	1.0679	76.54	-0.2454	-0.0287	0.2168	1174.4009	0.157854	-423.024555	-423.015792	-423.014848	-423.058324	32.508	
C	-0.6977665932	 1.3250472912	 0.1549936925	-0.404949
C	-0.0011096281	-0.0216250695	 0.0866633763	 0.024625
O	 1.0850935924	-0.0763838505	-0.8773646028	-0.348051
C	 2.0833724305	-0.4290251466	 0.0955741911	 0.34119
C	 2.9310538092	-1.7155384074	-0.0565535058	-0.287764
C	 4.1194942684	-0.9406440366	 0.5764490982	-0.2107
C	 3.3890739745	 0.3878030182	 0.2366394541	-0.284418
C	 1.0176248267	-0.3581460469	 1.1875837548	 0.267955
O	 0.9946295845	-0.4822010579	 2.3756275436	-0.29156
H	 0.0178102916	 2.1271904558	 0.3559768601	 0.127135
H	-1.2010545761	 1.539199784	-0.792348891	 0.134785
H	-1.4476023988	 1.3158655381	 0.9521865853	 0.135023
H	-0.7241555364	-0.8303727453	-0.0892824607	 0.105997
H	 2.5718413534	-2.6206255011	 0.4383518153	 0.109956
H	 3.0922315634	-1.9214538296	-1.1184470217	 0.120148
H	 4.1793230454	-1.1036397742	 1.65462305	 0.123963
H	 5.1063341217	-1.0948204096	 0.1377417409	 0.106144
H	 3.6816974769	 0.7815748797	-0.7407450991	 0.120163
H	 3.4011847041	 1.1953706082	 0.9721059788	 0.110357
