15
gdb 76589	3.5758	0.81577	0.79605	1.849	86.42	-0.2298	-0.0226	0.2071	1460.6025	0.109656	-420.544896	-420.535724	-420.53478	-420.579132	33.777	
O	 0.036776938	 1.3514969692	 0.3918512596	-0.424116
C	 0.040510816	-0.0208525096	 0.1426642607	 0.035116
C	-0.3943964761	-0.8450869574	 1.31210242	 0.121109
O	-0.71206957	-0.1981835011	 2.4846716095	-0.414309
C	-1.3179603009	-0.7411531808	 0.0711992556	-0.371268
C	-2.4945627982	 0.0551577629	 0.1019099271	 0.345731
C	-3.4738164844	 0.7719142704	 0.1145978252	-0.176904
C	-4.5791375519	 1.562640597	 0.1334015032	 0.28593
C	-5.5586265971	 2.2698073946	 0.1464520111	-0.550892
H	-0.6875492211	 1.7559408566	-0.102952555	 0.304616
H	 0.8312014601	-0.3611694565	-0.5218756545	 0.110973
H	 0.0554958908	-1.8194170221	 1.4742579589	 0.118518
H	-0.5830623021	 0.7471773612	 2.3135958156	 0.297302
H	-1.3513290197	-1.6223700144	-0.5635392139	 0.125195
H	-6.4225708434	 2.88665849	 0.1620057571	 0.192999
