19
gdb 119479	4.99574	0.78177	0.75529	1.6513	71.52	-0.2505	0.0711	0.3216	1519.8656	0.157801	-460.116549	-460.10739	-460.106446	-460.151052	33.928	
O	 0.118162984	 1.4145018868	 0.2107757733	-0.415592
C	 0.0573545768	 0.0022261677	 0.1120473421	-0.06037
C	-1.3672751798	-0.5042134276	-0.1560740747	-0.338881
C	-1.4275074702	-1.9890486834	-0.3275203993	 0.431575
C	-0.9086216495	-2.8590831987	-1.482807543	-0.345756
C	-2.0066306921	-3.9287385722	-1.0993428323	 0.144911
O	-1.5879982793	-5.2003229674	-0.6949012223	-0.433685
C	-2.4667073254	-2.9762475543	 0.0184344912	-0.100902
O	-1.3098723034	-2.810349619	 0.859118716	-0.309313
H	-0.3602356466	 1.6758624174	 1.0040347309	 0.28323
H	 0.7123134999	-0.2654399264	-0.7239805747	 0.117643
H	 0.4589723813	-0.4876588164	 1.0113195587	 0.107306
H	-2.0195076795	-0.2185055904	 0.6786544992	 0.101546
H	-1.7514658202	-0.0125851877	-1.0575302694	 0.11482
H	-1.0736231176	-2.4231193817	-2.4715094237	 0.110343
H	 0.1278025669	-3.1937751448	-1.3945834424	 0.108192
H	-2.7470013499	-4.0645969616	-1.8910261951	 0.095331
H	-1.0457975021	-5.0612691528	 0.0926174381	 0.288269
H	-3.4374359234	-2.8634580977	 0.4896460676	 0.101331
