18
gdb 62603	3.47078	1.70736	1.51659	2.5482	72.63	-0.2271	0.0603	0.2873	915.9285	0.148116	-401.859753	-401.85265	-401.851706	-401.890692	29.466	
C	-0.0701568538	 1.61261423	 0.0057540015	-0.465631
C	 0.0130710682	 0.0964710513	 0.0062021854	 0.415895
O	-1.2685446074	-0.5015871422	-0.1420999089	-0.481336
C	 1.0708612689	-0.6273786857	-0.885734671	-0.142886
C	 2.4564382191	-0.244697981	-0.3385386295	-0.057826
N	 2.6717065818	-1.5064462149	 0.4442336747	-0.185134
C	 2.1976404435	-0.2603621544	 1.1339796267	-0.060401
C	 0.7115382557	-0.6522137012	 1.1729251819	-0.100911
C	 1.1783566565	-1.7645075613	 0.180840307	 0.020095
H	 0.9115568266	 2.0657141172	 0.1694344083	 0.124844
H	-0.4518290812	 1.980265545	-0.9551187587	 0.105883
H	-0.751110425	 1.955997662	 0.7906941407	 0.126693
H	-1.6265951422	-0.2285806715	-0.9938426804	 0.27753
H	 0.9279254912	-0.7796305135	-1.9546359661	 0.066475
H	 3.2738773206	 0.2788136101	-0.8188145411	 0.095462
H	 2.8005814139	 0.2485602999	 1.8757066554	 0.09596
H	 0.2091814518	-0.8269245185	 2.1214358248	 0.077954
H	 0.7952243619	-2.7772975613	 0.1034587292	 0.087332
