18
gdb 41637	3.53794	1.92882	1.60272	1.2393	80.3	-0.2181	-0.0126	0.2055	870.6328	0.150536	-364.712696	-364.706548	-364.705604	-364.742679	26.828	
C	-0.1282184175	 1.5162346094	 0.0439851978	-0.253758
C	 1.2640075046	 2.2391905214	-0.0292405535	-0.22787
C	 2.1684172019	 1.5995127766	-1.1078862279	 0.081599
C	 1.4759696824	 0.5493932793	-1.9849140329	-0.185046
C	 2.8359720564	-0.2142432426	-2.0313622505	-0.049305
C	 2.4698554821	-0.8411735893	-0.7475361421	-0.107336
N	 3.2339862494	 0.5080749498	-0.7815066469	-0.181388
C	 1.0619276573	-0.3548152347	-0.8063593864	 0.19288
C	 0.2183102405	 0.0468103402	 0.144417	-0.148694
H	-0.709927759	 1.868302673	 0.8990682719	 0.102147
H	-0.7054685327	 1.7544989988	-0.856661448	 0.113959
H	 1.1260786219	 3.3030831913	-0.2547682907	 0.096724
H	 1.7535837973	 2.1826577978	 0.9489522233	 0.115777
H	 2.7303575284	 2.3558936182	-1.6613389039	 0.0804
H	 0.7956109906	 0.7793347245	-2.8032200646	 0.076714
H	 3.5250127407	-0.4770979816	-2.8231261581	 0.097304
H	 2.951118545	-1.6172749308	-0.1676317642	 0.10053
H	 0.1321886207	-0.4693200212	 1.0965425067	 0.095363
