18
gdb 64056	2.33593	1.7972	1.31161	3.918	74.5	-0.2449	-0.0171	0.2279	1012.7459	0.148807	-435.294882	-435.286479	-435.285535	-435.327335	32.837	
C	 0.8470798006	 1.251040336	-0.2025550909	-0.41222
C	-0.0769268818	 0.0399387025	 0.0348052185	 0.297476
O	-1.4128285473	 0.4712290057	 0.1601096253	-0.474283
C	 0.0092642554	-0.9611069172	-1.1334813273	-0.194897
N	 1.2718190494	-1.6921725245	-1.2189552487	-0.237565
C	 1.8576628449	-1.9329072771	-0.1216933857	 0.082707
N	 1.4258319105	-1.5284256705	 1.1434985044	-0.35616
C	 0.3583088434	-0.66573615	 1.3184245371	 0.358759
N	-0.2416165031	-0.3869658024	 2.4061877424	-0.554917
H	 1.8820562506	 0.9498581296	-0.3895275283	 0.121235
H	 0.4814276881	 1.7987461498	-1.0754320749	 0.129283
H	 0.8207419022	 1.918304942	 0.662941913	 0.124551
H	-1.5869064494	 0.5028333169	 1.1143626805	 0.291342
H	-0.8118893613	-1.6838361191	-1.0317138494	 0.122941
H	-0.157005922	-0.4295017661	-2.0751440005	 0.117922
H	 2.7804309871	-2.5118970495	-0.1033075247	 0.121494
H	 1.8790546921	-1.9145823579	 1.9584410501	 0.250088
H	 0.1199431007	-0.8935996181	 3.2143020193	 0.212245
