19
gdb 106152	2.51615	1.59657	1.25469	2.2787	75.79	-0.2278	0.0846	0.3124	1087.4214	0.157744	-422.949022	-422.940462	-422.939518	-422.982125	32.363	
C	-0.3455653505	 1.2504613488	-0.0018259848	-0.257106
O	 0.2210293934	-0.0504169258	 0.1002482916	-0.277568
C	 0.771224247	-0.5076257798	-1.0556203695	 0.322987
C	 0.2065363393	-0.8645899746	-2.4345637724	-0.240144
C	 1.2844176216	-0.0556979771	-3.1512509423	-0.228538
C	 2.1273940199	-0.254504286	-1.866803245	-0.012144
O	 2.3946067064	-1.6823123405	-1.8542800314	-0.319683
C	 1.0110079272	-1.882350159	-1.5529325922	 0.380074
C	 0.5341803679	-3.2279227683	-1.1286758187	-0.51107
H	 0.4218921654	 2.004192342	-0.2240864467	 0.116628
H	-1.1152978893	 1.2865739895	-0.7834644069	 0.118637
H	-0.797122461	 1.4756660882	 0.9661892519	 0.132657
H	-0.8181411091	-1.0610593995	-2.7244838044	 0.089981
H	 1.7252565541	-0.4581408314	-4.0681654318	 0.102146
H	 0.9858983133	 0.9867646206	-3.2927616765	 0.097594
H	 2.9918886229	 0.3543609272	-1.6110070602	 0.08755
H	 1.092965248	-3.5791594974	-0.2557755833	 0.135573
H	-0.5258561251	-3.1845148681	-0.8629144431	 0.130405
H	 0.6569636785	-3.9583111889	-1.9350942543	 0.13202
