19
gdb 118891	3.3523	1.06375	0.97413	1.447	71.78	-0.2529	0.0691	0.3219	1284.5942	0.157157	-460.104254	-460.095233	-460.094289	-460.138251	33.545	
C	-0.0607293415	 1.3740056519	 0.0130963208	-0.226649
O	 0.0983760048	-0.0260053911	-0.0222277588	-0.258385
C	 0.662708162	-0.5597373342	 1.1640843359	-0.123145
C	 0.6556861925	-2.0698311569	 0.9957455199	 0.392721
O	-0.6510812473	-2.5305373645	 0.7444440918	-0.496188
C	 1.7346972666	-2.6956374533	 0.020061819	-0.311275
C	 2.2869439771	-3.471707232	 1.2205264406	 0.03653
O	 2.6650378289	-2.5022637501	 2.2112527496	-0.250698
C	 1.2903459856	-2.8928415631	 2.1329734007	-0.033155
H	 0.9048738766	 1.8871032223	 0.1355211931	 0.111983
H	-0.505002127	 1.6775770896	-0.9379253671	 0.129586
H	-0.7238005255	 1.6864325428	 0.8344081961	 0.109702
H	 1.6846582606	-0.1907684161	 1.3225889575	 0.109785
H	 0.0498271789	-0.2795887772	 2.0370275905	 0.090115
H	-1.0270811524	-1.9081608121	 0.1080834518	 0.287872
H	 1.2366694274	-3.33349237	-0.7123592261	 0.114746
H	 2.4371893485	-2.0197672751	-0.4727020972	 0.105245
H	 2.7932384859	-4.4290046896	 1.2539598286	 0.105999
H	 0.8098605685	-3.2794478312	 3.0243375634	 0.105211
