14
gdb 19389	3.18697	2.30913	1.60688	2.975	62.56	-0.2428	-0.0291	0.2136	792.9135	0.10632	-382.492216	-382.485556	-382.484612	-382.523055	25.17	
O	 0.0386157731	 0.0231265023	-0.0911653891	-0.311113
C	-0.0017177973	 1.2139874246	 0.0018191839	 0.367703
C	-1.112739525	 2.277709023	-0.0515852249	-0.112197
O	-0.8918499423	 3.1133052318	 1.1062400288	-0.232452
C	-0.0693109608	 3.3335852719	-0.0380395279	-0.09369
C	 1.0549685585	 2.3142849888	 0.0410367096	 0.236076
C	 2.3683276813	 2.3462256353	 0.7659955652	-0.311015
C	 2.3479625064	 2.2471589661	-0.7337750164	-0.323808
H	-2.1077988518	 2.2549791898	-0.478705196	 0.124847
H	-0.0906556379	 4.3064898011	-0.5131045818	 0.124237
H	 2.6688146106	 3.2852545662	 1.2181164979	 0.128348
H	 2.6339385024	 1.4606586076	 1.3335491947	 0.137846
H	 2.5897297455	 1.2941348079	-1.1923598697	 0.139459
H	 2.6308754974	 3.1195810737	-1.3132984142	 0.125761
