16
gdb 46427	3.95657	0.81527	0.71704	4.7031	69.16	-0.2893	-0.0095	0.2798	1493.8042	0.124545	-437.92704	-437.918492	-437.917548	-437.961467	29.846	
O	 0.1051957887	 0.1133998114	 0.3477374472	-0.321404
C	 0.0562517444	 1.2541633867	 0.0136967356	 0.467392
O	-1.0076088954	 1.9364971905	-0.5122090232	-0.232698
C	-0.2524511378	 3.1926979191	-0.5452284804	-0.110806
C	 0.9915611481	 2.4708646977	 0.0102594644	-0.198248
C	 1.5509109974	 2.8919742556	 1.3673717785	-0.218965
C	 2.5545883758	 1.8492445382	 1.9054310669	-0.34315
C	 3.0936157866	 2.2289531348	 3.2084293143	 0.258536
N	 3.5103622393	 2.5507285874	 4.2368907208	-0.299699
H	-0.1838341987	 3.57663086	-1.5641801847	 0.13461
H	-0.7101771695	 3.9310852507	 0.1167705604	 0.134212
H	 1.7933751493	 2.3594081493	-0.7261795279	 0.121613
H	 2.0429361436	 3.8661343851	 1.2797547281	 0.13271
H	 0.7343362308	 3.0109708336	 2.0876222881	 0.135497
H	 2.0683590474	 0.8711989754	 1.9851804785	 0.186537
H	 3.3894293799	 1.7295587146	 1.2047999736	 0.153864
