20
gdb 32657	2.09483	1.46951	0.93111	3.3049	82.73	-0.1906	0.0475	0.2381	1290.9151	0.170993	-403.176615	-403.167028	-403.166084	-403.212646	34.566	
C	 0.0015392184	 1.5400037534	 0.0432701105	-0.373751
C	-0.0328143498	 0.0100897705	-0.0359085618	-0.161232
N	-1.3775411682	-0.5407870643	-0.0293876826	-0.043902
C	-2.0667175362	-0.8888087436	 1.1116217397	-0.109688
C	-3.3334423137	-1.2789219375	 0.7529657187	-0.171614
C	-3.4264143479	-1.1580868335	-0.660500212	-0.217964
C	-2.2118756584	-0.6994114009	-1.1180792688	 0.288792
C	-1.7782754688	-0.4024454956	-2.5193510938	-0.193297
O	-2.7762642416	-0.8945019995	-3.3966360553	-0.408812
H	 1.0363212241	 1.8971713309	 0.0526132904	 0.117749
H	-0.5082677961	 1.9918026869	-0.8125582577	 0.12935
H	-0.4937065517	 1.8888887409	 0.9538711127	 0.132519
H	 0.4842926706	-0.3347267053	-0.9373599027	 0.117202
H	 0.5029560432	-0.4211319798	 0.8155451731	 0.118985
H	-1.5843940638	-0.8302637975	 2.0750392912	 0.106631
H	-4.1026799012	-1.6262201865	 1.4256755031	 0.089118
H	-4.2709854421	-1.3931574638	-1.2873456564	 0.104248
H	-1.6330686529	 0.6833019901	-2.6642841237	 0.09383
H	-0.8016613294	-0.8752481658	-2.7286383506	 0.092959
H	-2.5656970643	-0.5894115192	-4.2833918441	 0.288879
