17
gdb 70889	2.5057	1.5957	1.40368	1.0841	68.12	-0.2224	0.058	0.2804	990.9728	0.134357	-458.893198	-458.884927	-458.883983	-458.925244	32.873	
O	-0.1852779357	 1.2904925815	-0.1091049658	-0.463883
C	 0.0052703149	-0.0723202744	-0.0585462335	 0.348198
C	 0.9962976492	-0.9066746558	-0.8709770051	-0.365268
C	 0.1480898209	-2.131851248	-0.4163520076	 0.323418
O	 0.1090831292	-3.3151756311	-1.1306040165	-0.477605
C	 0.3922204942	-2.2323164255	 1.1042911637	-0.264865
C	-0.3584491086	-0.9060400404	 1.2158109034	-0.230395
C	-1.0678501638	-1.105760835	-0.1112653303	 0.242509
O	-2.3639854915	-1.0083361102	-0.5351771982	-0.445694
H	 0.4778096825	 1.7117101926	 0.4490183499	 0.286079
H	 0.8791401769	-0.7069497419	-1.9416729372	 0.097668
H	 2.0587071009	-0.9052309418	-0.5995150005	 0.088333
H	-0.0194132301	-3.1061518547	-2.0620655218	 0.284772
H	-0.1716695046	-3.0609106579	 1.5429775491	 0.101984
H	 1.4367812375	-2.2792241143	 1.4314632618	 0.090953
H	-0.7278252776	-0.3937079584	 2.0950816701	 0.090128
H	-2.8917437243	-1.6613873547	-0.0614921013	 0.293668
