18
gdb 85668	2.52456	1.26629	1.09962	3.7521	72.79	-0.2743	0.0292	0.3035	1161.8776	0.145503	-439.090999	-439.081412	-439.080468	-439.124999	35.485	
C	-0.123016492	 1.525746853	-0.0699682576	-0.453961
C	-0.0355330828	 0.0068309204	-0.0841609554	 0.353135
O	-1.2495769332	-0.5918565761	-0.4581929638	-0.46699
C	 1.1579997066	-0.549101003	-0.8982388508	 0.105061
O	 1.6071350559	 0.2940008428	-1.9252796302	-0.42689
C	 1.9919928483	-0.6638688168	 0.406836891	-0.296798
C	 0.6546460009	-0.6150945564	 1.203693819	-0.195358
C	 0.6051437377	 0.1199693045	 2.4508430012	 0.267205
N	 0.5544925852	 0.7327490194	 3.4310709182	-0.337005
H	 0.8318451277	 1.9889685038	 0.1877941785	 0.139928
H	-0.4170978528	 1.8818217977	-1.0597490535	 0.141729
H	-0.8607399545	 1.8548748069	 0.6706973464	 0.126025
H	-1.9766583022	-0.0725375581	-0.0980852616	 0.285862
H	 0.8819485059	-1.5427328914	-1.2743579268	 0.08941
H	 2.1958439622	-0.2021542145	-2.5012624937	 0.292093
H	 2.6158654835	-1.5472567406	 0.5472816155	 0.115542
H	 2.5890957087	 0.2358768524	 0.5669537156	 0.131779
H	 0.2485127549	-1.6186355239	 1.352993018	 0.129234
