19
gdb 62172	6.36388	0.5318	0.51197	1.0601	74.82	-0.2529	-0.0294	0.2235	2044.6654	0.154893	-460.178154	-460.167571	-460.166627	-460.215625	35.83	
O	-0.0324835089	 1.2843560654	 0.0057797819	-0.42207
C	-0.0789491362	-0.1390719204	-0.0062986238	 0.118581
C	 0.5704107753	-0.721470784	-1.2694052761	-0.2161
C	-0.0775944979	-0.1880549482	-2.557059494	-0.274386
C	 0.7116506182	-0.5655463954	-3.78749843	 0.15782
O	 0.2735753887	-1.1597492946	-4.7380005921	-0.235672
C	 0.5330678478	-0.7139397567	 1.279117481	-0.311578
C	-0.0981802535	-0.0993280493	 2.5119897019	 0.169566
O	 0.5173595067	 0.4007910667	 3.4160088162	-0.237044
H	 0.8796312894	 1.5553720701	 0.1639170885	 0.287451
H	-1.1516185077	-0.3723069335	-0.0227554765	 0.101161
H	 1.641656701	-0.4729237224	-1.2598804456	 0.098074
H	 0.5050185726	-1.8156593255	-1.23926421	 0.115334
H	-1.1033491625	-0.5501834943	-2.6722534313	 0.121814
H	-0.1051744914	 0.9080752587	-2.4918089505	 0.137085
H	 1.7811409481	-0.245160692	-3.7575476535	 0.06784
H	 0.3627987048	-1.7991573617	 1.3098197724	 0.12751
H	 1.6151194242	-0.5426033248	 1.3176388702	 0.115991
H	-1.2113137686	-0.1473710881	 2.5288567514	 0.078624
