18
gdb 113184	3.38459	1.0049	0.89193	17.7162	74.31	-0.1689	-0.0428	0.126	1320.0712	0.146987	-476.168097	-476.158913	-476.157969	-476.202488	33.666	
N	-0.5727858762	 0.9571274809	-0.0050177338	-0.409797
H	-0.6047018958	-0.0651005966	 0.0275010813	 0.318224
H	 0.0810300926	 1.2489687258	-0.7337002296	 0.328074
H	-1.4946656941	 1.3241832545	-0.2619926373	 0.323445
C	-0.1944997642	 1.6250434861	 1.3501919882	-0.232115
C	-0.4166162824	 3.0837472311	 1.2686858147	-0.127907
C	-1.8364086396	 3.5984651813	 0.9902799748	-0.380416
C	-1.3078402139	 3.6776513778	 2.3768850743	 0.313915
O	-1.808619303	 2.8297406793	 3.3393560946	-0.487291
C	-0.8232163522	 5.0288286236	 2.97727096	 0.340769
O	-0.984373064	 5.0325018047	 4.2224633993	-0.501591
O	-0.3493868841	 5.8484566125	 2.1828019347	-0.477598
H	-0.8520581812	 1.168565796	 2.0966860321	 0.182129
H	 0.8415025851	 1.3354222566	 1.5347379986	 0.158353
H	 0.3972889644	 3.7227657416	 0.9442331882	 0.126192
H	-1.896010529	 4.5221994293	 0.4263947988	 0.150837
H	-2.6364097982	 2.8776376652	 0.8150006407	 0.083092
H	-1.6295638541	 3.4197884302	 4.1300741903	 0.291684
