22
gdb 10390	2.46806	1.83687	1.36093	1.4918	77.45	-0.2398	0.0801	0.3199	1054.5428	0.199375	-350.200968	-350.191683	-350.190739	-350.234854	34.331	
C	 0.0094593081	 1.5532912467	-0.1516925821	-0.390623
C	-0.1149618844	 0.0365337334	 0.0271678083	-0.219806
C	 0.8050102598	-0.5515558261	 1.104343644	 0.449804
C	 0.4544267198	-0.0622939104	 2.5130958001	-0.226426
C	 1.433812309	-0.4881973358	 3.6101504161	-0.398074
C	 1.0566209353	-2.0754803097	 0.9354149745	-0.339705
C	 2.4836805566	-1.6606482809	 0.536451544	-0.062092
O	 2.2038444501	-0.2680400517	 0.7781565471	-0.323031
H	 1.0589632792	 1.8298889885	-0.2864205845	 0.137171
H	-0.5469751358	 1.8834406966	-1.0340615997	 0.108693
H	-0.3816532526	 2.1073566315	 0.7066361071	 0.115382
H	-1.1516684656	-0.2419725997	 0.2599708553	 0.091187
H	 0.1306580111	-0.452273944	-0.9233943306	 0.091778
H	 0.4048825161	 1.0322687364	 2.4963621275	 0.105964
H	-0.5593937504	-0.4133063373	 2.7484122433	 0.094422
H	 1.4541354272	-1.5738063247	 3.7508427403	 0.110674
H	 2.4466201169	-0.1592836542	 3.3637459274	 0.135167
H	 1.1530808948	-0.0423422064	 4.5690481049	 0.110043
H	 0.98634336	-2.6652334476	 1.8501797269	 0.106899
H	 0.4619095441	-2.5555707867	 0.1559966457	 0.103363
H	 3.2897033558	-2.0320347381	 1.1805589832	 0.100285
H	 2.7554888948	-1.8480236697	-0.5100839588	 0.098923
