24
gdb 6533	3.03237	1.48358	1.21817	0.1044	85.86	-0.25	0.08	0.33	1154.9774	0.221164	-314.273329	-314.263039	-314.262095	-314.307733	38.642	
C	 0.2654470446	 1.4855278991	 0.2768174685	-0.378152
C	-0.1936653676	 0.0922665398	-0.1776219466	-0.242977
C	 0.5992429362	-0.476647852	-1.3535258756	 0.332183
C	 0.4058499863	 0.32720084	-2.6314600143	-0.461706
C	 1.974386724	-1.0548125643	-1.0747243719	-0.368807
C	 0.8390990801	-1.9854308164	-1.4509919323	 0.287738
C	 0.2962060862	-2.9267678128	-0.3854629321	-0.450969
C	 0.8751182104	-2.66284613	-2.8132327337	-0.449357
H	 1.3296048078	 1.481976428	 0.5362067868	 0.116016
H	 0.1144512872	 2.2442481851	-0.4965647937	 0.116262
H	-0.2941627284	 1.8059629456	 1.1614168288	 0.107976
H	-0.1300275553	-0.5812433421	 0.6803171807	 0.092542
H	-1.2574186348	 0.1338641821	-0.4504351052	 0.090163
H	 0.6646243821	 1.3791396316	-2.4724807568	 0.115923
H	 1.0284279911	-0.0290283024	-3.4536023532	 0.112414
H	-0.6388021431	 0.2937873515	-2.9650278541	 0.110166
H	 2.7623263377	-0.8796620253	-1.8016622557	 0.098713
H	 2.3234590215	-1.069473619	-0.0459435915	 0.099168
H	 0.3827464301	-2.5280136967	 0.6268888933	 0.115215
H	-0.7592526076	-3.1672081706	-0.5628193941	 0.111261
H	 0.8533630668	-3.8708985075	-0.406344806	 0.110718
H	 1.4287015597	-3.6070617259	-2.7473022185	 0.111383
H	-0.1357610592	-2.9020436177	-3.1656957823	 0.111289
H	 1.3608719741	-2.05851423	-3.5809714608	 0.112838
