18
gdb 66799	3.37308	1.9831	1.98021	1.6737	76.86	-0.2057	0.0543	0.26	823.283	0.149566	-364.688247	-364.68219	-364.681246	-364.718217	26.189	
C	-0.0105475634	 1.5299258739	 0.0238683538	-0.521999
C	-0.0265252375	 0.0349339615	-0.0456189976	 0.393741
C	 0.6344764309	-0.8653532609	-1.1421320514	-0.129602
C	-0.6121020923	-1.8243491016	-1.084974126	-0.060156
C	 0.0806784348	-2.656900148	 0.058143342	-0.067499
C	 1.2894013633	-1.6733039646	 0.0170162208	-0.009062
N	 0.6530884472	-0.7699556809	 1.0762128888	-0.218869
C	-0.5584359459	-1.7046316341	 1.1140248577	-0.009055
C	-1.2827199146	-0.897813071	-0.0039092793	-0.129611
H	 1.0190060042	 1.905016875	 0.0350713126	 0.123865
H	-0.5272749703	 1.9690990988	-0.8374123156	 0.114776
H	-0.5056828063	 1.8795364073	 0.9367850194	 0.123821
H	 1.1249338268	-0.5161601815	-2.0499623727	 0.062212
H	-1.1186155803	-2.2462221864	-1.9501597489	 0.064965
H	 0.1291166999	-3.7432106958	 0.1087126711	 0.06463
H	 2.3435523878	-1.9353457073	 0.1126277421	 0.067815
H	-0.9723449172	-1.9915645925	 2.0811805017	 0.067816
H	-2.3229703471	-0.5745201217	-0.0029749383	 0.062213
