21
gdb 104283	2.25041	1.20018	1.0402	1.2709	79.28	-0.252	-0.0344	0.2176	1291.3644	0.179742	-424.224948	-424.214875	-424.213931	-424.260807	36.227	
C	 0.1167134458	 1.4680581847	-0.0715058132	-0.39862
C	-0.0308469644	-0.0016746972	 0.3388711232	-0.215434
C	-1.4358207845	-0.5657646188	 0.1002202902	 0.415254
C	-2.5203128777	 0.1561560739	 0.8873325372	-0.43623
O	-1.7492260227	-0.5676051878	-1.323937781	-0.317391
C	-1.8156006273	-2.0006386998	-1.3661076591	-0.094989
C	-1.5712866569	-2.1372994803	 0.1507597139	-0.198576
C	-0.380932677	-2.9505735838	 0.5820966149	 0.14582
O	-0.344359988	-3.6199182261	 1.5834098461	-0.251653
H	 1.1641823637	 1.7772899777	-0.0128728789	 0.115764
H	-0.2227516553	 1.6095319058	-1.1016586783	 0.139298
H	-0.4598077443	 2.1367566115	 0.5738483035	 0.119783
H	 0.6853635284	-0.5962410791	-0.2379970594	 0.098146
H	 0.2290721556	-0.1339844999	 1.3971370847	 0.106776
H	-2.5688773882	 1.2096103003	 0.5994302678	 0.13261
H	-3.4981795287	-0.2910670355	 0.6900524515	 0.121441
H	-2.3211427878	 0.0983421957	 1.9628101002	 0.123666
H	-2.7866761333	-2.3637044009	-1.7203243635	 0.113149
H	-1.0263473705	-2.4319758774	-1.9979367929	 0.10324
H	-2.435625419	-2.4611028577	 0.7317703616	 0.099061
H	 0.4948310425	-2.9075450052	-0.1055501784	 0.078885
