19
gdb 80354	3.26426	1.27603	1.11742	1.8437	81.28	-0.2453	0.0559	0.3011	1142.556	0.157387	-385.820627	-385.811663	-385.810719	-385.853561	35.114	
C	-0.1991243381	 1.6123910623	 0.0271709064	-0.461917
C	-0.0054318664	 0.0893417111	 0.0249544254	 0.121977
C	 1.1254713519	-0.5188784672	-0.8975597267	-0.286042
C	 1.7331508907	-1.23550848	 0.3136576079	-0.099032
C	 2.1522595004	-0.2427338026	 1.3511585486	 0.074632
O	 2.6531050938	 1.0304727696	 1.0464217344	-0.414498
C	 0.6972602687	-0.5607991374	 1.2465390184	-0.112933
C	-1.2783147536	-0.5791768823	-0.224669478	 0.307858
C	-2.3354070187	-1.1174829045	-0.4241294672	-0.471727
H	 0.7523475477	 2.1155312936	 0.1977425847	 0.144047
H	-0.6191158172	 1.9414159558	-0.9287287285	 0.115958
H	-0.8990543403	 1.9048223109	 0.816199839	 0.119201
H	 0.7245972962	-1.1926983715	-1.6539235995	 0.117767
H	 1.7721069179	 0.2228489674	-1.3748419663	 0.096293
H	 2.0905233243	-2.2584074877	 0.3141186996	 0.084869
H	 2.6112449145	-0.6945368681	 2.2322719067	 0.091539
H	 3.5359173173	 0.91900329	 0.677349287	 0.287525
H	 0.1505891681	-0.9779231463	 2.0840864612	 0.095237
H	-3.268171697	-1.5913369031	-0.6045241733	 0.189246
