21
gdb 106977	4.07216	1.06082	0.94373	1.6826	84.27	-0.2313	0.0132	0.2445	1343.4045	0.181522	-387.097602	-387.088472	-387.087528	-387.131298	34.729	
C	-0.4012124742	 1.4490530052	 0.2215078709	-0.379623
C	 0.1397472153	 0.0449101456	-0.0799454212	-0.277276
C	 0.9738344619	-0.5100591753	 1.0471156056	 0.432635
C	 2.3299301922	 0.1055549032	 1.4112212426	-0.330204
C	 3.0793430538	-1.0469471167	 2.0443827804	-0.185757
C	 2.3768874142	-2.1857296359	 2.0495588645	 0.347988
C	 2.7825614905	-3.5225567063	 2.5825948316	-0.500912
C	 1.0271038634	-1.9268274236	 1.4502268492	-0.155248
O	 0.245602019	-0.9633460419	 2.1998716944	-0.304348
H	 0.4108187818	 2.1699164094	 0.3632999415	 0.11724
H	-1.0281105281	 1.8115498134	-0.5984323789	 0.111807
H	-1.0051286702	 1.4383247371	 1.1337581352	 0.134268
H	-0.6955570201	-0.6397317508	-0.2624213919	 0.104653
H	 0.744686533	 0.0641635783	-0.9955174973	 0.097362
H	 2.843321418	 0.4890764742	 0.518996493	 0.105681
H	 2.2142793918	 0.952140149	 2.0987214632	 0.121798
H	 4.0675493645	-0.9281767034	 2.4767548931	 0.090963
H	 3.808151346	-3.5083835664	 2.9612507869	 0.124484
H	 2.1215891092	-3.8417495104	 3.3980838742	 0.134518
H	 2.7190855935	-4.2968491336	 1.8074013737	 0.124698
H	 0.4464685445	-2.7136314111	 0.9739694292	 0.085273
