20
gdb 63925	3.09614	1.45943	1.27363	1.5167	78.05	-0.2418	0.0187	0.2606	1071.896	0.171551	-403.162174	-403.153961	-403.153017	-403.194713	32.173	
C	 0.1280459835	 1.5128528978	-0.0386000577	-0.437994
C	 0.0180010077	-0.0072736519	-0.0116432198	 0.324116
C	-1.4389492733	-0.4565082339	-0.1443555894	-0.438985
C	 0.9632614374	-0.780649685	-1.0027522766	-0.30384
C	 1.4903104385	-1.644604129	 0.1632280071	 0.089193
O	 2.8876768114	-1.4411458748	 0.4775397561	-0.228639
C	 2.8879013805	-0.4621244519	 1.4179359107	 0.107516
N	 1.7934280561	-0.0032642823	 1.8680864495	-0.2635
C	 0.7285121779	-0.7459624111	 1.1802365591	-0.053769
H	 1.158650385	 1.8428736092	 0.1128165271	 0.121927
H	-0.2219075518	 1.9014066655	-1.0020915614	 0.107184
H	-0.4821609807	 1.9674653409	 0.7491651874	 0.117525
H	-1.8676864935	-0.1099217522	-1.0914342245	 0.114861
H	-1.5318244309	-1.5482684137	-0.1180414283	 0.10974
H	-2.0492663269	-0.050568081	 0.6701077593	 0.118549
H	 0.4591944865	-1.3245418721	-1.8057966706	 0.10241
H	 1.7517208398	-0.1627215758	-1.4394036783	 0.109005
H	 1.3070330599	-2.7179103752	 0.1203417699	 0.091136
H	 3.8769583439	-0.1432515141	 1.7289024728	 0.140175
H	 0.0560476189	-1.1997929595	 1.9138738678	 0.07339
