17
gdb 5306	4.37113	1.57949	1.27029	1.2727	69.67	-0.2359	0.0089	0.2447	981.9546	0.142711	-363.907633	-363.899821	-363.898877	-363.940497	28.479	
C	 0.1588189084	 1.6153718818	-0.0936392397	-0.378231
C	 0.0202036541	 0.100138631	 0.0875742716	-0.090108
C	 0.465289495	-0.672632826	-1.1705719673	-0.388432
C	 0.7799698684	-0.3642107883	 1.2912735972	 0.41425
N	 1.6153415145	 0.2887382269	 2.0371360578	-0.312469
C	 2.0288475124	-0.6302131874	 2.9954309541	-0.117372
C	 1.4091559479	-1.8098032919	 2.7720276244	-0.045474
O	 0.6013242189	-1.6577346096	 1.6793304773	-0.184753
H	 1.2034410913	 1.8917672839	-0.260932081	 0.133318
H	-0.4297576542	 1.9440777574	-0.9553009639	 0.107939
H	-0.1860416171	 2.1547856709	 0.7916878296	 0.12751
H	-1.0370292777	-0.1403930606	 0.2656554249	 0.099374
H	 1.5137118329	-0.4593353937	-1.4035728343	 0.125566
H	 0.3587969083	-1.7515377104	-1.031474242	 0.127912
H	-0.1418513806	-0.3748709382	-2.030817103	 0.116418
H	 2.7354226571	-0.3690734996	 3.7670195183	 0.121954
H	 1.4118394705	-2.7789974263	 3.239814876	 0.142599
