15
gdb 52366	6.21596	0.5765	0.53102	2.8715	70.41	-0.2776	-0.098	0.1797	1913.6	0.10993	-453.954093	-453.94431	-453.943366	-453.991301	31.719	
N	-0.1986902858	 1.326392412	 0.0111815642	-0.431451
C	-0.0836343909	 0.0716278607	 0.0036014671	 0.127956
O	-1.1912641466	-0.7024129455	 0.0085383934	-0.188996
C	-0.9704244724	-2.1093911068	-0.0018305861	-0.087129
C	-2.3454321302	-2.7616853481	 0.0080157905	-0.317906
C	-2.2643568211	-4.2663908978	-0.0008112862	 0.285659
O	-1.2402025915	-4.9025790487	-0.0139878486	-0.264024
C	-3.5712076612	-4.9594081735	 0.008555636	 0.237058
N	-4.5972496772	-5.4921664008	 0.015928077	-0.286492
H	 0.720799947	 1.7627236627	 0.0058927922	 0.234594
H	 0.8529743285	-0.5028169604	-0.0073317015	 0.092566
H	-0.4103933767	-2.4104786012	-0.8953328189	 0.131347
H	-0.3928689679	-2.4208610971	 0.8768345026	 0.131339
H	-2.9199436468	-2.4440900175	 0.8879298945	 0.167748
H	-2.9369783574	-2.4348720881	-0.8571108863	 0.167732
