18
gdb 18170	3.61237	1.53213	1.34265	1.3874	67.48	-0.2466	0.0746	0.3212	970.7585	0.153756	-384.894454	-384.886389	-384.885445	-384.92679	30.375	
O	-0.1477672389	 1.5236260421	-0.0653370917	-0.428451
C	 0.0451812014	 0.1231126986	 0.1162258123	-0.106478
C	-1.3130461312	-0.5371955473	-0.0348470608	 0.049959
C	-1.9723208881	-0.6539174223	-1.4463038491	-0.244986
C	-2.1761408372	-2.158233786	-1.2167167273	-0.119884
C	-0.8635792968	-2.8387864628	-0.9873011142	 0.110505
O	 0.3298313517	-2.4448868763	-1.6110637462	-0.417426
C	-1.4359249921	-2.0571259296	 0.1478047125	-0.132283
H	 0.7172517516	 1.9422579721	-0.0863941931	 0.283936
H	 0.7462165923	-0.2877251008	-0.6192332349	 0.110001
H	 0.4451643609	-0.0954311111	 1.1211323209	 0.075845
H	-2.0082016603	-0.0302380378	 0.641682916	 0.082894
H	-2.9052941696	-0.0944359858	-1.5253559274	 0.104354
H	-1.3325270364	-0.3915311286	-2.2939089663	 0.092963
H	-3.0719655341	-2.7149298057	-1.4674328665	 0.083414
H	-0.947305046	-3.9173238737	-0.8438015239	 0.086741
H	 0.2506533406	-2.643629489	-2.5503433969	 0.285076
H	-1.667195168	-2.5415220758	 1.0901945265	 0.083822
