16
gdb 22985	2.95102	1.14149	0.91603	3.5178	68.38	-0.2524	-0.0101	0.2422	1247.0783	0.122598	-475.007663	-474.998685	-474.997741	-475.042348	31.648	
C	-0.2132459067	 1.4777045459	-0.0381353015	-0.498129
C	-0.0114086506	-0.0027257041	 0.1212385404	 0.347664
N	 0.1357829012	-0.6376089833	 1.2201000312	-0.167704
O	 0.1085094771	 0.202159569	 2.3375076103	-0.390251
C	 0.0167943277	-0.8277296105	-1.1358799607	-0.269764
C	-0.0848296054	-2.3590415742	-1.0633483114	-0.098902
O	-1.3407959479	-2.31873209	-1.827095114	-0.235355
C	-1.3243940042	-0.955551974	-1.8893229702	 0.459146
O	-2.1289542672	-0.2276156627	-2.3751955119	-0.323182
H	 0.7226230702	 1.957178784	-0.3509053678	 0.14018
H	-0.9570534531	 1.6684505899	-0.817260121	 0.163652
H	-0.5320716086	 1.9306232139	 0.8997064157	 0.159466
H	 0.1934663439	-0.4239256339	 3.0643473006	 0.309773
H	 0.7998443756	-0.4624537598	-1.8098357813	 0.126829
H	 0.6749543563	-2.9231085517	-1.6056880576	 0.126557
H	-0.2501565784	-2.7642107185	-0.0668568009	 0.15002
