16
gdb 98793	4.2498	0.98414	0.91593	2.4689	65.84	-0.261	-0.0407	0.2203	1265.7723	0.123845	-475.039061	-475.030602	-475.029658	-475.073591	29.666	
O	 0.3031330737	 1.3213618512	-0.0581993048	-0.416207
C	 0.1022604792	-0.0533152691	-0.1652361384	-0.13885
C	-1.3680735359	-0.4128592384	-0.0148442248	 0.339833
O	-2.1990590359	 0.46079885	 0.0805966717	-0.311013
C	-1.7189235779	-1.890604591	 0.0529458427	-0.014595
C	-1.7466910982	-2.4131371685	 1.533496931	-0.20303
N	-3.1476903003	-2.7871032689	 1.7596534235	-0.250394
C	-3.7504437098	-2.5736279018	 0.6690377983	 0.132069
O	-3.0650446267	-2.0993706636	-0.4031586393	-0.207165
H	-0.5865628954	 1.7062321951	-0.0060016356	 0.297717
H	 0.4367775229	-0.4428425487	-1.1438980013	 0.120909
H	 0.6858918642	-0.6004376959	 0.5939503429	 0.12124
H	-1.0436343184	-2.4716885296	-0.5822777749	 0.111428
H	-1.0939768078	-3.2794850473	 1.6757953806	 0.130337
H	-1.4437369028	-1.6457639806	 2.2531609245	 0.134189
H	-4.8040380009	-2.7443447928	 0.4824939237	 0.153533
