20
gdb 8701	2.66433	1.57482	1.29477	2.9036	70.97	-0.2411	-0.0175	0.2236	1056.6117	0.173517	-386.150573	-386.140386	-386.139442	-386.185558	35.95	
C	 0.0322311238	 1.5754985713	 0.2234806431	-0.403974
C	-0.0068491346	 0.0629850497	-0.020175328	-0.200448
C	 0.751257405	-0.42737078	-1.2714251839	 0.1542
C	 2.2165961222	 0.0406560693	-1.3200502329	-0.437683
C	 0.7065962399	-1.9719479042	-1.2778777266	-0.098221
O	 1.3067080566	-2.4462677464	-2.4750487865	-0.429465
C	 0.043027816	 0.030306313	-2.5501261503	 0.168781
O	-1.1026011108	 0.4014972182	-2.6023295631	-0.270223
H	 1.0491483352	 1.9376943897	 0.4019778877	 0.113945
H	-0.3839230745	 2.1228357802	-0.6265062244	 0.134566
H	-0.5642528167	 1.8302152564	 1.1047767691	 0.114346
H	 0.4041943154	-0.4565560561	 0.8551112495	 0.08767
H	-1.0513230345	-0.2507582255	-0.1156937903	 0.114054
H	 2.7331965053	-0.2324925626	-0.3937700752	 0.116059
H	 2.7415116026	-0.4345341823	-2.1521705355	 0.139621
H	 2.2939979396	 1.1250220006	-1.4392629935	 0.121675
H	 1.2414030571	-2.3426968836	-0.3886522582	 0.091337
H	-0.3408628995	-2.2999073492	-1.2025106621	 0.101452
H	 1.2365194401	-3.4047913918	-2.4914643823	 0.293006
H	 0.6692632619	-0.0146809767	-3.4666387066	 0.089302
