26
gdb 58242	2.55283	1.05783	0.84369	1.2002	92.9	-0.2195	0.0825	0.302	1516.5697	0.238717	-369.588915	-369.577855	-369.576911	-369.624726	41.624	
C	-1.1108287374	 0.4408326497	 3.6100875857	-0.401862
C	-0.8874652408	-0.8609209356	 2.8235033327	 0.048888
C	-1.0042293732	-2.0603122374	 3.7771692406	-0.393426
C	-1.8346093251	-0.9757849138	 1.5972684761	 0.012218
C	-1.6994157461	 0.235282108	 0.654885935	-0.410095
C	-1.5596600927	-2.2520739445	 0.8113779521	 0.024096
C	-2.2436328123	-3.5472484984	 1.0935161761	-0.262037
N	-2.4903264718	-2.8451894074	-0.1583639231	-0.097125
C	-3.8208030501	-2.2899866943	-0.356105532	-0.313874
H	-0.4597575509	 0.4713308854	 4.4898177175	 0.109656
H	-0.8993012139	 1.3331282439	 3.016272466	 0.115416
H	-2.1463740713	 0.5110546497	 3.9654632772	 0.109783
H	 0.141712782	-0.842932215	 2.4335143309	 0.069904
H	-2.0252451676	-2.1535676929	 4.1671647065	 0.107009
H	-0.7453208435	-3.0032533638	 3.2913350959	 0.122258
H	-0.3365064357	-1.932040927	 4.6355139479	 0.106761
H	-2.8629495054	-1.0064302282	 1.9816240951	 0.066667
H	-2.3060323287	 0.1040300248	-0.2445736649	 0.119524
H	-2.0159085204	 1.1654681576	 1.1325979842	 0.115254
H	-0.6585285181	 0.3601887814	 0.3328515151	 0.113622
H	-0.5277110376	-2.3065223474	 0.4581659153	 0.083253
H	-1.7136915057	-4.4945650078	 1.0222812886	 0.109015
H	-3.0324728	-3.5299551286	 1.8460613861	 0.101337
H	-4.2951089522	-1.8832404056	 0.5509250213	 0.100071
H	-3.7823894792	-1.4965821991	-1.1092658919	 0.122683
H	-4.4693520825	-3.0836434537	-0.7417251938	 0.121005
