16
gdb 128699	2.28934	1.44841	0.9481	2.1238	67.77	-0.2328	-0.0042	0.2286	1213.5013	0.125189	-471.190569	-471.181698	-471.180754	-471.225217	30.888	
C	-0.0996680027	 1.4514004592	-0.0154129791	-0.24067
O	-0.0140849415	 0.0278244456	 0.0191971918	-0.260317
C	-1.1786467588	-0.6274384509	 0.0183156102	 0.352549
N	-2.3742753414	-0.0479093795	-0.0085346213	-0.309854
N	-3.2010748829	-1.1006650608	 0.0080899856	-0.096929
N	-2.6366641866	-2.294457448	 0.0529624339	-0.258221
C	-1.3268809643	-2.0347121528	 0.0602695783	 0.177623
C	-0.2897322334	-3.1106919009	 0.0470899898	-0.166775
O	 0.1627068953	-3.4307614268	-1.2652058071	-0.41333
H	 0.9288678521	 1.8131707919	-0.0128831327	 0.13533
H	-0.616981848	 1.7886238588	-0.9194925766	 0.137183
H	-0.637218918	 1.8318028983	 0.8594597112	 0.135599
H	-4.1999629283	-0.98237777	 0.0132000466	 0.291868
H	 0.5985696424	-2.77390226	 0.5883243545	 0.124947
H	-0.688995718	-3.9953710701	 0.561994373	 0.106921
H	-0.6092918061	-3.7072890841	-1.770349758	 0.284077
