17
gdb 123470	5.11629	0.98094	0.86959	2.0195	74.99	-0.2393	0.0226	0.262	1307.2541	0.137778	-417.99912	-417.991338	-417.990393	-418.033129	28.328	
C	 0.134052466	 1.3411481262	 0.5952069069	-0.178236
C	 0.0005857354	-0.0569560456	 0.0403308152	 0.08445
C	-1.3025612678	-0.5867275387	-0.3756142907	-0.178184
O	-0.3480378302	-0.1491726005	-1.3442926563	-0.230634
N	 1.4018756461	 1.9529473918	 0.2423168371	 0.045912
C	 1.8654785116	 2.2439834569	-1.0005207254	-0.031016
C	 3.1153329764	 2.8030229636	-0.8363159932	-0.22765
C	 3.3188358754	 2.8044428117	 0.558812168	-0.004223
N	 2.2805720668	 2.2884173942	 1.2117993808	-0.266524
H	-0.6925590468	 1.9576850123	 0.2248369761	 0.123931
H	 0.1002710324	 1.3274075927	 1.6867607829	 0.143323
H	 0.7760463449	-0.7562973278	 0.3531005036	 0.113735
H	-1.4812245358	-1.6599372886	-0.344915782	 0.124288
H	-2.1922444936	 0.034764953	-0.2813165251	 0.119191
H	 1.2787352217	 2.0202353952	-1.8770393073	 0.147638
H	 3.7778473749	 3.1564436539	-1.6095623017	 0.103614
H	 4.1739448727	 3.1604492297	 1.1146239411	 0.110384
