16
gdb 12206	2.85834	1.80179	1.56789	3.401	64.42	-0.2578	0.0008	0.2586	891.3381	0.130624	-379.910286	-379.902125	-379.901181	-379.943037	29.57	
C	 0.516188053	 1.4038339213	-0.2596193814	-0.403117
C	 0.0167438748	 0.0230665143	 0.1173120667	 0.140315
O	 0.5362286381	-1.0175177489	-0.7644278517	-0.288107
C	 1.3051076102	-1.6250469359	 0.2794590077	-0.05344
C	 2.7494807887	-1.4370303135	 0.1165682357	 0.282566
N	 3.8874879567	-1.243814057	 0.0444697234	-0.327557
C	 0.6512397489	-0.6698136484	 1.3560354477	-0.048146
N	 1.4206851576	 0.1321243248	 2.2603853026	-0.505895
H	 1.6086166362	 1.4432932263	-0.2998529842	 0.128753
H	 0.1338337506	 1.6765232786	-1.2475491955	 0.132968
H	 0.1662380586	 2.1433070549	 0.4666567072	 0.134018
H	-1.0790686822	 0.0015628708	 0.1109939967	 0.089641
H	 1.0894055509	-2.694410322	 0.3846006456	 0.120686
H	-0.0943798325	-1.2240191718	 1.9291161713	 0.10574
H	 1.7002540471	-0.3951745249	 3.0795558235	 0.24189
H	 2.2661887033	 0.4918494314	 1.8290532947	 0.249684
