15
gdb 29069	2.826	1.6486	1.0412	3.4464	83.95	-0.2252	-0.0649	0.1604	1069.5693	0.1154	-416.861139	-416.853816	-416.852872	-416.892926	28.276	
O	 0.0948704887	-0.0704997657	 0.0024563201	-0.408203
C	 0.0228056082	 1.1620766388	 0.0095221201	 0.325256
C	-1.2309365045	 1.8574899167	 0.0297568438	-0.162662
C	-1.5347820183	 3.1966732966	 0.0404686315	 0.011346
N	-0.7845755867	 4.317946975	 0.0359702273	-0.305649
C	 0.5297451446	 4.3152867512	 0.0183627205	 0.032926
C	 1.4896661671	 3.288596337	 0.0004386338	-0.180951
C	 1.3225533766	 1.9140377241	-0.0041423953	 0.232571
N	 2.358615685	 1.0683454493	-0.0222237375	-0.516175
H	 3.3147924318	 1.375164218	-0.0333373104	 0.269083
H	 2.1082057686	 0.0858117986	-0.0236676661	 0.28527
H	-2.0764718413	 1.1748808008	 0.0377043002	 0.110482
H	-2.6028211259	 3.4168765092	 0.0558782587	 0.111684
H	 0.9643655406	 5.3172854829	 0.0174936129	 0.10972
H	 2.5203131655	 3.6393755475	-0.0116178297	 0.085303
