22
gdb 100871	2.36411	1.01812	0.7488	3.1182	82.91	-0.2739	0.0345	0.3084	1553.41	0.192148	-404.369483	-404.358366	-404.357422	-404.406104	39.427	
C	-0.1080709941	 1.5920283148	 0.0202775145	-0.399049
C	 0.0224318047	 0.0675745229	-0.0153887859	-0.190225
C	 0.7386215971	-0.5255087548	 1.2228767011	-0.143613
C	 0.0207966013	-0.1267087718	 2.4413313384	 0.288809
N	-0.5602346344	 0.1889811291	 3.3900689143	-0.347607
C	 0.9102556578	-2.0702699666	 1.1679673537	 0.029584
C	 1.6850386657	-2.5197187678	-0.0775649274	-0.417654
C	 1.5987007095	-2.5859408659	 2.4372622608	-0.098531
O	 1.6218262983	-4.0038225036	 2.3723164986	-0.421231
H	 0.8750196064	 2.0725022063	 0.0766273701	 0.117564
H	-0.6037479607	 1.9551270583	-0.8845951495	 0.120208
H	-0.6935720535	 1.9249232859	 0.8821056557	 0.146441
H	-0.9683169845	-0.3939856993	-0.1009407701	 0.115796
H	 0.5876209572	-0.2281456322	-0.9031210915	 0.113213
H	 1.7396142967	-0.073624271	 1.2845677979	 0.118589
H	-0.0904801746	-2.5200648352	 1.1448092044	 0.100209
H	 1.9031053658	-3.5862380371	 0.0014669291	 0.146738
H	 1.1218803356	-2.3561394508	-0.9991636427	 0.119443
H	 2.6390195577	-1.984270025	-0.1615879924	 0.109542
H	 2.6210625058	-2.173028735	 2.4923448341	 0.083393
H	 1.0525671218	-2.2417132804	 3.3257582847	 0.117217
H	 2.0013196305	-4.336252761	 3.1905246221	 0.291163
