14
gdb 133364	2.40245	1.83038	1.04217	4.3572	69.04	-0.2255	-0.024	0.2015	1039.2949	0.102655	-474.174006	-474.166529	-474.165585	-474.205667	29.075	
N	 0.0160598023	 1.3814303011	 0.0957212088	-0.575994
C	 0.0260732078	-0.0104686944	 0.0262238491	 0.342612
N	-1.1423791972	-0.6409033876	 0.0793154136	-0.279668
N	-1.1938838089	-1.9729840401	 0.0694522763	-0.22057
C	-0.0636680175	-2.6638859049	-0.0198043823	-0.098061
C	 1.1833107772	-2.0496319155	-0.0722931857	 0.225209
F	 2.3074289574	-2.7759416198	-0.1301620709	-0.081129
C	 1.2743618351	-0.6748887831	-0.03438128	 0.13229
N	 2.4683401231	 0.0294471579	-0.0898333701	-0.612495
H	 0.6197904254	 1.8270759355	-0.5853419714	 0.255155
H	-0.9313246298	 1.7358964765	 0.0409056241	 0.260529
H	-0.1441231805	-3.7456470334	-0.0404896853	 0.126313
H	 3.28623601	-0.5437526144	 0.0660793858	 0.262533
H	 2.4702704455	 0.8602468622	 0.4890976881	 0.263276
