12
gdb 23974	6.5236	0.90408	0.79403	4.2601	80.21	-0.2492	-0.0546	0.1946	1309.466	0.077687	-398.357365	-398.349934	-398.348989	-398.389503	27.334	
C	-0.039813492	-1.2205551439	-0.0021406416	-0.400684
C	-0.0276323767	-0.0174749603	 0.0036279107	 0.212626
C	 0.0038357704	 1.3958651865	 0.0101993228	 0.13812
C	-1.0700710081	 2.2502353891	 0.0295197019	-0.105526
O	-0.6705603524	 3.5345779791	 0.0303009384	-0.161967
C	 0.6984997885	 3.5256456948	 0.0109959622	 0.299506
C	 1.1620494744	 2.243058291	-0.0019048403	-0.401868
C	 1.3629898792	 4.7705754173	 0.0078303794	 0.227632
N	 1.928522845	 5.7813770731	 0.0048944353	-0.328696
H	-0.0549754682	-2.2825041149	-0.0071503673	 0.199424
H	-2.1338146417	 2.0806185041	 0.0436311394	 0.167822
H	 2.1933202316	 1.9311376341	-0.017963901	 0.153611
