19
gdb 113620	3.4961	0.87207	0.83395	2.6559	85.89	-0.2594	-0.0565	0.2029	1478.0454	0.156806	-385.864545	-385.85478	-385.853836	-385.899844	35.405	
C	-0.0648299773	 1.546823296	-0.0606457162	-0.376084
C	-0.0364233649	 0.0703078242	 0.3544035135	-0.209591
C	-1.3858795366	-0.5907141497	 0.16699593	 0.021059
C	-1.808315288	-1.1679927249	-1.1408715688	-0.287316
C	-1.5602265967	-2.1143547324	 0.0231362951	-0.155471
C	-0.3713906826	-3.0040158712	-0.027699891	 0.251039
O	 0.6083720176	-2.7969331637	-0.7207051978	-0.321682
C	-0.4425814302	-4.1771578107	 0.8310752664	 0.244857
C	-0.5111144834	-5.1475941536	 1.5402840857	-0.410119
H	 0.9128116049	 2.0139728015	 0.0915235672	 0.115092
H	-0.3280302773	 1.6536875292	-1.1180679207	 0.119838
H	-0.7993801164	 2.11317919	 0.5229169271	 0.11076
H	 0.7179045463	-0.4673545536	-0.2255339927	 0.136759
H	 0.2613186561	-0.0081689452	 1.4078264247	 0.097846
H	-2.1818357911	-0.1445160039	 0.759667962	 0.09387
H	-2.8325295764	-1.0533698795	-1.4770262703	 0.116727
H	-1.0601080932	-1.21301926	-1.9256455908	 0.140697
H	-2.4202902322	-2.5377370966	 0.5287024648	 0.098943
H	-0.5532202385	-6.0091491059	 2.1613888516	 0.212779
