17
gdb 124183	4.51903	0.76967	0.69427	2.0566	82.05	-0.2327	0.0238	0.2565	1618.6047	0.136779	-380.868074	-380.858981	-380.858037	-380.904902	31.447	
C	 0.1296033403	 1.5235207545	-0.3389643878	-0.49613
C	 0.0763237595	 0.0821664428	-0.138975321	 0.056133
C	 0.0331123403	-1.1084207757	 0.0326116537	 0.077526
C	-0.029474415	-2.5571140471	 0.2242963446	-0.482166
C	-1.4300846926	-3.1157465342	 0.1823386596	 0.227067
C	-1.9877023136	-4.0538542995	 1.0267875295	-0.134777
N	-3.2509062863	-4.2703918359	 0.5835935451	-0.179603
N	-3.5660726575	-3.5317389686	-0.4962235344	-0.224867
C	-2.4631599292	-2.8313345362	-0.7416814143	-0.070318
H	 0.7202386622	 2.0129322146	 0.4435206147	 0.145921
H	 0.5838715545	 1.7775606954	-1.3031753942	 0.145558
H	-0.8732319599	 1.9644717648	-0.3195551996	 0.148491
H	 0.589409497	-3.0434579874	-0.5436217706	 0.138257
H	 0.4347929334	-2.8213893088	 1.1828328343	 0.128956
H	-1.5894629849	-4.5675242571	 1.8879997789	 0.130732
H	-3.9434463158	-4.887698972	 0.9713820493	 0.273644
H	-2.4394922124	-2.1341580295	-1.5662055679	 0.115573
