16
gdb 32712	6.23595	0.83681	0.74121	3.174	82.23	-0.1961	-0.0111	0.185	1483.3426	0.125394	-434.107541	-434.098824	-434.09788	-434.142714	29.902	
C	-0.0358562246	 1.5137798076	 0.0108578351	-0.312796
N	-0.066035001	 0.0626311474	 0.0029163797	-0.281066
C	-1.2120026428	-0.6414545157	 0.0102275668	 0.122765
N	-2.3619353837	-0.0562769143	 0.024604442	-0.38498
C	-3.4636910807	-0.8639276806	 0.0316841685	 0.482778
N	-3.5764744822	-2.1663949137	 0.0293098769	-0.352492
C	-4.9429801978	-2.3945417944	 0.0402518222	-0.113961
C	-5.5965839814	-1.2099955727	 0.0486421502	-0.052118
O	-4.6576798716	-0.2146258527	 0.043379577	-0.182989
H	 1.0036122109	 1.8456513656	 0.0031625617	 0.125386
H	-0.5520478765	 1.9173825472	-0.865944229	 0.150237
H	-0.5357690856	 1.9072816861	 0.9015641775	 0.15027
H	 0.8001790301	-0.4452317029	-0.0084798628	 0.260412
H	-1.093100976	-1.7282906028	 0.0031716106	 0.139145
H	-5.3536928395	-3.392198907	 0.0412619505	 0.113762
H	-6.6277258876	-0.9033213771	 0.0580893931	 0.135646
