22
gdb 120903	3.22885	0.88212	0.80175	1.5374	82.09	-0.2239	0.0734	0.2973	1513.7298	0.193907	-404.292076	-404.282418	-404.281474	-404.327135	35.743	
C	-0.1221931418	 1.51805427	 0.3039412097	-0.427305
C	 0.0581248563	 0.0460031838	 0.0095486144	 0.037593
C	 0.5377105502	-0.6094060816	-1.228346035	-0.097903
C	 1.6816904695	 0.094178922	-1.9597610554	 0.022993
C	 1.4233597822	 1.3237069165	-2.8265842379	-0.213954
C	 2.7007945037	 1.8734931197	-3.4507804867	-0.069856
O	 2.3533380359	 3.006456048	-4.2316759827	-0.420598
C	 2.391902556	 0.1643263852	-0.5780261338	-0.19685
N	 1.3370936883	-0.6915743806	 0.0787095706	-0.153327
H	-1.1084439466	 1.8466561457	-0.0405614116	 0.124776
H	-0.0743156443	 1.6891393032	 1.3852840705	 0.12392
H	 0.6208280556	 2.1605962453	-0.1674796217	 0.125616
H	-0.7039565726	-0.5546594545	 0.5067805804	 0.094178
H	 0.0257306816	-1.4826229681	-1.6252581109	 0.087245
H	 2.2013092795	-0.6532016771	-2.5705087251	 0.082245
H	 0.7280817665	 1.0610804748	-3.6338265812	 0.106604
H	 0.9454151895	 2.1262305939	-2.2574610031	 0.110103
H	 3.4183974036	 2.1416291484	-2.6574845581	 0.086823
H	 3.1780405705	 1.093917532	-4.0678977539	 0.08407
H	 3.157287606	 3.362731131	-4.6206999107	 0.28535
H	 3.3533233283	-0.3512335532	-0.5427655012	 0.108202
H	 2.5158507819	 1.1544441056	-0.1276545566	 0.100074
