13
gdb 270	9.17009	1.86544	1.58189	2.1536	46.39	-0.2471	0.0327	0.2798	722.9054	0.106736	-323.657279	-323.649644	-323.6487	-323.69021	25.021	
N	-0.0814565532	 1.3226471749	-0.072854988	-0.523169
C	 0.0638412886	-0.0316918308	 0.0329434722	 0.408489
O	 1.1553824761	-0.5634424322	 0.1106516023	-0.358863
C	-1.2447446452	-0.8130405607	 0.0359331536	-0.297885
C	-1.0140346071	-2.3160908716	-0.0212035569	-0.068037
O	-2.2922825756	-2.9358334184	 0.0146725414	-0.427866
H	 0.743375351	 1.8955208094	-0.0027059243	 0.25975
H	-0.982030006	 1.7678212485	-0.0537382349	 0.257832
H	-1.8108192169	-0.5677577646	 0.9435128057	 0.129463
H	-1.8702574351	-0.5011055721	-0.8088475205	 0.124357
H	-0.4638693284	-2.5703415265	-0.9382325185	 0.101621
H	-0.3856099468	-2.621568831	 0.8258234784	 0.107421
H	-2.1599065215	-3.887793455	-0.0063180706	 0.286887
