19
gdb 90728	4.31268	1.12429	1.0406	2.5585	75.25	-0.2249	0.0586	0.2835	1193.4488	0.158522	-422.968213	-422.960093	-422.959149	-423.001047	31.865	
O	 0.6051774564	 0.8460909425	-0.4706992214	-0.42656
C	 0.0320437238	-0.2915222077	 0.1269528108	 0.137989
C	 0.0413513932	-0.3490594788	 1.6903284165	-0.286994
C	-1.503218662	-0.494309619	 1.7050654221	-0.18862
C	-1.5230096613	-0.3865006447	 0.1514377831	 0.05411
O	-1.9932266643	-1.7436739936	 0.0158978442	-0.316119
C	-2.0275941453	-1.8993642333	 1.4421580093	 0.475731
C	-1.7166420176	-3.200775599	 2.1018272816	-0.33555
C	-3.1357672159	-2.6411860118	 2.1099394952	-0.343402
H	 0.2766057739	 1.6288195865	-0.0156564227	 0.279158
H	 0.476624272	-1.1569398437	-0.3693551973	 0.104574
H	 0.6122902556	-1.1569183605	 2.1544807505	 0.109012
H	 0.3785028042	 0.6015690416	 2.1161056325	 0.096767
H	-2.0802731113	 0.1336573654	 2.3831157927	 0.07926
H	-2.0916771151	 0.3293141834	-0.4490739139	 0.078429
H	-1.5204696272	-4.0472874894	 1.452628463	 0.126702
H	-1.1486902494	-3.1957992087	 3.026834896	 0.115533
H	-3.5351251975	-2.2517556532	 3.0411440273	 0.11386
H	-3.864591272	-3.121567176	 1.4659446105	 0.12612
