19
gdb 86734	3.70726	1.07596	0.88786	1.1214	80.12	-0.2381	-0.0162	0.2219	1334.0841	0.159506	-419.264524	-419.255369	-419.254425	-419.2991	32.938	
C	-0.0708484959	 1.5331028609	 0.0275776431	-0.385476
C	 0.0494696661	 0.0105627861	-0.0102964674	 0.035961
C	 0.8634013238	-0.525504812	-1.2273007494	-0.201438
N	 1.9269105948	-1.2945608333	-0.5660673573	-0.111432
C	 1.7406342939	-1.1729508974	 0.8096835587	 0.07442
N	 0.744328646	-0.4868874703	 1.1995889299	-0.266751
C	 2.9149834265	-1.9524947096	-1.2692549438	 0.398767
C	 3.9542318991	-2.6954403948	-0.4480979529	-0.500956
O	 2.9279863729	-1.9243924315	-2.4841651167	-0.34971
H	 0.9204134916	 1.9982553486	 0.032999513	 0.120512
H	-0.6180970205	 1.9000148182	-0.8468301633	 0.116837
H	-0.6009903594	 1.849779369	 0.929299039	 0.132047
H	-0.9587973385	-0.4200201703	-0.0076358263	 0.095596
H	 0.2872702546	-1.1729467227	-1.8923477264	 0.132385
H	 1.3009581366	 0.2719784442	-1.8355648128	 0.128949
H	 2.4366663398	-1.6584732521	 1.4842076742	 0.137377
H	 3.4931117919	-3.4661551178	 0.1776583009	 0.144509
H	 4.6519343389	-3.1654702931	-1.1401610179	 0.154057
H	 4.5043093179	-2.0150251321	 0.2098577154	 0.144346
