17
gdb 81672	2.52003	1.64651	1.51949	3.5252	67.06	-0.2362	-0.01	0.2263	951.065	0.136321	-458.970219	-458.962627	-458.961683	-459.002385	29.579	
O	-0.2089064802	 1.5496630565	 0.12985093	-0.420555
C	-0.0227268044	 0.161793939	 0.0497974	 0.087761
C	 0.195283275	-0.6748707247	 1.3389603749	 0.02896
C	-0.5027705822	-0.0426000186	 2.5387428323	-0.313344
C	-1.9091277284	 0.4444018012	 2.1592291116	 0.41134
O	-2.5625290133	 1.1429290885	 2.892445448	-0.317827
C	-2.4357974572	-0.0299836423	 0.7981397729	-0.315445
C	-1.3182035879	-0.6654223951	-0.0251102187	 0.054967
O	-0.6758409508	-1.6966806733	 0.7785013382	-0.301601
H	 0.648905303	 1.984467614	 0.1573228199	 0.295461
H	 0.6831462671	-0.126844295	-0.7366322181	 0.089776
H	 1.192131429	-1.0628722345	 1.5656992489	 0.079947
H	-0.6041674555	-0.7901171088	 3.3342047496	 0.137117
H	 0.0543190886	 0.8023288831	 2.9555152392	 0.123614
H	-3.2220568041	-0.7731266747	 0.9746916176	 0.135121
H	-2.8951417146	 0.8227588177	 0.2898553468	 0.138608
H	-1.651931164	-1.0429560329	-0.994508203	 0.086101
