21
gdb 109248	3.35536	1.20939	1.04262	1.4104	84.04	-0.2181	0.0334	0.2515	1221.8196	0.184645	-387.084215	-387.07609	-387.075146	-387.116836	32.23	
O	 0.0431799062	 1.4159498606	-0.0214791807	-0.413968
C	-0.0120301704	 0.0028037257	-0.0056382386	-0.186912
C	-1.4332237374	-0.4702324895	 0.0198041521	 0.324426
C	-2.5021382652	 0.3278912143	 0.0230895764	-0.160525
C	-3.8833981321	-0.287034686	 0.0501879859	-0.254576
C	-3.7896249299	-1.8226454232	 0.0701720804	-0.010621
C	-2.7450568836	-2.280024456	 1.1309900772	-0.21556
C	-1.6712196074	-1.9698125622	 0.0436034206	-0.109717
C	-2.7738748007	-2.3094814646	-1.0054189686	-0.215574
H	 0.9673616427	 1.6781033379	-0.0454874981	 0.288871
H	 0.4918036389	-0.4288364544	-0.8903126966	 0.092298
H	 0.517071171	-0.4100319639	 0.8732775229	 0.092233
H	-2.3966747089	 1.4066365918	 0.0069723757	 0.100081
H	-4.4407408961	 0.0679744173	 0.9291745732	 0.100406
H	-4.4643570324	 0.0437162009	-0.8229541742	 0.100374
H	-4.7797886013	-2.2847015926	 0.0899210737	 0.05573
H	-2.6846163054	-1.7279551923	 2.072615416	 0.09178
H	-2.8236943469	-3.352200024	 1.3319385412	 0.090273
H	-0.7440235923	-2.548744714	 0.0390720523	 0.048992
H	-2.8574720216	-3.3867545587	-1.1745953797	 0.090275
H	-2.7391098373	-1.7835776669	-1.9631892711	 0.091714
