20
gdb 111393	2.11375	1.41241	0.98257	3.9526	79.4	-0.2267	-0.0199	0.2068	1262.0916	0.170262	-403.111602	-403.102519	-403.101575	-403.146323	33.362	
C	 1.1639163671	 0.9158171372	 0.8638572611	-0.388499
C	 0.0886500861	 0.5075359864	-0.1486489124	-0.197445
C	 0.6704542406	-0.2464334168	-1.3388569821	 0.010305
C	 1.1488503771	-1.6929536974	-1.1328554486	-0.055699
N	-0.0543037025	-2.49024296	-0.8001096682	-0.331894
C	 0.2671129518	-2.1920519694	-2.218362017	-0.079255
C	-0.2922104082	-0.7885188424	-2.4957662841	-0.121438
C	-1.7783503821	-0.5980657894	-2.3272554084	 0.1474
O	-2.4152962824	 0.2459721195	-2.9103300529	-0.264269
H	 1.6848559788	 0.0394226806	 1.2648673487	 0.116813
H	 1.9157690218	 1.5691493261	 0.4066585807	 0.113014
H	 0.7255788324	 1.4541090438	 1.7094432543	 0.117427
H	-0.6605146169	-0.1230242792	 0.3411974879	 0.118741
H	-0.4360690439	 1.3995706432	-0.5124163352	 0.108737
H	 1.459218152	 0.3464109292	-1.8127480009	 0.083703
H	 2.132302719	-2.0288473317	-0.8285499203	 0.097216
H	 0.2514279586	-3.4444563113	-0.6145999329	 0.233592
H	 0.4204717588	-2.9908344537	-2.9331121966	 0.101454
H	 0.0059442566	-0.3772069897	-3.4616839099	 0.094331
H	-2.2597501449	-1.295360965	-1.6107901232	 0.095765
