21
gdb 72740	2.48995	1.68014	1.4922	1.8731	81.78	-0.2354	0.0721	0.3074	1023.6125	0.182985	-387.044992	-387.036982	-387.036038	-387.077132	32.18	
C	 0.0212524998	 1.5762123474	-0.0411619621	-0.497383
C	 0.0146946396	 0.0666810334	 0.0530163107	 0.324117
C	 0.9240720876	-0.6995686987	-0.9704821287	-0.279933
C	 1.8277918474	-1.2210793932	 0.1922962748	-0.343389
C	 0.7705951043	-0.7407760633	 1.1785824612	 0.286276
C	 0.7480876521	-0.3313585076	 2.6424351854	-0.183231
O	-0.6055464525	-0.8369950593	 2.7834445844	-0.298291
C	-0.567368776	-1.4661046821	 1.4780242715	 0.083757
C	-1.3195860694	-0.662299313	 0.3930939389	-0.310825
H	 1.0407339985	 1.972377321	-0.1162086546	 0.111002
H	-0.529123254	 1.9139042687	-0.9281279169	 0.118046
H	-0.4542841768	 2.031646511	 0.8345527354	 0.121292
H	 0.400401434	-1.4910130294	-1.5133976709	 0.100563
H	 1.4279853057	-0.0606794718	-1.6997509142	 0.101344
H	 2.0808096378	-2.2854186112	 0.2043089825	 0.099712
H	 2.7581149294	-0.6489492873	 0.2701071188	 0.104587
H	 1.4492994575	-0.8823745845	 3.286305082	 0.096366
H	 0.8194149618	 0.739268339	 2.8733268693	 0.099719
H	-0.6970701887	-2.5520032489	 1.5407530666	 0.066622
H	-2.0954663161	-0.0233352774	 0.823792657	 0.107232
H	-1.7530635119	-1.2492913428	-0.423119321	 0.092417
