18
gdb 20216	3.33048	2.89538	2.03782	0.051	72.85	-0.2019	0.087	0.289	732.0472	0.157445	-310.616514	-310.610575	-310.609631	-310.646723	24.801	
C	-0.0300722093	 1.5357259815	-0.1518896596	-0.234232
C	 1.3026925076	 2.2621039556	 0.1475074413	-0.234232
C	 2.4027882608	 1.3128083	 0.5782292916	-0.028176
C	 2.1879532041	 0.102897245	 1.4524588977	-0.086082
C	 0.8506427792	-0.6272605791	 1.1480923448	-0.086004
C	 0.063237505	 0.0360985894	 0.0463677405	-0.028176
C	 1.2723815442	-0.7943575772	-0.3038146606	-0.086082
C	 2.6099084193	-0.0646422114	 0.0006658912	-0.086004
H	-0.8271327957	 1.9257457454	 0.4912829599	 0.09753
H	-0.3474148189	 1.735139317	-1.1817262531	 0.097471
H	 1.6412005475	 2.8130522567	-0.737342991	 0.09753
H	 1.1575122489	 3.0118093609	 0.9335734797	 0.097471
H	 3.3465476086	 1.8096531974	 0.795277403	 0.079387
H	 2.7684263665	-0.0797693787	 2.3478423132	 0.080055
H	 0.417142472	-1.3638882811	 1.8125365235	 0.080052
H	-0.8664549183	-0.4896124948	-0.163265752	 0.079387
H	 1.211970105	-1.6788818845	-0.9250995093	 0.080055
H	 3.5638571634	-0.3959993921	-0.3894793009	 0.080052
