16
gdb 44249	3.06638	1.49299	1.19575	2.3514	69.88	-0.2538	-0.0385	0.2153	1025.9939	0.125366	-437.910562	-437.903176	-437.902232	-437.943136	27.858	
N	-0.1497485453	 1.3315561742	 0.0832152251	-0.536136
C	-0.0419989531	 0.0749111003	 0.1077858762	 0.409877
O	 1.1394442104	-0.600361794	 0.2635321146	-0.240053
C	 0.9330030701	-2.0059068244	 0.4722046203	-0.10927
C	-0.5016013	-2.2898563181	 0.0184822614	-0.169973
C	-1.1872896624	-0.8964545562	-0.0721670901	-0.128693
C	-1.5629593819	-1.1483351496	-1.5697479071	-0.34806
C	-0.7138996873	-2.4274052137	-1.5084627861	 0.399465
O	-0.3136953141	-3.208900384	-2.3184273696	-0.284729
H	 0.7590442441	 1.7762802904	 0.2229412781	 0.226007
H	 1.6789398998	-2.5530438854	-0.1104992181	 0.140586
H	 1.0777914032	-2.2304326988	 1.5350659071	 0.120564
H	-0.9931625831	-3.0717766589	 0.5999597641	 0.113871
H	-2.01667216	-0.6634473212	 0.5922773774	 0.113011
H	-2.6246406161	-1.371969437	-1.7153943248	 0.141301
H	-1.2612511243	-0.3900765938	-2.2961437686	 0.152232
