16
gdb 22470	3.549	0.77351	0.64009	0.2754	85.54	-0.2409	-0.0332	0.2077	1697.1478	0.119786	-400.646682	-400.636189	-400.635245	-400.684169	35.863	
C	 0.1654269334	 1.5195360022	-0.01143888	-0.497628
C	 0.0515640111	 0.0691566978	-0.0493186904	 0.070754
C	-0.0546349586	-1.1285211985	-0.0792424965	 0.076574
C	-0.1396018849	-2.5811579896	-0.1206023213	-0.442854
C	-1.5384085631	-3.1630489737	 0.0201873785	 0.192254
N	-2.5290920398	-2.3593960481	 0.1627315322	-0.149883
O	-3.7403599898	-3.0252258961	 0.2789454446	-0.382699
C	-1.6446755971	-4.583236519	-0.0175878271	 0.321989
C	-1.6637408002	-5.7863060357	-0.0577692063	-0.450304
H	 0.8019816137	 1.8489095453	 0.8172845306	 0.146415
H	 0.5994297576	 1.9107645174	-0.9382905152	 0.146414
H	-0.8162542694	 1.9883322693	 0.1183994917	 0.150395
H	 0.2845582634	-2.9600173079	-1.0609882726	 0.150405
H	 0.4841477704	-3.0209850424	 0.6701318699	 0.150404
H	-4.3647919936	-2.2975007984	 0.3765837054	 0.311631
H	-1.7069726132	-6.8472252226	-0.0901545032	 0.206134
