23
gdb 59863	3.0659	0.8297	0.72308	2.8167	82.7	-0.2603	-0.0244	0.2359	1675.3138	0.202158	-425.460986	-425.449842	-425.448898	-425.497882	40.41	
C	 0.0436920234	 1.4304370073	-0.0707747685	-0.397703
C	 0.0543836335	-0.0748829955	 0.2229049348	 0.048669
C	 0.4165198446	-0.351144555	 1.6885841302	-0.390591
C	-1.2960775762	-0.7066942759	-0.1502928543	-0.299789
C	-1.295013498	-2.2223063143	-0.1944989684	 0.357681
O	-0.2746487198	-2.8756086866	-0.2859604783	-0.334042
C	-2.6362468724	-2.9616674652	-0.1275380897	 0.065785
C	-3.604987263	-2.520365621	-1.2339204771	-0.403219
O	-2.4201294355	-4.3449129652	-0.195545722	-0.439363
H	 1.0119292303	 1.8813526048	 0.1690422291	 0.115813
H	-0.1683507957	 1.6340669462	-1.125979528	 0.110153
H	-0.7173623568	 1.9462596805	 0.5273944012	 0.111584
H	 0.8150195039	-0.5495223172	-0.4074924128	 0.098204
H	-0.3248326319	 0.0907196019	 2.3659180851	 0.107017
H	 0.4693344172	-1.4241599191	 1.8903323801	 0.129636
H	 1.389916632	 0.0836054445	 1.9366751904	 0.114921
H	-2.0926323889	-0.3660256924	 0.5247604118	 0.11459
H	-1.603425192	-0.3712007604	-1.1518751269	 0.131456
H	-3.0821292155	-2.6960843071	 0.8487922784	 0.087772
H	-3.1602000874	-2.6849681429	-2.2201083438	 0.12699
H	-4.5142546967	-3.1225759107	-1.1672709371	 0.137499
H	-3.8812472728	-1.466343931	-1.1373736143	 0.11556
H	-1.4552789424	-4.4477482258	-0.2415177498	 0.291377
