17
gdb 31004	3.15865	1.19042	0.88955	2.7767	72.61	-0.1988	0.0273	0.226	1272.473	0.136259	-455.184539	-455.175486	-455.174542	-455.218321	33.195	
C	 0.0470260876	 1.4268983036	-0.2411665004	-0.506257
C	-0.1092375166	-0.0417535653	-0.1056365251	 0.253948
C	-1.1449800225	-0.9124450051	-0.0313113038	 0.119243
C	-2.6220152434	-0.6550250901	-0.0819128439	-0.174893
O	-2.9758161753	 0.4962524504	-0.8387084525	-0.406874
N	-0.6605596535	-2.2193340008	 0.1100316729	-0.3864
C	 0.6259432406	-2.0690084376	 0.1248439245	 0.43639
N	 1.5877345645	-3.030540046	 0.3155270082	-0.589848
O	 1.0584000778	-0.7978712502	-0.0060759464	-0.21568
H	 0.6544023864	 1.6922291057	-1.1150403647	 0.127324
H	-0.9414943272	 1.8747404113	-0.352483469	 0.157935
H	 0.5344673256	 1.8649469425	 0.6382652618	 0.133343
H	-3.1151220224	-1.5624031721	-0.4594025436	 0.111416
H	-3.0208060483	-0.4736408333	 0.9231520872	 0.12612
H	-2.6396421986	 0.3621832142	-1.7313591892	 0.281748
H	 1.2464051374	-3.9638976733	 0.1397437506	 0.269668
H	 2.4734168179	-2.835787674	-0.1281275767	 0.262816
