21
gdb 59738	2.30662	1.47898	0.9915	1.8133	78.7	-0.2394	-0.025	0.2144	1248.211	0.181505	-424.258791	-424.249367	-424.248423	-424.293286	35.045	
C	-0.2102062239	 1.5241840049	-0.0813422765	-0.392046
C	-0.078989476	-0.0015780669	 0.0074313471	 0.013567
C	 0.905691259	-0.4148941211	 1.1094549481	-0.398882
C	-1.4699092631	-0.6455999352	 0.2398273463	 0.007081
O	-2.4680228104	-0.1514133911	-0.6474572384	-0.265101
C	-2.5792057348	-1.0350484667	-1.7670478418	-0.09528
C	-2.3626205978	-2.4356129095	-1.1959397948	-0.332192
C	-1.462105684	-2.1654733032	 0.0113313015	 0.379323
O	-0.8606631536	-2.9857101511	 0.6547034881	-0.30798
H	 0.7608787461	 1.9791036683	-0.3016675808	 0.10916
H	-0.919119678	 1.8177608149	-0.8579225251	 0.128022
H	-0.5646610888	 1.9380013685	 0.8702995213	 0.112615
H	 0.3051110817	-0.3686104739	-0.9555744422	 0.070639
H	 0.5764292225	-0.0297738371	 2.0821347529	 0.112178
H	 0.992753897	-1.4997818378	 1.1929131094	 0.146522
H	 1.8975153366	 0.0020631135	 0.9081061727	 0.110536
H	-1.7972750696	-0.423567976	 1.2635401516	 0.104244
H	-3.5667448937	-0.8792982129	-2.2063652911	 0.118348
H	-1.8227400645	-0.7978589446	-2.5301250317	 0.101872
H	-3.3000805613	-2.8667075196	-0.8259933171	 0.142516
H	-1.9049497235	-3.1561183834	-1.8765017693	 0.134858
