23
gdb 61578	3.75982	0.79203	0.69377	1.6759	86.17	-0.2609	0.0924	0.3533	1678.9889	0.204582	-388.258143	-388.248236	-388.247292	-388.293731	36.621	
C	-0.2202512516	 1.7462851204	-0.1732368592	-0.398043
C	 0.0034845373	 0.231270655	-0.0684088408	-0.004183
C	-1.3062620474	-0.5706243157	 0.0788492211	-0.205061
C	-2.075999764	-0.2937831972	 1.3543708767	 0.025593
C	-3.1694528572	 0.7466968894	 1.4083654659	-0.252236
C	-3.516987917	-0.7196536002	 1.4776045249	-0.281604
C	 0.7743427897	-0.265536725	-1.2734760866	 0.094396
C	 2.2351843264	-0.4068234164	-1.2776483005	-0.184843
O	 1.3874784939	-1.5528017907	-1.1652768115	-0.245112
H	 0.7315452372	 2.2798394052	-0.2639682386	 0.111838
H	-0.8261504033	 1.9942385496	-1.0530476042	 0.11131
H	-0.7425962186	 2.1287326452	 0.7065155317	 0.128821
H	 0.6234069078	 0.0256080394	 0.8151266355	 0.073788
H	-1.953995524	-0.3702728174	-0.7868773851	 0.084731
H	-1.051724157	-1.6369053173	 0.0340291515	 0.116048
H	-1.4815255297	-0.3963905924	 2.2599553562	 0.079777
H	-3.2754202079	 1.3452186403	 2.3067892376	 0.108624
H	-3.4078806521	 1.2783207847	 0.4928997426	 0.108881
H	-3.985073932	-1.1701454002	 0.6081070793	 0.110022
H	-3.8584059609	-1.1255033689	 2.4234356096	 0.109676
H	 0.2834126048	-0.0953175441	-2.2355914041	 0.085344
H	 2.7910026015	-0.325243213	-2.2108941044	 0.11206
H	 2.7990042943	-0.1546165808	-0.3799068377	 0.110172
