17
gdb 123750	5.05227	1.05419	1.01205	2.9176	74.26	-0.2844	-0.0235	0.2609	1204.2402	0.138993	-414.165942	-414.158616	-414.157672	-414.199034	26.931	
C	-0.0544873461	 1.5242865525	-0.0477104464	-0.214941
C	 1.499557068	 1.510459058	-0.0479263299	-0.240392
C	 1.4304228776	 0.0933921523	 0.5759382981	 0.093365
C	-0.0317138962	-0.0247454419	 0.0756895657	-0.240398
N	 2.393669144	-0.9025690001	 0.1395235181	 0.117963
N	 3.1569730936	-1.5963553282	 0.9789676113	-0.243213
C	 3.8483703212	-2.353449199	 0.1360384525	 0.072776
N	 3.5218912739	-2.1315206331	-1.1561574948	-0.206394
N	 2.5935125176	-1.2052576688	-1.1363359237	-0.132441
H	-0.4597102523	 2.0006657406	 0.8486885632	 0.11175
H	-0.5488975368	 1.9469412883	-0.923087892	 0.11389
H	 1.9010609802	 1.4593449352	-1.0620579218	 0.139066
H	 2.0320527447	 2.2778972308	 0.5168826729	 0.112091
H	 1.5036057766	 0.1079198207	 1.6627490693	 0.118926
H	-0.7482491516	-0.509550682	 0.7413192622	 0.11209
H	-0.0598146319	-0.5065702333	-0.9037664185	 0.139084
H	 4.5903733076	-3.067516662	 0.4541856137	 0.146776
