23
gdb 103928	2.91744	1.1975	1.11623	1.4263	85.94	-0.2266	0.0851	0.3116	1271.6513	0.203317	-388.271215	-388.261319	-388.260375	-388.30534	38.175	
C	-0.3218485866	 1.4512345249	 0.1357270151	-0.385642
C	 0.1954961431	 0.0245169244	-0.0849993345	-0.227829
C	 0.8258001342	-0.6054908399	 1.1572413112	 0.426864
C	 2.1241007807	 0.0736148861	 1.5793608986	-0.433403
O	-0.1055380468	-0.6163201573	 2.2992597036	-0.371556
C	 0.0875959611	-2.0279348346	 2.4706081489	 0.481415
C	 0.204690653	-2.5415242484	 3.8688337631	-0.488827
C	-0.4434771558	-2.76679773	 1.2811507077	-0.358559
C	 0.9360911545	-2.1358601211	 1.223161725	-0.232046
H	 0.4878319732	 2.155941713	 0.348256109	 0.113721
H	-0.8462026258	 1.8127465731	-0.7539864152	 0.108857
H	-1.0197281429	 1.4744648873	 0.977362019	 0.136934
H	-0.6341886045	-0.6066176834	-0.4179629577	 0.096408
H	 0.9398567452	 0.0098079231	-0.8916328479	 0.093025
H	 1.9514605854	 1.1238283461	 1.828714737	 0.125759
H	 2.5445347174	-0.4203680265	 2.4593314572	 0.117478
H	 2.8631874385	 0.0270141426	 0.771436074	 0.110558
H	-0.7361545917	-2.3928172812	 4.4113276483	 0.130571
H	 0.4268027863	-3.6126033231	 3.8674285049	 0.120809
H	 0.9954472078	-2.0196445847	 4.4169256791	 0.12502
H	-0.4300696209	-3.8500348565	 1.3596892616	 0.109197
H	-1.2773337277	-2.3624536514	 0.7150096371	 0.111467
H	 1.8382826523	-2.7027403727	 1.0303576852	 0.089781
