11
gdb 128880	6.75832	0.90846	0.80082	2.4872	72.76	-0.2945	-0.0742	0.2203	1270.0662	0.068656	-410.632873	-410.625824	-410.62488	-410.664791	25.123	
N	 0.149820787	-1.1563467738	-0.0061722956	-0.316648
C	 0.0331226549	-0.0048546572	 0.0021167465	 0.232915
C	-0.0858291826	 1.4047130808	 0.0119446858	 0.31334
C	-1.1938178418	 2.2315120175	 0.031542399	-0.385318
C	-0.6537816013	 3.5356236466	 0.0319588799	 0.254639
N	 0.688124549	 3.5187795662	 0.0140033653	-0.243117
N	 1.0035998875	 2.2313446799	 0.0022957153	-0.257063
C	-1.3723895037	 4.7639516906	 0.0486956788	 0.251962
N	-1.9912918932	 5.7405700111	 0.0626365995	-0.321545
H	-2.2293075723	 1.9376305004	 0.0436126302	 0.1637
H	 1.9748162765	 1.958741758	-0.0122014448	 0.307137
