18
gdb 5828	2.8954	1.66808	1.38222	2.7488	74.38	-0.258	-0.0555	0.2025	989.1757	0.149584	-347.794788	-347.785173	-347.784229	-347.828725	34.984	
C	-0.0245406575	 1.5506953107	 0.0274765672	-0.405022
C	 0.0025009522	 0.017157829	 0.0037543947	 0.138357
C	 0.7619384908	-0.5282719815	 1.2329303862	-0.417636
C	-1.4349772869	-0.5476486216	-0.0106174998	-0.417544
C	 0.7250836837	-0.4526605968	-1.2669467637	 0.233749
O	 1.1842731889	 0.3050566173	-2.0937494608	-0.303737
C	 0.8449737589	-1.8956171566	-1.4530319219	 0.27491
C	 0.956106655	-3.0817225003	-1.6284368937	-0.412742
H	 0.9871257278	 1.9641934815	 0.0229757208	 0.124704
H	-0.5455377866	 1.9505697669	-0.8460559469	 0.124817
H	-0.5384676645	 1.899965032	 0.9285526108	 0.104998
H	 0.2474711156	-0.2213328129	 2.1492387041	 0.119747
H	 0.813171128	-1.6203972018	 1.2217045282	 0.127814
H	 1.7839073879	-0.1379400356	 1.2729172941	 0.123795
H	-2.0005345627	-0.1705711968	-0.8687017964	 0.123839
H	-1.437053201	-1.6402235281	-0.0529541528	 0.127817
H	-1.959617424	-0.241589742	 0.900202023	 0.119751
H	 1.0605380243	-4.1265174533	-1.7945160533	 0.212382
