19
gdb 109614	2.68142	1.07548	0.96903	1.5002	80.03	-0.2325	0.0187	0.2512	1324.0042	0.15566	-422.970283	-422.96008	-422.959136	-423.005639	37.722	
C	 0.2200592009	 1.4369448193	 0.2755702385	-0.378467
C	-0.2001653409	 0.0146083437	-0.1140730638	-0.195344
C	 0.5927377597	-0.4960512446	-1.2998229527	-0.10943
C	 1.9665182472	-1.1041990674	-1.1297541487	 0.063226
O	 2.4865897907	-1.3221958257	 0.1405588413	-0.430211
C	 0.7878275871	-1.9872175043	-1.548640881	 0.117884
O	 0.3165857586	-2.8230067787	-0.5076308656	-0.471444
C	 0.6980659856	-2.5359856455	-2.8682163176	 0.279937
C	 0.645139667	-3.0208641332	-3.968776397	-0.434833
H	 1.2735699085	 1.458405468	 0.5697389169	 0.133743
H	 0.0881407384	 2.1347031327	-0.5587353433	 0.111222
H	-0.37653612	 1.8051529205	 1.1158854898	 0.11098
H	-0.0660777092	-0.654481761	 0.7390804319	 0.108411
H	-1.2685505291	-0.0109483987	-0.3590590132	 0.102362
H	 0.4605133207	 0.07631708	-2.2147034398	 0.098596
H	 2.7376029998	-0.8836612456	-1.8608835453	 0.109642
H	 1.9318148105	-2.0065059021	 0.543165577	 0.288992
H	 0.6110589324	-3.7189551091	-0.708857718	 0.296391
H	 0.5885359224	-3.4390261484	-4.9432980995	 0.198343
