20
gdb 66318	2.97659	1.10889	0.94381	4.2554	76.4	-0.2414	0.0134	0.2547	1301.0799	0.170735	-440.299002	-440.289737	-440.288793	-440.333304	34.874	
O	 0.7535200513	 1.1661500222	-0.8781638728	-0.488763
C	 0.3771104751	-0.0447724918	-0.2957563903	 0.434444
C	 1.2093733849	-1.2532098527	-0.6912105597	-0.251074
C	 2.6828845962	-1.2076821893	-0.233228516	-0.181623
N	 3.5867369308	-0.463930317	-1.1072019891	-0.248026
C	 3.8924462336	 0.8397026819	-0.9497968923	 0.160839
O	 3.4172386317	 1.573913411	-0.0969625413	-0.347546
C	-0.2231955415	 0.0061110226	 1.0920144964	-0.318108
C	-1.1033067043	-0.2130046078	-0.1249087936	-0.30455
H	 1.5707826304	 1.4696628478	-0.4469098457	 0.303271
H	 0.7544699599	-2.1478213491	-0.2503888953	 0.097145
H	 1.1738135615	-1.3820749211	-1.7803393988	 0.098945
H	 2.7535050751	-0.7595307352	 0.7618678417	 0.144705
H	 3.0757071384	-2.2268521644	-0.1672225337	 0.108981
H	 4.0083288956	-0.9505234306	-1.8823685927	 0.253697
H	 4.6424084775	 1.1904597805	-1.6828097401	 0.092269
H	-0.0633867313	-0.8271136632	 1.768975163	 0.10098
H	-0.2655352182	 0.9785656491	 1.5685530826	 0.119001
H	-1.716297009	 0.6186568897	-0.451596809	 0.122109
H	-1.5427981975	-1.1933168726	-0.2759609734	 0.103302
