15
gdb 34168	3.89106	1.62652	1.41888	4.9317	72.32	-0.25	0.0003	0.2503	900.3226	0.114705	-379.589763	-379.583557	-379.582613	-379.620254	25.29	
N	 0.036862382	-1.0938891271	-0.0408578689	-0.337936
C	-0.0058878893	 0.0612820984	-0.0181881446	 0.184279
C	-0.0488083805	 1.502987274	 0.0388046216	 0.237587
C	-1.083999303	 2.2734665598	 0.8860069584	-0.28342
C	-0.8081055811	 3.377382078	-0.1465084053	-0.023347
C	 0.6863039467	 3.7241746519	-0.1213028954	-0.096375
C	 0.9361252244	 2.8728263346	-1.3293683775	-0.021833
C	 1.2693104566	 2.30441855	 0.0140191171	-0.139961
N	-0.4764586332	 2.3098016074	-1.2183737023	-0.199136
H	-2.0823309194	 1.8472705	 0.7648409938	 0.136946
H	-0.8573328961	 2.4542601759	 1.9380117246	 0.118885
H	-1.5404530278	 4.141969665	-0.3996972624	 0.094978
H	 1.2034773768	 4.604251971	 0.2364324966	 0.105093
H	 1.4947574082	 3.0033885415	-2.2461217518	 0.111925
H	 2.2216402457	 2.0804585996	 0.4735340961	 0.112315
