15
gdb 56872	2.67781	1.27732	1.07124	5.853	65.17	-0.2766	-0.0046	0.272	1130.6261	0.112738	-453.969913	-453.961494	-453.96055	-454.003558	30.253	
N	-0.1881946068	 1.5891802757	-0.3013820868	-0.496739
C	 0.016009903	 0.1801443687	 0.0250912433	-0.147575
C	-1.2327006986	-0.3800390271	 0.5719385058	 0.307774
N	-2.1973139996	-0.8566785987	 0.9913797246	-0.316699
C	 0.5256114323	-0.6667722588	-1.153523647	 0.116085
C	 0.3852747021	-2.2009240743	-1.1407661185	-0.453662
C	-0.5378188634	-1.9593011484	-2.3362702501	 0.470704
O	-1.1750606167	-2.5897794587	-3.109170168	-0.297077
O	-0.3926780262	-0.5833782824	-2.2893332529	-0.255308
H	 0.7012503285	 2.0167240287	-0.5408262478	 0.24236
H	-0.7865992625	 1.6584066979	-1.1204744545	 0.259856
H	 0.7682213143	 0.1209889031	 0.8228800731	 0.142654
H	 1.5112376401	-0.2954985181	-1.4502860321	 0.105394
H	 1.2844896505	-2.7721732319	-1.3737884906	 0.15092
H	-0.119270697	-2.6304779557	-0.2738813484	 0.171314
