20
gdb 105699	2.95479	0.79953	0.68805	2.9265	76.76	-0.2488	-0.0185	0.2303	1631.5403	0.168905	-440.258491	-440.248365	-440.247421	-440.294917	35.672	
O	 0.0794500732	 1.4711382629	 0.6585174361	-0.415347
C	-0.0142988904	 0.1413865553	 0.1675236023	-0.152281
C	-1.4219599575	-0.4280568932	 0.2355601765	 0.325375
C	-2.4170094205	 0.2565122758	-0.6944345051	-0.280899
C	-3.8460936987	-0.3040606591	-0.6440839042	-0.286761
C	-4.8419840538	 0.6432740459	-1.267569847	 0.157339
O	-5.6241828639	 0.3580070603	-2.1370204028	-0.240579
C	-1.5408886131	-1.8601345765	 0.6186752707	-0.281104
N	-1.9419024121	-0.7994245461	 1.5582017903	-0.33747
H	-0.2779929647	 2.0674861491	-0.0056627934	 0.290386
H	 0.3679340601	 0.0689076755	-0.8626958923	 0.096167
H	 0.6491832497	-0.4555836433	 0.8034532192	 0.104228
H	-2.4484045266	 1.3208119715	-0.4187828386	 0.09925
H	-2.0359841154	 0.2103591742	-1.7229575581	 0.110168
H	-3.9300630156	-1.2719437125	-1.1446101035	 0.118969
H	-4.1192752668	-0.4299459637	 0.4130656628	 0.152455
H	-4.8070054604	 1.677694718	-0.8476667629	 0.068463
H	-2.3571464322	-2.468885517	 0.2418105034	 0.122595
H	-0.6242920369	-2.4130818244	 0.8104234978	 0.11148
H	-1.2324271643	-0.6523875625	 2.271803839	 0.237565
