18
gdb 47006	2.6461	1.80593	1.44444	4.9453	70.39	-0.2431	0.0166	0.2596	954.0445	0.151878	-439.126277	-439.119213	-439.118268	-439.157965	27.824	
O	-0.0140228448	 0.0385482458	-0.3864781972	-0.33475
C	-0.0149233486	 1.1665634617	 0.0219405616	 0.455573
O	-1.1823814001	 1.7437205575	 0.4020275374	-0.241522
C	-1.2132607327	 3.0380970361	 1.036912517	-0.044787
C	 0.065784238	 3.8393156078	 0.8233920387	-0.027071
C	 0.317557731	 4.1837437985	-0.6747568282	-0.226182
C	 1.1883617211	 3.0028377795	-1.1810130135	-0.228602
C	 1.2258813633	 2.0540312342	 0.0524186013	-0.14538
N	 1.153124635	 2.9315838379	 1.2316796288	-0.305619
H	-2.0851356044	 3.5553094539	 0.625261034	 0.1156
H	-1.3701671872	 2.8712606298	 2.1074619725	 0.12303
H	 0.0297441306	 4.7224057349	 1.466353499	 0.083637
H	-0.6164877681	 4.2819948221	-1.2344879111	 0.113328
H	 0.8481387298	 5.135197322	-0.7629180108	 0.105257
H	 0.7853845123	 2.5182460449	-2.0734674328	 0.127662
H	 2.205770031	 3.3288572303	-1.4159138142	 0.104473
H	 2.0962362914	 1.399504012	 0.080100946	 0.102574
H	 2.0261173024	 3.4478448812	 1.3101006312	 0.222779
