22
gdb 90034	3.17977	1.13297	0.98224	2.4302	83.27	-0.2097	0.0817	0.2914	1320.2506	0.193003	-404.306919	-404.297542	-404.296598	-404.341425	34.992	
C	-0.3621639394	 1.4326421926	 0.0143343206	-0.412605
C	 0.0495829334	-0.0272751693	-0.101331326	-0.111719
C	 1.389513025	-0.3454286027	-0.7978595713	-0.08658
O	 1.8738914385	-1.0471511899	 0.3645973106	-0.317969
C	 0.6936438944	-0.7190292586	 1.120119975	 0.435902
C	 0.9374848386	-0.0542054861	 2.4963595575	-0.230691
N	 0.6572206713	-1.3488267062	 3.1459331905	-0.067835
C	-0.1253312434	-1.3575846769	 4.3587954388	-0.318495
C	 0.0528070543	-1.8793970432	 1.909938902	-0.227708
H	 0.4520648986	 2.0452385613	 0.4163174146	 0.122829
H	-0.6317121346	 1.8381652208	-0.9667651397	 0.118714
H	-1.2298646357	 1.553872345	 0.6714165704	 0.120401
H	-0.7774075835	-0.6217469153	-0.5026273362	 0.079826
H	 1.3456822349	-0.9932062274	-1.6812170082	 0.100918
H	 2.0059120899	 0.5334564201	-1.0311357348	 0.096051
H	 1.942474953	 0.3446055869	 2.6707540552	 0.109399
H	 0.1903550886	 0.7252902361	 2.723482091	 0.07904
H	-1.1041200768	-0.8482466415	 4.2508956289	 0.082661
H	-0.3148681128	-2.3894699493	 4.6732763595	 0.12056
H	 0.4271541749	-0.8598130224	 5.1628904151	 0.120511
H	-1.0502312762	-1.8244152226	 1.8942890688	 0.077099
H	 0.369847017	-2.8902445017	 1.6317214376	 0.109693
