21
gdb 105068	2.64032	1.12309	1.05709	2.0993	77.71	-0.2561	0.0732	0.3293	1277.1459	0.181237	-424.186954	-424.177493	-424.176549	-424.22181	35.735	
C	-0.2266118136	 1.6724304509	-0.0923262371	-0.411756
C	-0.1210085126	 0.1707632668	 0.0555672496	 0.013091
C	 1.1362246143	-0.5526653034	-0.3517280585	-0.313465
C	 0.7590695227	-0.4692121291	 1.111663486	-0.096672
C	 1.5517199077	 0.3241247926	 2.1204369483	 0.350029
C	 2.9788394098	 0.729668311	 1.762035342	-0.136329
O	 3.6671696524	 1.267818759	 2.8665645619	-0.42048
C	 0.8559813206	 1.0648270502	 3.1842814778	-0.215188
O	 1.4772019897	-0.2005747996	 3.4641829909	-0.295039
H	 0.7272196791	 2.1687643656	 0.1127493523	 0.120098
H	-0.5255815464	 1.9429129489	-1.1107907044	 0.120948
H	-0.9700284996	 2.0929058212	 0.5938896983	 0.1189
H	-1.051085252	-0.3578420206	-0.1369830132	 0.086819
H	 1.0614020426	-1.5151941246	-0.845395675	 0.114582
H	 1.9628677367	 0.0565902831	-0.7024296567	 0.115981
H	 0.3710697116	-1.3820831745	 1.5529031296	 0.104233
H	 3.4944679836	-0.1541738737	 1.3518582761	 0.098976
H	 2.9734802126	 1.4957817364	 0.9785316168	 0.113401
H	 3.4661179225	 0.6758816069	 3.6045384407	 0.291593
H	 1.3398899945	 1.9229406211	 3.6444969382	 0.125586
H	-0.2319013062	 1.0552090221	 3.2112075164	 0.114691
