18
gdb 37383	2.90686	2.0567	1.85858	1.0824	72.41	-0.223	0.072	0.295	834.245	0.152671	-401.918949	-401.913135	-401.912191	-401.948696	25.862	
C	-0.0081344695	 1.5828210137	 0.0363148919	-0.236471
C	 1.4814007627	 1.8960961291	 0.0086724108	-0.11531
C	 2.1398113844	 0.6524635115	 0.5307994202	 0.094289
O	 1.157934147	-0.3251276353	 0.7872013238	-0.265035
C	 0.0297581449	 0.0461084157	-0.0388646459	 0.047929
C	 0.3638407772	-0.4289863173	-1.4504880437	-0.0411
N	 0.3751616599	 0.5834430527	-2.5268041034	-0.345146
C	 1.6516136285	 0.1356408445	-1.9235510304	-0.027844
C	 2.3238655118	 1.0364910364	-0.9322277816	-0.087165
H	-0.4375669722	 1.9079889157	 0.9894652831	 0.09676
H	-0.569841313	 2.0158567385	-0.7901373816	 0.132521
H	 1.8318436691	 2.8882254134	 0.2655038283	 0.08719
H	 2.9615114768	 0.6138003806	 1.2342309259	 0.098851
H	-0.8483033163	-0.4487664478	 0.3788343039	 0.076854
H	 0.1038341053	-1.453590083	-1.6979473962	 0.085886
H	 0.2466824005	 0.1170725678	-3.4211383206	 0.230218
H	 2.3057340423	-0.4872625751	-2.5279855894	 0.084547
H	 3.2890709506	 1.4465272088	-1.210192365	 0.083024
