18
gdb 85331	2.18628	1.99521	1.31298	3.55	72.01	-0.2381	0.0196	0.2577	1001.276	0.149486	-439.105248	-439.097458	-439.096514	-439.137713	29.911	
O	-0.1734601494	 1.2642512041	 0.9601100192	-0.429617
C	 0.0126990818	 0.153024821	 0.0972498096	 0.086302
C	 0.8732386184	-0.9386176573	 0.7665516882	-0.363468
C	-0.1374964519	-1.6354811576	 1.7005127125	 0.372083
O	 0.0547930773	-2.0767478965	 2.8086221549	-0.35963
N	-1.3396763409	-1.5996803252	 1.0241456405	-0.085201
C	-2.6311008019	-1.1474777628	 1.5929875275	-0.176464
C	-2.6600482386	 0.008028055	 0.546539044	-0.254681
C	-1.3444610585	-0.5790913026	-0.0418343761	 0.024838
H	 0.6918343569	 1.5845433494	 1.2333517562	 0.289937
H	 0.4083586085	 0.4761074322	-0.8747208537	 0.069975
H	 1.255389621	-1.6490081267	 0.0241739322	 0.127136
H	 1.7217806428	-0.5495971115	 1.3333079465	 0.119711
H	-3.4262759975	-1.8903010887	 1.4871488258	 0.116302
H	-2.5468887001	-0.8571308349	 2.6435043239	 0.132891
H	-3.5118354745	 0.0036582111	-0.1345561083	 0.107282
H	-2.5326423282	 0.9996160499	 0.9771106224	 0.140202
H	-1.4452714753	-1.0070113589	-1.0456053554	 0.082403
