14
gdb 48061	2.06127	1.82995	1.0475	3.8321	68.65	-0.2682	-0.1128	0.1554	1081.2351	0.098688	-436.698856	-436.690203	-436.689259	-436.734374	30.078	
O	-0.9702001479	 1.4009069539	-0.5877956489	-0.202812
C	 0.0059958035	 1.0549974878	 0.0160920316	 0.080783
C	 1.1960120948	 1.9607008856	 0.361777439	 0.239093
O	 2.1095476346	 1.458007192	 0.9793245548	-0.293545
C	 1.2194418047	 3.3992172168	-0.0491306976	 0.068003
C	 1.9793661396	 4.3278182154	 0.9263181648	-0.265519
C	 2.632339144	 3.9543383306	-0.3438925719	-0.265516
C	 0.1359388887	 3.998165175	-0.7822297114	 0.226794
N	-0.6735853082	 4.5791131452	-1.3691629821	-0.343817
H	 0.1664815444	 0.0268553457	 0.4010424969	 0.12261
H	 1.5684341237	 5.3235687415	 1.0363146134	 0.158506
H	 2.3139831973	 3.8391786825	 1.8336087529	 0.158457
H	 3.417268517	 3.2081357648	-0.3125869788	 0.158455
H	 2.6887758135	 4.6827478533	-1.1430908029	 0.158508
