18
gdb 98306	3.03976	1.06918	0.89574	2.4383	68.82	-0.2469	0.0085	0.2554	1331.6293	0.146349	-476.21905	-476.209285	-476.208341	-476.254692	33.903	
C	-0.2539309264	 1.3065259858	 0.1556874354	-0.240651
O	-0.1582181786	-0.1226163125	 0.2457950057	-0.232941
C	 0.7699700038	-0.5897596236	 1.1018773524	 0.430811
O	 1.4976538177	 0.1128494368	 1.7555639336	-0.361386
C	 0.8109264439	-2.1278844707	 1.098734659	-0.140826
N	 1.7831254311	-2.6738325535	 2.0276170706	-0.518538
C	-0.5738297842	-2.7051955725	 1.3660005849	 0.092611
C	-0.7542768291	-4.0432388563	 1.9347591037	-0.18252
O	-0.9264183103	-2.8661092208	 2.7408218859	-0.241203
H	 0.6947379929	 1.7335102994	-0.178650055	 0.14262
H	-1.0411123507	 1.5063127181	-0.5710755469	 0.13562
H	-0.510504709	 1.7354277108	 1.1272454483	 0.14612
H	 1.0810522934	-2.4150980835	 0.0715755144	 0.11752
H	 2.6343439559	-2.1226952045	 1.9746453859	 0.241518
H	 1.4214166268	-2.5330296539	 2.9682797132	 0.246323
H	-1.3617780592	-2.2882006673	 0.7426153907	 0.109699
H	-1.6695457621	-4.593687149	 1.7238544092	 0.11653
H	 0.1235483841	-4.6374931728	 2.1715916192	 0.138691
