18
gdb 19831	3.31439	2.49159	1.74098	0.4267	76.05	-0.2213	0.0253	0.2465	798.9679	0.157115	-310.657003	-310.650763	-310.649819	-310.686955	26.29	
C	 0.0289357606	 1.5733769014	-0.0794592798	-0.300081
C	 1.318048105	 0.7675087215	-0.0305620284	-0.063641
C	 2.1614953075	 0.7640778854	 1.1840373849	-0.074843
C	 1.8267267256	 0.1341353904	 2.3167901619	-0.074845
C	 0.5739347601	-0.6327388404	 2.487312591	-0.063638
C	-0.7643277115	 0.0806409618	 2.6046525523	-0.300082
C	-0.4105047373	-0.6329266542	 1.3287320241	-0.035028
C	-0.0335541733	 0.0764357659	 0.0532254407	-0.035024
H	-0.2092353333	 2.1859402382	 0.7825406796	 0.114865
H	-0.2572207138	 2.0091209499	-1.0308826817	 0.108236
H	 1.8601543576	 0.6987636762	-0.9697293558	 0.083538
H	 3.1074346972	 1.2969231812	 1.1278815359	 0.083564
H	 2.505174164	 0.1636387233	 3.1657410786	 0.083564
H	 0.6669562806	-1.5465721466	 3.067740773	 0.083539
H	-1.5198875428	-0.3669783661	 3.2416223375	 0.108236
H	-0.7521124102	 1.1644492659	 2.6192689069	 0.114864
H	-0.9312602474	-1.569695403	 1.1611944136	 0.083388
H	-0.3396288788	-0.4562717108	-0.8408287843	 0.083388
