16
gdb 94497	3.42931	0.83975	0.7488	4.8585	84.19	-0.2737	-0.045	0.2287	1490.8338	0.12426	-400.725167	-400.716511	-400.715566	-400.759239	31.471	
O	 0.4535400221	 0.9370198797	-0.7314048442	-0.41606
C	 0.0795795029	-0.1509776175	 0.0472838762	 0.166513
C	-0.1654765111	-0.0042499136	 1.570078842	-0.254979
C	-1.3068815817	-1.0464770821	 1.4516439144	-0.228389
C	-1.3742228758	-0.775161016	-0.0924618244	-0.264935
C	-2.362211481	 0.2031148524	-0.4721579991	 0.119862
C	-3.1594647519	 1.0587703911	-0.7864212569	 0.016121
C	-4.0725002216	 2.0105702398	-1.1364870597	 0.205135
N	-4.8476951651	 2.8243805523	-1.4319896737	-0.336061
H	-0.2075502808	 1.6318623437	-0.6272016963	 0.289179
H	 0.8088092671	-0.9394489079	-0.1572045115	 0.107995
H	 0.6684385397	-0.2189546414	 2.2404391179	 0.114354
H	-0.5605357477	 0.9897821542	 1.8029649548	 0.113747
H	-0.9667729148	-2.0664507856	 1.6421959256	 0.120929
H	-2.220944145	-0.8628551147	 2.0155221768	 0.125995
H	-1.4510663552	-1.6524197444	-0.7409050319	 0.120595
