18
gdb 33509	2.69602	1.17238	0.97546	3.9527	76.79	-0.2472	0.0115	0.2587	1255.7501	0.148601	-398.084114	-398.07542	-398.074475	-398.11823	31.876	
N	 0.3139876428	-1.1726044766	 0.265591203	-0.339047
C	 0.1094230558	-0.0384518502	 0.1641271591	 0.249125
C	-0.1576975325	 1.3771319751	 0.024418612	 0.191347
C	-1.5335280314	 1.7409773273	-0.518957156	-0.317776
C	-1.7575187551	 1.2369144667	-1.9292152964	 0.027193
C	-2.4650794744	 2.0869313555	-2.9185026474	-0.248358
N	-1.0195997236	 1.842238535	-3.0479296004	-0.308993
C	 0.5724366357	 2.2813303414	 0.9672674252	-0.270586
N	 0.9510750045	 2.2369789295	-0.4467477111	-0.334227
H	-2.3045629329	 1.3434783672	 0.1520580375	 0.12229
H	-1.6102052264	 2.8335805257	-0.4976528917	 0.11008
H	-1.8570407251	 0.1562426135	-2.0141143271	 0.111855
H	-3.0787487986	 1.6305028673	-3.6897793565	 0.122371
H	-2.8059296417	 3.0671346472	-2.5927359512	 0.109109
H	-0.4896405797	 2.6418766667	-2.7085479852	 0.241465
H	 0.0815632018	 3.1967696019	 1.28522151	 0.135106
H	 1.2273740785	 1.8269922011	 1.7042904649	 0.141503
H	 1.7992714325	 1.6918957254	-0.5787472588	 0.257542
