19
gdb 64149	3.27863	1.15449	1.08518	2.2674	71.44	-0.2482	-0.0336	0.2145	1198.1074	0.156259	-460.183579	-460.174251	-460.173307	-460.218221	34.035	
C	-0.005082496	 1.4826094993	-0.4681487361	-0.412563
C	 0.0130641039	 0.0761454318	 0.1332985234	 0.443903
C	-1.3459331639	-0.3614587996	 0.6582537299	-0.412981
O	 0.4581002072	-0.8856492767	-0.8119229877	-0.278764
C	 1.8668424411	-0.9759673462	-0.6892191646	-0.133502
C	 2.0770315484	-0.7533665368	 0.8134363095	 0.007454
O	 0.9753585837	 0.0461779918	 1.2074191811	-0.309851
C	 2.0860349319	-2.0569940209	 1.6112212294	 0.135248
O	 2.6684890045	-3.050175678	 1.2638556728	-0.23887
H	 0.9794509627	 1.746298031	-0.863079114	 0.117422
H	-0.7341713173	 1.5376176441	-1.2810218136	 0.125091
H	-0.2725236571	 2.2156470965	 0.2974109354	 0.127176
H	-2.078786796	-0.3700027991	-0.1527774277	 0.128548
H	-1.2735584809	-1.3671623402	 1.0778987009	 0.124421
H	-1.6887021171	 0.3260901494	 1.4353982488	 0.126802
H	 2.1922727803	-1.9667913509	-1.0109194171	 0.142234
H	 2.3804323225	-0.2092993542	-1.2851005473	 0.101113
H	 3.0149661238	-0.2232340253	 1.0295569815	 0.113201
H	 1.5032047485	-2.0025705658	 2.5572183255	 0.093919
