19
gdb 26371	2.61777	1.34659	1.10377	2.6333	76.79	-0.1989	0.0526	0.2516	1182.1336	0.159893	-419.257797	-419.248782	-419.247838	-419.291956	33.737	
C	 0.0132292471	 1.5675901877	 0.033762119	-0.38203
C	-0.0047070283	 0.0345949899	 0.0455070388	 0.02091
C	 0.7864631391	-0.547490775	 1.2226953813	-0.382013
N	-1.378853174	-0.4732825211	 0.0357014303	-0.050346
C	-2.3681904152	-0.2908058723	 1.0031016762	-0.140143
C	-3.4658584917	-0.9528154475	 0.5399305532	-0.101086
N	-3.2040150034	-1.5458608341	-0.6841484103	-0.38292
C	-1.9604379985	-1.2300539299	-0.9311753618	 0.441097
O	-1.2522896544	-1.5848123674	-2.0218912823	-0.43145
H	 1.042892325	 1.9313722737	-0.0334103103	 0.120578
H	-0.5481627202	 1.9574239248	-0.8193891654	 0.130928
H	-0.4286658488	 1.9751256655	 0.9486637877	 0.122159
H	 0.4379941327	-0.3272488034	-0.8861431695	 0.119799
H	 0.3721389975	-0.2156058233	 2.1800834722	 0.12216
H	 0.7671365743	-1.6403013291	 1.2029322716	 0.130928
H	 1.8287855433	-0.2183249638	 1.1750482919	 0.120573
H	-2.1865783316	 0.2791944675	 1.8980974425	 0.122024
H	-4.4339186882	-1.0436269181	 1.0076776571	 0.105861
H	-1.8534900349	-2.1099933842	-2.564587282	 0.312971
