14
gdb 34292	3.61132	1.56248	1.40008	5.3186	65.59	-0.2724	-0.0304	0.2421	915.2461	0.101982	-436.672749	-436.666169	-436.665224	-436.703606	26.094	
N	 0.0422370731	-1.114011331	 0.0703809281	-0.323959
C	 0.0362423477	 0.0389462501	 0.0434552402	 0.220413
C	-0.0068101118	 1.4949278865	-0.0451068694	 0.377615
O	-0.6914080554	 2.0490432269	 1.1062423463	-0.306206
C	-0.176354263	 3.3862057412	 1.1865205965	-0.084768
C	 0.7612855534	 3.4413761529	-0.0629857041	-0.050031
O	 1.2676271419	 2.0915797079	 0.0024372478	-0.253902
C	-0.1546135327	 3.3799484459	-1.27675063	-0.095447
C	-0.6445423167	 2.1406139799	-1.2797844299	-0.108679
H	-0.9936182638	 4.1116212092	 1.1495974586	 0.118454
H	 0.3939040749	 3.5003058619	 2.1127643643	 0.127748
H	 1.569703752	 4.1674527523	-0.0409798941	 0.110416
H	-0.4335827118	 4.2205599222	-1.8959754881	 0.128208
H	-1.410518108	 1.687446754	-1.8908482261	 0.140138
