13
gdb 35660	4.42433	0.98685	0.85257	5.1137	70.57	-0.2741	-0.0715	0.2027	1253.5851	0.091107	-411.812502	-411.80476	-411.803816	-411.845399	27.44	
N	-0.2628183341	-1.1621181548	-0.1993489736	-0.308422
C	-0.1064827932	-0.0225998384	-0.0972268654	 0.291304
C	 0.0445155962	 1.4250244993	 0.0595437714	-0.12046
C	-0.5722997611	 1.9608472472	 1.3940436132	-0.201236
N	 0.4203834546	 2.9808185925	 1.7522093989	-0.352591
C	 1.5616278037	 2.6765451708	 1.0336801525	 0.294714
N	 1.4671365234	 1.8364598093	 0.0705427276	-0.286937
C	 2.7904112232	 3.347769354	 1.3623347224	 0.272876
N	 3.7575937185	 3.8999444717	 1.6685126965	-0.302031
H	-0.4355368583	 1.9073620311	-0.8020489103	 0.153127
H	-1.5626602296	 2.3951150704	 1.248760672	 0.145225
H	-0.6347852749	 1.1707000492	 2.1509978875	 0.144312
H	 0.5132592316	 3.2663972577	 2.7164326873	 0.270119
