18
gdb 89660	2.96938	1.25683	1.06038	4.6446	78.76	-0.2478	0.0192	0.267	1177.058	0.147133	-401.941768	-401.933052	-401.932108	-401.974866	33.187	
C	-0.1321850512	 1.5957882303	 0.0394087337	-0.414518
C	 0.0777820285	 0.0870458608	 0.0310973586	-0.040069
C	 1.157854852	-0.5461575905	-0.9145921649	-0.311296
C	 1.7861885155	-1.2829056062	 0.278241092	 0.12355
C	 2.2122464563	-0.2574217483	 1.3213762796	-0.356195
C	 0.7649138322	-0.5707370424	 1.2342039001	 0.361059
O	 0.1279596688	-1.0310655368	 2.3561954468	-0.438479
C	 2.252690007	-2.62390407	 0.2800551675	 0.178658
N	 2.6020726337	-3.7289128495	 0.2759392498	-0.356054
H	 0.8103165579	 2.1312602901	 0.1920029053	 0.121175
H	-0.5582035181	 1.9361329008	-0.9100200302	 0.123538
H	-0.8185188968	 1.8903410683	 0.8399542537	 0.128439
H	-0.8795393457	-0.4181642392	-0.1458066393	 0.078653
H	 0.7365705555	-1.2135338231	-1.6671495474	 0.125929
H	 1.8257657364	 0.1688183634	-1.4051937751	 0.11074
H	 2.6930237305	-0.681644034	 2.1961417702	 0.148634
H	 2.6235729438	 0.6926824028	 0.9884020033	 0.120848
H	-0.6258242661	-1.5699226764	 2.0883436862	 0.295388
