14
gdb 130081	5.44045	1.37025	1.09573	3.0565	70.36	-0.1949	0.0273	0.2222	1021.3572	0.105369	-429.083996	-429.077198	-429.076253	-429.11483	26.914	
N	-0.0214411309	 1.3024967356	 0.1532847461	-0.581471
C	 0.009642025	-0.0732941309	 0.0589657371	 0.398184
N	-1.1160781573	-0.7993124831	 0.0381414699	-0.373171
N	-0.5888903622	-2.0656003632	 0.0122456573	 0.054021
C	-1.0106040551	-3.3806612328	-0.0199823016	-0.117317
C	 0.1243116129	-4.1360701968	-0.040527235	-0.095528
N	 1.2274895218	-3.2779508545	-0.0230119264	-0.425938
C	 0.7637973572	-1.9981863007	 0.010683198	 0.505745
N	 1.2030700739	-0.7490568673	 0.0383118322	-0.455038
H	 0.7996719252	 1.7431543621	-0.2340746368	 0.25657
H	-0.8842126358	 1.710405731	-0.1758835178	 0.256337
H	-2.047165012	-3.6658815411	-0.0245173034	 0.15185
H	 0.2442673298	-5.2045274137	-0.0654767246	 0.145349
H	 2.1937575375	-3.5492776046	-0.0227745051	 0.280406
