17
gdb 66024	2.48131	1.29068	1.12064	1.4985	80.93	-0.255	0.01	0.265	1162.7533	0.132405	-384.598157	-384.588828	-384.587884	-384.632194	34.684	
C	-0.1682831714	 1.5696055446	-0.025971022	-0.449423
C	-0.0561614132	 0.0422144153	-0.0133218399	 0.056845
C	 1.1885661291	-0.4864714178	-0.7846151789	-0.101692
O	 1.9086729561	-0.7267800285	 0.4388316958	-0.282806
C	 0.7171493048	-0.5431660772	 1.235700267	-0.081067
C	 0.9080028176	 0.2942517665	 2.4028038786	 0.327384
C	 1.0481835957	 0.9844823447	 3.3769553019	-0.43041
C	-1.3225745114	-0.5996601068	-0.3106325759	 0.281999
C	-2.3712487794	-1.1353854744	-0.554111315	-0.455993
H	 0.7996670745	 2.0231355455	 0.2025310584	 0.135156
H	-0.4957206622	 1.9108708143	-1.012203126	 0.126088
H	-0.8929876138	 1.912206176	 0.7165877193	 0.136517
H	 1.0062477725	-1.410505296	-1.345397766	 0.110881
H	 1.6966670788	 0.2431355008	-1.4239574102	 0.113759
H	 0.2980889581	-1.512463539	 1.5362796354	 0.109078
H	 1.1787140078	 1.5908269926	 4.2394548196	 0.204528
H	-3.2975567637	-1.6080125807	-0.7700134222	 0.199154
