19
gdb 126560	4.95386	0.76035	0.69366	2.6162	78.59	-0.2144	0.0436	0.258	1645.519	0.159825	-419.23724	-419.227905	-419.226961	-419.272199	34.035	
C	-0.0110680439	 1.5289457993	 0.1571810729	-0.378261
C	-0.0903252225	 0.0110673483	 0.3349839997	-0.156134
C	-1.35445777	-0.5972915065	-0.3000023974	-0.288094
C	-1.4469755621	-2.0838651547	-0.1362875095	 0.370215
N	-1.2679714758	-2.8872625267	-1.1793021186	-0.303333
N	-1.3932188076	-4.1428109355	-0.667080202	-0.253684
C	-1.6479959715	-4.1352126264	 0.6580656957	 0.459229
O	-1.8031635642	-5.3166993144	 1.2951810968	-0.430215
C	-1.6921702666	-2.8165423888	 1.0573496555	-0.446839
H	 0.8951903793	 1.9376523687	 0.6151092167	 0.109611
H	-0.0008997112	 1.802689521	-0.9037159951	 0.116009
H	-0.8713828006	 2.0283192546	 0.6173621266	 0.110998
H	 0.7916716158	-0.4644261878	-0.1103908544	 0.105637
H	-0.0646525437	-0.2388831738	 1.4030842836	 0.093257
H	-2.2402848447	-0.1202704753	 0.140318406	 0.097393
H	-1.3712665158	-0.3731938342	-1.3718438253	 0.113802
H	-1.3129553192	-4.9465528306	-1.2655057285	 0.274749
H	-1.9723580858	-5.1431949908	 2.2261486272	 0.312777
H	-1.87546736	-2.4392204664	 2.05060506	 0.092884
