17
gdb 109911	2.28668	1.63105	1.02184	5.3252	70.78	-0.2513	-0.0628	0.1884	1126.964	0.135992	-458.984006	-458.975447	-458.974502	-459.017812	31.67	
O	 0.0062048871	 1.4591202338	-0.118590912	-0.432407
C	 0.0886425344	 0.0543569068	-0.0306199584	-0.053244
C	-1.3223958605	-0.5700344104	 0.023392772	-0.162976
C	-1.4001837529	-2.1120711579	-0.0172133131	 0.036293
O	-0.0887888176	-2.6696554314	 0.0141522759	-0.419124
C	-2.195995407	-2.4744401479	 1.2241152559	-0.076853
C	-2.5446212827	-1.4123514951	 1.9565789299	-0.163322
C	-2.0253892023	-0.1779132482	 1.3277540716	 0.382765
O	-2.0989966529	 0.9514237679	 1.7701541272	-0.35429
H	-0.5769280227	 1.74700773	 0.5987359725	 0.294997
H	 0.615628748	-0.3016729025	-0.9194751179	 0.116046
H	 0.6705157211	-0.2726366345	 0.8435022118	 0.098263
H	-1.889768468	-0.1323762225	-0.805470242	 0.114493
H	-1.9277558305	-2.4524065728	-0.9204509477	 0.086575
H	-0.1587841	-3.6215275137	-0.1092336202	 0.28985
H	-2.4185732409	-3.5090690526	 1.4676472688	 0.117223
H	-3.0918657326	-1.4052968992	 2.8906329557	 0.125711
