19
gdb 101298	2.40135	1.07703	0.90611	3.3121	72.82	-0.2615	-0.0456	0.2159	1351.1942	0.155902	-460.139654	-460.129591	-460.128647	-460.17542	35.332	
C	 1.1392012236	 1.7413283205	-0.5185315474	-0.419246
C	 0.2892376342	 0.606715846	 0.0737810313	-0.036589
C	 0.0795162433	-0.5447468011	-0.925690793	-0.069499
O	-0.5779801072	-0.1439027713	-2.1137059514	-0.417455
C	 0.9523259006	 0.0779066705	 1.3253172365	 0.065988
O	 0.9185353305	 0.8885137029	 2.4878022143	-0.23217
C	 0.223078197	-0.3518824971	 2.5546337736	-0.055372
C	-1.2709251521	-0.3146687579	 2.6403581342	 0.142922
O	-1.9571464474	 0.637136901	 2.3693718063	-0.242995
H	 2.1293595979	 1.3840437213	-0.8287094725	 0.109884
H	 0.6440366502	 2.1818033516	-1.3891084399	 0.117013
H	 1.282038311	 2.536717734	 0.2173972859	 0.143923
H	-0.6896917289	 1.0103377791	 0.3464366417	 0.125112
H	 1.047670067	-1.0252056876	-1.14854526	 0.083597
H	-0.5633365232	-1.309970663	-0.4769057011	 0.110417
H	 0.0261931305	 0.4075912781	-2.6193862006	 0.286752
H	 1.9148511211	-0.4168891593	 1.1647970669	 0.098448
H	 0.6908813284	-1.114725461	 3.1796420805	 0.10597
H	-1.7168798263	-1.2776772466	 2.9775465846	 0.083297
