17
gdb 87298	2.05989	1.33586	0.95986	6.2022	77.7	-0.2994	0.01	0.3094	1257.1895	0.135153	-380.890287	-380.881002	-380.880058	-380.924897	33.134	
C	 0.0679720198	 1.5022105238	-0.0946022461	-0.423989
C	 0.1398832248	-0.005608691	-0.0026418621	-0.043104
C	 1.4440131224	-0.7440943818	 0.0124723016	-0.307275
C	 0.583212278	-0.7396492651	 1.2693407468	 0.148856
C	 1.0521243059	 0.0344972625	 2.5038377907	-0.429631
C	 2.148925838	-0.6345027698	 3.2062906654	 0.282796
N	 3.0249221878	-1.1557811439	 3.7492319771	-0.294533
C	-0.1335042644	-1.9525842863	 1.5770579524	 0.257939
N	-0.7259790845	-2.9149203091	 1.8243055741	-0.333685
H	 0.9405661307	 1.9926300081	 0.3456990762	 0.125962
H	 0.030987501	 1.8025927327	-1.1466388566	 0.140118
H	-0.8298123487	 1.8934938949	 0.3945631324	 0.136099
H	-0.6707044394	-0.5144168829	-0.515848873	 0.125044
H	 1.5364098918	-1.6764938828	-0.5306985897	 0.149654
H	 2.3580993685	-0.1612814442	 0.0680937029	 0.136495
H	 1.3935688327	 1.0311463831	 2.2127904716	 0.157773
H	 0.2189806856	 0.1747867019	 3.2007028263	 0.17148
