17
gdb 14278	3.59189	1.81536	1.73867	2.9639	68.59	-0.2459	0.027	0.2729	846.6922	0.143577	-363.87126	-363.864129	-363.863185	-363.90261	27.414	
C	 0.2940712635	 1.630736056	 0.0107033787	-0.423009
C	 0.1095709448	 0.1309868926	-0.0604822092	-0.043888
C	 0.5756827196	-0.734920633	-1.2257085638	-0.102941
C	 1.6536487952	-0.1964316883	-2.1473798761	-0.316687
C	 2.8403146794	 0.0696694052	-1.2326260836	 0.400986
N	 3.9253274225	 0.6136339978	-1.5757777698	-0.537614
O	 2.5556645923	-0.3567959533	 0.0418669899	-0.230801
C	 1.2330909114	-0.8535856673	 0.1236478538	 0.0676
H	 1.2639362707	 1.954542081	-0.3732734043	 0.141946
H	-0.4814542425	 2.143342171	-0.5679873827	 0.122504
H	 0.2216119415	 1.9765664523	 1.0470192318	 0.125662
H	-0.8278451013	-0.2165254657	 0.3686718584	 0.093355
H	-0.0883900223	-1.504904202	-1.5985438758	 0.096887
H	 1.9347928149	-0.9382537694	-2.9011095884	 0.137544
H	 1.3848783407	 0.7183582242	-2.6821323972	 0.138833
H	 4.5583414801	 0.687667317	-0.7776900209	 0.223105
H	 1.1593271896	-1.709967578	 0.7825619492	 0.106517
