23
gdb 87159	3.14524	1.0852	0.94931	1.9716	85.24	-0.2419	0.0791	0.321	1354.0255	0.204944	-388.258956	-388.249195	-388.248251	-388.293841	36.423	
C	-0.0375663813	 1.3326389268	-0.3229479683	-0.416246
C	 0.2302234894	-0.1235014725	-0.007143375	-0.033694
C	 1.6368019673	-0.6689611816	 0.09851766	-0.340399
C	 0.7546084944	-0.6150767711	 1.3273692288	 0.330217
C	 1.1038124006	 0.3785398789	 2.4224254487	-0.464028
C	 0.1945313472	-1.9086448892	 1.8943514146	-0.093025
C	-0.1005234473	-3.1042906116	 0.9582083546	-0.10338
O	 0.938116301	-3.9000708532	 1.5600256674	-0.274985
C	 1.2202385258	-2.8778799905	 2.5370841908	-0.076036
H	 0.726594408	 1.9937865598	 0.094416885	 0.115987
H	-0.0483233715	 1.4936928312	-1.4066826161	 0.118851
H	-1.0082968471	 1.6567989713	 0.0690917791	 0.11591
H	-0.4820337352	-0.79552683	-0.4816886628	 0.080801
H	 1.8672904726	-1.6304808743	-0.3490934159	 0.120622
H	 2.4536955051	 0.0444958934	 0.0446390374	 0.103801
H	 1.560545573	 1.2890492928	 2.0281255648	 0.116421
H	 0.2132898734	 0.6701784832	 2.9924264345	 0.114002
H	 1.8172233453	-0.0607826279	 3.1299255714	 0.117983
H	-0.6457099492	-1.6712875254	 2.5546544297	 0.07453
H	-1.0919625558	-3.5561909962	 1.0922728448	 0.096499
H	 0.0692145598	-2.9538605995	-0.1145253469	 0.100708
H	 2.2665694607	-2.5503606477	 2.4950665856	 0.100889
H	 0.9886368636	-3.2116111367	 3.5567579077	 0.094572
