18
gdb 76510	3.14146	1.31541	1.19123	1.0847	71.91	-0.2259	0.0443	0.2702	1091.8981	0.146958	-439.000779	-438.992505	-438.991561	-439.03341	32.095	
O	 0.1071517433	 1.3616400252	-0.042781754	-0.433901
C	 0.0321585364	-0.0325559194	-0.0506483747	 0.023559
C	-0.4877277075	-0.7190459698	 1.2016192101	-0.079251
O	-0.9188806836	 0.1289793981	 2.2377866324	-0.429238
C	-1.3227423265	-0.6906287142	-0.0361601646	 0.313293
C	-2.6988388212	-0.0458928603	-0.1950940414	-0.331983
C	-3.0395826344	-1.2828598425	-1.0301392944	-0.024116
C	-2.063454559	-1.4901104519	-2.1162085907	-0.235064
N	-1.6904649502	-1.9397032937	-0.7553755572	-0.180084
H	-0.2864041026	 1.6424598275	 0.7953877476	 0.285491
H	 0.8400585976	-0.4937673379	-0.6117701837	 0.106783
H	-0.0686532035	-1.6762276992	 1.5058843031	 0.105393
H	-0.1817085169	 0.2482447391	 2.8470280254	 0.29857
H	-3.2462982088	 0.0095944499	 0.7476607228	 0.1263
H	-2.747016625	 0.9219310227	-0.7019757417	 0.113803
H	-3.9614223913	-1.8503883824	-0.9599923892	 0.097806
H	-2.2353296667	-2.3180667082	-2.7969827439	 0.11939
H	-1.53925159	-0.6398171632	-2.5470512659	 0.123251
