16
gdb 9048	5.18382	1.0632	0.92006	4.2585	70.98	-0.2515	0.0137	0.2652	1203.3896	0.128732	-342.747807	-342.738739	-342.737795	-342.782604	31.99	
C	 1.0026722732	 1.2411794537	-0.6542617048	-0.395784
C	 0.1669171607	 0.0340821406	-0.1780534478	-0.104941
N	 0.3665464108	-1.2283179287	-0.8897336665	-0.26976
C	-0.3244050867	-1.3856661722	-2.1677887375	-0.325387
C	 0.1941481753	-0.6247048983	-3.3142297313	 0.308374
C	 0.6419295298	-0.0303850914	-4.2592001987	-0.45254
C	 0.4149965125	-0.2010202942	 1.2588866768	 0.284904
N	 0.6335883119	-0.36273228	 2.3817225717	-0.319501
H	 2.0710048995	 1.0234573936	-0.5618529992	 0.131113
H	 0.7789252391	 1.4588998362	-1.6994231941	 0.145327
H	 0.7820055592	 2.12418035	-0.0475929685	 0.135532
H	-0.8973446427	 0.2842609569	-0.2738042567	 0.132839
H	 1.3553408872	-1.4332246999	-0.9833496332	 0.233792
H	-0.3032250435	-2.4519789283	-2.4234226544	 0.147159
H	-1.3812543996	-1.1372383707	-2.0110308394	 0.14332
H	 1.0327633132	 0.4991221426	-5.0931292064	 0.205552
