17
gdb 50506	5.20304	0.87154	0.77116	0.6682	74.99	-0.2574	0.0106	0.268	1397.3249	0.137794	-418.058886	-418.050458	-418.049514	-418.092952	29.937	
O	-0.0208742982	 0.0037810642	 0.0345564262	-0.331279
C	 0.0174524723	 1.216219161	 0.0578902253	 0.138273
N	 1.1649495783	 1.9410582971	 0.1055851945	-0.049075
C	 2.4804575326	 1.2954128618	 0.0347173723	-0.168893
C	 3.467277589	 2.4734206807	-0.0369383574	-0.239957
C	 2.6108981636	 3.6246573979	-0.6230316279	-0.154167
C	 1.2420913241	 3.3936132083	 0.0579816786	-0.17763
C	 3.1623517773	 4.9548993984	-0.3973722428	 0.267521
N	 3.598083592	 6.008453386	-0.2091473687	-0.312613
H	-0.8869593934	 1.8564773426	 0.041584437	 0.07658
H	 2.6541083873	 0.6568035224	 0.9054056638	 0.136998
H	 2.5255184928	 0.653338598	-0.8516073777	 0.134095
H	 3.8124991409	 2.7536380754	 0.9621824752	 0.136057
H	 4.3453283194	 2.2551331928	-0.6463280892	 0.134039
H	 2.4958762901	 3.4770087485	-1.7029265041	 0.13895
H	 0.4095431344	 3.8205167246	-0.5062207085	 0.139383
H	 1.2443346774	 3.8430361002	 1.0600811834	 0.13172
