16
gdb 43221	2.96819	1.87568	1.66346	2.809	67.63	-0.2387	-0.0305	0.2082	857.0719	0.126605	-437.838134	-437.831906	-437.830962	-437.868552	25.703	
O	 0.077732395	 0.0259773846	 0.1723121706	-0.314285
C	 0.0265940755	 1.2147768273	 0.0804252969	 0.482423
C	-1.087835064	 2.2693725563	-0.0278699153	-0.16311
C	-1.3157361035	 2.8000699898	 1.3935869681	-0.10308
O	-0.0484491884	 3.0316049179	 2.0146312568	-0.269943
C	 0.9280817833	 3.4077936234	 1.0602230046	 0.105597
C	 0.3204486592	 4.3493917041	 0.003436191	-0.199194
N	-0.1041964282	 3.1516110661	-0.8032921238	-0.158167
C	 1.0141567559	 2.347833237	-0.1131051517	-0.171099
H	-2.0148310012	 2.037701688	-0.5550932397	 0.10844
H	-1.9108964183	 3.7229994228	 1.3651269771	 0.113297
H	-1.8488024498	 2.0691554541	 2.0081761314	 0.135254
H	 1.8347806362	 3.6672662912	 1.6093009577	 0.096329
H	-0.4626381892	 5.0439537624	 0.3187197791	 0.116107
H	 1.0729119425	 4.8972477844	-0.5697321389	 0.121992
H	 1.9719469649	 2.2220267607	-0.620496654	 0.09944
