18
gdb 13793	4.12181	1.22531	1.10063	4.5759	69.87	-0.241	0.0226	0.2636	1140.4135	0.153357	-381.132398	-381.123262	-381.122318	-381.166755	32.386	
C	 0.5093342513	 1.7227293142	 0.1198606947	-0.378536
C	-0.1974660543	 0.3754651257	-0.0674174265	-0.191716
C	 0.3624765701	-0.38447321	-1.2482074987	 0.004297
N	 1.6118863366	-1.1143034075	-1.0418119955	-0.307879
C	 0.3953079497	-1.8826499223	-1.3514455075	-0.157333
C	-0.1400625533	-2.7805675174	-0.2642559557	 0.433873
N	-0.8555059808	-3.8471076455	-0.7389696047	-0.532411
O	 0.0309179204	-2.5924281392	 0.9235521803	-0.357425
H	 1.5787771528	 1.5721866057	 0.2968048472	 0.130165
H	 0.4006198416	 2.3630917074	-0.7635852624	 0.102571
H	 0.0982945167	 2.2659049345	 0.9759744011	 0.112712
H	-0.0876048768	-0.2417097487	 0.8262519538	 0.149271
H	-1.2719327484	 0.5338743869	-0.2278776927	 0.087811
H	 0.2419096603	 0.121525524	-2.2081483866	 0.080371
H	 2.2073808578	-1.0717121059	-1.8642005056	 0.233916
H	 0.3029858683	-2.2853717965	-2.3594463343	 0.073078
H	-1.0849349481	-3.9540619735	-1.7110712735	 0.255966
H	-1.3224710639	-4.4343074419	-0.0675726536	 0.261269
