16
gdb 4178	3.53477	1.82505	1.35667	0.9642	68.82	-0.2303	0.0019	0.2322	909.6024	0.129874	-379.829961	-379.822331	-379.821387	-379.861653	28.754	
C	-0.1746624446	 1.6036378952	 0.025351139	-0.410237
C	 0.0687543185	 0.1047807369	 0.0257640152	-0.032652
N	 0.6908839335	-0.5237336511	-1.2145397241	-0.136728
C	 2.0685098807	-0.0304536374	-1.2976678662	-0.242417
C	 1.7889445421	-1.1180818255	-0.3242234735	-0.126688
C	 1.1436998374	-0.5506125538	 0.8826360676	 0.420133
N	 1.340126374	-0.7782546273	 2.1126900226	-0.263485
O	 0.4028998487	-0.0767051992	 2.8998374469	-0.39704
H	 0.7434168346	 2.1821363713	-0.1046248165	 0.120104
H	-0.8665929496	 1.8699155483	-0.780060457	 0.129287
H	-0.6195654624	 1.8973730635	 0.9797368032	 0.144674
H	-0.8785298056	-0.4169146886	 0.2025085942	 0.116516
H	 2.5629241198	-0.3182287415	-2.2207724166	 0.130445
H	 2.3214563583	 0.9637545473	-0.9411395857	 0.122861
H	 2.1590909181	-2.1295821708	-0.4428891423	 0.116676
H	 0.6474396765	-0.3445574673	 3.7919534433	 0.308552
