9
gdb 8975	4.96467	0.91097	0.79305	2.5642	62.78	-0.3074	-0.1328	0.1746	1281.9697	0.046077	-396.174984	-396.167097	-396.166153	-396.208902	24.693	
O	-0.4033643102	 0.4353823587	 0.8561744287	-0.19758
C	-0.0039148257	 1.1490041522	-0.0291402195	 0.032297
C	 1.2280426974	 1.9094072083	 0.0607192995	-0.002165
C	 2.2522059256	 2.5502014416	 0.1194342088	 0.128117
C	 3.4625503473	 3.3257558059	 0.201903865	 0.207552
O	 3.5143351762	 4.4599447133	 0.6119107267	-0.231463
C	 4.6630849344	 2.6161213202	-0.2672428371	 0.234534
N	 5.6080619834	 2.0631975284	-0.6385649925	-0.301766
H	-0.5470585284	 1.2807942212	-0.9843184595	 0.130475
