19
gdb 107493	2.01799	1.91384	1.27186	2.8845	75.44	-0.2532	0.0804	0.3336	1057.1581	0.159132	-422.969483	-422.961325	-422.960381	-423.002	32.002	
O	 0.1298204465	 1.3586021619	 0.2533277705	-0.423346
C	 0.017767773	-0.019195236	-0.0510548169	-0.180515
C	-1.4046394572	-0.5042573272	-0.0490534729	 0.256582
C	-1.927080619	-1.660456989	-0.8647273026	-0.341426
C	-2.5609675488	-0.310132013	-1.044206953	-0.096784
C	-3.5457426403	-0.0347738309	 0.1062560781	-0.323822
C	-2.3753847569	-0.2357853527	 1.0843487949	 0.387428
C	-2.3079641303	-0.5966251652	 2.5012478254	-0.273472
O	-2.0689283367	 0.757623457	 2.0639937656	-0.286818
H	-0.3496901888	 1.4949882037	 1.0808849373	 0.295076
H	 0.4573797129	-0.1620242993	-1.0448773907	 0.106431
H	 0.6131914327	-0.632367303	 0.6488298498	 0.084212
H	-1.2710322023	-1.9808096495	-1.6688279637	 0.118045
H	-2.475648491	-2.4726610315	-0.3922825828	 0.106806
H	-2.5466649376	 0.2130707322	-1.9916452953	 0.099904
H	-3.8925132184	 1.0006012058	 0.1421229715	 0.127524
H	-4.4030895482	-0.7101350534	 0.1921409151	 0.102701
H	-3.2239279252	-0.7314307747	 3.0741452907	 0.121505
H	-1.4362458945	-1.121228045	 2.8895189289	 0.119969
