20
gdb 5966	3.33137	1.15452	1.05028	1.0975	77.36	-0.2623	0.0384	0.3007	1239.0477	0.173208	-348.977709	-348.967586	-348.966641	-349.012196	37.155	
C	 0.0947957109	 1.6165105795	-0.0182621485	-0.387528
C	-0.0096281131	 0.0884088756	-0.0073995376	-0.178735
C	 0.6077511116	-0.5276937552	 1.2525572964	-0.18188
C	 0.7081006012	-2.0758004675	 1.2359558933	 0.145772
C	-0.6619331661	-2.7554749606	 1.1061737873	-0.398629
O	 1.4600962628	-2.5175045666	 0.0972739306	-0.44522
C	 1.3745123731	-2.5167259723	 2.4728373719	 0.318819
C	 1.9504262409	-2.8515763136	 3.4739968286	-0.476919
H	 1.1401185211	 1.9432367836	 0.0164660884	 0.112864
H	-0.3556304572	 2.037810812	-0.9223656311	 0.112764
H	-0.4164236424	 2.0578354197	 0.8447449842	 0.113536
H	-1.0641630446	-0.2000162282	-0.0871961181	 0.098494
H	 0.4932907674	-0.32933446	-0.8859602797	 0.11163
H	 1.6242074369	-0.1344680188	 1.3892391249	 0.09114
H	 0.0449639374	-0.2239776523	 2.1437981393	 0.103442
H	-1.1114916146	-2.5036537724	 0.1431505658	 0.128713
H	-0.542720942	-3.8395174552	 1.1587027726	 0.132038
H	-1.3294712151	-2.4338958584	 1.9093701213	 0.121048
H	 2.3791812448	-2.266298523	 0.2409639803	 0.282013
H	 2.4517635469	-3.1601408063	 4.35812008	 0.196638
