19
gdb 68064	2.03978	1.6546	1.09676	2.9478	77.46	-0.2303	-0.0272	0.2032	1163.4112	0.155954	-422.985441	-422.976291	-422.975347	-423.019132	34.296	
C	 0.005813016	 1.4327395657	 0.1168404179	-0.5106
C	-0.0354385798	-0.0524530352	-0.0587165261	 0.384945
C	 0.6029388928	-0.9423681105	-1.1522338601	-0.294265
C	 0.0562456154	-1.8543022268	-0.027617502	 0.384932
C	 0.2476769078	-3.3207182781	 0.1988807263	-0.510603
O	 0.6240215744	-0.9047185706	 0.9672238335	-0.370716
C	-1.2704403194	-1.0182446107	-0.0244360826	-0.162922
C	-2.1049505487	-1.0391248924	 1.2200217675	 0.136428
O	-3.3118834736	-1.1002792951	 1.2092211664	-0.267584
H	 1.0424412607	 1.7827737371	 0.1264646564	 0.138434
H	-0.5194355884	 1.9245885815	-0.7075173545	 0.134312
H	-0.4699989201	 1.7289783484	 1.0562082656	 0.139284
H	 0.1213585436	-0.98378926	-2.1324852583	 0.098435
H	 1.6917301755	-0.8879196012	-1.2076000318	 0.10617
H	 1.3144512607	-3.563229922	 0.2187805224	 0.138435
H	-0.1973109554	-3.6312138624	 1.1486937118	 0.139278
H	-0.22346568	-3.8913953229	-0.6071726245	 0.134308
H	-1.8948097032	-1.065448714	-0.9200544089	 0.084922
H	-1.5335611783	-0.9940307209	 2.1682115308	 0.096808
