13
gdb 46343	4.1517	0.7708	0.69078	0.6911	83.68	-0.2477	-0.0503	0.1974	1547.8181	0.086093	-419.355055	-419.346596	-419.345651	-419.389115	29.999	
O	-0.1184105986	 0.0044957936	-0.2753630135	-0.247051
C	-0.0573386678	 1.1677292017	-0.0515680265	 0.347037
C	-1.0130143096	 2.2830126191	 0.3732202339	-0.186565
O	 0.0707014155	 3.2327818487	 0.3306142535	-0.268556
C	 1.0685624497	 2.2568500462	-0.0750411967	-0.240769
C	 2.1627106158	 2.0900935858	 0.8494896464	 0.472568
C	 3.0730737812	 1.9253635389	 1.630555707	-0.262443
C	 4.0955116654	 1.7429985882	 2.5070440007	 0.302427
C	 5.0040356538	 1.5812116678	 3.2857504369	-0.547111
H	-1.8131629666	 2.5079798988	-0.3427105661	 0.141375
H	-1.4405416049	 2.1670835675	 1.3770415136	 0.14772
H	 1.4334711141	 2.4597711323	-1.0919037798	 0.14189
H	 5.802950462	 1.4381720016	 3.9706941507	 0.199479
