23
gdb 101037	1.98104	1.30834	1.00772	0.9117	82.43	-0.245	0.0761	0.3211	1338.2194	0.203323	-425.397076	-425.386261	-425.385317	-425.433194	39.46	
C	-3.5482271864	 0.8071383437	 0.840153896	-0.232501
O	-2.6397421579	-0.130275726	 1.3651730788	-0.255242
C	-1.5704614076	-0.49025404	 0.4831288123	 0.064538
C	-0.4809719503	 0.5833707062	 0.4723484297	-0.427999
C	-1.1310135669	-1.8830291738	 0.9200485496	 0.378636
C	-2.1500884126	-2.9486305905	 0.5841860849	-0.156668
O	-2.2264186603	-3.07101457	-0.8345969154	-0.427534
C	 0.3189764735	-2.3042431903	 0.8962397961	-0.312961
C	-0.3733045801	-2.0624559036	 2.2123698059	-0.308344
H	-4.3545894349	 0.9181727938	 1.5704004226	 0.122258
H	-3.0957984462	 1.7967823942	 0.6760602185	 0.102438
H	-3.9803531542	 0.4680302077	-0.1146551297	 0.102297
H	-1.9747613916	-0.5869339141	-0.5359560103	 0.081042
H	-0.0024446236	 0.6856065169	 1.4510367615	 0.121642
H	 0.2849535384	 0.3563799131	-0.2740952239	 0.122778
H	-0.9104905366	 1.5543122634	 0.2102752174	 0.116223
H	-1.8497072244	-3.9037738508	 1.042527389	 0.07587
H	-3.1219350971	-2.6595893456	 1.007696552	 0.100138
H	-3.0097007372	-3.5865810827	-1.0467585662	 0.285155
H	 0.5308180899	-3.3264047656	 0.6018044569	 0.11286
H	 1.0693614109	-1.5908781721	 0.5782179869	 0.110705
H	-0.1114375628	-1.1735401285	 2.7740931016	 0.116973
H	-0.6232956518	-2.9160306154	 2.8337520356	 0.107695
