14
gdb 45027	2.53605	1.88005	1.2016	3.7526	64.33	-0.2884	-0.0128	0.2756	974.3854	0.101846	-473.856791	-473.849771	-473.848827	-473.888743	26.527	
N	-0.1656960587	 1.3364242797	 0.0683844678	-0.502336
C	-0.1297095865	 0.0816816503	-0.0164589256	 0.411323
O	 1.0738808202	-0.5839909717	-0.2544919743	-0.266193
C	 1.1888311868	-1.8134723522	-0.8510626607	 0.465505
O	 2.2520159874	-2.2129748738	-1.2010926293	-0.334529
O	 0.0631670819	-2.5285396701	-1.0278424076	-0.242793
C	-1.1542414464	-2.1745287535	-0.4086538912	 0.114968
C	-1.2065141028	-1.9971529672	 1.0688805271	-0.336823
C	-1.3063624128	-0.7853058042	 0.1396589108	-0.123962
H	 0.7583704268	 1.7396298229	-0.0939985701	 0.240739
H	-1.9707887615	-2.6443568499	-0.9407400775	 0.138368
H	-2.1092361544	-2.2919214441	 1.5902333304	 0.144872
H	-0.2877545611	-2.125878459	 1.630156408	 0.15375
H	-2.253894039	-0.2712329771	 0.0529321022	 0.137111
