19
gdb 49162	3.83892	1.19649	1.06731	3.5442	83.7	-0.2446	-0.051	0.1936	1163.6916	0.161666	-385.908082	-385.900772	-385.899827	-385.939818	29.354	
O	-0.083822217	-0.0155793857	 0.0265959805	-0.280174
C	-0.0078244376	 1.1940447128	 0.0381048803	 0.079501
C	 1.2484389555	 1.9475803588	-0.0002766638	 0.221567
C	 1.24555538	 3.2914162301	 0.015599528	-0.135245
C	 2.5637489976	 4.0152004548	-0.0255893452	-0.061159
C	 3.4415831175	 3.3474336105	-1.1350729606	-0.218064
C	 3.7308102952	 2.2294134897	-0.0905842997	-0.02592
C	 3.5220533652	 3.3223771172	 0.998655163	-0.218064
C	 2.5730328102	 1.2169867125	-0.058760785	-0.303494
H	-0.9234331481	 1.8281680932	 0.0800898597	 0.060998
H	 0.311744098	 3.8475452007	 0.057289666	 0.10132
H	 2.4640032328	 5.1007101475	-0.0090792958	 0.066276
H	 2.9497600721	 3.0731109817	-2.0716422034	 0.099523
H	 4.3348133309	 3.9413497126	-1.3443137968	 0.101955
H	 4.6990327524	 1.7262216346	-0.1330135858	 0.066928
H	 4.4290270024	 3.9120128036	 1.1539153538	 0.101954
H	 3.1019201795	 3.0257169083	 1.9629103313	 0.099521
H	 2.6633373153	 0.5455042981	 0.804255522	 0.121286
H	 2.5974685281	 0.5658416089	-0.9415072586	 0.121293
