16
gdb 81904	2.40566	1.86306	1.17432	3.6407	69.76	-0.2305	-0.0921	0.1384	1023.4399	0.123722	-437.888799	-437.880904	-437.87996	-437.921285	29.654	
C	 0.0799054914	 1.6646472388	 0.0230727577	-0.396447
C	 0.0812863184	 0.1421523044	 0.0057812662	-0.077749
N	 0.707057849	-0.4478845825	-1.2074044046	-0.100516
C	 2.1494571486	-0.2973164469	-1.235780224	-0.250897
C	 1.5527439925	-1.6028153416	-0.7943217603	-0.150912
C	 1.5020445132	-1.7701082156	 0.6815157847	 0.337172
O	 1.8975819755	-2.6825898583	 1.3569456335	-0.293946
C	 0.735725169	-0.5188243732	 1.2174813432	 0.268022
O	 0.6482050008	-0.2003210914	 2.3714627037	-0.282506
H	 1.0961760402	 2.0679717293	-0.0098303259	 0.125691
H	-0.475122888	 2.0572316653	-0.8323213716	 0.135148
H	-0.3898187446	 2.0142544531	 0.9457920944	 0.147914
H	-0.9597194997	-0.2150625109	 0.0077475152	 0.130846
H	 2.60183741	-0.2542757328	-2.221547255	 0.144352
H	 2.6356534615	 0.3251189654	-0.4858585915	 0.134723
H	 1.5842733122	-2.4726007031	-1.4404922956	 0.129106
