21
gdb 92448	2.2802	1.74386	1.44065	1.0026	76.65	-0.235	0.0661	0.3011	1033.3878	0.184756	-424.237277	-424.229232	-424.228287	-424.269326	32.427	
C	-0.1836759828	 1.5600193355	 0.0137060408	-0.414588
C	 0.0068166069	 0.0452113227	-0.0029856895	 0.051934
C	 0.854127214	-0.5051868347	-1.2027907006	-0.234493
C	 1.9799817723	-1.3071646756	-0.5047989229	-0.062262
C	 2.8856370929	-0.3079826439	 0.2250999985	-0.080113
O	 2.0599896152	 0.189246047	 1.3039133162	-0.282105
C	 0.8080087358	-0.4991443625	 1.1998852051	 0.050092
C	 1.2458113795	-1.8978885927	 0.7127482996	 0.119141
O	 0.2119859409	-2.7743577866	 0.3160537654	-0.442499
H	 0.7788173614	 2.0734654806	 0.0933170198	 0.127184
H	-0.6826248162	 1.9019457692	-0.8990179914	 0.108373
H	-0.7976906904	 1.8737548473	 0.8654700783	 0.106987
H	-0.9730547278	-0.4429506197	-0.0055803713	 0.071824
H	 0.2549999578	-1.1502704335	-1.847923158	 0.109272
H	 1.265216489	 0.3007195432	-1.8191276232	 0.090834
H	 2.5132250923	-2.0166758393	-1.1385970829	 0.070182
H	 3.784552376	-0.7770561265	 0.6463715567	 0.096362
H	 3.1983363048	 0.5257822526	-0.4150072411	 0.098555
H	 0.3057308088	-0.4348663986	 2.1683550737	 0.060484
H	 1.9303778213	-2.3759437319	 1.4265832142	 0.068669
H	-0.2588197617	-3.0594260526	 1.1052637125	 0.286167
