17
gdb 124871	3.63942	1.30498	1.18716	2.9781	73.59	-0.28	-0.0224	0.2576	1084.6012	0.137126	-414.164235	-414.156379	-414.155435	-414.197749	29.058	
C	-0.1622415265	 1.4783653722	 0.1932129216	-0.449755
C	 0.0200256343	-0.0130633748	 0.0154747012	 0.3638
C	 1.3546143904	-0.5877900931	-0.3900315882	-0.286558
C	 0.8117451605	-0.8262343811	 0.9986084315	-0.299753
N	-1.1458912152	-0.6637542649	-0.5442285524	 0.085437
N	-1.5846779022	-0.4070423353	-1.7735672258	-0.246795
C	-2.6678564652	-1.1697035585	-1.8289345296	 0.071413
N	-2.8815141559	-1.8607396646	-0.686923003	-0.209279
N	-1.909208597	-1.5239811872	 0.1239168205	-0.123248
H	 0.7531864067	 1.9196962021	 0.5955587041	 0.125589
H	-0.3856561946	 1.9569023045	-0.7642132487	 0.147832
H	-0.980521548	 1.6910281621	 0.8885623958	 0.136159
H	 1.3514570364	-1.4202870504	-1.083440825	 0.134802
H	 2.1719850478	 0.1116856838	-0.5237087078	 0.125724
H	 1.2513089319	-0.2872334902	 1.8299845955	 0.126883
H	 0.4465738408	-1.8155806514	 1.2409909188	 0.151504
H	-3.3049255842	-1.2310376931	-2.6963604985	 0.146242
