13
gdb 28997	3.06218	1.54657	1.02759	4.5808	75.19	-0.2574	-0.0646	0.1928	1054.6604	0.092173	-415.694851	-415.687924	-415.68698	-415.726357	26.182	
O	 0.1073490286	 1.3344137379	 0.0664861806	-0.393927
C	 0.0743136199	-0.00376077	 0.0322768245	 0.393981
N	 0.0879499146	-0.5958924461	-1.1531867668	-0.359444
C	 0.0550565586	-1.9313724662	-1.1903543926	 0.008396
C	 0.0073927389	-2.7310950492	-0.0541379998	-0.1336
C	-0.0066680259	-2.103808588	 1.1858326883	-0.140235
C	 0.0269634336	-0.7097696619	 1.2538211454	 0.037451
C	 0.0141383522	-0.0243696215	 2.5035390251	 0.232331
N	 0.0029033112	 0.5108773564	 3.5299722221	-0.334606
H	 0.1371149537	 1.632422321	-0.8542285184	 0.308026
H	 0.0676935001	-2.3773315127	-2.1812582007	 0.128148
H	-0.0178839322	-3.8100994488	-0.1380458655	 0.116685
H	-0.0433569689	-2.6766104808	 2.1052918177	 0.136795
