18
gdb 5062	3.21979	1.93413	1.22919	1.733	76.23	-0.1686	0.0581	0.2267	991.8765	0.153798	-344.027315	-344.018149	-344.017205	-344.061059	32.985	
C	 0.004904952	 1.5142818037	 0.1100132539	-0.505726
C	 0.0108489614	 0.0269293596	-0.0284985975	 0.229516
C	-0.0238909261	-0.7839230997	-1.1487470683	 0.17246
C	-0.1123497354	-0.3718793352	-2.5862671382	-0.523223
C	 0.0274057201	-2.1394593223	-0.6897376851	 0.163939
N	-0.0717182232	-3.2664867321	-1.5354876573	-0.604916
C	 0.0925403709	-2.1161946107	 0.6836780464	-0.177791
N	 0.0737187038	-0.7896324841	 1.0714088632	-0.306024
H	 0.9776409403	 1.9103493166	 0.4310251595	 0.12419
H	-0.23736953	 1.9870531147	-0.8444361781	 0.134319
H	-0.7407180888	 1.8526524263	 0.840303561	 0.120382
H	 0.8197078527	-0.5629229348	-3.1369393644	 0.111019
H	-0.9058981517	-0.9213287873	-3.1069734214	 0.129225
H	-0.3272617749	 0.6955058837	-2.6902604571	 0.11605
H	 0.5289372118	-3.1830529827	-2.3478695826	 0.235926
H	 0.1690641028	-4.1239368894	-1.0534654493	 0.232705
H	 0.1314436347	-2.9143103466	 1.4072040007	 0.097998
H	 0.1052850895	-0.4683978197	 2.0220225046	 0.249952
