20
gdb 94996	2.81625	1.69653	1.32239	1.1002	77.74	-0.2302	0.0786	0.3088	1012.5234	0.173797	-403.108295	-403.100933	-403.099989	-403.139713	30.378	
O	-0.0687595322	 1.4404490952	 0.0071533125	-0.446443
C	 0.0297110669	 0.0203297366	 0.0040960324	 0.14107
C	 0.857524108	-0.4909914204	 1.1890065243	-0.261428
C	 0.714433094	-2.0168256432	 1.3957829293	-0.153576
N	-0.5828047666	-2.6192565429	 1.0911341027	-0.07371
C	-1.8890699766	-2.1233621626	 1.4826469992	-0.043839
C	-2.0417926446	-0.5923398358	 1.4986014706	-0.262694
C	-1.3858778369	-0.5377813711	 0.0790273829	-0.031305
C	-1.4188928299	-2.0875538426	 0.0470639111	-0.081649
H	 0.8231693197	 1.8003424939	 0.0554989607	 0.27702
H	 0.4842788619	-0.3252217731	-0.9412235933	 0.060109
H	 1.9187683099	-0.2508983463	 1.0448208598	 0.08367
H	 0.532498583	 0.0538592514	 2.0802032367	 0.112254
H	 1.4325690649	-2.5348107853	 0.7479728571	 0.107522
H	 0.978203132	-2.2805044002	 2.4254992686	 0.10808
H	-2.5578786517	-2.8263148552	 1.9683113925	 0.091135
H	-3.0977243951	-0.3150765673	 1.4458745911	 0.105346
H	-1.5809509739	-0.0318770886	 2.3144935117	 0.101863
H	-2.0196766387	-0.0585011964	-0.6687272383	 0.080915
H	-1.6837402242	-2.709845976	-0.8017876616	 0.08566
