24
gdb 103925	3.06341	1.10824	1.03104	1.6694	89.84	-0.2187	0.0818	0.3005	1343.7453	0.216239	-368.385883	-368.375947	-368.375003	-368.419921	38.659	
C	-0.0025667607	 1.5014239265	 0.2038499005	-0.388794
C	-0.0980792787	-0.0046005169	-0.0649296354	-0.229328
C	 0.6848185167	-0.4895688753	-1.2897775804	 0.369836
C	 0.1585703986	 0.0926389469	-2.6021565914	-0.456941
C	 2.2623751437	-0.3983105337	-1.2047020633	-0.327773
C	 2.3338041984	-1.9231428588	-1.3777248599	 0.361799
C	 3.4008414362	-2.7011483128	-2.0830106032	-0.508911
N	 1.6045962189	-2.477127205	-0.2067146014	-0.377654
C	 0.8488385855	-2.0211435942	-1.4024338001	-0.163443
H	 1.0395163617	 1.8198533443	 0.3182199919	 0.115027
H	-0.4429236627	 2.0951912635	-0.6036917711	 0.111368
H	-0.5292855061	 1.7641778069	 1.1267702057	 0.110248
H	 0.2699193419	-0.5563749959	 0.8055036772	 0.117944
H	-1.1534984332	-0.2853446863	-0.1896734551	 0.081504
H	 0.2897168099	 1.1786092524	-2.6413907088	 0.117124
H	 0.6859733062	-0.3353940736	-3.4618943241	 0.107437
H	-0.9098860754	-0.1211921752	-2.7263119927	 0.108836
H	 2.6939485959	 0.1579172732	-2.041158579	 0.093746
H	 2.679434471	-0.026661631	-0.2649360578	 0.098334
H	 4.3288524716	-2.7226925108	-1.4986776948	 0.126684
H	 3.0883119327	-3.7379753639	-2.2516955182	 0.114455
H	 3.6334617172	-2.2583008443	-3.0575519828	 0.122925
H	 1.6683372426	-3.4937423235	-0.2707296666	 0.21909
H	 0.2004864883	-2.7066056527	-1.939401229	 0.076488
