19
gdb 81126	3.28039	1.11601	0.99464	5.3381	80.36	-0.2472	0.0346	0.2818	1247.7507	0.159858	-382.019307	-382.010778	-382.009834	-382.052907	32.156	
C	-0.1053396397	 1.6351154597	 0.035901172	-0.445094
C	 0.035535969	 0.1197412703	 0.0242905779	-0.011114
C	 1.1946180038	-0.6346678623	-0.7024032821	-0.042121
C	 2.1745576023	-0.1980361237	 0.4141223221	-0.245715
C	 0.8620749292	-0.6784851564	 1.0893225482	 0.331621
C	 0.5552043813	-0.8329020769	 2.5670463514	-0.483724
C	 1.5713845173	-1.6006736356	 3.285185325	 0.276649
N	 2.3810477668	-2.1947086109	 3.856039245	-0.309081
N	 0.9258576604	-1.8679906616	 0.1473057938	-0.336381
H	 0.8366003448	 2.1558914231	 0.223918499	 0.124798
H	-0.4917739506	 1.9870397243	-0.9266658145	 0.127432
H	-0.8193937608	 1.9499641646	 0.8052461462	 0.121154
H	-0.9399608993	-0.3472760911	-0.1662963577	 0.064154
H	 1.3860848431	-0.713438381	-1.772735237	 0.087532
H	 3.0303141826	-0.855941417	 0.5619540213	 0.127914
H	 2.434830677	 0.8565496749	 0.4898877054	 0.100371
H	 0.4766098433	 0.1589355507	 3.028082928	 0.158136
H	-0.4181335508	-1.3211502822	 2.697678314	 0.152751
H	-0.0288781998	-2.197061559	-0.038512118	 0.200719
