14
gdb 127913	6.99188	0.87579	0.78216	3.3858	70.35	-0.2334	-0.0952	0.1382	1378.3882	0.099115	-469.987709	-469.978936	-469.977992	-470.022402	29.622	
C	-0.050063416	 1.4007707042	 0.1024968437	-0.330567
N	 0.0848485384	-0.0478904251	 0.0658392943	-0.384604
C	 0.5864694506	-0.5921392103	-0.9456128578	 0.543396
N	 0.788294735	-1.9495790925	-1.1597237143	-0.428641
C	 1.3313859676	-2.1050162995	-2.4062709557	 0.325915
C	 1.6721785858	-3.4299869132	-2.9878336446	 0.098868
O	 2.1427583602	-3.5870986388	-4.0811716785	-0.212394
N	 1.5159663505	-0.9740599536	-3.0108327036	-0.14127
O	 1.0634565975	 0.0037101132	-2.1076088359	-0.240146
H	 0.8392728727	 1.8588787422	 0.5537291402	 0.128768
H	-0.1953894303	 1.852530587	-0.8864376838	 0.12832
H	-0.905151425	 1.6590045352	 0.7329057444	 0.127047
H	 0.5195205305	-2.6609065299	-0.5026774671	 0.290475
H	 1.4491058725	-4.2821139288	-2.3091641814	 0.094834
