19
gdb 98449	2.93248	1.19574	1.09314	0.9737	72.18	-0.2454	0.0046	0.25	1218.5763	0.157077	-460.178192	-460.168415	-460.167471	-460.21396	34.178	
C	 0.1875109483	 1.3898795687	-0.1813714681	-0.240372
O	 0.3049456636	-0.0349578872	-0.0758013873	-0.230723
C	 0.6448584089	-0.4986866146	 1.1375154156	 0.432111
O	 0.8845522598	 0.209215583	 2.0841920743	-0.372791
C	 0.6348360292	-2.0326681508	 1.1560115311	 0.317048
C	 1.4397064275	-2.6364593241	 0.0180398998	-0.453555
C	 0.8313283308	-2.6219793794	 2.5697473013	-0.330307
C	-0.6569622434	-3.0050247212	 2.4719815555	-0.068684
O	-0.7554848654	-2.4704246928	 1.1300173569	-0.323622
H	 1.1360286409	 1.8738086181	 0.064369222	 0.141017
H	-0.0879266151	 1.5887266183	-1.2168862824	 0.135363
H	-0.5835415634	 1.761532512	 0.4981462561	 0.143406
H	 2.4910913428	-2.3350546966	 0.0860874727	 0.122702
H	 1.3860588148	-3.7274131784	 0.0673443505	 0.120734
H	 1.044883111	-2.3052461535	-0.9446035001	 0.144587
H	 1.5278204514	-3.4605257999	 2.6102177239	 0.107947
H	 1.0852928896	-1.8834746691	 3.3280695191	 0.138186
H	-0.8847869124	-4.0765420663	 2.4934439905	 0.105778
H	-1.3250069089	-2.4831313061	 3.1664651787	 0.111173
