24
gdb 119977	1.89949	1.11299	0.82018	2.1472	86.52	-0.2133	0.0631	0.2764	1544.8158	0.215678	-405.510801	-405.499733	-405.498789	-405.547254	39.895	
C	-2.1758220039	 1.5156721093	 0.3566047116	-0.382271
C	-2.0083624546	 0.0040757718	 0.529294434	-0.166299
C	-2.2772693652	-0.780392466	-0.7640985358	-0.205585
C	-2.0332613149	-2.2658932736	-0.5788224622	-0.004157
C	-3.0727042984	-3.2092612123	-0.0545799012	 0.000743
C	-4.4674119518	-2.7582551857	 0.3146940318	-0.109649
O	-4.4183401046	-2.3400451061	 1.6757952443	-0.41141
N	-2.5949859398	-3.3153095915	-1.4331075468	-0.128004
C	-3.4557995887	-2.9934906731	-2.5616188564	-0.313336
H	-1.9803487346	 2.0476388245	 1.2930103604	 0.110974
H	-1.487384433	 1.9099621729	-0.3996432806	 0.111019
H	-3.1935756413	 1.7687765992	 0.0378636788	 0.108991
H	-0.9899178501	-0.2139513899	 0.8769700453	 0.09343
H	-2.6851478894	-0.367501076	 1.3066007062	 0.123441
H	-3.2997320459	-0.5786708815	-1.098584868	 0.090643
H	-1.6198361783	-0.4103453041	-1.5633723356	 0.094036
H	-1.0030673415	-2.4811000144	-0.2902438087	 0.084939
H	-2.7371467097	-4.0267247845	 0.5838047897	 0.090428
H	-4.8206454468	-1.9467534417	-0.3339272647	 0.087616
H	-5.1655174264	-3.6016846964	 0.1906463941	 0.093156
H	-5.3158486809	-2.144847567	 1.9617199193	 0.287582
H	-4.1120281635	-2.1201854359	-2.4399283726	 0.09971
H	-2.8252260349	-2.8139927295	-3.4386773648	 0.123265
H	-4.0874742917	-3.8610248383	-2.7799749382	 0.120737
