19
gdb 89911	4.44652	0.88909	0.84067	3.3661	76.73	-0.2368	-0.0218	0.215	1413.9675	0.156685	-422.998171	-422.98906	-422.988116	-423.032993	33.212	
C	-0.135191229	 1.5130357528	-0.0153734388	-0.408736
C	 0.1001428523	 0.0203054166	 0.0735924565	 0.150967
O	 1.1778171819	-0.4570853264	-0.7947162499	-0.347088
C	 1.7663300145	-1.1694162295	 0.3039329615	 0.470725
C	 2.30973307	-2.5400166251	 0.0223463575	-0.387998
C	 3.5455040163	-2.4872808949	-0.8615421728	 0.160458
O	 4.557268448	-3.1034009712	-0.6482322376	-0.239395
C	 2.2373434123	-0.202865929	 1.3462956277	-0.337072
C	 0.7737523209	-0.6080628625	 1.2955587656	-0.219783
H	 0.7489082469	 2.0798332394	 0.2873938014	 0.123988
H	-0.3880845431	 1.79434772	-1.042513977	 0.13081
H	-0.9715127157	 1.7994817976	 0.6312640934	 0.120752
H	-0.8173527607	-0.5250650121	-0.1832710708	 0.08475
H	 2.5639123911	-3.0635417828	 0.9477421824	 0.126671
H	 1.5450333233	-3.1233855768	-0.5102004358	 0.130511
H	 3.4462712152	-1.8259469329	-1.7498769666	 0.098799
H	 2.7864018417	-0.637965216	 2.1757802307	 0.121527
H	 2.5596711856	 0.7924446706	 1.0556060455	 0.1182
H	 0.2648161586	-1.0789085379	 2.125985517	 0.101912
