21
gdb 75474	2.80825	1.18776	0.91606	0.4884	90.58	-0.2258	0.0299	0.2556	1327.0641	0.181763	-349.944457	-349.934978	-349.934034	-349.978925	35.706	
C	-0.5922695735	 1.4509108305	-0.1052949665	-0.497263
C	-0.1746945065	 0.0137758709	-0.0455671118	 0.33529
C	 0.2154770338	-0.7434872008	-1.0741618218	-0.158555
C	 0.5556091943	-2.1570732141	-0.6759764232	-0.249652
C	-0.0064664091	-2.2437085417	 0.7646824245	-0.230401
C	-0.1341184902	-0.7765654057	 1.257559882	-0.083743
C	 1.0557381475	-0.3812969553	 2.1813916076	-0.361524
C	 0.9379350264	 0.9249526059	 2.8181061156	 0.304768
C	 0.8315133592	 1.9891492123	 3.3684335796	-0.446866
H	 0.0560355608	 2.0848951697	 0.5080082889	 0.142855
H	-0.5747826004	 1.8251586044	-1.1328793375	 0.114518
H	-1.6087690377	 1.5807425157	 0.2880564137	 0.120854
H	 0.3012209124	-0.3871670916	-2.0959830527	 0.081653
H	 0.1086322053	-2.9060756232	-1.3397724235	 0.100912
H	 1.6405967367	-2.3321629444	-0.7099975973	 0.102064
H	-1.0013474388	-2.6981504882	 0.7374203907	 0.102341
H	 0.6088997543	-2.8588051578	 1.4282116394	 0.09108
H	-1.052166438	-0.6332738363	 1.8400596973	 0.078602
H	 1.1425977673	-1.141222162	 2.9686845251	 0.128992
H	 1.9882161661	-0.4281598634	 1.6041470589	 0.130317
H	 0.74224173	 2.9312449752	 3.8497486411	 0.193755
