22
gdb 59129	3.96942	1.11234	1.01293	1.5571	86.75	-0.2264	0.0843	0.3107	1286.2235	0.194082	-367.120697	-367.112176	-367.111232	-367.15378	33.449	
C	 0.6731767305	-0.3189145429	 1.4009812396	-0.391061
C	 0.0097568717	 0.0937425272	 0.079004594	 0.00105
C	-0.1767560688	 1.6149045512	-0.0101005388	-0.387897
C	 0.8262286966	-0.4087739656	-1.10392196	 0.069085
C	 0.8014118605	-1.8720771854	-1.5496102516	-0.092409
C	-0.5574127681	-1.6329726312	-2.278236856	-0.006811
C	-0.0588235342	-2.1621991538	-3.6252690532	-0.25974
C	 1.115995326	-1.4055194197	-3.0027252999	 0.000425
N	 0.1810754812	-0.27630987	-2.4883080548	-0.178553
H	 0.7764469392	-1.4062435745	 1.4796888896	 0.111883
H	 1.674716615	 0.1189114766	 1.4898114961	 0.112533
H	 0.0856911348	 0.0247359555	 2.2585199771	 0.112094
H	-0.9827866951	-0.3748268154	 0.0378092746	 0.068908
H	 0.7884469251	 2.1302456704	 0.0649389705	 0.108627
H	-0.632916511	 1.8962094903	-0.9630069338	 0.134621
H	-0.812911106	 1.9816278843	 0.8020512703	 0.105386
H	 1.823033294	 0.0568424698	-1.0942243999	 0.060154
H	 1.1453009848	-2.7842110588	-1.0485076167	 0.061387
H	-1.5632493765	-1.6621848161	-1.8583318586	 0.083943
H	 0.0454777427	-3.2456619916	-3.7237224868	 0.097893
H	-0.5057119211	-1.7125831647	-4.5159540579	 0.10813
H	 2.0941510187	-1.1556002558	-3.4183957538	 0.080355
