16
gdb 55886	3.49508	0.88582	0.76541	1.9988	70.26	-0.2581	0.0123	0.2704	1431.4979	0.124079	-434.086201	-434.07693	-434.075986	-434.121838	32.501	
N	-0.0541954968	 1.2456919827	 0.3829790714	-0.524986
C	 0.0962876792	-0.0470847651	-0.0154516704	 0.427875
O	 1.1843726252	-0.5721709573	-0.1567269474	-0.36305
C	-1.2103968851	-0.7825628464	-0.3256092449	-0.341985
C	-1.0469088018	-2.264473457	-0.0967788522	 0.019722
N	-1.4394653832	-2.7730051331	 1.2166051215	-0.313819
C	-2.2167042198	-3.1891169301	 0.029128456	-0.213907
C	-3.5747052838	-2.7057384092	-0.053880965	 0.329781
N	-4.6587518841	-2.3159614951	-0.1529554355	-0.337324
H	 0.7726151304	 1.7718135051	 0.6151247181	 0.264519
H	-0.9534572933	 1.640967117	 0.5940511177	 0.264983
H	-2.0433186094	-0.3989691928	 0.2699759504	 0.130966
H	-1.4507908171	-0.5948937057	-1.380069517	 0.144875
H	-0.1579577092	-2.6852694099	-0.5578191163	 0.127089
H	-0.8364729042	-3.5364583436	 1.5115259579	 0.250739
H	-2.0907355369	-4.2004350995	-0.3478737445	 0.134523
