21
gdb 76188	2.08184	1.37136	1.14608	2.5799	82.1	-0.2403	-0.0286	0.2117	1222.0161	0.178805	-424.236761	-424.226265	-424.22532	-424.271598	38.741	
C	-0.0333360118	 1.4909333332	 0.1581016664	-0.415012
C	 0.0345359902	-0.0071680162	-0.0359438226	-0.130386
C	 0.6569052844	-0.6845898379	-1.2313490061	 0.228515
C	-0.0155842358	-1.939062444	-1.7660348893	-0.460168
C	 1.3176438548	 0.145131456	-2.3179948189	-0.445142
C	 1.3921870356	-0.7200501375	 0.1184440096	 0.305439
O	 2.5281120049	 0.0696817896	 0.24890897	-0.471955
C	 1.4548081859	-1.9334031476	 0.9522553848	 0.090675
O	 2.4143516274	-2.1618812475	 1.6614052001	-0.30226
H	 0.9193111874	 1.9700048192	-0.0714173693	 0.144722
H	-0.8094116974	 1.9327165767	-0.476162842	 0.11941
H	-0.2770272326	 1.7281989513	 1.1985014456	 0.12305
H	-0.8067454848	-0.5491061292	 0.3927268314	 0.085714
H	-0.7467130579	-1.6647269775	-2.5357518941	 0.121839
H	 0.7111611054	-2.6174595804	-2.2265423995	 0.12415
H	-0.5538777213	-2.4937359966	-0.993306429	 0.115409
H	 1.8884041831	 0.9815980339	-1.9170955312	 0.144238
H	 2.0081328631	-0.4758853883	-2.8987437843	 0.120522
H	 0.559756516	 0.5340636738	-3.0075137484	 0.11481
H	 3.0673272267	-0.3942003888	 0.9108720143	 0.296137
H	 0.5825088268	-2.6125296722	 0.9252469926	 0.090294
