16
gdb 13235	7.58427	0.90471	0.86728	2.0085	67.5	-0.2512	0.0252	0.2764	1294.4459	0.128289	-383.659954	-383.65161	-383.650666	-383.693924	28.951	
C	-0.1070559728	-1.1675293309	-0.1147161321	-0.410416
C	-0.0043075594	 0.0185002111	 0.0403243789	 0.280741
C	 0.0887373082	 1.4571083102	 0.2444163851	-0.22007
O	 1.323742202	 1.9381090967	-0.2620064152	-0.249639
C	 1.4606436801	 3.3274511892	-0.1348414472	 0.10579
C	 1.9270894742	 3.8930091243	 1.2310100111	-0.094998
O	 3.0909797102	 4.484468408	 0.6188401299	-0.271527
C	 2.8118374651	 3.8468024258	-0.6454962475	-0.101689
H	-0.1914282339	-2.2168042435	-0.2555162142	 0.203589
H	-0.7521612105	 1.9616022306	-0.2612913014	 0.122662
H	-0.0057460248	 1.6839425017	 1.3191594002	 0.125039
H	 0.5850105954	 3.845251062	-0.5512504204	 0.077868
H	 1.2907129513	 4.6440037454	 1.7128447131	 0.103392
H	 2.1893957646	 3.1092561578	 1.9544844572	 0.105491
H	 3.5140297953	 3.0348835296	-0.8713963947	 0.116467
H	 2.792450215	 4.5620223022	-1.4746579828	 0.107298
