21
gdb 59303	2.39997	1.27631	0.98402	2.0806	78.86	-0.251	-0.0275	0.2235	1282.4185	0.180127	-424.23664	-424.226667	-424.225723	-424.271448	36.999	
C	 0.2217525903	 1.3897573187	 0.2244314548	-0.394313
C	 0.0540600607	-0.1157924243	-0.0273231177	 0.042464
C	-1.4121827654	-0.5293177091	 0.1784963699	-0.400699
C	 0.5371860682	-0.509964808	-1.4296337396	-0.059043
C	 2.0681116176	-0.2864364464	-1.7023240673	-0.361831
C	 2.2423027644	-1.7744920723	-1.4028848218	 0.346794
O	 3.0764432984	-2.4317384399	-0.8422166763	-0.31158
C	 0.7685453094	-2.0654848836	-1.6591140439	 0.045453
O	 0.1689726068	-3.0473114088	-0.8672863518	-0.422675
H	 1.2638378709	 1.7140285093	 0.1487120935	 0.111615
H	-0.3615239692	 1.9721691447	-0.4988928926	 0.112912
H	-0.1351509649	 1.654423143	 1.2250152634	 0.115555
H	 0.6669599732	-0.6557599775	 0.709839063	 0.072095
H	-2.0634352413	-0.0002639868	-0.5281298515	 0.106662
H	-1.5437687451	-1.6022089729	 0.0307546565	 0.142959
H	-1.7478282574	-0.2727940064	 1.1887229678	 0.107335
H	-0.1159867077	-0.063075552	-2.1839707512	 0.077506
H	 2.2824915598	-0.0393094056	-2.7458019336	 0.130357
H	 2.6223762649	 0.3939420975	-1.0538286165	 0.133027
H	 0.5920103254	-2.2890485169	-2.7202698228	 0.106923
H	 0.8483824909	-3.3725030827	-0.2624058425	 0.298482
