21
gdb 60550	2.92832	1.23265	1.05839	2.9276	78.13	-0.2363	0.0682	0.3044	1224.5281	0.183293	-420.352189	-420.343105	-420.342161	-420.386185	34.907	
C	 0.0533481848	 1.5151309403	-0.0349371036	-0.490762
C	-0.03037993	 0.0045747748	-0.0124004812	 0.318224
C	 1.1256706118	-0.7778318187	-0.5200602518	-0.276853
N	 0.8283801801	-0.7430271338	 0.9269964746	-0.371381
C	-1.4340868822	-0.6245640921	-0.1240004141	 0.026524
O	-1.3706793168	-1.9934679247	 0.2222297625	-0.444452
C	-2.4711384698	 0.1140394256	 0.7169111382	 0.005418
C	-3.6110958572	-0.6168412691	 1.3116459841	-0.246349
N	-2.5301066717	-0.0908572877	 2.1722973212	-0.330035
H	 1.0966480229	 1.8460077179	-0.0493352058	 0.112557
H	-0.434174208	 1.9208655642	-0.9285621114	 0.129269
H	-0.4335231383	 1.9542951055	 0.8410173291	 0.148659
H	 0.9676016026	-1.7454700313	-0.9860465939	 0.132465
H	 1.9911812869	-0.2282887591	-0.8795843141	 0.115381
H	 1.4614149041	-0.1269967449	 1.4279121269	 0.237779
H	-1.7510297478	-0.5623685301	-1.1756757325	 0.087368
H	-0.6122933991	-2.0613753936	 0.829451408	 0.296898
H	-2.6331623258	 1.1473713026	 0.4166374576	 0.08571
H	-4.570273627	-0.1205823025	 1.4284173998	 0.109726
H	-3.6500520908	-1.6882809404	 1.1466806874	 0.128029
H	-1.9146155587	-0.866940213	 2.410084089	 0.225825
