17
gdb 35488	3.19984	1.53043	1.4443	4.7087	74.11	-0.2439	0.0316	0.2755	955.307	0.139282	-380.844943	-380.838163	-380.837218	-380.876159	27.084	
N	-0.0979279216	-1.1896372041	-0.2640391784	-0.336183
C	-0.059018752	-0.0421638477	-0.1282299003	 0.288542
C	-0.0268301748	 1.4116856121	 0.0398908856	-0.183488
C	-0.6721674386	 1.908208959	 1.3793299917	-0.235405
C	 0.5375975264	 2.3313335292	 2.2176514219	-0.058564
C	 1.5418530613	 1.1593228766	 2.3412562303	-0.169571
N	 2.342316488	 1.6508360497	 1.1644000768	-0.139136
C	 1.547506409	 2.9316966376	 1.2068121354	-0.058288
C	 1.3925783911	 2.000401208	 0.0742773229	-0.023917
H	-0.5572450807	 1.8387239242	-0.8180703164	 0.131212
H	-1.3239111505	 2.7622500076	 1.1714169014	 0.114374
H	-1.2710825674	 1.1316534281	 1.8622127754	 0.127077
H	 0.2946778819	 2.8868856449	 3.1224820301	 0.080995
H	 2.1770972753	 1.2271415928	 3.2267498566	 0.11868
H	 1.1594010412	 0.1376100581	 2.2494901305	 0.126766
H	 2.0002101854	 3.9156785548	 1.1848263196	 0.10265
H	 1.8990039558	 2.1671928891	-0.8695558533	 0.114256
