16
gdb 109528	1.95042	1.50971	1.16997	4.0885	76.49	-0.2601	0.0094	0.2695	1136.4435	0.121787	-400.696243	-400.686943	-400.685999	-400.730635	33.039	
C	-0.4271154425	 1.1389818562	-0.1588465771	-0.245528
O	 0.4635052177	 0.0608865944	 0.1018543265	-0.219982
C	 0.9076131445	-0.5705340292	-1.0311365868	 0.117723
C	 1.3792373873	-1.9893388526	-0.8787818528	-0.287373
C	 1.3412821805	-2.6485558771	 0.3905990211	 0.365817
C	 1.3329166323	-3.2237691374	 1.4448960043	-0.434056
C	 0.0721920411	-1.690954221	-1.6536358704	-0.257493
C	-1.1943562923	-2.0344308032	-1.0802214004	 0.321706
N	-2.2335274853	-2.3034860001	-0.6488260825	-0.34217
H	 0.0511791009	 1.9046284209	-0.7862049777	 0.112516
H	-1.3433379076	 0.7896193144	-0.6495887418	 0.136506
H	-0.6796854226	 1.5738949626	 0.8091564099	 0.144003
H	 1.4451575008	 0.0594720752	-1.742477444	 0.106663
H	 2.2057455382	-2.2760254093	-1.5225693814	 0.134911
H	 1.3109245287	-3.7231606434	 2.3819638627	 0.206347
H	 0.1244277884	-1.8117183004	-2.7305297195	 0.140408
