14
gdb 43591	3.33855	1.36025	1.10969	3.7982	67.53	-0.2516	-0.0002	0.2514	1054.4505	0.100699	-436.658374	-436.650796	-436.649851	-436.690678	28.555	
O	 0.0500566024	-0.0549488015	-0.1640475881	-0.370534
C	 0.0350208296	 1.1499991506	-0.0751359942	 0.441382
N	-1.0722324742	 1.9470064011	 0.0896089951	-0.323735
C	-0.8306720065	 3.3888896884	 0.1046166224	-0.196637
C	-1.3912410581	 4.0614503982	 1.2739567918	 0.331668
C	-1.8730726586	 4.6228995429	 2.2196570011	-0.432248
C	 0.7022540429	 3.4613066436	 0.0230572927	 0.035785
O	 1.3521343857	 2.8264129818	 1.1101947452	-0.23128
C	 1.2196550987	 2.0983655552	-0.1272382674	-0.100962
H	-1.9614545832	 1.5508079521	 0.350456282	 0.264319
H	-1.2438148556	 3.8529915972	-0.8033856727	 0.121834
H	-2.2868139752	 5.1158884534	 3.06492645	 0.209263
H	 1.1733407338	 4.3499269395	-0.3835975063	 0.122602
H	 2.1357065883	 1.8182334673	-0.6341055216	 0.128542
