19
gdb 89305	2.38004	1.6688	1.18676	3.4617	70.57	-0.2422	0.0524	0.2946	1066.9421	0.158323	-460.126269	-460.117555	-460.116611	-460.159257	34.234	
O	 0.4604090741	 0.6836091587	-0.9713543776	-0.443794
C	-0.0084216701	-0.272803043	-0.0688138001	 0.175729
C	 0.0295187427	-0.0030637426	 1.4720959247	-0.348745
C	-1.3884569602	-0.642025649	 1.5939992798	 0.42213
O	-1.480516321	-1.866588211	 2.2624362621	-0.487278
C	-2.5405490484	 0.3789970628	 1.7347800324	-0.333896
C	-2.501317115	 0.5919125357	 0.1891890715	 0.100929
O	-1.934801333	 1.8223230503	-0.250902576	-0.436329
C	-1.5203250204	-0.6075158828	 0.0299560317	-0.143487
H	-0.1392138405	 1.4377435937	-0.9021470738	 0.292148
H	 0.5360500954	-1.1971776429	-0.2860936186	 0.093945
H	 0.8184105014	-0.5244342122	 2.0205166166	 0.095634
H	 0.0570383723	 1.0604944629	 1.7226171586	 0.095756
H	-1.1524919975	-1.7460458264	 3.1604475641	 0.277657
H	-3.464936048	-0.1138711255	 2.0487109024	 0.107525
H	-2.3663915827	 1.2645134281	 2.3555611763	 0.086642
H	-3.4669278109	 0.4299833522	-0.3035018646	 0.082365
H	-2.4982227572	 2.5439715482	 0.0439974753	 0.291319
H	-1.9052755008	-1.4416843971	-0.5562249247	 0.071751
