21
gdb 52430	9.21401	0.39972	0.39143	2.2477	87.31	-0.2502	-0.0217	0.2285	2651.4643	0.179016	-387.073932	-387.062993	-387.062049	-387.111777	37.675	
O	-0.7188923571	 0.8746226489	 0.8293149678	-0.236115
C	 0.013119106	 1.0192804276	-0.1151952752	 0.15968
C	 1.2905165998	 1.8267249542	-0.1120142258	-0.273493
C	 1.2844763436	 2.9159510188	-1.1990807002	-0.199804
C	 2.6127031128	 3.675161525	-1.2894466926	-0.175653
C	 2.6058691821	 4.765400496	-2.364780776	-0.177939
C	 3.9472988111	 5.5219294419	-2.4473780496	-0.356521
C	 3.9539917141	 6.5605866087	-3.4701373898	 0.291501
C	 3.9321523992	 7.4100138936	-4.3203415775	-0.434329
H	-0.2242837003	 0.54774481	-1.0991206266	 0.068922
H	 1.4328808604	 2.2524078838	 0.885690818	 0.121835
H	 2.120308748	 1.1311813771	-0.3074005196	 0.117332
H	 1.0588020299	 2.4587973611	-2.1719635144	 0.104214
H	 0.4706895859	 3.6237152645	-0.9967635879	 0.114011
H	 2.8415942194	 4.1241881747	-0.3134178088	 0.101869
H	 3.4238141377	 2.9625804702	-1.4939231417	 0.097566
H	 2.3859075633	 4.3242473356	-3.344124718	 0.110629
H	 1.8038207064	 5.485099074	-2.1634829515	 0.112538
H	 4.1743064849	 5.9695930953	-1.4706734038	 0.130255
H	 4.7570504057	 4.8075430392	-2.64697031	 0.12922
H	 3.9249522271	 8.1637170296	-5.0679984267	 0.194283
