16
gdb 6450	4.70429	1.40336	1.30595	2.2763	67.11	-0.2529	0.0263	0.2792	957.3127	0.128433	-383.686303	-383.678279	-383.677335	-383.718191	31.148	
O	 0.0821544105	 1.4556399967	-0.0657306527	-0.44205
C	 0.0362973862	 0.0498609158	-0.0302221928	 0.14269
C	 0.2610746321	-0.566684622	 1.3826246948	-0.267011
C	-1.283160812	-0.6277913161	 1.5553751535	 0.190955
O	-1.666136619	 0.6159631231	 2.1579038518	-0.467488
C	-1.4029769958	-0.5482439352	-0.0015883708	-0.288705
C	-1.8873160962	-1.7602471925	 2.2384382595	 0.26095
C	-2.4106796993	-2.6939332535	 2.7868054094	-0.433327
H	-0.4734868742	 1.7671368683	 0.6609844595	 0.285214
H	 0.6933121706	-0.3014979755	-0.8278831051	 0.0841
H	 0.697947702	-1.5661749035	 1.3397918592	 0.11577
H	 0.7889238903	 0.0457005365	 2.1161959261	 0.119317
H	-2.6297317358	 0.6579485275	 2.1547983738	 0.286167
H	-2.2075950763	 0.0801787739	-0.3919115104	 0.102588
H	-1.4532416683	-1.5416188591	-0.4539250177	 0.113503
H	-2.8628052948	-3.5199672944	 3.278237212	 0.197326
