16
gdb 12934	2.63695	2.16357	1.68906	4.2613	65.69	-0.236	-0.0036	0.2324	846.5766	0.129042	-383.730625	-383.722752	-383.721808	-383.762631	29.258	
C	-0.054647581	 1.5636652873	 0.0090290907	-0.496953
C	 0.0326579698	 0.0640811039	 0.0181750967	 0.170723
C	-0.8338090928	-0.8209963244	 0.8738987214	 0.066594
O	-1.6437040542	-1.7860087985	 0.2651845173	-0.417112
C	 0.6373268729	-0.9883651654	 1.0359320387	-0.171114
C	 1.1865050238	-1.8462922955	-0.1130824122	-0.351313
C	 0.6517673435	-0.7625611351	-1.0773868375	 0.38719
O	 0.8602923973	-0.5251851867	-2.2334291328	-0.317871
H	 0.8946301093	 2.0124731289	-0.2994410625	 0.132566
H	-0.8232462874	 1.8978625175	-0.6959399559	 0.143411
H	-0.3138475833	 1.9546123283	 0.9976540967	 0.119579
H	-1.3245283938	-0.2671896907	 1.6764978908	 0.09449
H	-1.8069397536	-2.48726583	 0.9057195977	 0.289425
H	 1.1587966354	-0.7729309149	 1.9603213405	 0.102771
H	 2.2779840308	-1.8896809221	-0.1578807508	 0.127578
H	 0.7725379035	-2.8515080726	-0.2160234887	 0.120035
