19
gdb 97684	2.64757	0.84339	0.70753	1.735	82.21	-0.2479	0.0273	0.2751	1666.297	0.15658	-422.973745	-422.963413	-422.962468	-423.011905	35.993	
C	-0.6345243138	 1.2726228066	-0.0298651365	-0.364645
C	 0.5951385286	 0.3673415771	 0.1696082026	-0.322873
C	 1.0845373206	-0.2138923682	-1.0752477802	 0.155584
C	 1.461398421	-0.6863841633	-2.1175097565	 0.027087
C	 1.9430006643	-1.2121918892	-3.3699998646	 0.129026
C	 2.280932558	-0.200499105	-4.4530965908	-0.123428
O	 1.1353400966	 0.4999380544	-4.888055458	-0.40919
C	 2.5439733613	-2.5602104723	-3.4273969789	-0.205121
O	 1.2172416265	-2.354299949	-3.8984494573	-0.271089
H	-0.4012571166	 2.1005348843	-0.7043496122	 0.134125
H	-1.464711289	 0.7087712575	-0.4631819197	 0.131943
H	-0.9603424482	 1.6869553615	 0.9287741655	 0.114932
H	 1.4032164236	 0.9421643544	 0.640230905	 0.132041
H	 0.3504982151	-0.438700639	 0.8731248491	 0.132491
H	 2.976672052	 0.5490056941	-4.0636300566	 0.117676
H	 2.7728749858	-0.7321287305	-5.2818843848	 0.08983
H	 0.4948804888	-0.1628907861	-5.171229272	 0.294439
H	 3.2888598833	-2.7806697273	-4.1917521556	 0.114467
H	 2.6310979319	-3.1339194101	-2.5068649388	 0.122706
