18
gdb 54922	4.09113	0.88114	0.80622	3.494	80.73	-0.2386	0.0284	0.267	1439.0748	0.145552	-401.932726	-401.923063	-401.922119	-401.968472	33.91	
C	-0.3377982611	 1.4399371751	-0.1225020639	-0.490187
C	-0.1999571773	-0.0717277493	-0.0431028608	 0.370264
O	-0.5246739279	-0.7307022706	 0.9289050991	-0.364734
N	 0.3322328278	-0.6616547753	-1.1499102711	-0.068028
C	 0.564355454	-0.2158636119	-2.5239221912	-0.192856
C	 0.830360605	-1.7122702276	-2.9113834072	-0.189948
C	 0.4005875982	-2.0890795039	-1.4497440608	-0.177486
C	 0.0529276539	-2.2620121572	-3.9999873946	 0.323044
C	-0.6052692392	-2.7135304503	-4.8989541617	-0.456089
H	 0.5967374823	 1.91387768	-0.438866983	 0.13299
H	-1.1102950249	 1.7179408345	-0.8483271274	 0.138732
H	-0.6246846701	 1.8143771994	 0.8596570097	 0.149289
H	-0.3165921714	 0.2131605114	-3.0142859421	 0.12431
H	 1.4157418147	 0.4604803457	-2.65329827	 0.119642
H	 1.8953773836	-1.8955248626	-3.0731724136	 0.117812
H	 1.140942915	-2.6415045212	-0.8648852658	 0.12741
H	-0.5662799742	-2.5966304416	-1.3800459663	 0.132162
H	-1.1815505684	-3.1172125544	-5.6943996892	 0.203671
