17
gdb 91163	2.72109	1.6158	1.51721	2.812	72.12	-0.2423	-0.0048	0.2375	947.9651	0.137474	-421.84343	-421.836108	-421.835164	-421.874998	29.142	
O	 0.0043518369	 1.4307043031	-0.0742511481	-0.433555
C	 0.0191499364	 0.0183874822	 0.0072031852	 0.13294
C	 0.622542553	-0.5484124787	 1.3376195356	-0.264357
C	-0.554308607	-1.3592529669	 1.9723766568	-0.16636
C	-1.6567602755	-0.3874711913	 2.3272280838	-0.088122
C	-2.1669692461	 0.1149610153	 1.1913876577	-0.060229
C	-1.4438527849	-0.5076308251	 0.0178821568	-0.186148
C	-1.1891173478	-1.8981410776	 0.6632016981	 0.42309
O	-1.4132004051	-3.0046857149	 0.2800300578	-0.319637
H	 0.9164004553	 1.7387253266	-0.0785786051	 0.283227
H	 0.5446093891	-0.4091493084	-0.8588024278	 0.078191
H	 1.4842206494	-1.1940119987	 1.1431189223	 0.107282
H	 0.9369970522	 0.2702426596	 1.9896382585	 0.10966
H	-0.2713052208	-2.095478584	 2.7222113581	 0.083032
H	-1.9481648816	-0.1424696935	 3.3403522022	 0.104902
H	-2.9530461658	 0.8511773479	 1.0950516291	 0.110506
H	-1.9443392379	-0.4923028056	-0.9475627212	 0.08558
