18
gdb 107365	3.54731	1.198	1.01247	3.4141	72.39	-0.2411	0.0248	0.2659	1188.5468	0.147705	-439.102627	-439.094296	-439.093352	-439.135589	31.72	
C	 0.0545046314	 1.3075103606	 0.3288110808	-0.256326
O	-0.026124504	-0.0034927232	-0.2050011629	-0.285853
C	-1.3016415336	-0.5483950584	-0.1468143613	 0.432324
C	-1.7727576045	-1.1610991867	 1.1587583678	-0.357705
C	-1.4249841798	-2.0391443103	-0.0341495604	-0.08383
N	-2.4950828732	-2.4224194275	-0.9062145228	-0.307284
C	-3.1459229312	-1.3620096787	-1.4982159901	 0.399153
O	-4.1611234878	-1.4298632505	-2.1506737647	-0.366426
C	-2.3460182328	-0.0904383827	-1.1544483496	-0.420247
H	 1.1013065991	 1.611444569	 0.2642782773	 0.131336
H	-0.5577180121	 2.0194515174	-0.2420201807	 0.11529
H	-0.2657795416	 1.3350806304	 1.379739581	 0.11174
H	-1.0537244951	-1.1433843041	 1.9707158457	 0.123817
H	-2.8145804636	-1.0791368479	 1.4521640886	 0.118813
H	-0.5459187705	-2.6718452599	-0.0122666425	 0.118963
H	-2.965411219	-3.3123252583	-0.8407824011	 0.25247
H	-3.0330509401	 0.6802809509	-0.7965144295	 0.133084
H	-1.8582131818	 0.28595693	-2.0598164754	 0.140683
