21
gdb 70927	3.3082	1.49347	1.26785	1.3405	83.09	-0.2437	0.093	0.3367	1079.9478	0.184026	-387.03124	-387.023455	-387.02251	-387.063194	31.563	
C	 0.0366776995	 1.5030781003	 0.0409090682	-0.514594
C	 0.0080683698	-0.0012494098	-0.0007774456	 0.279639
C	 0.6195696462	-0.9371937481	-1.1264601999	-0.357182
C	-0.0341314263	-1.894375312	-0.0899528042	 0.319163
C	 0.6013687265	-0.9981477194	 1.026156946	-0.293882
C	-0.610391962	-3.2613050508	 0.1832646051	-0.391067
C	-1.8094914334	-2.8339032938	 1.1132256082	-0.069564
O	-2.0344444263	-1.4044138307	 0.9830940197	-0.295116
C	-1.2342500527	-0.9605535298	-0.090263436	 0.104086
H	 1.0655067158	 1.8800515098	 0.0471589345	 0.117168
H	-0.4736322661	 1.9325220092	-0.8282412286	 0.117773
H	-0.4630288288	 1.8752069431	 0.9416349034	 0.126359
H	 0.1569245758	-0.887169885	-2.1169531365	 0.092573
H	 1.7100352664	-0.9403552805	-1.1929209198	 0.095703
H	 1.692173833	-1.028365416	 1.1017284287	 0.080243
H	 0.1257801198	-1.0217957826	 2.0070564383	 0.10548
H	-0.9779725366	-3.7374747694	-0.7313016548	 0.108895
H	 0.0591749207	-3.9605495482	 0.690561594	 0.106956
H	-2.729634024	-3.3670932073	 0.8472640547	 0.104173
H	-1.5898456801	-3.0383505991	 2.1664984662	 0.108869
H	-1.8216607975	-0.87525591	-1.0154411217	 0.054325
