16
gdb 12252	3.10068	1.67193	1.3173	4.1528	61.82	-0.233	-0.0253	0.2077	961.3135	0.128279	-420.862533	-420.854234	-420.853289	-420.895511	29.763	
C	 0.0230345916	 1.285244583	-0.1670873885	-0.238514
O	-0.0993118533	-0.0272358349	 0.3405351671	-0.259724
C	-1.3625283576	-0.6191612467	 0.1369076917	 0.05876
C	-1.5162443732	-1.2333920261	-1.2845933325	-0.375552
C	-0.9285926587	-2.5390543008	-0.6964987425	 0.347258
O	-0.3322729109	-3.4640771158	-1.1577556204	-0.284499
C	-1.2577279456	-2.0568232632	 0.7455632012	 0.049146
O	-0.4066197972	-2.280323624	 1.8160330387	-0.420836
H	 1.0274387847	 1.6342297317	 0.0819929315	 0.136771
H	-0.1042290715	 1.3188238799	-1.2581824701	 0.115319
H	-0.7159174948	 1.9591840442	 0.290527769	 0.115539
H	-2.1693432876	 0.0293650257	 0.4976466158	 0.074313
H	-2.5585571249	-1.3482962273	-1.5981072338	 0.131829
H	-0.9457137778	-0.7722313065	-2.0926216605	 0.135606
H	-2.2560077776	-2.4259157148	 1.0125523171	 0.116451
H	 0.3776056144	-1.7394628544	 1.6556592363	 0.298134
