14
gdb 49319	2.42861	1.8843	1.06106	4.5446	74.68	-0.2539	-0.0905	0.1634	1043.559	0.102566	-432.914818	-432.907248	-432.906304	-432.947256	27.732	
N	 0.0903695854	 1.2827806621	 0.0070213921	-0.422715
C	 0.0112715352	 0.0195495531	 0.0043801679	 0.084219
N	-1.2114220062	-0.6654957209	 0.0119642859	-0.170875
C	-1.2712060472	-2.0733077048	 0.0085880273	 0.383387
N	-0.2330849137	-2.8073660348	-0.0014811599	-0.521463
C	-2.7074985489	-2.4295028775	 0.0187896572	-0.167384
C	-3.4360215435	-1.311933934	 0.0275160111	-0.185332
C	-2.5265591762	-0.123509692	 0.0236638694	 0.413309
O	-2.835562088	 1.0358630463	 0.0292986906	-0.311938
H	 1.0722072353	 1.5573257817	 0.0002052672	 0.234048
H	 0.8395654338	-0.6926803285	-0.0038266288	 0.142527
H	-0.4910846395	-3.793189618	-0.0021549357	 0.235657
H	-3.0461648731	-3.456658267	 0.0186252981	 0.137549
H	-4.5098611333	-1.1946883856	 0.0362058377	 0.149011
