19
gdb 36230	3.68765	0.97462	0.85358	0.7957	83.69	-0.2426	0.0163	0.259	1374.3771	0.159077	-385.863248	-385.854548	-385.853604	-385.897035	32.897	
C	-0.1156165704	-1.1854418353	 0.4559764442	-0.468585
C	-0.075634348	-0.0198091049	 0.1649414991	 0.318208
C	-0.0053813451	 1.3987727475	-0.1831533854	-0.442644
C	 1.4037280324	 1.960611549	-0.1380310102	 0.323283
C	 1.987977403	 2.4911330077	-1.2111357695	-0.177299
C	 3.3607099118	 3.1052675703	-1.1677317268	-0.11522
O	 3.8572959077	 3.2858119747	 0.142896369	-0.246075
C	 3.6315159889	 2.1532756915	 0.9651699957	-0.084375
C	 2.1356820647	 1.9166219771	 1.1815999751	-0.298826
H	-0.1604035503	-2.2162452752	 0.7065484484	 0.197429
H	-0.4304785826	 1.5537807238	-1.1816745747	 0.132644
H	-0.6445890496	 1.9622788315	 0.5131471802	 0.135435
H	 1.4860473461	 2.497948788	-2.1761986466	 0.085511
H	 4.0598629439	 2.4910596524	-1.7666197401	 0.096749
H	 3.3469004305	 4.1010381995	-1.6275073218	 0.116805
H	 4.0868571845	 1.2562157221	 0.5139756344	 0.091484
H	 4.1446053922	 2.3537416751	 1.9096892844	 0.106634
H	 1.7266187527	 2.6746559787	 1.8642855551	 0.111243
H	 1.9782732676	 0.9442987063	 1.6641798796	 0.117599
