18
gdb 98095	4.21509	0.90972	0.79838	0.961	76.53	-0.2375	-0.0588	0.1787	1461.0768	0.147029	-439.12698	-439.117456	-439.116512	-439.162382	33.363	
C	-0.0679356742	 1.4117340066	 0.0683116457	-0.334199
N	 0.0819586648	-0.0200712667	-0.0712272642	-0.303159
C	 0.6246370805	-0.6068710514	-1.1577139286	 0.319474
O	 1.053365184	-0.0360259298	-2.1475773289	-0.372968
C	 0.6537504856	-2.1485489252	-1.024162891	 0.292802
O	 0.2162186618	-2.6798938346	-0.0201778729	-0.351245
C	 1.2310646844	-2.8778773256	-2.1669338098	-0.103105
C	 1.9858232138	-4.1686744029	-1.8592287059	-0.24972
C	 0.6422490412	-4.249493738	-2.4865978139	-0.249771
H	 0.4884368669	 1.786464035	 0.9345352914	 0.132213
H	 0.3271132052	 1.8752375361	-0.837012476	 0.168305
H	-1.1210217829	 1.6911124683	 0.1834447643	 0.132213
H	-0.2200983376	-0.6530663216	 0.6559721408	 0.26593
H	 1.5747734991	-2.2578359335	-2.9825437402	 0.126713
H	 2.8644912971	-4.3690903364	-2.4609700796	 0.125728
H	 2.0659289072	-4.4258114116	-0.8090920297	 0.137534
H	-0.1862081239	-4.5612803288	-1.8606746922	 0.137542
H	 0.562129997	-4.50771319	-3.5359897991	 0.125714
