18
gdb 120129	3.42952	0.90975	0.85151	3.2907	72.96	-0.2438	-0.0248	0.219	1388.9785	0.146687	-439.042636	-439.033912	-439.032968	-439.076851	32.034	
O	-0.4356046643	 1.5076584731	-0.9971488532	-0.418292
C	-0.4577761255	 0.0964782012	-1.1200939779	-0.064606
C	-1.5114884076	-0.4297905095	-0.1485004986	-0.230725
C	-1.5496977514	-1.943507731	-0.1230272658	 0.006073
C	-2.7242676737	-2.7859479164	 0.2619184915	-0.19599
N	-2.1245692002	-2.8100525693	-1.1578180481	-0.138631
C	-3.3611434393	-2.1254030921	-1.6841041348	-0.296783
C	-3.9966796993	-2.2046830493	-0.2832265644	 0.411012
O	-5.1076161103	-2.0821795288	 0.1442191034	-0.303667
H	 0.2178706877	 1.8555476982	-1.6108114176	 0.289611
H	-0.7068703516	-0.2170517866	-2.1466506335	 0.097005
H	 0.5222987175	-0.3462091119	-0.8773354664	 0.090567
H	-1.2623424066	-0.0759527093	 0.8585105172	 0.123006
H	-2.4794879739	 0.012639549	-0.3958635963	 0.123809
H	-0.612268201	-2.377793707	 0.2256053896	 0.109869
H	-2.6437074973	-3.6111022936	 0.9613030579	 0.120832
H	-3.2027298509	-1.1515036777	-2.1525758951	 0.132179
H	-3.8819998024	-2.7845175492	-2.3840562979	 0.144732
