19
gdb 50379	2.62148	1.55203	1.38591	3.5083	74.66	-0.2456	-0.03	0.2157	1025.5577	0.160349	-423.032316	-423.024564	-423.02362	-423.064843	29.706	
O	 0.0660209966	-0.0930205116	-0.6295195827	-0.239201
C	 0.0293342108	 1.0334782733	-0.2091290066	 0.144413
C	 1.2102503948	 1.9643580981	-0.0826350694	 0.047777
O	 2.4876251687	 1.3777002084	-0.3277989824	-0.296296
C	 2.8544595724	 2.4318199986	-1.2577333108	 0.142264
C	 3.0909430995	 1.9072323619	-2.6679113847	-0.217798
C	 1.6755056954	 1.5917297354	-3.1894737728	-0.221784
C	 0.8010173622	 2.7165270561	-2.5918701072	-0.224514
C	 1.4144787287	 3.0216021965	-1.2119952874	-0.107042
H	-0.9281524074	 1.5016870179	 0.1243866774	 0.073669
H	 1.1559173492	 2.4297457002	 0.9162538548	 0.087193
H	 3.670341491	 3.0411527336	-0.8551716199	 0.074025
H	 3.5619898293	 2.6979461522	-3.2659302747	 0.096031
H	 3.7600885643	 1.0424435565	-2.6680773178	 0.115885
H	 1.6204481911	 1.5558673613	-4.2803859901	 0.095707
H	 1.3528700771	 0.620869797	-2.8044443155	 0.141969
H	 0.8754638339	 3.6194433072	-3.2090918194	 0.101327
H	-0.2596779511	 2.451751406	-2.546116268	 0.105917
H	 1.2875965035	 4.0565550717	-0.8953325128	 0.080458
