18
gdb 110652	2.45272	1.39963	1.07979	1.9712	71.32	-0.2128	0.0672	0.2799	1149.7814	0.146434	-438.970164	-438.96167	-438.960725	-439.00332	32.974	
O	 0.0506254244	 1.3894867565	 0.4980925453	-0.42894
C	 0.1535175276	 0.0933648389	-0.0916257594	-0.088312
C	-1.2161688384	-0.5924323717	-0.1343374329	-0.124289
C	-1.8949478053	-1.3745453278	-1.2524121274	-0.162598
C	-0.9859816821	-2.4496958159	-1.910168319	-0.0459
N	 0.374136263	-2.3831717839	-1.3061213039	-0.334867
C	-0.7290995377	-3.0852340818	-0.6061748118	-0.135554
C	-1.6306071615	-2.0220928969	 0.0996686546	 0.370377
O	-2.5697939253	-2.4025116502	 1.0404523559	-0.456746
H	-0.4086276812	 1.9576146689	-0.1280815581	 0.27769
H	 0.5976968756	 0.1432882016	-1.0903710482	 0.105077
H	 0.8477781873	-0.4650066203	 0.5395263579	 0.116025
H	-1.9613369134	 0.0441331971	 0.3446454252	 0.098219
H	-2.8389193083	-1.0648681589	-1.682444487	 0.095895
H	-1.1443959886	-2.8937335414	-2.8838455692	 0.097105
H	 0.9445517629	-3.0944854535	-1.7646380076	 0.229433
H	-0.6722648496	-4.1297275709	-0.3283846379	 0.098543
H	-2.1911047196	-2.2651593897	 1.9163163235	 0.288842
