21
gdb 111430	2.92304	1.47851	1.18945	2.2063	81.19	-0.2186	0.0714	0.29	1122.7378	0.184667	-383.223364	-383.215355	-383.214411	-383.255836	31.995	
C	-0.0933225132	 1.5249064294	 0.0776878945	-0.379178
C	 0.0783198751	 0.0034463899	 0.0605466831	-0.174534
C	 0.7108121828	-0.5209057241	-1.2306650205	 0.03712
C	 0.9414988039	-2.0326182504	-1.2719076934	-0.061236
N	-0.2935226596	-2.8391113503	-1.2105924047	-0.340328
C	 0.3345659685	-2.5532062868	-2.5220358776	-0.051841
C	-0.2710362828	-1.3776626424	-3.2553653428	-0.02473
C	-1.4158262945	-0.684504005	-2.610210282	-0.255854
N	-0.0499168706	-0.1531625763	-2.458999857	-0.113448
H	 0.8717476445	 2.0327789198	-0.0294576111	 0.110392
H	-0.7320441097	 1.8574925159	-0.7448676794	 0.133768
H	-0.5434588724	 1.8585804052	 1.0179029197	 0.105399
H	 0.7149714847	-0.3062557742	 0.8994441824	 0.08982
H	-0.885890092	-0.4929614511	 0.2115282828	 0.111832
H	 1.6950260818	-0.0459095786	-1.3504402049	 0.077775
H	 1.8580441147	-2.4399439588	-0.8535431071	 0.084441
H	-0.0654545911	-3.7888445896	-0.9265416861	 0.231362
H	 0.7712243525	-3.3677103378	-3.0891288844	 0.086839
H	-0.0946928916	-1.3130835278	-4.3257223855	 0.084465
H	-2.069474225	-0.049394701	-3.2028595293	 0.104947
H	-1.886883366	-1.2004293361	-1.7813156668	 0.142989
