16
gdb 16123	4.32379	1.6852	1.46681	5.0116	69.02	-0.2584	0.0193	0.2776	878.7751	0.132983	-342.784888	-342.778133	-342.777189	-342.815669	26.147	
N	 0.0599461216	-1.1247901191	-0.2620218161	-0.339841
C	 0.0437468061	 0.0244456432	-0.1362128887	 0.22893
C	-0.0273815983	 1.4553158364	 0.0297635016	 0.189961
C	 0.243251164	 2.3620293955	-1.1288226927	-0.276354
N	 1.2389026329	 2.2262779858	-0.0679555484	-0.115511
C	 1.1654738738	 3.2747763494	 0.9703698632	-0.152432
C	-0.305986356	 3.4035163771	 1.4268486338	-0.250716
C	-0.8936692442	 2.0011935261	 1.1657055021	-0.276032
H	 0.5361517006	 1.9301043139	-2.0802488581	 0.140988
H	-0.3479472644	 3.2718068562	-1.2013365016	 0.122189
H	 1.803155501	 2.9467020031	 1.7971917289	 0.122841
H	 1.5799174017	 4.208338121	 0.5790657656	 0.118231
H	-0.38745509	 3.6971953639	 2.4755062537	 0.116879
H	-0.8360932558	 4.1608188295	 0.8430379427	 0.116119
H	-1.9557115253	 2.0213751848	 0.9084785733	 0.124528
H	-0.7779197175	 1.3533852832	 2.0399478006	 0.130221
