24
gdb 119917	2.84901	0.91233	0.85932	2.1423	87.85	-0.2134	0.0768	0.2902	1545.6274	0.213969	-405.509973	-405.498641	-405.497697	-405.546432	40.69	
C	-3.624482449	-1.2165456357	-2.8808748862	-0.223738
O	-2.6278266331	-2.0872350239	-2.4042121944	-0.232002
C	-1.3692476266	-1.4541361123	-2.2634783877	-0.09118
C	-0.4071062852	-2.4627528718	-1.6897669707	-0.055888
N	 0.2262492368	-3.5140703702	-2.4895520593	-0.123998
C	-0.0567392598	-3.6301778511	-3.9114337655	-0.315114
C	 1.0726115401	-2.4453181477	-1.9457956852	 0.296385
C	 1.7143553766	-1.3990806085	-2.8426906612	-0.458709
C	 1.9928279465	-2.9095890394	-0.8299691658	-0.43328
H	-3.7847634548	-0.3648688911	-2.2001047965	 0.102041
H	-3.3764819498	-0.8136675776	-3.8763560536	 0.101085
H	-4.5525468924	-1.7887587977	-2.9540539055	 0.127677
H	-1.0399242187	-1.0540023733	-3.2329557506	 0.082943
H	-1.4496974498	-0.5949987925	-1.5742171286	 0.088164
H	-0.7414696887	-2.8176467245	-0.7139696831	 0.084905
H	-0.0984071006	-2.6869600138	-4.474493648	 0.093846
H	 0.7132784865	-4.2575134175	-4.3724680404	 0.117021
H	-1.0223690938	-4.1300498297	-4.0302913516	 0.133726
H	 1.0696785976	-1.0517940435	-3.6506780305	 0.118779
H	 2.0054099688	-0.5239156135	-2.2515947245	 0.120763
H	 2.6273345472	-1.8028643032	-3.2958246183	 0.120164
H	 2.9226590716	-3.3195663951	-1.2414299982	 0.112424
H	 2.2583672069	-2.0785279666	-0.1662368731	 0.108233
H	 1.5125588439	-3.6919902698	-0.2382075513	 0.125753
