20
gdb 61678	4.52978	0.7502	0.67261	1.0472	76.24	-0.2379	-0.0293	0.2087	1633.9273	0.169004	-440.255348	-440.245543	-440.244599	-440.291401	34.408	
C	-0.0472582701	 1.4380837689	-0.0382046875	-0.392447
C	 0.0057810064	-0.0932909719	-0.0318156842	-0.054415
N	 0.7028741731	-0.7274534135	 1.083953704	-0.307137
C	 2.1419720114	-0.6483692721	 1.0930715832	 0.016108
C	 2.917339519	 0.5775551403	 1.66360044	-0.09284
O	 3.7109493747	-0.2826578687	 2.5026229602	-0.269654
C	 2.8715556077	-1.4180628506	 2.2139005573	-0.099657
C	-1.3872701002	-0.7161627375	-0.1182439368	 0.149402
O	-2.3930270147	-0.116724114	-0.3945451784	-0.239722
H	 0.955858878	 1.8659847011	-0.115756636	 0.118601
H	-0.6477876725	 1.7947351198	-0.8786741818	 0.139599
H	-0.5140397906	 1.8108151994	 0.8794420383	 0.121023
H	 0.5156736117	-0.4398440686	-0.9461279972	 0.109467
H	 0.3234076481	-0.4034434341	 1.9690770448	 0.219063
H	 2.5048842277	-0.927084953	 0.0995094864	 0.094667
H	 3.5337604272	 1.1645677324	 0.9726490809	 0.103925
H	 2.285279102	 1.2607167441	 2.2510131916	 0.089917
H	 2.2151470566	-1.6749851575	 3.058649589	 0.095675
H	 3.4493100487	-2.3042318639	 1.9302049468	 0.11067
H	-1.3894460242	-1.8058106806	 0.1060730394	 0.087755
