15
gdb 127743	3.36279	1.49803	1.04308	2.2379	74.83	-0.2297	-0.0641	0.1656	1085.269	0.113849	-446.305892	-446.297389	-446.296445	-446.340391	30.263	
C	-0.0343098939	 1.4202347001	-0.0122601126	-0.305342
N	-0.0081257493	-0.0350823018	 0.0343227329	-0.01251
N	-0.0424603983	-0.6571844068	-1.1307350032	-0.052508
N	-0.0230219652	-1.9305957227	-1.1828152483	-0.276697
C	 0.0355005408	-2.6103016532	 0.042033725	 0.476789
N	 0.0518483952	-3.9479144099	-0.1106490592	-0.54344
N	 0.0722814545	-2.0750512759	 1.2282270779	-0.382857
C	 0.0516978725	-0.7011178972	 1.2893005596	 0.431123
N	 0.0798169984	 0.0345074539	 2.3312553764	-0.575822
H	 0.8620432378	 1.8195226763	 0.4670285144	 0.158786
H	-0.0813802383	 1.710784105	-1.0611380382	 0.146702
H	-0.9019956824	 1.789845552	 0.5382163207	 0.158899
H	 0.0236759877	-4.3367599563	-1.0360197114	 0.279062
H	 0.0938113688	-4.5411667842	 0.6986416652	 0.275871
H	 0.1216527516	-0.5693055891	 3.1514175309	 0.221943
