18
gdb 108951	3.01811	1.37507	1.22641	0.4407	71.87	-0.2368	0.0185	0.2553	1095.8913	0.147363	-439.08246	-439.073772	-439.072828	-439.116566	31.675	
C	-0.8891245787	 0.7351365704	 0.2032532829	-0.374379
C	 0.5790323046	 0.3115982596	 0.0240975729	-0.280636
C	 1.1119577561	-0.4105645273	 1.2151307121	 0.417847
N	 2.0090570762	-0.0020222397	 2.0298910933	-0.324209
C	 2.1112920807	-1.0011464514	 3.0625271807	-0.111508
C	 0.843105308	-1.2318263061	 3.8680281249	 0.06785
O	-0.2109701993	-0.327426057	 3.8261045993	-0.418773
C	 1.1135607495	-2.094458657	 2.6648877733	 0.010762
O	 0.5632116987	-1.6400363273	 1.4473581034	-0.235833
H	-0.9981444023	 1.4121017411	 1.0552088173	 0.126316
H	-1.2478320811	 1.249796927	-0.6923339173	 0.117201
H	-1.5257854441	-0.1346841793	 0.3818905399	 0.140867
H	 0.665417726	-0.3476684361	-0.8476543801	 0.122958
H	 1.2185068527	 1.180576482	-0.1450756589	 0.130786
H	 3.0856595831	-1.1566970121	 3.5104221208	 0.100124
H	 0.9917775765	-1.7293429108	 4.825795611	 0.099972
H	 0.1578217165	 0.5601814804	 3.8997369822	 0.297156
H	 1.2329427269	-3.1690370663	 2.7101684024	 0.113498
