17
gdb 34537	3.92617	1.18415	1.00616	4.7797	82.36	-0.2274	-0.0395	0.1879	1163.2788	0.139306	-380.876476	-380.869085	-380.868141	-380.908303	29.163	
N	 0.0169872643	-1.1719190589	 0.0493016906	-0.342361
C	-0.0276976571	-0.0130632882	 0.0314407089	 0.208213
C	-0.0213844901	 1.4092851649	 0.0144096159	 0.11134
C	-1.1685948326	 2.1178335845	 0.0639784108	-0.100724
C	-1.1840041253	 3.5837772249	 0.0325550978	-0.101684
C	-0.2635433433	 4.3685060366	 0.975857688	-0.296667
C	 0.1333292369	 4.230080478	-0.4488828532	 0.02006
N	 1.2219632812	 3.383600722	-0.8530827393	-0.285179
C	 1.323095051	 2.118914161	-0.1158228632	-0.293134
H	-2.1193940233	 1.5944691073	 0.0864525371	 0.117618
H	-2.1268628464	 4.0514212278	-0.2264501697	 0.096346
H	-0.620992747	 5.3376477861	 1.3046104804	 0.126909
H	 0.2560584913	 3.8058485367	 1.7418080132	 0.132997
H	 0.0373723069	 5.1076665436	-1.0794083597	 0.107703
H	 1.1037021893	 3.1699312974	-1.8393358376	 0.229978
H	 1.7576358285	 2.3123523306	 0.8717089744	 0.134715
H	 2.0352854057	 1.4767045355	-0.6399199943	 0.13387
