17
gdb 1558	6.76923	1.20655	1.09797	2.2077	62.06	-0.2727	-0.0365	0.2362	1079.2887	0.146116	-346.870614	-346.862228	-346.861283	-346.903618	29.301	
C	-0.025612712	 1.5943744926	-0.009023798	-0.384888
C	-0.0075172879	 0.0646579773	 0.0275542984	-0.163806
C	-1.4116483744	-0.5471540665	-0.0129135101	-0.18715
C	-1.3823364326	-2.0833960754	 0.0856357563	 0.049018
O	-0.7902669172	-2.5136102663	 1.2815892323	-0.433054
C	-2.7808260172	-2.6487415818	-0.0404374918	 0.135971
O	-3.2657849346	-3.3512465481	 0.813965945	-0.261621
H	 0.9892399278	 2.0026751688	 0.0201543765	 0.11598
H	-0.5085435019	 1.9673223491	-0.9194102692	 0.111813
H	-0.5732452661	 2.004337286	 0.8467952855	 0.117225
H	 0.5756366036	-0.3199865814	-0.8198064941	 0.094011
H	 0.4970190622	-0.2848112822	 0.9341172406	 0.125645
H	-2.0110613898	-0.159193892	 0.8207663114	 0.10755
H	-1.9222460518	-0.2559339035	-0.9413028052	 0.092571
H	-0.8128396275	-2.4690802087	-0.7819769532	 0.090389
H	-1.456046982	-3.0696379623	 1.7164066503	 0.293898
H	-3.3402025386	-2.3780812756	-0.959646785	 0.09645
