18
gdb 108763	2.37831	1.31582	0.88215	5.1183	79.19	-0.2185	-0.0154	0.2031	1293.3017	0.147819	-439.127045	-439.117944	-439.117	-439.161222	33.37	
C	-0.2227535012	 1.364987539	-0.0272917508	-0.326973
N	 0.0407668924	-0.056623133	 0.0522086313	-0.352965
C	 0.7061659694	-0.6252744423	 1.0760182153	 0.36172
C	 1.3580315569	-0.0585753888	 2.1269143337	-0.356081
C	 1.8847344995	-1.088475505	 3.013016766	 0.396019
O	 2.5517894822	-0.9461864218	 4.0170407638	-0.362973
C	 1.4113654257	-2.455520882	 2.466783564	-0.370887
C	 0.8017432666	-2.1466212274	 1.0932250372	 0.034751
O	-0.4420414603	-2.7671214745	 0.7815379573	-0.433546
H	 0.7175907437	 1.9263227403	-0.0406967618	 0.145696
H	-0.7616943968	 1.5799303027	-0.9517293484	 0.135153
H	-0.8209818807	 1.7233707814	 0.8217183903	 0.132798
H	-0.5376603434	-0.6851984408	-0.4843518434	 0.255973
H	 1.4804076501	 0.9977767542	 2.3229975822	 0.096143
H	 2.2339792004	-3.1731566055	 2.4357459849	 0.12787
H	 0.6529903763	-2.8658451309	 3.1443289039	 0.1185
H	 1.4682337943	-2.4679750907	 0.2846734392	 0.115424
H	-1.0395996052	-2.6139125648	 1.5227866054	 0.283378
