17
gdb 31614	3.09482	1.19844	0.91344	1.6373	72.48	-0.1968	0.0145	0.2112	1247.3386	0.136706	-455.178781	-455.169868	-455.168924	-455.212433	32.651	
C	 0.108073831	 1.4415976594	 0.1120138028	-0.357948
N	 0.1118027131	-0.008850597	 0.0412217374	-0.016749
C	 0.1606780915	-0.7609755288	-1.1220300417	-0.233935
C	 0.1011337081	-2.0644962472	-0.6978186694	 0.335275
O	 0.1262684936	-3.1740778308	-1.4697046357	-0.439531
N	 0.0210894385	-2.139457485	 0.6582004852	-0.394938
C	 0.0210797626	-0.8809329555	 1.0819939861	 0.292099
C	-0.0623998174	-0.473466185	 2.5184726753	-0.185782
O	 1.0514901161	 0.3070618931	 2.9563908057	-0.41071
H	 0.7818150868	 1.8453772352	-0.6478532026	 0.141535
H	-0.8950429575	 1.8471570668	-0.060696882	 0.138194
H	 0.4648371266	 1.7476481071	 1.0955040068	 0.172884
H	 0.2442262364	-0.3128702717	-2.0965123936	 0.126026
H	 0.0675156508	-3.9221878092	-0.8633369136	 0.298835
H	-0.9382076829	 0.157484259	 2.7067897281	 0.11985
H	-0.1789360663	-1.3911907784	 3.1072933755	 0.127035
H	 1.8458925391	-0.212843312	 2.7919112659	 0.28786
