19
gdb 38782	2.84657	1.9881	1.6516	1.6611	76.5	-0.2253	0.0813	0.3066	895.152	0.162811	-385.845143	-385.838779	-385.837835	-385.875418	27.596	
C	 0.0195886062	 1.5584160006	-0.2316003477	-0.302681
C	 1.3103929712	 0.7966896279	-0.0410302313	-0.031647
C	 2.1469751542	 0.9316074565	 1.2242450181	-0.242135
C	 1.4023874382	 0.5423632875	 2.497712816	 0.104004
O	 0.2093098221	 1.3663939817	 2.7139071086	-0.301713
C	-0.6116316081	 0.2013294464	 2.6451055027	 0.071624
C	-0.4502836879	-0.535422489	 1.3388238052	-0.056501
C	-0.017469951	 0.067771214	 0.0282532548	-0.03124
C	 0.5510471989	-0.7351755003	 2.4638685279	-0.174207
H	-0.2982450511	 2.2173490777	 0.5651001419	 0.137297
H	-0.2222569436	 1.8954391369	-1.2343393824	 0.098035
H	 1.8981263203	 0.6297650884	-0.9386645741	 0.07927
H	 3.0298800288	 0.282521303	 1.1505205613	 0.099404
H	 2.5224927135	 1.956541159	 1.3354216952	 0.10954
H	 2.0535354549	 0.6098845683	 3.3749906375	 0.081964
H	-1.4945804709	 0.1700569096	 3.2730680977	 0.102162
H	-1.1539656866	-1.3593827019	 1.2496146611	 0.086076
H	-0.2618409303	-0.5563191042	-0.8258504484	 0.077787
H	 0.7991614012	-1.6828676422	 2.921735266	 0.092962
