23
gdb 106406	2.51841	1.29202	1.23496	1.711	85.93	-0.2303	0.0872	0.3176	1221.1212	0.203506	-388.238821	-388.229016	-388.228072	-388.273052	37.694	
C	 0.1591448119	 1.66675438	-0.1257946116	-0.380021
C	 0.0062199594	 0.1427245965	-0.1864596024	-0.320918
C	 0.6182662207	-0.4635902913	-1.4161210322	 0.396334
C	 0.4056764304	-0.1170625312	-2.9177384604	-0.287651
C	 1.6119079663	-1.0702732018	-2.7870924589	 0.007366
O	 2.0788715251	-0.2475556474	-1.6490491641	-0.34966
C	 0.8324531397	-1.9830989463	-1.7843926208	 0.301956
C	 1.6935099702	-2.7849439768	-0.810364801	-0.461319
C	-0.346059596	-2.8291341669	-2.2639491781	-0.480249
H	 1.2139572027	 1.9486734878	-0.1811954429	 0.139721
H	-0.3608009357	 2.1503079153	-0.958917796	 0.117779
H	-0.2559732754	 2.0638272398	 0.805044591	 0.110939
H	 0.4735887441	-0.3179697451	 0.692629165	 0.111799
H	-1.0546312382	-0.1376527825	-0.1598885151	 0.104876
H	-0.4992570861	-0.4467129014	-3.4283258952	 0.093619
H	 0.6812212671	 0.9041975935	-3.1815233317	 0.105289
H	 2.356880627	-1.3462199637	-3.5355704763	 0.084027
H	 2.5440157276	-2.1994865949	-0.4622700515	 0.137664
H	 1.1033071033	-3.0999610858	 0.0582351541	 0.107643
H	 2.0671263132	-3.696589036	-1.2908811995	 0.107703
H	 0.0188240926	-3.7349132767	-2.7616205553	 0.119073
H	-0.9470621314	-3.1564821961	-1.4078079714	 0.118763
H	-1.0135232186	-2.317833129	-2.9588570758	 0.115266
