16
gdb 22438	2.98855	1.08402	0.80069	9.7874	79.34	-0.1752	-0.0471	0.1281	1364.5868	0.121103	-471.16096	-471.150899	-471.149955	-471.196308	34.732	
C	 0.0579984057	 1.3773489623	-0.0531832573	-0.351288
N	-0.0877018506	-0.0504475389	 0.1202396561	-0.29212
H	 0.7188190736	-0.6684039249	 0.1393281135	 0.269714
C	-1.2372323615	-0.7341885926	 0.0282863217	 0.420427
N	-2.3816330715	-0.0250937389	-0.1001510442	-0.570153
C	-1.2001821697	-2.158697284	 0.0315667675	 0.117096
C	-2.4093862116	-2.9622534388	 0.083842332	 0.077005
O	-2.4983306657	-4.1678225947	 0.0184980666	-0.275573
N	 0.1061675989	-2.6335556434	 0.0228005282	-0.102327
O	 0.3048668288	-3.8430359997	 0.0383843622	-0.298962
H	 1.1217796802	 1.6156148148	-0.0808028317	 0.159613
H	-0.3943553773	 1.7241689837	-0.9909014921	 0.14569
H	-0.382893764	 1.9411767436	 0.7799210787	 0.138139
H	-2.3978894022	 0.9533188729	 0.1294769674	 0.272068
H	-3.2622964252	-0.5089778109	-0.0902184913	 0.282498
H	-3.350308068	-2.3609652806	 0.2222206225	 0.008171
