15
gdb 60663	3.2122	0.88689	0.77701	6.5776	75.46	-0.2833	-0.0599	0.2234	1430.6183	0.111242	-413.007729	-412.998125	-412.997181	-413.042718	33.648	
C	-0.2332633023	 1.0624815512	 0.1853801186	-0.384093
C	 0.1513315495	-0.4322459983	 0.2363152459	-0.148577
N	 0.7731745628	-0.851152904	-1.0100907076	-0.258207
C	 0.0338524127	-1.2646246384	-1.9648339277	 0.279349
N	-1.3368557855	-1.3638701123	-2.040726911	-0.55374
C	 0.7011927585	-1.6534574682	-3.1963041998	 0.279667
N	 1.1945651164	-1.9795920342	-4.1886771062	-0.305935
C	 1.0947299796	-0.675302318	 1.3428481612	 0.305773
N	 1.8000281123	-0.8523916518	 2.2396928968	-0.315077
H	 0.6495601924	 1.6618555252	-0.0448432728	 0.160658
H	-0.9813607022	 1.2252740833	-0.5945733242	 0.132179
H	-0.6427716147	 1.3848886414	 1.1457106785	 0.143706
H	-0.7494843177	-1.0203586943	 0.4831731419	 0.105764
H	-1.8764380153	-1.3175868945	-1.1917571507	 0.274635
H	-1.7278782263	-1.938181007	-2.7703963729	 0.283899
