20
gdb 97734	3.05009	0.77676	0.72505	1.1844	86.37	-0.2208	0.0201	0.2409	1655.9531	0.168382	-403.08161	-403.070929	-403.069985	-403.118634	37.298	
C	 2.1621015789	-0.7363594773	 2.5520636346	-0.421107
C	 1.1918957867	-1.0807699463	 1.4449923751	 0.014998
C	 0.1712582476	-0.0917189753	 0.9315627247	-0.225286
C	 0.1275594203	 1.2463076621	 1.4499542545	 0.097653
C	 0.0713132684	 2.377227395	 1.8688967663	 0.042666
C	-0.0386908222	 3.759728942	 2.3314095328	-0.193288
O	 0.0339525609	 4.7195521788	 1.2853095104	-0.401451
N	 1.2914847284	-0.5634466282	 0.0886252167	-0.100953
C	 2.3567561605	 0.3665160084	-0.265046385	-0.313955
H	 3.1179666205	-1.2495637829	 2.4004458456	 0.123713
H	 2.3511877298	 0.3356604526	 2.6270053739	 0.135488
H	 1.7566427907	-1.0702352048	 3.5126452499	 0.125488
H	 0.8607106588	-2.1193486997	 1.4658266572	 0.094048
H	-0.794504834	-0.4793347711	 0.6122001061	 0.108305
H	-0.9676918041	 3.8710968316	 2.9138334191	 0.119168
H	 0.7873447766	 3.9994907748	 3.0103310252	 0.13919
H	-0.6001749023	 4.4563217436	 0.6101451783	 0.287302
H	 2.0850453692	 0.8626124996	-1.2017331272	 0.12689
H	 2.5628549889	 1.1449060572	 0.4802112859	 0.119012
H	 3.2726995064	-0.2064810702	-0.4395091942	 0.122118
