18
gdb 71663	3.05986	1.88234	1.85979	2.6471	72.11	-0.228	0.0677	0.2956	844.8877	0.150792	-401.912815	-401.906599	-401.905654	-401.942858	27.267	
O	-0.1006808716	 1.3677192319	 0.0236273287	-0.507491
C	 0.0574274369	-0.0228490292	 0.0126632949	 0.387665
C	 0.7980154729	-0.708632302	 1.1935504687	-0.279604
C	 0.3787627453	-2.132480378	 0.7997711865	-0.078846
C	-1.1552950375	-2.0515833424	 0.7310699979	-0.040483
C	-1.3116127561	-0.7586955391	 0.0201348014	-0.063299
N	-1.1964610909	-2.0296806793	-0.7634463938	-0.15503
C	 0.3209357369	-2.1050987281	-0.7878104818	 0.002735
C	 0.749336821	-0.7028739273	-1.2000638242	-0.275086
H	 0.7733245405	 1.7707888368	 0.0230641356	 0.279271
H	 1.880126871	-0.5321285286	 1.1759539214	 0.08412
H	 0.3948824682	-0.4101889446	 2.1660094877	 0.103289
H	 0.8525501151	-2.9768832824	 1.2943453052	 0.073931
H	-1.9019699348	-2.5562090897	 1.3344799626	 0.089447
H	-2.2421381951	-0.2123225338	-0.0621834759	 0.099457
H	 0.6961656511	-2.9622881464	-1.3428956624	 0.077904
H	 0.3122303818	-0.4081576489	-2.1576975346	 0.114216
H	 1.8332642052	-0.546101459	-1.2195686579	 0.087802
