18
gdb 35065	2.44812	1.49164	1.46278	5.8239	76.04	-0.2223	0.0321	0.2545	1019.203	0.151018	-398.110043	-398.102177	-398.101233	-398.142412	30.558	
N	-0.4242909082	-1.094756002	-0.1463522508	-0.358236
C	-0.2554077391	 0.0488100762	-0.0841069284	 0.327589
C	-0.0663061537	 1.4647134741	-0.0223129826	-0.243428
C	 0.5001088044	 2.1104717225	 1.2739323958	-0.039119
N	 0.9261313383	 1.2457596005	 2.3259830011	-0.28715
C	 2.3656516255	 1.0163750358	 2.4015087462	-0.158317
C	 2.8192491481	 0.428566553	 1.0616457488	-0.164666
N	 2.5404240663	 1.3240109173	-0.0750435369	-0.301046
C	 1.329189515	 2.0931886599	 0.0225676723	 0.004287
H	-0.8147010171	 2.0335861146	-0.5649536985	 0.124398
H	 0.0204739347	 3.0437658112	 1.5626153341	 0.095165
H	 0.4995818775	 1.4671185685	 3.2120438944	 0.232263
H	 2.9470094441	 1.9316447355	 2.6192999184	 0.073677
H	 2.5571681108	 0.2998837429	 3.2063549912	 0.109286
H	 3.8935575893	 0.2252815378	 1.0693622227	 0.101834
H	 2.2990534282	-0.5207787643	 0.9034092526	 0.149165
H	 3.3094016574	 1.9737925501	-0.1842325331	 0.22646
H	 1.3916369586	 3.0199911964	-0.5373712375	 0.107838
