15
gdb 30415	3.01398	1.37638	0.95055	1.7613	73.34	-0.246	-0.0372	0.2087	1167.6717	0.113702	-454.006911	-453.999027	-453.998083	-454.039706	28.865	
C	-0.1272014255	 1.4259354411	 0.0126616189	-0.348635
N	-0.064809397	-0.0237720927	 0.0398637638	-0.304669
C	 0.5804804025	-0.6302920562	-0.8764304564	 0.415023
N	 1.2569396301	-0.0048999127	-1.9419457738	-0.462673
C	 1.9672118446	-0.6076539864	-2.9557360314	 0.487166
O	 2.522024505	-0.0165345286	-3.8370949261	-0.361289
O	 2.0116637466	-1.9804623308	-2.908582217	-0.222314
C	 1.3800932967	-2.6604417436	-1.9057248692	 0.075498
C	 0.6921897753	-2.0780768357	-0.9233385767	-0.215395
H	 0.8676833619	 1.8936080739	 0.0866290394	 0.119444
H	-0.6094673114	 1.8115685822	-0.8998606811	 0.119429
H	-0.7150937143	 1.7760802925	 0.8638439078	 0.135745
H	 1.2449212243	 1.0016193966	-2.0078809438	 0.2738
H	 1.5165460758	-3.7276045621	-2.0215219832	 0.151782
H	 0.2080986854	-2.6558495874	-0.1499673512	 0.137088
