22
gdb 70903	2.65508	1.67744	1.28705	1.3534	85.5	-0.2298	0.0861	0.3159	1093.7926	0.195131	-367.196523	-367.18824	-367.187296	-367.228568	33.704	
C	-0.0546557274	 1.5310577562	 0.0258441237	-0.493901
C	-0.017164238	 0.034487936	-0.0579564943	 0.349998
C	 0.7527421667	-0.7855094607	-1.1054173684	-0.338751
C	-0.2184840436	-1.985761302	-0.8332075083	 0.331557
C	-0.8179951914	-2.6850803178	-2.0363418491	-0.490007
C	 0.4068860248	-2.8886381449	 0.2399857124	-0.253992
C	 0.6281560748	-1.9040592187	 1.4136262792	-0.170773
N	-0.2630843259	-0.7451262418	 1.1710104191	-0.137876
C	-1.0963859851	-1.0013382435	 0.002473854	-0.157727
H	 0.917549166	 1.9299844926	 0.339854424	 0.117893
H	-0.2974752982	 1.9727987379	-0.946988413	 0.112484
H	-0.8016078902	 1.8546659512	 0.7552231148	 0.130102
H	 0.6055368947	-0.3679562911	-2.106081564	 0.097079
H	 1.8251812029	-0.953334366	-0.9485228706	 0.085154
H	-0.0528696619	-3.2312327399	-2.5994642612	 0.116618
H	-1.5840854688	-3.4077436584	-1.7314246451	 0.114087
H	-1.2862623495	-1.9703684184	-2.7216551753	 0.114245
H	-0.2888637807	-3.6883684368	 0.52120172	 0.093315
H	 1.3355314432	-3.3587128553	-0.1012763983	 0.094906
H	 0.3640742809	-2.3454014842	 2.3789280532	 0.104677
H	 1.6660198668	-1.5628861515	 1.4852991081	 0.102589
H	-2.17810526	-0.9331120529	 0.056463089	 0.078322
