22
gdb 56904	2.28609	1.16044	0.94325	3.9012	86.73	-0.2761	0.0371	0.3132	1377.0116	0.192269	-367.231068	-367.220639	-367.219695	-367.266379	38.483	
C	-0.2504055417	 1.4713557044	 0.0964014594	-0.392625
C	 0.0798981967	-0.0214397079	-0.1063498064	-0.172437
C	 0.8715949176	-0.2105562378	-1.3308417327	 0.277341
N	 1.5046567299	-0.3551788755	-2.2872521496	-0.331011
C	 0.8126212939	-0.6074568647	 1.095429332	-0.007915
C	 0.0396388633	-1.1236994009	 2.2886994464	-0.351909
C	 0.8387497806	-2.0830269307	 1.4335238912	 0.339806
C	 0.0925867026	-3.0847227085	 0.5701377056	-0.463755
C	 2.1369890167	-2.6240784301	 2.0053799838	-0.452196
H	 0.6644788199	 2.0557435152	 0.2281792239	 0.136167
H	-0.7934813799	 1.8755249085	-0.7615352805	 0.133796
H	-0.8667678991	 1.5883277981	 0.9915275539	 0.129159
H	-0.861427939	-0.5625753943	-0.2538932731	 0.121222
H	 1.7299121161	-0.068578698	 1.3211543926	 0.093147
H	 0.3997022881	-0.8769197207	 3.282022155	 0.112762
H	-1.0432138779	-1.1590165516	 2.2080755862	 0.10799
H	-0.8753728967	-2.7087032903	 0.2280218283	 0.11209
H	 0.6782891636	-3.3581963691	-0.3145272945	 0.134644
H	-0.1004534597	-4.0020951664	 1.1376971247	 0.118891
H	 1.9517316703	-3.5063568892	 2.6290758801	 0.116183
H	 2.8249071335	-2.919824662	 1.2051564183	 0.125951
H	 2.6452053112	-1.8785009086	 2.6247664054	 0.112699
