20
gdb 79923	2.82469	1.35428	1.22089	1.9144	81.79	-0.1923	0.0222	0.2145	1143.515	0.16966	-403.085611	-403.076737	-403.075792	-403.118482	34.461	
C	 0.0064826492	 1.4911701956	-0.0956610165	-0.332714
N	 0.0105523494	 0.0298244326	-0.046748547	-0.091024
C	-1.1524423347	-0.673296321	 0.6337582305	-0.118612
C	-0.7528992333	-2.1197142696	 0.3674320748	-0.186255
C	 0.5578242389	-2.1201334057	 0.6520830875	 0.3725
C	 1.5892813118	-3.1921164876	 0.6178013647	-0.522478
C	 0.7856021805	-0.657391934	 1.0609955769	-0.148459
C	-0.4300067657	-0.4925093602	 2.0373600964	 0.160107
O	-0.4816962841	 0.7549534741	 2.6802547059	-0.435394
H	 0.9943679247	 1.8198433962	-0.4387827221	 0.111141
H	-0.7163398503	 1.7985549477	-0.8606981814	 0.108848
H	-0.2274721947	 2.0096314517	 0.8399601236	 0.120698
H	-2.1668511944	-0.330991682	 0.4257078511	 0.061316
H	-1.3938199118	-2.9280901214	 0.0448667653	 0.097496
H	 1.1572462623	-4.1495023254	 0.3122301837	 0.125492
H	 2.3961392489	-2.94466153	-0.0837741884	 0.132651
H	 2.0603331494	-3.3309047444	 1.5993672867	 0.125629
H	 1.7896930318	-0.3054165884	 1.3008335469	 0.066186
H	-0.5886257584	-1.3102506017	 2.7543430698	 0.068002
H	-1.2827760693	 0.7844149437	 3.2128433717	 0.284869
