19
gdb 106118	2.64978	1.49018	1.21691	2.4335	75.11	-0.2353	0.086	0.3213	1095.6507	0.158909	-422.952616	-422.944351	-422.943407	-422.98542	31.972	
C	 0.0993263054	 1.3782982592	 0.2791001479	-0.259532
O	-0.0021075718	 0.0491442339	-0.2158541357	-0.281568
C	-1.2586099499	-0.4703701704	-0.1365202004	 0.399778
C	-2.1384026735	-0.9115396465	 1.0077187577	-0.156877
C	-3.3498861797	-0.1572269391	 0.4584782937	-0.233652
C	-2.6379519811	-0.1968330391	-0.918257179	-0.179447
C	-2.6226010451	-1.7091716127	-1.2931372642	 0.165076
O	-2.0300518184	-2.004609807	-2.5373891328	-0.448698
C	-1.689473465	-1.9083624607	-0.1004266175	-0.187763
H	 1.1436014377	 1.6781722081	 0.1718721891	 0.131192
H	-0.5342753324	 2.0669579797	-0.2958739157	 0.11815
H	-0.1896513908	 1.4297273911	 1.3369493751	 0.117987
H	-1.8610685765	-1.0985477205	 2.0375826172	 0.090832
H	-4.3327633167	-0.6391148432	 0.5130675496	 0.093879
H	-3.4169712581	 0.8540202021	 0.8695470482	 0.098157
H	-2.8299090225	 0.543151335	-1.6927362172	 0.075807
H	-3.5917895814	-2.2191412338	-1.2941932322	 0.07888
H	-1.1265291832	-1.665796822	-2.5172771306	 0.283776
H	-1.0935059968	-2.7775009942	 0.1488850768	 0.094023
