18
gdb 17926	2.88844	2.32881	2.32219	1.8855	70.76	-0.234	0.0781	0.3121	767.6264	0.154992	-347.762228	-347.755627	-347.754683	-347.792484	26.783	
C	-0.0420144774	 1.5689972541	-0.0128031847	-0.540891
C	 0.0048786263	 0.0703400492	-0.0113544356	 0.334208
C	 0.6250925443	-0.8827653972	-1.1193702037	-0.103873
C	 1.5257608759	-1.5176063191	-0.0263356405	-0.238119
C	 0.6390980455	-0.8703755508	 1.061085577	 0.060955
O	-0.6058047719	-1.5834853179	 1.2344972159	-0.307914
C	-1.19087677	-0.9285787663	 0.0868186841	 0.060955
C	-0.7513161081	-1.5900305744	-1.238636706	-0.238119
H	 0.9657921056	 1.9986812453	-0.0500093308	 0.120963
H	-0.5936452687	 1.9490849437	-0.8805149217	 0.120963
H	-0.5344445181	 1.9506142081	 0.8890423525	 0.126332
H	 1.1010657265	-0.5293946753	-2.0345048091	 0.065297
H	 1.6257994646	-2.6062616248	-0.000768616	 0.099969
H	 2.5219015166	-1.0617139659	-0.0282549327	 0.097855
H	 1.0771528494	-0.5734163743	 2.0172361639	 0.071797
H	-2.24224506	-0.678990356	 0.2500093476	 0.071797
H	-1.3272351267	-1.184139016	-2.0775091859	 0.097855
H	-0.7743246739	-2.6825995524	-1.2785799643	 0.099969
