21
gdb 75398	2.44927	1.53697	1.06311	0.3979	95.13	-0.2082	-0.0192	0.189	1208.6815	0.183168	-349.985991	-349.977218	-349.976274	-350.018746	34.546	
C	 0.0966020506	 1.500517319	 0.0252644004	-0.486937
C	 0.0295416375	-0.0130963764	-0.0072207932	 0.266442
C	-0.0952041144	-0.6458080527	-1.1914273343	-0.150897
C	-0.0631942318	-2.1429447087	-1.3434125515	-0.315221
C	-1.2989388826	-2.7025447056	-0.6858548162	-0.085397
C	-1.4783005455	-2.5928926792	 0.6417178711	-0.059662
C	-0.6114766319	-1.8616281674	 1.5378714586	-0.159852
C	 0.0856226062	-0.7197374407	 1.2775716781	 0.195295
C	 0.8401588424	-0.0548866583	 2.4083255014	-0.48584
H	 1.064234592	 1.8569279492	 0.3972376578	 0.124938
H	-0.0443209639	 1.9145176405	-0.9760854286	 0.118523
H	-0.6712925226	 1.929242105	 0.6802888538	 0.124361
H	-0.2302211155	-0.0495441548	-2.0910253381	 0.080993
H	-0.0132834315	-2.4248750547	-2.3977668891	 0.096316
H	 0.8289736524	-2.5502394089	-0.8464297701	 0.112158
H	-2.0426411305	-3.2034828471	-1.2992598122	 0.089597
H	-2.3297834625	-3.0913501195	 1.1009044597	 0.084991
H	-0.5984637325	-2.2130886225	 2.5686787758	 0.078678
H	 0.8376542038	-0.6825185466	 3.3027670764	 0.118998
H	 1.8843671632	 0.1396852295	 2.1351267414	 0.125507
H	 0.4022844573	 0.9135053299	 2.678078579	 0.127008
