19
gdb 53272	2.38867	1.05125	0.8511	2.2663	86.73	-0.231	-0.0126	0.2184	1458.0836	0.156068	-385.880887	-385.870468	-385.869524	-385.91825	35.913	
C	 0.189423364	 1.5453466442	-0.2068671005	-0.499333
C	 0.1145377206	 0.0934844159	-0.1459152234	 0.054315
C	 0.0383136393	-1.1065921482	-0.0778548356	 0.119518
C	-0.0168553557	-2.5372004825	-0.0223030059	-0.190906
C	-0.3887968504	-3.2716311336	 1.2371490255	-0.291633
C	-1.3607279356	-3.3018079357	 0.0874267228	-0.121409
C	-2.6284500306	-2.5136769425	 0.195351978	 0.389886
C	-3.7037013992	-2.848291531	-0.8214374048	-0.485813
O	-2.7797734467	-1.6527200871	 1.0343133269	-0.313399
H	 1.078012035	 1.9224677267	 0.3118788288	 0.146328
H	 0.2334405485	 1.9022919247	-1.2419601108	 0.144335
H	-0.6880304212	 2.0012969372	 0.2647002651	 0.155915
H	 0.7006790656	-3.0423346918	-0.6636756023	 0.114555
H	 0.1491003794	-4.1814237546	 1.4770558097	 0.118239
H	-0.6966329628	-2.6599109674	 2.0769888042	 0.150226
H	-1.4126961305	-4.200714751	-0.5177762183	 0.090657
H	-4.0070090352	-3.8971915445	-0.7225966721	 0.136743
H	-4.5688939413	-2.2010517545	-0.6750217933	 0.140536
H	-3.3140064531	-2.7244520042	-1.8384225541	 0.14124
