23
gdb 113944	3.72254	0.74357	0.73235	1.6414	86.64	-0.2544	0.0956	0.3501	1717.4207	0.204649	-388.263567	-388.253584	-388.25264	-388.299656	36.631	
C	 0.6561739214	 1.214822333	 0.3126024426	-0.374032
C	-0.2627993028	 0.1219016035	-0.2477477141	-0.212636
C	 0.3684870329	-0.5924265368	-1.419578524	 0.072196
O	 1.4470329302	-1.4965382334	-1.1387424622	-0.26517
C	 0.2480560609	-2.0296966519	-1.7168566359	 0.072041
C	-0.5357207781	-3.032010272	-0.8986061552	-0.258889
C	 0.0716697152	-4.4207524625	-0.9607711951	 0.037318
C	 1.2547845976	-4.7617164055	-0.091599449	-0.243235
C	-0.0935248807	-5.3780558923	 0.1921655641	-0.282519
H	 1.6017867556	 0.7819602779	 0.6520488615	 0.134222
H	 0.8869786901	 1.9679897212	-0.4487560948	 0.114841
H	 0.1899626111	 1.7269544154	 1.1594164519	 0.112154
H	-0.5068008556	-0.594092164	 0.5421540207	 0.103577
H	-1.2107744206	 0.564137801	-0.5815255192	 0.099352
H	 0.5724410124	 0.0622686302	-2.2720098955	 0.080723
H	 0.3692243808	-2.318116979	-2.7648948301	 0.081398
H	-0.580245336	-2.7026621275	 0.1439544027	 0.10032
H	-1.5694961993	-3.0595286302	-1.2706794133	 0.099083
H	 0.0668319461	-4.8663721782	-1.9528395908	 0.080259
H	 2.0336142646	-5.3940888755	-0.5029170791	 0.109288
H	 1.6181371604	-3.9906169794	 0.5783613734	 0.122607
H	-0.638270117	-5.0309532684	 1.0644750387	 0.107794
H	-0.2364936989	-6.4305063957	-0.0269908172	 0.109306
