19
gdb 80452	2.45454	1.57071	1.27284	1.35	76.36	-0.214	0.055	0.269	1089.7601	0.159488	-419.223888	-419.215064	-419.21412	-419.256844	33.905	
C	-0.0785765845	 1.5446018786	-0.00874362	-0.418714
C	 0.0763923222	 0.0422736334	 0.0427355813	-0.093361
C	 1.382477343	-0.6737025884	-0.2027969215	-0.003157
O	 2.5744207066	 0.087530915	-0.0423790818	-0.243209
C	 2.5860994023	 0.4457537774	 1.2751309973	 0.436783
N	 3.6104483733	 1.2885921565	 1.6158522853	-0.58355
N	 1.6426650423	 0.0300489394	 2.0319549783	-0.379437
C	 0.7480235165	-0.7262264785	 1.1798497348	 0.304041
C	 0.0939954441	-1.927208994	 1.810651149	-0.466797
H	 0.7611261324	 2.0619554865	 0.4587506476	 0.140877
H	-0.1514519014	 1.8925024107	-1.0447954949	 0.115859
H	-0.9884621652	 1.8542435144	 0.5156796301	 0.119471
H	-0.7620590993	-0.5058873004	-0.3835967877	 0.084413
H	 1.5021101389	-1.4826640681	-0.9132381608	 0.101338
H	 4.451554838	 1.1782082755	 1.0693333778	 0.262109
H	 3.7624599559	 1.3536892266	 2.6107449795	 0.268118
H	-0.5792597723	-1.6169215301	 2.6165988945	 0.127771
H	-0.4910803753	-2.4891565551	 1.0763550256	 0.108458
H	 0.8452637926	-2.5972969594	 2.2412538355	 0.118986
