23
gdb 58767	2.94666	1.24628	1.19131	1.8338	84.3	-0.2339	0.0718	0.3058	1200.0946	0.206357	-388.277738	-388.268936	-388.267992	-388.310957	34.985	
C	-0.1560826254	 1.5036286064	 0.0245422084	-0.397478
C	 0.0595274886	-0.0174149603	-0.0276745884	-0.083166
C	 0.7935885682	-0.428761862	-1.3140426962	-0.397484
C	 0.7573572899	-0.5389376431	 1.2202891393	 0.325114
C	 0.1195694193	-0.4425935524	 2.6523727571	-0.284526
C	 1.1921210656	-1.5167530307	 2.9406272109	 0.099699
C	 0.9193246096	-2.0712985914	 1.5245253159	-0.284529
O	 2.4281954795	-0.8020341124	 2.7850226859	-0.281347
C	 2.1876203372	-0.0722948028	 1.5606149732	-0.115496
H	 0.7968589301	 2.0439625593	 0.0056025024	 0.116341
H	-0.7409009167	 1.8404997775	-0.8374189092	 0.111617
H	-0.6925145	 1.802221307	 0.9306148579	 0.117283
H	-0.9329579006	-0.4899852264	-0.0495995944	 0.070559
H	 1.7800499473	 0.0433537046	-1.3805134737	 0.116345
H	 0.9367989201	-1.5126126834	-1.365500755	 0.117279
H	 0.2241654939	-0.1237172174	-2.1978843531	 0.111618
H	 0.1992677001	 0.4999917604	 3.1998144081	 0.097147
H	-0.902737277	-0.8259361819	 2.6775997791	 0.095952
H	 1.2297746311	-2.1236807865	 3.8437775045	 0.076523
H	-0.0252925084	-2.6128557464	 1.4401869257	 0.095954
H	 1.7310493314	-2.6194839912	 1.0396442031	 0.097145
H	 2.9312317931	-0.3546059202	 0.8062982274	 0.097726
H	 2.2635808834	 1.0051188531	 1.7478720209	 0.097724
