19
gdb 73676	2.23947	1.9036	1.42417	2.2793	75.41	-0.2431	0.011	0.2541	991.8582	0.161318	-423.040527	-423.032931	-423.031987	-423.072575	30.357	
O	 0.1141578817	 1.330490601	-0.3826438989	-0.481354
C	 0.0668644045	-0.0402736228	-0.0045319461	 0.362278
C	 0.6745765259	-0.8528166044	-1.1733096811	-0.117448
O	-0.1033355264	-2.0300991614	-1.2831362824	-0.247582
C	-1.4467938412	-1.6250532596	-1.0475563547	-0.100769
C	-1.3757598227	-0.6531978163	 0.1391876217	-0.080302
C	-1.4244683019	-1.3159650118	 1.5411937425	-0.27989
C	-0.0980200356	-0.9659007442	 2.1670233829	-0.059534
C	 0.7010986754	-0.2989765472	 1.3375392707	-0.161944
H	-0.1176048687	 1.8524962785	 0.3929486832	 0.273855
H	 0.6101022604	-0.2382934891	-2.0851655548	 0.098201
H	 1.7147776207	-1.1452394444	-1.0117030176	 0.106874
H	-1.8562572194	-1.1187566835	-1.9369660622	 0.090682
H	-2.0395471211	-2.5240485731	-0.8579822353	 0.105027
H	-2.122141255	 0.1391177056	 0.048900948	 0.07608
H	-2.2698955594	-0.9638371421	 2.1453206088	 0.103681
H	-1.540296238	-2.4048219941	 1.4648986852	 0.115762
H	 0.1611107637	-1.2634622888	 3.1779703317	 0.098855
H	 1.710039697	 0.0365399478	 1.5541501782	 0.097528
