12
gdb 123978	3.83509	1.70407	1.18842	2.7266	61.23	-0.2519	-0.0507	0.2012	916.7092	0.078619	-468.781606	-468.774997	-468.774053	-468.812942	24.054	
C	-0.0132596145	 1.4991515333	-0.0494168308	-0.272141
N	 1.3592713284	 1.9979475671	 0.1107663344	-0.230727
C	 2.3446478095	 1.2388673171	 0.2511264027	 0.126257
O	 2.3781616433	-0.1673076713	 0.2873693634	-0.229105
C	 1.1581504073	-0.6999363928	 0.1469318712	 0.485156
C	-0.0012904844	 0.0065748686	-0.0140170755	 0.103679
N	-0.9859664655	-0.9317878897	-0.1159121778	-0.144224
N	-0.5746862157	-2.0953241287	-0.0378730879	-0.032651
O	 0.9831287002	-1.9815082403	 0.154502648	-0.259544
H	-0.6251015827	 1.9394923003	 0.7475347268	 0.147464
H	-0.4077636282	 1.8999583103	-0.99127508	 0.147461
H	 3.3585442222	 1.6055029061	 0.3696663655	 0.158375
