19
gdb 83543	3.2504	1.47438	1.29466	2.8136	75.02	-0.2353	0.0761	0.3114	1044.394	0.159916	-422.976415	-422.968771	-422.967827	-423.008185	30.404	
C	-0.0485610336	 1.6539610705	 0.0415307395	-0.438143
C	-0.0001160252	 0.1364408054	-0.0027097827	 0.027691
C	 0.8114967616	-0.6274072708	-1.1153729721	-0.210745
C	 2.2238603767	-0.0658930614	-0.893901467	-0.086278
O	 2.2783159927	-0.0520813251	 0.5564507057	-0.277663
C	 1.0084617382	-0.6249717181	 0.9116388869	-0.035111
C	 0.8633541703	-1.7727518336	-0.0890003725	 0.550596
C	 0.1886042943	-3.0596720022	-0.0322600095	-0.306784
O	 1.6236511033	-2.949952307	-0.1639357125	-0.295422
H	 0.9504755928	 2.0832000959	 0.1452918724	 0.138913
H	-0.5105166722	 2.0625965819	-0.8636369149	 0.116126
H	-0.6435218336	 1.9919190233	 0.8965047692	 0.118399
H	-1.0003622063	-0.2976885811	 0.0810585693	 0.079104
H	 0.4552774184	-0.7513787623	-2.1367718882	 0.076552
H	 3.0047597475	-0.7240285159	-1.2901377231	 0.117881
H	 2.3686112528	 0.9467342649	-1.2838321376	 0.100611
H	 0.9264678081	-0.7173172863	 1.9928660019	 0.083975
H	-0.157168349	-3.4578167165	 0.9206666016	 0.121134
H	-0.3286134467	-3.4428902815	-0.9108778565	 0.119163
