15
gdb 2288	8.5118	1.25072	1.19183	1.8317	66.43	-0.2423	0.0294	0.2717	1023.467	0.124069	-308.471269	-308.463457	-308.462513	-308.505329	25.872	
C	 0.1869025784	 1.5874055468	-0.1641605879	-0.498068
C	 0.0272737955	 0.1439301455	-0.074533835	 0.059369
C	-0.1129203018	-1.0502855108	-0.0020837267	 0.094419
C	-0.2711480394	-2.4901433937	 0.0872433945	-0.027359
C	 0.2894103339	-3.2081903782	 1.3472960202	-0.283721
C	-1.1589055524	-3.6933692181	 1.5412475137	-0.058102
O	-1.6226530538	-2.9152360885	 0.4178163666	-0.279928
H	 0.8739516077	 1.9617591461	 0.6027569133	 0.148674
H	 0.5815785086	 1.8865934567	-1.1412917538	 0.149805
H	-0.7734542737	 2.0957829568	-0.0243488221	 0.154583
H	 0.050937995	-2.9589900175	-0.8529349688	 0.097645
H	 1.0398598645	-3.975424015	 1.1539663061	 0.113161
H	 0.6512395113	-2.5247735563	 2.1152349481	 0.121312
H	-1.3166767861	-4.7681388761	 1.3851771902	 0.100545
H	-1.6500241877	-3.3951854277	 2.4745975114	 0.107664
