22
gdb 9254	5.62954	0.7487	0.70724	0.1398	87.71	-0.2399	0.0613	0.3011	1698.5671	0.19754	-313.062528	-313.051723	-313.050779	-313.099927	37.351	
C	 0.1585533718	 1.5311704317	 0.0588837074	-0.39608
C	-0.0009350652	 0.0090963197	-0.0081560423	-0.163378
C	-1.4585687633	-0.4841640599	-0.0343020014	 0.053443
C	-2.2209264578	-0.0122646219	-1.2780844383	-0.388988
C	-1.486016275	-2.029766178	 0.0794118736	-0.36239
C	-2.8239045691	-2.5937272716	 0.2257740572	 0.029004
C	-3.9353319074	-3.0398813806	 0.3558665139	 0.104468
C	-5.2735156636	-3.5928291737	 0.5138997219	-0.498119
H	 1.2137338031	 1.8090506591	 0.1451279754	 0.111871
H	-0.23797641	 2.024468216	-0.8335145957	 0.119372
H	-0.3653270839	 1.9451136195	 0.9279722819	 0.113815
H	 0.5219943494	-0.3755640091	-0.8952572546	 0.091589
H	 0.5044131396	-0.4378478396	 0.8580573389	 0.090275
H	-1.968856248	-0.0858173262	 0.8536198282	 0.078212
H	-3.2349645785	-0.4210608832	-1.2874323431	 0.126479
H	-2.2973194709	 1.0778121067	-1.317201242	 0.112094
H	-1.7158405668	-0.3455580355	-2.1934546158	 0.107008
H	-0.9999155245	-2.4591769169	-0.8085637264	 0.118645
H	-0.8695419285	-2.3344791377	 0.9355949718	 0.118166
H	-5.2831578568	-4.4126682933	 1.2410122478	 0.145126
H	-5.9806449337	-2.8332602626	 0.865835105	 0.144783
H	-5.6585634008	-3.987615423	-0.4330617335	 0.144606
