19
gdb 8916	3.52556	1.25088	0.98048	4.9869	72.17	-0.2835	0.0346	0.3181	1208.0952	0.163458	-365.084496	-365.074728	-365.073784	-365.119135	34.632	
C	 0.074916858	 1.5963923236	 0.1004816374	-0.382708
C	 0.0033653008	 0.069270409	 0.0130872279	-0.205043
C	 0.6689889964	-0.4796498045	-1.2552623036	 0.147316
O	 2.0179665568	-0.0550588957	-1.3633924095	-0.417071
C	 0.5752707943	-2.0283324095	-1.3577185045	-0.177476
C	-0.8681013713	-2.5652737882	-1.4409624296	-0.402053
C	 1.3449973553	-2.4995139837	-2.5154172538	 0.283059
N	 1.9193203296	-2.9017420022	-3.4338488315	-0.324494
H	 1.11017494	 1.9410809642	 0.0468903549	 0.131881
H	-0.4720177801	 2.0616522591	-0.7265610019	 0.120956
H	-0.3636333921	 1.9552802623	 1.0359065245	 0.114646
H	 0.4942432553	-0.3812095599	 0.8891559484	 0.089126
H	-1.0428648219	-0.2522578051	 0.0490703658	 0.107222
H	 0.1752358964	-0.0535859512	-2.1374704671	 0.105544
H	 2.5000593313	-0.374519036	-0.591671983	 0.281774
H	 1.055652444	-2.4493474309	-0.4624136432	 0.114141
H	-0.8659918309	-3.6466352401	-1.5953789197	 0.143129
H	-1.4138366085	-2.3542222901	-0.5191890654	 0.130429
H	-1.4035171033	-2.1060698911	-2.277175916	 0.139622
