18
gdb 90699	3.36549	1.40066	1.16595	3.1499	78.55	-0.2209	-0.0511	0.1699	1079.4328	0.14881	-401.952735	-401.944988	-401.944044	-401.985065	29.673	
C	-0.2147623947	 1.5378576278	 0.0010042886	-0.328561
N	-0.0516574079	 0.1039877373	 0.1058081689	-0.06784
C	-1.2115966981	-0.7376541469	 0.4410172098	-0.184309
C	-0.3033186136	-1.6097888941	 1.3661075101	-0.153296
C	 0.7649135174	-0.5040543955	 1.1892682894	-0.042069
C	 0.7729701563	 0.1912775786	 2.5347903209	-0.069344
C	-0.0185057048	-0.4074209228	 3.4341170344	-0.183087
C	-0.6992317233	-1.5897844348	 2.8382720727	 0.379028
O	-1.4358695129	-2.366400827	 3.4006471061	-0.335588
H	 0.7600888823	 2.0093101216	-0.1650536801	 0.121071
H	-0.8437905031	 1.7659137814	-0.8661994937	 0.126608
H	-0.6797016895	 2.0062756269	 0.8867373835	 0.097848
H	-2.0128407742	-0.2185028282	 0.9891746695	 0.099151
H	-1.6528115551	-1.2508987571	-0.4191125494	 0.115645
H	-0.0880343468	-2.6087434507	 0.9920805099	 0.101024
H	 1.7763344763	-0.7737873278	 0.8629698272	 0.08624
H	 1.3619725967	 1.0838500113	 2.7204791114	 0.118383
H	-0.1784515651	-0.10962673	 4.4633301608	 0.119096
