17
gdb 41019	3.12302	2.03664	1.51825	0.6354	71.45	-0.2422	0.0556	0.2978	876.2107	0.137791	-421.714176	-421.708084	-421.70714	-421.744287	26.05	
C	-0.0130092673	 1.4819198554	 0.2169637398	-0.173839
O	 1.4326248367	 1.5161598135	-0.0909858148	-0.366647
C	 1.2219875328	 0.321835382	-0.8511897122	 0.479766
C	 0.0112690193	-0.0557146708	-0.0773638896	 0.035727
O	-0.6738665175	-0.9012495039	-0.9949681927	-0.295917
C	 0.3518346216	-1.0376401331	-1.9985686588	 0.128364
C	 0.8408003562	 0.358743305	-2.387783095	-0.140656
C	 2.2364102133	-0.2071632601	-2.7409058873	-0.267275
C	 1.8735538592	-0.9504654387	-1.4357854943	-0.207938
H	-0.2027769848	 1.7952492641	 1.2453501044	 0.118962
H	-0.5828977251	 2.0870947603	-0.4953476205	 0.118057
H	 0.2072849387	-0.5979880875	 0.8533395599	 0.095451
H	 0.0929393628	-1.7992580652	-2.731048141	 0.10042
H	 0.2594767126	 1.1199920081	-2.9069951651	 0.080987
H	 2.3018571786	-0.8069215282	-3.6533933265	 0.09515
H	 3.0748481197	 0.4874403667	-2.6718800818	 0.115617
H	 2.4306888931	-1.7224504277	-0.9054298647	 0.083773
