21
gdb 59568	3.3207	1.16306	1.15382	1.7922	77.65	-0.2416	0.0824	0.324	1199.2971	0.182921	-424.218617	-424.20991	-424.208966	-424.252373	33.814	
C	 0.0907415171	 1.4971967825	-0.0466056678	-0.405979
C	-0.0162351115	-0.0101102182	 0.1927645003	 0.121722
O	 0.4245678319	-0.3628795322	 1.4970091114	-0.440711
C	-1.4416035738	-0.5364171216	-0.0272698209	 0.132034
C	-1.5757372858	-2.0771660248	 0.027352052	-0.28112
C	-2.8213244671	-2.314313951	 0.877493565	-0.063947
C	-2.6879644151	-2.0631105354	 2.3686839472	-0.312033
C	-3.1885950269	-0.9800630765	 1.4514442552	 0.100001
O	-2.2512708441	-0.0128723396	 1.0454634095	-0.294322
H	 1.1052496529	 1.8392573537	 0.1733738572	 0.120742
H	-0.1447216216	 1.7489667593	-1.0863672842	 0.108781
H	-0.608423661	 2.0371455053	 0.5997048264	 0.128293
H	 0.6512864349	-0.5372411174	-0.4999268721	 0.085468
H	-0.26114386	-0.0283473128	 2.0900920479	 0.284589
H	-1.8334436457	-0.151973303	-0.9807483615	 0.069606
H	-1.6936037867	-2.4928820396	-0.9768226209	 0.102919
H	-0.6832499272	-2.5220950987	 0.4766899501	 0.123283
H	-3.5767357192	-3.0070819031	 0.5270628969	 0.09176
H	-3.4028184983	-2.5432460617	 3.0289448056	 0.111137
H	-1.6872999545	-1.9534407945	 2.7737666347	 0.120781
H	-4.2048753382	-0.6058123507	 1.517509798	 0.096995
