18
gdb 91693	2.36072	1.79266	1.39536	3.9788	72.17	-0.2363	0.0242	0.2605	984.1685	0.149099	-439.082826	-439.075131	-439.074187	-439.114955	29.918	
O	-0.4050388938	 1.4282039939	 0.1799075859	-0.438154
C	-0.1426141041	 0.0388338184	 0.1426268341	 0.14477
C	 0.2747756482	-0.5864596674	 1.5182894833	-0.275553
C	-0.9562739473	-1.501170542	 1.7298657632	-0.004961
C	-1.1098192696	-2.1635620562	 0.3312936759	-0.237577
C	-1.4860920034	-0.7065089597	-0.0456514636	-0.040771
N	-2.0835428371	-0.6208855045	 1.3145623655	-0.050308
C	-2.512976518	 0.4979399832	 1.9818464417	 0.13964
O	-2.3715920486	 0.6758503397	 3.17252631	-0.330001
H	 0.3347064124	 1.8711722207	 0.6065177224	 0.29033
H	 0.5658411401	-0.1998960769	-0.6625022723	 0.075401
H	 1.2135959248	-1.1440848572	 1.4727366244	 0.103007
H	 0.3460877442	 0.175254527	 2.2984770016	 0.127031
H	-1.0558424715	-2.0454130708	 2.6659320615	 0.099212
H	-0.2189348142	-2.5966198296	-0.1274470771	 0.103168
H	-1.9624459904	-2.8393489322	 0.2729906003	 0.120777
H	-2.0993394043	-0.4383932583	-0.9044984377	 0.091747
H	-3.0744039275	 1.1857412518	 1.3219518008	 0.082243
