23
gdb 121020	3.09878	0.9237	0.76933	1.6122	86.95	-0.2495	0.0124	0.262	1566.4715	0.205882	-388.307467	-388.297677	-388.296733	-388.342572	36.696	
C	-0.47502721	 1.5208801888	-0.0399468404	-0.379912
C	-0.0331186188	 0.0553076704	-0.0739197013	-0.169893
C	 0.5518965556	-0.4237284942	 1.2602165263	-0.16759
C	 0.9902916509	-1.8892528994	 1.2505324986	-0.019237
C	 2.1514092598	-2.2380784919	 0.2798500421	-0.270595
C	 2.9072846769	-3.3177756587	 1.0151782869	-0.064984
C	 2.4997625013	-3.4555693975	 2.277184304	-0.10987
C	 1.4490808174	-2.4333707929	 2.6408210673	 0.070754
O	 1.9743401355	-1.4447566019	 3.5320489522	-0.427304
H	 0.3675554852	 2.1826503662	 0.189952774	 0.112572
H	-0.8930964642	 1.8363454615	-1.0011745268	 0.108708
H	-1.2402383221	 1.685954977	 0.7267819307	 0.114433
H	-0.8883265451	-0.5795289075	-0.3427790476	 0.091761
H	 0.7071722299	-0.0821663346	-0.8727016402	 0.095073
H	 1.4045044782	 0.2098523634	 1.5362297933	 0.085397
H	-0.1908203176	-0.276994158	 2.0549640926	 0.097225
H	 0.1311660871	-2.5058267804	 0.9554261416	 0.074625
H	 1.7895208464	-2.5738974309	-0.6983138605	 0.108062
H	 2.8006776902	-1.3727767442	 0.0789426638	 0.101792
H	 3.6989470491	-3.8948677009	 0.5479619164	 0.095797
H	 2.9106378099	-4.1436137827	 3.0076256985	 0.096061
H	 0.6017118441	-2.8560033956	 3.1906172528	 0.083231
H	 2.8462331904	-1.1985327459	 3.2038004655	 0.273894
