17
gdb 124296	4.7108	0.97629	0.83047	4.72	74.93	-0.2308	-0.0312	0.1996	1356.8094	0.136587	-418.055054	-418.046578	-418.045634	-418.08924	30.562	
C	 0.0874464644	 1.4804166612	-0.1110039682	-0.475622
C	 0.0156432864	 0.0373455108	 0.3412224935	 0.394132
O	 0.7979727841	-0.4195686131	 1.1459071096	-0.30208
C	-1.1295668932	-0.7875328134	-0.2462373613	-0.442527
C	-0.9440317452	-2.2732246066	-0.2605362734	 0.386215
C	-1.4804245555	-3.2367739862	-1.0963783773	-0.310182
C	-0.981130047	-4.4580693153	-0.5998816003	-0.005415
N	-0.1937462252	-4.2788534924	 0.4577377015	-0.231503
N	-0.1975246935	-2.9478938138	 0.6499572117	-0.235043
H	 0.7966268176	 2.0316038817	 0.5070774603	 0.150153
H	 0.4142332052	 1.5164452365	-1.1572074987	 0.153154
H	-0.8994603786	 1.9535302006	-0.0702488703	 0.14202
H	-2.0107553329	-0.5105995984	 0.3568427835	 0.154415
H	-1.358124988	-0.4335035552	-1.2566099077	 0.135068
H	-2.1374582733	-3.0741955144	-1.9359042623	 0.094907
H	-1.1609043906	-5.4567111484	-0.9702816551	 0.107571
H	 0.3930143953	-2.5166887935	 1.3440029545	 0.284738
