17
gdb 43312	2.78793	1.80508	1.24512	3.3017	78.26	-0.2364	-0.046	0.1904	992.5806	0.138613	-384.739177	-384.732272	-384.731328	-384.770771	27.36	
O	-0.1418462901	 0.1911089706	 0.6887889362	-0.337472
C	-0.1269480494	 1.300862606	 0.2081461796	 0.371809
C	-1.2933817122	 2.0980381078	-0.240385724	-0.176416
C	-0.907303816	 3.3281232339	-0.5962061168	-0.057077
C	 0.5864784661	 3.5450618114	-0.4592764899	-0.118051
C	 0.9780596815	 4.4568072262	 0.6886731114	-0.079769
C	 1.7022852508	 3.8249558897	 1.6100595151	-0.052239
C	 1.9748201958	 2.3821165476	 1.2596645412	-0.273562
C	 1.1324077572	 2.1582974545	-0.0229508836	-0.133914
H	-2.3031255812	 1.7079203681	-0.2232019867	 0.115617
H	-1.5700561195	 4.120488789	-0.9298730104	 0.11461
H	 1.0023699699	 3.9076944512	-1.4094030291	 0.089319
H	 0.6766784881	 5.4977879701	 0.7276732112	 0.096266
H	 2.0822873648	 4.2804054365	 2.518491925	 0.098011
H	 3.04370912	 2.2162677109	 1.0772404477	 0.111059
H	 1.6886118431	 1.6838910221	 2.0546908724	 0.128658
H	 1.7170606213	 1.6732912843	-0.8093096394	 0.103153
