17
gdb 79505	2.32653	1.80704	1.23484	2.33	73.22	-0.2456	-0.0343	0.2114	1020.3192	0.135247	-421.751654	-421.743894	-421.74295	-421.784171	29.561	
O	 0.352258008	 1.4231547394	-0.1479899064	-0.442301
C	 0.111085373	 0.0457572602	-0.066652761	 0.090349
C	 0.0524721401	-0.6637129558	 1.2982621129	-0.102827
C	-1.4435341087	-0.237033841	 1.5613713379	-0.103868
C	-1.8782085554	-1.6887232938	 1.8427139558	-0.267365
C	-0.836620865	-1.8134062382	 0.7154412531	-0.079673
C	-1.3450946961	-0.4818569977	 0.0114534009	 0.217003
C	-2.451834178	-0.4133456072	-0.9766306136	 0.020066
O	-3.6101575833	-0.2263005128	-0.6883648225	-0.25297
H	-0.1639488747	 1.8677152016	 0.5336645638	 0.286469
H	 0.7488099907	-0.4221022129	-0.8232440305	 0.091125
H	 0.8293303951	-0.7782738356	 2.0553582097	 0.080694
H	-1.794353046	 0.6773668733	 2.0411059591	 0.08133
H	-1.5897654181	-2.1066314678	 2.8119567178	 0.098845
H	-2.9109410131	-1.9453132547	 1.5963327399	 0.120743
H	-0.4757188358	-2.6963205358	 0.1864741366	 0.085672
H	-2.140370313	-0.562094971	-2.0361914536	 0.076708
