17
gdb 40583	4.39134	1.18135	1.11507	2.8583	70.93	-0.2383	0.0665	0.3048	1108.7394	0.136277	-421.723789	-421.716812	-421.715868	-421.755717	27.363	
C	-0.2749612972	 1.0990009587	-0.5368645969	-0.18219
O	 0.6057021496	 1.6864633235	 0.4187478549	-0.238527
C	 0.6014426906	 0.2569266596	 0.2879717602	 0.059368
C	 0.0754934545	-0.5108376433	 1.4668856949	-0.007406
C	-0.3133024568	-1.9877185797	 1.3264233669	-0.146181
C	 0.9956223024	-2.7601002196	 1.5726072756	 0.09362
O	 2.0458855569	-1.8080861935	 1.7398519692	-0.289261
C	 1.0956199593	-1.031216272	 2.5262221962	 0.040513
C	 0.1907273953	-2.3007258893	 2.7354659477	-0.150855
H	-1.3362972233	 1.1665585128	-0.2979164396	 0.107817
H	-0.0248424236	 1.2794520303	-1.5816218081	 0.114164
H	 1.5020791043	-0.1534152291	-0.1657766168	 0.107521
H	-0.7226557989	 0.0507574712	 1.9615431286	 0.085535
H	-1.1587241017	-2.4186656606	 0.8054133787	 0.09371
H	 1.2266188946	-3.7391866298	 1.1752733551	 0.113035
H	 1.5651969843	-0.3886536682	 3.2669990003	 0.094797
H	-0.2577098303	-2.787956921	 3.5890836329	 0.104341
