20
gdb 120543	4.04996	0.78634	0.74179	2.1967	77.43	-0.2251	-0.0276	0.1975	1560.4322	0.169615	-440.256029	-440.246357	-440.245413	-440.292076	34.131	
O	 0.3651982759	 1.1250831506	 0.0345812623	-0.416591
C	-0.0840444174	-0.2099586693	 0.2282887781	-0.068814
C	-1.6032684453	-0.3387578112	 0.145797589	-0.143051
N	-2.1179873407	 0.0928569774	-1.1438656359	-0.090019
C	-2.4013255494	 1.5294074844	-1.3492950897	-0.188018
C	-3.7105759556	 1.1309866862	-2.1045171727	-0.095465
C	-3.5141220617	-0.2655703527	-1.4814827404	-0.185339
C	-4.9418595434	 1.9112972464	-1.7416407873	 0.138363
O	-5.809995695	 1.5229520875	-1.0006829176	-0.240345
H	 0.3263063211	 1.3035377872	-0.9094770855	 0.289959
H	 0.3792712175	-0.8904538379	-0.5001153462	 0.094024
H	 0.2528016447	-0.5071014233	 1.2276045836	 0.106842
H	-1.8696029411	-1.3951732225	 0.2785544105	 0.102123
H	-2.0663857137	 0.2240867668	 0.9777890872	 0.088349
H	-2.6001657173	 2.0726827328	-0.41272207	 0.109601
H	-1.6519464753	 2.0843898494	-1.922665133	 0.099732
H	-3.5652712486	 1.1602751758	-3.1884675909	 0.09866
H	-3.6140558499	-1.1343299175	-2.1394263523	 0.10602
H	-4.1656518146	-0.3969510678	-0.6062433955	 0.115851
H	-4.9967439702	 2.9254620477	-2.2006656036	 0.07812
