16
gdb 4936	6.44662	1.17351	1.01855	2.9092	68.21	-0.1853	0.0489	0.2342	1113.6809	0.132035	-379.944351	-379.936204	-379.93526	-379.977071	29.899	
N	 0.1870459223	 1.4308193746	 0.045735189	-0.607495
C	-0.045101756	 0.0398417996	 0.008578694	 0.302175
C	-1.1892912959	-0.7246007902	 0.0693886498	-0.332495
C	-0.8056957977	-2.090920639	-0.1061209547	 0.236456
C	-1.702725969	-3.2938159319	-0.0971912194	-0.158576
O	-1.1728834587	-4.3850298393	-0.8402344478	-0.414738
C	 0.5611980016	-2.1110296609	-0.2636425941	-0.183203
N	 1.0116084098	-0.8108355078	-0.1949002012	-0.269125
H	-0.6764412787	 1.937683267	-0.1054737058	 0.246709
H	 0.5664449219	 1.7341323244	 0.9386015252	 0.243368
H	-2.1890876484	-0.3519306518	 0.2378650482	 0.079915
H	-1.8391992773	-3.6836932387	 0.9194642804	 0.115098
H	-2.704883582	-3.0098097516	-0.4588715855	 0.086048
H	-0.9314565003	-4.0363184348	-1.7052862076	 0.27553
H	 1.2385499187	-2.9371718266	-0.4010522909	 0.123072
H	 1.9476251399	-0.498153873	-0.3865147495	 0.257262
