19
gdb 16374	2.6539	2.16876	1.4213	1.4334	72.06	-0.2048	0.0873	0.2921	936.6498	0.164643	-365.014742	-365.006474	-365.00553	-365.047149	31.51	
C	-0.064815025	 1.539039167	-0.0072845116	-0.329302
N	-0.0238863958	 0.0988039643	 0.0970862104	-0.115108
C	-1.2663500114	-0.6222655806	 0.4498963295	-0.209758
C	-0.4336469069	-1.5836398617	 1.344069082	 0.057961
O	-0.1659838694	-2.86406981	 0.8233962583	-0.433846
C	 0.6892069793	-0.5482451871	 1.2029806154	 0.334877
C	 2.1614101826	-0.7743502287	 1.3152241834	-0.328085
C	 1.4449200135	 0.1113942222	 2.322237844	-0.342446
H	 0.9416734188	 1.933700679	-0.1843651402	 0.119296
H	-0.6843627903	 1.8241864027	-0.8640547798	 0.121686
H	-0.4755659613	 2.0339948049	 0.892265232	 0.094675
H	-1.9779061786	-0.0162907617	 1.0326541643	 0.087642
H	-1.7901668687	-1.0785731213	-0.3971965684	 0.098295
H	-0.817485116	-1.7428721195	 2.353166549	 0.092948
H	 0.266252971	-2.7450864683	-0.029989421	 0.287674
H	 2.4958251165	-1.7572109385	 1.6313673629	 0.121995
H	 2.8064933058	-0.2871722555	 0.5906448526	 0.113546
H	 1.6263434274	 1.1796551785	 2.2620100309	 0.113639
H	 1.3010293583	-0.259008466	 3.3326074764	 0.114311
