19
gdb 116348	3.01506	1.32654	1.02196	3.17	71.04	-0.2572	0.0782	0.3355	1175.6823	0.160441	-460.142662	-460.134558	-460.133613	-460.175455	31.143	
O	 0.0344246267	 1.3839394941	-0.0404688405	-0.427194
C	 0.033025233	-0.0263662204	 0.0288883742	-0.069876
C	-1.3910671908	-0.5802331741	 0.0411993479	 0.065663
O	-2.0040193301	-0.0825102251	-1.1409628803	-0.271009
C	-3.316191775	-0.5789030499	-1.3414117487	-0.077763
C	-3.3023898987	-2.0748435506	-1.6751752548	-0.239032
C	-2.3835616696	-2.8345435194	-0.733318602	 0.041503
O	-0.9855517678	-2.7934136182	-1.0474100603	-0.246553
C	-1.4322901506	-2.0929507617	 0.112150483	 0.01979
H	-0.5487942569	 1.6093591989	-0.7749608063	 0.290908
H	 0.5723693609	-0.4816527211	-0.8148667561	 0.109401
H	 0.5467461554	-0.3059535166	 0.9545381476	 0.104792
H	-1.9236020975	-0.1832266157	 0.9240471353	 0.073008
H	-3.9243726052	-0.3995406123	-0.4395213565	 0.092811
H	-3.747161761	 0.005287521	-2.1589293757	 0.112046
H	-4.3203546277	-2.4741475779	-1.6079828901	 0.103169
H	-2.9550072745	-2.231591584	-2.7018037916	 0.126874
H	-2.7250998322	-3.8127639949	-0.3965057613	 0.095975
H	-1.1106660486	-2.5203413521	 1.0631468562	 0.095486
