18
gdb 107532	2.04997	1.58217	1.08557	1.3507	77.43	-0.2423	0.0382	0.2805	1155.7123	0.146462	-401.858473	-401.849569	-401.848625	-401.892422	33.34	
O	 0.2123788964	 1.3705218965	 0.1799342021	-0.407334
C	 0.0471997557	-0.0189672541	-0.05751594	-0.170408
C	-1.3930499943	-0.4341300911	 0.0258862789	 0.310029
C	-2.0292741	-0.9906480239	 1.239168817	-0.295345
N	-1.8358050951	-1.8835583767	 0.0784491353	-0.171145
C	-2.9493105434	-1.5411424253	-0.8719074368	-0.172311
C	-2.4627310814	-0.0612720377	-1.0203650932	-0.249807
C	-3.3786663451	 1.0222185265	-0.7235149618	 0.326288
C	-4.1586885328	 1.8992041529	-0.4602352913	-0.465902
H	-0.1837185055	 1.5712010099	 1.0347129529	 0.286547
H	 0.4354743182	-0.1941267764	-1.0669642448	 0.114141
H	 0.6416540316	-0.636820949	 0.6337471349	 0.098405
H	-1.3809482122	-1.2411897728	 2.0737726914	 0.121703
H	-3.0379174887	-0.6907249537	 1.5148245226	 0.12599
H	-2.8567296909	-2.1206663412	-1.7914721039	 0.119648
H	-3.9483728121	-1.67878728	-0.4494727836	 0.116894
H	-2.000760949	 0.0948093122	-1.9995446383	 0.114472
H	-4.8391264911	 2.6833235939	-0.2372226612	 0.198136
