22
gdb 70750	2.45464	1.58036	1.19757	0.9945	82.23	-0.2202	0.0893	0.3095	1130.9348	0.195709	-404.325817	-404.317456	-404.316512	-404.358107	33.714	
C	-0.0092564063	 1.50270163	 0.0916360732	-0.449667
C	-0.0548888665	-0.0099099922	-0.0320589693	 0.341949
C	-0.8545054089	-0.7824126024	 0.9640151532	-0.303632
N	 0.6016986372	-0.7161458399	 1.0782087283	-0.117066
C	 1.3687177681	-1.931739008	 0.8043652572	-0.163248
C	 2.5876463699	-1.6558832565	-0.0791433464	-0.069205
O	 2.3013121561	-1.6609504923	-1.466240669	-0.243055
C	 1.552808975	-0.5613554745	-1.9492808219	-0.068791
C	 0.0967486362	-0.5379168475	-1.455399509	-0.287401
H	 0.9048228325	 1.9151749766	-0.3497747084	 0.115989
H	-0.8636774704	 1.9594087517	-0.4209979767	 0.111844
H	-0.0326946125	 1.797941032	 1.1430310155	 0.125974
H	-1.4193484029	-0.2704775234	 1.7403568893	 0.107991
H	-1.2934253145	-1.7239234276	 0.634884245	 0.103821
H	 1.7075388196	-2.3250240884	 1.7713986827	 0.101689
H	 0.7760787806	-2.726458862	 0.32421261	 0.093158
H	 3.0502978557	-0.7030151171	 0.2243771011	 0.095699
H	 3.3250069074	-2.4523386889	 0.0628393331	 0.105722
H	 2.0588225461	 0.3858521313	-1.6993692388	 0.089221
H	 1.5681110677	-0.6645891563	-3.039027635	 0.104232
H	-0.3062894067	-1.5507740801	-1.5525275589	 0.106451
H	-0.4919706134	 0.0994815654	-2.1271137951	 0.098325
