25
gdb 122069	3.03846	0.66636	0.57423	0.5596	95.83	-0.2586	0.0543	0.3129	2061.4776	0.226121	-352.340984	-352.329294	-352.32835	-352.378497	42.097	
C	 0.0969907425	 1.5828443923	-0.0051845745	-0.379882
C	 0.037017922	 0.0529739735	-0.0188098239	-0.16334
C	-1.3943708381	-0.4927475862	 0.0274341513	-0.170926
C	-1.4554048625	-2.0224555884	 0.0106342125	-0.190335
C	-2.8884270936	-2.6033562445	 0.0496393574	-0.148012
C	-2.8763002324	-4.1406467901	-0.1279511151	-0.174492
C	-4.2683248445	-4.7642227834	-0.2415588322	-0.390516
C	-3.5841423462	-2.2199893324	 1.2785381032	 0.358978
C	-4.1379122436	-1.9227050507	 2.3044214598	-0.500462
H	 1.1298488363	 1.9436489733	-0.0384220588	 0.109682
H	-0.4319042644	 2.0074478366	-0.8658393773	 0.112547
H	-0.3689063231	 1.9884324587	 0.899775676	 0.114888
H	 0.5425888555	-0.3257500383	-0.9173239306	 0.091672
H	 0.6022775359	-0.3433744522	 0.8351601395	 0.094847
H	-1.9002027616	-0.1200334628	 0.9265060142	 0.109571
H	-1.9609755769	-0.0971084118	-0.8275774975	 0.088133
H	-0.9666973865	-2.3987528957	-0.8974311551	 0.090955
H	-0.8893322366	-2.4252005765	 0.8602638109	 0.101243
H	-3.4448088881	-2.1757406192	-0.7984234486	 0.098777
H	-2.2936226138	-4.36707238	-1.0291734178	 0.093789
H	-2.3351366867	-4.5855199084	 0.7157092312	 0.104211
H	-4.2014094954	-5.8493264007	-0.3660135292	 0.111406
H	-4.864078307	-4.5608545682	 0.6528885219	 0.131814
H	-4.812481746	-4.3629877997	-1.1040335108	 0.111692
H	-4.635582545	-1.6515189551	 3.2022987937	 0.193758
