16
gdb 11735	5.17818	1.3977	1.26052	3.7066	66.25	-0.2421	-0.0107	0.2314	974.572	0.129074	-383.71542	-383.707777	-383.706833	-383.747593	28.21	
C	-0.2446246211	 1.3191341566	-0.0294138885	-0.260119
O	 0.1892733552	-0.0290466235	 0.0830103672	-0.279184
C	 0.7570249099	-0.5173403288	-1.0658158893	 0.453729
C	-0.0342849485	-1.0319053792	-2.215300085	-0.33917
C	 0.8609139462	-2.0102475403	-1.433571275	-0.263456
C	 2.2904011772	-1.780122355	-1.8226597273	 0.436875
O	 3.1967560044	-2.5015005219	-2.1266062401	-0.312843
C	 2.2168305392	-0.2617597486	-1.4927644454	-0.432978
H	 0.5948941775	 1.9969880236	-0.2362267506	 0.118611
H	-0.9941757548	 1.4329596724	-0.8242216152	 0.116036
H	-0.6910460583	 1.5872571385	 0.929937185	 0.135309
H	-1.0890208705	-1.1905151447	-2.0140200787	 0.131196
H	 0.200339615	-0.7677689848	-3.2426958233	 0.122747
H	 0.4368548933	-2.8880031696	-0.9626224923	 0.118739
H	 2.4049352078	 0.4533090965	-2.2986130079	 0.116474
H	 2.8687905677	-0.0417256212	-0.6419407633	 0.138032
