18
gdb 89961	2.31075	1.60706	1.13111	2.2947	74.11	-0.2235	-0.043	0.1806	1113.752	0.145996	-439.036312	-439.027807	-439.026863	-439.069663	31.265	
C	-0.1730124977	 1.5270980432	 0.2034122642	-0.331581
N	 0.0295800508	 0.0956701547	 0.1291468255	-0.077057
C	-1.1598634615	-0.7770932062	 0.2880365673	-0.228596
C	-0.3952163811	-1.6606538648	 1.2947033304	 0.32816
O	 0.4909287107	-2.6390563885	 0.7307390834	-0.341085
C	 1.6236192041	-1.7296784041	 0.7667290744	-0.084479
C	 0.7312527088	-0.5688966307	 1.237065329	-0.090031
C	-1.083630259	-2.1240371185	 2.5415212267	 0.085743
O	-2.0124341581	-1.5454455336	 3.0495641492	-0.256595
H	 0.7934093409	 2.0406285266	 0.1698115733	 0.123114
H	-0.7547624102	 1.8565603862	-0.6634669197	 0.129042
H	-0.707728495	 1.8530149256	 1.1147850074	 0.102507
H	-2.0011469476	-0.2837634565	 0.7948971924	 0.120696
H	-1.5016192748	-1.265635288	-0.6291981868	 0.116251
H	 2.3714723564	-2.066142638	 1.4958732404	 0.10487
H	 2.0819822054	-1.5931499765	-0.2170450654	 0.116591
H	 1.0448625431	 0.0568150177	 2.0757631699	 0.090067
H	-0.6463009453	-3.0491297686	 2.9762018783	 0.092385
