17
gdb 26491	3.75059	1.21761	1.03959	2.6432	74.62	-0.2155	0.0263	0.2418	1152.3721	0.137609	-418.02737	-418.019493	-418.018549	-418.060396	30.326	
O	 0.1967423741	 1.3322886185	 0.2958938694	-0.465083
C	 0.0159378551	-0.0536128957	 0.1002680151	 0.27327
C	-0.7646407683	-0.8174645306	 1.1383383568	-0.325149
C	-1.4167240034	-0.4343489014	-0.1722545806	-0.288538
C	 1.129126758	-0.6993124082	-0.6260414919	 0.253802
C	 1.7631835201	-1.9154378903	-0.5470116549	-0.186695
N	 2.7497928125	-2.0206655801	-1.5010501625	-0.258965
C	 2.724620943	-0.8787407143	-2.1493752008	 0.013256
N	 1.7612206921	-0.0462057091	-1.6659672973	-0.300664
H	 0.926071426	 1.4430868945	 0.9176932258	 0.284201
H	-0.5207793046	-1.8588671483	 1.3145780326	 0.125346
H	-1.0570871174	-0.259157721	 2.0202922802	 0.119421
H	-2.1380325069	 0.3747139255	-0.1547090844	 0.126145
H	-1.6025350799	-1.212301628	-0.9029360228	 0.125718
H	 1.5645396593	-2.7216058026	 0.1428195312	 0.105252
H	 3.3765735344	-0.5964480942	-2.9626759573	 0.128621
H	 1.5507791059	 0.8945252153	-1.9565477986	 0.270062
