17
gdb 51583	3.99247	0.761	0.70002	4.7051	75.75	-0.2746	0.0061	0.2807	1578.4142	0.135051	-417.999707	-417.990497	-417.989552	-418.035298	32.054	
N	-0.2525193297	 1.2515036197	 0.1291207732	-0.430778
C	-0.3503916165	 0.0212278908	 0.3804001568	 0.127828
O	-0.8410119252	-0.8156373661	-0.5670912719	-0.190359
C	-0.8862128453	-2.1785383125	-0.2275980044	 0.078799
C	-2.0052674661	-2.6788602223	 0.6495694307	-0.314595
C	-2.0054049013	-2.9690896468	-0.8360399833	-0.035633
C	-3.0030690894	-2.2725942453	-1.7493093567	-0.362205
C	-4.3189894014	-2.9117427444	-1.7144125247	 0.265364
N	-5.3522650847	-3.4275470649	-1.6795053686	-0.306193
H	 0.1286366508	 1.7437277736	 0.9343664673	 0.235229
H	-0.0797558621	-0.4904872822	 1.3124823705	 0.097262
H	 0.0937586924	-2.6442293892	-0.1571738014	 0.115778
H	-1.8055064753	-3.4877128728	 1.3427372478	 0.131044
H	-2.7142672669	-1.9387289129	 1.0055451876	 0.138591
H	-1.7620764307	-3.9840005	-1.132747539	 0.116595
H	-3.1063281609	-1.2217524939	-1.464067026	 0.173119
H	-2.6392432877	-2.2773230308	-2.7831901879	 0.160154
