21
gdb 95966	2.69954	1.47618	1.2595	2.5212	78.28	-0.2343	0.0658	0.3001	1105.4597	0.18329	-424.222053	-424.213548	-424.212604	-424.255138	33.191	
O	-0.1531414551	 1.580242756	 0.6097167479	-0.437511
C	-0.0715597893	 0.2453121404	 0.1227506578	 0.045294
C	 0.6204093991	-0.6831612137	 1.1300330095	-0.266997
C	-0.5031697318	-0.9014471038	 2.1475228422	-0.065951
O	-1.7080204207	-0.9014088574	 1.3849752269	-0.317771
C	-1.4918822246	-0.3426836404	 0.0947780463	 0.46135
C	-2.6061683703	 0.5918608718	-0.4345976652	-0.282217
C	-2.5016220896	-0.1202922245	-1.8116980458	-0.21769
C	-1.7664518354	-1.2924084686	-1.1078115463	-0.284975
H	 0.7435950787	 1.9136519346	 0.7126124229	 0.283031
H	 0.3948952666	 0.2223344341	-0.8710790335	 0.065539
H	 0.894859342	-1.6257081502	 0.6440975928	 0.109195
H	 1.5248739438	-0.244471185	 1.5616166361	 0.090244
H	-0.4249453335	-1.852403902	 2.6841761684	 0.100573
H	-0.5256036479	-0.086579638	 2.8838174866	 0.100162
H	-3.5463419236	 0.3601968654	 0.0719312031	 0.10832
H	-2.4170379441	 1.6640394338	-0.3813701245	 0.115218
H	-3.4348185067	-0.3561465012	-2.3263672268	 0.098549
H	-1.851153826	 0.4191934924	-2.5056623759	 0.100752
H	-0.9086290121	-1.7500380002	-1.6104862834	 0.085834
H	-2.4577680194	-2.0795783834	-0.796677709	 0.109051
