18
gdb 70646	2.47163	1.59737	1.15593	4.9642	75.42	-0.2745	0.0328	0.3073	1090.4889	0.148173	-401.970887	-401.962651	-401.961707	-402.003609	31.28	
C	-0.5038292848	 1.2657396372	 0.0167945871	-0.493118
C	 0.0887581278	-0.1134432126	 0.0710304947	 0.407623
O	-0.4672256378	-1.026648827	 1.0236238742	-0.288008
C	 0.9186244931	-0.6644378952	 1.1516751005	-0.014215
C	 1.8650600282	-1.7160415749	 0.6111684369	-0.254469
C	 1.2409042731	-2.1071844651	-0.7468593097	-0.233839
C	 0.5066441887	-0.823063738	-1.2291981186	-0.20669
C	-0.6070994319	-1.0887172848	-2.1360636953	 0.280507
N	-1.4923748616	-1.2879934977	-2.8520153647	-0.329526
H	 0.1745978395	 1.96348853	-0.4855257504	 0.124964
H	-1.4481155586	 1.255222938	-0.5372457403	 0.152308
H	-0.7022225587	 1.6333302891	 1.0260377535	 0.137038
H	 1.1684570941	-0.0871581856	 2.0385843863	 0.099654
H	 2.8604009119	-1.2722309644	 0.4865970577	 0.110199
H	 1.9692512089	-2.5760406834	 1.27903036	 0.121427
H	 1.9757727642	-2.4525631145	-1.4758982613	 0.117512
H	 0.5070631032	-2.9012474128	-0.6053637652	 0.144607
H	 1.2097323008	-0.1621354884	-1.7531129753	 0.124026
