19
gdb 14775	2.96077	1.14986	0.87773	3.8005	71.04	-0.2534	0.0334	0.2868	1334.4182	0.163657	-402.188182	-402.178607	-402.177663	-402.223889	32.531	
C	-0.6286477333	 1.4204758682	-0.3774010918	-0.387088
C	-0.3540820149	-0.0712960289	-0.3016756398	-0.030496
O	-1.5705005479	-0.7400901328	-0.0210984779	-0.245416
C	-1.4437735702	-2.1406623563	 0.0488632538	-0.054068
C	-2.8329919182	-2.7430686014	 0.1696474934	-0.09997
O	-3.5746501117	-2.6194143519	-1.0380810407	-0.183137
C	-4.2358740801	-1.4586067897	-1.2361462429	 0.135742
N	-4.8000364526	-1.2433472761	-2.3445100734	-0.447113
H	 0.2945344857	 1.9661638734	-0.5932420166	 0.118637
H	-1.3526126602	 1.6363382172	-1.1681012396	 0.131649
H	-1.0341203082	 1.7859437528	 0.5703888259	 0.125911
H	 0.0655670465	-0.4383309619	-1.2523828217	 0.095715
H	 0.3864672818	-0.2911247108	 0.4855448864	 0.087889
H	-0.9523224684	-2.537592601	-0.8536454006	 0.106098
H	-0.8387289721	-2.4413952788	 0.9219693247	 0.088975
H	-2.7553311591	-3.8153909672	 0.3679329371	 0.121997
H	-3.3691101446	-2.2725763614	 1.0043261792	 0.114528
H	-4.2243800194	-0.7948962011	-0.3639900186	 0.095174
H	-5.2756066731	-0.3437468125	-2.3167609669	 0.224974
