19
gdb 119816	5.60163	0.75328	0.67511	3.1837	79.31	-0.2398	-0.0148	0.225	1642.1821	0.157472	-423.048403	-423.039125	-423.038181	-423.08353	33.022	
C	-0.0627720982	 1.4056365948	 0.0115857201	-0.22528
O	 0.0119630079	 0.0002172102	 0.0035423668	-0.228044
C	-1.2518856457	-0.6153251004	 0.0100862438	-0.149453
C	-1.108762167	-2.1022545612	 0.0016738562	 0.274585
C	 0.0335517247	-2.7948727476	-0.0095495708	-0.158869
C	-0.1850195388	-4.2821184924	-0.0154450849	-0.370585
C	-1.7163743297	-4.4165698169	-0.0056195914	 0.398433
O	-2.3391373375	-5.4446268676	-0.0063924691	-0.301962
C	-2.3196143768	-3.0005047441	 0.0054505007	-0.424894
H	 0.960989151	 1.7867186528	 0.0055802326	 0.130411
H	-0.5917927592	 1.791925854	-0.8741004036	 0.106169
H	-0.5778151241	 1.7824621011	 0.909503382	 0.106171
H	-1.8341997175	-0.3013534886	 0.8978409698	 0.094667
H	-1.8476222967	-0.2926279857	-0.8655453358	 0.094651
H	 1.0137439572	-2.3367231435	-0.0140095187	 0.113172
H	 0.2280814396	-4.7897116067	-0.8972311376	 0.136253
H	 0.2400848848	-4.7984258996	 0.8555090563	 0.136251
H	-2.9621184901	-2.8750776356	 0.8875220056	 0.134158
H	-2.9739306137	-2.8664074329	-0.8666088221	 0.134166
