16
gdb 1901	3.65023	2.95308	2.21579	1.5553	61.08	-0.2406	0.0709	0.3115	667.924	0.13707	-325.699665	-325.693006	-325.692062	-325.7298	25.744	
C	-0.0788014733	 1.5524061499	-0.0547807583	-0.443786
C	 0.1099417138	 0.0498086294	-0.0003549938	 0.066222
N	 1.3504380637	-0.5778319891	-0.6927296766	-0.151368
C	 2.145833903	-0.1452643168	 0.5487787527	-0.244601
C	 0.8240863927	-0.6893904258	 1.1485766274	 0.33467
O	 0.3720148526	-0.7150728992	 2.4572002777	-0.464411
C	 1.00275694	-1.8341076321	 0.118045359	-0.23039
H	-0.2335854005	 1.8703105297	-1.0909740419	 0.130258
H	-0.9727353263	 1.8240144046	 0.5159531491	 0.129175
H	 0.7583765615	 2.1223356061	 0.3528025446	 0.121499
H	-0.8024325574	-0.4444548556	-0.352290567	 0.073305
H	 3.0552447337	-0.7341194935	 0.6980723836	 0.095515
H	 2.3614623657	 0.92136621	 0.5997428596	 0.105548
H	 0.9911862695	-1.2258093599	 2.99038606	 0.281523
H	 0.109672346	-2.3537493167	-0.2384834525	 0.102534
H	 1.8494609153	-2.5153257711	 0.2382559065	 0.094307
