21
gdb 99299	5.62303	0.63541	0.58824	3.5983	82.02	-0.2363	0.0672	0.3035	1925.1185	0.182368	-420.432007	-420.421544	-420.420599	-420.469134	36.689	
C	-0.1228467877	 1.3528390437	-0.0939522709	-0.320563
N	 0.3986767841	-0.0013247331	-0.0574076489	-0.362445
C	 0.6290677885	-0.6127675067	 1.1624161879	 0.499932
O	 0.5938187372	-0.0148802564	 2.2249479435	-0.409534
N	 0.9044089163	-1.9629332902	 1.0650154785	-0.373894
C	 1.3750625222	-2.7023448691	 2.2273869296	-0.15268
C	 1.0692017367	-4.1743497624	 2.0901402243	 0.014963
C	 2.0078215909	-5.0731579379	 1.3165700482	-0.267035
C	 1.9121172593	-5.1863923425	 2.8179935498	-0.270117
H	 0.254845347	 1.8786667805	 0.7830483947	 0.166177
H	 0.2229376289	 1.8618207611	-0.9984358623	 0.116874
H	-1.2205810205	 1.3897262454	-0.0665019587	 0.116818
H	 0.1414216	-0.6015802191	-0.8252569319	 0.232251
H	 1.2096650843	-2.3149033851	 0.1702851206	 0.230917
H	 2.4573965541	-2.5657752983	 2.3827092135	 0.093379
H	 0.8772387219	-2.2689349265	 3.0977796112	 0.142716
H	 0.0102751749	-4.4003877234	 2.0006134608	 0.089425
H	 1.5849065911	-5.8666580634	 0.7106110487	 0.112656
H	 2.9107194895	-4.6323783035	 0.9046112747	 0.108778
H	 2.7476089872	-4.821208279	 3.4062893317	 0.115979
H	 1.4201788938	-6.0552411241	 3.2400454748	 0.115404
