15
gdb 4184	5.17557	1.44663	1.28621	1.2078	65.	-0.2464	-0.0034	0.243	933.9206	0.118602	-399.715016	-399.708014	-399.707069	-399.746464	26.284	
O	-0.0995471095	 1.3639295985	 0.1925524946	-0.389706
N	 0.0530176615	-0.0308374729	 0.2723345576	-0.236511
C	-1.0252807872	-0.6225143666	-0.0279092446	 0.421867
C	-2.4473437445	-0.2088407297	-0.3781891029	-0.337675
C	-2.8022911281	-1.720072584	-0.4339339222	 0.117497
O	-2.6437390507	-2.2821028482	-1.7482619318	-0.288008
C	-1.3044393745	-2.7404891755	-1.4514009171	-0.080617
C	-1.3343055748	-2.1020926352	-0.0430164546	-0.186933
H	 0.7717956978	 1.6797933298	 0.4550748215	 0.308167
H	-2.9353804302	 0.3460928117	 0.4305286183	 0.128673
H	-2.587390921	 0.3329443815	-1.3167069269	 0.136648
H	-3.7051768273	-2.0667984953	 0.0726137041	 0.084912
H	-1.256515262	-3.8362434016	-1.4360959543	 0.107915
H	-0.5577767365	-2.3528532563	-2.1527695857	 0.115964
H	-1.0294800229	-2.7109659661	 0.8064664138	 0.097808
