19
gdb 77161	2.95459	1.20339	0.9879	2.2881	77.04	-0.252	0.0209	0.2729	1251.4077	0.15979	-419.182968	-419.174239	-419.173295	-419.21684	32.271	
C	-0.3792719568	 1.3186085167	 0.1473278572	-0.409786
C	 0.0671643894	-0.1351416246	 0.0686731817	-0.144491
C	 0.9375113466	-0.5950643069	-1.1332415071	 0.084064
O	 2.0042971292	-0.9913690954	-0.2038727075	-0.278828
C	 1.2817514963	-0.5291421882	 0.8845983643	 0.435105
N	 1.5940496364	-0.4599569085	 2.095561245	-0.542801
C	 0.4573493169	-1.7402539665	-1.9808412837	-0.011262
C	 1.3966803369	-2.7937476909	-2.4319876443	-0.241449
N	 0.3566993013	-3.0956995102	-1.427034028	-0.321731
H	 0.4537201706	 2.0001110175	-0.0516188407	 0.125712
H	-1.1729817574	 1.5245068712	-0.5776034323	 0.122669
H	-0.7625176729	 1.5413474927	 1.1467397392	 0.145717
H	-0.7735225337	-0.813030089	 0.2455157423	 0.119792
H	 1.2866018762	 0.2340694174	-1.7594471578	 0.097372
H	 2.5376671908	-0.8130160079	 2.2632297975	 0.229305
H	-0.3716270408	-1.4650041256	-2.631918811	 0.10015
H	 1.2567517895	-3.2697677403	-3.3978514847	 0.121881
H	 2.4258429158	-2.7243458635	-2.0923113662	 0.128913
H	 0.7980887659	-3.1121012278	-0.5093001936	 0.239669
