17
gdb 38540	3.25681	1.66966	1.22833	2.7445	75.25	-0.2417	0.0126	0.2543	999.8131	0.136976	-421.774039	-421.767064	-421.76612	-421.805209	28.013	
C	 0.0241078177	 1.5364253672	 0.0992754958	-0.369528
C	 1.5620614318	 1.4176270771	-0.1190846155	-0.102105
O	 1.7552008537	 0.8827977374	-1.4344171956	-0.290484
C	 1.4519496186	-0.0358498116	-0.3652900726	 0.411044
C	 2.1339330292	-1.3481116048	-0.1410824552	-0.240922
O	 1.24256269	-2.3666674531	-0.5938460809	-0.25536
C	-0.0169238859	-2.4104085419	 0.0636350594	-0.10407
C	-0.7134737364	-1.0695150146	 0.1908266902	-0.279105
C	-0.0096408456	 0.0159175469	-0.0898056586	 0.321509
H	-0.2706229901	 1.8564756324	 1.1027664115	 0.120349
H	-0.4855663023	 2.1502631767	-0.6475146708	 0.126131
H	 2.359815619	 2.0148307319	 0.3067283712	 0.11362
H	 3.0503916873	-1.4552611607	-0.7250228871	 0.130394
H	 2.3730648287	-1.4818480073	 0.926139474	 0.100408
H	-0.6211695313	-3.10687679	-0.5285127749	 0.124427
H	 0.0912218848	-2.8581227252	 1.0693535888	 0.097487
H	-1.7355190991	-1.0639205004	 0.5595459105	 0.096206
