21
gdb 94721	3.18476	1.18885	1.02221	2.0256	77.83	-0.2492	0.0727	0.3219	1223.9093	0.183425	-424.225147	-424.216532	-424.215588	-424.257804	34.719	
O	-0.1461007668	 1.4508739499	 0.0860054331	-0.44245
C	 0.0207050326	 0.039980429	 0.0222248338	 0.144352
C	 0.8012531718	-0.5089326551	 1.2215096604	-0.244039
C	 1.0403928046	-2.0167083162	 1.0621640802	-0.284476
C	-0.2292633427	-2.7911462376	 0.7512116746	 0.41612
O	-0.0021399669	-4.0627067633	 0.19517976	-0.471239
C	-1.4669572888	-2.6293209369	 1.5928491819	-0.349298
C	-1.4182433792	-2.0693076117	 0.177751894	-0.072335
C	-1.386354195	-0.5600306554	-0.0503524298	-0.226198
H	 0.7283387333	 1.8526366393	 0.1050613776	 0.277339
H	 0.5699000111	-0.2363511703	-0.8945477678	 0.064253
H	 1.7661597524	 0.0072083864	 1.3042678223	 0.08356
H	 0.2481615233	-0.2855056945	 2.1421889295	 0.10495
H	 1.7300915924	-2.187742984	 0.225976484	 0.107126
H	 1.5262582422	-2.4258073281	 1.958252953	 0.086878
H	 0.3593823182	-4.6253440465	 0.8894349084	 0.277268
H	-2.0649594424	-3.5187253383	 1.7577565646	 0.108291
H	-1.4588143957	-1.9232977046	 2.4180241764	 0.107471
H	-1.9720603051	-2.6471825825	-0.554220683	 0.096175
H	-1.9998584598	-0.0441196818	 0.6981122254	 0.109713
H	-1.8220771994	-0.3181898981	-1.0240848386	 0.10654
