23
gdb 118344	2.03206	1.09585	0.75542	1.9568	83.89	-0.2419	-0.0294	0.2125	1585.9492	0.201378	-425.43829	-425.426833	-425.425889	-425.475782	40.114	
C	-0.1903324653	 1.6820234698	-0.1305343111	-0.386539
C	-0.1044588486	 0.1908381121	 0.1424861631	-0.047445
O	-1.3567870426	-0.3964492363	-0.1810227241	-0.258451
C	-1.4098837141	-1.7941940071	 0.0253195615	 0.055117
C	-1.5124355379	-2.071788155	 1.5227061804	 0.134569
O	-1.0805809803	-3.0437107089	 2.0855406478	-0.246055
C	-2.6531850202	-2.3530577608	-0.7063619678	-0.001722
C	-2.663111998	-1.8973520405	-2.1719429426	-0.393551
C	-2.7214908623	-3.8826725557	-0.6034138201	-0.39803
H	 0.7629092164	 2.165900348	 0.1015568387	 0.11943
H	-0.427030574	 1.8662191969	-1.1822630788	 0.129144
H	-0.971345474	 2.1407562645	 0.4822610117	 0.128798
H	 0.6910863591	-0.2729200999	-0.4627717198	 0.095791
H	 0.1488461879	 0.0072142254	 1.1993443611	 0.096897
H	-0.5057568788	-2.2896891537	-0.3640246902	 0.082627
H	-2.0651535535	-1.2691406183	 2.0665323588	 0.084272
H	-3.5359400962	-1.9249221887	-0.2105114735	 0.083149
H	-1.7994980891	-2.3061227549	-2.7100525136	 0.110186
H	-3.5675865339	-2.2565948995	-2.6730297704	 0.11106
H	-2.6285895396	-0.8098680993	-2.2490111503	 0.132612
H	-3.6377534476	-4.2492600824	-1.075906883	 0.11441
H	-1.8731843446	-4.3450954918	-1.1208587579	 0.117721
H	-2.7076098227	-4.233697964	 0.43102005	 0.13601
