18
gdb 86169	2.72695	1.19184	0.88962	3.9813	80.97	-0.2666	-0.0457	0.2209	1291.0888	0.147683	-401.981139	-401.972201	-401.971257	-402.014949	33.038	
C	-0.004958067	 1.5808545476	-0.0274858568	-0.407409
C	 0.0608017092	 0.0523297193	 0.025093503	-0.096028
C	 0.798792532	-0.5987976196	-1.1709056251	-0.239029
C	 1.5501020162	-1.8235490231	-0.6134757817	 0.084677
O	 2.8037567546	-1.9410298361	-1.2716962086	-0.424881
C	 1.6479930543	-1.5151107904	 0.8640287306	-0.207711
C	 0.8405792344	-0.5065162984	 1.2125006713	 0.209292
C	 0.6642685085	-0.0104083563	 2.5343052673	 0.216173
N	 0.4933023572	 0.418438775	 3.5970439367	-0.342551
H	 1.0000281928	 2.0131195132	-0.0739612499	 0.125246
H	-0.5566461392	 1.9098800369	-0.9135035636	 0.121466
H	-0.5087313636	 1.9874698139	 0.8545212824	 0.137894
H	-0.9666314756	-0.3334610006	 0.0828354145	 0.098071
H	 0.1309349421	-0.8500460957	-1.9972918238	 0.109129
H	 1.5601190651	 0.090250886	-1.5517487332	 0.126875
H	 0.9647112504	-2.7476016721	-0.7551801353	 0.083979
H	 3.1891509367	-2.7940200244	-1.0479071612	 0.286999
H	 2.2739920419	-2.0785841451	 1.5467455933	 0.117807
