18
gdb 117908	2.82065	1.12713	0.92183	3.2245	77.12	-0.244	-0.0519	0.1921	1286.678	0.147245	-435.26969	-435.259826	-435.258882	-435.30517	34.645	
C	-0.2163774167	 1.4287285965	 0.0210800652	-0.362165
N	-0.064065357	-0.0154256722	-0.0136164078	-0.066579
C	-0.0671940828	-0.7320842458	 1.261158936	-0.221782
C	-1.4612710533	-1.1053047172	 1.7795568787	-0.034258
O	-2.2328606194	-1.8287062684	 0.8513876953	-0.423908
C	-0.0604613042	-0.7427373072	-1.162558276	 0.331536
N	-0.1648807438	-2.0278398957	-1.1741639176	-0.567892
C	 0.1102581425	 0.0021833822	-2.401153396	 0.233908
N	 0.2443818093	 0.5225143182	-3.4252581267	-0.333303
H	-0.1097555702	 1.8469048915	-0.9801676683	 0.171998
H	-1.200468366	 1.7172268074	 0.4098743395	 0.145436
H	 0.5529271565	 1.8700064722	 0.6643718405	 0.137901
H	 0.5266237528	-1.6402963509	 1.1242566163	 0.146061
H	 0.4391670593	-0.1006363302	 2.0002036364	 0.110214
H	-1.3150184032	-1.6635655092	 2.7208372105	 0.089157
H	-2.0257240245	-0.1986656329	 2.0372331252	 0.098496
H	-1.6285509083	-2.3034292047	 0.2599382513	 0.300455
H	-0.0653151111	-2.4020285434	-2.1126973724	 0.244726
