18
gdb 105470	2.91724	0.8816	0.74292	4.7781	72.32	-0.2773	0.0349	0.3122	1502.3408	0.146252	-439.074588	-439.065032	-439.064088	-439.110235	33.835	
O	 0.0921667169	 1.3299635021	 0.4728605903	-0.410317
C	 0.0209313164	-0.0091618647	 0.0192486472	-0.123934
C	-1.3950817186	-0.5505035641	 0.1105618381	 0.354844
C	-2.4059387634	 0.1838097352	-0.7554311218	-0.270201
C	-3.8738029439	-0.1292712697	-0.4112301471	-0.356214
C	-4.8026896056	 0.6982175105	-1.1760135377	 0.260575
N	-5.5282133511	 1.3555780979	-1.7897675729	-0.303278
C	-1.5976786581	-1.9232566058	 0.5912808545	-0.228257
O	-1.7956219609	-0.8097030426	 1.4719595098	-0.272963
H	-0.1779172411	 1.3262219382	 1.3985524524	 0.295863
H	 0.3580949984	 0.0003156284	-1.0229835723	 0.117569
H	 0.694578861	-0.6652575683	 0.5887304801	 0.097415
H	-2.2249281647	 1.2562253242	-0.634443776	 0.147735
H	-2.2103989188	-0.0501738162	-1.8080447531	 0.128256
H	-4.1113984252	-1.1791125436	-0.6149539603	 0.149009
H	-4.0422577875	 0.0316035511	 0.657839097	 0.173093
H	-2.4990526797	-2.4728942666	 0.3279269481	 0.119218
H	-0.7338552141	-2.5470968163	 0.8165964137	 0.121589
