17
gdb 48989	3.23735	1.51337	1.31825	3.308	66.95	-0.2589	-0.0419	0.2169	992.2535	0.136813	-458.976225	-458.968834	-458.967889	-459.008568	28.231	
O	-0.6436441057	 0.8143261613	 0.5818581725	-0.238908
C	 0.2618896928	 0.9231242068	-0.1989238751	 0.106248
C	 1.4238417317	 1.8869376895	-0.0154730001	 0.395206
C	 1.537742601	 2.6994683748	 1.2813705473	-0.263526
C	 2.4610708395	 3.8567895899	 0.7874858227	-0.228485
C	 2.681968421	 3.44165368	-0.683885412	 0.032918
C	 3.5549610045	 2.1751532493	-0.7362296675	-0.087327
O	 2.6444563481	 1.1763079356	-0.2348554644	-0.319444
O	 1.403584671	 2.8729353997	-1.0356214307	-0.287718
H	 0.3325130069	 0.3234144842	-1.1293363024	 0.102759
H	 0.5566939403	 3.0507339695	 1.6044434233	 0.128578
H	 1.9764497494	 2.1018580032	 2.0813356618	 0.118844
H	 1.9558594697	 4.8232284817	 0.8387436112	 0.115769
H	 3.3974620872	 3.9301081418	 1.3456040146	 0.108134
H	 2.9476800787	 4.231632168	-1.3844803894	 0.094743
H	 3.856819504	 1.9174542456	-1.757144353	 0.112796
H	 4.44106147	 2.231361219	-0.0956366488	 0.109414
