19
gdb 126811	1.86849	1.73798	1.02443	1.359	78.63	-0.2384	0.0106	0.249	1204.6091	0.16067	-419.228886	-419.219884	-419.21894	-419.263221	32.798	
C	 0.1705853221	 1.2410306699	 0.028435525	-0.377965
C	-0.1221884726	-0.2223523982	-0.306928482	-0.156127
N	-1.5356469814	-0.553876259	-0.1782056665	-0.007294
N	-2.0364573516	-0.8408959124	 1.0392831843	-0.265222
C	-3.335023864	-1.0511619097	 0.837438157	-0.001854
C	-3.6780666538	-0.9037081176	-0.5189827228	-0.318459
C	-2.4910415568	-0.5754858739	-1.1513492911	 0.327091
C	-2.2095428303	-0.3040585023	-2.5957631663	-0.189624
O	-1.2621124433	-1.2027735459	-3.1717408767	-0.405833
H	 1.2450409165	 1.4349692171	-0.0452676513	 0.120502
H	-0.3457498426	 1.9179416158	-0.6592178648	 0.12183
H	-0.1557426356	 1.4697885635	 1.0462255703	 0.143243
H	 0.1772814405	-0.470513138	-1.3271942608	 0.144858
H	 0.4166476654	-0.8825435195	 0.3772321297	 0.13081
H	-3.9709770533	-1.3095459405	 1.67148482	 0.110329
H	-4.6450027857	-1.0175291288	-0.9832267348	 0.101763
H	-3.1633424236	-0.3233475191	-3.1408826663	 0.11083
H	-1.7768739039	 0.692058451	-2.7398859506	 0.124288
H	-1.5720416059	-2.0977926222	-2.9947381822	 0.286832
