16
gdb 56098	4.05587	0.77423	0.65537	4.5049	74.31	-0.2535	-0.0406	0.2129	1624.0507	0.122028	-434.103139	-434.093109	-434.092164	-434.140697	33.674	
C	-0.0308208107	 1.4575993664	 0.010561572	-0.47808
C	-0.0386347692	-0.052882234	 0.0330360267	 0.372358
O	-0.1159365341	-0.6964882834	 1.0554164826	-0.294117
C	 0.0591313685	-0.7517902314	-1.3188149678	-0.234258
N	 0.0545990672	-2.1734498969	-1.1194585345	-0.321847
C	 0.1101016642	-3.0428415021	-2.158970914	 0.306745
N	 0.181817596	-2.6518674849	-3.3787764164	-0.534219
C	 0.082822861	-4.4445592305	-1.7654898436	 0.233024
N	 0.0633491459	-5.5698673391	-1.5009607578	-0.321394
H	 0.9040504788	 1.8235597394	-0.4284680235	 0.152204
H	-0.845984761	 1.8352315153	-0.6161961123	 0.150646
H	-0.1348811047	 1.842801561	 1.0249820412	 0.154581
H	-0.7754173537	-0.4316425032	-1.959757392	 0.149318
H	 0.9681078583	-0.4202118444	-1.8414456776	 0.148656
H	-0.0182446847	-2.4852670402	-0.161840907	 0.276725
H	 0.2171404282	-3.443419842	-4.0154532359	 0.239659
