25
gdb 58803	3.42186	1.0166	0.91637	0.3405	92.98	-0.2415	0.084	0.3256	1445.9101	0.228117	-352.342541	-352.3325	-352.331555	-352.377039	38.916	
C	-0.2188439194	 1.5603362545	-0.0476468694	-0.38352
C	-0.0135360376	 0.0366511112	 0.0043202252	-0.084335
C	-1.3419659784	-0.6879105132	 0.2568205486	-0.400022
C	 0.7095668607	-0.443092111	-1.2350734768	 0.415614
C	 0.054395563	-0.800027865	-2.5412909017	-0.333051
C	 0.8873246608	-1.8424123287	-1.8365105843	-0.138612
C	 2.3877948591	-1.5957947689	-2.0534904411	 0.041705
C	 2.9800236921	-1.8015004491	-3.4426161406	-0.403641
C	 2.194712879	-0.1370934003	-1.5099865923	-0.324743
H	 0.7303732179	 2.0870016856	-0.1894931055	 0.114254
H	-0.879515574	 1.8336479719	-0.8781229623	 0.114363
H	-0.6715309001	 1.9289157624	 0.8790117829	 0.105641
H	 0.6452949694	-0.178745509	 0.8592321938	 0.067817
H	-2.0810692216	-0.4515046004	-0.5163855435	 0.11534
H	-1.2101519046	-1.7743853091	 0.2794975764	 0.113253
H	-1.7672769882	-0.382472232	 1.2181875857	 0.110614
H	-1.0152254207	-0.9788598681	-2.5057559454	 0.106923
H	 0.3891837245	-0.3474735747	-3.4723011981	 0.097997
H	 0.4485031576	-2.7833339633	-1.5215931477	 0.075972
H	 2.9661392875	-2.1756803324	-1.3267213983	 0.069948
H	 2.4246582348	-1.245992135	-4.2054203397	 0.113015
H	 4.0218213867	-1.4634220203	-3.4799328981	 0.110376
H	 2.963018892	-2.8601872139	-3.7251035162	 0.111564
H	 2.3888907908	 0.6724907358	-2.2228260229	 0.08851
H	 2.7742060685	 0.0557068429	-0.6027412387	 0.095015
