19
gdb 80624	2.45635	1.85238	1.39483	2.1442	74.7	-0.2502	0.069	0.3192	986.1011	0.160635	-422.988238	-422.980783	-422.979839	-423.019796	30.367	
O	-0.040215988	 1.4563497518	 0.0949682254	-0.441958
C	-0.0090914083	 0.0387427261	 0.0773947278	 0.045163
C	 0.5061569154	-0.6198874726	 1.3771406196	-0.069714
C	-0.6814764853	-0.365679457	 2.3514721806	-0.23195
C	-1.4196151444	-1.3456846524	 1.3886165623	-0.106073
C	-0.0461817744	-2.0686647945	 1.233644169	-0.240747
C	-1.4433306545	-0.5231815983	 0.1121377137	 0.494962
C	-2.6015324917	 0.1215432636	-0.4969888055	-0.277182
O	-2.0151763833	-1.0580779578	-1.0765206408	-0.307282
H	 0.8676875503	 1.7741583642	 0.0587457796	 0.283898
H	 0.5209037457	-0.3307847945	-0.8113478383	 0.0788
H	 1.542847219	-0.4200608917	 1.6532225399	 0.056069
H	-0.5155101525	-0.800274725	 3.3394414607	 0.097695
H	-1.0556565508	 0.6569333019	 2.4349077133	 0.108825
H	-2.3359974224	-1.868345918	 1.6602195965	 0.06702
H	 0.1430115744	-2.6109412105	 0.3025707322	 0.105665
H	 0.2003409437	-2.6943541517	 2.0940605644	 0.10045
H	-3.5897929144	-0.0181936414	-0.0600085102	 0.109632
H	-2.4637165486	 1.0388150079	-1.0649144102	 0.126728
