12
gdb 20480	5.23109	2.1628	1.55266	2.3331	55.32	-0.1978	0.0259	0.2238	735.6358	0.086901	-414.631224	-414.625411	-414.624467	-414.661126	21.759	
C	 0.0503456741	 1.3936017502	-0.1306553602	 0.003778
O	 1.4494425939	 1.8012984954	-0.0137139008	-0.286966
C	 1.9806995027	 0.7069182692	 0.588789908	 0.409053
C	 1.1494665984	-0.3665216432	 0.5936734924	 0.198458
O	-0.0311282218	-0.0323298436	-0.0524343956	-0.285422
C	 1.8819081568	-1.4129209623	 1.1664178446	-0.136006
N	 3.1075885961	-0.9763567074	 1.5032447363	-0.240139
N	 3.1536284821	 0.3391952616	 1.1242968928	-0.33003
H	-0.4988815718	 1.8456172067	 0.7083950926	 0.118409
H	-0.3309046014	 1.7324720843	-1.0949386086	 0.14132
H	 1.6113875943	-2.438391181	 1.3609447846	 0.123967
H	 3.9822707666	 0.8767081701	 1.3078557538	 0.283578
