27
gdb 117839	2.29868	0.93028	0.82688	1.3054	92.38	-0.2636	0.0689	0.3325	1632.9214	0.249532	-390.700018	-390.687864	-390.68692	-390.737612	44.407	
C	-0.1423132833	 1.6754824637	-0.0046412584	-0.37583
C	 0.0194255438	 0.1530988786	 0.0680538385	-0.193431
C	-1.3293950604	-0.5737225448	-0.0146871407	-0.173544
C	-1.3131403956	-2.1253191692	 0.0112336381	 0.244995
C	-0.5373869887	-2.6457062964	 1.2350136496	-0.431152
C	-2.7944002463	-2.5891786592	 0.0774587377	-0.176219
C	-3.060257601	-4.087418899	-0.1070236049	-0.407161
C	-0.6352951972	-2.6766184303	-1.2529867241	-0.091172
O	-1.3894453588	-2.2864682407	-2.3942704243	-0.426988
H	 0.8253771209	 2.1840948417	 0.0530443535	 0.106448
H	-0.6235766748	 1.9777060486	-0.9413836843	 0.114663
H	-0.7632316579	 2.0473033111	 0.8182978007	 0.111679
H	 0.6767282908	-0.173046201	-0.7474618262	 0.094919
H	 0.5350259885	-0.1066712371	 1.0000586702	 0.094132
H	-1.9594978386	-0.2298386993	 0.8175940925	 0.081248
H	-1.8384601084	-0.2616760983	-0.9338257922	 0.108788
H	-0.9307896963	-2.2041301732	 2.1570728034	 0.111274
H	-0.6143061102	-3.7333597726	 1.3285188469	 0.110685
H	 0.5276835024	-2.3997563956	 1.1778786425	 0.111712
H	-3.1994807169	-2.2666433699	 1.0455168607	 0.083956
H	-3.3563901114	-2.0447888062	-0.6883592171	 0.107332
H	-4.1255841576	-4.2998013816	 0.0292823192	 0.109227
H	-2.7892661835	-4.4170248477	-1.1143023597	 0.122716
H	-2.5134467412	-4.7047403668	 0.6132676842	 0.109997
H	 0.3960494061	-2.2978248253	-1.3154477414	 0.08294
H	-0.5695400212	-3.7730156629	-1.1833590425	 0.082118
H	-0.9449969732	-2.6207383863	-3.178155672	 0.286669
