18
gdb 40891	3.81942	1.32357	1.28898	1.6303	75.21	-0.2359	0.0171	0.253	1046.0465	0.149518	-401.929016	-401.921749	-401.920805	-401.961241	28.203	
C	 0.1332379868	 1.4259731332	-0.3943214211	-0.20587
C	 1.4864984444	 1.6074462425	 0.360478346	-0.296599
C	 1.3699180365	 0.1506759036	 0.8197644418	 0.322834
C	-0.0661232247	 0.0397359899	 0.2904467609	-0.307779
C	 2.3994952427	-0.9228714398	 0.6616083567	-0.023012
O	 3.752224361	-0.4849148592	 0.5960344996	-0.209774
C	 3.9856544691	 0.1218823059	 1.7914317675	 0.104112
N	 3.0661317183	 0.1329021549	 2.6699528457	-0.257184
C	 1.9282191062	-0.5153163655	 2.0550505212	-0.122093
H	-0.6341257904	 2.1745047048	-0.1884192901	 0.104515
H	 0.2588502711	 1.3490581627	-1.4764601241	 0.107879
H	 2.356012089	 1.8446261421	-0.2574868488	 0.107764
H	 1.4395812911	 2.3223018982	 1.1863133946	 0.114703
H	-0.817797767	 0.0519804224	 1.0857798352	 0.106817
H	-0.2784403747	-0.8047270678	-0.3718829623	 0.101148
H	 2.2253252652	-1.8542607325	 0.1361888385	 0.109972
H	 4.9747655371	 0.550370054	 1.8955836612	 0.144049
H	 1.2848161284	-1.1024458195	 2.7010852176	 0.098518
