18
gdb 74684	3.29682	1.33277	1.10696	3.6951	78.58	-0.2414	0.0088	0.2502	1135.1335	0.148876	-401.983925	-401.976149	-401.975204	-402.016254	29.938	
C	 0.0066251845	 1.4946820506	 0.1131739712	-0.491157
C	 0.0188873506	 0.0033767439	 0.0124060561	 0.324584
C	 0.0707143472	-0.7479868891	-1.0930946864	-0.201362
C	-0.0006391407	-2.2159322932	-0.7707635425	-0.021376
C	 1.2837550968	-3.0946536121	-0.8355020455	-0.389172
C	 1.3689315291	-2.8323778125	 0.6825186861	 0.395572
O	 2.1920574882	-2.9779475718	 1.5420671968	-0.338548
N	 0.1053750376	-2.2200640751	 0.7180092068	-0.101461
C	-0.0700075929	-0.8706246769	 1.2595995396	-0.282811
H	 0.8620338377	 1.8583930912	 0.6958867034	 0.135974
H	 0.039529018	 1.9660907575	-0.8721482186	 0.129694
H	-0.8948864324	 1.8465519121	 0.6305220553	 0.132206
H	 0.1018440479	-0.3642841095	-2.1062401529	 0.09908
H	-0.9053166548	-2.6967254412	-1.1605921416	 0.090661
H	 1.137932841	-4.1365268289	-1.1281998016	 0.13088
H	 2.1221597637	-2.6706139798	-1.3910708543	 0.134376
H	 0.7178500532	-0.6642461845	 1.9930342071	 0.13773
H	-1.0354969148	-0.7491891408	 1.769946661	 0.115131
