17
gdb 116985	4.78821	0.56894	0.51331	2.8294	95.24	-0.2616	-0.0766	0.185	2088.599	0.131933	-384.65821	-384.647897	-384.646953	-384.695012	35.621	
C	-0.1053136219	 1.5829329433	 0.0116737762	-0.395075
C	-0.0011800369	 0.0557828311	 0.0024141406	-0.166347
C	-1.3714886663	-0.6217564229	 0.0117344348	-0.283326
C	-1.3013617085	-2.1387481779	 0.0028723129	 0.123114
O	-0.2609231795	-2.7625567123	-0.0105252538	-0.282419
C	-2.5844837358	-2.8197614928	 0.0115428461	 0.330989
C	-3.656433475	-3.3879776535	 0.0186676749	-0.116349
C	-4.8552645716	-4.0252612327	 0.0267850185	 0.288202
C	-5.9224917658	-4.5905183375	 0.0337856623	-0.546321
H	 0.8867337898	 2.0441557929	 0.0047528614	 0.118554
H	-0.6496066554	 1.951592521	-0.8649938283	 0.115183
H	-0.6328262352	 1.9420189793	 0.9024589572	 0.115183
H	 0.5570218565	-0.2807262142	-0.8776056052	 0.115932
H	 0.5735694207	-0.2901808147	 0.8679993008	 0.115926
H	-1.9607651408	-0.3211201138	 0.8899772144	 0.131254
H	-1.9772289816	-0.3117399001	-0.8519290651	 0.131263
H	-6.8598551027	-5.0902215351	 0.0401149124	 0.204238
