23
gdb 56188	4.61082	0.64288	0.59558	2.5659	86.99	-0.241	-0.007	0.2341	1931.8171	0.203936	-388.309884	-388.299503	-388.298558	-388.347609	36.922	
C	 0.0885795486	 1.5407573208	-0.0662513674	-0.472512
C	-0.0690991952	 0.0354679374	 0.0746439143	 0.377082
O	-0.2722497934	-0.4853796843	 1.1475371148	-0.289629
C	 0.0434029023	-0.7761665686	-1.2103181994	-0.299772
C	-0.1334597067	-2.2822867859	-1.0140523803	-0.204348
C	 0.0011624299	-3.070332652	-2.3094432099	 0.0551
C	 1.3920868234	-3.1683714187	-3.0056204919	-0.21849
C	 1.0754263846	-4.649624338	-3.3452713439	-0.210177
C	-0.0233552483	-4.62446812	-2.2492493964	-0.236545
H	 1.0617302426	 1.7844380733	-0.5071553872	 0.136134
H	-0.6745102924	 1.9429736563	-0.7422319674	 0.136368
H	-0.0009678463	 2.0161987247	 0.9111722324	 0.141486
H	-0.6950522011	-0.3827677649	-1.9243498547	 0.114814
H	 1.0190863956	-0.5521898684	-1.6654455119	 0.120406
H	 0.6057077281	-2.6373315554	-0.2859908354	 0.104567
H	-1.1125407378	-2.4725685942	-0.5584878574	 0.107314
H	-0.7444756119	-2.7210969299	-3.035585155	 0.063384
H	 1.6047950415	-2.4874403481	-3.8339536076	 0.090367
H	 2.204117126	-3.0887738506	-2.2741391916	 0.095942
H	 0.6468641674	-4.7517135908	-4.3465499056	 0.100118
H	 1.88237569	-5.3784926857	-3.239981495	 0.095423
H	 0.3576549496	-4.9863837358	-1.2884277246	 0.099615
H	-0.9702754164	-5.1288808711	-2.4576503489	 0.093353
