19
gdb 70860	2.76388	1.72827	1.32038	1.006	79.45	-0.2109	0.0176	0.2285	1014.7915	0.159219	-385.86257	-385.854822	-385.853878	-385.893998	32.123	
C	-0.0656496929	 1.5384554082	-0.0217879898	-0.495861
C	-0.0367087357	 0.0247685357	 0.0419941386	 0.287476
C	 0.3603043934	-0.7544241798	-1.2809666471	-0.332481
C	-0.7892940029	-1.7123507187	-0.9960723432	 0.385426
O	-1.4780641628	-2.4396813201	-1.9495087947	-0.463629
C	-0.8640228122	-2.1157369779	 0.5053924078	-0.158506
C	 0.3137916034	-1.8580152339	 1.3820230693	-0.092982
C	 0.758475745	-0.6166572293	 1.1686400287	-0.13984
C	-1.3871984591	-0.7834562254	 0.015381068	-0.173363
H	 0.9434005663	 1.9454547988	-0.1534286954	 0.115922
H	-0.6776740695	 1.8897272643	-0.859043191	 0.115923
H	-0.4791682099	 1.9627238879	 0.8999750827	 0.118549
H	 0.118605623	-0.1557278706	-2.163652544	 0.1058
H	 1.3841367216	-1.1373966894	-1.3545406383	 0.082523
H	-0.9972640354	-3.2591461845	-2.1108552127	 0.285071
H	-1.571079087	-2.9134806428	 0.7030228724	 0.084355
H	 0.7478985525	-2.5969476311	 2.0442728663	 0.094622
H	 1.6399183103	-0.1592420978	 1.6026603569	 0.091419
H	-2.395332918	-0.4056021735	 0.1389052055	 0.089576
