23
gdb 58864	2.44079	1.38096	1.06114	1.3656	85.59	-0.2441	0.0741	0.3182	1252.3955	0.204647	-388.268662	-388.258874	-388.25793	-388.30299	37.655	
C	-0.0985004514	 1.5793486847	 0.3155794114	-0.382627
C	-0.0289187382	 0.0696115955	 0.0246641473	-0.094214
C	 0.9181042834	-0.639138357	 1.0013841172	-0.402051
C	-1.4217853073	-0.5213047183	-0.0062121634	 0.415879
C	-2.2077669163	-0.947884057	 1.206466964	-0.325632
C	-1.9522904155	-1.9595252367	 0.1233807284	-0.13171
C	-2.9525323113	-1.737452711	-1.013049913	-0.269087
C	-2.3915954052	-0.2807427615	-1.1635100751	 0.037549
O	-3.2625390057	 0.814832632	-0.9611092034	-0.434724
H	 0.8895549069	 2.0436248567	 0.2257865855	 0.100479
H	-0.7824306084	 2.0843870575	-0.3725167577	 0.127867
H	-0.4652886106	 1.75785866	 1.3325527347	 0.114869
H	 0.390659267	-0.0557363312	-0.9851607147	 0.065911
H	 0.6050575129	-0.4942231205	 2.0410422967	 0.116192
H	 0.967106363	-1.7156910323	 0.8081704127	 0.111546
H	 1.9317252611	-0.2360523054	 0.9087375763	 0.111324
H	-1.6252742667	-1.0785528838	 2.1121484416	 0.10756
H	-3.2107685585	-0.5639373241	 1.371478491	 0.113982
H	-1.3952201504	-2.8705039248	 0.3062355642	 0.083497
H	-2.7762839177	-2.3505261102	-1.9003175158	 0.095658
H	-4.0090559202	-1.8061080908	-0.732374399	 0.093032
H	-1.8436797541	-0.1717913825	-2.1106127675	 0.062782
H	-3.8474472268	 0.8804384707	-1.7228921614	 0.281919
