17
gdb 112111	2.99633	1.37139	0.97731	4.7791	70.74	-0.2582	-0.0074	0.2508	1166.7627	0.136713	-458.999184	-458.991003	-458.990059	-459.033112	30.155	
O	-0.2401912725	 1.5292638289	-0.4390419308	-0.42421
C	-0.01405031	 0.1688515131	-0.1856030798	-0.053529
C	-1.3223694475	-0.6145920266	 0.1037181003	-0.238635
C	-1.1254498978	-2.1011678629	 0.0613321493	-0.055153
C	-1.684565194	-2.9126687639	 0.9485888911	-0.105976
C	-2.547873295	-2.4041564753	 2.0542703454	-0.11112
O	-2.4905665643	-0.9866437642	 2.2687676684	-0.228695
C	-1.9280166311	-0.1182055192	 1.4117794215	 0.43626
O	-1.9143049377	 1.0518912475	 1.7182241844	-0.344879
H	-0.7505757795	 1.8524340708	 0.3190360415	 0.29861
H	 0.4465511021	-0.2562515764	-1.0845917297	 0.104528
H	 0.6881025821	 0.0086707968	 0.6495099144	 0.094459
H	-2.0250450359	-0.3105556115	-0.6876511304	 0.134378
H	-0.507023926	-2.4935215302	-0.7416741156	 0.107729
H	-1.55523173	-3.9897601128	 0.9030815548	 0.11171
H	-3.6014234721	-2.6652131451	 1.8812863752	 0.136038
H	-2.2640537207	-2.856715449	 3.0116315399	 0.138486
