18
gdb 8688	2.64748	1.65776	1.33495	3.444	67.94	-0.2442	0.0223	0.2665	1009.214	0.152159	-381.11767	-381.108099	-381.107155	-381.151556	34.228	
C	-0.0067937339	 1.4632178381	-0.1166597431	-0.336283
N	 0.0333566863	 0.0093991925	 0.028987639	-0.308731
C	 0.6672924605	-0.510967231	 1.243279283	 0.075832
C	 0.0278597131	-0.0672913802	 2.5777237734	-0.414073
C	 0.6445492676	-2.0647565545	 1.1319529651	-0.086255
O	 1.3027143564	-2.7093913983	 2.1959967628	-0.414457
C	 2.091565964	-0.1137376049	 1.2392050953	 0.295448
N	 3.2182202965	 0.1432140323	 1.2712584681	-0.351209
H	 1.0153498713	 1.8523767818	-0.1487691315	 0.15024
H	-0.4830810913	 1.7032494271	-1.0710211271	 0.128946
H	-0.5497205482	 1.9942737125	 0.680489638	 0.106258
H	-0.9082171741	-0.3672808356	-0.0174036347	 0.224033
H	-1.0387739091	-0.3158317347	 2.5611195739	 0.115128
H	 0.4928382817	-0.5987425674	 3.4105048604	 0.149854
H	 0.1339376074	 1.0069994836	 2.7412225463	 0.133173
H	-0.4019014167	-2.3879715928	 1.1748747315	 0.111139
H	 1.0492917992	-2.3417176707	 0.1504986484	 0.120465
H	 2.2493800693	-2.552706728	 2.1006386511	 0.300492
