12
gdb 25242	3.50487	1.67462	1.14136	5.3596	60.84	-0.2744	-0.0395	0.2349	948.7148	0.080147	-472.671149	-472.665018	-472.664073	-472.701892	23.028	
O	-0.0681251405	-0.032530552	 0.0052306261	-0.322869
C	 0.0522296006	 1.1531829913	 0.0084023625	 0.415057
O	-1.0620689052	 2.0030565145	 0.0287573341	-0.257607
C	-0.7096006994	 3.4000514909	 0.0302726685	-0.189995
C	 0.7723077597	 3.3246394478	 0.0088879987	 0.30308
C	 1.2128811566	 2.0556574536	-0.0033746622	 0.047284
N	 2.6009639943	 2.0412595674	-0.0227877235	-0.323209
C	 2.8983874059	 3.2979375792	-0.0205783915	 0.043849
O	 1.8196857511	 4.1680141407	-0.0021565679	-0.192292
H	-1.146774219	 3.8814283598	-0.8517588848	 0.153753
H	-1.1214524458	 3.873148718	 0.9288186494	 0.153771
H	 3.8713980718	 3.7628717589	-0.0318907093	 0.169178
