20
gdb 94906	2.08919	1.72294	1.40609	1.2745	84.42	-0.2241	0.0323	0.2565	1060.5274	0.171249	-365.967098	-365.958587	-365.957642	-365.999727	33.561	
C	-0.2835783343	 1.5118419095	-0.0422755179	-0.404976
C	-0.0739529665	 0.0026892153	 0.0148727445	 0.076877
C	 0.5067713468	-0.6456629307	-1.2673958533	-0.249328
C	 1.2941658809	-1.8717129943	-0.7515116592	-0.239094
C	 1.5891783016	-1.545880594	 0.7067268205	-0.030566
C	 2.2502260549	-0.2393894511	 1.0328699278	-0.20272
C	 2.9372972058	 0.5594721568	 0.0560472778	 0.354125
C	 3.5919365031	 1.2347267022	-0.695959164	-0.471441
N	 0.7764711206	-0.4132270201	 1.1572112113	-0.127047
H	 0.6550160979	 2.0353649517	-0.2413327082	 0.132618
H	-0.9916927583	 1.7660130894	-0.8375873636	 0.11159
H	-0.6891311347	 1.8784968762	 0.9050881679	 0.122297
H	-1.0409705714	-0.4705286975	 0.2312779867	 0.082413
H	-0.2842782531	-0.9277387588	-1.9675351196	 0.096039
H	 1.1697778295	 0.0502519872	-1.7836840274	 0.121543
H	 0.6848410115	-2.7807421618	-0.791950286	 0.105968
H	 2.2025690044	-2.0617106462	-1.3308115514	 0.113857
H	 1.7173397875	-2.3701424741	 1.4042469087	 0.091912
H	 2.7066312583	-0.1653290126	 2.0182550535	 0.117359
H	 4.1525744455	 1.8337104429	-1.3702476682	 0.198574
