17
gdb 34009	3.58895	1.33536	1.1131	1.8975	80.6	-0.2419	-0.0111	0.2308	1105.8506	0.135792	-384.652158	-384.644363	-384.643419	-384.684158	30.801	
C	 0.0159123206	-1.1907539996	 0.036222944	-0.374402
C	 0.0307943811	 0.0111012196	 0.0298661724	 0.232362
C	 0.0156326726	 1.4517018562	 0.0500440132	 0.173395
O	 0.5077478221	 2.0893035854	-1.168274783	-0.290524
C	 1.295112396	 2.2055300228	 0.0084261623	-0.001332
C	 1.3628475485	 3.5573027687	 0.6802752942	-0.251664
C	 0.0158770538	 4.3057176789	 0.6369091857	-0.268859
C	-1.1465693516	 3.4129861391	 0.9802574376	-0.0798
C	-1.1514623385	 2.1081185306	 0.7063060553	-0.096569
H	 0.0131751771	-2.2526520785	 0.0331534465	 0.194671
H	 2.2186001601	 1.625779119	-0.0057016029	 0.099145
H	 1.6699191906	 3.3914529061	 1.7211144002	 0.114297
H	 2.145557381	 4.1654580864	 0.213370146	 0.112911
H	 0.0499010267	 5.1665929988	 1.3123850623	 0.104544
H	-0.1339642015	 4.7118395876	-0.3712937349	 0.135381
H	-2.018121663	 3.8678629752	 1.4424901671	 0.098137
H	-2.0002352755	 1.4774966136	 0.9459498139	 0.098307
