19
gdb 40501	4.24868	1.22363	1.17102	0.3396	79.23	-0.2298	0.0764	0.3063	1116.6951	0.161488	-381.970604	-381.963337	-381.962392	-382.002683	28.999	
C	 0.0712720851	 1.512135606	-0.014986528	-0.238825
N	 1.2718525434	 0.6602159952	-0.0492139128	-0.319544
C	-0.0571855956	 0.033720821	 0.071018849	-0.160767
C	-0.3440374458	-0.6593839464	 1.34764644	 0.426284
C	 0.1245329143	-0.2909502058	 2.7557258161	-0.302146
C	-0.4492044925	-1.6680080966	 3.1848973136	-0.090805
C	-1.95016527	-1.4949521048	 2.9020682914	-0.144824
N	-1.6542375005	-1.4110018069	 1.433032152	-0.196973
C	-0.3566514495	-2.1088213987	 1.6728732721	-0.108143
H	-0.0286497158	 2.1175225724	 0.8814553254	 0.118437
H	-0.2586110456	 1.9994124031	-0.9286482707	 0.113091
H	 1.6132312586	 0.5731620899	-1.0024239609	 0.233421
H	-0.46753441	-0.4693368403	-0.8017394324	 0.089042
H	 1.2153102619	-0.2624636166	 2.7878231689	 0.123476
H	-0.2897390172	 0.6006491549	 3.2405664719	 0.089193
H	-0.065833965	-2.1903187213	 4.0592515474	 0.073569
H	-2.5384859694	-2.3991036739	 3.079747696	 0.107159
H	-2.464025722	-0.6257792466	 3.3307660866	 0.094224
H	-0.0301766544	-2.9960863147	 1.1458028945	 0.094131
