22
gdb 64218	2.58203	1.28047	1.08469	0.4676	82.97	-0.2291	0.079	0.308	1239.0239	0.192911	-404.308653	-404.299202	-404.298258	-404.34274	36.365	
C	-0.1473687948	 1.5349908128	 0.0723928425	-0.438333
C	 0.001515805	 0.0188549921	 0.0388334088	 0.37883
O	-1.2604112976	-0.6202129178	-0.0530382896	-0.481045
C	 1.11589888	-0.4734624496	-0.9392850876	-0.279586
C	 2.0789301559	-0.5839535162	 0.2743298407	-0.260587
C	 0.8404754948	-0.5736279902	 1.2037160266	 0.054056
N	 0.9273561332	 0.1883919215	 2.4310651328	-0.073762
C	-0.0849122369	-0.1180919564	 3.4428840953	-0.223356
C	 1.3226903612	-0.5628258032	 3.6218358162	-0.228403
H	 0.8160947819	 2.0316008245	 0.2115377389	 0.128271
H	-0.5761818755	 1.8902562387	-0.873733408	 0.097119
H	-0.8044428003	 1.8388131513	 0.8914227074	 0.12696
H	-1.7784618735	-0.1694200166	-0.7286183826	 0.272485
H	 0.8540238362	-1.4514498783	-1.3500941176	 0.104639
H	 1.4015592437	 0.1963508594	-1.7544135162	 0.091451
H	 2.7354997598	-1.4543269215	 0.3248945845	 0.097207
H	 2.6767547443	 0.3201404437	 0.4136899654	 0.110461
H	 0.4849155384	-1.6043716776	 1.3722499089	 0.063086
H	-0.4668471328	 0.7336975508	 3.9981840967	 0.113158
H	-0.8266113675	-0.876813114	 3.2018818529	 0.123148
H	 1.5286825059	-1.6258011008	 3.5070975376	 0.109887
H	 1.9831066486	-0.0428593925	 4.3097478362	 0.114313
