22
gdb 11617	5.05835	0.83612	0.75884	1.684	79.18	-0.2619	0.0848	0.3468	1555.373	0.198549	-350.193682	-350.184013	-350.183069	-350.228843	34.824	
C	-0.2470812369	 1.5662005338	 0.0586638999	-0.381449
C	 0.0281084263	 0.0568376549	-0.0016444866	 0.039975
C	-1.2852655601	-0.7332382735	 0.0789121143	-0.38904
C	 0.8217881534	-0.3489419044	-1.2563014907	-0.159897
C	 2.24247216	 0.2279210663	-1.3414961987	-0.233742
C	 2.992023959	-0.2901914759	-2.5445445221	 0.102865
C	 4.4282246514	-0.5904089189	-2.5170079654	-0.181966
O	 3.4611258864	-1.6413849053	-2.4732813169	-0.237623
H	 0.6749400956	 2.1548384008	 0.0767016433	 0.111897
H	-0.8334589145	 1.8901426102	-0.8101299509	 0.109798
H	-0.818330136	 1.8241229102	 0.9566247339	 0.110247
H	 0.6351014024	-0.2111993028	 0.8757945335	 0.071084
H	-1.9327097784	-0.5043756248	-0.7762730154	 0.110662
H	-1.1025447242	-1.8128567684	 0.077325954	 0.111785
H	-1.841638683	-0.4870279756	 0.9894277864	 0.10803
H	 0.8996871241	-1.4424821267	-1.2902705709	 0.110015
H	 0.2537915508	-0.0537910203	-2.1507790661	 0.087507
H	 2.2142022929	 1.3234281776	-1.3959156328	 0.100687
H	 2.8041761126	-0.034482026	-0.4364079836	 0.099498
H	 2.5522036472	-0.0350725768	-3.511633657	 0.087612
H	 5.0164148867	-0.5321625792	-3.4321275973	 0.111733
H	 4.9899281143	-0.4342536651	-1.5964040408	 0.110321
