17
gdb 70671	2.53479	1.66037	1.22198	1.7059	67.88	-0.2538	-0.0391	0.2146	1027.5705	0.134844	-458.9541	-458.945966	-458.945022	-458.986929	30.723	
O	 0.3944248202	 0.9830979105	-0.3694610094	-0.475976
C	-0.0163017329	-0.3050640024	-0.0750106273	 0.408087
C	-0.7312800274	-1.1700616677	-1.083574303	-0.35118
C	-1.4503705206	-0.6753228442	 0.1576447112	-0.124636
C	-1.440761288	-1.6243062558	 1.3439867648	-0.096898
O	-0.0869074544	-2.0879475568	 1.4599502708	-0.275258
C	 0.7634726878	-1.0532627325	 1.0047763165	-0.02937
C	 2.0655591841	-1.6272861576	 0.4893514569	 0.125909
O	 2.8285646709	-0.9686667457	-0.1755042877	-0.256197
H	 1.290241521	 0.9064298601	-0.7251719423	 0.294554
H	-0.9905174603	-0.678132364	-2.0138553874	 0.123716
H	-0.488826941	-2.2253317705	-1.1650974826	 0.119099
H	-2.2423385769	 0.0574365407	 0.0639348112	 0.107802
H	-1.7480631564	-1.0969603115	 2.2596404121	 0.104528
H	-2.0710203811	-2.5103636201	 1.2218689621	 0.116539
H	 1.0058136062	-0.3286447741	 1.8038023268	 0.105974
H	 2.2675074388	-2.6877166487	 0.7494306972	 0.103307
