16
gdb 124730	4.16694	0.99734	0.94837	3.5992	66.6	-0.256	-0.0163	0.2397	1269.1751	0.1247	-471.205099	-471.196469	-471.195525	-471.238998	31.379	
C	-0.160175995	 1.4471536107	 0.0541291595	-0.402191
C	-0.0306310956	-0.0902989907	 0.0232469023	-0.082084
N	 0.6444866017	-0.6378096938	-1.1587078348	-0.517279
C	 0.6850545643	-0.5730214162	 1.2493954932	 0.489664
N	 0.1917210879	-1.1491654496	 2.3050723214	-0.40564
C	 1.3140574102	-1.3124439729	 3.0809712963	 0.432726
O	 1.2693014632	-1.8817509886	 4.2839677321	-0.399501
N	 2.4357483713	-0.87685993	 2.5674454033	-0.200662
O	 2.0019585074	-0.3696753102	 1.3221232472	-0.216763
H	 0.8280714754	 1.9172913784	 0.0441385155	 0.133648
H	-0.7146249218	 1.7866666499	-0.8262470786	 0.118563
H	-0.6950576638	 1.786879225	 0.9468821737	 0.132524
H	-1.0305326847	-0.532119712	 0.07195175	 0.121494
H	 0.1620620971	-0.3206841912	-1.99451872	 0.233442
H	 1.5907221914	-0.2700712973	-1.2133303419	 0.24196
H	 0.3507431809	-2.1304894518	 4.4447421808	 0.320099
