14
gdb 27066	3.42741	1.13317	0.86306	3.9955	66.88	-0.2395	-0.0147	0.2247	1248.0499	0.100176	-473.87719	-473.868991	-473.868047	-473.911097	28.157	
C	 0.0771897282	 1.4890655336	 0.0751200204	-0.50268
C	-0.036884828	 0.014094669	 0.0190878536	 0.230198
C	-1.0538089097	-0.8615510904	-0.1849686019	 0.279754
O	-2.3479127786	-0.5232076882	-0.4493533718	-0.227164
C	-3.342324063	-1.3959177636	-0.0944241732	 0.154013
O	-4.4823248578	-1.1555114041	-0.3383519982	-0.258381
N	-0.6011250966	-2.1642074175	-0.1444265701	-0.328505
C	 0.6663553255	-2.0333085352	 0.0853413532	 0.077065
O	 1.0895783565	-0.7590676537	 0.1905663084	-0.170705
H	 0.7440264939	 1.8727035804	-0.7048926644	 0.148266
H	-0.9120947592	 1.9273569783	-0.0727428184	 0.159287
H	 0.4653756116	 1.8272790213	 1.0420477994	 0.146862
H	-2.9570424122	-2.2920114549	 0.4116482325	 0.129982
H	 1.4073068794	-2.8090378852	 0.1938268406	 0.162009
