20
gdb 108652	1.94073	1.69208	0.97768	3.3813	85.69	-0.2347	-0.0179	0.2169	1255.2402	0.170844	-403.194651	-403.185282	-403.184338	-403.228975	34.34	
C	-0.2243666383	 1.6071954359	-0.0621326313	-0.376453
C	 0.0150682173	 0.0886117038	 0.0195047464	-0.295824
C	 0.75517254	-0.4468481051	-1.1672061787	 0.15243
C	 2.0226729918	-0.8704219414	-1.2876678537	 0.170698
C	 3.1099219341	-0.9537232532	-0.268988677	-0.500946
C	 2.2511734553	-1.2996689842	-2.7123210053	-0.17351
O	 1.0087962259	-1.0814412943	-3.3805193177	-0.248773
C	 0.1006629868	-0.5794231509	-2.4822662113	 0.357648
N	-1.1028430908	-0.2887665993	-2.7550913782	-0.554226
H	 0.723241836	 2.1545971595	-0.0952274531	 0.108721
H	-0.7963328328	 1.8509656094	-0.9602256466	 0.150809
H	-0.7867879206	 1.9540021999	 0.810109122	 0.111116
H	 0.5575542893	-0.1550483921	 0.939177956	 0.095131
H	-0.9557567041	-0.4166675378	 0.0729592136	 0.128307
H	 3.4865000437	-1.9801335099	-0.1759876636	 0.135419
H	 3.9668771914	-0.3308579613	-0.5552380862	 0.136569
H	 2.7705150848	-0.6263122202	 0.7159148101	 0.138812
H	 3.0368282881	-0.714478228	-3.2107361407	 0.121953
H	 2.5241713787	-2.3611060731	-2.796106309	 0.121958
H	-1.3074458868	-0.4820524076	-3.7361363956	 0.220163
