17
gdb 78439	3.20008	1.43814	1.24516	3.122	71.49	-0.247	-0.0074	0.2396	1046.2887	0.136143	-421.78792	-421.780615	-421.77967	-421.819492	28.951	
C	-0.0422953303	 1.4861212735	 0.0072365158	-0.433464
C	 0.0010031339	-0.0264344058	 0.0113381128	-0.032546
C	 1.3162718734	-0.7206023923	-0.2647573742	-0.066985
C	 0.7165636583	-0.733954758	 1.1406814378	-0.066983
C	 0.4988692444	-2.2425449025	 1.2984853707	-0.054114
O	 1.7254337421	-2.8263143952	 0.7205643749	-0.292245
C	 1.2899058596	-2.2249333256	-0.5553267113	-0.054114
C	-0.1031928592	-2.6818416033	-0.0583526903	 0.430835
O	-1.0289784385	-3.3130399375	-0.4593877742	-0.328517
H	 0.884376987	 1.9109216759	 0.4066517012	 0.119844
H	-0.1763325447	 1.8712740491	-1.0087797694	 0.127617
H	-0.8711097988	 1.8558014699	 0.6196100114	 0.127617
H	-0.9004258005	-0.4943949361	-0.3777530489	 0.112493
H	 2.196639754	-0.1408562041	-0.5154296539	 0.102687
H	 1.1408074162	-0.1643654865	 1.9589572076	 0.102687
H	 0.2229353671	-2.6622049185	 2.2631059256	 0.102593
H	 1.798216626	-2.6271317132	-1.4285983559	 0.102593
