21
gdb 119426	2.84111	1.14182	0.96692	1.4613	80.02	-0.2256	0.0684	0.294	1327.708	0.180393	-424.174549	-424.164836	-424.163892	-424.209467	35.341	
C	-0.7999075326	 1.2612608712	 0.5155480972	-0.221209
O	-1.0154009934	-0.1292297208	 0.5743644927	-0.236445
C	-0.6787748459	-0.7873890344	-0.6272020928	-0.175841
C	-0.937390054	-2.2523613235	-0.4499688253	 0.420868
C	-0.7688119383	-3.0567544364	 0.8002292763	-0.380943
C	-2.1051750011	-3.0637359878	 0.0676809662	 0.21457
C	-3.4118464455	-2.6761175469	 0.6942660878	-0.496171
C	-1.9244858663	-3.8705830305	-1.2172234416	-0.127864
O	-0.7627401733	-3.0830921039	-1.6042139404	-0.338324
H	-1.0862174758	 1.6769720116	 1.4844625752	 0.128583
H	 0.2573186033	 1.5009898105	 0.3224230545	 0.108365
H	-1.4085448916	 1.7354211613	-0.2701603296	 0.107255
H	-1.2759081032	-0.4016910732	-1.4706326057	 0.09575
H	 0.3836706913	-0.6246595994	-0.8824628726	 0.098914
H	-0.11914749	-3.9288008951	 0.7917042256	 0.104024
H	-0.7712581831	-2.4796658884	 1.7188060375	 0.126868
H	-3.2752793337	-1.8213133306	 1.3622998476	 0.137075
H	-4.1495652219	-2.3921094893	-0.0651340478	 0.114073
H	-3.8376395699	-3.499483417	 1.2805129483	 0.117656
H	-1.6912135256	-4.9388281612	-1.1290415564	 0.100438
H	-2.7386363895	-3.7290097362	-1.9387452466	 0.102358
