13
gdb 128956	7.83856	0.7951	0.72514	3.8482	64.9	-0.2569	-0.0175	0.2394	1416.632	0.090971	-448.922156	-448.91448	-448.913535	-448.955552	26.573	
N	-0.050738899	-1.0919088637	-0.0044791741	-0.285293
C	-0.0069494158	 0.0613672362	 0.0023590787	 0.277455
C	-0.004436376	 1.523967383	 0.0116633601	-0.211396
O	 1.348710521	 1.9663050187	-0.0010653399	-0.259975
C	 1.5017033856	 3.3024343768	 0.0057031577	 0.402952
N	 0.4924831469	 4.166301385	 0.0228554648	-0.2996
N	 1.1260562699	 5.3428592409	 0.0230836365	-0.083653
N	 2.4464821482	 5.3028906837	 0.0076020595	-0.178731
C	 2.7240938149	 4.0002639045	-0.003918346	-0.140368
H	-0.545363021	 1.9033720184	-0.8637089894	 0.169513
H	-0.5250489861	 1.892093067	 0.9040039032	 0.169515
H	 0.6193898195	 6.2123219236	 0.0344760169	 0.298235
H	 3.734435432	 3.6287096759	-0.0179299479	 0.141346
