15
gdb 16825	3.5794	2.08926	1.51978	5.0902	61.06	-0.2512	0.0013	0.2525	828.6289	0.120126	-399.817047	-399.810303	-399.809358	-399.847908	25.687	
C	 0.1531647418	 1.5210959116	-0.0664740808	-0.401664
C	-0.0167111181	 0.0189052377	 0.0806942526	 0.130701
O	 0.5185843804	-0.6427230936	-1.0929107483	-0.244955
C	 1.2999797227	-1.7146898754	-0.7801096119	 0.486348
O	 1.6881927052	-2.4971430519	-1.5972018865	-0.345865
C	 1.5323790527	-1.7148322894	 0.7056372907	-0.201982
N	 2.1735265903	-0.4402218654	 1.1365128032	-0.326355
C	 0.7198281376	-0.6099186066	 1.256198976	-0.068519
H	 1.2149009029	 1.7757643479	-0.0771251847	 0.150403
H	-0.308539407	 1.8667882827	-0.9945342187	 0.134879
H	-0.3282117366	 2.0362836858	 0.7711045573	 0.116668
H	-1.0801629277	-0.2460160998	 0.136288433	 0.096256
H	 1.7582005556	-2.6448438873	 1.2101263085	 0.122048
H	 2.607055544	-0.5981428869	 2.0439870378	 0.244508
H	 0.2467362061	-0.6535276295	 2.2304470917	 0.107529
