18
gdb 81823	2.13846	1.65956	1.15542	4.8199	75.89	-0.2578	0.0257	0.2835	1104.3154	0.146994	-401.934053	-401.925361	-401.924417	-401.96715	33.052	
C	-0.1374955372	 1.588036612	-0.0876164597	-0.411085
C	 0.0330416069	 0.0756229031	-0.0677732165	 0.011506
C	 0.6858693633	-0.6248210088	-1.26709153	-0.157642
C	 2.1475658645	-0.2373076254	-1.3877422865	-0.321391
C	 1.7590276472	-1.242574406	-0.3632211044	 0.419167
O	 2.3598443807	-2.4796767268	-0.3490961644	-0.450464
C	 1.1399988436	-0.564235493	 0.8782402101	-0.269044
C	 1.9912370162	 0.3258196605	 1.6535356686	 0.286203
N	 2.6660908357	 1.0554398955	 2.2453331765	-0.339224
H	 0.7986429996	 2.1051232849	-0.3148211313	 0.134838
H	-0.8724745369	 1.8722959267	-0.8476913569	 0.12044
H	-0.4917400203	 1.9571511236	 0.8799336051	 0.12967
H	-0.924390216	-0.3957950058	 0.1720110235	 0.086857
H	 0.1492890324	-1.0629641091	-2.0996614642	 0.097415
H	 2.6508714129	-0.6767450435	-2.2424057897	 0.130189
H	 2.5071303087	 0.7503273029	-1.1125370369	 0.129472
H	 1.7283979496	-3.1307725281	-0.0221230425	 0.287937
H	 0.6872236891	-1.2974875526	 1.5521208191	 0.115155
