20
gdb 113754	2.38817	1.01955	0.79896	3.8765	76.1	-0.2517	-0.027	0.2247	1464.0869	0.168746	-440.260339	-440.249999	-440.249055	-440.298116	36.028	
C	 0.4291923716	 1.3852927757	 0.1649678263	-0.418312
C	-0.1346644531	-0.0410376968	 0.0422548039	-0.067598
C	-1.6521520004	-0.0090766497	 0.046728368	 0.16777
O	-2.3540421277	-0.5839104903	 0.8372394765	-0.247213
C	 0.3512742464	-0.6928404744	-1.2452962763	-0.035632
N	 1.6954269482	-1.29140702	-1.2176615885	-0.353501
C	 0.519156966	-2.1570454684	-1.4541627431	-0.039548
C	 0.2906718235	-3.2223139501	-0.4053998594	-0.072762
O	 1.295967056	-4.2193331937	-0.481213697	-0.420413
H	 1.5208662809	 1.3545713346	 0.1127784638	 0.140118
H	 0.0676866984	 2.0268709532	-0.6471758286	 0.118105
H	 0.1406595999	 1.8461864828	 1.1139339778	 0.130198
H	 0.1843093672	-0.6378929859	 0.899021531	 0.105496
H	-2.0976571574	 0.6114337638	-0.7687040944	 0.068536
H	 0.0887430686	-0.1251105809	-2.1391989391	 0.08779
H	 2.1878924135	-1.1077480967	-2.0871797967	 0.237021
H	 0.3767517587	-2.5123094926	-2.4737089737	 0.09358
H	 0.2454681225	-2.7769458238	 0.5969488607	 0.100594
H	-0.6632838238	-3.728540363	-0.5846230182	 0.116863
H	 2.135320421	-3.7586535838	-0.3650566428	 0.288908
