15
gdb 52209	4.08772	0.78348	0.73509	2.5341	68.29	-0.267	-0.0134	0.2535	1488.2911	0.111811	-453.951657	-453.942738	-453.941793	-453.987492	30.4	
O	-0.2381876143	 1.0395481645	-0.9347450641	-0.318618
C	 0.0288419632	 1.4938875109	 0.1566837217	 0.157065
N	 1.241207463	 1.3830020996	 0.76902026	-0.271919
C	 2.3682978832	 0.7203832903	 0.1385744715	-0.212558
C	 3.3247223352	 1.7167634671	-0.4754625841	 0.070525
O	 4.1614449948	 2.4438597992	 0.4277801034	-0.234545
C	 4.7917188649	 1.5294504132	-0.4703686002	-0.100431
C	 5.4007178319	 0.3563974629	 0.1213053597	 0.304145
N	 5.899438432	-0.5815805525	 0.5765738493	-0.322111
H	-0.6996796611	 2.0450114367	 0.7818182841	 0.086495
H	 1.387932741	 1.8532372097	 1.6481414864	 0.262337
H	 2.8918591509	 0.0992988225	 0.8707066533	 0.139444
H	 1.9611213421	 0.0763273243	-0.6452226796	 0.162646
H	 2.9130870762	 2.321723088	-1.2834198157	 0.12964
H	 5.3832305272	 1.9870156037	-1.2609437457	 0.147885
