11
gdb 131418	3.17592	1.5452	1.03946	4.6426	56.7	-0.2763	-0.079	0.1973	1012.8392	0.064896	-525.808975	-525.801724	-525.80078	-525.841493	26.15	
O	-0.1393957043	 1.3368316688	-0.1985626968	-0.373479
C	 0.0570398388	 0.0285079805	-0.0649698806	 0.532509
N	 1.2027505349	-0.4343607332	 0.2536414366	-0.256969
O	 1.2997990577	-1.8444277105	 0.3687231413	-0.243189
C	 0.2402614969	-2.6688423396	 0.1543008679	 0.419584
O	 0.3761949805	-3.8485361596	 0.2644235398	-0.272797
C	-1.0726097428	-2.0199941379	-0.2182511321	 0.25942
N	-2.1010740084	-2.7024098862	-0.4336871258	-0.445572
O	-1.0833706609	-0.6340805306	-0.30991394	-0.206013
H	 0.7027673678	 1.7771156682	-0.0144830809	 0.333442
H	-2.8991673602	-2.1105429799	-0.6728362594	 0.253066
