19
gdb 101491	3.93818	0.94606	0.89722	2.3637	67.31	-0.256	0.0687	0.3247	1336.0931	0.15972	-497.28704	-497.278099	-497.277154	-497.321456	32.578	
O	 0.0187943747	 1.4318343244	-0.0867249629	-0.425757
C	 0.0625657443	 0.033064186	 0.094938213	-0.069444
C	-1.3466945905	-0.5618954286	-0.0006767503	 0.080034
O	-1.95960551	-0.1377111006	-1.2143482073	-0.445587
C	-1.3651035969	-2.0856585138	 0.097867889	 0.068125
C	-2.7841293781	-2.7205792181	 0.0377607072	-0.128456
O	-2.7751784063	-3.5139884178	-1.1455652685	-0.233031
C	-1.4257810196	-3.7821856209	-1.4068876659	 0.016758
O	-0.7164764295	-2.6091883243	-1.0692078601	-0.270903
H	-0.5758021832	 1.5717166893	-0.8353290463	 0.28649
H	 0.711638986	-0.457096744	-0.6488149765	 0.096316
H	 0.4893877168	-0.1565828844	 1.0865758427	 0.102168
H	-1.9573940859	-0.143027508	 0.8083653532	 0.09701
H	-1.6145924028	-0.727946981	-1.898774255	 0.290416
H	-0.8286015801	-2.4104183862	 1.0004255479	 0.084889
H	-2.9786688702	-3.3390959098	 0.9237092909	 0.10199
H	-3.5711237404	-1.9708710517	-0.0649714348	 0.134609
H	-1.0612916628	-4.6321416093	-0.8008263329	 0.088296
H	-1.2939097554	-3.9899840514	-2.4717787332	 0.126077
