15
gdb 28622	5.21211	1.01983	0.85337	6.7904	83.37	-0.2281	-0.0534	0.1747	1270.6549	0.114243	-416.876404	-416.868755	-416.867811	-416.908541	29.03	
N	-0.0043969365	 1.4049315026	 0.1425757334	-0.587665
C	 0.0260420606	 0.0301146716	 0.0561684008	 0.305004
C	-1.1755949156	-0.7173761988	 0.044305646	-0.05679
N	-1.2308282145	-2.0331569559	 0.0120382141	-0.283203
C	-0.0736664648	-2.7196983784	-0.0104240202	 0.189458
C	-0.1255116373	-4.2010655559	-0.0476882445	 0.103109
O	-1.1256740036	-4.8748224496	-0.0609849832	-0.262519
C	 1.1660164415	-2.0760941847	-0.003038325	-0.132626
C	 1.2241148559	-0.6920823649	 0.0290482387	-0.162792
H	 0.8209634539	 1.9037057809	-0.1505037846	 0.258606
H	-0.8649315978	 1.8590435706	-0.1215528699	 0.26114
H	-2.1274986159	-0.1860780238	 0.0632280896	 0.101245
H	 0.886738739	-4.6712867254	-0.0630838768	 0.057339
H	 2.0790776737	-2.6630396207	-0.0254102637	 0.110151
H	 2.1770736712	-0.1716747976	 0.0360772853	 0.099543
