15
gdb 63452	1.93072	1.80868	1.08004	4.7205	71.76	-0.3215	-0.0471	0.2744	1108.0441	0.109424	-416.811158	-416.801883	-416.800938	-416.845009	32.963	
C	-0.0602480993	 1.5346421312	 0.0070933118	-0.466001
C	-0.0729161592	 0.0245055377	 0.0452167264	 0.331923
C	-1.2535450705	-0.6513068393	-0.6116824765	-0.466003
O	 1.1950240235	-0.6075319643	-0.1672173962	-0.274723
C	 0.6586392897	-0.6884140423	 1.1530141589	 0.083284
C	 1.3567436315	 0.0684014567	 2.176974074	 0.266541
N	 1.8975281638	 0.678704221	 2.9950914516	-0.322406
C	 0.2256438319	-2.0036105764	 1.5904887523	 0.266544
N	-0.1344027997	-3.0435054677	 1.9415138615	-0.322408
H	 0.8238309806	 1.9455621617	 0.496299701	 0.161025
H	-0.0665689897	 1.8664049888	-1.0358588273	 0.145562
H	-0.953651819	 1.9352611838	 0.4949320795	 0.145036
H	-1.285868599	-0.3678138511	-1.6683012749	 0.145568
H	-1.1872300807	-1.7380829961	-0.5461538049	 0.161026
H	-2.1873800638	-0.3244542237	-0.1450228472	 0.145031
