14
gdb 124031	4.64547	1.21304	1.02703	3.0817	71.11	-0.2418	-0.0774	0.1645	1105.8411	0.102245	-432.844411	-432.837454	-432.83651	-432.876519	25.396	
C	 0.3907441297	 1.5167337097	 0.1544252739	-0.172093
O	 1.1246481207	 0.3838670223	-0.2877666808	-0.21698
C	-0.2386670348	 0.1851510919	 0.0919005878	 0.007359
C	-0.4792346527	-0.6184843303	 1.3227813795	 0.397491
N	-1.475350946	-1.5156281052	 1.2691759956	-0.277506
C	-1.6513849232	-2.2210477367	 2.3775542721	-0.009216
C	-0.8368028358	-2.0136383857	 3.4887166892	 0.01806
N	 0.1274250418	-1.093971862	 3.4800106661	-0.163264
N	 0.3089429994	-0.3816464659	 2.3783215677	-0.228628
H	 0.6821003426	 1.9055134435	 1.1272648695	 0.141573
H	 0.1432659997	 2.2497409616	-0.6121968772	 0.121137
H	-0.9203411001	-0.0534034821	-0.7212170948	 0.112309
H	-2.4489635877	-2.9603921606	 2.3841229028	 0.13447
H	-0.9524780135	-2.5797111505	 4.4069233486	 0.13529
