18
gdb 38114	3.00658	1.88856	1.35432	1.6776	81.51	-0.2182	0.0019	0.2201	955.5293	0.151137	-364.806168	-364.799578	-364.798634	-364.836819	27.731	
C	-0.0134447759	 1.5773588208	-0.2099306472	-0.293244
C	 1.4510683901	 1.9487802609	-0.0590463111	-0.078373
C	 2.1786344993	 0.9735657159	 0.4900898409	-0.163914
C	 1.3227936973	-0.1981093489	 0.7831452428	 0.352665
N	 1.7929705311	-1.548942349	 1.0538766935	-0.400448
C	 1.0250906177	-0.8411604558	 2.1102410616	-0.127719
C	-0.4591755365	-1.0084462557	 2.1401590552	-0.085464
C	-1.0364950409	-0.5375083028	 1.0270296817	-0.108845
C	-0.0214910374	 0.0431354989	 0.0715265235	-0.113562
H	-0.6242608445	 2.1186983187	 0.5238102767	 0.114197
H	-0.4148258988	 1.8292232148	-1.1977675437	 0.104056
H	 1.8284101603	 2.9248386887	-0.3421936829	 0.09606
H	 3.2340618697	 1.0095187192	 0.728879444	 0.103313
H	 1.2008305895	-2.2362582674	 0.5888825942	 0.223834
H	 1.5840903161	-0.6456889783	 3.0196247945	 0.09384
H	-0.980900548	-1.4708600419	 2.970951101	 0.099089
H	-2.0940313547	-0.6074860805	 0.7951759724	 0.097482
H	-0.0499754445	-0.4836674476	-0.8919810173	 0.087035
