18
gdb 53654	3.81506	0.61444	0.55486	4.6641	83.46	-0.257	0.0058	0.2628	1990.323	0.143862	-401.922927	-401.91202	-401.911075	-401.961614	36.141	
C	-0.0481536645	 1.4680141511	-0.0646131302	-0.499134
C	-0.0312777063	 0.0158113066	 0.0198807576	 0.139634
C	-0.0271358744	-1.1852997458	 0.0860482178	 0.007665
C	 0.0040181431	-2.6354771401	 0.1714870487	-0.220044
O	-1.3118551044	-3.1527814082	-0.0186616372	-0.250899
C	-1.3698375503	-4.567892454	-0.002166007	 0.006692
C	-1.4842157273	-5.140972326	 1.4180770706	-0.399641
C	-2.5335293297	-4.9638700412	-0.8152364657	 0.283889
N	-3.4413698502	-5.3109201533	-1.4387168338	-0.314836
H	 0.5674705451	 1.8262700293	-0.8966504519	 0.152471
H	-1.067779924	 1.8351426368	-0.2237394753	 0.158898
H	 0.3305133915	 1.9261446632	 0.8553846492	 0.151313
H	 0.6791346875	-3.0483612855	-0.5967430659	 0.123609
H	 0.4056623347	-2.9427778822	 1.1498260816	 0.122024
H	-0.4780376203	-4.9881054406	-0.4954064636	 0.116274
H	-2.3669897578	-4.731474633	 1.9138238334	 0.151483
H	-1.5677362694	-6.2306791498	 1.3857068803	 0.140723
H	-0.5972440232	-4.8811063672	 2.0012031913	 0.129881
