15
gdb 126485	1.94492	1.79808	0.99873	3.9385	74.88	-0.2751	-0.0592	0.2159	1151.1815	0.111277	-416.744459	-416.736105	-416.735161	-416.778024	30.22	
C	 0.1375672397	 1.509989755	 0.150039158	-0.386243
C	-0.0902964075	 0.0081959384	-0.0954750304	-0.313076
C	 0.6931506709	-0.5102440178	-1.2580050146	 0.220769
N	 0.1513810823	-0.8231534627	-2.4020114692	-0.129034
O	 1.1782565532	-1.238815534	-3.2110650928	-0.151638
N	 2.3733348753	-1.1885264651	-2.5708809743	-0.162343
C	 2.1082470081	-0.742282133	-1.3630870534	 0.17277
C	 3.0968432522	-0.5516707734	-0.3709559299	 0.293203
C	 3.9046311607	-0.3782663554	 0.5029067003	-0.419395
H	 1.1919760848	 1.7215597183	 0.3490371043	 0.135985
H	-0.1709737026	 2.0979774899	-0.7189157558	 0.135791
H	-0.4443551287	 1.843482524	 1.0136072227	 0.125851
H	 0.1958769809	-0.5568341333	 0.7987822288	 0.128142
H	-1.149016571	-0.190023478	-0.2821208716	 0.137204
H	 4.6301417717	-0.2300536528	 1.2650442381	 0.212014
