21
gdb 55291	2.53735	1.3985	1.00994	2.641	83.27	-0.2365	-0.0102	0.2263	1242.4423	0.180997	-387.08757	-387.07822	-387.077275	-387.122539	34.847	
C	 0.5078337929	 1.3781644243	-0.0109717162	-0.475088
C	-0.4742502	 0.2539777116	-0.2957425673	 0.361304
O	-1.5806320119	 0.2375090691	 0.1979959616	-0.304083
C	-0.0038170608	-0.8178807943	-1.2575244998	-0.154782
C	 1.4146521394	-1.453514868	-1.0996236496	-0.243988
C	 0.8016793846	-2.8249397315	-1.5045109868	-0.294467
C	-0.5916957248	-2.2391220154	-1.235087354	 0.362846
C	-1.5752915278	-2.8020995998	-0.2465214201	-0.318831
C	-1.9214139754	-2.7258660074	-1.7176342215	-0.33153
H	 0.9184935881	 1.7818154242	-0.9429790053	 0.133544
H	 0.0112168992	 2.1681351036	 0.5537739166	 0.140754
H	 1.3560609592	 0.9971696131	 0.568904575	 0.144209
H	-0.0963862414	-0.3827989497	-2.2642125629	 0.100344
H	 2.2151990987	-1.0533341808	-1.7249894188	 0.100725
H	 1.74634655	-1.4509997643	-0.0575849752	 0.108326
H	 0.9664645925	-3.0512451406	-2.5632577586	 0.101779
H	 1.0995519954	-3.6926699114	-0.9101921627	 0.101569
H	-1.3491496245	-3.7783950247	 0.1717266105	 0.101378
H	-2.07795813	-2.1161355404	 0.4219149503	 0.143508
H	-2.6530089249	-1.9829663916	-2.0189164508	 0.116928
H	-1.9502159887	-3.645953826	-2.2934323645	 0.105557
