18
gdb 63115	2.24818	1.67768	1.18634	4.0128	78.25	-0.2256	0.0117	0.2372	1082.3361	0.148134	-398.087982	-398.079146	-398.078202	-398.120963	33.661	
C	 0.0149233493	 1.5609984845	 0.0218070762	-0.441316
C	 0.0570490088	 0.0490271875	 0.0169905673	 0.27131
N	-1.1684387425	-0.5331815688	-0.4805460196	-0.571461
C	 1.3337344908	-0.7103495587	-0.2228175923	-0.113719
N	 2.4959028701	 0.0197072724	 0.302023686	-0.327072
C	 1.954370174	-0.0975576593	 1.6961386838	-0.238336
C	 0.6597375095	-0.7476119595	 1.1796614125	 0.118634
C	-0.0432428219	-1.7855392982	 1.8490201847	 0.202396
N	-0.6119883414	-2.644099515	 2.3813248291	-0.367929
H	 0.9876568146	 1.9902806437	 0.263840132	 0.143825
H	-0.2647184399	 1.917155062	-0.9763665439	 0.11698
H	-0.7396935472	 1.9195722792	 0.7266551857	 0.132795
H	-1.2371630156	-0.4006664219	-1.4851760126	 0.234241
H	-1.2290214106	-1.5288567858	-0.2939702136	 0.244851
H	 1.4159074342	-1.4997710465	-0.9621548116	 0.107633
H	 3.3470773844	-0.5225509081	 0.2047939369	 0.234573
H	 2.5238062125	-0.7934851165	 2.3169882722	 0.129746
H	 1.8539838609	 0.858082609	 2.2195410471	 0.12285
