17
gdb 33061	4.64429	0.79015	0.70697	3.504	71.56	-0.1911	0.0402	0.2313	1538.5696	0.136687	-455.199545	-455.190491	-455.189547	-455.234061	32.654	
O	-0.0865957205	 1.4571450777	-0.1088648107	-0.415971
C	 0.0342113268	 0.0459879351	-0.077761039	-0.063051
C	-1.3732217614	-0.5260631475	 0.1246293197	-0.304607
C	-1.4122648295	-2.0149761495	 0.1362843241	 0.315568
C	-1.6481885784	-2.8856010609	 1.1417856236	-0.190594
N	-1.5427064975	-4.175769864	 0.6240935744	-0.333638
C	-1.2485908281	-4.1513918821	-0.7331033318	 0.44021
O	-1.1046112835	-5.0855789016	-1.4965601776	-0.433242
N	-1.1594967843	-2.7893174382	-1.0021380696	-0.39837
H	 0.7912128099	 1.8346432647	-0.2161097235	 0.289798
H	 0.465669153	-0.3414162436	-1.0148458567	 0.086062
H	 0.6844635256	-0.2920286209	 0.7434885278	 0.096128
H	-1.7685468234	-0.1504361453	 1.0731589707	 0.124224
H	-2.0200308268	-0.1247370949	-0.666515259	 0.118921
H	-1.8765257116	-2.697157179	 2.1766909371	 0.136329
H	-1.6953267462	-5.0373153616	 1.116463383	 0.267766
H	-0.9909488442	-2.4477887583	-1.9318814425	 0.264468
