17
gdb 24210	4.08147	1.65353	1.43423	3.9934	77.41	-0.2036	0.0346	0.2382	922.5493	0.140638	-380.87	-380.863813	-380.862868	-380.9012	25.408	
C	-0.0411402342	 1.5768663059	-0.0573081283	-0.216473
C	 1.506736209	 1.3629423257	 0.0118527677	-0.026423
C	 1.1917437146	 0.1668490158	 0.9692675955	-0.216483
C	-0.0370738618	-0.0011705548	-0.0076830939	-0.168457
C	 0.7104756272	-0.2841337105	-1.2940657048	 0.394546
N	 0.739524193	-1.0372724509	-2.36346412	-0.403723
C	 1.8500366676	-0.5713503063	-3.0569963769	-0.108392
C	 2.4735816971	 0.4608904479	-2.3893935612	-0.16755
N	 1.7204775793	 0.6294104833	-1.2525703469	 0.041751
H	-0.4472550902	 2.0301198421	 0.8499815983	 0.108482
H	-0.4386881832	 2.0584792438	-0.9526408244	 0.11788
H	 2.229054334	 2.1477959642	 0.2223469881	 0.093398
H	 1.9229545032	-0.6424484685	 1.0137960392	 0.117883
H	 0.8982414454	 0.4912645619	 1.9703452571	 0.1085
H	-0.9155772233	-0.5893813249	 0.2394621157	 0.096421
H	 2.1377962334	-1.0076399853	-4.0014173573	 0.102758
H	 3.3424274888	 1.0541184005	-2.618717578	 0.12588
