18
gdb 47560	2.68913	1.64898	1.18752	3.6261	72.39	-0.2414	0.0279	0.2693	1047.7136	0.150016	-439.101155	-439.093611	-439.092667	-439.13313	29.787	
O	 0.0816645279	-0.1124788414	-0.1247689032	-0.368928
C	-0.0338242742	 1.0928861636	-0.0243109494	 0.394781
C	-1.3830460398	 1.8076716475	-0.0175447799	-0.340461
C	-1.7608043809	 2.3331641707	 1.380449897	-0.073026
O	-0.6738152198	 2.9272542851	 2.0844307434	-0.242186
C	 0.0437955712	 3.8546031738	 1.3446905892	 0.11688
C	 1.5130173764	 3.9014619039	 1.6115380536	-0.334897
C	 1.0094054633	 3.3307930864	 0.2965355573	-0.04133
N	 1.0558961362	 1.9196585263	 0.0962612902	-0.283545
H	-1.3700861995	 2.6288970871	-0.7411493538	 0.118214
H	-2.134589165	 1.0852794502	-0.340909209	 0.131312
H	-2.5958981052	 3.0443925052	 1.2928251206	 0.098185
H	-2.0851690137	 1.5059545937	 2.016907207	 0.129424
H	-0.4830897694	 4.7821396116	 1.1170696271	 0.091783
H	 2.0207940258	 4.8586997473	 1.5963685798	 0.121772
H	 1.8800741678	 3.1863428748	 2.3386412663	 0.136741
H	 1.1552714675	 3.9446324882	-0.5912832799	 0.099161
H	 1.9469348515	 1.4438006161	 0.1151659738	 0.246118
