13
gdb 42285	3.7221	1.18451	1.0109	2.5103	63.93	-0.2782	-0.1004	0.1779	1109.9156	0.089285	-452.764714	-452.756873	-452.755929	-452.798464	26.817	
O	 0.1705391223	-0.1002216518	 0.1986364403	-0.246926
C	 0.0247562012	 1.08647709	 0.09320867	 0.286358
C	 1.1843696745	 1.9981394411	-0.0330594529	 0.217618
N	 2.0701764952	 2.7348973196	-0.1311786607	-0.286516
C	-1.3138412922	 1.8074274858	 0.0266945721	-0.029273
C	-1.6913148781	 2.2071235922	-1.4450907751	-0.206209
N	-2.8228717944	 1.3308950409	-1.7668263535	-0.242909
C	-3.0935170359	 0.6948381685	-0.7089561891	 0.128329
O	-2.3553334858	 0.911046618	 0.4158091172	-0.202729
H	-1.2973727598	 2.6645310931	 0.7062628064	 0.136048
H	-1.9920700347	 3.2562760241	-1.5160514158	 0.142881
H	-0.87031701	 2.0504962823	-2.1512090978	 0.142743
H	-3.8889433825	-0.0299244438	-0.5855043011	 0.160584
