16
gdb 108661	2.32396	1.58357	0.96468	5.8072	69.98	-0.2218	-0.0091	0.2128	1155.5611	0.125	-475.074326	-475.065744	-475.0648	-475.107692	31.545	
N	 0.1320170851	 1.359090876	 0.2240723021	-0.58413
C	 0.0094897815	 0.0108679399	 0.09064896	 0.245287
C	-1.0958338429	-0.7642059673	 0.1507835464	 0.02463
C	-2.5212697192	-0.3605836174	 0.3302175413	-0.207007
O	-2.6880314295	 0.9702700275	-0.172513539	-0.429638
C	-0.6909348707	-2.158507526	-0.0020101965	 0.406082
O	-1.3574490896	-3.1584648361	-0.0197440255	-0.371081
O	 0.6902526721	-2.2045456039	-0.1438246433	-0.242376
C	 1.2076752248	-0.8856010218	-0.0999993464	-0.160655
H	 0.9546619989	 1.8001282531	-0.155756633	 0.255511
H	-0.7323407373	 1.8726875333	 0.1172376992	 0.27466
H	-3.1638579162	-1.0743393146	-0.2038431115	 0.126758
H	-2.8075316399	-0.4038770216	 1.3937130499	 0.108095
H	-3.5736449193	 1.2652165685	 0.0577016711	 0.294392
H	 1.7409295017	-0.6684717707	-1.035504975	 0.125522
H	 1.9211552605	-0.7931074988	 0.7289498	 0.133949
