19
gdb 102153	2.30483	1.17182	0.89999	2.624	78.25	-0.2396	-0.0204	0.2192	1349.4596	0.154371	-422.998202	-422.987451	-422.986506	-423.034767	37.468	
C	 0.6889061069	 1.4460927714	-0.65739348	-0.246003
O	 0.0603939241	 0.1904910038	-0.4902138643	-0.227009
C	 0.2441048079	-0.3946796941	 0.771846123	 0.029403
C	-0.6521076795	-1.6584228646	 0.7540659173	-0.370287
C	-0.8448802696	-2.3036685677	 2.0440933851	 0.301229
C	-1.0221017879	-2.8345288666	 3.1082323071	-0.451725
C	 1.7204417896	-0.7811692875	 1.0323810334	 0.368301
C	 2.1724117911	-0.8164385336	 2.4764704763	-0.493646
O	 2.4558645973	-1.0312003717	 0.1074699121	-0.299742
H	 1.7819264748	 1.3634809364	-0.6322839499	 0.129717
H	 0.3852438478	 1.8213161936	-1.6370280293	 0.132992
H	 0.3627484518	 2.1630710933	 0.1123558141	 0.101525
H	-0.0988592689	 0.2819215699	 1.5728117935	 0.077321
H	-1.6190797082	-1.3387948899	 0.3498849786	 0.149324
H	-0.225484642	-2.3612734756	 0.0289531039	 0.15623
H	-1.1842693796	-3.313154524	 4.0422861246	 0.202102
H	 2.1512406255	 0.1989489796	 2.890891424	 0.139148
H	 1.4872765558	-1.4204012222	 3.0794580869	 0.159568
H	 3.1869494532	-1.2122760003	 2.5369448336	 0.141554
