21
gdb 106304	3.6154	1.16263	1.0961	1.1683	78.26	-0.2382	0.0631	0.3012	1209.8102	0.182124	-424.212827	-424.204099	-424.203155	-424.245767	34.568	
C	 0.0803197102	 1.5407233043	 0.0435243631	-0.382125
C	-0.0684905169	 0.0195193698	-0.0739020015	-0.282178
C	 0.7260088418	-0.5686060831	-1.210009997	 0.455093
C	 2.2755965304	-0.4978258031	-1.3482435747	-0.305344
C	 1.9789504683	-1.5487771888	-2.4465955407	 0.351354
O	 3.0191403764	-2.3169555827	-2.9550490937	-0.479171
C	 0.8453769586	-2.0867568482	-1.5089178051	-0.348485
C	 1.1419945596	-0.6929418288	-3.417063891	-0.132597
O	 0.2712028668	-0.0355224142	-2.482902716	-0.312577
H	 1.1184075512	 1.8219238318	 0.249642796	 0.115195
H	-0.2213833365	 2.0285958776	-0.8865460367	 0.137409
H	-0.5394061845	 1.9317818139	 0.855718032	 0.10907
H	 0.2472480107	-0.4673437509	 0.8560757339	 0.09744
H	-1.1231744841	-0.2418009911	-0.2250958476	 0.106317
H	 2.7173774937	 0.4540059085	-1.6512111846	 0.100591
H	 2.8030646482	-0.928016354	-0.4951713366	 0.104908
H	 2.6587449287	-2.9286302533	-3.6066958315	 0.282133
H	 1.24215882	-2.6644255841	-0.6724214454	 0.102629
H	-0.0231743996	-2.575672755	-1.9586299842	 0.091322
H	 1.7479836403	 0.0345014295	-3.9707230018	 0.102094
H	 0.5598581165	-1.2916183483	-4.131239077	 0.086922
