18
gdb 128137	1.91656	1.80824	0.99305	3.5274	75.94	-0.2039	0.0218	0.2257	1199.9653	0.147463	-435.258488	-435.249009	-435.248065	-435.292907	34.316	
C	 0.3662806727	 1.4117693704	 0.3900394919	-0.327852
N	-0.1847635054	 0.1829725525	-0.1917050195	-0.402543
C	 0.5789771146	-0.4025341131	-1.2305295903	-0.073556
C	 0.269018722	-0.3225268326	-2.5638514539	 0.469191
N	-0.7388913383	 0.3464507044	-3.208386717	-0.592949
O	 1.1661341344	-0.975820229	-3.3007913106	-0.225168
N	 2.1368272072	-1.5505780817	-2.4311808566	-0.239976
C	 1.7735436649	-1.1872320245	-1.223973748	 0.368602
C	 2.5818980228	-1.6311403003	-0.0467735851	-0.501567
H	 1.3615317793	 1.2900510679	 0.8457950472	 0.105895
H	 0.4484184388	 2.1723189774	-0.3916926696	 0.134082
H	-0.3196145862	 1.7849283801	 1.1570461201	 0.116119
H	-0.3883529604	-0.4882482529	 0.5400581229	 0.226074
H	-1.5085674969	 0.5592814638	-2.5872977309	 0.264759
H	-1.0292313558	-0.0640489941	-4.0846495398	 0.263598
H	 3.0163112776	-0.7750858237	 0.4801455235	 0.137233
H	 1.9628416405	-2.1782142411	 0.6728072845	 0.126994
H	 3.3920740681	-2.2850319634	-0.3751451387	 0.151066
