17
gdb 3509	6.05579	1.83003	1.77839	1.3371	64.79	-0.2617	0.076	0.3377	775.4136	0.149811	-309.655144	-309.648625	-309.647681	-309.685724	24.971	
O	-0.1134948304	 1.4754815543	-0.1906191438	-0.421635
C	 0.0485621132	 0.0854129769	 0.0736353809	-0.140225
C	-1.327642903	-0.5433901048	-0.0054647883	 0.088995
C	-2.0373425258	-0.8093267166	-1.3732465838	-0.035281
C	-1.0905905032	-2.02720276	-1.5858126767	-0.224245
C	-1.5287675219	-2.0898387589	-0.0917203596	-0.064903
C	-2.9705597226	-1.7822626497	-0.5942026631	-0.21652
H	 0.7456373286	 1.8984893234	-0.1034591428	 0.285451
H	 0.7526756625	-0.3689034335	-0.637066414	 0.085247
H	 0.4576565066	-0.0792500123	 1.0844805247	 0.082618
H	-1.9738682712	-0.0507633988	 0.7301362988	 0.068055
H	-2.3316997574	-0.0632827851	-2.1116836201	 0.074286
H	-1.4720120837	-2.8241031572	-2.2304042787	 0.087859
H	-0.0405641562	-1.8280945532	-1.8044166075	 0.090414
H	-1.2374140177	-2.8338777653	 0.6522890141	 0.065048
H	-3.657846419	-1.3330899693	 0.1281847402	 0.088447
H	-3.4576193889	-2.5658867799	-1.1806657903	 0.08639
