18
gdb 128466	3.84418	1.04525	0.86852	3.4115	74.26	-0.2478	0.003	0.2508	1330.5338	0.147729	-435.257307	-435.248332	-435.247387	-435.291947	31.945	
C	 0.0557797837	 1.3977425666	 0.0305311287	-0.234267
O	-0.1032137145	 0.0025690275	-0.0846084561	-0.250943
C	 0.6477016158	-0.5942433222	-1.1338780305	 0.029865
C	 2.141210734	-0.7113556829	-0.8077269855	-0.402126
C	 0.028387784	-1.9392190097	-1.3745206455	 0.308746
C	-1.0780447843	-2.5002906977	-0.7840485055	-0.159718
N	-1.1791352593	-3.7120243359	-1.3802526848	-0.160171
N	-0.2044413584	-3.9031443016	-2.2868011751	-0.113548
N	 0.5288772917	-2.8266461614	-2.2818220425	-0.269099
H	 1.0727206682	 1.6840072009	 0.3335248616	 0.111754
H	-0.1809137444	 1.91206445	-0.9140220597	 0.107039
H	-0.6422452658	 1.7367411168	 0.8000542541	 0.126824
H	 0.5349086456	 0.0134592674	-2.0483098377	 0.084336
H	 2.6447844802	-1.2660503756	-1.6031994518	 0.148408
H	 2.6093890598	 0.2731351979	-0.7218864043	 0.11106
H	 2.2761358809	-1.2511444974	 0.1340534165	 0.123426
H	-1.7569195898	-2.1474172827	-0.0289014645	 0.157013
H	-1.8585111475	-4.4399547498	-1.2274497576	 0.281401
