23
gdb 41490	3.05298	1.35977	0.99897	0.1856	91.87	-0.2132	0.0393	0.2525	1260.9782	0.209713	-351.206163	-351.198093	-351.197149	-351.238661	32.385	
C	 0.0918621981	 1.4474346928	-0.3551581764	-0.206495
C	 1.4375254934	 1.9558117314	 0.2238765804	-0.31185
C	 2.124113437	 0.6891282138	 0.6800690305	 0.254602
C	 1.2936592898	-0.3601099711	 0.6754805998	 0.250589
C	-0.0998165966	 0.0257684447	 0.2343492355	-0.311286
C	 1.6861054376	-1.7446306513	 1.1036514283	-0.313011
C	 3.2155393232	-1.8840528792	 1.2046265561	-0.194301
C	 3.8422447105	-0.6708346434	 1.9059769751	-0.193032
C	 3.5527629088	 0.6319617553	 1.1392755161	-0.314109
H	-0.7443856148	 2.1154739773	-0.1331871559	 0.09313
H	 0.167349656	 1.380539503	-1.4450465159	 0.101667
H	 2.0252433105	 2.5172762307	-0.5135074336	 0.094547
H	 1.2883696246	 2.6401285036	 1.0728025304	 0.096905
H	-0.7916969629	 0.0256710529	 1.0901845755	 0.097261
H	-0.524580492	-0.6754172114	-0.4949717215	 0.093121
H	 1.2195826239	-1.980671255	 2.0730155162	 0.100602
H	 1.2834934668	-2.487499373	 0.4016850606	 0.095619
H	 3.4765328667	-2.8081321694	 1.7317468722	 0.088576
H	 3.634891644	-1.9693058759	 0.1935825342	 0.095924
H	 3.4264751232	-0.5899024861	 2.9189162073	 0.095408
H	 4.9227069751	-0.8103855644	 2.0205526763	 0.088492
H	 4.2257261319	 0.7201087082	 0.2721955503	 0.10105
H	 3.7816506453	 1.5013338765	 1.7706533487	 0.096593
