23
gdb 122154	4.33637	0.62962	0.60811	1.756	82.87	-0.2507	0.0784	0.3291	1889.6677	0.203298	-425.406107	-425.395124	-425.39418	-425.442522	39.955	
C	-0.0332120552	 1.6916591589	 0.3070945507	-0.458976
C	-0.0799867147	 0.189435554	 0.0995143869	 0.340537
C	-1.4046206546	-0.3695103835	-0.4013641662	-0.27154
C	-1.7839017542	 0.0931537656	-1.8139879815	-0.163525
C	-3.0772092068	-0.5379069809	-2.3115740137	-0.073228
O	-3.3373914135	-0.0375735493	-3.6150578197	-0.422539
C	 1.1927431253	-0.4981888164	-0.3740200529	-0.364412
C	 0.7095083257	-0.6765470518	 1.0459680936	 0.056646
O	 1.3887615254	-0.0497697165	 2.0965715155	-0.423868
H	 0.8921191916	 1.9849208602	 0.8057165694	 0.128787
H	-0.1000484944	 2.2289513109	-0.644409929	 0.115495
H	-0.8675737811	 2.0217773009	 0.9371896058	 0.111821
H	-1.3589841979	-1.4667751425	-0.3858735319	 0.087361
H	-2.1997352788	-0.0873990625	 0.303602976	 0.095279
H	-1.9017848956	 1.1819049372	-1.8443758442	 0.109496
H	-0.9802691466	-0.1543516973	-2.5178891969	 0.106071
H	-2.9772194998	-1.6363125984	-2.3195407067	 0.080669
H	-3.900823702	-0.2938384433	-1.6199898346	 0.082597
H	-4.157426654	-0.4292254488	-3.9291058877	 0.284023
H	 1.117814703	-1.3351028398	-1.061443477	 0.10515
H	 2.068512134	 0.1272486614	-0.5153480033	 0.108568
H	 0.273558659	-1.6415336461	 1.3087768819	 0.078635
H	 2.2468194952	-0.476041332	 2.1892500256	 0.286955
