23
gdb 90930	2.80201	1.38781	1.36737	0.374	88.55	-0.2379	0.0862	0.3241	1133.906	0.207527	-351.15147	-351.143127	-351.142183	-351.183704	33.984	
C	-0.1504815344	 1.5805808984	 0.0093539013	-0.413201
C	 0.0455515795	 0.0650768441	-0.0025903487	 0.054534
C	 0.8728745516	-0.480759319	-1.2024258997	-0.252836
C	 1.5957687246	-1.696092571	-0.6242937506	-0.087746
C	 2.5863519606	-1.4830353411	 0.5169630198	-0.114849
C	 2.309081127	-0.1559146472	 1.2194519036	-0.238471
C	 0.7860309251	-0.5212054284	 1.2138172493	-0.100654
C	 1.1731670512	-1.9735212333	 0.7942714025	 0.35234
C	 0.6541194061	-3.2617778343	 1.3569983206	-0.51873
H	 0.8082874683	 2.1087254935	 0.0547702875	 0.115158
H	-0.6698460498	 1.9186941737	-0.8938673897	 0.111156
H	-0.7465693997	 1.8979963175	 0.8719802703	 0.108273
H	-0.9455893279	-0.4095694375	-0.0332137059	 0.065854
H	 0.2297268798	-0.7563291971	-2.0442592093	 0.092233
H	 1.5751715236	 0.2746778271	-1.5762591089	 0.093831
H	 1.8151762014	-2.5437571811	-1.2656608751	 0.07359
H	 3.5152122569	-2.0426894345	 0.5535850273	 0.072834
H	 2.7149587802	-0.1468357154	 2.2344965472	 0.096311
H	 2.6128131735	 0.7695430654	 0.7166268349	 0.086186
H	 0.2637272719	-0.3876658511	 2.1631002605	 0.057058
H	-0.4188762437	-3.3837511553	 1.1629601582	 0.115737
H	 1.1672754797	-4.119678036	 0.9088775077	 0.116818
H	 0.8011417543	-3.3192138573	 2.442134627	 0.114577
