25
gdb 92620	3.49773	1.1143	0.93926	0.2014	91.96	-0.2898	0.0751	0.3649	1372.5688	0.232708	-352.399339	-352.39081	-352.389866	-352.432558	34.494	
C	-0.2659526205	 1.5394161676	-0.0008836745	-0.405299
C	 0.0267928592	 0.0406585685	 0.0052118456	 0.052037
C	 0.9102951841	-0.4497641505	-1.1592369368	-0.233795
C	 1.3890415194	-1.8515476035	-0.7294692826	 0.028329
C	 2.8378119016	-2.254108016	-1.0820945333	-0.225129
C	 3.3220339907	-3.0498383584	 0.1433043701	-0.19601
C	 2.7233516401	-2.2693782147	 1.3273291706	-0.225291
C	 1.3147559027	-1.8599951167	 0.843766573	 0.028307
C	 0.799227699	-0.4617991148	 1.2412252693	-0.233621
H	 0.6635834028	 2.1195835259	 0.0451626555	 0.109517
H	-0.7997180566	 1.8393601025	-0.909253364	 0.109275
H	-0.8817217885	 1.8305401861	 0.8570673992	 0.10927
H	-0.9292422963	-0.5017377389	-0.0417099393	 0.066194
H	 0.3853882907	-0.4473065203	-2.1199965047	 0.088124
H	 1.7697233493	 0.2273712172	-1.2643940099	 0.086243
H	 0.7007808514	-2.6054793723	-1.1264666324	 0.063019
H	 2.9121389005	-2.8173553035	-2.017194892	 0.089434
H	 3.4571813279	-1.3553612569	-1.1997409915	 0.090386
H	 2.9100422476	-4.0669499161	 0.1172462575	 0.092909
H	 4.4113072911	-3.1436719074	 0.1944851511	 0.088891
H	 2.7081300212	-2.8449963307	 2.2577078589	 0.089444
H	 3.3289533345	-1.373243405	 1.5153698138	 0.090412
H	 0.5909250421	-2.6162829351	 1.1659746079	 0.063023
H	 1.645722793	 0.2131464585	 1.4312731891	 0.086222
H	 0.1883138129	-0.4677463557	 2.1497177094	 0.088111
