17
gdb 85750	3.14654	1.32909	1.12198	2.2132	74.28	-0.2559	0.0333	0.2891	1121.4413	0.134269	-421.771709	-421.763451	-421.762507	-421.804628	31.322	
C	 0.2911608271	 1.5448766688	-0.1563130927	-0.403516
C	 0.087509338	 0.0457841502	-0.0023708508	 0.114371
O	 0.6742899483	-0.6074906977	-1.1348610674	-0.28165
C	 1.1954527493	-1.8839739727	-0.7605055101	-0.076506
C	 2.3627628295	-2.207924052	-1.5723718347	 0.316539
C	 3.3216958309	-2.516729074	-2.225474023	-0.427006
C	 1.468830357	-1.7749518279	 0.7370678249	 0.00656
O	 2.1938005287	-0.5985179559	 1.0867630141	-0.240291
C	 0.7650974537	-0.5830389386	 1.2015914313	 0.008864
H	 1.358589913	 1.7763470598	-0.1316117509	 0.143643
H	-0.1212683063	 1.884983692	-1.1094994968	 0.131007
H	-0.2125590644	 2.085530592	 0.6512237008	 0.113334
H	-0.9891441015	-0.1906874038	 0.0528644555	 0.073364
H	 0.4308723796	-2.6682428507	-0.9017825906	 0.100837
H	 4.1740659118	-2.7747221359	-2.8041106919	 0.200377
H	 1.6522784744	-2.6657812002	 1.3302509581	 0.1139
H	 0.3574958509	-0.4678103634	 2.2021367541	 0.106176
