21
gdb 61527	3.25023	0.88479	0.87017	1.1835	84.94	-0.2557	0.0326	0.2883	1461.3112	0.179387	-387.040617	-387.030262	-387.029318	-387.076474	38.586	
C	 0.2376202287	 1.4131455131	-0.0586502192	-0.47419
C	 0.1009425162	-0.0981425661	-0.0358783288	 0.410106
C	-1.2398365065	-0.6462888337	-0.4991364866	-0.287657
C	-1.6293380054	-0.2529524636	-1.9424345089	-0.070437
O	-0.6299096535	-0.596721386	-2.8971973798	-0.411249
C	-2.9335891565	-0.822667394	-2.2976627466	 0.299759
C	-3.9826974206	-1.3385913224	-2.5788803867	-0.438574
C	 1.3363932136	-0.9175453068	-0.3138414213	-0.278528
C	 0.7835554625	-0.8457883203	 1.0889244692	-0.328267
H	 1.1933606322	 1.7240810852	 0.3740756546	 0.112797
H	 0.2002902692	 1.806659728	-1.0802760735	 0.128795
H	-0.5603198157	 1.8953591585	 0.5193319832	 0.111256
H	-1.238376721	-1.7413542205	-0.4298128368	 0.093732
H	-2.0398888312	-0.296994124	 0.167097677	 0.108106
H	-1.698273638	 0.8393237753	-2.0034285831	 0.120912
H	-0.6298565902	-1.5564323319	-2.984257156	 0.28336
H	-4.916003141	-1.7739301321	-2.8387491136	 0.197829
H	 1.2248302316	-1.8471885348	-0.8605580038	 0.098298
H	 2.2592004796	-0.3901264363	-0.5306362491	 0.109577
H	 1.3285302484	-0.2673853451	 1.8276180129	 0.108011
H	 0.2937751274	-1.7262512524	 1.492461887	 0.106363
