19
gdb 114430	3.82456	1.33117	1.19531	1.8913	73.97	-0.2174	0.0702	0.2876	1098.7107	0.159823	-422.979424	-422.971893	-422.970949	-423.011499	29.801	
C	 0.0431111813	 1.526199653	 0.0784423583	-0.383849
C	-0.0363939414	 0.0005545818	-0.022102301	-0.188527
C	 0.67127211	-0.5513484182	-1.2521391246	 0.147207
O	 2.0673249322	-0.1786308552	-1.2246540233	-0.279381
C	 2.8101089366	-1.2779678882	-1.6846925317	 0.076247
C	 2.649805172	-2.5963113746	-0.9429546565	 0.060882
O	 1.4549961759	-2.5563799705	-0.1639600615	-0.295282
C	 0.7294097617	-2.0746796901	-1.3429700894	 0.036067
C	 1.9424975781	-2.3621311708	-2.2567642426	-0.209921
H	 1.0846344436	 1.8542551065	 0.1246070584	 0.137048
H	-0.4227926838	 2.0077576622	-0.7889049264	 0.108593
H	-0.4701042238	 1.8860275207	 0.9752147337	 0.110001
H	 0.4099895027	-0.4683245057	 0.8597093324	 0.122632
H	-1.0862886508	-0.318347457	-0.0640941863	 0.089052
H	 0.2109815504	-0.1463105985	-2.1707024902	 0.065617
H	 3.7649468116	-1.0165998151	-2.1251047743	 0.108144
H	 3.4415683433	-3.270749695	-0.6371915789	 0.106567
H	-0.2168436507	-2.5961269682	-1.4914857923	 0.086858
H	 1.9741275409	-2.8287122869	-3.2314108536	 0.102047
