18
gdb 93258	2.80124	1.32001	0.94379	3.6498	69.51	-0.2634	0.0064	0.2698	1204.5018	0.148374	-476.232544	-476.224052	-476.223108	-476.265569	32.511	
O	-0.0440795891	 1.4213800842	-0.0161189567	-0.423414
C	-0.0062255119	 0.0041844547	-0.016269829	 0.078029
C	 0.7013545875	-0.4982303128	 1.2465157323	-0.102557
O	 0.6399966755	-1.9257085902	 1.4148769848	-0.249793
C	-0.5441701063	-2.5508360094	 1.1865915828	 0.368892
N	-0.9133900331	-3.5827572984	 1.8186278568	-0.532493
C	-1.4002564719	-2.0512796375	 0.0307497829	 0.07291
O	-2.6953487611	-2.5807250691	 0.0996253288	-0.441165
C	-1.4345130602	-0.522391369	-0.0242143575	-0.230955
H	 0.8449013166	 1.7522641834	-0.1803358883	 0.288522
H	 0.5256306006	-0.3751935123	-0.9032854779	 0.080148
H	 1.7680544169	-0.2573827105	 1.2337084579	 0.111744
H	 0.2456008951	-0.0097466136	 2.1174673312	 0.122413
H	-0.2509938042	-3.8357746096	 2.5515825864	 0.229533
H	-0.886964819	-2.4086076812	-0.8829792819	 0.092729
H	-2.6309140555	-3.3372200464	 0.7045755821	 0.29557
H	-1.9759198724	-0.1333058837	 0.8457942632	 0.118885
H	-1.9656969974	-0.1918498085	-0.9204385181	 0.121003
