18
gdb 56744	2.88976	1.3697	1.1155	4.7128	75.99	-0.2504	0.0325	0.2829	1126.1887	0.146965	-401.898162	-401.889772	-401.888828	-401.931532	31.555	
C	 0.1288535244	 1.5721485262	 0.0405123142	-0.396411
C	 0.0728994559	 0.0317306318	 0.0396308967	-0.291601
C	 0.7077959708	-0.5230845929	-1.1621648599	 0.282234
N	 1.1968269205	-0.9612951158	-2.1128161421	-0.326932
C	 0.7079899244	-0.5540744284	 1.286103074	 0.450753
C	 0.3297247646	-0.3244230674	 2.7752229029	-0.275694
C	 1.6818370683	-1.07054759	 2.6912780416	 0.049803
C	 1.098448457	-2.017677553	 1.6183586319	-0.268582
O	 2.0962150662	-0.1420260275	 1.6091963185	-0.338189
H	 1.164347796	 1.9103066399	 0.110373821	 0.161905
H	-0.3166662435	 1.9748062818	-0.8715328864	 0.137215
H	-0.4229812577	 1.9604953917	 0.9002022493	 0.128847
H	-0.9754874747	-0.2949955646	 0.0285912178	 0.135012
H	 0.3934994385	 0.7080301749	 3.1194378095	 0.1137
H	-0.5335246545	-0.8619254683	 3.1755293815	 0.100789
H	 2.4069061678	-1.2749567307	 3.476852025	 0.106605
H	 0.3040718068	-2.7068683636	 1.9149323079	 0.10021
H	 1.8286119194	-2.461499444	 0.9420897166	 0.130336
