18
gdb 74892	2.90851	1.52077	1.06736	3.1264	81.4	-0.226	-0.0447	0.1813	1124.5934	0.148379	-401.9606	-401.952452	-401.951507	-401.993733	30.751	
C	 0.0269769468	 1.5693526128	 0.1004402235	-0.478073
C	-0.0172615989	 0.067220508	 0.0677210953	 0.184909
C	-1.1349518341	-0.6263830186	-0.2347707277	-0.107376
N	-1.2944925877	-2.0020094668	-0.0782148705	-0.088525
C	-0.9690580428	-2.9116545972	-1.1859826756	-0.250854
C	-0.0949447173	-2.8282380909	 0.0270251429	-0.014949
C	 1.2703229834	-2.1564094559	 0.0147109006	-0.358592
C	 1.2373993	-0.6547032793	 0.3359030829	 0.308799
O	 2.2485805097	-0.0885585898	 0.7065721475	-0.327961
H	 0.8080550609	 1.9561898077	-0.561826339	 0.134871
H	-0.9336843916	 1.9996567924	-0.1957478411	 0.11245
H	 0.2709942586	 1.9290448544	 1.1057714517	 0.140796
H	-2.0413301819	-0.1165719263	-0.5578368335	 0.110769
H	-1.6430903913	-3.7526502917	-1.3191027649	 0.128412
H	-0.5955231809	-2.4604046864	-2.1022030348	 0.125639
H	-0.2114469035	-3.6261653543	 0.7565968018	 0.10895
H	 1.9374566409	-2.6295006561	 0.7388439664	 0.136133
H	 1.7624127098	-2.254088152	-0.9605845255	 0.134603
