16
gdb 12361	2.89723	2.22466	1.51643	2.5571	67.51	-0.2351	-0.0547	0.1804	851.2648	0.131726	-383.773664	-383.766418	-383.765474	-383.805239	27.435	
O	 0.1389254918	 1.3096758069	 0.0621097475	-0.43927
C	-0.0402150448	-0.1067953687	 0.0195465112	 0.036172
C	-1.5362484206	-0.3854775175	-0.0370608428	-0.234454
C	-2.1507076091	 0.0906747099	-1.3601215689	-0.253913
C	-1.3525251013	-0.3655157417	-2.5463599197	-0.036866
C	-0.0590761474	-0.7117478419	-2.4769763127	-0.145321
C	 0.7038863921	-0.6310427766	-1.2205036457	 0.353695
O	 1.8948797412	-0.8757673095	-1.1578297612	-0.347966
H	 1.0883201644	 1.4770313821	 0.0458541571	 0.294377
H	 0.4120653693	-0.581364643	 0.9012795607	 0.081739
H	-1.6868104611	-1.4666773008	 0.0655236416	 0.109517
H	-2.0262404777	 0.0967094882	 0.8144480454	 0.112595
H	-3.1859860256	-0.2561218789	-1.4513661974	 0.110314
H	-2.1975139061	 1.1883758644	-1.3736697966	 0.144112
H	-1.8613779724	-0.391656206	-3.5078314036	 0.108922
H	 0.4990384673	-1.0324113369	-3.3512020548	 0.106347
