25
gdb 97913	5.07645	0.5044	0.48243	0.104	99.89	-0.2388	0.0576	0.2963	2430.8503	0.226449	-352.350251	-352.33833	-352.337386	-352.389113	42.016	
C	 0.0148981562	 1.6163028411	-0.2328466812	-0.362122
C	-0.0012697314	 0.1379318443	 0.1972760086	-0.31441
C	-1.3404076231	-0.4439337486	 0.1958424538	 0.126995
C	-2.4590505849	-0.8928585049	 0.1895054074	 0.006094
C	-3.8001993596	-1.4682766262	 0.1736806668	-0.364179
C	-3.8239150546	-3.0161609798	 0.0927820682	 0.0539
C	-3.136908379	-3.6393616799	 1.3138749812	-0.389017
C	-5.2736153704	-3.5012255374	-0.0843220607	-0.162734
C	-5.4181248824	-5.0027124566	-0.3512738879	-0.396269
H	 1.0362371598	 2.0087761957	-0.2161496291	 0.111556
H	-0.3820461893	 1.730507974	-1.2452799239	 0.126214
H	-0.5987149586	 2.2225726738	 0.4390903605	 0.126587
H	 0.6506593512	-0.4419990899	-0.4689927001	 0.124862
H	 0.43751936	 0.0456615049	 1.1993918986	 0.124803
H	-4.348177534	-1.1520023278	 1.0730445874	 0.118552
H	-4.3595994678	-1.0589825728	-0.678080671	 0.118204
H	-3.2566310946	-3.3014076093	-0.8039819553	 0.078221
H	-3.0575070256	-4.7261802125	 1.2234495202	 0.112037
H	-2.127344794	-3.2376704511	 1.436172464	 0.126938
H	-3.6991866513	-3.4197501405	 2.2302101898	 0.106941
H	-5.8518159881	-3.2308400801	 0.8106236759	 0.091587
H	-5.7288231186	-2.9487245054	-0.916798403	 0.090155
H	-4.8406489358	-5.3046159825	-1.2324620749	 0.113823
H	-5.0719999556	-5.6042913454	 0.494416554	 0.119408
H	-6.4643558084	-5.2669092032	-0.5347530194	 0.111854
