20
gdb 109839	2.66578	0.9767	0.83938	3.7146	78.18	-0.2319	0.0329	0.2648	1448.0356	0.169689	-440.291164	-440.281117	-440.280173	-440.327265	35.96	
C	 0.0203950571	 1.4035552437	-0.1427142474	-0.375238
C	-0.0815705639	-0.0477108469	 0.3414139225	-0.191071
C	-1.4638604509	-0.6317219273	 0.1334015084	-0.05494
C	-1.8943716235	-1.1881749717	-1.1983425102	 0.033939
O	-0.9165710092	-1.205197902	-2.2074774948	-0.421556
C	-1.701860176	-2.1283286127	-0.0296509816	-0.025275
N	-0.5981812724	-3.0327824393	-0.1160407916	-0.275019
C	-0.3844415299	-4.029688548	 0.7816783556	 0.152226
O	-1.0691228258	-4.2498793368	 1.7583979344	-0.326745
H	 1.0180967035	 1.8118035331	 0.0467535774	 0.110639
H	-0.1743913845	 1.4668022842	-1.2174657063	 0.129175
H	-0.7045576224	 2.0460536168	 0.369208321	 0.111574
H	 0.6630938471	-0.6570450986	-0.1775490442	 0.098722
H	 0.1641497086	-0.1054255277	 1.4088191716	 0.105407
H	-2.2512762362	-0.1118926661	 0.6746491456	 0.093402
H	-2.9045282617	-0.9860027159	-1.5493259214	 0.095741
H	-1.2099938965	-1.8154711585	-2.8926159611	 0.295731
H	-2.5606107052	-2.5708562808	 0.4606696942	 0.124873
H	 0.0114408636	-2.9397341763	-0.9143201015	 0.24843
H	 0.5006567881	-4.6391313992	 0.5092105195	 0.069985
