17
gdb 76240	2.38641	1.45778	1.00896	5.8698	75.34	-0.2642	0.0075	0.2717	1178.6183	0.135106	-418.049145	-418.039811	-418.038867	-418.083633	32.635	
C	-0.0614623865	 1.6304643532	 0.0750424403	-0.408665
C	 0.0257114805	 0.1146485986	 0.0205268041	 0.035496
C	 0.722843471	-0.5475139001	-1.2254018581	-0.343316
C	 1.2328882251	 0.3336091602	-2.2546975728	 0.298302
N	 1.6384280942	 1.0502900897	-3.0663678246	-0.327811
C	 1.7603498553	-1.0993885083	-0.1809545589	 0.42477
O	 2.7349867398	-1.7953796056	-0.2270321032	-0.356205
N	 1.0850826208	-0.4947315564	 0.8391513998	-0.076113
C	 1.2834007669	-0.5565525168	 2.2657416045	-0.352939
H	 0.9037239568	 2.0905184546	-0.1527208366	 0.146868
H	-0.7956858797	 1.9951429311	-0.649103866	 0.142162
H	-0.3795203001	 1.9592342205	 1.0694549003	 0.125901
H	-0.9557578421	-0.3352464616	 0.2165473257	 0.096572
H	 0.1375332401	-1.3534429769	-1.6745349981	 0.14992
H	 2.1875823283	-1.1412782491	 2.4486727017	 0.170635
H	 1.4163444251	 0.4424736481	 2.6948655708	 0.140111
H	 0.4380902846	-1.0442889011	 2.7663586411	 0.134313
