16
gdb 32261	2.62421	1.64145	1.01626	0.8278	75.88	-0.2132	-0.0094	0.2038	1121.3492	0.125942	-437.948787	-437.940923	-437.939979	-437.98124	29.6	
C	 0.0465710996	 1.3412567081	-0.0129574179	-0.234878
O	-0.0220441635	-0.0830279532	-0.0425114327	-0.293231
C	-1.2607968274	-0.6407972657	-0.0106229679	 0.346495
N	-2.340747417	 0.1042115581	 0.0447827366	-0.359615
C	-3.5317727248	-0.5220718238	 0.0733875848	-0.031306
C	-3.6559425835	-1.8993546749	 0.0469051251	-0.120294
C	-2.4976135447	-2.6834636983	-0.012209661	-0.170541
C	-1.2692132459	-2.0526100161	-0.0420375685	 0.272294
O	-0.1099184124	-2.7538641175	-0.0993021086	-0.439261
H	 1.1090029598	 1.5864109227	-0.045145933	 0.127841
H	-0.4710871285	 1.7748547806	-0.8732117634	 0.138855
H	-0.408201239	 1.735024123	 0.9003471302	 0.13888
H	-4.4059075109	 0.1202604106	 0.119131758	 0.105334
H	-4.6350422344	-2.3632609806	 0.0715559005	 0.098202
H	-2.5391015038	-3.7665680426	-0.0350560031	 0.113497
H	 0.6096129464	-2.1088731203	-0.1106852091	 0.307728
