20
gdb 102127	2.34206	1.22029	0.91001	3.8932	76.18	-0.2417	-0.0291	0.2126	1320.0554	0.169727	-440.25588	-440.246353	-440.245409	-440.291418	33.925	
O	-0.6947386297	-2.7757544575	-0.641057639	-0.426878
C	-1.2784798936	-2.0028953654	 0.3859674488	-0.067729
C	-1.3574782985	-0.5160201122	-0.0179946553	-0.096326
C	 0.0592397903	 0.0136590573	-0.214174681	 0.177452
O	 0.7011517684	 0.5293461865	 0.6629303212	-0.252762
N	-2.0994357748	-0.4210824879	-1.263422058	-0.094771
C	-2.3039727939	 0.909610006	-1.8895042387	-0.169435
C	-3.7249037447	 0.461293835	-2.3027955384	-0.229956
C	-3.5659297781	-0.6526232556	-1.2414944603	-0.164311
H	-1.0794094661	-2.4417879841	-1.4632700751	 0.285365
H	-2.2928597569	-2.3547457029	 0.6374659678	 0.093399
H	-0.658560471	-2.1097602397	 1.2810833426	 0.126673
H	-1.8150782773	 0.0578216268	 0.8084399804	 0.074769
H	 0.4749293143	-0.1360887664	-1.2339269883	 0.08843
H	-2.3255112743	 1.7267777793	-1.1521228122	 0.101881
H	-1.58916624	 1.1629176665	-2.6780624157	 0.11245
H	-4.5347557906	 1.1756463171	-2.1571152695	 0.113367
H	-3.7628292768	 0.0696195534	-3.3205686034	 0.119169
H	-3.8797482947	-1.6675749752	-1.5028499131	 0.111819
H	-4.0244095119	-0.3764702312	-0.2789546128	 0.097395
