19
gdb 112305	3.0406	1.24391	0.97118	2.6011	76.23	-0.238	-0.0112	0.2268	1231.0457	0.159363	-423.036107	-423.027719	-423.026775	-423.069387	31.708	
C	 0.071426452	 1.2981579415	 0.1853076922	-0.237899
O	-0.1352978225	-0.0738490145	-0.0673794975	-0.244938
C	 0.5206235512	-0.5468232306	-1.2257927713	 0.125204
C	 2.0575253717	-0.6834179375	-1.093942277	-0.38241
C	 2.416097308	-1.9513673199	-1.8856554812	 0.4181
O	 3.4774520807	-2.1735916819	-2.4120552427	-0.330068
C	 1.1962557915	-2.8104068993	-1.9634093934	-0.150339
C	 0.4671001494	-3.0414943665	-0.6452418371	-0.281607
C	 0.012532055	-1.9466691119	-1.5495232547	-0.063153
H	 1.1259517978	 1.5294764012	 0.3966899681	 0.108961
H	-0.2533369451	 1.920601049	-0.6634831894	 0.105719
H	-0.5260060631	 1.5585565649	 1.0621117546	 0.12975
H	 0.2903758259	 0.1203066042	-2.0725896273	 0.073797
H	 2.6247856987	 0.1665121422	-1.4759145303	 0.128207
H	 2.3328994431	-0.8194809355	-0.0413429174	 0.136214
H	 1.1460737395	-3.5663727102	-2.7364813844	 0.107659
H	-0.1398446282	-3.9383276283	-0.6010548201	 0.126945
H	 0.9627526164	-2.7928403001	 0.2861145334	 0.130664
H	-0.9431644718	-2.0382061369	-2.0512157944	 0.099194
