18
gdb 23276	2.77913	1.46485	1.16651	0.8372	74.97	-0.2383	-0.0008	0.2375	1085.7124	0.148381	-439.041773	-439.033636	-439.032691	-439.074386	31.906	
O	-0.2429417658	 1.2808787174	 0.2857674849	-0.412265
N	-0.0197876877	-0.1120091751	 0.1217295748	-0.250337
C	-1.1271793914	-0.7172201428	-0.0558243592	 0.414573
C	-1.2295483011	-2.1829906266	-0.2127191395	-0.127216
C	-2.1522252035	-2.8553907562	 0.8004314651	-0.285892
C	-2.6797757573	-2.490022418	-0.5525609642	-0.044735
C	-3.4426502054	-1.1732173537	-0.6622399323	-0.241737
C	-2.5129736978	-0.0754571481	-0.1020750653	 0.015062
O	-2.9389380062	 0.3058331675	 1.2042493721	-0.435618
H	 0.653240631	 1.6183395104	 0.3838040904	 0.308501
H	-0.3898227845	-2.7394545994	-0.608473041	 0.099758
H	-1.9514224065	-3.9016039324	 1.0028622366	 0.115714
H	-2.4765569244	-2.2746764968	 1.6570939217	 0.13869
H	-2.9174466475	-3.2838892362	-1.2512180614	 0.088442
H	-3.6688507397	-0.9634300248	-1.7123233773	 0.105902
H	-4.3879801084	-1.1755251369	-0.1120436903	 0.119879
H	-2.4890824562	 0.8023515622	-0.7590200194	 0.09556
H	-2.2884517074	 0.9458816795	 1.5185680643	 0.295718
