17
gdb 97267	4.15318	0.88088	0.73334	1.9413	84.81	-0.2452	-0.0638	0.1814	1498.9868	0.134916	-414.200532	-414.19059	-414.189646	-414.236195	34.037	
C	-0.08739527	 1.4211741057	-0.0195936562	-0.316643
N	-0.0941608496	-0.0277003055	-0.0098676222	-0.243999
C	 0.5353340275	-0.616188006	-0.9379432834	 0.109179
N	 0.5728372844	-2.0098332737	-0.9935840612	-0.141881
C	-0.1352133093	-2.7473860237	 0.0499463505	-0.347864
C	 1.2676956505	-2.6252308794	-2.0178805243	 0.334498
N	 1.8865214675	-1.9731339433	-2.9293957534	-0.518156
C	 1.260730666	-4.0796451609	-2.0084744629	 0.217253
N	 1.3133880102	-5.2325089153	-2.0867755804	-0.330675
H	 0.4794312311	 1.859176483	-0.8555273612	 0.106418
H	-1.1182618443	 1.7904432311	-0.066512119	 0.13196
H	 0.3378467779	 1.7902608058	 0.9207245858	 0.131962
H	 1.0852337556	-0.1350462492	-1.7485116175	 0.147765
H	-1.1946026434	-2.480380565	 0.0391463661	 0.153827
H	-0.0241625594	-3.8179299378	-0.1143113746	 0.163022
H	 0.2666766587	-2.4808560286	 1.0303318039	 0.15382
H	 2.3348494165	-2.6011145073	-3.5905363199	 0.249514
