17
gdb 83661	2.58384	1.70167	1.30707	2.3241	67.22	-0.2485	0.0406	0.2891	991.6797	0.135943	-458.894146	-458.886648	-458.885704	-458.926197	29.129	
O	 0.5051743386	 1.0475419589	-0.5628945219	-0.430908
C	 0.1205046062	-0.2011901984	-0.072290158	 0.050639
C	 0.2280296987	-0.3975443897	 1.4652201718	 0.059834
O	-0.086885767	 0.843415096	 2.1414248612	-0.30632
C	-1.4428937066	 0.3973723521	 2.4186362875	-0.082596
C	-1.2612728528	-0.8542621723	 1.5443215607	-0.198799
C	-1.3835828146	-0.5451149881	 0.0443471808	 0.409369
C	-2.514522205	-0.0260850437	-0.7243940683	-0.269131
O	-2.0513044439	-1.3766757587	-0.8831819981	-0.278437
H	 0.3096243161	 1.6740097684	 0.1495020434	 0.289768
H	 0.6473714771	-0.977271499	-0.6383780403	 0.102119
H	 1.0915193187	-0.9072729195	 1.8959966791	 0.08584
H	-1.5690386428	 0.1889473055	 3.4874850767	 0.112514
H	-2.1945700786	 1.1268912238	 2.0973878045	 0.110971
H	-1.611579222	-1.8210824324	 1.8991809866	 0.099068
H	-3.4920986774	 0.0774948095	-0.2547747987	 0.114885
H	-2.3218166747	 0.6353102975	-1.567147357	 0.131183
