13
gdb 28760	4.22187	1.0098	0.94995	3.2427	61.95	-0.2338	0.0043	0.2382	1202.8981	0.089979	-489.93388	-489.926159	-489.925215	-489.967752	27.388	
O	 0.175307222	 1.2556102209	 0.5973626498	-0.395398
C	 0.1514173241	-0.0202226274	 0.2285054874	 0.49323
N	 0.99786902	-0.6545538858	-0.5197562609	-0.380545
C	 0.4801444237	-1.9460089522	-0.5539450423	-0.135329
C	-0.6497578456	-2.010473587	 0.1807161974	 0.366584
N	-1.572285313	-3.0000797753	 0.4764573367	-0.424318
C	-2.6519416081	-3.305969175	-0.3318512053	 0.13448
O	-2.8948742449	-2.7928458424	-1.3920843046	-0.277562
O	-0.8746919859	-0.7310053093	 0.7021099368	-0.1861
H	 0.9548687646	 1.6494462479	 0.1839360386	 0.324866
H	 0.9565356434	-2.7378996778	-1.109187942	 0.136317
H	-1.5213682466	-3.4682794956	 1.3706805601	 0.260552
H	-3.2674992538	-4.107028321	 0.1230948383	 0.083221
