15
gdb 31095	2.46284	1.4128	0.92349	0.9709	64.27	-0.1729	0.0652	0.2381	1200.1722	0.112039	-491.102395	-491.09339	-491.092446	-491.136263	32.317	
C	 0.0138831567	 1.2774491714	-0.0306702976	-0.245555
O	-0.1517832962	 0.0402528466	 0.6574537352	-0.286851
C	-1.3159458666	-0.6058564544	 0.3836439584	 0.205681
C	-1.428101946	-1.9277919432	 0.0842720303	 0.271344
O	-0.5462261587	-2.945776002	-0.0788100746	-0.446033
N	-2.7918072455	-2.1730295254	-0.0259574864	-0.360685
C	-3.403652179	-0.9776393993	 0.1959844931	 0.440016
O	-4.7463407729	-0.9019211574	 0.131328891	-0.427329
N	-2.5699284735	-0.0104962135	 0.4498555706	-0.426694
H	 0.9657521736	 1.6941934748	 0.3047375791	 0.123727
H	 0.041525749	 1.1239527627	-1.1178071998	 0.10919
H	-0.7987709844	 1.9697008468	 0.2101033431	 0.1403
H	 0.3309807877	-2.5819168559	 0.0871954522	 0.311641
H	-3.2296463896	-3.0537371069	-0.234625275	 0.278684
H	-4.9732799146	 0.0150725556	 0.3293393804	 0.312565
