17
gdb 18968	6.20762	1.36626	1.35432	2.822	68.65	-0.2294	0.0694	0.2988	951.0287	0.142896	-363.747669	-363.740786	-363.739842	-363.778899	26.463	
O	-0.0586611645	 1.4518640238	-0.3108186127	-0.420078
C	 0.060207383	 0.1020938534	 0.1196527101	-0.118594
C	-1.3197336712	-0.5145634323	 0.06426302	 0.016004
C	-1.9317384591	-0.8667504659	-1.2978185908	 0.001145
C	-1.1127839288	-2.184585694	-1.4727957764	-0.074896
C	-2.4154327767	-2.9432368535	-1.6893791127	-0.185573
N	-2.8612332149	-1.9277783898	-0.641952048	-0.164887
C	-1.4697058584	-2.0419633357	 0.040358608	-0.032686
H	 0.805513061	 1.8678577198	-0.2409664427	 0.287666
H	 0.7553764862	-0.4608096987	-0.5237345223	 0.084329
H	 0.4488470139	 0.0437945906	 1.149261715	 0.087986
H	-2.0138896594	-0.0046085714	 0.7402194205	 0.089263
H	-2.31269164	-0.2101533467	-2.0811720481	 0.08649
H	-0.127628208	-2.3201875873	-1.9309862873	 0.065897
H	-2.9276054537	-2.8297395117	-2.6507392845	 0.100344
H	-2.4752851237	-3.9809709711	-1.3438791026	 0.098461
H	-1.3081406555	-2.7750866496	 0.8338672744	 0.07913
