18
gdb 42846	2.69778	1.8749	1.61979	1.9281	74.44	-0.2075	-0.012	0.1955	910.5678	0.150099	-401.91467	-401.907875	-401.906931	-401.945799	27.649	
O	-0.1534770135	-0.0330081696	 0.2078427982	-0.332339
C	-0.0926858619	 1.1538551954	 0.0798693907	 0.430085
C	-1.0941816089	 2.3325470157	 0.1003469893	-0.172524
C	 0.0314267	 3.0166782972	 0.9664852845	-0.245564
C	 1.0006486276	 2.2465960091	 0.019085433	-0.126481
N	 0.7317416626	 2.9336326184	-1.2656625701	-0.108405
C	 0.6863213824	 2.0467274783	-2.4784609681	-0.176702
C	-0.8603410571	 2.1596234904	-2.5525922479	-0.269392
C	-0.7946936022	 2.9954815936	-1.2507095948	 0.035812
H	-2.1252340326	 2.2254204639	 0.4295172778	 0.088151
H	 0.0922899586	 4.1050162981	 0.9059629131	 0.122121
H	 0.0594729492	 2.6689112997	 1.9998521744	 0.12224
H	 2.0521126332	 2.0713001568	 0.2373635478	 0.088489
H	 1.2295429972	 2.4850014672	-3.3197968053	 0.108473
H	 1.0690456645	 1.0354360841	-2.3052634211	 0.122045
H	-1.2337939478	 2.7099280239	-3.4176949982	 0.110278
H	-1.4063019997	 1.217176397	-2.4724539852	 0.121713
H	-1.1943302315	 4.0124557107	-1.314914918	 0.082001
