22
gdb 8240	4.4361	1.05942	1.02174	0.9882	79.37	-0.2403	0.0807	0.321	1293.6609	0.199084	-350.198185	-350.188945	-350.188	-350.23267	34.137	
C	 0.2722009899	 1.3465902089	 0.5195772503	-0.388222
C	-0.0412466794	-0.0480515713	-0.0307733416	 0.147883
C	-1.5413655287	-0.2859252251	-0.1666731664	-0.387833
O	 0.5176705529	-0.2317069506	-1.3318975378	-0.26956
C	 1.8823138753	-0.5505280183	-1.3610223894	 0.172808
C	 2.3313672786	-2.0025927106	-1.0174066345	-0.242551
C	 3.3045540982	-1.9201456218	-2.2262404437	-0.219451
C	 2.4590945737	-0.7389464815	-2.7778144095	-0.247292
H	 1.34942196	 1.5171776122	 0.6035449466	 0.11549
H	-0.1448048335	 2.1137105741	-0.1407615183	 0.121383
H	-0.16222449	 1.4734202097	 1.5165656907	 0.111372
H	 0.3790444578	-0.8058603836	 0.6497035245	 0.068004
H	-1.976003817	 0.4373396343	-0.8642500644	 0.122173
H	-1.7355920209	-1.2901233627	-0.5525055046	 0.117834
H	-2.0421448615	-0.1780873659	 0.8002169725	 0.109476
H	 2.4763157082	 0.1785434918	-0.7901822249	 0.062321
H	 2.7503196535	-2.2032210111	-0.0285157549	 0.091164
H	 1.510873823	-2.6999254298	-1.2111960393	 0.105052
H	 4.3056840159	-1.6008998792	-1.9237004846	 0.102515
H	 3.400705434	-2.8070021132	-2.8552449038	 0.100838
H	 1.669705882	-1.0894878639	-3.4486148735	 0.111422
H	 2.973762798	 0.1058130876	-3.2407245334	 0.095171
