20
gdb 96238	2.35937	1.59306	1.13867	3.2855	76.65	-0.2365	0.0221	0.2586	1133.1612	0.171449	-440.288343	-440.279406	-440.278462	-440.32198	33.802	
C	 0.3740230589	 1.5815685814	-0.0728052733	-0.386742
C	 0.0442743009	 0.0861744127	 0.0161871551	 0.055489
N	 0.348268673	-0.5181118294	-1.2742525527	-0.251392
C	 0.4084150307	-1.7393812295	-1.5680075897	 0.120321
O	 0.3276993763	-2.8832319264	-0.8324510229	-0.233167
C	 0.8805320402	-2.9468630756	 0.4851535011	-0.055414
C	 0.2659662586	-1.9950568872	 1.5006069143	-0.256422
C	 0.6711067061	-0.5334847017	 1.2777812653	 0.102037
O	 2.0864671898	-0.3931787505	 1.1829676061	-0.428394
H	 1.4530014831	 1.7207687066	-0.1687212843	 0.135837
H	-0.1121948859	 2.0156705545	-0.9489258164	 0.118322
H	 0.0327262441	 2.1146112316	 0.8208961018	 0.096436
H	-1.0438707628	-0.0149878461	 0.1547302054	 0.086486
H	 0.4988854398	-2.0178995059	-2.6197309996	 0.113946
H	 0.7241676787	-3.9839447208	 0.7915518373	 0.111302
H	 1.957938279	-2.7579706198	 0.4227777029	 0.119263
H	-0.8267814341	-2.086973972	 1.4971915137	 0.109357
H	 0.6065710118	-2.3134431199	 2.4957050341	 0.091236
H	 0.2935428518	 0.0603366279	 2.1253848837	 0.067133
H	 2.46779148	-0.6069583101	 2.040054888	 0.284367
