18
gdb 62606	3.48948	1.7296	1.52636	2.1603	72.97	-0.228	0.0679	0.2959	912.0536	0.148277	-401.854493	-401.84746	-401.846516	-401.88539	29.353	
C	-0.0705055303	 1.6538808886	 0.0264453387	-0.454927
C	 0.0240773314	 0.1459698654	-0.0113904064	 0.45053
O	-1.2694945112	-0.36727466	-0.277813943	-0.496544
C	 1.1014691359	-0.5641324317	-0.870914128	-0.075463
C	 2.4942494689	-0.2221606365	-0.3426634846	-0.104189
C	 2.2030943247	-0.2785814804	 1.1796259532	-0.104195
C	 2.5635307722	-1.5142164604	 0.4127341415	-0.031039
N	 1.0863208318	-1.7573584658	 0.1211673425	-0.222695
C	 0.7184927517	-0.6384040841	 1.1315607232	-0.075458
H	 0.9046458323	 2.1033929027	 0.2297015988	 0.120221
H	-0.4403369439	 2.0330599113	-0.9311216843	 0.126862
H	-0.7724618938	 1.9686668621	 0.8046821776	 0.126864
H	-1.1951543936	-1.3301136678	-0.2993308961	 0.294237
H	 0.9442466663	-0.7693748727	-1.9303076056	 0.077523
H	 3.285131758	 0.3824082673	-0.7653541975	 0.094981
H	 2.7741947491	 0.2834055186	 1.9060425869	 0.094981
H	 3.3254300266	-2.2734490738	 0.5303186732	 0.100787
H	 0.1847568239	-0.9166687527	 2.0408751401	 0.077525
