17
gdb 1475	3.94272	1.77332	1.31023	1.4918	66.33	-0.2505	0.0573	0.3077	937.8226	0.145061	-309.678344	-309.669535	-309.668591	-309.711717	30.835	
C	-0.0942546848	 1.4236685904	 0.0511071486	-0.235516
O	 0.0532503406	 0.0249650946	-0.015501418	-0.23768
C	 0.6873747688	-0.5598187921	 1.109857803	 0.14475
C	-0.2933043673	-0.76901079	 2.2667871388	-0.402547
C	 1.2789123868	-1.8970763528	 0.6280475816	-0.361278
C	 2.3531666298	-1.7363763549	-0.3431972162	 0.308857
C	 3.2535400316	-1.5983259853	-1.1269493783	-0.444636
H	 0.8768764796	 1.9277994469	 0.1724981451	 0.108367
H	-0.5405886226	 1.7439489465	-0.8935922335	 0.128756
H	-0.7537860633	 1.7432969785	 0.8718139226	 0.102925
H	 1.5148071005	 0.0875360451	 1.4416203501	 0.074873
H	 0.2143558366	-1.1996902803	 3.1358198371	 0.115642
H	-0.7410650821	 0.1781433401	 2.5800589713	 0.119005
H	-1.1003637212	-1.4437749125	 1.9636941834	 0.124422
H	 1.646139696	-2.4573865828	 1.496473791	 0.125243
H	 0.4636687657	-2.4875674185	 0.1914874598	 0.137086
H	 4.0417710055	-1.4800426829	-1.8280634064	 0.19173
