12
gdb 132309	2.09954	1.82593	0.9766	6.5159	61.86	-0.254	-0.0411	0.2129	1068.2612	0.076799	-513.984112	-513.976422	-513.975478	-514.016559	27.981	
N	-0.0215236289	 1.3471215579	 0.0080892319	-0.546869
C	 0.0217447618	 0.0012487983	 0.0005116493	 0.457045
N	-1.1431296564	-0.6267441639	 0.0036410376	-0.416647
C	-1.2172474541	-1.9623317541	-0.00316457	 0.452462
O	-2.1494662711	-2.6974634748	-0.001787316	-0.31745
O	 0.116893458	-2.7012991257	-0.0147530269	-0.256731
C	 1.2133444481	-2.013437256	-0.0173478785	 0.447553
F	 2.2887283665	-2.7666782643	-0.0271545449	-0.035031
C	 1.2876728795	-0.6627775265	-0.0102756886	-0.459201
H	 0.8120453053	 1.9059662963	 0.006521835	 0.273825
H	-0.9225397574	 1.7952424509	 0.0156761438	 0.280298
H	 2.2361347687	-0.1484085383	-0.0127031328	 0.120744
