20
gdb 98477	2.26277	1.41965	1.0049	1.8339	76.5	-0.2221	0.0149	0.237	1253.227	0.169583	-440.295325	-440.285312	-440.284368	-440.3305	35.904	
C	 1.2933198572	-0.6602841988	-1.1470155729	-0.326696
N	 0.2822217374	-0.3278078451	-0.1437553079	-0.342461
C	 0.6365998481	-0.655273467	 1.206318754	 0.181794
C	-0.4981278379	-1.1105817771	 2.1217321048	-0.290097
C	 0.4918352684	-2.1090355598	 1.6177414137	-0.270812
C	 1.7166486427	 0.1066081351	 1.9219291355	 0.417726
O	 2.1692638639	-0.1776560877	 3.0056879066	-0.382035
O	 2.108973478	 1.1927006531	 1.2190047974	-0.2457
C	 3.1174628154	 1.991997284	 1.84916283	-0.242299
H	 1.4602986653	-1.7422256991	-1.147353397	 0.122282
H	 0.9173800009	-0.3816011015	-2.1358951922	 0.116254
H	 2.2629232979	-0.1636302116	-0.9924245828	 0.106201
H	 0.0494173364	 0.6569758194	-0.2059783781	 0.222897
H	-0.4391396686	-0.816423962	 3.1625433889	 0.132229
H	-1.48222424	-1.0947071977	 1.6697185991	 0.124881
H	 0.1759305596	-2.7862749019	 0.833493741	 0.124062
H	 1.2275046482	-2.4902618834	 2.3147484349	 0.137917
H	 4.0222685824	 1.4041689493	 2.0225748253	 0.141633
H	 3.3204208409	 2.8120296421	 1.1601507862	 0.131259
H	 2.7613635637	 2.3757836797	 2.8084415535	 0.140963
