19
gdb 16372	2.32165	2.2944	1.47481	1.7613	71.47	-0.2412	0.0701	0.3113	943.4646	0.164559	-365.025227	-365.016891	-365.015947	-365.057821	31.254	
C	-0.3425981165	 1.2793436425	-1.2678509629	-0.403851
C	 0.2386497367	-0.051919349	-0.834611206	 0.090168
O	 1.6222676523	-0.2138250992	-1.231173351	-0.324696
C	 2.0402947822	-0.5834977003	 0.1121282622	 0.115832
C	 3.2186490448	 0.2315013192	 0.6025330678	-0.407716
C	 0.6366388266	-0.270160121	 0.6272468718	 0.248024
C	 0.1828355916	 0.4522181422	 1.832567717	-0.303633
N	-0.0599200231	-0.9992041381	 1.6719369828	-0.365523
H	 0.2402239328	 2.1098469215	-0.8601321074	 0.122219
H	-0.3362826675	 1.3549322035	-2.3598000325	 0.130196
H	-1.3807662091	 1.3775264899	-0.9304558947	 0.111415
H	-0.3727180009	-0.8799229972	-1.2283164236	 0.072617
H	 2.2643765407	-1.6584468775	 0.1639879643	 0.080985
H	 2.9864930228	 1.3004193315	 0.5914075691	 0.117368
H	 3.4860273175	-0.0616384423	 1.6235635856	 0.120922
H	 4.0893009649	 0.060178391	-0.0381004783	 0.128067
H	 0.8879957833	 0.7109668927	 2.61788806	 0.122403
H	-0.6543196171	 1.1391348394	 1.7336795698	 0.114339
H	-1.0273260222	-1.1692391689	 1.4042454559	 0.230863
