18
gdb 19311	7.36614	0.79547	0.78274	0.1934	84.75	-0.2245	0.0511	0.2757	1510.4323	0.15392	-310.61687	-310.608619	-310.607675	-310.650999	30.095	
C	-0.0432155567	 1.4965056039	-0.0559396287	-0.251443
C	 1.3077858758	 0.8519194656	 0.0299277438	-0.250682
C	 0.0600148462	-0.0188415398	 0.0374176931	-0.15612
C	-0.3372226303	-0.7006616159	 1.2346490389	 0.072159
C	-0.6746927099	-1.2808327466	 2.2381712751	 0.072149
C	-1.0662826787	-1.9721950489	 3.4317853899	-0.15612
C	-2.1857225019	-1.4258494498	 4.3058641921	-0.251443
C	-2.4155611343	-2.6717906077	 3.5040691754	-0.25068
H	-0.4159593742	 2.0175165286	 0.8176901782	 0.124045
H	-0.3598667451	 1.9151748127	-1.0046845467	 0.115514
H	 1.927279502	 0.8231150642	-0.8593908075	 0.115887
H	 1.8541921722	 0.9344285025	 0.9617017784	 0.125111
H	-0.1366638498	-0.5562961495	-0.8864226521	 0.105533
H	-0.2582377323	-2.4656702575	 3.9652328356	 0.105533
H	-2.065175557	-1.5138706322	 5.3798239278	 0.115514
H	-2.6641147919	-0.5116444897	 3.9757282906	 0.124045
H	-3.0502623607	-2.6053828	 2.6286749745	 0.125111
H	-2.4535991835	-3.6234741099	 4.0220854715	 0.115887
