17
gdb 125882	3.71124	1.08926	1.0179	4.1316	74.37	-0.2717	-0.0407	0.231	1211.4853	0.136401	-417.959656	-417.951762	-417.950818	-417.992745	29.363	
C	 0.0493155007	 1.547541113	-0.2472624653	-0.414888
C	 0.0098881609	 0.05624302	-0.0050077566	 0.012239
C	 1.2281166592	-0.8059035556	-0.1658059105	-0.308378
C	 0.6442310326	-0.601151545	 1.2182930149	-0.124064
C	 1.3633784997	 0.1584046968	 2.2547786582	 0.357053
N	 1.0270793623	 0.0655203722	 3.5187176608	-0.16383
O	 1.8923502365	 0.8714381911	 4.2062389614	-0.149156
N	 2.7822949447	 1.4736700635	 3.3680167047	-0.064658
C	 2.4778781909	 1.0495327266	 2.1742636192	-0.12216
H	 1.0077647631	 1.9888485811	 0.0393602503	 0.11797
H	-0.1072054252	 1.7660404435	-1.3088798039	 0.126441
H	-0.7332214284	 2.0618989632	 0.3201356353	 0.131773
H	-0.9292469674	-0.408412383	-0.2933567898	 0.100949
H	 1.1342392693	-1.7895345113	-0.6118372269	 0.124716
H	 2.167036549	-0.3087042538	-0.3885593736	 0.117576
H	 0.083377463	-1.4290202089	 1.6369238927	 0.113512
H	 3.0488017992	 1.3701794665	 1.317476449	 0.144906
