19
gdb 76552	2.51547	1.32014	1.1602	3.5067	72.29	-0.2341	0.053	0.2871	1158.4672	0.156856	-460.113249	-460.103646	-460.102702	-460.147945	34.92	
C	-0.1781293416	 1.4415433618	-0.1707962584	-0.400549
C	 0.0190181012	-0.0566328006	-0.1407309261	-0.126634
C	 1.4184870396	-0.6704620796	-0.1891089574	 0.018797
O	 2.5394847798	 0.1585602285	-0.1516708085	-0.436081
C	 0.6041953823	-0.7285194082	 1.0648536337	 0.398359
O	 1.0885214901	 0.0261913948	 2.1865230909	-0.322769
C	 0.6192857884	-0.9977331167	 3.1021501648	-0.09796
C	 0.0997698516	-1.8703325272	 1.9297533381	-0.057258
O	-1.2920223294	-2.050662354	 1.8302744215	-0.422267
H	 0.6678930273	 1.955191302	 0.2891817078	 0.129355
H	-0.2653340558	 1.7970607851	-1.2023172835	 0.118314
H	-1.0864375621	 1.7288945666	 0.3679399852	 0.118582
H	-0.7489413212	-0.6457600329	-0.6369493679	 0.09793
H	 1.5685785649	-1.5731019733	-0.7783133237	 0.092936
H	 2.7068573487	 0.3504469786	 0.7818336801	 0.29635
H	 1.4382874806	-1.4108304064	 3.7005649596	 0.106199
H	-0.1782391428	-0.6224294102	 3.7518877984	 0.113454
H	 0.6391383145	-2.8166355959	 1.7969176569	 0.083221
H	-1.5356378162	-2.8343608324	 2.3326660085	 0.290023
