15
gdb 17738	6.39656	1.67793	1.61476	1.9375	64.66	-0.2316	0.0752	0.3068	802.7434	0.119432	-362.523887	-362.518026	-362.517082	-362.553634	23.907	
C	 0.0250739463	 1.5751114482	-0.004704065	-0.330523
N	 1.2813862448	 0.7721168569	 0.0441860648	-0.384844
C	-0.0065622908	 0.1055500597	 0.0055773998	 0.4068
C	-0.527564551	-0.9491483517	 0.9748988784	-0.203463
C	-1.7247477508	-1.2843814179	 0.0242831193	 0.11081
O	-1.4693161829	-2.7192299919	 0.0032564408	-0.33346
C	-0.1489759432	-2.1047782122	-0.0139898051	 0.108734
C	-0.5647807562	-0.9290733414	-0.9655634388	-0.230074
H	-0.1810557534	 2.1436010837	 0.8983138761	 0.122585
H	-0.2231468249	 2.0915249285	-0.9290449411	 0.113747
H	 1.7209668062	 0.7623915807	-0.8736521597	 0.2304
H	-0.5180649212	-0.9843395064	 2.0625513604	 0.093327
H	-2.7542719725	-0.9300021377	 0.0445367742	 0.10251
H	 0.7321091334	-2.7441662999	-0.0363111887	 0.10608
H	-0.6017370837	-0.9429502086	-2.0546222753	 0.087369
