19
gdb 68252	2.36734	1.49972	1.43439	1.607	82.02	-0.2506	0.0503	0.301	1055.2563	0.157188	-385.805939	-385.797021	-385.796077	-385.838838	35.052	
C	-0.156611514	 1.5354609444	 0.015346885	-0.484802
C	-0.001236243	 0.0090278785	 0.0251069666	 0.152722
C	-1.3165364871	-0.5868375714	-0.187484591	 0.253007
C	-2.4283961509	-1.0061166751	-0.3759266498	-0.449041
C	 1.2059941648	-0.6765166056	-0.7335330217	-0.082635
C	 2.1665140466	-0.12405171	 0.3560437365	-0.317646
C	 0.9115040071	-0.6733436798	 1.108378312	 0.374851
O	 0.6144019756	-0.6092923468	 2.4537078663	-0.471548
C	 1.0030589609	-1.9231124547	 0.1762052475	-0.307385
H	 0.7859634282	 2.0671903779	 0.148070222	 0.118218
H	-0.6003401398	 1.8585483656	-0.9309152494	 0.126752
H	-0.833512641	 1.8405666426	 0.818394612	 0.138313
H	-3.4048142505	-1.3918066019	-0.5350661569	 0.186461
H	 1.3624305044	-0.6748327257	-1.8096167782	 0.086723
H	 3.0870332776	-0.6963446731	 0.4970572662	 0.088618
H	 2.3665879326	 0.9454693522	 0.3847707837	 0.099198
H	 1.259509307	-1.1356004978	 2.938371537	 0.285113
H	 0.0928633696	-2.5037413554	 0.0316574095	 0.119519
H	 1.8829560718	-2.5578155938	 0.3091488227	 0.083561
