22
gdb 64415	2.35852	1.66469	1.31214	2.4711	81.58	-0.2399	0.0698	0.3097	1097.124	0.195162	-404.337798	-404.329112	-404.328168	-404.370439	34.819	
C	 0.077245919	 1.4934588308	-0.0303032713	-0.412186
C	-0.0307747732	-0.0308556998	 0.0215557736	 0.365671
C	-1.5040507238	-0.4712228214	 0.0822003648	-0.42429
O	 0.572084865	-0.4782077406	-1.2022589379	-0.287303
C	 0.8713557074	-1.8596595745	-1.2708738343	-0.080386
C	 1.9885939904	-2.2494906097	-0.2986433224	-0.210089
C	 1.7057113078	-1.6852445582	 1.0855527937	-0.040421
N	 2.1568211931	-0.2997548754	 1.3139893324	-0.333515
C	 0.7175946789	-0.5786709909	 1.2357624129	-0.059471
H	 1.1296434264	 1.7810217997	-0.0662959698	 0.139123
H	-0.4270329392	 1.8750293805	-0.9227982673	 0.115054
H	-0.385206576	 1.9472181354	 0.8521810764	 0.100841
H	-2.0244011145	-0.1444231923	-0.8221530399	 0.122174
H	-1.6066899771	-1.557442572	 0.1652043307	 0.113134
H	-2.004712646	-0.026415459	 0.9481159607	 0.111116
H	-0.0241605346	-2.4682191532	-1.0715644864	 0.083638
H	 1.1695275643	-2.0485704886	-2.3065873576	 0.103357
H	 2.068868616	-3.3415150655	-0.2565493473	 0.091163
H	 2.9463982469	-1.8578973063	-0.6548986314	 0.117292
H	 1.8006447188	-2.3785465253	 1.9180870732	 0.082308
H	 2.435888546	-0.1727960156	 2.2829887071	 0.227654
H	 0.1452895243	-0.539860358	 2.16107828	 0.075136
