18
gdb 97043	4.11448	1.04421	0.87935	0.5397	75.63	-0.2471	-0.0316	0.2155	1309.3424	0.147035	-439.11667	-439.107823	-439.106879	-439.151189	31.846	
C	-0.0848573671	 1.4478977099	 0.1793519389	-0.32469
N	-0.1623378935	 0.0084989832	-0.0175867796	-0.299667
C	 0.6001508168	-0.5462337041	-0.8554947705	 0.419061
C	 0.5672545726	-2.0329047422	-1.1064506905	-0.327852
C	 1.9945385635	-2.588600585	-1.2430172133	-0.313158
C	 2.7059883118	-1.884442338	-2.381975616	 0.371422
O	 3.5678494436	-2.3765994158	-3.0663695003	-0.295187
C	 2.1988268041	-0.4664634371	-2.6578590532	-0.187912
O	 1.5561186995	 0.1563993973	-1.5494862463	-0.252293
H	 0.6374569942	 1.6803172174	 0.9723920568	 0.125703
H	 0.2180008377	 2.0003685786	-0.7176887909	 0.118408
H	-1.0610414076	 1.8105540071	 0.5131880858	 0.120975
H	 0.0185545746	-2.4986700097	-0.2881513496	 0.144884
H	 0.0061509393	-2.2394801164	-2.0280238478	 0.127092
H	 2.5582464453	-2.3961280098	-0.3201930273	 0.1452
H	 2.0180539685	-3.6664180634	-1.4193269955	 0.13639
H	 3.0408191856	 0.1719839124	-2.9316246387	 0.152916
H	 1.5217417009	-0.5132063242	-3.5243618221	 0.138708
