16
gdb 24289	4.0031	1.5398	1.20448	2.9722	74.79	-0.2071	0.0371	0.2442	988.9424	0.127831	-400.766482	-400.760031	-400.759087	-400.797079	26.59	
C	-0.0435035385	 1.5360005968	-0.0099156803	-0.39949
C	 1.4462438935	 1.9141445024	-0.0264650199	 0.06405
O	 2.1777443656	 1.503564759	 1.1280941639	-0.256594
C	 2.2858547547	 0.6945740845	-0.0714488116	-0.16488
C	 1.3507980128	-0.4493446467	-0.0631776451	 0.312728
C	 1.3200738639	-1.8201896372	-0.0607555185	-0.250469
N	-0.0059931173	-2.181222694	 0.0219576971	-0.240894
C	-0.8161725679	-1.0629410797	 0.0756821234	-0.229873
C	 0.009754466	 0.0280161719	 0.0157928512	 0.249729
H	-0.544594591	 1.973750339	 0.8607825802	 0.123083
H	-0.5429959128	 1.9297509082	-0.9039880003	 0.108712
H	 1.7570540627	 2.8627901847	-0.458621053	 0.08958
H	 3.2751354103	 0.6641188261	-0.5173719805	 0.089975
H	 2.0965516615	-2.5667494752	-0.1026089123	 0.123765
H	-0.3404575905	-3.128702316	 0.028182638	 0.260193
H	-1.8879615229	-1.1641025138	 0.1361282078	 0.120386
