15
gdb 18681	3.16572	2.3113	1.56984	2.7594	60.98	-0.2259	-0.0326	0.1933	801.9489	0.120778	-399.78867	-399.782066	-399.781122	-399.819532	25.167	
O	 0.0551514068	-0.0059589008	-0.3912065837	-0.314321
C	 0.0055299905	 1.1714853006	-0.1179371174	 0.387686
C	-1.2881537551	 1.9598044705	 0.0656004098	-0.275204
N	-1.3209590349	 3.1046167567	-0.8563147453	-0.296306
C	-0.2403610919	 4.0676379386	-0.6375690783	-0.193051
C	 1.1188707129	 3.4718683562	-0.2806165201	 0.037934
O	 1.2415218725	 2.9716516556	 1.0453760583	-0.241101
C	 1.2478485542	 2.0152273036	-0.0289291012	-0.062518
H	-2.1353713608	 1.2985452538	-0.1291819113	 0.128153
H	-1.3587889784	 2.3338933079	 1.0929930773	 0.138081
H	-1.2733867207	 2.756041189	-1.8084968812	 0.227688
H	-0.1429317514	 4.6813805694	-1.5384648554	 0.114619
H	-0.5241499449	 4.7431325136	 0.1809419478	 0.130006
H	 2.0013462171	 4.0083760256	-0.6326871945	 0.106888
H	 2.1888311442	 1.4966452495	-0.1993089849	 0.111446
