14
gdb 28303	5.36898	1.32645	1.06366	3.5045	69.87	-0.1833	0.0312	0.2144	1036.4899	0.104085	-432.91364	-432.906773	-432.905829	-432.94452	27.319	
O	 0.0796769983	 1.3180221063	-0.0146344866	-0.436399
C	 0.0649906309	-0.0316249532	-0.0617585385	 0.346703
C	 0.0093688345	-0.7980327063	-1.2055933663	-0.276232
N	 0.0176403125	-2.108030064	-0.7171704023	 0.0071
C	-0.0101786173	-3.4479829001	-1.0786648244	-0.135615
C	 0.0319110381	-4.1673970586	 0.077079053	-0.092449
N	 0.0855518159	-3.2782437068	 1.1460126256	-0.412348
C	 0.0763307859	-2.0061381112	 0.6457456818	 0.504842
N	 0.1072885704	-0.7669820044	 1.0988040687	-0.495639
H	 0.1214369691	 1.5500589185	 0.9208471218	 0.299137
H	-0.0325199182	-0.5510184149	-2.2494217478	 0.126616
H	-0.0565708426	-3.7790723758	-2.1007971627	 0.143666
H	 0.028226958	-5.2322845005	 0.2289872961	 0.142832
H	 0.1247839546	-3.514493149	 2.1201945116	 0.277787
