21
gdb 72277	2.98852	1.58891	1.31632	1.3878	81.65	-0.2206	0.0856	0.3062	1059.3309	0.184986	-387.067768	-387.060099	-387.059155	-387.099447	31.313	
C	-0.0911052145	 1.5780883923	 0.0188658683	-0.496617
C	-0.0212006421	 0.0786360742	-0.0520812834	 0.288229
C	 0.6014506164	-0.6812632327	-1.2288729538	-0.303025
C	-0.4053657317	-1.8589902931	-1.0080416103	-0.028261
C	 0.1707720591	-3.1256203648	-0.3676367103	-0.228869
C	 1.1261144877	-2.7648949365	 0.7748462999	-0.062308
O	 0.6063640677	-1.8021401608	 1.6840640385	-0.270412
C	-0.220859034	-0.7975871657	 1.1644573555	 0.091902
C	-1.1546836274	-0.9893944311	 0.0214647331	-0.167031
H	 0.9020553095	 2.0112827507	 0.1916268224	 0.121222
H	-0.4782397117	 2.0036961539	-0.9149640644	 0.112949
H	-0.7421973266	 1.9137455933	 0.832855492	 0.116682
H	 0.3846389445	-0.1668157232	-2.170021848	 0.096386
H	 1.6750604127	-0.8916623167	-1.197480352	 0.092402
H	-0.9867563349	-2.095382799	-1.9006493031	 0.070316
H	-0.6539041966	-3.7425795741	 0.0101395101	 0.10281
H	 0.7213103137	-3.7293539426	-1.0990456743	 0.094857
H	 1.3559306561	-3.6479738758	 1.3793830565	 0.101558
H	 2.0781139375	-2.4023435149	 0.3602705279	 0.094828
H	-0.6314383625	-0.2466809397	 2.0061123396	 0.095158
H	-2.2309826627	-0.8732499437	 0.0908358158	 0.077223
