19
gdb 47445	3.00558	1.40719	1.03468	3.6811	76.26	-0.2267	0.0645	0.2912	1168.4334	0.16191	-419.23898	-419.230706	-419.229761	-419.272545	30.928	
O	-0.2597403114	-0.0334684583	 0.6575772328	-0.421522
C	-0.1466098036	 1.1144930542	 0.2840760022	 0.443757
N	-1.1959868802	 1.9586338368	-0.0851344855	-0.354296
C	-0.7492164928	 3.3438775841	-0.1231321316	-0.177263
C	 0.7573479615	 3.1708290122	-0.4056502727	-0.157726
N	 1.02198991	 1.8385295023	 0.1137261302	-0.107079
C	 2.3456041148	 1.3151212398	 0.1879432468	 0.031421
C	 2.6308979166	-0.0963054656	-0.2374209623	-0.25842
C	 3.1186618019	 1.0440547381	-1.0901290385	-0.277823
H	-2.0882660897	 1.7293553308	 0.3242976212	 0.249515
H	-1.2524785893	 3.9157508927	-0.9073571149	 0.116266
H	-0.9083038388	 3.8595137044	 0.8350684583	 0.107373
H	 0.975211712	 3.2296926082	-1.4819232349	 0.107918
H	 1.3637090297	 3.9289209973	 0.1004980692	 0.112894
H	 2.9268663134	 1.7010488146	 1.0239784284	 0.090531
H	 3.3524370688	-0.6507304108	 0.3516543448	 0.115915
H	 1.7920434602	-0.6823287046	-0.5861287625	 0.150141
H	 2.6048309381	 1.2221757958	-2.0284652302	 0.116508
H	 4.1768364587	 1.2807026782	-1.1032140508	 0.111889
