23
gdb 77465	1.91571	1.44259	1.34444	1.149	86.39	-0.2298	0.0772	0.307	1202.792	0.203546	-388.271076	-388.260731	-388.259787	-388.305351	39.225	
C	-0.2275859211	 1.6439196188	-0.3411352566	-0.424835
C	 0.0216444399	 0.147886428	-0.3154050703	-0.120925
C	 0.6210183861	-0.6941719452	-1.42678755	 0.275332
C	-0.1089882601	-1.8395546678	-2.0680569601	-0.495479
C	 1.8125872075	 0.0442401782	-2.0628170309	-0.32272
C	 2.5647167093	 0.0111057226	-0.68648921	-0.006381
C	 3.2213277185	 1.2585787383	-0.1031250302	-0.427399
C	 1.3071774098	-0.6004387635	-0.0579060027	 0.312685
O	 1.3768448664	-1.5959434061	 0.9108781948	-0.467644
H	 0.506460946	 2.1867315136	-0.9395818502	 0.123385
H	-1.2140149894	 1.8555355326	-0.7694514278	 0.114097
H	-0.210873604	 2.0703007273	 0.6685837468	 0.111179
H	-0.7953499548	-0.3995029889	 0.156621715	 0.081
H	-0.797200272	-1.4947763232	-2.8496472755	 0.114412
H	 0.5893925196	-2.5457607699	-2.5321093989	 0.114646
H	-0.6959369246	-2.3914559537	-1.3268407793	 0.122721
H	 2.3156984402	-0.5415921708	-2.836225821	 0.098541
H	 1.6015782454	 1.0374188368	-2.4720326718	 0.092094
H	 3.3120349123	-0.7889313341	-0.7314838022	 0.08165
H	 2.5334987044	 2.1059683936	-0.0420613592	 0.115533
H	 3.5943722592	 1.0600174901	 0.9083461496	 0.111963
H	 4.0784132607	 1.5692034345	-0.711221165	 0.112854
H	 1.1708986808	-1.2055121114	 1.7663878155	 0.283292
