21
gdb 61563	2.89577	1.06753	0.87856	3.6053	79.91	-0.2278	0.0619	0.2897	1390.668	0.182779	-420.429861	-420.419821	-420.418876	-420.465564	36.475	
C	-0.321486091	 1.4435237853	-0.0924287711	-0.354998
N	-0.0983910512	 0.0126576989	-0.0122812763	-0.083286
C	 0.0228155815	-0.6043659912	 1.3080554536	-0.200708
C	-1.3020006868	-0.8633816012	 1.9957120736	 0.018432
C	-2.1151384557	-2.0678142004	 1.5961349295	-0.252474
C	-1.4214579633	-2.0384619787	 2.9352519676	-0.271665
C	-0.019290753	-0.797286765	-1.1188596363	 0.452383
N	-0.0653488212	-0.1380051393	-2.3467220357	-0.569269
O	 0.0472349279	-2.0165836476	-1.0553791097	-0.41665
H	 0.6099010088	 2.0161409667	-0.225308741	 0.115608
H	-1.0013111939	 1.684795911	-0.9138782465	 0.144886
H	-0.7900100204	 1.7891657169	 0.8323466183	 0.135868
H	 0.5487420345	-1.5502037161	 1.1656173454	 0.136384
H	 0.6552033031	 0.0426852067	 1.9301263757	 0.094637
H	-1.8594747056	 0.0274258655	 2.2756072223	 0.073123
H	-3.1954575106	-1.9740508127	 1.5785255082	 0.103871
H	-1.7000836543	-2.6962165039	 0.8166837479	 0.148013
H	-0.5490922446	-2.6700034202	 3.069661715	 0.112549
H	-2.0239649074	-1.9219322364	 3.8293852058	 0.10703
H	 0.3797768416	 0.7641534613	-2.4205279646	 0.248368
H	 0.1695775117	-0.7664789697	-3.1004829016	 0.257899
