19
gdb 114173	4.03203	0.9743	0.85926	2.4621	78.74	-0.2461	-0.0204	0.2256	1362.9248	0.157798	-423.00123	-422.99231	-422.991366	-423.035228	32.632	
C	 0.1123915186	 1.3061953462	 0.1088057995	-0.239219
O	-0.2960371598	-0.0048850344	-0.2177725303	-0.244078
C	 0.5093447706	-0.6054090788	-1.1968816867	 0.144763
C	 1.9237568495	-1.1447622795	-0.7756148496	-0.345729
C	 1.4844177664	-2.5438939003	-1.2025145068	 0.268521
C	 0.2480095931	-2.9629439457	-0.4378078448	-0.325764
C	 0.0566781821	-2.0140813593	-1.565119803	-0.12916
C	 2.2678280039	-3.4793212142	-2.0123135097	 0.056009
O	 3.4227344844	-3.3132595102	-2.3299256193	-0.270605
H	 1.1318503279	 1.3297058595	 0.5213936004	 0.112206
H	 0.0805205315	 1.9704417551	-0.7688674929	 0.107463
H	-0.5816331507	 1.6834173945	 0.8632469986	 0.130337
H	 0.5851306209	 0.0410232669	-2.0829847925	 0.076537
H	 2.7417538769	-0.7541143485	-1.3820721583	 0.127459
H	 2.1700454476	-1.0368979699	 0.2846170426	 0.106208
H	-0.0951987898	-3.9762437658	-0.6231270088	 0.125284
H	 0.1397433827	-2.6262293382	 0.5885687429	 0.133941
H	-0.5349501897	-2.2712942835	-2.4350062392	 0.103839
H	 1.701043884	-4.3815686639	-2.3431939721	 0.06199
