16
gdb 48620	2.62652	1.65995	1.23302	2.5368	69.8	-0.2357	-0.0402	0.1954	1005.6214	0.124677	-437.866629	-437.85917	-437.858226	-437.898989	28.126	
O	-0.0040438475	-0.1287936884	 0.0681360889	-0.248948
C	 0.0280835497	 1.0727224256	 0.18059445	 0.045265
C	 1.2757955924	 1.8750944347	 0.067496365	 0.105418
C	 2.6672818634	 1.3174027303	-0.3425725655	-0.223924
N	 3.0310338502	 2.7518588768	-0.6897972257	-0.123976
C	 1.5784908347	 2.9074450527	-1.0824486133	-0.230832
C	 3.0100687846	 3.3670485226	 0.6620631764	-0.287748
C	 1.7049562116	 2.7685212566	 1.2458744978	 0.388807
O	 1.1724325325	 2.9534679682	 2.3022051161	-0.315276
H	-0.8958305318	 1.6626604086	 0.3674506358	 0.088143
H	 3.2958430018	 0.848446128	 0.4176467254	 0.124895
H	 2.6284334071	 0.6993291435	-1.2404913393	 0.136652
H	 1.402929509	 2.4925003128	-2.0766188859	 0.136033
H	 1.1752234556	 3.9207550572	-1.0090330232	 0.124197
H	 3.8883664935	 3.0785391388	 1.2456685498	 0.141936
H	 2.9685163333	 4.4582846421	 0.6068543076	 0.13936
