17
gdb 2094	4.58527	2.35768	1.66159	1.2291	65.22	-0.2402	0.0281	0.2682	759.6367	0.150157	-309.736085	-309.729411	-309.728467	-309.766319	25.975	
O	-0.0735717876	 1.4456825299	-0.0048896659	-0.442128
C	 0.0121173464	 0.0263760391	-0.0084093902	 0.137863
C	-1.4110534218	-0.520762766	 0.0444005578	-0.195159
C	-1.4059033264	-2.0539370429	 0.1397779304	-0.261338
C	-0.4095607449	-2.6780318897	-0.8027278287	-0.038228
C	 0.5421452974	-1.9880167338	-1.4302743118	-0.057253
C	 0.7416167562	-0.5040780525	-1.2501418293	-0.273526
H	 0.8204361673	 1.7976284445	-0.0643004796	 0.277697
H	 0.5518169141	-0.3230093561	 0.8887447863	 0.063616
H	-1.9414794099	-0.0757391004	 0.891715296	 0.100928
H	-1.9344885417	-0.2032514231	-0.8657502431	 0.104508
H	-1.1807964141	-2.3702641666	 1.1693594641	 0.108218
H	-2.4099256213	-2.444471942	-0.0681374976	 0.104879
H	-0.4900317937	-3.7507301395	-0.9633992036	 0.083085
H	 1.2225565718	-2.498451154	-2.107680538	 0.083141
H	 0.3719535875	 0.0443815128	-2.1287623698	 0.114246
H	 1.8148104907	-0.2758771996	-1.1824775072	 0.089449
