21
gdb 31042	2.28194	1.31503	0.84872	1.4309	89.99	-0.1584	0.0517	0.2101	1410.7195	0.182088	-383.309625	-383.299227	-383.298282	-383.345282	37.365	
C	 0.003160375	 1.4584146764	-0.0372929068	-0.315215
N	 0.0560979243	 0.0084060525	-0.0894759395	-0.391589
C	-1.1695039736	-0.6840411668	-0.0064296197	 0.226656
C	-1.3013803537	-2.059489862	 0.0310711035	 0.218106
C	-0.2640520267	-3.1303725657	 0.0233867094	-0.518219
N	-2.6587870211	-2.3266234302	 0.0816245545	-0.352844
C	-3.3867221892	-1.1657587996	 0.0554310873	 0.312775
C	-4.8794116047	-1.1612674232	 0.0794541843	-0.503995
C	-2.4836937049	-0.1240056138	 0.0064900781	-0.315272
H	 1.0209329182	 1.8554518407	-0.0857571208	 0.111909
H	-0.5443370024	 1.839394367	-0.9060261958	 0.128226
H	-0.483631611	 1.8621532472	 0.8670761739	 0.100877
H	 0.7380945582	-0.3559823213	 0.5618529647	 0.224651
H	-0.0301221434	-3.5258970697	 1.0226007956	 0.117405
H	-0.5649259752	-3.9836233775	-0.5972702932	 0.116711
H	 0.665833627	-2.7369915518	-0.3991171605	 0.135287
H	-3.0531830346	-3.2508386535	 0.1081975869	 0.246402
H	-5.2844941234	-1.6370913196	 0.9821547701	 0.120807
H	-5.2470572019	-0.132650069	 0.0588749704	 0.133903
H	-5.3135632882	-1.6826580534	-0.7838694185	 0.121452
H	-2.7436844388	 0.9227648234	-0.0185132338	 0.081967
