18
gdb 123478	5.01932	0.941	0.87767	3.4657	78.51	-0.2306	0.0277	0.2582	1342.2098	0.150459	-398.116057	-398.108205	-398.107261	-398.14942	29.316	
C	-0.1306679912	 1.6333512628	 0.1303252195	-0.279774
N	-0.2199102976	 0.2641408382	-0.3758979247	-0.078936
C	-0.2236183116	-0.7971771726	 0.6283633048	-0.215618
C	-1.467524541	-0.4420752103	-0.1092674725	-0.219766
C	 1.3018202293	 2.0627809661	 0.2116730919	 0.390432
C	 1.9738174464	 2.9550905981	 1.0252252627	-0.324018
C	 3.3050050783	 2.9339191212	 0.5555616313	-0.002874
N	 3.4601281318	 2.0935885517	-0.4641808055	-0.232527
N	 2.2277615318	 1.5864209238	-0.6561992959	-0.224573
H	-0.6839891484	 2.2756277449	-0.5680041363	 0.126045
H	-0.6054754348	 1.7564467795	 1.1187181152	 0.100314
H	 0.3329483511	-1.6934801715	 0.3720727421	 0.123357
H	-0.1600970696	-0.5040355781	 1.6745690602	 0.120567
H	-2.2417686101	 0.0857661941	 0.4450128128	 0.11472
H	-1.8340235895	-1.0739568844	-0.9129136759	 0.122876
H	 1.5601473483	 3.5339820032	 1.8354032187	 0.096571
H	 4.15435099	 3.4917081925	 0.9223705774	 0.107461
H	 2.0661944069	 0.8782329005	-1.3532740059	 0.275741
