19
gdb 93811	2.40972	1.51354	1.13826	2.8194	71.58	-0.2389	-0.0277	0.2112	1127.1802	0.158698	-460.187368	-460.178588	-460.177643	-460.220968	33.232	
C	 0.0807543087	 1.5424652121	-0.0917810351	-0.399275
C	 0.1363783025	 0.0304029622	 0.0185627752	 0.026727
O	 0.7870817064	-0.4832979845	-1.1491029807	-0.270445
C	 0.8345692027	-1.9034808382	-1.1813108021	-0.111385
C	 1.7848462027	-2.3886972622	-0.0872341057	 0.12204
O	 3.0912002732	-1.8958346669	-0.3287285811	-0.436616
C	 1.2556670603	-1.9255056506	 1.2849390062	-0.326263
C	 0.8601815992	-0.4543879813	 1.2889047043	 0.365484
O	 1.068982829	 0.2786504261	 2.2253761101	-0.298189
H	 1.0905227577	 1.9565135474	-0.1534643954	 0.131121
H	-0.4748711201	 1.8323648422	-0.9864366719	 0.122801
H	-0.403733423	 1.9632727132	 0.79084237	 0.139615
H	-0.8887398429	-0.3846819246	 0.059328826	 0.087623
H	-0.1729638589	-2.3326914141	-1.0595371433	 0.092556
H	 1.2192155311	-2.1765511154	-2.1673894196	 0.121688
H	 1.8601976162	-3.4815505291	-0.1045953858	 0.089705
H	 2.9897365325	-0.9805963415	-0.6208011886	 0.287386
H	 0.3500392648	-2.4990976516	 1.531529441	 0.120716
H	 1.990853748	-2.1002214333	 2.0730724263	 0.134711
