19
gdb 115894	2.54514	1.40578	1.07773	2.2142	70.75	-0.2506	0.0625	0.3131	1153.9177	0.159304	-460.142751	-460.134167	-460.133222	-460.175772	33.101	
O	-0.0161059202	 1.4816678975	-0.1588678597	-0.424536
C	 0.0530819371	 0.0756699433	-0.0282876616	-0.075367
C	-1.3321159146	-0.5456042413	 0.0798398163	 0.041036
O	-2.0445574017	-0.1847782584	-1.1064288543	-0.287906
C	-3.0893137087	-1.1381148842	-1.3196986382	-0.09662
C	-2.5593416894	-2.4435504781	-0.7604127918	-0.106097
C	-1.1409113055	-2.8127220319	-1.1457757387	-0.355637
C	-1.4138954841	-2.0678625223	 0.1377776697	 0.370108
O	-1.2564063592	-2.6823680508	 1.376752714	-0.470272
H	-0.6414817749	 1.6505714548	-0.8732843813	 0.293137
H	 0.5903475381	-0.3838104149	-0.873039965	 0.086362
H	 0.6209681984	-0.1309557064	 0.8860863725	 0.10021
H	-1.8381386129	-0.1456232522	 0.9739489245	 0.082103
H	-4.0077490538	-0.8409041768	-0.7900562899	 0.100798
H	-3.2974715429	-1.1530925051	-2.3943787006	 0.111081
H	-3.2490736822	-3.2263806643	-0.4699210192	 0.103634
H	-0.8762256207	-3.858752447	-1.039055222	 0.116707
H	-0.6698163052	-2.294916243	-1.9750541571	 0.122698
H	-0.3147625876	-2.8104046589	 1.5332267425	 0.288561
