17
gdb 54828	2.73487	1.31541	1.14673	3.1186	70.01	-0.2268	-0.0148	0.212	1132.5905	0.133316	-458.92528	-458.916486	-458.915542	-458.959212	32.374	
C	 0.4000477275	 1.387985697	 0.01847843	-0.483828
C	-0.0085644754	-0.0682390325	 0.1592093563	 0.387533
O	-0.2430530056	-0.563897577	 1.2403140635	-0.313117
C	-0.0706522053	-0.84166771	-1.1210683792	-0.195664
C	 0.8324278181	-2.0539840654	-1.4300817688	-0.000114
O	 1.0773165648	-2.8402403766	-0.2805306078	-0.269159
C	-0.3446202544	-3.1349182246	-0.1398362503	-0.142478
C	-0.6645996642	-2.2115575898	-1.3220931483	 0.275606
O	-1.684275023	-2.373828762	-2.2312430523	-0.4434
H	 1.3546950422	 1.4692900775	-0.5132738478	 0.139698
H	-0.3435395266	 1.9322724442	-0.5757146197	 0.139992
H	 0.4844363561	 1.8447538019	 1.0050142607	 0.141923
H	-0.1819865856	-0.2392867371	-2.0203393352	 0.104539
H	 1.5631005227	-2.0546137033	-2.2305171897	 0.118002
H	-0.5321135483	-4.1894894563	-0.3780356276	 0.097368
H	-0.7318764502	-2.8693590071	 0.8422027658	 0.151193
H	-1.628447543	-3.2637078488	-2.5990156195	 0.291909
