25
gdb 119374	2.99057	0.95434	0.84173	0.2028	93.97	-0.2763	0.092	0.3683	1545.9932	0.229078	-352.320522	-352.310788	-352.309844	-352.355302	37.426	
C	 0.7990570921	 0.9604455664	 0.5256645249	-0.379357
C	 0.5527424556	-0.5369082952	 0.3231013691	-0.162376
C	-0.9367486551	-0.9064203939	 0.3304425977	-0.330563
C	-1.2044332455	-2.3789963748	 0.1330851861	 0.366091
C	-0.8200958772	-3.2646218591	-1.096797936	-0.256545
C	-1.5576921882	-4.2175129229	-0.1163598867	-0.061763
C	-0.7132662835	-3.5731917574	 1.018067015	-0.266639
C	-2.6098786006	-3.0792849871	 0.0696072101	 0.016752
C	-3.5773486512	-3.0539730094	 1.2441135425	-0.444654
H	 1.868144235	 1.1951763349	 0.5155203443	 0.109415
H	 0.3210558658	 1.5508862585	-0.2641245673	 0.112722
H	 0.3920281703	 1.3027592025	 1.4837556991	 0.112599
H	 0.9993448121	-0.8572966114	-0.6266506704	 0.098541
H	 1.069067943	-1.1036747292	 1.1082460947	 0.098391
H	-1.3856419369	-0.5841023331	 1.2807865336	 0.093324
H	-1.4556507843	-0.3416417539	-0.4572897651	 0.091733
H	-1.3272841611	-3.0379552592	-2.039972963	 0.082048
H	 0.2457419936	-3.455150551	-1.2503540428	 0.084029
H	-1.7568330849	-5.2804394036	-0.2632198454	 0.063433
H	 0.3602730481	-3.7824189863	 0.9949832221	 0.085484
H	-1.0934534482	-3.6385884589	 2.0390702146	 0.086994
H	-3.1543274881	-2.8465255121	-0.8548057266	 0.054379
H	-3.1066833491	-3.2870650519	 2.2025929677	 0.115703
H	-4.0437396213	-2.066494364	 1.3371857404	 0.115069
H	-4.3842527905	-3.7791633579	 1.0893765414	 0.11519
