14
gdb 71460	4.25207	1.46084	1.30417	4.3633	60.12	-0.2513	0.0036	0.2548	929.2079	0.1016	-473.792475	-473.785823	-473.784879	-473.823391	26.268	
O	-0.1286363472	 1.4129021445	-0.031525929	-0.446691
C	-0.0024769387	 0.0452366921	-0.0456503237	 0.322696
C	 0.6562889924	-0.8029787387	-1.1239207248	-0.262616
N	-0.298728972	-1.948634089	-0.7587626924	-0.21694
C	-1.12139272	-0.9785797916	 0.0342007965	-0.117694
C	-0.2241992307	-0.8162303043	 1.2046261814	-0.003142
O	 0.5379166582	-1.9943147659	 1.3925291912	-0.223629
C	 0.4346853552	-2.7228474407	 0.2281830078	 0.445361
O	 0.9417517873	-3.786208679	 0.0755481319	-0.327323
H	 0.6301867979	 1.7933594174	 0.4257938717	 0.299134
H	 0.4212367824	-0.4559650051	-2.131509678	 0.140711
H	 1.7212248388	-1.0460016848	-1.0469925871	 0.131827
H	-2.2002578425	-0.9420906935	-0.0337614011	 0.12382
H	-0.5302251412	-0.3369174614	 2.1242614856	 0.134484
