19
gdb 62736	2.51861	1.54109	1.25238	1.7017	77.69	-0.2397	0.0195	0.2592	1088.9121	0.158082	-419.17988	-419.170645	-419.1697	-419.213098	35.257	
C	 0.0142794814	 1.5421819081	 0.0473890794	-0.459937
C	 0.0486780547	 0.026288838	 0.0526283692	 0.2466
C	-1.1812221109	-0.6315861955	-0.5516009836	-0.449408
C	 1.3154394779	-0.7385584355	-0.1502573253	 0.003343
O	 2.4506440384	-0.0025391199	 0.3785483902	-0.274709
C	 1.9269082049	-0.1041280809	 1.6681563534	 0.37545
N	 2.4330312374	 0.1895507429	 2.7770421344	-0.564096
C	 0.6604400748	-0.7797083958	 1.2286273822	 0.124789
N	-0.0622315161	-1.7924101249	 1.9065701814	-0.595468
H	 0.9431449809	 1.9758581969	 0.4206420009	 0.140603
H	-0.1437802559	 1.9117798972	-0.9719726652	 0.118686
H	-0.8113110798	 1.9104192507	 0.6658288341	 0.118741
H	-1.3192536425	-0.2828865333	-1.5807970159	 0.118839
H	-1.1035500562	-1.7203150254	-0.5542890521	 0.137097
H	-2.0810396664	-0.3672870642	 0.0141078945	 0.121239
H	 1.5219285533	-1.5091929499	-0.8810311363	 0.120386
H	 3.3685449462	 0.5846799853	 2.6670787847	 0.229517
H	 0.5689312659	-2.3952962306	 2.4252733704	 0.244437
H	-0.706042798	-1.3869236031	 2.5789815138	 0.243888
