21
gdb 113895	3.99409	0.74867	0.72385	4.1366	80.33	-0.2324	0.0378	0.2703	1651.6038	0.182632	-420.426196	-420.416167	-420.415223	-420.462331	36.539	
C	-0.6527613561	 1.224639167	 0.1293835168	-0.378954
C	 0.3968333522	 0.1289680311	-0.0920594816	-0.183913
C	 0.7489055073	-0.5832232495	 1.1939451876	-0.002716
N	-0.1684914919	-1.6449273164	 1.6529998618	-0.344918
C	 1.225708075	-1.9912528693	 1.2974767306	-0.034025
C	 1.4354794889	-2.9220825847	 0.117209724	-0.307529
C	 0.955299723	-4.3562328961	 0.3799184198	 0.367913
N	-0.3672410681	-4.4362435485	 0.7047212974	-0.505193
O	 1.6806928887	-5.3252919524	 0.2686418471	-0.362222
H	-0.2919733084	 1.9859949233	 0.8300026061	 0.112885
H	-0.9027162929	 1.7281847652	-0.8090301574	 0.115911
H	-1.572412654	 0.7979177414	 0.5416336257	 0.127766
H	 0.0179405209	-0.5926903046	-0.8218207552	 0.107462
H	 1.3098936189	 0.5641312499	-0.5181686237	 0.102242
H	 1.1240003216	 0.0846005141	 1.9702928041	 0.085787
H	-0.2818421734	-1.6169560937	 2.6619823251	 0.236131
H	 1.8920299937	-2.1991207074	 2.1333525788	 0.096455
H	 0.9069261693	-2.5441321841	-0.7629342946	 0.120717
H	 2.4981911015	-2.9819923003	-0.1269139881	 0.126674
H	-0.8713270807	-3.594303616	 0.9471019551	 0.267577
H	-0.7314292155	-5.3360823289	 0.9723770905	 0.251949
