16
gdb 70138	2.43032	2.01255	1.26674	3.2827	70.99	-0.2204	-0.0081	0.2123	968.0241	0.125872	-437.92188	-437.91449	-437.913546	-437.953387	29.654	
O	 0.0310169413	 1.351676431	-0.0918749568	-0.475096
C	-0.0014372996	-0.033745435	-0.0513691057	 0.331151
C	-0.5067551173	-0.7669061491	-1.2678024328	-0.338936
C	-1.3526491394	-0.7496901195	-0.0030344388	-0.169499
C	-1.4152725889	-1.9793665606	 0.8117952392	-0.092648
C	-0.3068314474	-2.5088078964	 1.3382913418	-0.02219
N	 0.9421396429	-1.8786746017	 1.2353108354	-0.354944
C	 1.1177460723	-0.6046525328	 0.7566594926	 0.365146
O	 2.1178886658	 0.0582070735	 0.9901658808	-0.398148
H	 0.9315221032	 1.5802239017	 0.1896954579	 0.296004
H	-0.8196263827	-0.1131309997	-2.0734067917	 0.134748
H	-0.0532120372	-1.705774803	-1.5654704406	 0.124656
H	-2.2258200273	-0.1063566756	-0.0210339221	 0.111352
H	-2.365798416	-2.4784407584	 0.9541651041	 0.105071
H	-0.2949219005	-3.4397107257	 1.8905314813	 0.123652
H	 1.7143363607	-2.2292967286	 1.7827407255	 0.25968
