19
gdb 73558	2.55448	1.79865	1.41259	2.7783	77.05	-0.2457	0.0034	0.2492	999.2349	0.159932	-423.036282	-423.028354	-423.027409	-423.068688	30.755	
C	-0.1162460798	 1.8173920701	-0.0029904843	-0.41623
C	 0.0321222381	 0.2992984059	 0.0646771647	 0.430155
O	 0.7992230394	-0.1211395509	-1.0625704371	-0.294469
C	 2.018459799	-0.739036308	-0.6240694841	-0.06715
C	 2.2156663601	-0.3503948134	 0.86999045	-0.343303
C	 0.7749495646	-0.2889113472	 1.2412081462	 0.215702
C	-0.0652114441	-0.9621990018	 2.015284804	-0.237594
C	-1.4453194209	-0.8866104425	 1.4085433254	-0.126225
O	-1.2605423453	-0.2846146893	 0.124781538	-0.296006
H	 0.8611919212	 2.3080998097	 0.0117849586	 0.109056
H	-0.6210390781	 2.0828832352	-0.9357813291	 0.135137
H	-0.7134896377	 2.183373676	 0.8368642409	 0.114409
H	 1.9416883702	-1.8309055588	-0.7166449584	 0.10455
H	 2.8288364289	-0.3908441573	-1.2715245735	 0.108448
H	 2.7965469188	-1.0892298574	 1.4249152258	 0.115497
H	 2.7145585222	 0.622041259	 0.950855292	 0.118318
H	 0.1715225407	-1.5747431734	 2.8762627272	 0.107386
H	-1.8812164492	-1.8873639183	 1.283214937	 0.115379
H	-2.1583247281	-0.2927155478	 2.0023020365	 0.10694
