18
gdb 35527	3.07175	1.48628	1.39013	4.6056	74.38	-0.2667	0.0173	0.284	996.1725	0.15093	-401.97561	-401.968523	-401.967579	-402.007175	28.278	
N	-0.1557556869	-1.16119047	-0.217919994	-0.334319
C	-0.0858165596	-0.0138223605	-0.1001172651	 0.286828
C	 0.0050517111	 1.4487303885	 0.0171532855	-0.016406
O	-0.582464343	 1.8930917842	 1.2501606952	-0.284927
C	 0.4326955241	 2.6765149288	 1.9177444416	 0.112398
C	 1.494748051	 1.7125212756	 2.4754658839	-0.217563
C	 2.2314004388	 1.255784572	 1.1727314941	-0.23213
C	 1.4529575247	 2.0026361299	 0.0640461883	-0.052381
C	 1.154260697	 3.3547688932	 0.7468877984	-0.238328
H	-0.553320621	 1.8805154497	-0.8250041756	 0.122862
H	-0.0724427757	 3.3093928661	 2.6468216466	 0.085549
H	 2.1675360326	 2.220513907	 3.1727561837	 0.102528
H	 1.0183723549	 0.8851548671	 3.0050332306	 0.12311
H	 3.2777120755	 1.5725956492	 1.1703500063	 0.104841
H	 2.2149660962	 0.1729684988	 1.0333833647	 0.133871
H	 1.9351796185	 2.0259486591	-0.9129214833	 0.085888
H	 0.5031565576	 4.0157046942	 0.1696019883	 0.110107
H	 2.0608611243	 3.8898388471	 1.0395887808	 0.108072
