17
gdb 108417	2.13304	1.41492	1.00845	2.418	69.85	-0.2377	-0.0248	0.2129	1191.8636	0.134219	-458.915006	-458.906272	-458.905327	-458.94905	31.582	
O	 0.6862837328	 0.2587090092	-0.6485886714	-0.402854
C	-0.2067066325	 0.3125583992	 0.4456518245	-0.182193
C	-1.4663111996	-0.4788678022	 0.2085830244	 0.408268
O	-2.4623959964	-0.4349333972	 1.2356615163	-0.319448
C	-2.7396537207	-1.8521094427	 1.0332831846	-0.104944
C	-1.7822260077	-1.8981658577	-0.1493366934	-0.198029
C	-2.0909530492	-0.7637477116	-1.1460012568	-0.187114
C	-3.4496773861	-0.3097015034	-1.5235104641	 0.15023
O	-3.7586237852	-0.0030845435	-2.6516440683	-0.27247
H	 0.3410398351	 0.827659489	-1.3440110518	 0.295797
H	 0.325605514	-0.1044342178	 1.3070733005	 0.128766
H	-0.4899543658	 1.3434169587	 0.7084328498	 0.114197
H	-2.3823708079	-2.4326681235	 1.8902733943	 0.123887
H	-3.8024231406	-2.0530272582	 0.8676351697	 0.119307
H	-1.1381194964	-2.7178337327	-0.4352713044	 0.122282
H	-1.3802589405	-0.7547494405	-1.9665396102	 0.113829
H	-4.1800725734	-0.241959235	-0.6921181639	 0.090488
