20
gdb 77943	3.08837	1.35837	1.08442	0.206	80.44	-0.2373	0.0766	0.3139	1163.5491	0.171033	-403.055571	-403.047158	-403.046214	-403.087938	33.448	
C	-0.1493901688	 1.6082436172	-0.0012628825	-0.45121
C	-0.0316477871	 0.0904070488	 0.0147633441	 0.073205
C	 1.1112394164	-0.69822925	-0.7264828219	-0.207627
C	 2.086947663	-0.3712480738	 0.44069377	 0.156222
O	 2.6478633604	 0.9171552862	 0.4693847225	-0.440237
C	 0.7199582146	-0.7049068471	 1.1424758296	-0.210593
C	 0.6864228784	-1.8854417611	 0.1574879446	 0.456963
C	-0.1952069783	-3.0364256316	-0.0518475027	-0.356093
N	 1.2439309129	-3.2112438561	 0.3239220691	-0.414353
H	 0.794576001	 2.1091782941	 0.1984965157	 0.144337
H	-0.5212220765	 1.9419713761	-0.9771409639	 0.108414
H	-0.8838331516	 1.9288098974	 0.7472301146	 0.106592
H	-1.0161275679	-0.3442324848	-0.1954193154	 0.067045
H	 1.3365798026	-0.7098946025	-1.7945817636	 0.069658
H	 2.8619618717	-1.1297183199	 0.6082888997	 0.07822
H	 3.1561938668	 0.9988062799	 1.2822275609	 0.284833
H	 0.5004985668	-0.72957456	 2.2106658633	 0.070515
H	-0.8997739213	-3.3475561414	 0.7147617307	 0.121248
H	-0.4936584643	-3.2874532302	-1.0669474491	 0.113407
H	 1.7789310811	-3.4837485112	-0.4982126057	 0.229453
