18
gdb 23182	2.41811	1.55569	1.04822	0.9696	76.15	-0.2266	0.003	0.2296	1146.3795	0.147169	-439.035517	-439.027199	-439.026255	-439.06851	31.915	
O	-0.1194345469	 1.3376460583	 0.032762353	-0.39286
N	 0.0270238034	-0.0597942396	 0.1021395931	-0.242741
C	-1.1000766004	-0.6440349969	 0.0377555889	 0.325275
C	-2.4854952381	-0.0564463544	-0.0859023512	-0.326213
C	-3.321546064	-1.3108164922	-0.3944512481	-0.106216
O	-2.6191605974	-2.3953379703	 0.2138123307	-0.293991
C	-1.2451797452	-2.1261510284	 0.0696136278	 0.382374
C	-0.3967588444	-3.0291219163	-0.8044930851	-0.318603
C	-0.2728557774	-3.0641146959	 0.7037825026	-0.327339
H	 0.7929915788	 1.6409114165	 0.0893837194	 0.306793
H	-2.7771652543	 0.4032886302	 0.8652116971	 0.136799
H	-2.5360603929	 0.7178713255	-0.8546468202	 0.134275
H	-4.3279368108	-1.2900203662	 0.0284350962	 0.11441
H	-3.3993162735	-1.4649803568	-1.481465871	 0.099917
H	-0.9093247168	-3.8560506958	-1.2831033205	 0.122319
H	 0.3992818541	-2.5662177572	-1.3768461071	 0.12585
H	 0.6063859427	-2.6242471392	 1.1608740167	 0.132945
H	-0.6964718867	-3.9167997714	 1.2225042877	 0.127007
