18
gdb 7479	4.05739	1.24996	1.15743	1.3896	67.93	-0.2493	-0.0283	0.221	1074.245	0.151641	-384.926845	-384.918197	-384.917253	-384.960886	30.418	
C	-0.2186621588	 1.5772486024	 0.0964589586	-0.467105
C	 0.0371425445	 0.0769034325	-0.0023523498	 0.269519
C	-1.2336642759	-0.701478636	-0.3885375519	-0.330858
C	-1.7987814727	-0.2969361711	-1.7321678408	 0.157883
O	-2.9442516741	 0.0155832413	-1.9321956051	-0.239387
C	 1.3009955995	-0.3686546026	-0.790802832	-0.112506
O	 1.7872997501	-1.1292876149	 0.3302008798	-0.271147
C	 0.7761002392	-0.5763201754	 1.1948847607	-0.112926
H	 0.6867859279	 2.1116811476	 0.3996146127	 0.122224
H	-0.548422592	 1.9939387622	-0.8618098565	 0.129336
H	-1.0014543719	 1.7930327236	 0.832109416	 0.127779
H	-0.9867389015	-1.7716272923	-0.4445868066	 0.129337
H	-2.0171778776	-0.5747014922	 0.365535257	 0.120809
H	-1.0608742178	-0.3108510864	-2.5688146539	 0.074751
H	 1.1483653476	-0.9972258459	-1.6763242362	 0.101985
H	 1.977760865	 0.4559989725	-1.0539192487	 0.099254
H	 1.1960351427	 0.1448888222	 1.9099395396	 0.097007
H	 0.2339486358	-1.3531943077	 1.7469524772	 0.104044
