12
gdb 129527	5.38743	1.00846	0.85243	5.5682	58.58	-0.2756	-0.0685	0.2071	1222.8714	0.077686	-502.099325	-502.091642	-502.090698	-502.132585	27.218	
N	-0.162269586	 1.3884794408	 0.0116607519	-0.571707
C	 0.1460830402	 0.0435437588	 0.0335969432	 0.474758
O	 1.2590398103	-0.402643956	 0.1549104747	-0.331568
N	-1.0012753245	-0.7628143746	-0.0536889904	-0.452511
C	-1.007439132	-2.1321651453	-0.0360274797	 0.556897
N	-0.0030975325	-2.9620050104	-0.1239357585	-0.164556
O	-0.6184168279	-4.1883612851	-0.0741973285	-0.135207
N	-1.9728190593	-4.0243775995	 0.0399629797	 0.054621
N	-2.2234548459	-2.7897522282	 0.0644731513	-0.241862
H	 0.6494348969	 1.9796322311	-0.0809116861	 0.276265
H	-0.9749664659	 1.7026951163	-0.4957851718	 0.25965
H	-1.9131717135	-0.3478529779	 0.0634893242	 0.275221
