18
gdb 22941	2.57927	1.50907	1.07549	1.4196	76.02	-0.2233	0.0061	0.2294	1125.8765	0.147259	-439.044538	-439.036017	-439.035073	-439.077445	32.884	
O	-0.0207376147	 1.2547783755	 0.0251763737	-0.393937
N	 0.0193099897	-0.1434132256	-0.0983648955	-0.269863
C	-1.1409186947	-0.6668205435	-0.0518582148	 0.350624
C	-2.4901154637	-0.0295468689	 0.1760492532	-0.332792
C	-3.3141311673	-1.1325769521	 0.8971728753	-0.224768
C	-2.6256810033	-2.4505895805	 0.5587140211	-0.109564
C	-2.36443776	-2.7301786183	-0.9036697264	-0.344355
C	-1.261354512	-2.1447098935	-0.0551359467	 0.385846
O	-0.1177567054	-2.8991525932	 0.1517853225	-0.477803
H	 0.9130310066	 1.4897480137	 0.0044718524	 0.307233
H	-2.393759486	 0.8885853809	 0.7581119171	 0.13718
H	-2.9379220442	 0.2534180878	-0.7837180779	 0.128362
H	-3.2808331879	-0.9709646118	 1.9797634441	 0.111024
H	-4.3678321783	-1.1166968342	 0.5991303869	 0.103566
H	-2.7369709215	-3.2980398199	 1.2249456434	 0.097808
H	-2.2044553703	-3.7687978048	-1.1715423016	 0.128586
H	-2.8475467433	-2.1328528679	-1.671184517	 0.111995
H	 0.5845852462	-2.2667481737	 0.3534727102	 0.290858
