19
gdb 98596	2.97	1.06589	1.01387	2.6441	73.99	-0.242	0.0006	0.2426	1292.5506	0.15762	-460.185405	-460.175708	-460.174764	-460.220289	34.799	
C	-0.1966907196	 1.3684991244	 0.0089851693	-0.243215
O	-0.214738037	-0.0439088337	-0.2405173165	-0.235423
C	 0.9047241742	-0.5525899945	-0.7812389223	 0.496884
O	 1.8732589579	 0.1389190093	-1.0549815097	-0.413889
C	 0.8184735179	-2.0104787002	-0.9600385763	-0.256045
C	 1.3467787847	-2.6810362207	-2.2514065104	-0.062486
C	 1.8205545139	-1.8910601592	-3.4495088701	-0.418338
C	 2.1476727861	-2.7906252095	-0.9974659768	 0.122526
O	 3.3551169332	-2.1397704604	-0.8276605077	-0.424381
H	 0.614511281	 1.6285593623	 0.693211642	 0.144428
H	-0.0623945523	 1.9229994273	-0.922975285	 0.142967
H	-1.1634633529	 1.6002188815	 0.4554301008	 0.136429
H	-0.0401096545	-2.4689598586	-0.4861175152	 0.107307
H	 0.7673845866	-3.566115147	-2.5025875469	 0.097564
H	 2.3807370618	-1.0021962545	-3.1586595494	 0.144591
H	 2.4729913719	-2.5158533104	-4.0682770479	 0.124937
H	 0.9752052698	-1.5715413987	-4.0674211253	 0.117755
H	 2.1408489436	-3.7411585157	-0.4716995942	 0.109789
H	 3.1957619538	-1.1873353616	-0.9488226882	 0.308598
