16
gdb 100629	1.96443	1.21751	1.05303	3.7346	70.78	-0.2706	0.0084	0.279	1234.9781	0.121304	-437.846148	-437.836215	-437.83527	-437.881246	35.325	
O	 0.2965125326	 0.4103269537	 0.9345677783	-0.405051
C	-0.1473395467	 0.3447278987	-0.4105390052	-0.123209
C	-1.505327444	-0.3609345404	-0.5443013339	 0.090888
O	-1.9669405093	-0.3577581155	-1.8705319879	-0.420037
C	-1.4426947548	-1.8017265267	 0.0731029364	-0.332261
C	-2.7681912661	-2.3731204981	 0.2917220525	 0.317384
C	-3.8671525014	-2.8142987885	 0.4853111364	-0.40395
C	-0.6292035967	-2.6543416636	-0.8069668422	 0.278825
N	 0.0202432553	-3.2603848125	-1.5462764272	-0.328682
H	-0.2159989234	 1.0859753275	 1.3900427	 0.293712
H	-0.2289532373	 1.336018754	-0.8748664431	 0.114243
H	 0.6174002619	-0.217220064	-0.9596038119	 0.132331
H	-2.2560754602	 0.1868457523	 0.0358726768	 0.106199
H	-1.3552352662	-0.8739899997	-2.4114589604	 0.300832
H	-0.9123001054	-1.7012021841	 1.0290844237	 0.170327
H	-4.8379484882	-3.2128822932	 0.6500810477	 0.208449
