18
gdb 98623	2.97412	1.30483	1.05813	3.0021	72.94	-0.2341	0.0302	0.2643	1169.2977	0.148031	-439.067251	-439.058679	-439.057735	-439.101257	31.155	
C	-0.4921223234	 1.3476756278	-0.4966603018	-0.335612
N	-0.8775726735	-0.0480193371	-0.5512135139	-0.330064
C	-1.0636196793	-0.7911194555	 0.5741141121	 0.401746
O	-0.9425658218	-0.3524748602	 1.7065013201	-0.39438
C	-1.4339252717	-2.243517407	 0.3643398373	-0.127701
C	-2.7562571846	-2.7792044005	-0.1840525001	-0.141012
C	-3.167044883	-2.0190020454	-1.4381952222	-0.10111
O	-1.8508640011	-2.22809498	-2.0392229384	-0.293924
C	-1.4601149592	-3.0316805965	-0.9121960396	 0.048741
H	 0.5242522575	 1.5005737229	-0.8788342443	 0.12391
H	-1.17857827	 1.9692871454	-1.0817892422	 0.120592
H	-0.5254099107	 1.6596993646	 0.547691668	 0.167368
H	-0.962822756	-0.5207910174	-1.4410543902	 0.261589
H	-1.1100848207	-2.8343613115	 1.2163951678	 0.123206
H	-3.3881547164	-3.4409750655	 0.391227819	 0.113498
H	-3.9291272015	-2.5359059834	-2.0292673056	 0.123882
H	-3.4146116669	-0.9571738704	-1.343136743	 0.1222
H	-0.8749231778	-3.9209352203	-1.1153004029	 0.117072
