19
gdb 44633	2.84482	1.61287	1.43265	2.8605	77.78	-0.2358	-0.0208	0.215	990.2898	0.160458	-385.860319	-385.85309	-385.852146	-385.892304	29.251	
O	 0.2422369399	 0.0494952798	-0.6595648756	-0.301096
C	 0.1169179895	 1.169526797	-0.2562797395	 0.40634
C	-1.096990477	 2.0022891966	 0.2148812968	-0.371114
C	-0.1313691455	 3.1921236322	 0.4805820162	-0.042381
C	 0.5628808565	 3.3174936475	 1.8773092741	-0.018819
C	 0.2591378688	 2.2659941392	 2.9785734481	-0.238169
C	 1.4064054545	 1.3559253236	 2.4307162556	-0.247835
C	 1.7554056057	 2.4412471906	 1.3704050301	-0.017711
C	 1.084820893	 2.3437559829	-0.0450203654	-0.162839
H	-1.7877115412	 2.1888844442	-0.6148945117	 0.131768
H	-1.6763470331	 1.5917563082	 1.0460972408	 0.128505
H	-0.4125049685	 4.1359176237	 0.0147361059	 0.074907
H	 0.7033917391	 4.3464385459	 2.21138252	 0.067751
H	 0.4649690398	 2.6471854472	 3.9817763066	 0.103817
H	-0.7456886327	 1.8363684771	 2.9893218394	 0.101732
H	 2.2070532039	 1.1783253098	 3.1521166749	 0.102748
H	 1.0996557269	 0.3881472079	 2.0271094689	 0.122268
H	 2.7847197971	 2.8003402633	 1.3584537512	 0.073122
H	 1.7097616331	 2.6213003233	-0.8955864163	 0.087009
