11
gdb 133416	6.17722	1.04834	0.89624	2.281	69.83	-0.2579	-0.0904	0.1675	1146.7554	0.064791	-455.65915	-455.652228	-455.651284	-455.690818	25.523	
F	 0.0084916432	 0.057333089	 0.0033104527	-0.046101
C	-0.0234905119	 1.3761840836	 0.0106725313	 0.351052
C	-1.2510140253	 2.0453754997	 0.0304933741	-0.134648
N	-1.2659631174	 3.3623162481	 0.037744041	-0.246644
C	-0.0539507409	 3.958825222	 0.024941391	 0.201421
N	 1.1295430394	 3.3272388053	 0.0059357307	-0.219836
N	 1.1320024363	 1.998259836	-0.0012279975	-0.227576
C	-0.0163640298	 5.3857383245	 0.0320585147	 0.296897
C	 0.0118768019	 6.5870575248	 0.038097279	-0.339216
H	-2.1940093129	 1.5052516684	 0.0400980679	 0.153018
H	 0.0390074174	 7.6493178487	 0.0434098351	 0.211633
