21
gdb 73427	2.86181	1.88873	1.39365	0.0584	84.48	-0.2011	0.0831	0.2842	1000.2531	0.184938	-349.909681	-349.90225	-349.901306	-349.941467	30.869	
C	-0.0272310614	 1.4589070989	 0.0883925403	-0.464346
C	-0.0155152772	-0.0567674239	 0.0095569689	 0.326518
C	-1.2537078587	-0.6340890854	-0.6543746511	-0.277984
C	-1.2579516445	-2.177376037	-0.7425539966	-0.243711
C	-0.0149777953	-2.7966849748	-0.1431227095	-0.039133
C	 1.3652959902	-2.2032369098	-0.2614399209	-0.097179
C	 0.6743691403	-2.2788457501	 1.0929696937	-0.097207
C	 0.6704098706	-0.7289677958	 1.1777265505	-0.112169
C	 1.3615013048	-0.65332978	-0.1771720218	-0.112237
H	 0.8778337345	 1.8430678864	 0.5701978006	 0.112347
H	-0.0884945326	 1.9026849908	-0.9122474717	 0.113462
H	-0.890035331	 1.8145273976	 0.6637906764	 0.113477
H	-2.1340506466	-0.2847422287	-0.1009825053	 0.094477
H	-1.339971462	-0.1980129952	-1.6572134065	 0.094483
H	-2.1374882508	-2.5834078613	-0.229875738	 0.097489
H	-1.3429760535	-2.4965683134	-1.7876232046	 0.097487
H	 0.0018751198	-3.8836626887	-0.1952418348	 0.079735
H	 2.2152548589	-2.771181601	-0.6182854803	 0.080425
H	 0.9116000828	-2.9138292557	 1.9372742464	 0.080423
H	 0.9140976115	-0.1890205224	 2.0847154097	 0.076822
H	 2.2129139503	-0.0469248206	-0.4616410755	 0.076822
