23
gdb 111789	2.48655	1.39602	1.14803	1.0603	85.59	-0.244	0.0907	0.3347	1217.5703	0.207144	-388.276971	-388.268093	-388.267149	-388.310344	34.486	
C	-0.8050003953	 1.0445715512	-0.0760160397	-0.244293
O	-0.9301973559	-0.3056321239	-0.4609628433	-0.253563
C	 0.0520047778	-0.7171300843	-1.3728850626	 0.178672
C	 1.4768029631	-1.1187213077	-0.8674193027	-0.08426
C	 1.1309970059	-2.102310213	 0.2675763683	-0.213417
C	 0.0039816649	-2.9260881531	-0.4465492938	-0.211263
C	-0.0103706306	-2.1988352706	-1.8066226648	-0.083264
C	 1.5210190391	-2.0728885144	-2.1066216518	 0.047073
C	 1.9556820042	-1.4993810757	-3.451511514	-0.436672
H	 0.1441843132	 1.2398015961	 0.4450997128	 0.107769
H	-0.865167289	 1.7209313315	-0.9434090317	 0.103205
H	-1.6313842462	 1.2691173387	 0.6028392569	 0.1253
H	 0.0894413861	-0.022103416	-2.2196340851	 0.060824
H	 2.2618258248	-0.3829482308	-0.6854877825	 0.05064
H	 1.9907003526	-2.7158417044	 0.5515493868	 0.089208
H	 0.7629170857	-1.5929687182	 1.160926854	 0.100283
H	 0.2578632114	-3.98425806	-0.555954956	 0.088206
H	-0.953730051	-2.8504095505	 0.0711470596	 0.109072
H	-0.7215945044	-2.5430689541	-2.5588334019	 0.054971
H	 2.0765055055	-2.9992842474	-1.9216605831	 0.062989
H	 1.4467332725	-0.5682316011	-3.7137539131	 0.118462
H	 3.032238097	-1.2947165162	-3.4514592171	 0.114544
H	 1.7593452985	-2.217071986	-4.2558523953	 0.115513
