16
gdb 30189	3.95321	1.31892	1.09522	2.9236	70.33	-0.2265	0.0057	0.2322	1075.3366	0.126855	-437.913043	-437.905913	-437.904969	-437.945093	27.387	
O	 0.027491397	 1.3667786796	-0.1406280952	-0.426202
C	-0.0140016938	-0.0373794971	 0.0582682354	 0.122925
C	 0.5969823994	-0.4381358448	 1.4629760204	-0.383657
C	-0.6506329828	-0.7168849426	 2.2132491958	 0.31517
C	-1.7837948734	-0.7284051351	 1.4905137473	 0.245009
C	-1.5305854235	-0.4394280817	 0.0467337443	-0.348488
N	-2.8605231211	-1.0313468783	 2.3112686279	-0.341148
C	-2.3071959496	-1.178755908	 3.4746313311	 0.033289
O	-0.9496380528	-1.0065978972	 3.5091225609	-0.200035
H	 0.950262356	 1.6382852814	-0.179937818	 0.283328
H	 0.5304436933	-0.5509869139	-0.7449208825	 0.071967
H	 1.2573991991	-1.3111367465	 1.3867358935	 0.116576
H	 1.1904956978	 0.392759988	 1.8612832486	 0.114702
H	-2.1107758465	 0.3958805467	-0.355200637	 0.13619
H	-1.7109467948	-1.3084610395	-0.5959107592	 0.113898
H	-2.7790076344	-1.4156016311	 4.4152533365	 0.146476
