22
gdb 92764	3.6575	0.95916	0.82732	1.7393	90.32	-0.2195	0.0194	0.2389	1467.7262	0.195765	-367.206545	-367.197708	-367.196764	-367.24033	34.009	
C	 0.0366392943	 1.5855003094	-0.0287011532	-0.404924
C	 0.1535478679	 0.0655321025	 0.0595738292	 0.045363
C	 0.7582715536	-0.6168669999	-1.1961164861	-0.261127
C	 1.4492825918	-1.8283241865	-0.6249629601	-0.193296
C	 1.6026159393	-1.7538682554	 0.7019775163	 0.370648
C	 1.0316825838	-0.4484197406	 1.2300250505	-0.337604
C	 2.276965768	-2.7626514529	 1.5411370035	-0.099343
C	 2.9239638165	-2.3942097058	 2.8337221164	-0.247718
N	 1.6978051369	-3.1991804381	 2.8365644828	-0.322422
H	 1.0206688218	 2.0482148895	-0.1675360896	 0.11302
H	-0.5942415527	 1.8865742208	-0.8718989326	 0.113743
H	-0.4039296315	 2.0067749666	 0.8814729376	 0.111693
H	-0.8502940752	-0.3544196589	 0.201369563	 0.078007
H	-0.0037567024	-0.8631239168	-1.9447888933	 0.100759
H	 1.479943999	 0.0445774199	-1.7007738246	 0.100503
H	 1.8139079604	-2.645299898	-1.2391291468	 0.086454
H	 1.8454563354	 0.2583249682	 1.4523806588	 0.104128
H	 0.4571803437	-0.5542961207	 2.1587053718	 0.092995
H	 2.7098584951	-3.5896508155	 0.9830796924	 0.086709
H	 3.8198326003	-2.9201497615	 3.152272945	 0.119244
H	 2.8722759921	-1.3565562511	 3.1519077064	 0.113013
H	 0.900690662	-2.6100413152	 3.0661615124	 0.230153
