16
gdb 56365	2.07671	1.44863	1.25028	4.0169	74.27	-0.2821	0.006	0.2881	1102.616	0.121282	-400.696086	-400.686771	-400.685827	-400.730175	33.64	
C	-0.0721481954	 1.4361927854	-0.1420023813	-0.411639
C	 0.0275587432	-0.0996198542	 0.0688833866	-0.136672
C	 0.7157306901	-0.408599077	 1.3274113521	 0.335962
C	 1.3203089201	-0.6431952524	 2.3375116504	-0.448381
C	-1.3344263306	-0.6678445137	 0.101759917	 0.304929
N	-2.4030606775	-1.1049711153	 0.1275880768	-0.34873
C	 0.8333528924	-0.7054431695	-1.0975343484	 0.084839
C	 0.4947118083	-1.9665035327	-1.759371273	-0.18868
O	 0.2058724961	-0.6956277151	-2.3655236879	-0.234869
H	 0.9332212445	 1.864052886	-0.1482008531	 0.136148
H	-0.5584755369	 1.6390282915	-1.0983459588	 0.158025
H	-0.6457400693	 1.8968550731	 0.663932045	 0.147842
H	 1.8397081222	-0.8583422361	 3.2390571279	 0.21229
H	 1.8719290158	-0.3732537163	-1.0857654398	 0.113845
H	 1.28319897	-2.5409665561	-2.241304682	 0.126507
H	-0.3767168231	-2.5304745175	-1.4361886414	 0.148584
