17
gdb 86025	3.46485	1.18374	1.12122	2.4555	76.01	-0.2535	-0.0119	0.2415	1131.5072	0.134493	-421.791243	-421.782557	-421.781613	-421.824263	33.729	
O	-0.6732757544	 1.3751808805	-0.8245591166	-0.442222
C	-0.0033859743	 0.3373755315	-0.1167466706	 0.090732
C	-0.9580170833	-0.7513666604	 0.4201843675	-0.261289
C	-1.0239451427	-1.7884456981	-0.7247359993	 0.160095
O	-2.0644890983	-1.3271189221	-1.6160347814	-0.457352
C	 0.3422480883	-1.6185309681	-1.3847631716	-0.126476
C	 0.8981595794	-0.4578064666	-1.0448990728	-0.096357
C	-1.2951266686	-3.1583026793	-0.29106333	 0.266935
C	-1.5128468312	-4.2956522583	 0.0323771823	-0.439295
H	-1.2168716393	 0.9358376921	-1.4919916961	 0.284762
H	 0.5399372193	 0.8416925056	 0.6871371028	 0.081818
H	-0.5345341297	-1.2238230332	 1.3094857376	 0.117247
H	-1.9474755598	-0.35893361	 0.6599546781	 0.124219
H	-2.0890616908	-1.9205087343	-2.375638728	 0.282734
H	 0.7307075798	-2.3495486028	-2.084742832	 0.106551
H	 1.8244880935	-0.0571055551	-1.4401672805	 0.109448
H	-1.7086047979	-5.2962824616	 0.3301781607	 0.198449
