13
gdb 125468	5.50312	1.3208	1.07226	4.0832	67.25	-0.2445	-0.0408	0.2036	1039.6634	0.090753	-452.741657	-452.73494	-452.733996	-452.773139	24.783	
C	-0.0062307061	 1.4519674836	 0.0427575653	-0.493244
C	-0.0156850891	-0.0277964042	-0.0536813345	 0.362243
N	-0.1643548464	-0.7583751236	-1.1284764159	-0.390236
C	-0.0900562158	-2.0269296156	-0.6216561252	 0.404694
C	 0.098198345	-2.0272602246	 0.7222201891	 0.18608
O	 0.1513865306	-0.7246769832	 1.1275081725	-0.225474
C	 0.1509017675	-3.383585057	 1.0863801402	-0.121562
N	 0.0010608078	-4.1341951283	 0.0061626961	-0.132905
O	-0.1557011729	-3.2643859786	-1.1053745854	-0.22377
H	 0.9424326192	 1.8082766947	 0.4568563142	 0.157672
H	-0.1461101344	 1.8730908453	-0.9525562061	 0.167851
H	-0.807284547	 1.8037521488	 0.7007835506	 0.157685
H	 0.2850462916	-3.8730082473	 2.0389871592	 0.150966
