19
gdb 128316	3.18529	1.21278	0.89406	2.725	80.91	-0.1773	0.0411	0.2184	1316.6874	0.160115	-415.40391	-415.393768	-415.392824	-415.439073	35.897	
C	 0.1156990874	 1.455993391	-0.0119999004	-0.310599
N	-0.1501348742	 0.0310806109	-0.1209140405	-0.379748
C	 0.5174031788	-0.6816510667	-1.1032828681	 0.40981
N	 1.1079820204	-0.1092082578	-2.1456877316	-0.330478
N	 1.5767097894	-1.161905167	-2.8731907083	-0.291931
C	 1.3034270755	-2.3721523127	-2.317530669	 0.347053
C	 1.7342874768	-3.666231657	-2.9226170357	-0.510072
C	 0.6091768304	-2.1010525363	-1.1528298013	-0.031973
N	 0.1099733622	-2.9633821243	-0.1425249225	-0.630315
H	 1.1761943478	 1.6923551618	 0.1643732038	 0.109817
H	-0.1786444157	 1.9509646134	-0.9409897893	 0.142805
H	-0.4818486948	 1.867514007	 0.8054778724	 0.109614
H	-0.1359402537	-0.4673277778	 0.7594733621	 0.236735
H	 2.1145317614	-0.9740442918	-3.6999159546	 0.260569
H	 2.7977231082	-3.8774075874	-2.7542825544	 0.13575
H	 1.1623222147	-4.492246962	-2.489598872	 0.126076
H	 1.5633226603	-3.6801001023	-4.0046187593	 0.132408
H	 0.5580922225	-3.8716022879	-0.1602282781	 0.233887
H	-0.8920832573	-3.110531163	-0.2250931533	 0.240591
