20
gdb 109004	3.89538	1.03139	0.99655	1.5489	81.15	-0.2092	0.0138	0.2229	1289.7343	0.170969	-403.079246	-403.070774	-403.06983	-403.112259	33.	
C	-0.3239707717	 1.3430061153	 0.0222289616	-0.328511
N	 0.0187782783	-0.0742591576	 0.0555364127	-0.092764
C	 1.2092259861	-0.5053631644	-0.8036898013	-0.047074
C	 2.1718562101	 0.0168373933	 0.311599959	-0.22771
C	 0.9739751244	-0.5119698955	 1.163174613	-0.122506
C	 1.0323530403	-2.0151783376	 0.8389698675	 0.347724
C	 0.8684217026	-3.138547977	 1.8043406409	-0.202098
O	 0.753689608	-4.4035719829	 1.1791443733	-0.407057
C	 1.1957676831	-2.0046265026	-0.4884520849	-0.195083
H	 0.5098558704	 2.0575320782	 0.1216062856	 0.092706
H	-0.8325514518	 1.5537912888	-0.9248551396	 0.120273
H	-1.036822593	 1.5475247751	 0.8286390104	 0.119135
H	 1.2435548234	-0.1698320336	-1.8403447417	 0.066643
H	 3.1413776156	-0.4742479532	 0.4238040896	 0.097941
H	 2.290321927	 1.1021992641	 0.334705225	 0.100948
H	 0.7630929006	-0.1886992898	 2.1837799975	 0.064469
H	 1.7426133745	-3.21101229	 2.4657994289	 0.122749
H	 0.0068216918	-2.9313247146	 2.4637069753	 0.098844
H	 0.0142727472	-4.3465377597	 0.5640508164	 0.284412
H	 1.2776084231	-2.8220801763	-1.1887719993	 0.106958
