18
gdb 55422	2.56337	1.45159	0.99672	2.1818	72.6	-0.2467	-0.0324	0.2144	1175.8994	0.148692	-439.163948	-439.155585	-439.154641	-439.19744	31.756	
N	-0.1335105277	 1.3628103629	-0.0164506351	-0.521712
C	 0.0898544272	 0.0202411026	-0.0744201122	 0.378418
O	 1.1787093206	-0.4850781998	-0.2609393059	-0.353911
C	-1.1851875925	-0.8290943853	 0.0615001328	-0.20691
C	-0.944849247	-2.3409274521	 0.1573829654	-0.222054
C	-2.1491488612	-2.8767238166	 0.9627063386	-0.230115
C	-2.4306282754	-1.7741841718	 1.9945507278	-0.303188
C	-2.044642509	-0.4793096102	 1.2908047418	 0.395621
O	-2.3596073206	 0.6387614422	 1.6267201986	-0.33297
H	 0.6836905623	 1.9516130945	 0.0326559153	 0.256897
H	-0.9841295944	 1.6815470666	 0.430757361	 0.273543
H	-1.8166728073	-0.5847543438	-0.8048950267	 0.133501
H	-0.8451102518	-2.8140464971	-0.8210484974	 0.113399
H	-0.005264414	-2.5140893291	 0.6907225925	 0.129697
H	-3.0184372983	-3.0003813501	 0.3063217008	 0.107879
H	-1.9482796394	-3.8478216285	 1.4205661716	 0.110317
H	-3.4519512312	-1.7269621796	 2.3784791137	 0.13137
H	-1.7632509403	-1.8722383748	 2.8624529974	 0.140219
