18
gdb 39257	2.91252	1.8657	1.32373	2.3092	77.73	-0.2215	0.0088	0.2303	969.9069	0.150479	-401.932861	-401.925955	-401.925011	-401.964209	27.912	
C	-0.064516354	 1.4532644379	 0.3792565802	-0.077649
O	 0.8684804092	 2.0660486837	-0.5197981549	-0.280207
C	 1.8501924661	 1.1062767072	-0.908626894	 0.090703
C	 2.1893012776	 1.1580166772	-2.4169055623	-0.304769
C	 1.9154761338	-0.2519011298	-2.900220944	-0.079748
C	 1.3788417514	-1.0295179667	-1.9546304086	-0.202749
C	 1.2077469568	-0.2660171166	-0.7040733169	 0.33597
N	 1.1676829862	-0.724141197	 0.6940736932	-0.397842
C	-0.0137902745	-0.0426986754	 0.108998749	-0.131627
H	 0.2051825286	 1.6698201762	 1.4227030041	 0.104026
H	-1.0535136924	 1.8754951393	 0.1738748908	 0.105817
H	 2.7462218927	 1.2177296494	-0.2836748438	 0.080758
H	 1.5372774756	 1.8878326659	-2.9122125213	 0.126149
H	 3.2212175728	 1.4710363851	-2.6091637563	 0.10944
H	 2.1087254199	-0.5626817942	-3.9210490732	 0.099255
H	 1.073721775	-2.0628983337	-2.0742192973	 0.096192
H	 0.9933947918	-1.7284934739	 0.7228000503	 0.228342
H	-0.9275758165	-0.6049367346	-0.0500383852	 0.097937
