13
gdb 133252	3.25505	1.50319	1.03842	5.055	67.21	-0.2547	-0.0798	0.175	1049.7319	0.088678	-490.182275	-490.174502	-490.173558	-490.215747	27.328	
C	-0.0695117837	 1.4532339812	 0.003357052	-0.338445
N	-0.036451999	-0.0010190618	 0.0559027313	-0.108127
N	 0.0674076383	-0.6592099915	-1.1656251123	-0.047655
N	 0.1262868971	-1.9022129203	-1.1778741114	-0.200109
C	 0.0570584221	-2.6767335949	 0.0441411303	 0.408022
N	-0.0657332177	-3.9380554371	-0.0049658201	-0.483067
N	 0.1477148693	-1.9965925541	 1.2614922594	-0.347813
C	 0.0842103495	-0.736171036	 1.1927255851	 0.441109
F	 0.1538457326	 0.0032948257	 2.2854268203	-0.050924
H	 0.8358283309	 1.8840920764	 0.4391060343	 0.159085
H	-0.1339287055	 1.7242719713	-1.0503181001	 0.171504
H	-0.9425445528	 1.8353680243	 0.5371304689	 0.160271
H	-0.0934361409	-4.2270206533	-0.9838551578	 0.23615
