18
gdb 14447	3.31404	2.48559	2.00494	0.2579	75.93	-0.217	0.0093	0.2263	768.6541	0.15525	-310.621228	-310.614857	-310.613913	-310.651127	26.773	
C	 0.0041436139	 1.5053463166	-0.0281039034	-0.520689
C	 0.0175017999	 0.0019956495	-0.0321803643	 0.351788
C	 0.5592003329	-0.9515294954	-1.1269659828	-0.289724
C	 0.0270969201	-1.8900860033	-0.0225589677	-0.043884
C	 0.6293015262	-0.9482237724	 1.0806594152	-0.087569
C	-0.3441630018	-0.9467218459	 2.2462588419	-0.111648
C	-1.5449686258	-0.955875075	 1.660002033	-0.111645
C	-1.2245728687	-0.9622387093	 0.1755628454	-0.087572
H	 1.0204206055	 1.9087172417	-0.098590667	 0.117281
H	-0.5699025104	 1.8966877507	-0.8753448861	 0.117281
H	-0.4494892159	 1.8832533976	 0.8948200313	 0.123142
H	 0.0226023464	-0.95781813	-2.0810428531	 0.08475
H	 1.6415169261	-0.9455982645	-1.2906585799	 0.08475
H	 0.0271856242	-2.9831590609	-0.0058196675	 0.065162
H	 1.7063495093	-0.9421443813	 1.2576292293	 0.055824
H	-0.0899858223	-0.9345951733	 3.2969220016	 0.098464
H	-2.5298314196	-0.9531828844	 2.1057419682	 0.098464
H	-2.02652872	-0.9703624205	-0.564834404	 0.055824
