19
gdb 41705	3.80963	1.45018	1.23414	1.3287	79.93	-0.2094	0.0193	0.2287	1046.4117	0.162079	-385.888631	-385.881676	-385.880732	-385.919658	28.674	
C	 0.1819032171	 1.1956677781	 0.3988200458	-0.084236
C	 1.3989217522	 1.939112809	-0.1973549865	-0.350831
C	 2.0841476691	 0.8514370449	-0.9951453116	 0.32631
C	 3.1330257893	 1.0013748611	-2.0337590929	-0.188669
C	 3.8780357847	-0.1014114865	-2.1474732127	-0.082163
C	 3.4777813427	-1.1718918007	-1.1489966819	-0.294025
C	 2.2869593521	-0.5587291284	-0.4070361586	-0.156507
C	 1.045088347	-0.2287499732	-1.1908211889	 0.08061
O	-0.113349772	 0.0984989433	-0.4722911924	-0.268365
H	 0.4171979883	 0.8214941345	 1.4046768806	 0.100721
H	-0.7161310997	 1.8153250017	 0.4729216117	 0.109951
H	 1.0819209639	 2.7453409969	-0.8694389721	 0.107335
H	 2.0203698162	 2.3821304139	 0.5871005634	 0.10635
H	 3.2317204916	 1.8953441554	-2.6397005784	 0.092875
H	 4.6648582966	-0.2524148802	-2.8774656063	 0.094266
H	 3.2154510927	-2.1151060989	-1.6470334345	 0.111542
H	 4.3004694421	-1.4103745359	-0.4614638407	 0.108289
H	 2.1752355066	-0.7473208499	 0.6551114661	 0.088496
H	 0.8296584196	-0.6833917549	-2.1528474099	 0.098048
