24
gdb 76921	2.22394	1.25233	1.03954	1.2376	91.16	-0.2136	0.0833	0.2969	1343.4628	0.214881	-368.378854	-368.368306	-368.367362	-368.414193	39.605	
C	-0.3787696772	 1.4977912451	-1.5032499191	-0.420174
C	-0.1403823129	 0.1386805427	-0.8813974715	-0.03663
N	 1.1971739892	-0.3768302317	-0.5557560966	-0.142269
C	 2.3667756263	 0.4206068752	-0.7859278563	 0.081995
C	 3.6897428923	-0.2243342376	-0.4623489299	-0.274812
C	 3.2741815992	-0.0319691684	-1.9009883928	-0.276855
C	 0.2670205562	-0.0852086052	 0.5473426395	 0.309163
C	 0.5123348041	 1.0786659902	 1.4901884324	-0.456509
C	-0.2444110871	-1.3276464327	 1.2544459714	-0.437002
H	 0.1706463776	 2.3055046925	-1.0168647702	 0.11704
H	-0.09130743	 1.491042045	-2.5605731759	 0.125941
H	-1.444244635	 1.7469194349	-1.4537252579	 0.119143
H	-0.7780986674	-0.6303955073	-1.3210155768	 0.077085
H	 2.3094078982	 1.4966316886	-0.6269885662	 0.069562
H	 4.481871201	 0.3977013	-0.0605647595	 0.106135
H	 3.6511514751	-1.2320583997	-0.0657705332	 0.117363
H	 2.9615912815	-0.9127483708	-2.4493224008	 0.117852
H	 3.779506524	 0.7233370463	-2.4925687891	 0.10579
H	 0.8367414952	 1.9908510981	 0.9881581464	 0.11638
H	-0.4034245894	 1.3134339995	 2.0437998729	 0.117063
H	 1.2807317696	 0.8142780144	 2.2258661701	 0.122392
H	 0.4577473056	-1.6514270536	 2.0317030885	 0.112081
H	-1.2107795595	-1.1356841001	 1.7355241757	 0.107729
H	-0.3644413764	-2.1506971352	 0.5459359587	 0.121536
