16
gdb 27946	3.69781	1.13678	0.87419	4.2514	81.75	-0.2525	-0.0704	0.182	1272.5923	0.125134	-400.826734	-400.818651	-400.817707	-400.860298	29.008	
C	-0.0075125667	 1.5218618691	 0.0034029628	-0.4966
C	-0.0072183476	 0.0153591858	-0.004849104	 0.266222
C	 0.0460250316	-0.719910793	-1.1883936523	-0.243999
C	 0.0438371993	-2.1118925335	-1.1405714954	 0.153149
C	 0.0998135312	-2.9106541435	-2.3848677915	 0.099996
O	 0.1017846829	-4.1179875896	-2.4295270207	-0.264661
C	-0.0126497116	-2.7335020264	 0.1140673547	-0.042615
N	-0.0641024986	-2.0580276266	 1.2576390438	-0.27317
C	-0.060662911	-0.7216019115	 1.1818126991	-0.044871
H	 0.896159866	 1.9229644273	-0.4682184491	 0.140111
H	-0.8649854948	 1.9230490037	-0.5477020259	 0.140107
H	-0.053524482	 1.911186831	 1.0236549482	 0.13393
H	 0.0893509547	-0.2137739561	-2.1507718907	 0.108054
H	 0.1417486039	-2.3004336992	-3.3161369847	 0.072353
H	-0.0151790339	-3.8181990416	 0.1697969116	 0.140007
H	-0.1034939036	-0.1949155059	 2.1337514642	 0.111988
