16
gdb 23589	3.57472	1.4315	1.36071	1.5204	71.	-0.2345	0.0059	0.2404	973.5809	0.126327	-437.83054	-437.82389	-437.822945	-437.861497	27.171	
O	-0.1423691281	 1.3406433673	 0.02948608	-0.397125
N	 0.0301908907	-0.0598768584	 0.0135626027	-0.298265
C	-1.0846527301	-0.662100177	 0.005506321	 0.5093
C	-1.3146314312	-2.1264281962	-0.0014060865	-0.212219
C	-2.6199804216	-2.318266533	 0.8078042767	-0.124631
C	-3.0625156202	-0.928831897	 1.2702597919	-0.23222
C	-2.5369178895	-0.184904289	 0.0171817364	-0.055362
O	-3.1005450313	-0.9466016959	-1.067786537	-0.261228
C	-2.6671967734	-2.242317877	-0.6902415784	 0.101303
H	 0.7680092636	 1.6547226851	 0.0076809443	 0.307087
H	-0.5306291156	-2.8652480614	-0.066118356	 0.107103
H	-2.8184131866	-3.2266369468	 1.3592885235	 0.100757
H	-4.1474512504	-0.8426027208	 1.3746281671	 0.112195
H	-2.5712019569	-0.5947969748	 2.1875087635	 0.118354
H	-2.7370115242	 0.8731934686	-0.1051045796	 0.110735
H	-2.9538944852	-3.0343557238	-1.3664176696	 0.114219
