18
gdb 121769	2.89671	0.85147	0.67648	4.1568	79.7	-0.2365	-0.0333	0.2032	1633.3291	0.14623	-435.270719	-435.260327	-435.259383	-435.307017	35.717	
C	-0.2369544838	 1.4666023631	-0.074102104	-0.34033
N	-0.1279949664	 0.0266200218	-0.0022931916	-0.299303
C	 0.5689900232	-0.6234229995	-0.8487215629	 0.325792
N	 0.6280706865	-1.9929702552	-0.8646995835	-0.350451
C	 0.0652448234	-2.770182787	 0.224647274	-0.119924
C	 0.0938385857	-4.2426876289	-0.1503686817	-0.099842
O	 1.4471327189	-4.575330242	-0.4400088574	-0.42213
C	 1.3498272787	-0.0068507484	-1.9193640712	 0.228625
N	 1.9716572569	 0.5011844138	-2.7513654922	-0.335357
H	 0.3558768631	 1.9333550913	-0.8730366148	 0.128154
H	-1.2880695336	 1.7443195492	-0.2184197675	 0.130629
H	 0.0729959135	 1.8982490542	 0.8846102692	 0.131545
H	 1.4221221023	-2.4199347304	-1.3192452339	 0.264975
H	 0.6235643958	-2.6095357919	 1.1583450858	 0.119854
H	-0.9617709525	-2.4420926581	 0.4033805642	 0.135665
H	-0.2975496355	-4.8373582234	 0.6875761584	 0.101681
H	-0.5503869443	-4.4132282039	-1.0251118615	 0.103643
H	 1.4738345083	-5.459595985	-0.8160127794	 0.296774
