19
gdb 64013	2.51808	1.51937	1.2025	4.8437	77.62	-0.2586	-0.043	0.2156	1106.3312	0.158567	-423.086287	-423.077657	-423.076713	-423.119113	33.356	
C	 0.045209798	 1.4791082731	 0.1165195224	-0.413992
C	-0.0881975331	-0.033714918	-0.0409720309	 0.345355
C	-1.5629076751	-0.4420464103	-0.1536000373	-0.413816
C	 0.7341036402	-0.540785962	-1.2389248879	-0.291919
C	 1.013762731	-2.0109724045	-1.137596974	-0.066811
C	 1.0128074081	-2.6260096558	 0.0452764649	-0.182109
C	 0.8042171242	-1.8805612512	 1.3064768154	 0.406717
O	 0.9986990882	-2.3593759156	 2.3950803536	-0.339897
O	 0.4368745156	-0.5770255831	 1.2048120958	-0.27599
H	 1.0907146113	 1.7564056874	 0.2753734871	 0.126614
H	-0.3203517085	 1.9896841279	-0.7796969215	 0.116551
H	-0.5358114939	 1.8250783039	 0.9752942596	 0.131799
H	-2.0356470372	 0.0631262804	-1.0016622211	 0.116671
H	-1.6697564278	-1.5206819143	-0.2943470342	 0.127236
H	-2.0948911822	-0.1591203649	 0.7581968087	 0.134863
H	 0.1952653084	-0.3135476241	-2.1655048123	 0.118528
H	 1.6867895437	 0.0042506354	-1.3014899892	 0.125834
H	 1.2431771285	-2.5578857949	-2.0483857428	 0.113476
H	 1.2311078208	-3.6798530094	 0.1679151336	 0.12089
