16
gdb 19018	4.60686	1.91917	1.68785	3.0426	63.35	-0.2282	0.0677	0.2959	785.8894	0.131864	-383.673617	-383.667439	-383.666494	-383.703768	24.998	
O	-0.0376281815	 1.4365769608	 0.0049005397	-0.438856
C	 0.0325267037	 0.0178738962	 0.0059594153	 0.096245
C	 0.5676302265	-0.5862110841	 1.3463168386	-0.285669
C	-0.6842409904	-1.2976506497	 1.839988944	-0.030142
C	-1.4107332469	-1.9541301919	 0.628829878	 0.041709
O	-2.7241722025	-1.7063942661	 1.2357923585	-0.319508
C	-1.9492939068	-0.4738906372	 1.4574064449	 0.063489
C	-1.3847007389	-0.5274957483	 0.0080180282	-0.029709
H	 0.8608407584	 1.7813179538	 0.0055108454	 0.283726
H	 0.608595655	-0.3388429442	-0.8601208563	 0.067255
H	 1.4066828296	-1.2737481059	 1.1967559182	 0.099731
H	 0.8953599706	 0.2121142984	 2.0196101499	 0.10332
H	-0.6863563606	-1.8297317375	 2.7904551523	 0.079195
H	-1.2412532498	-2.9217582126	 0.1543713591	 0.088898
H	-2.4344468328	 0.3487318879	 1.9813247414	 0.096348
H	-2.0498553637	-0.3003922895	-0.8229622671	 0.083967
