17
gdb 111045	1.99729	1.82988	1.14147	1.1854	70.14	-0.2507	-0.0469	0.2038	1087.6685	0.133388	-458.883516	-458.87495	-458.874006	-458.917208	30.983	
C	 0.2254056858	 0.9631650958	 0.5870875878	-0.25901
O	-0.189065516	 0.1422272012	-0.4988553048	-0.24806
C	-1.3437812922	-0.5684744353	-0.2400804087	 0.122495
C	-1.6994213483	-1.7209621398	-1.2049972695	-0.008691
C	-0.5224109083	-2.5598817222	-0.6556420016	-0.257866
C	-1.3088667596	-1.9422524174	 0.5403133393	 0.270839
O	-2.5720425899	-2.2779949655	-0.1434848016	-0.336142
C	-1.199028678	-2.2507212188	 1.9953870951	 0.026353
O	-0.351281901	-1.7829334551	 2.7151418477	-0.24747
H	 1.1176119711	 1.498006553	 0.2563904079	 0.131678
H	-0.5536785978	 1.6933637358	 0.8497715633	 0.112233
H	 0.4600594489	 0.3572492723	 1.4703990155	 0.147106
H	-2.1939418226	 0.0594191432	 0.0555047623	 0.089694
H	-2.1099666292	-1.6728470904	-2.2125937781	 0.106137
H	-0.6334240135	-3.6392063265	-0.7616119969	 0.115008
H	 0.4885699376	-2.1936327698	-0.828498897	 0.130615
H	-1.9665041571	-2.9623825506	 2.3697231393	 0.105081
