15
gdb 45078	2.4692	1.768	1.17852	4.089	69.73	-0.2634	0.0003	0.2637	1016.6742	0.112202	-420.613472	-420.605933	-420.604989	-420.645762	28.865	
O	-0.0441952167	 0.0414474612	-0.3966594505	-0.316953
C	-0.0140579705	 1.1742256241	-0.030581901	 0.429961
O	-1.1257343119	 1.8512194036	 0.3742001354	-0.214697
C	-0.8031272779	 3.157456626	 0.8139387471	 0.088897
C	 0.0278892699	 3.2542906874	 2.0571090659	-0.318218
C	 0.6771755871	 3.3810586569	 0.6935146039	-0.066812
C	 1.2282871488	 2.1098719981	 0.0639188838	-0.359085
C	 2.3353214548	 1.4765496903	 0.7640976973	 0.354756
C	 3.2476308483	 0.9672321636	 1.3559340821	-0.454161
H	-1.564193484	 3.8794901768	 0.549401626	 0.121813
H	-0.0558691999	 4.159698402	 2.6474228817	 0.12939
H	 0.1942809598	 2.3474562698	 2.6294944724	 0.143101
H	 1.0868366681	 4.3331896422	 0.383062893	 0.113369
H	 1.5278436759	 2.3132126881	-0.9728936671	 0.144135
H	 4.0544348584	 0.50749157	 1.87123151	 0.204502
