21
gdb 86306	1.8982	1.70848	1.11096	2.4842	77.8	-0.2439	0.0582	0.3021	1178.0698	0.182002	-424.190904	-424.181799	-424.180855	-424.224801	34.438	
C	-0.8219016085	 1.2048446044	-0.1510350549	-0.417566
C	 0.0728321884	-0.0245782278	-0.1910944682	-0.027629
C	 1.4911037979	 0.0889266568	-0.8174194554	-0.292894
C	 1.9862387999	-0.9108764969	 0.2545056133	 0.097626
O	 3.2751471656	-0.7990964418	 0.7982308484	-0.427906
C	 0.7320043164	-0.5687574895	 1.1092846699	 0.233271
C	 0.8999354527	 0.3106458125	 2.3690669653	-0.129052
O	 0.2685580683	-0.6803502727	 3.2007821578	-0.272272
C	 0.0659966351	-1.5588068701	 2.0750084541	-0.146947
H	-0.3033534401	 2.0678792106	 0.2800072613	 0.113937
H	-1.1398447048	 1.4840659718	-1.1612934327	 0.119154
H	-1.7249837452	 1.0265589849	 0.4432741118	 0.122457
H	-0.4690857551	-0.8513766484	-0.6672713224	 0.077269
H	 1.6285279287	-0.1644885938	-1.870989029	 0.103264
H	 1.9127408794	 1.0863494854	-0.6382639951	 0.090344
H	 1.9115399707	-1.9418344502	-0.1086949598	 0.092991
H	 3.4333450518	 0.1255710617	 1.0151440664	 0.279582
H	 1.9387205474	 0.49238268	 2.677392976	 0.087426
H	 0.353836524	 1.2620517589	 2.3789475285	 0.098856
H	-1.0000802458	-1.7532053026	 1.8920526288	 0.095119
H	 0.5875594932	-2.5174372432	 2.200034156	 0.102968
