20
gdb 113884	2.75923	0.96053	0.83171	3.0502	76.53	-0.2403	0.0288	0.2692	1459.9444	0.169154	-440.296889	-440.286437	-440.285493	-440.333811	36.576	
C	-0.19726707	 1.4231820274	 0.0539545941	-0.487924
C	-0.4241855611	-0.0325695824	-0.3281763472	 0.402646
O	-0.0246888631	-0.5060351143	-1.3749283904	-0.367841
N	-1.1091649496	-0.7726338959	 0.6012986255	-0.318288
C	-1.2431896286	-2.1964823944	 0.4958232421	 0.022683
C	-2.5067191267	-2.8325384862	 1.0136012714	-0.327045
C	-2.2277939271	-2.8116519277	-0.4689151026	 0.038402
C	-3.0646965933	-1.9684475229	-1.3915488791	-0.103753
O	-4.2664594574	-2.6820070099	-1.6658289926	-0.426136
H	-0.2432946722	 2.0330433842	-0.8494208098	 0.152055
H	-0.921432326	 1.795470879	 0.7839892209	 0.116419
H	 0.8065131662	 1.5315737667	 0.4782776739	 0.149297
H	-1.3127088334	-0.3504063233	 1.4932295629	 0.244017
H	-0.3137730456	-2.7452171149	 0.6303775666	 0.103044
H	-2.4299838934	-3.7669648284	 1.5571346888	 0.117854
H	-3.2833277837	-2.1645500019	 1.3729691027	 0.115425
H	-1.9039758289	-3.7491942863	-0.9102559165	 0.096644
H	-3.2785519179	-0.9988394502	-0.9177221257	 0.077788
H	-2.4974009366	-1.7673917994	-2.3107996262	 0.111023
H	-4.7304540516	-2.2159078991	-2.3674779888	 0.28369
