14
gdb 3282	5.44722	2.57433	2.09719	3.725	57.35	-0.2428	0.0286	0.2714	635.9149	0.115405	-324.582824	-324.577036	-324.576092	-324.612389	22.089	
O	-0.016214644	 0.0319723121	 0.0893501933	-0.357748
C	 0.0098036268	 1.2291248493	-0.0034344228	 0.415934
N	-0.9917847795	 2.1854210875	-0.0334736822	-0.320214
C	-0.0907355701	 3.3388955198	-0.0140792539	 0.025412
C	 0.3628677258	 3.8082482415	 1.398156922	-0.228934
C	 1.5372471956	 2.7838868544	 1.3619421865	-0.229004
C	 1.0982583746	 2.3210878304	-0.0627776618	-0.182876
H	-1.9509663066	 2.1059741331	 0.2780967867	 0.244266
H	-0.290799623	 4.0891428047	-0.7797719288	 0.086905
H	 0.7014209922	 4.8470643685	 1.4134905286	 0.109254
H	-0.3811313376	 3.6740262206	 2.1867307056	 0.104305
H	 2.518868687	 3.2610026444	 1.3661845051	 0.113493
H	 1.5335771047	 2.0001691755	 2.1222078843	 0.12163
H	 1.839351714	 2.2684765683	-0.8573727627	 0.097575
