13
gdb 49873	2.30748	1.67848	1.08108	1.7365	62.31	-0.2697	-0.0549	0.2147	1048.0043	0.089171	-489.940984	-489.933329	-489.932385	-489.973989	27.301	
N	-0.0571027423	 1.3132777594	 0.0163479235	-0.565556
C	-0.0001968679	 0.0588613351	-0.0027843216	 0.49039
N	-1.1092606337	-0.783774091	 0.0261421216	-0.37019
C	-0.7818569912	-2.1143203585	-0.0090651186	 0.418243
O	-1.5062964286	-3.0746742672	-0.0026388761	-0.350325
C	 0.7576146512	-2.0976402216	-0.0260028026	-0.136317
O	 1.1180145765	-0.726393703	-0.0690869074	-0.222858
C	 1.3057705435	-2.8034864114	 1.2156102968	 0.14387
O	 1.9279738215	-2.2493220606	 2.0755500848	-0.214026
H	 0.8748823439	 1.721297593	-0.0081657916	 0.243619
H	-2.0504578427	-0.4259411533	 0.0699526445	 0.293789
H	 1.1225758219	-2.6185864157	-0.9203396452	 0.152472
H	 1.0548274479	-3.8842085051	 1.2419365419	 0.116889
