22
gdb 70423	2.86896	1.40605	1.23229	1.6882	85.42	-0.223	0.0793	0.3023	1141.3851	0.19466	-367.162759	-367.154242	-367.153298	-367.195568	33.747	
C	 0.0462503126	 1.5469945571	 0.1442816931	-0.499917
C	-0.0171970027	 0.0562982441	-0.0136637375	 0.268079
C	-0.9108295069	-0.81109376	 0.7849951457	-0.286735
N	 0.5433860115	-0.9098439878	 1.0245414249	-0.167764
C	 1.0600022163	-1.7527220031	-0.1091109814	-0.232359
C	 0.568661314	-0.7418019337	-1.1799548095	 0.325434
C	-0.2314032031	-1.205494327	-2.4267625519	-0.291291
C	 1.0546018788	-1.0249418598	-3.2774908411	-0.21461
C	 1.6369806146	-0.1482113595	-2.136140971	-0.288869
H	 1.0482212495	 1.9313517812	-0.0735180686	 0.123765
H	-0.6598447665	 2.0443511461	-0.5317163942	 0.118483
H	-0.2090091256	 1.8339708517	 1.1684832708	 0.12847
H	-1.4466716898	-0.3522954314	 1.6110402893	 0.114123
H	-1.427121272	-1.6516457929	 0.3241546264	 0.10463
H	 2.1484692636	-1.8337674852	-0.0491230631	 0.106886
H	 0.6268874678	-2.7599415079	-0.1371011747	 0.096549
H	-0.6839230093	-2.2002364244	-2.3905719618	 0.094507
H	-1.0074920872	-0.4816667167	-2.6968063855	 0.099302
H	 1.6031373358	-1.9638308185	-3.392752817	 0.104578
H	 0.9490210063	-0.5640155851	-4.2619309755	 0.097853
H	 1.4654631073	 0.9170672955	-2.3213409866	 0.100931
H	 2.6871922049	-0.2862052328	-1.8635897906	 0.097956
