16
gdb 76538	2.78683	1.21587	1.17212	3.2374	66.82	-0.2382	0.0306	0.2688	1112.4201	0.123306	-475.007209	-474.9984	-474.997456	-475.041063	31.9	
O	 0.0599433034	 1.3811162463	-0.0090051709	-0.428053
C	 0.0343037729	-0.0092815637	-0.0122764454	 0.032496
C	-0.42945373	-0.7082283835	 1.2399493503	-0.046188
O	-0.8698457252	 0.131774076	 2.2780734184	-0.427671
C	-1.305721311	-0.7180800081	 0.021766792	 0.099027
C	-2.6981937799	-0.1101828322	-0.1845406089	-0.231748
N	-3.0137031312	-1.337355151	-0.9365432654	-0.351814
C	-1.7682253061	-1.9116078681	-0.799187274	 0.390574
O	-1.2788872911	-2.9376333406	-1.1916742918	-0.374527
H	-0.3137273788	 1.6531723139	 0.8417471696	 0.286952
H	 0.8251041805	-0.4440654402	-0.6155714518	 0.125709
H	 0.021548367	-1.6498467456	 1.5469412155	 0.116439
H	-0.1340867087	 0.2554531871	 2.888797283	 0.301628
H	-3.2947505429	 0.0239378711	 0.7220188461	 0.127067
H	-2.7054009395	 0.8055982845	-0.7833875341	 0.126881
H	-3.8048784794	-1.587652846	-1.5092422826	 0.253227
