21
gdb 118105	2.81642	1.06175	0.85922	1.2983	75.31	-0.2593	0.0794	0.3387	1407.6766	0.179788	-461.329523	-461.319285	-461.318341	-461.365099	37.148	
C	 0.5706349499	 1.3614500834	-0.2972341064	-0.228199
O	 0.8672471695	-0.0136309504	-0.368005115	-0.232525
C	-0.1122663986	-0.7510778102	-1.0664425891	-0.094201
C	 0.252680151	-2.2427494274	-1.0516393773	 0.033698
O	-0.9016693927	-2.9988885668	-1.3663499174	-0.437186
C	 1.3985563088	-2.6090036646	-2.004739314	 0.382032
C	 2.6647885164	-1.7874106831	-1.9594418113	-0.455416
C	 1.4489407823	-3.9857525961	-2.5145094339	-0.230057
O	 0.9146616397	-2.9243525556	-3.3292772234	-0.292805
H	 0.5139365704	 1.819921455	-1.2970215695	 0.106352
H	-0.3858138362	 1.5435450922	 0.2172387551	 0.108219
H	 1.3734882329	 1.8417302143	 0.2672931205	 0.127734
H	-1.0963908418	-0.648633933	-0.5848011978	 0.102083
H	-0.211525571	-0.3920448978	-2.1058824515	 0.090101
H	 0.5458708699	-2.5021236908	-0.026971538	 0.101602
H	-0.9322622569	-3.0232826271	-2.3344326725	 0.291695
H	 3.1099596509	-1.8272243052	-0.9604940707	 0.129123
H	 3.3862841838	-2.1728970581	-2.6841394576	 0.117447
H	 2.4657301636	-0.7376205003	-2.1819904938	 0.13729
H	 2.399545291	-4.3890807589	-2.8588911331	 0.114877
H	 0.7177954871	-4.7142760495	-2.1750684434	 0.128135
