17
gdb 45530	2.8479	1.61843	1.29831	4.1026	72.76	-0.2484	-0.0005	0.2478	1001.642	0.138515	-421.874338	-421.867234	-421.86629	-421.906081	27.705	
O	-0.1993105653	 0.1774500312	 0.4133508665	-0.323856
C	-0.0520808344	 1.3018951822	 0.0610148643	 0.457472
O	-1.0009365365	 2.1627468151	-0.424633713	-0.261205
C	-0.0031680861	 3.223559931	-0.6593594677	 0.129664
C	-0.3240998595	 4.5138449924	 0.063894273	-0.231271
C	-0.2484566666	 4.3734896095	 1.593624519	-0.266924
C	 1.0272484043	 3.6991560177	 2.0251138914	-0.057741
C	 1.645621937	 2.7834873555	 1.2774992314	-0.055506
C	 1.0989420303	 2.3278327346	-0.0428109482	-0.275827
H	 0.0957596532	 3.3766775015	-1.7368939948	 0.09842
H	 0.4059194018	 5.2617975236	-0.2699404179	 0.113038
H	-1.3129477843	 4.8675628963	-0.246164646	 0.118154
H	-0.3388149506	 5.3593665253	 2.0603691638	 0.108632
H	-1.1117729664	 3.79227658	 1.9464716401	 0.135233
H	 1.4433607283	 3.9725812539	 2.9906213266	 0.098591
H	 2.5525194582	 2.3007722136	 1.6275555936	 0.103159
H	 1.8838364367	 2.0049876768	-0.7304285921	 0.109968
