19
gdb 75460	2.23499	1.53938	1.21358	2.308	78.1	-0.2418	-0.0384	0.2034	1117.1049	0.157839	-423.059316	-423.050214	-423.04927	-423.093169	33.925	
C	 0.351194191	 1.4842894057	 0.0344775352	-0.500377
C	 0.0829432991	 0.0145583866	-0.0184641288	 0.272578
C	-0.2424388738	-0.7402968163	-1.0686521142	-0.17217
C	-0.4138246261	-2.1997522249	-0.72728909	-0.260815
C	 0.1393843813	-2.2876543644	 0.714867912	-0.283349
C	 0.1658011047	-0.8276396219	 1.2577666638	 0.249608
O	 1.3112822788	-0.552544266	 2.0255320601	-0.480135
C	-1.0701025665	-0.5540408012	 2.1022019903	 0.114033
O	-1.0040110877	-0.1121626164	 3.2241318286	-0.27985
H	 1.344478674	 1.670198447	 0.4562280216	 0.147986
H	 0.2987352136	 1.9373005316	-0.9585797797	 0.12352
H	-0.3654114409	 2.0025932668	 0.6848245309	 0.128502
H	-0.3775203873	-0.3592511995	-2.0760389515	 0.094143
H	-1.4697175314	-2.4984891408	-0.7758014837	 0.109052
H	 0.1184761033	-2.8600748909	-1.4215269555	 0.110658
H	-0.4251483141	-2.9733613382	 1.3538141982	 0.10297
H	 1.1801208548	-2.6206584927	 0.716218585	 0.132483
H	 0.9853321741	-0.2373255339	 2.8839907008	 0.290762
H	-2.042158767	-0.7797842206	 1.618171357	 0.100402
