20
gdb 53979	2.83831	1.02998	0.95379	3.1649	75.81	-0.2462	-0.0285	0.2177	1316.6645	0.167592	-440.333745	-440.322958	-440.322014	-440.370652	38.415	
C	 0.267582019	 1.5644804419	 0.0651298431	-0.457153
C	 0.103835463	 0.0358982758	 0.0792970184	 0.148751
C	 0.6958452589	-0.5467098316	 1.383663113	-0.417267
C	-1.4030067483	-0.3393710962	-0.0681587611	-0.281451
C	-2.2210521597	 0.0293464986	 1.1480386508	 0.135057
O	-2.8094668468	 1.0745062531	 1.2807755905	-0.24564
C	 0.8364589363	-0.6907158175	-1.0766078884	 0.406059
N	 1.7324207339	 0.0372927274	-1.7979897734	-0.535823
O	 0.6460896703	-1.8731892469	-1.2964100566	-0.383084
H	 1.3033714938	 1.8598960324	 0.2666307159	 0.113702
H	-0.0454834774	 1.9973655582	-0.8911131889	 0.1217
H	-0.3562184109	 2.0203586361	 0.8383033424	 0.147781
H	 0.2337410054	-0.0907225902	 2.2645458156	 0.121752
H	 0.548682281	-1.6285607122	 1.423528674	 0.140968
H	 1.7714128396	-0.3492666999	 1.4359753548	 0.121481
H	-1.8226277986	 0.186734304	-0.9318912933	 0.118276
H	-1.460922764	-1.4173276589	-0.2426771438	 0.136859
H	-2.2483041348	-0.7378098886	 1.954444527	 0.08312
H	 1.8668404801	 1.0235605988	-1.6744006183	 0.262266
H	 2.2185453391	-0.4312697445	-2.545120492	 0.262646
