24
gdb 81781	2.04037	1.69337	1.28006	1.5949	88.49	-0.221	0.0767	0.2977	1169.5453	0.215558	-368.386185	-368.3761	-368.375156	-368.419898	39.399	
C	-0.2488372596	 1.5058058259	-0.1310308887	-0.412166
C	 0.0968287469	 0.0296731225	-0.0196662142	 0.03248
N	 1.0771826655	-0.5204304659	-1.0284733694	-0.185406
C	 2.388112734	 0.0864440254	-0.7140588239	-0.301877
C	 1.9256663978	-1.0362657287	 0.1264782157	 0.332828
C	 2.5945261014	-2.3818395392	 0.1040721299	-0.498238
C	 0.9157028325	-0.5470388868	 1.1921462695	 0.236928
C	 1.4498224074	 0.4165514922	 2.2538230379	-0.452463
C	 0.161554418	-1.6937019884	 1.8715904711	-0.45107
H	 0.6131303283	 2.1637957779	 0.0066950275	 0.113692
H	-0.6742219326	 1.7125639507	-1.1187268707	 0.126922
H	-0.9966404635	 1.7798359598	 0.6209283808	 0.116176
H	-0.8263223691	-0.5455374791	-0.1426041959	 0.076356
H	 3.1375609651	-0.13625426	-1.4684054192	 0.113206
H	 2.4408737134	 1.1011423167	-0.3316623595	 0.104045
H	 3.023955557	-2.574387035	-0.8834352227	 0.127153
H	 3.4078411192	-2.4258080247	 0.8385834366	 0.11797
H	 1.89515635	-3.1923977458	 0.3294736692	 0.120916
H	 2.0048254003	 1.2550915969	 1.8266461797	 0.111377
H	 0.6304421128	 0.8320381533	 2.8516441031	 0.112371
H	 2.1235309633	-0.1075103459	 2.941691795	 0.113236
H	 0.8052021355	-2.2387408819	 2.5714871311	 0.111438
H	-0.6897605792	-1.3035146082	 2.4409281142	 0.112102
H	-0.2272607344	-2.4112404615	 1.1425350129	 0.122027
