20
gdb 84096	2.53856	1.54152	1.11828	3.0076	80.44	-0.2276	0.0124	0.24	1149.4377	0.170912	-403.139367	-403.130523	-403.129579	-403.172293	34.452	
C	-0.0738476654	 1.5024820535	 0.021004514	-0.503204
C	-0.0908894887	 0.0081786788	-0.0462436103	 0.306535
C	-0.0828177518	-0.7634697877	-1.1365362987	-0.228677
C	-0.0136860898	-2.2496076891	-0.8196282997	 0.104462
O	 1.1393314919	-2.8752394506	-1.361784581	-0.440315
C	-0.0215026314	-2.2543061114	 0.7126659827	-0.127122
N	 1.2203125012	-1.6390364191	 1.2480549321	-0.385947
C	-0.0586309423	-0.8571794807	 1.1943497413	 0.243755
C	-0.7180342637	-0.4124791481	 2.4733662394	-0.503192
H	 0.8253213353	 1.8623781239	 0.537239814	 0.133301
H	-0.0921408597	 1.944985484	-0.9781512137	 0.127984
H	-0.9333775657	 1.8928129994	 0.5800608637	 0.124745
H	-0.0314794667	-0.4046484396	-2.1589699112	 0.093749
H	-0.8676765549	-2.8030037527	-1.2271322693	 0.082939
H	 1.8767023599	-2.5103784374	-0.8522181564	 0.285817
H	-0.4752897681	-3.073454191	 1.2598499762	 0.085735
H	 1.3602945915	-1.9773850968	 2.19970196	 0.224619
H	-0.2230660049	 0.4704736492	 2.8931183095	 0.12808
H	-1.7692708126	-0.1549417835	 2.3042468958	 0.130104
H	-0.6853598341	-1.205641141	 3.2272727116	 0.11663
