16
gdb 18882	3.45006	2.79517	2.53983	1.7581	61.77	-0.2536	0.087	0.3406	654.7954	0.134558	-383.740208	-383.73509	-383.734146	-383.769101	22.137	
C	-0.036932289	 1.5441670106	 0.073025571	-0.247866
C	 1.511025213	 1.5014645789	-0.0057581226	-0.083865
C	 2.1070274209	 1.0677290079	 1.3561188855	-0.233755
C	 1.7627640524	-0.4346055833	 1.311109959	 0.171506
O	 0.3450242391	-0.576372816	 1.2568504555	-0.275704
C	-0.0119305076	 0.0034491176	-0.0059034812	 0.076117
C	 1.3977294772	 0.0836260878	-0.6945270847	 0.075089
O	 2.2097986366	-0.8197707544	 0.0216385075	-0.239434
H	-0.4920490775	 1.9822556716	 0.9645448217	 0.10495
H	-0.4862681853	 1.9832740928	-0.8231629342	 0.100532
H	 2.0457218537	 2.3110789862	-0.5009898696	 0.072356
H	 3.1917049945	 1.2010042337	 1.3902264915	 0.10836
H	 1.6536363487	 1.5787768794	 2.2083020226	 0.107745
H	 2.1697878142	-1.0864491416	 2.0825368025	 0.092751
H	-0.8487774315	-0.5532902219	-0.4286724182	 0.080707
H	 1.5013388704	-0.0277984791	-1.7701074964	 0.09051
