21
gdb 101353	2.69293	0.99308	0.81679	3.0014	75.87	-0.2457	0.0578	0.3036	1457.879	0.180729	-461.325587	-461.315487	-461.314543	-461.360733	37.201	
C	 0.3207462777	 0.8830753845	 0.3009685141	-0.249419
O	-0.1630295633	-0.1226911109	-0.5781069892	-0.236609
C	-1.3996779304	-0.6258567236	-0.1981378295	 0.120808
C	-1.7603236871	-1.970872828	-0.7345206767	-0.334347
C	-1.4801148491	-1.8068891102	 0.7514967928	-0.076896
C	-0.232707453	-2.4106908779	 1.3441061199	 0.075586
O	 0.2186717109	-1.697093497	 2.5120413695	-0.440347
C	-0.4016594791	-3.8860285057	 1.7184432435	-0.053519
O	 0.764457042	-4.3895953734	 2.3312504001	-0.424324
H	 1.2794311049	 1.2190559954	-0.1004448322	 0.126393
H	-0.3675251618	 1.7410822112	 0.3381634735	 0.102019
H	 0.4622312779	 0.489289601	 1.3142787257	 0.132799
H	-2.1862843573	 0.1268131715	-0.1183651487	 0.083476
H	-2.7766586397	-2.1563994738	-1.0619044314	 0.116808
H	-0.9953639407	-2.4653480576	-1.3240930853	 0.131232
H	-2.3497972563	-1.837107333	 1.4071791127	 0.076996
H	 0.5955111975	-2.3168207982	 0.635748167	 0.109088
H	-0.5368670242	-1.6004468035	 3.1040324704	 0.279321
H	-1.2833852779	-3.9891537234	 2.3792162342	 0.066012
H	-0.5950486406	-4.4855502636	 0.8228890785	 0.111137
H	 1.0674963294	-3.6828156938	 2.9164451811	 0.283784
