20
gdb 10335	2.19762	1.82428	1.0752	1.8038	72.42	-0.2433	-0.0308	0.2125	1143.0702	0.173149	-386.14424	-386.134112	-386.133168	-386.179598	35.155	
C	-0.1117349392	 1.3167796705	 0.3327666712	-0.245387
O	-0.2950816041	-0.0490590088	 0.0176489613	-0.245291
C	 0.5697442274	-0.5200221296	-0.9981998995	 0.052001
C	 1.9662605292	-0.7097324134	-0.4118316975	 0.135448
O	 3.0001527045	-0.594822222	-1.0166017223	-0.244752
C	 0.0232487302	-1.869077002	-1.5221067004	-0.000593
C	-1.4548526487	-1.7344833827	-1.9124686228	-0.393443
C	 0.8604223488	-2.3902651326	-2.6979341531	-0.398092
H	 0.9043479065	 1.5298513871	 0.6973716103	 0.115042
H	-0.304462994	 1.9595167194	-0.539140126	 0.11435
H	-0.8254724734	 1.5629919904	 1.1220452894	 0.13355
H	 0.6314789629	 0.1967726242	-1.8329503839	 0.082924
H	 1.9390302924	-0.9964952422	 0.6661480015	 0.085894
H	 0.0923966032	-2.5868896937	-0.6923900047	 0.083824
H	-1.8475395201	-2.7025974343	-2.2390244901	 0.111431
H	-2.05543352	-1.3774668557	-1.0748394298	 0.133786
H	-1.5734172466	-1.0290191924	-2.7434999305	 0.110354
H	 1.9186521132	-2.4915524784	-2.4461666341	 0.136158
H	 0.4900794628	-3.3693593897	-3.0163111358	 0.11491
H	 0.788412365	-1.7127420541	-3.5564671732	 0.117889
