21
gdb 116848	4.7034	0.51146	0.46793	3.701	91.99	-0.2511	-0.0415	0.2096	2398.8812	0.179176	-387.096756	-387.08546	-387.084516	-387.13592	38.308	
C	 0.0335839752	 1.5553153921	 0.009882066	-0.383112
C	 0.0313338336	 0.0257279463	 0.0017394315	-0.158489
C	-1.3975956653	-0.5544977303	 0.0124539633	-0.347431
C	-1.4408230649	-2.0093899105	 0.0050602673	 0.120864
C	-1.4704367294	-3.2169557288	-0.0010527766	 0.030387
C	-1.4990439845	-4.6668095726	-0.0085647784	 0.204648
O	-2.5414700105	-5.2885462686	-0.0018091829	-0.294736
C	-0.1356905673	-5.3430035478	-0.025352723	-0.275545
C	-0.2167705229	-6.8670945362	-0.0331834731	-0.384455
H	 1.0547868486	 1.9471771784	 0.0020688317	 0.119008
H	-0.4847774394	 1.9585120796	-0.8671676132	 0.119178
H	-0.4676300195	 1.9490757444	 0.9010717569	 0.119178
H	 0.5586148948	-0.3485470923	-0.8827029916	 0.112232
H	 0.5755791345	-0.3579096008	 0.8717764375	 0.112232
H	-1.9390965144	-0.1870598996	 0.8948977194	 0.139422
H	-1.9560199166	-0.1777031602	-0.8553723501	 0.139421
H	 0.4104127341	-4.9626148058	-0.8992595504	 0.127092
H	 0.4268746427	-4.9724832151	 0.8423396444	 0.127107
H	 0.7853202504	-7.3047306423	-0.0450906945	 0.108132
H	-0.7457738436	-7.2346899827	 0.8496904095	 0.132441
H	-0.7623389159	-7.2247770169	-0.9100317239	 0.132426
