16
gdb 63451	1.93509	1.7842	1.07273	4.1234	77.11	-0.282	-0.0237	0.2584	1133.6035	0.119895	-400.710693	-400.701093	-400.700149	-400.744686	34.929	
C	-0.0798525375	 1.5345611573	-0.020610062	-0.464548
C	-0.0768842186	 0.0247421921	 0.0416741228	 0.3421
C	-1.2491941362	-0.6656558701	-0.6175469885	-0.466652
O	 1.1958432678	-0.5947516249	-0.1665902848	-0.290302
C	 0.6584471374	-0.6575988763	 1.1647356874	 0.038891
C	 1.344070379	 0.0843122668	 2.1934841028	 0.275732
C	 1.9043345258	 0.6834612446	 3.0707188974	-0.401864
C	 0.2259304034	-1.9814875334	 1.5883512805	 0.245636
N	-0.1290181468	-3.0246149327	 1.936394722	-0.341024
H	 0.7891463299	 1.9558717281	 0.4853224205	 0.147208
H	-0.0656563472	 1.853683853	-1.0678000479	 0.136951
H	-0.9877909074	 1.9338338551	 0.441680204	 0.134549
H	-1.2728525622	-0.4018985814	-1.6798809485	 0.136887
H	-1.1792575487	-1.7507941332	-0.5316167086	 0.157166
H	-2.190212321	-0.3357992226	-0.1668971963	 0.136619
H	 2.4056811923	 1.2124720875	 3.8440569995	 0.212651
