17
gdb 97079	3.01522	1.1482	0.96602	3.3912	75.9	-0.2589	0.0051	0.264	1251.976	0.13617	-418.037211	-418.02838	-418.027436	-418.072209	31.023	
C	-0.0723818928	 1.4498319709	 0.0206718932	-0.336752
N	-0.029305944	 0.0018101145	 0.1447038657	-0.316484
C	-1.0794612563	-0.677954214	 0.0726652253	 0.446303
C	-1.1809989952	-2.1854201981	 0.1556433956	-0.322499
C	-2.6556567417	-2.4189902802	 0.5029605957	-0.247144
C	-3.3265985922	-1.1884688375	-0.1495701338	-0.040261
O	-2.3546254274	-0.1454302254	-0.0894377934	-0.243075
C	-3.7169896176	-1.4403176306	-1.5500432098	 0.278496
N	-4.0294508175	-1.655017817	-2.6412649987	-0.311318
H	 0.6001072625	 1.7534292151	-0.788884198	 0.132351
H	-1.0686685393	 1.860125846	-0.1747886622	 0.12674
H	 0.3200898279	 1.8960025225	 0.9413267099	 0.129118
H	-0.9326572531	-2.6175203039	-0.8201799306	 0.149836
H	-0.478730345	-2.5849064205	 0.8866024815	 0.144858
H	-3.0615832991	-3.3600741971	 0.1313986642	 0.138698
H	-2.8167765058	-2.3707638631	 1.5831225485	 0.129416
H	-4.2120350435	-0.8510560416	 0.3960190169	 0.141718
