21
gdb 118652	2.12351	1.00927	0.78924	3.7337	80.54	-0.2373	0.0298	0.2671	1554.0673	0.180828	-420.395094	-420.384085	-420.383141	-420.43258	37.614	
C	 0.1553387279	 1.5680914442	 0.0992261059	-0.390458
C	 0.5290584198	 0.0898445426	 0.0442859702	-0.11344
N	 0.1104299072	-0.5822563067	 1.2747185125	-0.27944
C	 0.4415347927	-2.0013110545	 1.3406934289	-0.137335
C	 1.9318361722	-2.2862610658	 1.6719872411	-0.089154
O	 2.3555267103	-1.5625507853	 2.805321968	-0.242453
C	 2.3772396171	-2.295345205	 4.0221486259	-0.255264
C	-0.4466324708	-2.6658672511	 2.3140590673	 0.301471
N	-1.1237289669	-3.2048654024	 3.0799773355	-0.334232
H	 0.6831168805	 2.0755249884	 0.914458924	 0.120007
H	 0.4261430271	 2.0695105216	-0.8343643276	 0.118478
H	-0.9188284883	 1.6868573477	 0.2649002164	 0.133518
H	 0.0070390845	-0.3929996631	-0.791870004	 0.107251
H	 1.6096791022	-0.0048269948	-0.1624374931	 0.087092
H	 0.5335200524	-0.1293506039	 2.0807041816	 0.231458
H	 0.2262927139	-2.4503704674	 0.361923092	 0.124863
H	 2.1007273132	-3.3654084338	 1.7894430145	 0.108786
H	 2.5341780742	-1.9388244787	 0.8249416804	 0.116625
H	 2.7712643196	-1.620108874	 4.7851129768	 0.132538
H	 1.3797677372	-2.6340051521	 4.3237931107	 0.146379
H	 3.040910024	-3.1683192859	 3.944487843	 0.11331
