17
gdb 23281	3.04597	1.25017	1.13029	2.2289	78.22	-0.2192	0.0001	0.2194	1146.3111	0.135973	-417.908754	-417.900672	-417.899728	-417.941324	31.047	
C	 0.0896895349	 1.4204520309	 0.0531283481	-0.513661
C	-0.0060324694	-0.063513388	 0.0085309086	 0.327655
C	-0.027417444	-0.9371409992	-1.0118844721	-0.199496
C	-0.0132567039	-2.3051392223	-0.3030457978	-0.147654
N	-0.9520235715	-2.1044733474	 0.862525768	-0.300665
C	 0.0122723224	-1.0090893654	 1.2382135726	-0.191675
C	 1.0783605595	-1.9952105792	 0.7432898315	 0.538731
N	 2.2342993405	-2.3178316217	 1.1127160194	-0.315534
O	 2.7825508157	-3.3178352711	 0.2746398205	-0.399602
H	 1.0202294628	 1.736898322	 0.5416489151	 0.141209
H	 0.0722608218	 1.8534129255	-0.9507974186	 0.131583
H	-0.7318770583	 1.8605360991	 0.6320201313	 0.130576
H	 0.0278241952	-0.7577553251	-2.0764237951	 0.110922
H	-0.0712896401	-3.2293206554	-0.8718244826	 0.093095
H	-1.8401019614	-1.7090023658	 0.5420171146	 0.204009
H	-0.0219968658	-0.599042389	 2.246091506	 0.084191
H	 3.6362007517	-3.4763894678	 0.6912224305	 0.306316
