16
gdb 43686	2.46678	1.47996	1.18597	3.9249	76.35	-0.245	-0.0375	0.2075	1077.8418	0.125235	-400.757004	-400.749038	-400.748094	-400.789653	30.446	
O	-0.0131449408	-0.0153482315	-0.2628651777	-0.371832
C	 0.012923608	 1.1798222525	-0.0336235701	 0.389224
N	-1.1462670723	 1.9138802789	 0.1466385273	-0.312846
C	-1.170472648	 3.3721805219	 0.0100001694	-0.195944
C	 0.0169949645	 3.9726673344	 0.7914877607	-0.259814
C	 1.288293614	 3.2163955063	 0.5256993136	-0.070284
C	 1.2750077833	 1.9403727831	 0.1368945718	-0.121891
C	-1.1779823094	 3.8058228982	-1.3958486791	 0.357487
C	-1.2065189206	 4.1542395632	-2.5456857778	-0.476241
H	-1.9754284526	 1.4166583438	-0.14924066	 0.249367
H	-2.0977016475	 3.7256646188	 0.4750838314	 0.121239
H	 0.1247275464	 5.0277350042	 0.5256000472	 0.129095
H	-0.2092100002	 3.9365111009	 1.8661042325	 0.130137
H	 2.2288583448	 3.7348777182	 0.6917229195	 0.11062
H	 2.1786425145	 1.3694835507	-0.0404707682	 0.116077
H	-1.2273652342	 4.4540348762	-3.5645399606	 0.205606
