16
gdb 30586	6.7487	0.62596	0.59665	2.2408	86.94	-0.2025	0.011	0.2135	1813.2734	0.12506	-400.749243	-400.740468	-400.739524	-400.784276	31.365	
O	 0.2702836417	 0.8887433611	 0.9585998107	-0.410491
C	-0.054702489	 0.1660498263	-0.2268475371	-0.232343
C	-1.4026688373	-0.3713405352	-0.1324998234	 0.230108
C	-2.5194536149	-0.8269866542	-0.0827662681	-0.108505
C	-3.8202932817	-1.3759539485	-0.0133363322	 0.1674
C	-4.9994034616	-0.7384867718	-0.366707815	-0.202721
N	-6.0282160238	-1.6084007187	-0.1499998702	-0.229905
C	-5.5443672952	-2.8000594569	 0.3373471174	-0.067635
C	-4.1820535295	-2.690113266	 0.4340440777	-0.273547
H	 1.1684168043	 1.219277272	 0.8522412532	 0.285248
H	 0.0135736326	 0.8163754846	-1.1148806841	 0.111606
H	 0.6526971397	-0.6642529979	-0.3883452749	 0.112688
H	-5.1664104173	 0.255750469	-0.7466349138	 0.12685
H	-6.9974701242	-1.4048199173	-0.3194667394	 0.266491
H	-6.2097022799	-3.6151504386	 0.570938453	 0.123089
H	-3.4984400639	-3.4473323079	 0.7830530762	 0.101669
