25
gdb 122344	3.27976	0.67865	0.6421	1.2777	90.06	-0.2431	0.0608	0.3039	1922.3996	0.227158	-389.483969	-389.472713	-389.471769	-389.521084	40.775	
C	-0.3020210328	 1.4723161787	-0.0452889492	-0.380248
C	 0.0344604748	-0.0170482256	 0.0673651293	-0.163868
C	 0.6260016573	-0.6027960944	-1.2186600233	-0.151181
C	 0.9637035957	-2.0968699043	-1.1111833146	-0.214435
C	 1.5816702756	-2.6468621895	-2.3807984071	-0.062235
C	 1.633189029	-4.1353644388	-2.6951879474	-0.058988
C	 1.0859514995	-5.1904822381	-1.75678545	-0.403017
C	 0.7158225151	-3.235420089	-3.4781384286	 0.077551
O	-0.6573627847	-3.4057854466	-3.256497556	-0.417539
H	 0.5902952773	 2.0628710797	-0.2814907569	 0.113217
H	-1.0358004697	 1.6541993544	-0.8386771685	 0.111089
H	-0.7200180495	 1.8606784664	 0.8887664709	 0.111227
H	 0.7432450546	-0.1714181303	 0.891809317	 0.095342
H	-0.8693734045	-0.5787118572	 0.3385803512	 0.094394
H	-0.0796630812	-0.4475564711	-2.0479477591	 0.077231
H	 1.5310519942	-0.0419885514	-1.491218699	 0.091434
H	 1.653218679	-2.249500106	-0.2697446744	 0.093152
H	 0.0531923201	-2.6533157507	-0.8676057	 0.105157
H	 2.4393931604	-2.0740169665	-2.7292149648	 0.074551
H	 2.5236389456	-4.4506065135	-3.2335538038	 0.080632
H	 0.1033604037	-4.9176106627	-1.369321291	 0.134896
H	 0.9748260422	-6.1453930569	-2.2815568684	 0.114801
H	 1.7599809917	-5.3539916144	-0.9088584895	 0.110555
H	 0.9765975639	-3.0165035676	-4.5137751566	 0.077913
H	-1.0778615673	-2.5417526946	-3.3179175402	 0.288371
