16
gdb 44347	3.85612	1.54639	1.26505	4.1996	76.39	-0.235	-0.058	0.1771	969.3102	0.125744	-400.687871	-400.681209	-400.680264	-400.718913	26.82	
O	-0.0088123396	-0.0690209328	-0.2444319633	-0.311232
C	 0.0199876686	 1.1261010695	-0.0883153563	 0.368544
C	-1.2622803535	 1.9343149768	 0.2870711612	-0.348669
C	-1.2350011996	 3.3656456772	-0.2421962176	-0.018892
C	-0.467185349	 4.6195696457	 0.1448509578	-0.061126
C	 0.9592691266	 4.4977719705	 0.7532222273	-0.307532
C	 1.0192381386	 3.2969118901	-0.1557839314	 0.235168
C	 1.2174607268	 1.9942726423	 0.0807265525	-0.291624
N	-0.0423930898	 3.7647696713	-1.0279588606	-0.136265
H	-2.1358145215	 1.4129929642	-0.1130003382	 0.132404
H	-1.3360929633	 1.888099376	 1.3794631038	 0.136961
H	-2.1468032667	 3.6391228679	-0.7714354885	 0.114194
H	-0.9393284912	 5.5838832614	-0.0312654758	 0.108526
H	 1.5354510638	 5.370452157	 0.4304639907	 0.135853
H	 1.1036904139	 4.3251523305	 1.8213810577	 0.124032
H	 1.9915163258	 1.6385937624	 0.7538366607	 0.119658
