22
gdb 6986	2.30238	2.22534	1.55839	1.502	77.31	-0.2358	0.0758	0.3116	968.8294	0.199692	-350.22859	-350.219635	-350.218691	-350.261589	34.359	
C	-0.2326180577	 1.5159295761	-0.0694579606	-0.419805
C	 0.0608782191	 0.0172321538	-0.0274184804	 0.001538
C	 0.9898093684	-0.4975750932	-1.1367263011	-0.243554
C	 1.4041153181	-1.8607611248	-0.5820823089	-0.074763
O	 1.4309173268	-1.7237512511	 0.8350222515	-0.307254
C	 0.7518308833	-0.5206197338	 1.2582598591	 0.396988
C	 1.8132091203	 0.4284673414	 1.8318413264	-0.415745
C	-0.2580045549	-0.9099553839	 2.3393381424	-0.421543
H	 0.6858766841	 2.110269501	-0.0459256294	 0.119088
H	-0.7706261863	 1.7758830429	-0.9868912826	 0.113999
H	-0.8564808553	 1.8281715325	 0.775049011	 0.116034
H	-0.8930368748	-0.5199201395	-0.1197953372	 0.0713
H	 0.4978493188	-0.565551938	-2.1108677128	 0.097524
H	 1.8590358418	 0.1614049602	-1.2468767048	 0.10145
H	 0.6774623672	-2.6364639359	-0.8711298246	 0.087018
H	 2.3927215919	-2.1882941555	-0.923081664	 0.09871
H	 2.5209800596	 0.7499490335	 1.0620574067	 0.109307
H	 1.3622310429	 1.3192680756	 2.2800456005	 0.108653
H	 2.3799213472	-0.0957613063	 2.6063741818	 0.120782
H	 0.2530844915	-1.333687998	 3.2089650813	 0.118429
H	-0.8317092601	-0.038495335	 2.6732084121	 0.108723
H	-0.956503302	-1.6594046122	 1.9560834236	 0.113122
