20
gdb 111165	3.88636	1.04704	0.95956	1.6713	80.49	-0.2369	0.074	0.3109	1284.7529	0.171836	-403.049632	-403.041378	-403.040434	-403.082565	32.299	
O	-0.1247883952	 1.469068881	-0.2025240207	-0.421916
C	 0.0336933827	 0.0834291137	 0.0851061528	-0.14481
C	-1.3405447829	-0.5468190361	-0.0107044867	 0.081821
C	-2.0259147588	-0.7982876161	-1.3977706148	-0.149478
C	-1.0740999924	-2.0225320759	-1.5985296465	-0.243234
C	-1.5258111655	-2.098288364	-0.104129584	-0.155724
C	-2.9358300651	-1.7765842091	-0.6344570329	 0.463586
C	-4.2765113242	-1.6779849119	-0.0486226831	-0.360214
N	-3.9467731977	-2.7007589219	-1.0933424779	-0.413402
H	 0.7303606687	 1.8961854512	-0.0972536095	 0.286292
H	 0.7527927291	-0.3801908731	-0.6034565861	 0.087378
H	 0.4203240273	-0.0663526773	 1.1066641674	 0.085436
H	-1.9996583326	-0.0606513157	 0.7161415333	 0.074704
H	-2.3179966981	-0.0482420754	-2.1336244078	 0.076084
H	-1.4447691237	-2.8192250753	-2.2466973689	 0.103847
H	-0.0231682707	-1.8131279218	-1.7982897798	 0.092727
H	-1.2519941654	-2.8479828619	 0.6388278376	 0.074785
H	-4.4932957345	-2.0938531802	 0.9317796002	 0.119728
H	-4.9085050284	-0.8398014564	-0.3325533031	 0.113441
H	-4.3255812124	-2.4069437541	-1.9913066794	 0.228949
