21
gdb 40668	3.60224	0.98638	0.90186	1.6492	83.87	-0.218	0.0774	0.2954	1386.3987	0.182259	-387.038802	-387.030056	-387.029112	-387.073091	33.142	
C	-0.4720833271	 1.2702835723	-0.5044959835	-0.269993
C	 0.9481526396	 1.4717166174	-0.0349836318	-0.271804
C	 0.3205189948	 0.0992245404	 0.0241475818	 0.023651
C	-0.0253298827	-0.5211575872	 1.3396719458	-0.096294
C	-0.6820104051	-1.8994384315	 1.4157388298	-0.378488
C	 0.7275717505	-1.7006043341	 1.8688448916	 0.453418
C	 2.0241913457	-2.3407621222	 1.3825134592	-0.357329
C	 2.3606135658	-2.4128709584	 2.8877455659	-0.071441
O	 1.0991339427	-1.8029253128	 3.2461700528	-0.308277
H	-1.2716553793	 1.6575528278	 0.1183973883	 0.112368
H	-0.6757585896	 1.3191639382	-1.5685629697	 0.108992
H	 1.7159230361	 1.659132932	-0.7777487037	 0.108923
H	 1.1023484498	 1.9953643341	 0.9028072719	 0.113726
H	 0.6648653479	-0.6103225363	-0.7246141378	 0.076497
H	-0.3488011377	 0.1811519087	 2.1053574961	 0.089753
H	-1.4337713038	-2.0579088048	 2.181747624	 0.120002
H	-0.8541888321	-2.4386331754	 0.4882335379	 0.108548
H	 1.9138286224	-3.3043732584	 0.8812641565	 0.111826
H	 2.6704265972	-1.6923997617	 0.7874962927	 0.116146
H	 2.456419455	-3.4210930976	 3.3064728653	 0.104836
H	 3.21214929	-1.8050260106	 3.2143610369	 0.104941
