17
gdb 23295	2.675	1.38918	1.19398	1.7049	72.05	-0.2395	0.005	0.2445	1080.7282	0.137141	-455.057909	-455.050049	-455.049105	-455.090283	30.696	
O	-0.1063024683	 1.3602231253	 0.0066558799	-0.398042
N	 0.0509822752	-0.043999819	-0.047892943	-0.311645
C	-1.0705992929	-0.6228119043	-0.1265037284	 0.450044
C	-2.5605416666	-0.3337076303	-0.0127173214	-0.105487
C	-3.1199197973	-0.9226358106	-1.3201059048	-0.241391
C	-2.2781425274	-2.2498244059	-1.3628210979	 0.171486
O	-1.4412230639	-2.3977572183	-2.4860730827	-0.441429
C	-1.5049942861	-2.0717789221	-0.0344344515	-0.136896
N	-2.6308719676	-1.5822052554	 0.8670712859	-0.329678
H	 0.8062688614	 1.6599725884	 0.0798450982	 0.307756
H	-2.9590347063	 0.6010953565	 0.3734571438	 0.09838
H	-4.1938027359	-1.1032996001	-1.2440290535	 0.11668
H	-2.9184580969	-0.3015765202	-2.1962409741	 0.11079
H	-2.9090792003	-3.1393269227	-1.3338024177	 0.102443
H	-0.8020365793	-1.674740738	-2.4813449899	 0.284771
H	-0.8629230455	-2.8811203118	 0.3057685189	 0.092302
H	-2.2133600125	-1.3463137016	 1.7687790281	 0.229916
