17
gdb 74909	2.8956	1.67127	1.20136	1.8228	70.79	-0.222	0.039	0.261	1024.6766	0.137646	-455.130263	-455.122585	-455.121641	-455.162354	29.993	
N	-0.0764605805	 1.3992717182	-0.1425069203	-0.544817
C	-0.0648103088	 0.0250225916	-0.0921803366	 0.441382
N	-1.1361079917	-0.6585289077	-0.0602589932	-0.321884
C	-1.0362232782	-2.0844713276	-0.058270625	 0.005579
C	-1.4966437352	-2.8565082232	-1.2768776639	-0.323095
C	-0.0356092559	-2.7902632274	-0.9445595046	 0.073753
O	 0.7213787634	-1.9647689411	-1.7951503005	-0.227263
C	 1.7053728505	-1.2474844097	-1.1354079406	 0.008826
O	 1.222156314	-0.455918892	-0.0427104051	-0.272602
H	 0.7526640094	 1.8496543644	 0.2107800813	 0.257059
H	-0.9515951751	 1.8206823429	 0.1294206766	 0.261424
H	-1.2545574538	-2.5399105825	 0.9058255452	 0.092871
H	-2.0166429594	-3.7981272657	-1.1411285763	 0.110516
H	-1.8142168969	-2.2646771976	-2.1276650978	 0.130801
H	 0.4913528576	-3.6765262965	-0.5924023379	 0.086655
H	 2.4688815218	-1.8925020379	-0.6786092088	 0.104622
H	 2.1585731489	-0.5965777782	-1.8916079124	 0.116173
