10
gdb 23774	3.38006	2.49415	1.43515	3.7232	52.48	-0.261	-0.0843	0.1767	748.8031	0.060615	-458.601676	-458.595837	-458.594893	-458.631905	21.399	
F	-0.001485268	 0.0548467003	 0.0041217167	-0.031086
C	-0.0664676342	 1.3697630327	 0.0115888057	 0.209079
N	-1.1991917975	 1.947133504	 0.0291609754	-0.27072
C	-1.1975092519	 3.3302203474	 0.0359074863	-0.094747
C	-0.0492504919	 4.0268838994	 0.0242502303	 0.062627
O	 1.1573255181	 3.4121234324	 0.0056210366	-0.197955
C	 1.2581752879	 2.033467847	-0.0020791461	 0.332038
O	 2.3280312144	 1.5013997606	-0.019511065	-0.308783
H	-2.1589163721	 3.8255511135	 0.0507974572	 0.141167
H	 0.0364270553	 5.1052916227	 0.0282960129	 0.158381
