23
gdb 66148	4.06538	0.70975	0.68413	1.6466	86.5	-0.2616	0.086	0.3476	1750.6024	0.204358	-388.261001	-388.251083	-388.250138	-388.296756	36.829	
C	 0.0333029249	 1.589673366	 0.2194069043	-0.462008
C	-0.0319365727	 0.0828760894	 0.0458082171	 0.389866
C	-1.3339273014	-0.4590509496	-0.5266951546	-0.258557
C	-1.6202768368	-0.0223183184	-1.9729482832	-0.22023
C	-2.8973720866	-0.6233333588	-2.5061298297	 0.099737
O	-4.1211125996	-0.0468627337	-2.034892408	-0.237414
C	-3.7928621742	 0.0985117642	-3.4176622575	-0.182151
C	 1.244695204	-0.6418174698	-0.3152204785	-0.295622
C	 0.6731032655	-0.7633459562	 1.0788538279	-0.31558
H	 0.979473243	 1.8913845763	 0.6794142867	 0.111194
H	-0.046660374	 2.1165943963	-0.7378369554	 0.115892
H	-0.7792182017	 1.9467373331	 0.8634120413	 0.116581
H	-1.3101688655	-1.555944175	-0.4880086502	 0.087887
H	-2.1737856782	-0.1465293626	 0.107279102	 0.111788
H	-1.6977773919	 1.0686326938	-2.0339074033	 0.103635
H	-0.7861598588	-0.323129367	-2.6209101218	 0.100339
H	-2.9193424694	-1.7152351002	-2.5427340744	 0.086976
H	-3.5337545875	 1.1089824187	-3.7324162375	 0.110337
H	-4.4269370108	-0.45306531	-4.1108381383	 0.111698
H	 1.17809934	-1.5063878941	-0.9681972248	 0.104471
H	 2.1497613412	-0.0581752242	-0.4479026135	 0.106759
H	 1.1901455914	-0.2583070293	 1.8881684213	 0.10703
H	 0.2228172491	-1.7083091589	 1.3649022202	 0.107372
