15
gdb 23564	2.457	1.59011	1.08958	1.3129	70.36	-0.2448	-0.0156	0.2292	1077.2836	0.111664	-453.813824	-453.806067	-453.805123	-453.846177	29.328	
O	-0.0953719485	 1.3123540832	 0.1117271579	-0.387934
N	 0.022429828	-0.0767256031	-0.039117605	-0.267073
C	-1.1077640125	-0.6436377079	-0.0796398449	 0.350975
C	-2.5653327265	-0.2734190142	 0.0600201448	-0.089838
O	-3.2513006301	-0.9207477377	-1.0322216383	-0.233504
C	-2.9178869694	-1.7146208601	 0.1057029907	-0.079518
C	-1.4510966902	-2.1143608665	-0.0686943161	 0.294462
C	-0.8073193965	-3.2486407607	-0.7605239139	-0.290889
N	-0.7674537179	-3.1374785711	 0.7114503634	-0.372364
H	 0.8249714272	 1.5970918131	 0.1242333766	 0.311197
H	-3.0250256957	 0.5944491223	 0.5111159853	 0.127964
H	-3.7065389297	-2.224876319	 0.643522647	 0.127629
H	-1.4128451151	-4.0661347998	-1.141079521	 0.129804
H	 0.0951066597	-3.0347085354	-1.3266095599	 0.131508
H	 0.1357610973	-2.7799296333	 1.0161190534	 0.247581
