17
gdb 62430	3.92629	1.23425	1.1916	1.6766	80.22	-0.239	-0.0133	0.2258	1084.8404	0.13553	-380.817548	-380.809443	-380.808499	-380.849786	31.321	
C	-0.0678169668	 1.5352128712	 0.0640636104	-0.479067
C	-0.0015548687	 0.0207314737	-0.0342159159	 0.090261
C	-1.1515814312	-0.6452530013	 0.5263321767	 0.263163
C	-2.1358727364	-1.1689123553	 0.9755870056	-0.381335
C	 0.7171465993	-0.6765653268	-1.1497564485	-0.077402
C	 1.7252002228	 0.0960462288	-2.0012702814	-0.202412
N	 2.7791922348	 0.5238265999	-1.0605023073	-0.197133
C	 2.4549708452	 0.0743922542	 0.0846787862	 0.032632
N	 1.2915220855	-0.7399095997	 0.2138385001	-0.158564
H	 0.8280347322	 2.0187467817	-0.3271710369	 0.146913
H	-0.9324625661	 1.8931214628	-0.5027756914	 0.137826
H	-0.2027850284	 1.8398902189	 1.1057372686	 0.138657
H	-2.9970950134	-1.641846946	 1.3784646042	 0.195732
H	 0.2924812678	-1.5993480794	-1.5307789221	 0.110476
H	 2.1604283424	-0.5464792563	-2.7745823546	 0.126628
H	 1.3089051746	 0.9727626115	-2.5107671183	 0.122849
H	 3.0479094264	 0.249321462	 0.9773918446	 0.130778
