17
gdb 57943	3.43215	0.92716	0.76294	6.0503	67.42	-0.2623	-0.0169	0.2455	1451.4647	0.134346	-492.34808	-492.338172	-492.337228	-492.383957	35.297	
C	-0.0114882454	 1.567687502	-0.0842923624	-0.394387
C	 0.0175514955	 0.0378864938	 0.0597014882	 0.036935
O	 0.7865621816	-0.3300130564	 1.1695083262	-0.434199
C	-1.3954488381	-0.5539748146	 0.2312228006	 0.408403
O	-1.7008209734	-1.1102415884	 1.2612278722	-0.336171
N	-2.2323096868	-0.3776207536	-0.8552785337	-0.403001
C	-3.532056288	-0.9136860931	-1.0207389004	 0.470926
N	-4.1463245573	-0.3996829644	-2.1503927508	-0.567546
O	-4.0197625876	-1.7508667381	-0.3088191854	-0.324484
H	 1.0159874044	 1.9378028649	-0.1168881269	 0.142202
H	-0.5189586922	 1.8932997502	-0.9990736777	 0.094754
H	-0.5128059071	 2.0199412823	 0.7762621927	 0.135683
H	 0.4534717006	-0.398976958	-0.8551891486	 0.089038
H	 0.171997235	-0.8014737494	 1.757750853	 0.297282
H	-1.833720361	 0.0969898142	-1.6512006486	 0.257338
H	-3.9519063277	 0.5527612655	-2.4198218045	 0.255233
H	-5.1165979624	-0.6663605671	-2.2248439438	 0.271995
