19
gdb 38189	4.29615	1.021	0.92069	2.0909	74.43	-0.2435	0.0736	0.317	1279.489	0.159615	-422.956026	-422.948035	-422.947091	-422.989967	29.569	
C	-0.0056489766	 1.372960804	-0.291548265	-0.087898
O	 1.2241939738	 1.7206734779	 0.3760483943	-0.272133
C	 1.5125979464	 0.3384496024	 0.6662527877	-0.088209
C	 0.1767251262	-0.1275451344	 0.0395423252	-0.033898
C	-0.8374950614	-0.7405758528	 0.9838735056	-0.025182
C	-2.2653315932	-1.1108168867	 0.421387849	-0.287321
C	-1.9917922353	-2.5661187547	 0.8188529268	 0.040004
O	-0.8074072777	-2.978636217	 0.1252453104	-0.243955
C	-0.6570077874	-2.2320108076	 1.3385217166	 0.003983
H	-0.8752663037	 1.8609444499	 0.1689669387	 0.095872
H	 0.0195073481	 1.6303504912	-1.3581353482	 0.098727
H	 2.4206820005	-0.0072868737	 0.1565302434	 0.101093
H	 1.6229819379	 0.1587904572	 1.7443904406	 0.09376
H	 0.2924083743	-0.77058035	-0.8347655614	 0.094064
H	-0.9333175596	-0.1337933294	 1.8911406364	 0.081976
H	-3.0730366476	-0.6446946216	 0.9900295246	 0.109419
H	-2.4298626781	-0.9502890019	-0.6473230357	 0.110937
H	-2.6895260391	-3.3432523756	 1.107816717	 0.106675
H	-0.0646606773	-2.6839437772	 2.1261881142	 0.102087
