18
gdb 36454	3.5072	1.01077	0.86024	3.2332	76.98	-0.2441	0.0322	0.2763	1329.7613	0.148777	-398.08825	-398.079752	-398.078808	-398.122014	31.43	
N	 0.1283459185	-1.1778591677	-0.3333447541	-0.304692
C	 0.0358281348	-0.033476657	-0.2017660607	 0.261663
C	-0.0404643344	 1.414663218	-0.0233490456	-0.343659
C	 1.3552733294	 2.0511434973	 0.0585611962	-0.047979
N	 2.083763748	 2.0815765741	-1.2283350051	-0.319766
C	 2.496009279	 3.4969627833	-1.0237474197	-0.229666
C	 1.4637887896	 3.5841343344	 0.1013169148	 0.328442
C	 0.3970863989	 4.5772496796	 0.3429626846	-0.302306
N	 1.5553251991	 4.4580633487	 1.2555723166	-0.358412
H	-0.583479008	 1.8522447576	-0.8664754519	 0.157435
H	-0.6085636809	 1.6237533752	 0.8914425447	 0.141848
H	 1.9162945231	 1.5869680041	 0.8838667592	 0.086531
H	 2.8407707284	 1.413281337	-1.3096257032	 0.23236
H	 3.5193471374	 3.6346107595	-0.6511907398	 0.109059
H	 2.3446896553	 4.1351925526	-1.9003186683	 0.113328
H	 0.3681970509	 5.4938760612	-0.2399982824	 0.128084
H	-0.5754248873	 4.2274092191	 0.6811910145	 0.114977
H	 1.2896599081	 3.9640079629	 2.1049172801	 0.23275
