19
gdb 41956	2.2949	2.04402	1.6922	1.9673	69.65	-0.2289	0.0744	0.3033	910.1356	0.163349	-460.162301	-460.155479	-460.154535	-460.193171	28.08	
C	 0.0206977236	 1.3988101242	-0.1522238541	 0.032594
O	 1.3157718917	 1.9495136973	-0.0185815491	-0.276543
C	 2.0547155409	 1.4775480578	 1.1097255688	 0.092631
C	 1.4406449986	 1.8839697843	 2.4562422359	-0.092674
O	 0.1624579288	 1.3071928751	 2.6831796953	-0.253913
C	 0.0883614628	-0.093739032	 2.4599477314	-0.092674
C	 0.6875409692	-0.5219384726	 1.1134712081	 0.092631
C	 2.1416910505	-0.0492280885	 1.0310472202	-0.237242
O	-0.0223456057	-0.0074769239	-0.0149148494	-0.276542
H	-0.667542206	 1.8707357909	 0.5590884033	 0.106304
H	-0.2927450986	 1.6112089067	-1.1781222438	 0.11188
H	 3.0392947057	 1.9481655908	 1.0234271027	 0.084429
H	 2.1450251054	 1.6043538217	 3.2595559928	 0.088732
H	 1.2889779616	 2.9661914991	 2.4954472316	 0.119127
H	 0.6058995887	-0.6466138372	 3.2637723089	 0.088732
H	-0.9750703058	-0.3449703831	 2.5016543573	 0.119127
H	 0.6060843128	-1.6103948048	 1.0300936842	 0.084429
H	 2.5894384545	-0.3571559869	 0.0830066133	 0.112537
H	 2.7388007013	-0.4559679288	 1.8541695627	 0.096435
