19
gdb 54588	2.65452	1.54967	1.16447	1.6784	75.81	-0.2225	-0.0194	0.2031	1099.0005	0.159473	-419.171061	-419.162387	-419.161443	-419.204979	32.341	
C	 0.4410632511	 0.8763817214	-0.8586856543	-0.47111
C	-0.2520616544	 0.3421727852	 0.3756809541	 0.318073
O	 0.1009270745	 0.639601919	 1.4983512474	-0.316275
C	-1.3929131488	-0.6324506502	 0.1721621077	 0.218052
C	-2.3945623093	-0.7816949119	 1.3485566798	-0.223689
N	-2.2614166727	-2.2688273565	 1.3286384445	-0.317901
C	-1.2095567304	-2.1966885183	 0.295118336	-0.054774
C	-1.7935492006	-2.2967215208	-1.1316343918	-0.153226
N	-1.8926684421	-0.8096076163	-1.2060490763	-0.383076
H	 1.2732978402	 1.5149849175	-0.5605639012	 0.13155
H	 0.7952368158	 0.0536761517	-1.4877718843	 0.141269
H	-0.2688204501	 1.4359271984	-1.4762802258	 0.143783
H	-2.0053036637	-0.3058366324	 2.2525644237	 0.130288
H	-3.4134833798	-0.4267364327	 1.1536174634	 0.094974
H	-1.9200378939	-2.6345130402	 2.2095310212	 0.226747
H	-0.2612092838	-2.6886989938	 0.5163843085	 0.083151
H	-1.1212220491	-2.6997356972	-1.8978547512	 0.102155
H	-2.7424523568	-2.8411621506	-1.1566530736	 0.110325
H	-2.8274883661	-0.4489165525	-1.3665681378	 0.219684
