15
gdb 44164	3.88624	1.00862	0.98571	2.3773	70.07	-0.2627	-0.046	0.2167	1201.1994	0.112412	-416.783015	-416.775207	-416.774263	-416.816318	28.638	
O	-0.0999182196	 0.0689464092	-0.1519361132	-0.293302
C	-0.110192065	 1.258379809	-0.033318774	 0.399248
C	-1.1936520778	 2.3507423884	-0.123380246	-0.297178
N	-0.1191455523	 3.404899536	-0.2098352532	-0.119876
C	 0.6623556556	 3.3467591619	 1.0201181478	 0.013932
C	 0.1191806775	 3.0230167865	 2.4100336048	-0.395153
C	-0.6520953817	 4.13295662	 2.9716606905	 0.273967
N	-1.2621996826	 5.0125671221	 3.4055872531	-0.293212
C	 0.9584174574	 2.3182283036	-0.0214259638	-0.193633
H	-1.7262045004	 2.2877999962	-1.0759579315	 0.156479
H	-1.9179267045	 2.4777276917	 0.6845441798	 0.142515
H	 1.3874848248	 4.1576669029	 1.0434649156	 0.134429
H	-0.4989599869	 2.1219671472	 2.4208304423	 0.169228
H	 0.9694803679	 2.8188302749	 3.0706320537	 0.170144
H	 1.8954472077	 2.2982184704	-0.5667609662	 0.132412
