17
gdb 65760	2.72549	1.3541	1.16586	3.5482	69.33	-0.2319	-0.0423	0.1896	1104.4422	0.132994	-458.977056	-458.968074	-458.96713	-459.011309	32.455	
O	-0.1129225768	 1.3870514817	 0.1086073003	-0.482213
C	-0.0329914613	-0.0242362725	 0.0697889196	 0.3199
C	 0.8812051226	-0.5889913098	 1.1542072451	-0.37758
C	 2.2849214013	-0.0198780935	 1.1177843172	 0.174003
O	 2.5813187738	 1.0456129138	 0.629035273	-0.253755
C	-1.4737023814	-0.5901254352	-0.091278938	-0.27627
C	-1.2741264198	-0.7154654474	-1.6343643319	-0.340266
C	 0.2287344625	-0.5243768306	-1.3865971488	 0.351153
O	 1.2251882263	-0.7826119161	-1.9966977557	-0.295399
H	 0.8048668998	 1.70355146	 0.0828415487	 0.298762
H	 0.47106156	-0.3516959745	 2.1478438387	 0.146582
H	 0.9427383966	-1.682118497	 1.0980978822	 0.124722
H	 3.0616223377	-0.642465208	 1.6098188279	 0.102277
H	-1.6026988003	-1.559192348	 0.3962553256	 0.10835
H	-2.2470822329	 0.1001048556	 0.245121295	 0.124723
H	-1.5625440582	-1.646201567	-2.1273424528	 0.127839
H	-1.7023768	 0.1269766985	-2.1848372661	 0.147173
