20
gdb 16621	3.06925	2.09177	1.44044	0.2879	80.36	-0.2154	0.0285	0.2439	940.8277	0.17776	-311.878537	-311.870719	-311.869775	-311.910092	30.866	
C	-0.1815795582	 1.5551813374	 0.0122457485	-0.393665
C	 0.0245081851	 0.0327607962	-0.0046656716	-0.079753
C	 0.8169873063	-0.4858865058	-1.2087751306	-0.043202
C	 2.2658946152	-0.0918225593	-1.360293094	-0.281009
C	 1.9068109432	-1.4043414122	-0.689213595	-0.072756
C	 1.7852624346	-1.335748609	 0.7949947786	-0.187044
C	 0.7970814269	-0.5249205027	 1.1907217831	 0.316325
C	 0.4320950203	-0.1738324286	 2.5990748277	-0.493691
H	 0.7762506895	 2.0850898117	 0.0220659847	 0.115665
H	-0.7346317034	 1.8794071207	-0.8750526887	 0.113207
H	-0.7513486784	 1.871986252	 0.8918835331	 0.111085
H	-0.9757122482	-0.4291708387	-0.0145583868	 0.074027
H	 0.27232903	-0.7282429801	-2.1141699798	 0.078729
H	 2.6761241873	-0.1326126555	-2.3644927831	 0.104547
H	 2.6777036145	 0.6941197224	-0.7356908762	 0.107721
H	 2.1684684618	-2.3370023081	-1.1771811645	 0.080803
H	 2.4570026329	-1.8625912255	 1.465150697	 0.082644
H	 1.0479521522	-0.7201776207	 3.3188122271	 0.120774
H	 0.5569461788	 0.8982108239	 2.7973726471	 0.125695
H	-0.6210085305	-0.4059316181	 2.8070293834	 0.119897
