17
gdb 131853	5.58241	0.77004	0.69677	4.7226	72.18	-0.199	0.0102	0.2092	1556.1631	0.137572	-451.307328	-451.298664	-451.29772	-451.341686	31.136	
O	-0.0335392274	 1.4057992297	-0.3141851161	-0.418558
C	-0.0183377233	 0.0328860412	 0.0558455772	-0.092156
C	-1.4631348828	-0.4378733045	 0.095935095	-0.125472
N	-2.0618709001	-0.2808470533	-1.2161544777	-0.387137
C	-3.3940259795	-0.6033898247	-1.3827268646	 0.38561
C	-4.2128128783	-1.447729071	-0.6586927535	-0.181186
N	-5.3919240826	-1.3968268884	-1.3414862065	-0.153099
N	-5.323286514	-0.5838555898	-2.3969794301	-0.115011
N	-4.1116444067	-0.0962419189	-2.4287428495	-0.276015
H	 0.8625981246	 1.6748417154	-0.5339226527	 0.294636
H	 0.5383357493	-0.569119082	-0.6765874696	 0.103375
H	 0.4410770113	-0.1122911627	 1.0450184862	 0.093163
H	-1.4780244082	-1.4972079476	 0.3817153785	 0.105203
H	-2.0062488517	 0.121805767	 0.876662835	 0.102511
H	-1.8249371365	 0.6064188221	-1.6414486775	 0.252996
H	-4.073702143	-2.0454649849	 0.2240051346	 0.132859
H	-6.2564572112	-1.8721906776	-1.1404565986	 0.278282
