20
gdb 109732	1.97973	1.57493	1.03	4.711	76.96	-0.2476	0.0013	0.2489	1223.3824	0.16929	-440.293196	-440.2833	-440.282355	-440.328209	35.75	
C	 0.0400348529	 1.4288799166	 0.3996408812	-0.41879
C	-0.1280278378	-0.0200056962	 0.0000571177	-0.03255
C	 0.4999080476	-0.6261520759	-1.238768439	-0.04655
C	 1.4166874735	 0.1173831798	-2.1933578212	-0.079185
O	 2.3855897481	-0.7452141589	-2.7405480503	-0.425422
N	 0.9609133008	-0.9764834442	 0.0884571335	-0.086999
C	 2.2316158275	-0.8902846827	 0.6058318831	 0.381169
C	 2.304478337	-0.5759148481	 2.0865714506	-0.470707
O	 3.2290508307	-1.129412565	-0.0594125631	-0.368077
H	 1.0148213985	 1.8309654882	 0.1160356809	 0.13518
H	-0.7330608481	 2.037315287	-0.0808846108	 0.135937
H	-0.0754771896	 1.5468319516	 1.4820170605	 0.131292
H	-1.0901806388	-0.4403975843	 0.2935895504	 0.103806
H	-0.0579340686	-1.4268235327	-1.7237886198	 0.109541
H	 0.8198987949	 0.5029977746	-3.0282430628	 0.108497
H	 1.8762629177	 0.9820840891	-1.6925569104	 0.085093
H	 2.9072025718	-1.0590573603	-1.9816066756	 0.300111
H	 2.2110449173	 0.5047784097	 2.2404753586	 0.144502
H	 1.4975487781	-1.0633668719	 2.6384839419	 0.141199
H	 3.2736380067	-0.8956446464	 2.4698473845	 0.151954
