21
gdb 110546	3.37358	1.37524	1.32934	0.9746	80.99	-0.2444	0.0891	0.3335	1080.5686	0.185439	-387.093362	-387.085846	-387.084902	-387.125342	30.375	
C	-0.0099752154	 1.3753322556	 0.0910869675	-0.240417
O	-0.0076903295	-0.0130020567	-0.1495754879	-0.257663
C	-1.2816363552	-0.612460538	-0.0403279011	 0.172318
C	-1.2317063693	-2.0571019714	-0.5070359944	-0.088547
C	-0.8999716823	-2.901503724	 0.708273933	-0.049501
C	-0.7403561373	-1.9439920572	 1.8855904946	-0.215257
C	-1.7703924677	-0.8939174677	 1.4117252256	-0.098125
C	-3.0212457546	-1.7581070627	 1.1323435358	-0.227027
C	-2.3361017578	-2.7864239651	 0.2334414686	-0.064904
H	 1.0046755781	 1.7378708638	-0.0919545013	 0.124765
H	-0.7015364005	 1.9025910666	-0.5853041074	 0.102311
H	-0.2889934397	 1.6234412038	 1.125969994	 0.105212
H	-2.0201290105	-0.0144031728	-0.5993578525	 0.053873
H	-0.9198585597	-2.3241704406	-1.5074581768	 0.082936
H	-0.3417002532	-3.8237765547	 0.6192020091	 0.079232
H	-1.0137367647	-2.3938109022	 2.8459201667	 0.087211
H	 0.2686724044	-1.5302147267	 1.957308897	 0.107105
H	-1.9163080819	-0.0245370889	 2.0516686383	 0.059678
H	-3.4437803493	-2.1966162893	 2.0428401243	 0.093994
H	-3.8130277673	-1.2010367197	 0.6195375135	 0.092821
H	-2.8626197766	-3.621133982	-0.2103383568	 0.079986
