14
gdb 3252	6.12748	2.3641	2.13336	1.1681	57.27	-0.244	0.0748	0.3189	638.4985	0.113999	-324.497671	-324.491922	-324.490978	-324.527013	22.367	
C	-0.047248217	 1.5082138584	-0.0557752703	-0.30065
N	 1.2097462796	 0.7341902065	 0.0843253643	-0.366721
C	-0.0682370916	 0.0355442963	 0.006275453	 0.352518
C	-0.5296169192	-0.9631009541	 1.0984454682	-0.325129
C	-0.9159650257	-1.9193742764	-0.0455452205	 0.038672
O	-1.8709821097	-1.2367747915	-0.866677556	-0.23927
C	-0.4780976666	-0.9568955624	-1.0712871409	-0.078781
H	-0.3156352911	 2.0923142047	 0.820081268	 0.124516
H	-0.268334964	 1.9869170218	-1.0064777922	 0.116332
H	 1.6945174798	 0.6902687806	-0.8099361072	 0.231232
H	 0.3166855478	-1.3109573908	 1.6956616687	 0.121669
H	-1.3538162363	-0.658631717	 1.7472729781	 0.114246
H	-0.9303300793	-3.0025123215	-0.0582418767	 0.108334
H	-0.0755986269	-1.0986713546	-2.0689981467	 0.103032
