16
gdb 55942	4.33084	1.01166	0.90946	1.2145	65.16	-0.2588	0.0542	0.3129	1257.8635	0.123618	-475.020533	-475.012188	-475.011244	-475.054975	30.367	
N	-0.1800088183	 1.2872440603	 0.0491213489	-0.564175
C	 0.0086908564	-0.0604809526	 0.1288601298	 0.499343
O	 1.029485426	-0.6086160605	 0.4742690226	-0.402582
O	-1.1395745248	-0.7048683327	-0.2131087309	-0.27029
C	-1.095558108	-2.1195069658	-0.0950242705	 0.147568
C	-1.4201335545	-2.7667188375	 1.2967275514	-0.284451
C	-2.5767928841	-3.4976908532	 0.6031494622	 0.026805
O	-3.4553825432	-2.4853860952	 0.1087239578	-0.236257
C	-2.314475738	-2.8233937392	-0.6843924049	-0.023291
H	 0.641750725	 1.8635420154	 0.094963603	 0.26971
H	-0.995517203	 1.6437031887	-0.4183903205	 0.268146
H	-0.1521289523	-2.4962720617	-0.4939150333	 0.112642
H	-0.6113281584	-3.4038896982	 1.6574609915	 0.119668
H	-1.7342280118	-2.0727701163	 2.0782806155	 0.121275
H	-2.9954939875	-4.4771118533	 0.7987295641	 0.110761
H	-2.4922370437	-3.1320351481	-1.7077591666	 0.105129
