16
gdb 41079	4.193	1.85037	1.65146	1.3818	69.82	-0.2308	0.0565	0.2873	821.1379	0.126691	-400.601264	-400.595674	-400.59473	-400.630901	24.085	
C	 0.1314063944	 1.474683282	-0.2216050542	-0.212921
O	 1.5039588497	 1.3557132039	 0.2725181664	-0.308496
C	 1.152382394	 0.15537796	 1.0357049277	 0.109887
C	 1.5651271541	-1.2412847904	 0.5463332383	-0.13788
C	 0.3065488497	-2.1172061031	 0.8830217156	-0.046013
C	-0.8602400807	-1.2375376489	 0.488966284	-0.208735
N	-0.2318463682	-2.1498140114	-0.5167066353	-0.171421
C	 0.7656235902	-1.0140059395	-0.7649756909	-0.008278
C	-0.0559650595	 0.0032751852	 0.1048530979	 0.309974
H	-0.4500961696	 2.1741820285	 0.3939209829	 0.108194
H	 0.095587326	 1.7788637309	-1.2723707725	 0.11655
H	 1.0828348013	 0.3661113011	 2.1078145428	 0.077447
H	 2.548185437	-1.7010165283	 0.6356374789	 0.08088
H	 0.2334544016	-2.9730913877	 1.5434800558	 0.102076
H	-1.8736950292	-1.3747168274	 0.8455600988	 0.098773
H	 1.148828579	-0.822750675	-1.7635357862	 0.089962
