19
gdb 69728	3.6675	1.62646	1.42797	1.0703	78.52	-0.2196	0.0791	0.2986	969.6029	0.161895	-381.971191	-381.964392	-381.963448	-382.00192	28.619	
C	-0.0157448523	 1.5060802168	 0.0353199436	-0.503255
C	 0.0516409647	 0.006411287	-0.0067352566	 0.333341
N	-0.6141572346	-0.8469635189	 1.0122287052	-0.375274
C	 0.8686203262	-0.8603746315	 0.8723514363	-0.124278
C	 1.3459997132	-1.9045198572	-0.1156046858	 0.024246
C	 0.1940595002	-2.2754715915	-1.0870750934	-0.065535
C	 1.2680297029	-2.3606442121	-2.1778715182	-0.190183
N	 1.725759905	-1.1184720604	-1.4136741368	-0.171752
C	 0.2119297822	-0.7437287827	-1.3227518046	-0.030764
H	 0.7797940263	 1.9430458588	-0.577327521	 0.140736
H	-0.9749903721	 1.8741565599	-0.3471319853	 0.124771
H	 0.1031221882	 1.8801171361	 1.0577312521	 0.11477
H	-0.8482914172	-0.258075656	 1.8114939491	 0.223498
H	 1.4977834165	-0.4828788172	 1.6696761225	 0.094255
H	 2.0767704361	-2.6531720227	 0.1938858547	 0.071235
H	-0.6681135316	-2.9188623217	-0.8962174351	 0.075195
H	 1.9831611507	-3.187693362	-2.1362441746	 0.096458
H	 0.9724104338	-2.1550674598	-3.2110114605	 0.095997
H	-0.2055287182	-0.3139559449	-2.2355417815	 0.066539
