18
gdb 46530	3.94575	1.16778	1.08432	4.1779	73.16	-0.2488	0.0275	0.2763	1157.9124	0.148661	-439.088782	-439.0809	-439.079956	-439.121861	29.692	
N	 0.0949105821	 1.3311814027	-0.0195520384	-0.542856
C	 0.0403594506	 0.07169798	-0.0284585522	 0.416891
C	-1.2144305131	-0.7686501246	 0.0584228493	-0.359264
C	-0.7667091239	-2.1398874635	-0.4461628658	 0.405898
C	-1.5934453823	-3.4045802482	-0.1383444471	-0.363483
C	-1.7937607473	-3.4808948179	-1.664142408	-0.068631
O	-0.9848614573	-2.3036533693	-1.871454514	-0.315067
C	 0.7231127719	-2.1289218714	-0.0875526684	-0.126057
O	 1.1302722973	-0.7556063378	-0.1120300509	-0.23858
H	 1.0645736643	 1.6478875913	-0.0760006924	 0.22228
H	-1.5336767342	-0.8315444813	 1.1055875405	 0.130773
H	-2.0299737241	-0.344602058	-0.5267469551	 0.147435
H	-1.0255049656	-4.2279248785	 0.3005692471	 0.115509
H	-2.4948535179	-3.2372179704	 0.4533967098	 0.119319
H	-1.3697720845	-4.3615079754	-2.1600680003	 0.108979
H	-2.82190118	-3.3357999544	-2.0153354863	 0.110494
H	 0.8918098646	-2.5427931581	 0.9158494134	 0.107642
H	 1.3188367694	-2.6831013153	-0.8161450514	 0.128717
