22
gdb 100527	2.89838	0.94723	0.82502	2.0894	80.7	-0.2352	0.033	0.2682	1498.1222	0.191565	-441.50939	-441.497851	-441.496907	-441.546694	39.809	
C	-0.3677271944	 1.5377785408	-0.0812311874	-0.396839
C	-0.05591031	 0.0315272099	 0.0031883421	-0.100423
C	-1.3253313298	-0.7734297978	 0.2972642364	-0.080733
O	-1.7753854753	-0.3876637273	 1.5911427959	-0.432173
C	 0.5527119979	-0.4673135475	-1.3099880169	 0.418377
O	-0.1629691728	-0.9922017629	-2.1527106988	-0.394292
N	 1.8985093886	-0.2885867691	-1.5223561575	-0.093303
C	 2.4721581131	-0.7298633774	-2.7837066408	-0.344711
C	 2.8378154582	 0.3363887862	-0.6126727991	-0.3364
H	 0.5386897632	 2.1428344853	-0.1745770802	 0.10937
H	-0.9997399222	 1.7425732673	-0.9516658674	 0.127996
H	-0.904070554	 1.8494350735	 0.8174404508	 0.140174
H	 0.6230713255	-0.14631207	 0.8433590838	 0.091685
H	-2.0766139498	-0.5693263615	-0.4755634852	 0.107953
H	-1.0992087164	-1.8483895951	 0.2578101951	 0.093536
H	-2.631122176	-0.7981935624	 1.7419235008	 0.287537
H	 2.9045954663	 0.1183681678	-3.3300613452	 0.118355
H	 3.2696409079	-1.4629446122	-2.6076566739	 0.118173
H	 1.6828901484	-1.1831380428	-3.3800127566	 0.170077
H	 3.645323139	-0.3611848452	-0.3522647186	 0.124175
H	 3.2989795411	 1.2172675984	-1.0797341898	 0.125229
H	 2.3552080214	 0.6570200321	 0.3069040524	 0.146237
