19
gdb 56768	2.82558	1.29717	1.04533	4.4908	79.16	-0.2515	0.0224	0.2739	1188.4343	0.160382	-382.045946	-382.037202	-382.036257	-382.079563	32.971	
N	-0.2854286608	 1.5716521247	-0.1074200426	-0.498308
C	-0.0342875867	 0.122745217	-0.0577947243	-0.264056
C	-1.3034670317	-0.5779455894	 0.2048372064	 0.309164
N	-2.2920215673	-1.1517196819	 0.3731524294	-0.334099
C	 0.6507606528	-0.4591200901	-1.2798252973	 0.381358
C	-0.0698695512	-0.8424503133	-2.5441342148	-0.334525
C	 0.7349779801	-1.8898926231	-1.8207911442	-0.100206
C	 2.2265962483	-1.7086085043	-2.1245281448	-0.220385
C	 2.1441283169	-0.2438019763	-1.579878811	-0.311747
H	 0.607583991	 2.0510334934	-0.1808460136	 0.239458
H	-0.8000472595	 1.7905498743	-0.9569093826	 0.240226
H	 0.6057231854	-0.0533023824	 0.8177699835	 0.128837
H	-1.1459409765	-0.9531589439	-2.4540321659	 0.13607
H	 0.2659074383	-0.4570298143	-3.5047640221	 0.10555
H	 0.2660107839	-2.7862441179	-1.4335150699	 0.106292
H	 2.8734919502	-2.3395131877	-1.5118564876	 0.11014
H	 2.5157582806	-1.8267550719	-3.1735028329	 0.10286
H	 2.3836269832	 0.5624223028	-2.2808309262	 0.099205
H	 2.7438013532	-0.1074592058	-0.6753076396	 0.104163
