16
gdb 49541	2.23745	1.87179	1.19632	3.9764	76.78	-0.2347	0.0161	0.2508	1028.8254	0.123216	-400.657618	-400.649776	-400.648832	-400.690032	29.853	
O	 0.1062895052	 0.0502416973	 0.4810096566	-0.319371
C	 0.1017503934	 1.2385509457	 0.2522444426	 0.136385
N	 1.1204051115	 1.9163593387	-0.3703061788	-0.063141
C	 2.5952699597	 1.6975189344	-0.1959992247	-0.039027
C	 2.7884833347	 2.9349441561	-1.1185955396	-0.226901
C	 1.6640408714	 3.293067704	-0.1070443273	-0.048791
C	 2.5803593812	 2.6978672352	 1.0264638871	-0.180738
C	 1.9876367089	 2.3129561338	 2.2855044149	 0.30276
C	 1.5050992901	 2.0226555818	 3.3476445172	-0.408743
H	-0.7806081138	 1.8906459083	 0.4147692495	 0.07077
H	 3.0415425317	 0.7075809254	-0.250168484	 0.123948
H	 3.7277245629	 3.4808479256	-1.0248180372	 0.109538
H	 2.4655986827	 2.8039265065	-2.150072244	 0.122384
H	 1.0259543299	 4.1748477091	-0.061170986	 0.108358
H	 3.5220777305	 3.2357001823	 1.173260731	 0.10855
H	 1.0711189201	 1.7417019557	 4.2756100828	 0.204018
