18
gdb 9409	6.70143	0.77349	0.7249	1.9309	66.75	-0.2565	-0.0393	0.2172	1531.4243	0.1507	-422.071549	-422.062034	-422.06109	-422.106682	32.405	
C	-0.0363749883	 1.3715319514	 0.0810057121	-0.229393
O	-0.084242436	-0.0314306487	-0.0208541081	-0.233366
C	 0.6727617329	-0.5272046431	-1.1022185079	-0.051321
C	 0.5969319724	-2.0484729309	-1.0744031945	-0.222357
C	 1.3782785555	-2.6784991985	-2.2385333556	 0.045381
O	 2.735517152	-2.3282854637	-2.2030543942	-0.434231
C	 1.2237113717	-4.1853915724	-2.220980461	 0.137532
O	 2.1795295035	-4.9217745782	-2.1823777496	-0.259299
H	 0.9924796717	 1.7356385592	 0.2295911277	 0.106423
H	-0.4452933464	 1.8616210218	-0.8171908592	 0.102898
H	-0.641197664	 1.658158738	 0.9447445143	 0.126943
H	 0.2773632096	-0.1434665723	-2.0601782049	 0.081476
H	 1.7220821745	-0.2038320562	-1.029868546	 0.113154
H	 1.0051393521	-2.4110005154	-0.1246309327	 0.1205
H	-0.4548371506	-2.3554623443	-1.1243510011	 0.106828
H	 0.9204292978	-2.3338344206	-3.1861626687	 0.093311
H	 3.2216788178	-3.1681528524	-2.1877240292	 0.295192
H	 0.1853502537	-4.5746343837	-2.2436176913	 0.100329
