20
gdb 111572	3.24244	1.40854	1.20542	1.9336	77.94	-0.2247	0.0747	0.2994	1085.6267	0.173686	-403.082058	-403.07466	-403.073716	-403.113962	29.917	
O	-0.1376974807	 1.474239926	-0.1443987663	-0.425552
C	 0.0220243732	 0.0794645382	 0.0907262368	-0.130738
C	-1.3783281885	-0.5113859679	 0.1650133173	 0.07547
C	-1.5163043	-2.0430598423	 0.2874231685	-0.10761
C	-0.8748725511	-2.3066593715	 1.662595279	-0.171879
N	-2.0309080877	-1.5613822975	 2.2630696005	-0.15194
C	-2.8820974669	-2.0788469506	 1.0990285927	 0.005839
C	-3.5945658432	-0.7285273982	 1.0472989523	-0.244975
C	-2.1902933432	-0.2395034394	 1.458365409	-0.011854
H	 0.73058293	 1.8859466702	-0.110389677	 0.286749
H	 0.5858647182	-0.3996854982	-0.7271273467	 0.083765
H	 0.5824233317	-0.0915641604	 1.0199834884	 0.08991
H	-1.9177167755	-0.1283057213	-0.7074893028	 0.080108
H	-1.3210757133	-2.6540862267	-0.5960473373	 0.05931
H	-0.9490241092	-3.3514798158	 1.9801210244	 0.103923
H	 0.1286574351	-1.9357232557	 1.8859485132	 0.096131
H	-3.3839577098	-3.04053309	 1.218986331	 0.075232
H	-4.0180473583	-0.3600170985	 0.1107970564	 0.097056
H	-4.3204578875	-0.6548873676	 1.8595741003	 0.111401
H	-2.0134207333	 0.6893244668	 1.9973230305	 0.079655
