16
gdb 25635	3.68229	0.95687	0.76381	1.5442	85.78	-0.1802	0.0229	0.2031	1455.5661	0.124088	-400.760463	-400.7514	-400.750456	-400.795725	32.377	
C	-0.0018806716	 1.4765387407	 0.0058664024	-0.510636
C	-0.0000983157	 0.0216302008	-0.0149883858	 0.234342
C	-0.0091038446	-1.1866511143	-0.0392907406	-0.194921
C	-0.0020268907	-2.5970219492	-0.0622993493	 0.100187
C	 1.1171239675	-3.3970529328	-0.0169860118	 0.272349
N	 2.4619730392	-3.0984199631	-0.0236715316	-0.606842
O	 0.7849749438	-4.7019086635	-0.0421602061	-0.172217
C	-0.593114826	-4.7660005649	-0.1060943404	-0.029873
C	-1.1144738317	-3.5214712943	-0.1278152999	-0.295552
H	 0.6957049992	 1.8912853828	-0.7312327929	 0.144801
H	-0.9974142825	 1.8693627696	-0.2299464546	 0.149576
H	 0.2815803222	 1.8715635077	 0.9887714452	 0.142728
H	 2.6399268426	-2.1353775667	 0.2278999072	 0.26355
H	 3.0298595531	-3.7431806364	 0.5101585127	 0.257944
H	-1.0060994046	-5.7591807949	-0.1261461218	 0.133866
H	-2.1585879501	-3.2564250915	-0.1746710829	 0.110695
