18
gdb 16394	3.15391	2.24834	1.77273	2.0725	66.28	-0.2566	0.0634	0.32	804.0037	0.156129	-384.925074	-384.918222	-384.917278	-384.955719	27.908	
O	 0.2318371958	 1.3598364163	 0.0734697474	-0.448391
C	 0.0438270387	-0.0481483637	-0.0143135049	 0.104302
C	-1.397687121	-0.5095962683	-0.258324133	-0.064035
C	-1.1650659538	-1.9860170678	-0.6957704329	-0.2381
C	-0.5185155586	-1.3123338413	-1.9408027576	-0.029424
C	-1.5942675617	-0.2056754565	-1.777709785	-0.243902
C	 0.7241082306	-0.6581860215	-1.3102389553	 0.126499
O	 1.2954829733	 0.337346533	-2.1229660013	-0.454416
H	-0.4746219954	 1.7878560263	-0.4226632769	 0.289923
H	 0.4648511518	-0.4602990846	 0.9062284088	 0.087412
H	-2.1373107491	-0.2340156995	 0.4946623453	 0.066439
H	-0.5353469629	-2.6177225621	-0.0605936392	 0.094138
H	-2.0974099874	-2.5030774655	-0.9308013438	 0.103935
H	-0.370504132	-1.8413149975	-2.8816979013	 0.069143
H	-2.5794796283	-0.5154002629	-2.1317697877	 0.101803
H	-1.3563408036	 0.7885894154	-2.1678324063	 0.089885
H	 1.479739059	-1.4124778351	-1.0493976791	 0.062877
H	 1.3781704244	 1.1172979553	-1.5543146872	 0.28191
