22
gdb 118154	2.95965	0.91906	0.86521	1.5724	78.72	-0.2268	0.0654	0.2922	1452.8415	0.193844	-441.432333	-441.422418	-441.421474	-441.468509	35.695	
C	 0.3583509199	 1.3983702005	-0.1140468954	-0.342253
N	 0.1159178396	-0.03443732	 0.0176733114	-0.082267
C	 0.7796963164	-0.6183274068	 1.1921263295	-0.173836
C	 1.2146308828	-2.058832246	 0.9053815749	-0.051301
O	 1.9918234454	-2.119090556	-0.2703827717	-0.420203
C	-1.2655304817	-0.4484386542	-0.1331114856	 0.00659
C	-2.4611772014	 0.359792683	 0.4639430032	-0.098281
O	-3.1004384652	 0.4156310221	-0.8265757019	-0.27054
C	-1.974536064	-0.1985436718	-1.4830198037	-0.10474
H	 1.4318868493	 1.5729017898	-0.2294888262	 0.128997
H	-0.1400433969	 1.7890685295	-1.0045996357	 0.131618
H	 0.0112463737	 1.9864803536	 0.7516569848	 0.1068
H	 1.6798733053	-0.0273473926	 1.3863757348	 0.109938
H	 0.1561627432	-0.570929331	 2.1014632271	 0.087879
H	 1.8288398655	-2.4262130815	 1.7349196566	 0.104984
H	 0.3359873965	-2.7233307058	 0.8400586669	 0.084926
H	 1.5535110633	-1.5087164688	-0.8809550614	 0.276803
H	-1.3263728872	-1.4996184417	 0.1523341545	 0.095172
H	-3.0783315466	-0.1591189334	 1.2067160244	 0.101031
H	-2.2155722581	 1.359411083	 0.8436719229	 0.100227
H	-1.4566451552	 0.4946617477	-2.1582593069	 0.102261
H	-2.2610454546	-1.0913937099	-2.0512505224	 0.106197
