15
gdb 11177	3.885	1.53881	1.34074	3.4532	66.75	-0.2437	0.0214	0.2652	932.6668	0.119674	-362.675655	-362.668274	-362.66733	-362.707572	27.64	
O	 0.0439400223	-0.0167071554	 0.0050522194	-0.370101
C	-0.0286040179	 1.1882037997	 0.067740544	 0.41096
C	-1.2943170644	 2.0495909903	 0.1104917772	-0.326466
C	-0.7938399848	 3.4548373407	 0.4690971307	-0.223519
C	 0.6871078488	 3.4637942685	-0.0193883391	-0.178229
N	 1.0420779998	 2.0542833344	 0.1054310993	-0.283654
C	 0.8436703603	 3.9727640953	-1.3863050606	 0.349451
C	 0.9798041191	 4.3880750822	-2.5060372514	-0.473851
H	-1.7493385064	 2.0163445193	-0.8854168923	 0.14092
H	-2.0167381882	 1.6373716242	 0.8164045231	 0.133727
H	-1.3681496066	 4.2625208853	 0.0153185736	 0.124058
H	-0.7989153918	 3.5956513897	 1.5533347774	 0.118617
H	 1.3052244144	 4.0705294211	 0.6519757836	 0.116696
H	 1.960628271	 1.7150081392	-0.1372543744	 0.255335
H	 1.1003238543	 4.7520687356	-3.4966871604	 0.206056
