13
gdb 43319	2.72493	1.71907	1.21712	5.4677	69.33	-0.2634	-0.0852	0.1781	967.9954	0.090336	-415.610094	-415.603013	-415.602068	-415.641743	26.562	
O	 0.0082277338	-0.0138976488	-0.0575123317	-0.294672
C	-0.0348145486	 1.1855363127	-0.009879339	 0.375837
C	-1.2294137943	 2.0683328924	 0.0923086427	-0.189628
C	-0.877942445	 3.3582218897	 0.0248851913	-0.032882
C	 0.6090455066	 3.5202831613	-0.0581348001	-0.142523
N	 1.2835206981	 2.9867682894	 1.1467749049	-0.33973
C	 1.1728081358	 2.1416859353	-0.0856272431	 0.068324
C	 2.3487220756	 1.7821885466	-0.8162699215	 0.214012
N	 3.3055380764	 1.4909894554	-1.3970056091	-0.331269
H	-2.2253370618	 1.6651949886	 0.2166242251	 0.139697
H	-1.550265942	 4.2058327842	 0.0756418172	 0.139994
H	 1.0645957587	 4.3336448054	-0.6101504256	 0.13476
H	 2.2387373566	 3.3462374178	 1.191489979	 0.258079
