16
gdb 23335	2.53482	1.28483	0.98692	2.6396	74.48	-0.2407	-0.0331	0.2076	1189.2503	0.123164	-437.78567	-437.777611	-437.776666	-437.818698	30.057	
O	-0.1272717734	 1.3875992456	-0.0682780613	-0.404149
N	 0.0482855424	-0.0182674826	-0.0654392179	-0.322957
C	-1.0610643274	-0.6104462384	-0.0055165082	 0.498107
C	-2.5694245666	-0.4089105083	 0.0314937444	-0.153632
C	-2.6067889758	-1.5432629317	-1.0522994164	-0.23081
C	-1.5530989855	-2.0419644868	-0.0027592251	-0.142449
C	-2.5935607004	-1.5791944662	 1.0949406113	-0.075856
C	-2.1026274074	-1.304331855	 2.4865353733	 0.133962
O	-2.6759517814	-1.6830179149	 3.4776713121	-0.257387
H	 0.7832010293	 1.6993967165	-0.1068467089	 0.307673
H	-3.1373543165	 0.516702317	 0.0608224708	 0.112182
H	-3.5346735184	-2.1183518609	-1.0956079833	 0.112777
H	-2.2293113022	-1.2887028245	-2.0435554536	 0.121157
H	-0.9753386072	-2.9630453697	-0.0119374004	 0.106273
H	-3.5207598763	-2.1560829898	 1.1198184516	 0.097746
H	-1.1594745432	-0.7195817604	 2.5512151915	 0.097363
