11
gdb 132257	3.62903	1.26026	0.93542	3.7161	65.81	-0.2969	-0.1006	0.1963	1096.1075	0.067462	-455.758555	-455.751985	-455.75104	-455.789997	23.866	
F	-0.0055557835	 0.0787233868	 0.002891302	-0.040066
C	-0.0160505138	 1.392020684	 0.011224191	 0.35538
N	-1.2119975296	 1.9495885514	 0.0300592315	-0.347147
C	-1.2078165736	 3.28889645	 0.0368006367	 0.227055
C	-0.0315515618	 4.0365363437	 0.0245943632	-0.175918
C	 1.1523831774	 3.3060459385	 0.0045101397	 0.026559
N	 1.1736969524	 1.9732140309	-0.0025543011	-0.290544
C	-2.4875312644	 3.9494932746	 0.0576706029	 0.256164
N	-3.4951560006	 4.5156192546	 0.0743243212	-0.305241
H	-0.0444330641	 5.1178190116	 0.0303350817	 0.145901
H	 2.1175122617	 3.8049076539	-0.0062360487	 0.147857
