19
gdb 65461	4.2983	0.74328	0.71557	0.8045	78.94	-0.2526	-0.0346	0.218	1582.5096	0.155655	-423.038787	-423.028815	-423.027871	-423.074911	34.869	
C	-0.0421790643	 1.5591876308	-0.0564762324	-0.467549
C	-0.0424922024	 0.0498542576	 0.0516010394	 0.213027
C	 1.2482812521	-0.747717338	-0.129637358	-0.325374
C	 0.6154557874	-0.6885532631	 1.2218040073	-0.055126
C	 1.2533138282	 0.0612056783	 2.3777121181	-0.311425
C	 2.2085986931	-0.8327660899	 3.1467588166	 0.169739
O	 3.3476283067	-0.5508088279	 3.4095815334	-0.2315
C	-1.2650844241	-0.6190663254	-0.4666308631	 0.126074
O	-2.2178176669	-0.0451063911	-0.9320228503	-0.2651
H	 0.9144043822	 1.9896164661	 0.247000768	 0.116948
H	-0.2377902398	 1.8576646655	-1.0900182043	 0.139628
H	-0.8319280393	 1.9978120327	 0.5608457727	 0.13379
H	 1.2088763507	-1.6772993223	-0.6881173583	 0.126075
H	 2.1429065148	-0.1586795936	-0.3020546591	 0.134606
H	 0.0918889256	-1.5920858719	 1.5305288572	 0.098785
H	 1.8047253093	 0.9448902571	 2.050816019	 0.128786
H	 0.4719976443	 0.3884902021	 3.0795199711	 0.130132
H	 1.7692115881	-1.8068456808	 3.466608106	 0.07527
H	-1.2425591057	-1.7330524962	-0.393225893	 0.063214
