17
gdb 90582	3.82093	1.26218	1.03096	3.8455	76.59	-0.2112	-0.017	0.1942	1148.6444	0.137546	-417.995724	-417.987939	-417.986995	-418.027976	30.024	
C	-0.3740794991	 1.5025724885	-0.0851761776	-0.364594
C	 0.0364557759	 0.0637553193	 0.1853922452	-0.032017
N	 1.140634563	-0.3896377296	-0.7632733321	-0.340496
C	 2.173966689	-0.2798761112	 0.3509386599	-0.121494
C	 1.0182876667	-0.2031411096	 1.3142433478	 0.080814
C	 1.1487618746	-1.1756170695	 2.2290200273	-0.11039
N	 2.4016593154	-1.79688446	 2.080815227	-0.309904
C	 3.0380287714	-1.4362043205	 0.8924093987	 0.376657
O	 4.0902423629	-1.8740897097	 0.4937246599	-0.357597
H	 0.4948086614	 2.1667305525	-0.0777187158	 0.124263
H	-0.8559819501	 1.5813684134	-1.064197418	 0.120854
H	-1.0779891122	 1.8486210679	 0.6788549763	 0.115925
H	-0.8427701941	-0.5899296012	 0.1739210417	 0.081202
H	 1.0024598042	-1.3720698032	-0.991892598	 0.232874
H	 2.8173262161	 0.5875088111	 0.1804986019	 0.116256
H	 0.4078234885	-1.6185885894	 2.8815310421	 0.125775
H	 2.8063002865	-2.4665719987	 2.7154440937	 0.261872
