16
gdb 48692	2.88039	1.18828	0.98221	4.9984	75.38	-0.2622	-0.0363	0.2259	1194.8857	0.124114	-400.746662	-400.738659	-400.737715	-400.779676	29.574	
O	-0.1715736806	 0.0222013772	 0.1700261989	-0.258895
C	-0.0455079227	 1.2125182582	 0.011438288	 0.05606
C	 1.2481469495	 1.9075175324	-0.0068491886	 0.286117
C	 1.3824410731	 3.3801232118	 0.3208954434	-0.347916
C	 1.7382665909	 2.9475196519	-1.0544858264	-0.089729
C	 3.128602426	 2.2755049441	-1.0667785863	-0.153932
C	 2.6128093934	 1.2196340953	-0.0171578355	-0.319394
C	 3.5137990989	 1.7079080384	-2.3485191134	 0.269263
N	 3.8147360147	 1.2611914609	-3.371296494	-0.316676
H	-0.9268225764	 1.876709473	-0.1451075394	 0.071278
H	 0.4451771825	 3.9212240985	 0.4083932082	 0.137074
H	 2.1482654939	 3.6906329534	 1.0273474974	 0.128438
H	 1.2160692397	 3.2956123782	-1.9362079479	 0.12948
H	 3.9353152364	 2.9258422095	-0.7132801152	 0.129946
H	 3.1548263164	 1.1940018088	 0.9311571066	 0.119682
H	 2.5592245041	 0.2136012783	-0.4323881858	 0.159204
