19
gdb 117911	3.77497	0.79752	0.71062	1.7839	80.01	-0.2568	-0.0587	0.1981	1608.1712	0.154944	-422.995222	-422.984473	-422.983529	-423.031988	37.038	
C	-0.1514140914	 1.3866406129	-0.0148493877	-0.229664
O	-0.0027467956	-0.0131185737	-0.0096729534	-0.242114
C	 0.6181220187	-0.5017076638	-1.1796536337	-0.064981
C	 0.7004259123	-2.0228674187	-1.0635206638	-0.115331
C	-0.6936147041	-2.6757720913	-0.9810398865	-0.402686
C	 1.5001323469	-2.6018426709	-2.2208292106	 0.225079
O	 1.8480911909	-1.9500150313	-3.1831437769	-0.29968
C	 1.833332287	-4.0155158131	-2.1125318695	 0.260052
C	 2.1183760491	-5.1805583646	-2.0089154862	-0.391264
H	 0.8207216528	 1.9000877048	-0.0813127276	 0.106437
H	-0.7760086699	 1.7280422757	-0.8553506946	 0.106358
H	-0.6361334154	 1.6679027187	 0.9232302911	 0.1265
H	 0.0439940148	-0.2197819017	-2.076626985	 0.099804
H	 1.6247231297	-0.071643679	-1.2968158572	 0.099508
H	 1.2419698164	-2.2700165444	-0.1400616781	 0.110221
H	-0.6185190675	-3.7560878587	-0.8348998561	 0.127982
H	-1.2424724517	-2.2414030352	-0.1437631866	 0.145313
H	-1.2622624826	-2.4910576367	-1.8987577728	 0.124335
H	 2.3777568898	-6.2088217792	-1.9338196447	 0.214131
