17
gdb 112227	2.22785	1.35882	0.92988	4.4475	74.39	-0.2402	-0.0489	0.1913	1251.8745	0.134833	-418.011408	-418.00231	-418.001365	-418.045991	32.483	
C	-0.2630389478	 1.6289428495	-0.1282832116	-0.323433
N	-0.3003693837	 0.3362612918	 0.5428976974	-0.284848
C	-1.3151696187	-0.5517640908	 0.0594311196	 0.042173
C	-1.2595390535	-1.1730265064	-1.3913598235	-0.371384
C	-1.5911274201	-2.5276423454	-0.7768158516	 0.413253
O	-2.0027382251	-3.5670852146	-1.1850381365	-0.265941
C	-1.3278348852	-1.9993693483	 0.681370914	-0.315044
C	-0.0546013733	-2.4319869901	 1.2224238443	 0.286741
N	 0.9862285348	-2.7556473838	 1.6108022445	-0.326854
H	 0.5439970741	 2.2315976538	 0.2960325757	 0.132905
H	-0.1118747617	 1.5711454353	-1.2199720841	 0.104137
H	-1.2051912233	 2.1598863986	 0.0491034198	 0.127488
H	 0.6111621011	-0.1094257107	 0.5230562818	 0.237074
H	-2.2935015865	-0.0884815904	 0.2243038224	 0.107324
H	-1.9408729413	-0.8072950136	-2.1624176203	 0.139196
H	-0.2376217072	-1.1746225875	-1.7901010634	 0.147168
H	-2.1331409925	-2.2112718974	 1.3887937114	 0.150045
