23
gdb 77571	2.1991	1.42894	1.2859	1.1419	85.23	-0.245	0.0768	0.3218	1179.0065	0.203394	-388.269891	-388.259896	-388.258951	-388.303553	39.156	
C	-0.4442449963	 1.5373413003	 0.4269674833	-0.423164
C	-0.1215516866	 0.0594692339	 0.2356091485	-0.09434
C	 0.2593968991	-0.4474691604	-1.1631361764	 0.404717
O	-0.6414657236	-1.0430874806	-2.0341318039	-0.470065
C	 1.5756077282	 0.1069222758	-1.6284780026	-0.372268
C	 1.5549842198	-1.0423711587	-0.6433753682	-0.144249
C	 1.2328489185	-0.5651325722	 0.7880051145	 0.326522
C	 2.2361554621	 0.3866463984	 1.4398405386	-0.443221
C	 0.9555068992	-1.7530398	 1.7124472764	-0.443196
H	 0.3435335348	 2.1882931513	 0.03583109	 0.112122
H	-1.3750292339	 1.7970245479	-0.0904829191	 0.11018
H	-0.5808893632	 1.7822518657	 1.4858554617	 0.114764
H	-0.957045369	-0.5416567324	 0.6089306044	 0.075166
H	-0.9755209962	-0.3667058131	-2.6329767944	 0.283335
H	 1.8384609692	-0.1872290056	-2.640069596	 0.110711
H	 1.9250444335	 1.0963288865	-1.3457368232	 0.101584
H	 2.0105438046	-1.996263414	-0.8850295491	 0.084943
H	 2.4975651538	 1.2315757123	 0.7970363075	 0.109462
H	 1.8402232645	 0.7935243417	 2.3773726129	 0.110256
H	 3.1656740815	-0.1430391056	 1.6774995998	 0.11129
H	 1.8805237683	-2.2956597418	 1.9413297236	 0.108031
H	 0.5204251458	-1.4195043688	 2.6616055425	 0.108274
H	 0.2593470458	-2.4605964506	 1.2504228392	 0.119145
