16
gdb 96741	2.92759	0.88144	0.71519	1.5332	69.82	-0.2617	-0.0318	0.2298	1510.8503	0.119744	-475.047099	-475.037057	-475.036113	-475.083855	33.021	
C	-0.1246848035	 0.863747057	 1.8743276115	-0.3512
N	-0.0499126709	-0.2372016239	 0.9333686835	-0.238602
C	-1.0117279566	-0.5898964642	 0.2068770265	 0.374659
C	-0.9400113959	-1.7755225243	-0.7121643511	-0.375663
C	 0.3022898544	-2.6214063261	-0.4815418932	 0.180448
O	 1.018829138	-3.0020182167	-1.3678655865	-0.23609
O	-2.279363546	 0.0117691634	 0.1787479227	-0.207531
C	-2.3867406637	 1.2866845417	-0.2961142187	 0.162931
O	-3.4207829463	 1.8746805863	-0.2965238074	-0.251283
H	 0.2734228598	 0.5187105571	 2.8334135132	 0.148616
H	 0.5304224993	 1.6723188788	 1.533111507	 0.14653
H	-1.1316976848	 1.2653163617	 2.0356940259	 0.136976
H	-1.8302097275	-2.3981745138	-0.5431345959	 0.156539
H	-0.9729981067	-1.4575572026	-1.7600173909	 0.150383
H	 0.4875527426	-2.8872824229	 0.5789509375	 0.096909
H	-1.4277358022	 1.6756888887	-0.6796401141	 0.10638
