14
gdb 57250	1.95007	1.60226	1.28074	2.5674	63.11	-0.274	-0.1281	0.1459	1045.3622	0.096859	-473.840584	-473.831161	-473.830217	-473.875098	32.683	
C	-0.5932727313	 1.6143025218	 0.1031143393	-0.401762
C	 0.0538371117	 0.2326192425	 0.0319218233	 0.115632
O	 0.8267380427	 0.0489392009	 1.2017767845	-0.440222
C	-0.9796797238	-0.8194927912	-0.1078194002	 0.243917
N	-1.7703784205	-1.6525782632	-0.2379761966	-0.321117
C	 0.9919968668	 0.1241067442	-1.204824331	 0.289319
O	 1.0559338966	 0.9449015522	-2.0807356673	-0.259335
C	 1.9156046281	-1.104850324	-1.2748150653	 0.10151
O	 1.9952790839	-1.9339656544	-0.4046557563	-0.229343
H	 0.1920563089	 2.3661413765	 0.2021265672	 0.146839
H	-1.1689201576	 1.8188941036	-0.8002915632	 0.152119
H	-1.248284159	 1.6593360916	 0.974617916	 0.149888
H	 1.2015493564	-0.8438614014	 1.1703403282	 0.312495
H	 2.5028031874	-1.1473377492	-2.2130696985	 0.14006
