19
gdb 33508	2.65418	1.20231	0.93612	4.8247	80.14	-0.2473	0.0326	0.2799	1289.0822	0.15986	-382.044324	-382.035485	-382.034541	-382.078449	32.814	
N	 0.206622998	-1.1010841436	-0.5081261737	-0.353519
C	 0.1043722908	 0.0302801784	-0.2866561409	 0.252088
C	-0.0248114155	 1.447567067	-0.0498832417	 0.198548
C	-1.1039408902	 2.1399595183	-0.8818478025	-0.328026
C	-2.5159528455	 1.7368216826	-0.5123598926	 0.037734
C	-3.5763253954	 1.6974154879	-1.5502664501	-0.247908
N	-3.0836129814	 0.4515173805	-0.9426417108	-0.302636
C	 0.2586349628	 1.9444020321	 1.3603106392	-0.284279
C	 1.2613403321	 2.1952375551	 0.2748670111	-0.306221
H	-0.9911808297	 3.2226911442	-0.7452781151	 0.110123
H	-0.9253364043	 1.936039814	-1.9449752955	 0.11215
H	-2.804528771	 2.0061268864	 0.5026830883	 0.092993
H	-4.6001396277	 1.9585679476	-1.2980522912	 0.120197
H	-3.2905464584	 1.9319459649	-2.5732764828	 0.110661
H	-2.4451847859	-0.0297388004	-1.5715625324	 0.241533
H	-0.3487746187	 2.77350988	 1.7062382223	 0.129959
H	 0.4925127998	 1.2074379253	 2.1187262179	 0.144403
H	 2.1829370265	 1.6261614349	 0.2861890989	 0.143029
H	 1.3498876638	 3.1967861049	-0.1311656683	 0.129173
