23
gdb 95832	2.8758	1.21431	0.92343	2.0017	82.5	-0.2474	0.0825	0.3299	1350.2118	0.206072	-425.439327	-425.429938	-425.428994	-425.473139	36.056	
C	 0.1271417657	 1.6157072336	 0.0411327175	-0.41399
C	 0.0013174555	 0.0873315287	-0.0201496214	 0.008041
C	 0.6119206778	-0.4958794578	-1.306275093	-0.198984
C	 0.0777486155	-1.8881311967	-1.6637799153	-0.081476
O	 0.5122146473	-2.9424491436	-0.8244647534	-0.239332
C	 0.2159293713	-2.8026900663	 0.5439494838	 0.213021
C	 0.4650648289	-4.1511639237	 1.1946357427	-0.3982
O	 1.0671654588	-1.8631182314	 1.1586896154	-0.251004
C	 0.6163382086	-0.521730978	 1.2574556367	-0.070171
H	 1.1766437061	 1.9246283131	-0.0268697624	 0.119251
H	-0.4171042812	 2.089688858	-0.7815465983	 0.114902
H	-0.2757917557	 2.0125191925	 0.9794858658	 0.114547
H	-1.0708649632	-0.1528530573	-0.0352567644	 0.073195
H	 0.3648094551	 0.1676628281	-2.1454040231	 0.091953
H	 1.705397568	-0.5296154726	-1.2354751701	 0.111783
H	-1.0259165966	-1.8536495997	-1.682478559	 0.082535
H	 0.4126644818	-2.1690547241	-2.6670424166	 0.105768
H	-0.8376798105	-2.4926016081	 0.6683788817	 0.051133
H	 1.5178708248	-4.4184711687	 1.0732249616	 0.135296
H	 0.2339837932	-4.1017922369	 2.2612066102	 0.117267
H	-0.1525078414	-4.9195123215	 0.7240645293	 0.119756
H	 1.5121456582	 0.0457682881	 1.5348934468	 0.105265
H	-0.100439808	-0.4195564658	 2.0881988057	 0.089442
