16
gdb 14217	4.66411	1.78638	1.60004	3.6916	68.78	-0.234	0.0104	0.2444	836.263	0.13066	-346.580343	-346.573623	-346.572679	-346.610915	26.465	
C	-0.0036258172	 1.4629432753	 0.0541824402	-0.503581
C	-0.0246974313	-0.0360354397	-0.0063187802	 0.336409
C	-1.2479183274	-0.9347732027	-0.2438017242	-0.283914
C	-0.3580930662	-2.1107805675	 0.246271253	-0.190345
C	 0.5929774283	-1.0372468479	 0.9157766334	-0.120573
C	 1.2083260907	-0.8282382878	-0.4921834302	-0.243142
C	 0.7331548022	-2.2029876272	-0.8415973223	 0.450949
O	 1.1605149858	-3.0953577188	-1.5186634394	-0.344449
H	 0.9702963147	 1.8353196312	 0.3878140216	 0.125049
H	-0.210817625	 1.9005799945	-0.9285206622	 0.129947
H	-0.7613677105	 1.8324460765	 0.7538137765	 0.125221
H	-2.0443989624	-0.6999034993	 0.4688706566	 0.105028
H	-1.6627212661	-1.006191094	-1.2559738129	 0.103024
H	-0.7701301473	-3.0045133913	 0.7060088512	 0.092712
H	 1.1006893566	-0.9896561606	 1.8670913515	 0.111572
H	 2.136354895	-0.3332042207	-0.7448616826	 0.106095
