17
gdb 67829	3.07563	1.82952	1.47984	0.4541	71.22	-0.2145	0.0117	0.2262	909.0019	0.137511	-421.806443	-421.799661	-421.798716	-421.837117	28.25	
O	-0.0605893137	 1.4018771723	-0.0351423573	-0.474901
C	 0.0260256828	 0.0117970849	-0.0752437369	 0.318919
C	 0.928358066	-0.6718210842	-1.0516665109	-0.134055
C	 0.4145495069	-1.8385484827	-1.4400501609	-0.080964
C	-0.872775689	-2.1480047482	-0.6873205361	-0.12681
C	-0.5085512976	-2.9744330959	 0.5682657263	-0.069837
O	 0.1679489748	-2.0444817968	 1.4264926317	-0.255773
C	-0.3820393112	-0.7760596582	 1.1846512169	 0.022292
C	-1.2516860708	-0.79794835	-0.0331266567	-0.160573
H	 0.6586811997	 1.7320549122	 0.5141850144	 0.286387
H	 1.8822967666	-0.2538723145	-1.3508667039	 0.097689
H	 0.8981498852	-2.5642351498	-2.0839480811	 0.098698
H	-1.6600813464	-2.6133632916	-1.2853525303	 0.078519
H	-1.4121187873	-3.3668275694	 1.060460364	 0.090949
H	 0.1775270148	-3.8022982853	 0.369703789	 0.109736
H	-0.6417400782	-0.211947437	 2.0759096071	 0.099438
H	-2.2377314327	-0.3561945459	-0.0918923851	 0.100285
