23
gdb 89312	2.59484	1.48712	1.17059	1.3165	85.17	-0.2515	0.0766	0.3281	1172.1481	0.205956	-388.297707	-388.288729	-388.287785	-388.330301	36.606	
C	-0.1073196488	 1.5322843774	 0.0662393686	-0.421363
C	 0.063655721	 0.0153277687	 0.0413295864	 0.025146
C	 1.0056225525	-0.548319565	-1.0719314038	-0.267649
C	 2.0047039565	-1.3524785553	-0.2044153729	 0.346987
C	 3.1067645979	-2.1047023873	-0.9129910542	-0.491982
C	 2.3002245067	-0.3309428946	 0.9363039452	-0.332059
C	 0.7956361287	-0.5797993699	 1.2620738382	 0.415496
O	 0.1961192888	-0.2340261998	 2.4714831092	-0.495351
C	 1.0388306608	-2.0488621836	 0.804198184	-0.328234
H	 0.8558664207	 2.0510735801	 0.1171308161	 0.110106
H	-0.6206361779	 1.8797950729	-0.8366682477	 0.107747
H	-0.6984251844	 1.8385366021	 0.9341516171	 0.12835
H	-0.9300166501	-0.4428324882	-0.0245228543	 0.06924
H	 0.4817954215	-1.1836423843	-1.7934200634	 0.090667
H	 1.5067407253	 0.2493404117	-1.6316569056	 0.090743
H	 3.7399700929	-1.4232048381	-1.4932883355	 0.113822
H	 3.7507938891	-2.6355929361	-0.203732646	 0.109809
H	 2.695399357	-2.8448721639	-1.6093653536	 0.113798
H	 2.96261298	-0.7478505523	 1.7017721475	 0.080675
H	 2.6282408606	 0.6761974597	 0.6655885211	 0.090262
H	 0.7091598468	-0.6203337794	 3.1880960137	 0.277292
H	 0.189816766	-2.6156461946	 0.4091196358	 0.0866
H	 1.5764832584	-2.6400419304	 1.5523105242	 0.079899
