18
gdb 36001	2.49176	1.0796	0.80661	4.3214	82.12	-0.2731	0.031	0.3041	1408.8789	0.145979	-364.779625	-364.770181	-364.769237	-364.814581	34.275	
C	-0.2478216628	-1.1165585963	 0.0993558609	-0.448779
C	-0.1192718144	 0.0773060771	 0.0607001695	 0.345111
C	 0.0534933671	 1.5264228068	-0.0192707494	-0.206436
C	 1.5616176522	 1.91034848	-0.0284611118	-0.345074
C	 2.2617708766	 1.5310677056	 1.1954637608	 0.265817
N	 2.8071442177	 1.2459273141	 2.1732597051	-0.30409
C	-0.6391545945	 2.1067326614	-1.2461476883	 0.029363
C	-2.1072035409	 2.4278699629	-1.1999388182	-0.271084
C	-1.0932001259	 3.5453387814	-1.239035175	-0.28135
H	-0.3650490276	-2.1708691931	 0.1521945725	 0.204156
H	-0.3956691757	 1.9823012503	 0.8730278328	 0.121717
H	 2.0547350544	 1.4339211485	-0.8822236426	 0.15804
H	 1.6492387971	 2.9935230392	-0.1631624279	 0.155485
H	-0.2585690384	 1.7174906923	-2.1865030243	 0.096894
H	-2.7008955658	 2.2354435647	-2.0860469639	 0.121228
H	-2.6332164099	 2.253417647	-0.2672755902	 0.122656
H	-0.9436828096	 4.1212425702	-0.331035268	 0.116834
H	-0.9905978497	 4.1222697578	-2.1510813721	 0.119511
