21
gdb 107418	3.02926	1.16389	1.04833	2.4854	77.9	-0.254	0.0704	0.3244	1232.7693	0.183462	-424.222075	-424.213296	-424.212352	-424.255246	34.493	
O	 0.0436656081	 1.3935051498	 0.3690325994	-0.418743
C	 0.0279876313	-0.0093047805	 0.1343373568	-0.155668
C	-1.343068272	-0.5244438783	-0.2167051465	 0.328369
C	-2.2906657147	-0.9197456428	 0.9003999236	-0.343181
C	-1.7368943731	-1.975000982	-0.0283890011	-0.086684
C	-2.5899080235	-2.3955255158	-1.2155232422	-0.246011
C	-3.066913256	-1.0776073521	-1.8756432888	 0.085201
O	-4.3114001286	-0.6160578208	-1.3457292567	-0.426295
C	-1.9915517461	-0.035420988	-1.509428528	-0.259319
H	-0.6318583757	 1.5753710041	 1.0313709854	 0.28113
H	 0.7246036563	-0.1695460011	-0.6975025701	 0.102437
H	 0.4208103634	-0.5639245286	 1.0025307815	 0.078551
H	-1.8911035575	-0.9077739248	 1.9106463167	 0.099019
H	-3.3358032542	-0.6483390237	 0.8151616975	 0.133401
H	-1.0311072913	-2.6922724895	 0.3781700915	 0.079227
H	-1.9782720956	-2.9647828961	-1.9261853398	 0.099827
H	-3.4405900147	-3.0321536541	-0.9423724879	 0.088809
H	-3.1572372044	-1.1907491999	-2.964764716	 0.067322
H	-4.9690673445	-1.3022445001	-1.4984514847	 0.279928
H	-2.4390174074	 0.9588299902	-1.432173356	 0.115939
H	-1.2302720498	 0.0079451439	-2.2974891945	 0.096739
