20
gdb 60607	2.70942	1.04233	0.94967	3.7577	75.61	-0.2368	0.038	0.2748	1333.4775	0.168992	-440.303434	-440.292941	-440.291996	-440.340221	37.569	
C	 0.5273712089	 1.7973670296	 0.1010778023	-0.397096
C	 0.1430919611	 0.3098457336	 0.0256111974	-0.105443
C	 0.6571224417	-0.3242657992	-1.2566511743	 0.012833
C	-0.0511912366	-1.5159412455	-1.8723002553	-0.341824
C	-0.0982869153	-0.1633464671	-2.5412329072	 0.074986
O	-1.2776076779	 0.5913464278	-2.4852022912	-0.418605
C	 0.7553550215	-0.4345197427	 1.2166532811	 0.420834
N	-0.137576778	-1.0341843048	 2.0576226425	-0.529299
O	 1.9576022741	-0.4932614513	 1.3956294925	-0.382207
H	 1.6155684774	 1.9031079023	 0.1073275392	 0.136053
H	 0.1186766062	 2.3324628992	-0.7594526864	 0.131127
H	 0.1390050671	 2.2608771464	 1.0139394575	 0.108104
H	-0.9480074736	 0.2249895972	 0.0441793488	 0.071725
H	 1.7403396584	-0.3179051972	-1.3275040605	 0.108803
H	 0.5375050928	-2.3093654875	-2.3195448367	 0.113772
H	-0.9662603301	-1.845775334	-1.3898704224	 0.106044
H	 0.48290347	-0.0256317416	-3.452900938	 0.087756
H	-1.9133082697	 0.1944945998	-3.089461282	 0.288811
H	-1.1300553848	-0.9235199507	 1.9526385624	 0.256262
H	 0.2162242666	-1.4913369143	 2.8825471303	 0.257363
