22
gdb 57556	3.85903	0.62945	0.6143	5.0639	83.43	-0.2747	0.0367	0.3113	1879.6813	0.191305	-404.37862	-404.367627	-404.366683	-404.415169	39.853	
C	-0.0483844445	 1.5483063677	-0.0515137903	-0.421057
C	 0.0085228372	 0.0172087544	 0.0377652306	 0.336871
C	 0.6313540003	-0.4156429438	 1.3683286798	-0.393262
O	-1.3222097877	-0.5156029801	 0.0576687574	-0.453082
C	 0.7811182523	-0.5467958426	-1.1777427636	-0.210413
C	 0.8325956728	-2.075830313	-1.2453312274	-0.185121
C	 1.411880411	-2.5660854699	-2.5874494578	-0.344816
C	 1.4871306737	-4.023219731	-2.6714555539	 0.257319
N	 1.5415929792	-5.1764361404	-2.7223625283	-0.305424
H	 0.9522351591	 1.9902096642	-0.0084856124	 0.11742
H	-0.5107697645	 1.8676615959	-0.9935777668	 0.10281
H	-0.6410187257	 1.9515054201	 0.7743574294	 0.125098
H	 0.0896571791	 0.0426348623	 2.2001125964	 0.123203
H	 0.5758923888	-1.4996419403	 1.4926516932	 0.129124
H	 1.6801215277	-0.1094067143	 1.4259750833	 0.11139
H	-1.800905113	-0.1464387666	-0.6925651801	 0.275763
H	 0.2962115749	-0.1643400864	-2.0883170836	 0.08246
H	 1.7983642107	-0.1338820004	-1.1805788422	 0.098262
H	 1.443746339	-2.4783327686	-0.4317510846	 0.121633
H	-0.1759081847	-2.477085733	-1.1120739534	 0.134262
H	 0.7992166048	-2.2031913055	-3.4213913853	 0.148279
H	 2.4188026195	-2.1597004788	-2.7415179707	 0.14928
