18
gdb 110691	2.90421	1.31318	1.20115	3.0813	77.83	-0.2321	-0.0664	0.1658	1120.0818	0.147739	-401.942296	-401.934176	-401.933232	-401.975328	30.801	
C	 0.2698112026	 1.544164586	 0.1115114689	-0.37443
C	-0.2748616592	 0.1380949631	-0.1229351882	-0.126229
N	 0.500788115	-0.5290892713	-1.1667144849	-0.090213
C	 1.7335959102	-1.2833975509	-0.8987987536	-0.081068
C	 1.9972434318	-1.7597848091	 0.4991465893	-0.064202
C	 1.0622791158	-2.6237547291	 0.9189591954	-0.205172
C	 0.0761200351	-2.8729401125	-0.1735523992	 0.392644
O	-0.8504268495	-3.6477584077	-0.1601486696	-0.322635
C	 0.4892135552	-1.9817410926	-1.3441311023	-0.167123
H	 1.2887850407	 1.5076729861	 0.5117249713	 0.114289
H	 0.2948399106	 2.1104666871	-0.8235788592	 0.129753
H	-0.354945537	 2.0819581468	 0.830765891	 0.117125
H	-0.3040539584	-0.4136210452	 0.8276523762	 0.096867
H	-1.3046946627	 0.1872840537	-0.4935471175	 0.116772
H	 2.5668325354	-1.0633149645	-1.5588574632	 0.105788
H	 2.8292474865	-1.393038591	 1.0899578115	 0.122064
H	 0.9738632645	-3.0765277903	 1.89840153	 0.12301
H	 0.3055821532	-2.3451235587	-2.3504299957	 0.112759
