21
gdb 47045	3.20268	1.29521	1.01034	3.0228	81.55	-0.2318	-0.0079	0.2238	1207.192	0.184631	-387.11894	-387.110928	-387.109984	-387.152048	31.552	
O	-0.0929614893	 0.2585858107	-1.011787656	-0.316394
C	-0.140855516	 1.1306297447	-0.1766670537	 0.396867
C	-1.369822605	 2.0281104952	-0.0115939994	-0.298479
C	-1.4124398049	 2.7341681383	 1.3519869338	-0.246774
C	-0.1496033135	 3.5810432533	 1.5456014606	 0.038778
C	 0.481256102	 3.701344514	 2.9634968716	-0.241419
C	 1.8672707313	 3.3233504528	 2.3674785137	-0.236245
C	 1.1744738703	 2.91782537	 1.0345308544	-0.008149
C	 1.0096645866	 1.4155826913	 0.7844937542	-0.321026
H	-1.3265908673	 2.7745743076	-0.8179940506	 0.127067
H	-2.2605311297	 1.4230738814	-0.2045550014	 0.124323
H	-2.3163046779	 3.3465770799	 1.4366782513	 0.101279
H	-1.4822095979	 1.9792111469	 2.1453953903	 0.098914
H	-0.2894967406	 4.5643051225	 1.0855706643	 0.070271
H	 0.4084561924	 4.6748626429	 3.4537502655	 0.10071
H	 0.0950080495	 2.9462865601	 3.6550361778	 0.098685
H	 2.5291764796	 4.1851471006	 2.2508937158	 0.102488
H	 2.4239075321	 2.5340787115	 2.8803666793	 0.098464
H	 1.5994758091	 3.3847824911	 0.1410241375	 0.073392
H	 0.765150259	 0.9090701263	 1.7304500802	 0.118267
H	 1.9181744599	 0.9453786191	 0.3993198806	 0.118983
