20
gdb 94059	4.31909	0.95614	0.82482	3.9284	80.21	-0.2659	0.0346	0.3005	1394.9554	0.172316	-403.185137	-403.176458	-403.175514	-403.218367	33.034	
C	 0.0007048009	 1.5298588514	 0.0793412734	-0.404149
C	 0.0266848102	 0.0126309507	-0.0139037497	 0.144969
C	 0.7030766365	-0.5059889848	-1.2884600995	-0.215074
C	 0.8156840596	-2.0358154121	-1.2731563232	-0.220034
C	 1.4775676671	-2.4994062118	 0.0443565485	-0.154385
C	 0.7330679241	-1.8662032235	 1.2451580058	-0.081941
O	 0.7212593465	-0.4636990114	 1.140470706	-0.256253
C	 1.5024202248	-3.955381316	 0.1597646097	 0.259264
N	 1.5028234744	-5.1069672607	 0.2611110485	-0.321315
H	 1.0191296949	 1.9300270154	 0.0640867398	 0.125937
H	-0.5536817334	 1.9566177521	-0.7616619222	 0.117456
H	-0.4777270977	 1.8463870607	 1.0096857573	 0.127865
H	-1.0073820245	-0.3754415893	 0.0176452688	 0.067588
H	 0.1363079416	-0.1808424678	-2.1675978714	 0.104686
H	 1.7019007648	-0.0569223623	-1.3607340836	 0.105916
H	-0.181817015	-2.4867412465	-1.3419598225	 0.118285
H	 1.3886296499	-2.3979466708	-2.1315099936	 0.119351
H	 2.5135819422	-2.1388839612	 0.0707781286	 0.130051
H	-0.2915821098	-2.2708991284	 1.2869752417	 0.104464
H	 1.2360771031	-2.1118461637	 2.1836481076	 0.12732
