18
gdb 37429	2.97731	1.77553	1.45876	2.4409	74.22	-0.2391	0.0352	0.2743	939.4036	0.150961	-401.927016	-401.920102	-401.919157	-401.958715	27.438	
C	-0.0868362666	 1.4298888741	-0.3154584244	-0.292869
C	 1.2473262942	 0.8242964132	 0.0027028048	-0.060137
C	-0.0206819565	-0.0422126655	-0.0138574003	-0.063514
C	 0.5335005709	-0.8210099502	-1.1986236254	 0.097744
O	-0.280818549	-0.8704335759	-2.3697491807	-0.236825
C	 0.0911735749	-0.1150929922	-3.4340698669	 0.124731
N	 1.0696895943	 0.6653220118	-3.5925884424	-0.268762
C	 2.0460270798	 0.8676009044	-2.5272830497	-0.186922
C	 1.8078356986	 0.0864883317	-1.2242226053	-0.070125
H	-0.5240213462	 2.0295428775	 0.4761751901	 0.116458
H	-0.3170513695	 1.7863828658	-1.3151350076	 0.130737
H	 1.8348721376	 1.135635491	 0.8572811428	 0.091497
H	-0.5644363987	-0.4832757296	 0.8119209124	 0.090472
H	 0.7657093721	-1.8573148306	-0.9445049237	 0.095211
H	-0.62297075	-0.2675360743	-4.2419602003	 0.120413
H	 3.0268864181	 0.6142573648	-2.9473296957	 0.113708
H	 2.0833193964	 1.943801557	-2.317499593	 0.116974
H	 2.6879637097	-0.505953613	-0.9660058946	 0.081209
