18
gdb 97040	3.0117	1.26474	0.92869	1.1844	75.47	-0.2483	-0.0382	0.2101	1253.1988	0.145936	-439.12173	-439.112345	-439.111401	-439.15684	32.889	
C	 0.0740517832	 1.4342359178	 0.0328672557	-0.331579
N	 0.1030700667	-0.0200913833	 0.0046405714	-0.313352
C	 0.6291680627	-0.6176298679	-0.9667542471	 0.435416
O	 1.1908968588	 0.0121105925	-2.0605444818	-0.255279
C	 1.8797563465	-0.9063973946	-2.9036964084	-0.196166
C	 1.7186649796	-2.2848639316	-2.2621941306	 0.377555
O	 2.2823109687	-3.2876906227	-2.6083333318	-0.300669
C	 0.7301668437	-2.1198285475	-1.1162021036	-0.242489
C	 1.0875159402	-2.8887518301	 0.1553464345	-0.389115
H	 0.8314107729	 1.9064406474	-0.6028706201	 0.12331
H	-0.9120169565	 1.7884487749	-0.2922341444	 0.128169
H	 0.2110818703	 1.7698700847	 1.0650684502	 0.124719
H	 1.4447404459	-0.8919684567	-3.9102277265	 0.145026
H	 2.9379155466	-0.6329511212	-2.9798256094	 0.14696
H	-0.2366162915	-2.4833448319	-1.4981542552	 0.140329
H	 2.0483201637	-2.5530377445	 0.5551778695	 0.126699
H	 0.325397989	-2.7188520866	 0.9177453966	 0.145179
H	 1.1593264794	-3.9568600788	-0.0624343889	 0.135286
