21
gdb 26262	2.58788	1.42161	1.06967	1.6691	87.18	-0.1823	0.0507	0.233	1216.1705	0.182752	-383.29061	-383.280987	-383.280043	-383.325161	35.442	
C	 0.5888544325	 0.286332786	-1.0994637053	-0.32991
N	-0.0841634936	 0.039608441	 0.1763091264	-0.157448
C	 0.0720482471	 1.1539265252	 1.1017523742	-0.323376
C	-1.4080145146	-0.4270627472	 0.052286631	 0.30515
C	-2.627502945	 0.2205589599	 0.0791243803	-0.237364
C	-3.6371874781	-0.7686978478	-0.0703885719	-0.157837
C	-3.0064223621	-1.9836215537	-0.1899457385	-0.109134
N	-1.6493645461	-1.7799000602	-0.1042071905	-0.029416
C	-0.6372679515	-2.8128466489	-0.143761181	-0.341614
H	 1.6553340826	 0.4628639809	-0.9225096971	 0.114265
H	 0.4903134106	-0.5864048055	-1.7494453546	 0.122512
H	 0.1761219088	 1.1588842859	-1.6344756371	 0.105632
H	-0.3571441334	 2.0980320166	 0.7228270266	 0.101913
H	-0.4123794417	 0.9131002229	 2.0502864091	 0.129939
H	 1.1385278141	 1.3247985998	 1.2845930989	 0.114402
H	-2.7729948422	 1.2835250299	 0.1938491891	 0.08668
H	-4.70409458	-0.6066404403	-0.0877631123	 0.088758
H	-3.4008538497	-2.9783294748	-0.325291214	 0.106454
H	-0.3767143254	-3.0957990771	-1.171175287	 0.126703
H	 0.2586637289	-2.4371245064	 0.35363826	 0.150894
H	-0.9959502213	-3.7026205263	 0.3801177636	 0.132798
