18
gdb 34235	3.23944	1.5836	1.36735	4.3655	80.2	-0.2834	0.0228	0.3063	979.7407	0.151244	-364.802252	-364.795606	-364.794662	-364.833121	27.594	
N	 0.0224599981	-1.164505298	 0.0441496732	-0.350715
C	-0.017849913	-0.0077175293	 0.0328047783	 0.168462
C	-0.0712157913	 1.4281111688	 0.0224988046	 0.233897
C	-1.1193110522	 2.2573472365	 0.7872746051	-0.2894
C	-0.6479702444	 3.394678604	-0.1547020134	-0.066127
C	 0.788519356	 3.6341344295	 0.3597327861	-0.211817
C	 1.3142170551	 2.2428770004	-0.0452584193	-0.082008
C	 1.1538542006	 2.2887289893	-1.5875729752	-0.244905
C	-0.3449600356	 2.2952814307	-1.2653807031	-0.056598
H	-2.1263397709	 1.9006193832	 0.556687243	 0.116664
H	-1.0064744225	 2.395447028	 1.866252846	 0.106431
H	-1.2791135215	 4.2562682932	-0.3624979444	 0.076706
H	 1.323789021	 4.4347544729	-0.1579733858	 0.102893
H	 0.8167358461	 3.8331368393	 1.4342796445	 0.102469
H	 2.211458103	 1.8546739912	 0.4325921422	 0.085333
H	 1.596605148	 3.1364424403	-2.118289097	 0.098625
H	 1.4447791053	 1.3519824337	-2.0701511485	 0.121237
H	-1.1341837117	 2.0469606363	-1.9725309564	 0.088853
