21
gdb 121419	4.17301	0.78202	0.69044	1.7109	74.8	-0.2576	0.0735	0.3311	1617.336	0.183632	-461.355124	-461.345983	-461.345039	-461.389642	33.688	
O	-0.1330201023	 1.4883570505	-0.0988281133	-0.419548
C	 0.0295717671	 0.0805898935	-0.020002311	-0.081858
C	-1.363691014	-0.5358587829	 0.0542613009	-0.189701
C	-1.3772061972	-2.0682110166	 0.0533313029	-0.016102
C	-0.7866909428	-2.6834430422	 1.3321441414	-0.089331
O	-0.9313721152	-4.0969776941	 1.3315898247	-0.236211
C	-2.2749898253	-4.4699280517	 1.1860934534	 0.015005
O	-2.8349503128	-4.0245717541	-0.0193323906	-0.235593
C	-2.8071783172	-2.6067754364	-0.1005427821	-0.099241
H	 0.7393694142	 1.8918574101	-0.1260735758	 0.286791
H	 0.559528468	-0.3113570812	-0.9038116213	 0.088884
H	 0.6232482907	-0.1973916024	 0.8650433482	 0.089062
H	-1.8693353134	-0.1517677597	 0.9494690004	 0.106084
H	-1.9355217069	-0.1641895621	-0.8052102493	 0.109046
H	-0.7925868721	-2.443835296	-0.7964641322	 0.087218
H	 0.2838926417	-2.4869356729	 1.4277726239	 0.110802
H	-1.2924981391	-2.2525670239	 2.2151644519	 0.086894
H	-2.3061218173	-5.56110431	 1.1723407965	 0.117042
H	-2.8651639217	-4.0792823862	 2.039109738	 0.071405
H	-3.4538394658	-2.1727386878	 0.683086781	 0.08648
H	-3.2304418785	-2.3400346239	-1.0729415377	 0.112871
