21
gdb 72379	2.67075	1.99054	1.33714	0.2702	87.22	-0.2281	0.0215	0.2497	1011.4005	0.1851	-349.922479	-349.915202	-349.914258	-349.953595	30.882	
C	 0.0344651916	 1.555875472	-0.1282118706	-0.479647
C	 0.0136779313	 0.0349739745	 0.018669683	 0.352862
C	 0.2605241944	-0.5853322752	-1.3687858228	-0.326794
C	 0.2654944623	-2.0845496356	-1.3664819307	-0.07912
C	 0.0638823218	-2.7103295517	-0.2110996845	-0.094539
C	-0.1557769547	-1.8909822911	 1.0179807102	-0.020356
C	 0.753789893	-0.6307767732	 1.242600787	-0.088051
C	-0.3659915153	-0.0969711088	 2.1746664329	-0.255416
C	-1.0958695637	-0.6372493496	 0.9164857087	-0.088127
H	 1.0001519829	 1.8837222905	-0.5313818082	 0.11331
H	-0.7342964844	 1.8775140475	-0.8410383904	 0.113274
H	-0.1335036044	 2.1005732138	 0.8013594052	 0.11553
H	-0.502225948	-0.2109972311	-2.068658472	 0.103923
H	 1.2139557572	-0.2047679704	-1.7661315669	 0.103909
H	 0.4321747604	-2.6127770766	-2.3007705942	 0.085152
H	 0.0536092828	-3.7932049394	-0.1311475919	 0.08301
H	-0.3118678922	-2.4946230211	 1.9152625306	 0.057261
H	 1.8303116902	-0.6411605251	 1.43031086	 0.062537
H	-0.5260888091	-0.6671088728	 3.0939529616	 0.087074
H	-0.4055122626	 0.9718232708	 2.3778153922	 0.091662
H	-2.1715837635	-0.6551985673	 0.7247752008	 0.062546
