14
gdb 35830	2.12224	1.67048	1.02805	4.3367	77.02	-0.2565	-0.048	0.2085	1114.4576	0.100048	-399.525504	-399.517359	-399.516415	-399.558768	29.399	
C	-0.0053459225	-1.2281229138	-0.16903248	-0.410917
C	-0.0591447605	-0.0280868192	-0.0854306688	 0.260083
C	-0.0558387985	 1.3791580279	-0.0021323274	 0.177119
C	-1.0728621116	 2.2275460524	 0.1743493936	-0.224954
C	-0.5766204454	 3.6392404651	 0.2037886966	-0.116318
O	 0.8157566345	 3.5515527013	-0.1138925224	-0.254617
C	 1.2327968929	 2.1987468958	-0.1018514301	-0.134457
C	 2.1430732576	 1.9333982725	 1.0355993651	 0.283885
N	 2.855512949	 1.7289490133	 1.9214796846	-0.321727
H	 0.0298393468	-2.2879517074	-0.23272257	 0.207631
H	-2.1123926891	 1.9541627624	 0.2934795374	 0.13011
H	-1.0642066184	 4.2817917999	-0.541249913	 0.130396
H	-0.7188317292	 4.1075822116	 1.1901627831	 0.130713
H	 1.7835900443	 1.9817615084	-1.0265516387	 0.143056
