20
gdb 53486	3.82252	0.75343	0.73553	4.4938	88.45	-0.2594	0.0278	0.2872	1637.15	0.167654	-366.018219	-366.007098	-366.006154	-366.056879	38.645	
C	 0.1036235551	 1.5255348697	 0.0290306924	-0.499692
C	 0.0526424131	 0.0701426123	 0.0392116699	 0.102546
C	 0.0267126564	-1.1341104287	 0.0481752315	 0.03588
C	-0.0048721677	-2.5913433139	 0.059439829	-0.368695
C	-1.4526957547	-3.1832754743	-0.0049948758	 0.076291
C	-2.276701279	-2.740618212	 1.2220443661	-0.403972
C	-2.1548634491	-2.7626750866	-1.3128987369	-0.403926
C	-1.3214620695	-4.6495020762	 0.0140337176	 0.26837
N	-1.2113800019	-5.8001964899	 0.0292891457	-0.343989
H	 0.816504975	 1.8919676599	-0.7176451692	 0.152548
H	-0.8750976879	 1.9559465454	-0.2094216032	 0.150107
H	 0.4105160995	 1.9202173912	 1.0037081189	 0.151707
H	 0.5695389232	-2.9846787702	-0.787820722	 0.142029
H	 0.4851980898	-2.9692180968	 0.9647326385	 0.142052
H	-2.3494593275	-1.6503172628	 1.2335389226	 0.136401
H	-3.2844377646	-3.1619818866	 1.1838678006	 0.131526
H	-1.8037987033	-3.066942816	 2.1524225181	 0.131398
H	-1.5946978162	-3.1038167453	-2.1878607141	 0.131436
H	-3.1616144718	-3.1849464962	-1.3646616036	 0.131564
H	-2.226268349	-1.6728425631	-1.3498218163	 0.136418
