17
gdb 54116	2.72073	1.56773	1.17979	2.8674	69.65	-0.2271	-0.0169	0.2102	1062.745	0.13315	-458.92125	-458.912606	-458.911661	-458.954613	32.442	
C	-0.0417853195	 1.5031721072	 0.1780895746	-0.491558
C	 0.111850177	-0.0029377663	 0.0474709312	 0.33641
O	 1.2027617074	-0.5296704986	-0.0061670786	-0.308773
C	-1.1639946529	-0.7941976268	 0.0116256581	 0.221814
O	-2.3398676658	-0.0619699018	-0.2300533397	-0.460498
C	-1.3123657719	-2.1879130644	-0.5893453616	-0.171042
C	-0.1206849161	-3.0789940967	-0.2418529961	-0.095086
O	-0.2830661734	-2.7834153305	 1.1813265872	-0.269612
C	-1.4314801661	-2.0200876519	 0.8970791882	 0.040091
H	 0.9485532085	 1.9587616844	 0.1972309842	 0.141825
H	-0.6310801202	 1.902716477	-0.6524035346	 0.152119
H	-0.5766164951	 1.7616924686	 1.1002981024	 0.12519
H	-2.6171559081	 0.3595328899	 0.5909195182	 0.290405
H	-2.065549941	-2.3579345455	-1.3458971911	 0.117192
H	-0.3284021534	-4.1382333794	-0.4249029008	 0.11336
H	 0.8629879094	-2.7927738661	-0.6101986318	 0.146916
H	-2.267769909	-2.0349818991	 1.5891754103	 0.111245
