16
gdb 17982	3.92737	1.79161	1.54041	1.7895	69.74	-0.2457	0.0196	0.2653	861.8157	0.130223	-346.530614	-346.523525	-346.52258	-346.562169	27.142	
C	-0.4091674429	-1.1727510698	-0.6545878189	-0.453643
C	-0.226333865	-0.0372110374	-0.3038848069	 0.338188
C	-0.0027355456	 1.338523106	 0.1051755936	-0.046777
O	-0.0253871226	 1.5434071549	 1.5453972578	-0.304325
C	 1.248273287	 2.2269195392	 1.520539057	 0.128448
C	 2.4336186971	 1.2969366555	 1.8581668805	-0.229385
C	 2.5819094737	 0.9581286102	 0.3391995837	-0.237571
C	 1.4258749163	 1.9368964981	 0.0042813414	-0.099224
H	-0.5780930138	-2.17570782	-0.9610898193	 0.202529
H	-0.7517063201	 1.9859742022	-0.3718115107	 0.103895
H	 1.1914230236	 3.2163156829	 1.9813389816	 0.076849
H	 3.2975197802	 1.8230599166	 2.2735537767	 0.100744
H	 2.1659854849	 0.470704242	 2.5196970353	 0.116171
H	 3.5392164343	 1.2691024011	-0.084053039	 0.104234
H	 2.3989117211	-0.0806148391	 0.0560587059	 0.11954
H	 1.585250872	 2.6874732875	-0.7680451889	 0.080325
