23
gdb 90995	3.22316	1.48643	1.45402	0.092	87.73	-0.2757	0.0895	0.3652	1055.6753	0.210377	-351.165089	-351.157942	-351.156998	-351.196126	30.921	
C	-0.1692216851	 1.5364889089	 0.018630194	-0.414245
C	 0.0307507684	 0.0179503699	-0.0158364377	 0.044691
C	 0.9086526954	-0.4486003914	-1.2242475326	-0.265511
C	 2.2365160234	-0.8454145373	-0.5679781141	 0.017042
C	 2.2615035832	-2.1597514355	 0.2994773649	-0.027638
C	 3.1747605722	-1.3870677777	 1.289409929	-0.238778
C	 2.3167181245	-0.1830706821	 0.8423727681	-0.02808
C	 0.8352940442	-0.5275711147	 1.1868169947	-0.004603
C	 0.9108172938	-2.0809319212	 1.0387024933	-0.232188
H	 0.7870327384	 2.0708345464	 0.0234407831	 0.114689
H	-0.7294806857	 1.8764824934	-0.8591758169	 0.109949
H	-0.7262817333	 1.8434698925	 0.9108389258	 0.108163
H	-0.9571997601	-0.4563665679	-0.045013659	 0.061434
H	 0.4548773167	-1.2831314793	-1.7692699139	 0.094383
H	 1.0482752329	 0.361940117	-1.9475616009	 0.092034
H	 3.1284031022	-0.7352890254	-1.1872011697	 0.059201
H	 2.5516363132	-3.1229510403	-0.123041601	 0.052399
H	 3.1605991047	-1.6891500015	 2.341572192	 0.082742
H	 4.2078870434	-1.3033287909	 0.9416326233	 0.090864
H	 2.6398285526	 0.8475806797	 0.990039116	 0.056506
H	 0.4736874375	-0.1791241072	 2.1568721215	 0.050121
H	 0.0680828495	-2.4845183369	 0.469153292	 0.087619
H	 0.9475382478	-2.6050698783	 1.998483038	 0.089205
