18
gdb 51431	3.72925	1.08875	1.01834	4.0404	73.03	-0.2563	0.0203	0.2766	1206.761	0.149568	-439.088391	-439.080681	-439.079737	-439.121592	29.369	
O	-0.131384336	-0.0825258165	 0.4303795241	-0.313017
C	-0.111847749	 1.0890129777	 0.1264482194	 0.154179
N	 1.0080878204	 1.8070092875	-0.1852112986	-0.307966
C	 2.3269854895	 1.240475765	-0.1887132047	 0.056813
C	 3.311560698	 1.4423716212	-1.3718996947	 0.050701
C	 3.3734371605	 2.9723916731	-1.5644700275	-0.232964
C	 3.5436979495	 3.3593839147	-0.0579242192	-0.232949
C	 3.5253261024	 1.9281599188	 0.5192362336	 0.050728
O	 4.3885272702	 1.2132675154	-0.41474294	-0.290436
H	-1.0247921919	 1.7144642651	 0.0688933617	 0.07672
H	 0.8861859795	 2.7787625874	-0.4215588194	 0.250443
H	 2.2503861245	 0.1922092937	 0.0892469751	 0.137534
H	 3.3383406709	 0.7918938469	-2.2453463576	 0.08802
H	 4.2327394679	 3.258389469	-2.1730312233	 0.118437
H	 2.4727398018	 3.3837940362	-2.031253784	 0.093645
H	 4.4947477335	 3.8540119188	 0.1455183952	 0.118432
H	 2.7399482316	 3.9911789913	 0.3334973923	 0.093655
H	 3.7695237467	 1.7717731246	 1.5693105676	 0.088026
