18
gdb 6590	5.99331	1.29239	1.29233	0.9144	80.59	-0.2546	0.0486	0.3032	1017.9936	0.153213	-310.597351	-310.589724	-310.588779	-310.6287	30.314	
C	-0.0205638668	 1.4684861945	 0.0140328761	-0.510456
C	 0.0023463756	-0.035217339	 0.0004059862	 0.314687
C	 0.6288447994	-0.9628145166	-1.0870645017	-0.282754
C	 0.0310338303	-1.9331906284	-0.0168302871	 0.25538
C	 0.6448522964	-0.9820456885	 1.0613465858	-0.282694
C	-1.224036163	-1.0007720495	 0.0009832868	-0.282927
C	 0.0527781153	-3.3673481271	-0.0298459555	 0.057884
C	 0.0710444572	-4.5704897699	-0.0407691438	-0.365586
H	 0.9954691545	 1.8783159327	 0.0090842574	 0.119998
H	-0.5451086082	 1.8626771045	-0.8633139147	 0.12001
H	-0.5300802382	 1.8469951645	 0.9070143646	 0.119997
H	 0.1452140657	-0.9712321527	-2.0678398008	 0.093762
H	 1.7188968538	-0.9555813377	-1.1750437723	 0.093807
H	 1.7360594719	-0.9762524092	 1.1330471017	 0.093773
H	 0.1761660791	-1.0080079885	 2.0490680704	 0.093735
H	-1.8311693567	-1.0282714116	 0.9101647546	 0.093818
H	-1.8450419641	-1.0119888194	-0.8990962544	 0.093829
H	 0.0871910878	-5.6319129182	-0.0504278334	 0.17374
