17
gdb 45615	4.35312	0.97804	0.85181	2.2793	77.59	-0.2081	-0.0095	0.1986	1321.3196	0.137434	-418.024874	-418.01684	-418.015896	-418.058067	30.185	
O	-0.0019839465	-0.0103795394	-0.1325899164	-0.365542
C	-0.0181790213	 1.1958699427	-0.0725295601	 0.430842
C	-1.2030580329	 2.1541673062	-0.3003578665	-0.48146
C	-0.6115767677	 3.5317453069	-0.0841890888	 0.278713
C	 0.6866660542	 3.3703705051	 0.2148171393	-0.121758
N	 1.054048401	 2.0171440243	 0.2232935335	-0.326019
C	-1.3230713693	 4.8147986555	-0.1819152143	-0.084674
C	-2.5282501808	 4.9852716769	-1.0428123976	-0.248817
N	-2.6664496043	 5.0066698856	 0.4194547908	-0.322763
H	-1.5995256666	 1.9994015611	-1.310082038	 0.149725
H	-2.0071741442	 1.8941331909	 0.3978949632	 0.144686
H	 1.4281636219	 4.1266030538	 0.430543217	 0.130995
H	 1.9733896429	 1.6586430399	 0.4202269756	 0.262965
H	-0.6816502554	 5.6829503748	-0.0456326424	 0.087196
H	-2.706416683	 5.9375664564	-1.5347183346	 0.122424
H	-2.8912781651	 4.120632004	-1.5920738423	 0.112978
H	-3.0251825728	 4.1113133754	 0.7435111516	 0.230508
