21
gdb 111452	2.54283	1.45507	1.03101	1.3677	84.33	-0.2142	0.0298	0.244	1206.2259	0.182951	-387.087419	-387.078509	-387.077564	-387.1207	34.434	
C	 0.1394358871	 1.4953951911	-0.082012379	-0.475447
C	 0.0737906874	-0.0001292435	-0.0756334173	 0.309926
C	-0.0013626856	-0.7991491694	-1.1473763155	-0.186983
C	 0.0008365515	-2.2462682678	-0.7893169031	-0.07351
C	 1.265679459	-2.7385228371	-0.1133175151	-0.284619
C	 0.0966938506	-2.2680267195	 0.7227782082	-0.063873
C	 0.064223756	-0.8190713976	 1.2157439395	-0.086852
C	 1.1862199046	-0.504067893	 2.2094920792	-0.084343
O	 0.9449196561	 0.7782544139	 2.7762625799	-0.420381
H	 0.0928658729	 1.8867821925	-1.1024951895	 0.108341
H	-0.687673454	 1.9275838593	 0.4944464312	 0.125085
H	 1.0544879823	 1.8628273568	 0.3933982396	 0.128468
H	-0.0268814533	-0.4485157528	-2.1741580817	 0.082792
H	-0.6105894321	-2.9510322795	-1.3423388894	 0.082309
H	 1.4576705899	-3.8069513986	-0.1136272322	 0.105212
H	 2.1527453527	-2.1200512214	-0.1988029283	 0.108452
H	-0.4302758396	-3.0173409788	 1.3021361084	 0.081843
H	-0.8758692732	-0.6313278958	 1.7562753389	 0.08456
H	 1.1977080754	-1.2806949368	 2.9904374805	 0.087018
H	 2.160016245	-0.536326656	 1.6985897819	 0.086079
H	 1.6806980473	 0.9932994139	 3.356697984	 0.285921
