20
gdb 11395	4.97575	1.14064	1.01421	1.7337	76.81	-0.2447	0.0137	0.2585	1209.1471	0.177409	-349.019294	-349.010826	-349.009882	-349.052471	31.899	
C	-0.0869855226	 1.5207813849	 0.1502806819	-0.38737
C	-0.0238101343	-0.0011151693	-0.0089529221	-0.177229
C	 0.6761221922	-0.4711678762	-1.2955326805	-0.010102
C	 0.8695433024	-2.0080437396	-1.3783886467	-0.266468
C	 0.6492157911	-2.4030692166	-2.8622771104	 0.109394
O	-0.0301864803	-3.6393985421	-3.0458144143	-0.433987
C	-0.0784493967	-1.2023900569	-3.4219160366	-0.130622
C	-0.0687419688	-0.1703541441	-2.5804222485	-0.064591
H	 0.9171660858	 1.9594976891	 0.151963295	 0.115193
H	-0.6517289808	 1.9921516279	-0.6608145785	 0.117273
H	-0.5719239664	 1.7988751641	 1.0911420948	 0.113821
H	 0.5066038204	-0.4312963553	 0.850337482	 0.096648
H	-1.038020479	-0.4214373612	 0.0162439329	 0.09203
H	 1.6592335525	 0.0240063535	-1.3347938366	 0.078224
H	 1.8341851107	-2.3413039659	-0.9878701085	 0.10051
H	 0.0933087147	-2.5049441317	-0.7824870291	 0.092664
H	 1.6059696989	-2.5517395374	-3.3795238203	 0.092312
H	-0.9165786667	-3.5329986113	-2.6823399858	 0.271299
H	-0.5180727203	-1.2171918447	-4.4134911184	 0.095964
H	-0.5052214028	 0.8019753125	-2.7840642702	 0.095037
