17
gdb 66592	3.00085	1.921	1.61612	1.5637	69.6	-0.2274	0.0779	0.3053	871.428	0.137836	-421.770153	-421.763657	-421.762712	-421.800644	27.238	
O	-0.1233685144	 1.3487500159	 0.0848155345	-0.468818
C	 0.0277562122	-0.0188177752	 0.0481645023	 0.392367
C	-0.2118017132	-0.855609559	-1.225869254	-0.161783
C	-1.0718795331	-1.0431141767	 0.0110475146	-0.167109
C	 0.0132135777	-2.0787365601	 0.463139537	-0.098218
C	 0.5956008974	-2.1413833008	-0.9848564578	-0.064861
C	 2.100918531	-1.9094754021	-0.8390212214	-0.088174
O	 2.2511223551	-1.1324091901	 0.3651018847	-0.286322
C	 0.9525721199	-0.9123901828	 0.8845413024	 0.035995
H	 0.6053220712	 1.7472903246	-0.4046318351	 0.289398
H	-0.476335603	-0.3705079166	-2.1571332589	 0.087668
H	-2.1356808325	-0.9644434989	 0.1701543392	 0.102363
H	-0.1297521259	-2.9580911619	 1.0850787705	 0.075271
H	 0.3094495161	-2.9987996122	-1.5955551213	 0.07363
H	 2.6646677855	-2.8458418118	-0.7287172679	 0.097681
H	 2.5190429719	-1.3566974734	-1.6903933949	 0.097062
H	 1.0173717141	-0.6646160089	 1.9449102861	 0.08385
