20
gdb 118313	2.5597	0.79061	0.64809	1.8787	86.87	-0.2222	-0.0276	0.1947	1803.2217	0.167333	-403.122207	-403.11092	-403.109976	-403.161109	37.802	
C	-0.0538845866	 1.5573719717	 0.0958196995	-0.392118
C	-0.1110036655	 0.0367089145	-0.0071862767	-0.107713
N	 0.7986615126	-0.4364026296	-1.0552952834	-0.272866
C	 0.7817172161	-1.8764117766	-1.2460893601	-0.246864
C	-0.4881992752	-2.4151503098	-1.9453302563	 0.159508
O	-1.3239514034	-1.7029290321	-2.4340144552	-0.245424
C	 1.9110323119	-2.3554004249	-2.0486797752	 0.002551
C	 2.7852566896	-2.7667557831	-2.7677954412	 0.156974
C	 3.8676031463	-3.2482573853	-3.6131401547	-0.501154
H	 0.9705304916	 1.8941798472	 0.2784773749	 0.126519
H	-0.4056457978	 2.0261243358	-0.8301876237	 0.118601
H	-0.6918688883	 1.9139322579	 0.9098485422	 0.11504
H	 0.2194090566	-0.4089574407	 0.9406085524	 0.098911
H	-1.1530019368	-0.2834070249	-0.1668008732	 0.09775
H	 0.5478485537	 0.0019592969	-1.9375588611	 0.223838
H	 0.8244304325	-2.3553441639	-0.2553436974	 0.117313
H	-0.5549045249	-3.5245274559	-1.9953543736	 0.090016
H	 4.2451848564	-4.2147108131	-3.2619592556	 0.151433
H	 3.5383841638	-3.3752873509	-4.6501158202	 0.151942
H	 4.7068519573	-2.5443240433	-3.6139885013	 0.155743
