18
gdb 40872	4.04666	1.45183	1.33786	2.8996	74.17	-0.2338	0.0741	0.3079	986.1413	0.148964	-401.840851	-401.833959	-401.833015	-401.872341	27.56	
C	-0.0206707445	 1.4064300654	 0.1983079832	-0.18273
C	 1.4781342361	 1.4238420211	-0.0476116724	-0.093119
C	 1.3454204418	 0.1110661375	-0.7555672058	-0.028988
C	 2.0084352639	 0.1245362771	 0.5929871259	-0.171603
C	 0.7925546198	-0.5826258171	 1.1498271044	 0.325732
C	 0.8050764165	-2.1054998414	 1.369123427	-0.140313
O	 0.3065589477	-1.950935723	 2.7153917569	-0.277828
C	 0.2204071529	-0.519323499	 2.5745527095	-0.147238
N	-0.0102322705	-0.0942037871	-0.0364961708	-0.2111
H	-0.4206734978	 1.717000249	 1.1704292726	 0.102675
H	-0.5873578389	 1.8886332889	-0.6020853778	 0.112508
H	 2.1430677672	 2.2470336264	-0.2780180447	 0.095418
H	 1.6119519894	-0.2663809335	-1.7316319084	 0.104629
H	 3.056468383	-0.0064808456	 0.8330656724	 0.095798
H	 0.1089354018	-2.6551006397	 0.724777682	 0.11204
H	 1.7896814112	-2.5894336321	 1.3501950307	 0.09796
H	 0.8294811201	 0.0093256166	 3.3185606502	 0.101927
H	-0.8154721397	-0.1583829636	 2.6316400649	 0.104231
