21
gdb 92195	3.15214	1.5488	1.32756	1.6898	82.49	-0.2428	0.0859	0.3287	1052.248	0.184614	-387.034591	-387.027192	-387.026248	-387.065974	30.876	
C	 0.1310710411	 1.5945371493	-0.1662093919	-0.414882
C	 0.0140764415	 0.1023853669	 0.041260768	 0.002886
O	 0.9315924887	-0.6747954262	-0.8152224679	-0.336239
C	 1.034765174	-1.6561846228	 0.2588879062	 0.163079
C	 2.2766404128	-2.291416072	 0.9289731833	-0.284479
C	 2.1251140954	-1.5450441258	 2.2951456177	-0.022127
C	 2.0421892721	-0.0914784745	 1.769181641	-0.237412
C	 0.6614286301	-0.5852771501	 1.2634677111	 0.289301
C	 0.5662715331	-1.4041777001	 2.5765954742	-0.339444
H	 1.1447741396	 1.9447111543	 0.0438352539	 0.125289
H	-0.1149146666	 1.8535024051	-1.2007664956	 0.128716
H	-0.5674630622	 2.1222240973	 0.4920825577	 0.118154
H	-1.0167701769	-0.2387033925	-0.1372343352	 0.072037
H	 0.2470469896	-2.407846744	 0.1068543957	 0.06675
H	 2.193696387	-3.3795992793	 0.9935305614	 0.096216
H	 3.229920002	-2.0459297179	 0.4536844799	 0.115223
H	 2.8029744317	-1.8271082006	 3.1017048551	 0.065701
H	 1.9419500397	 0.6520907051	 2.5641891008	 0.092355
H	 2.7831287825	 0.2275869602	 1.0328996564	 0.102014
H	-0.056615916	-2.3030192842	 2.5661288567	 0.095699
H	 0.3888287209	-0.8271977182	 3.4872079914	 0.101161
