16
gdb 71691	2.78236	2.35788	1.71206	0.6033	65.59	-0.2275	0.0496	0.2771	807.1326	0.126525	-437.797909	-437.791955	-437.791011	-437.827842	25.565	
O	 0.0532718325	 1.3514652656	 0.0228596433	-0.486608
C	 0.03281376	-0.0300049228	-0.0299146643	 0.400314
C	-1.2772631662	-0.8117119856	-0.21110413	-0.220893
N	-0.433502765	-1.9419955233	-0.7430492063	-0.160216
C	 0.5675581391	-2.2157649723	 0.3516899716	-0.056403
C	 1.7628573365	-1.6557427996	-0.4530817783	 0.078523
O	 2.1905571573	-0.7915736175	 0.6204036845	-0.309381
C	 0.8015445663	-0.8289075646	 1.0464526138	-0.005281
C	 0.6119098692	-0.923712313	-1.2010595369	-0.115374
H	 0.95837234	 1.6213719516	 0.2226663007	 0.289341
H	-1.8815809754	-1.0427157327	 0.6726990985	 0.105487
H	-1.9141085596	-0.4179301345	-1.006986983	 0.121763
H	 0.5136458108	-3.1491756394	 0.9082971974	 0.087403
H	 2.5610043168	-2.1919417134	-0.9611605259	 0.096675
H	 0.6500159608	-0.5918040468	 2.0984633546	 0.089454
H	 0.6090355869	-0.5846098921	-2.2347914497	 0.085195
