14
gdb 21314	7.30185	1.16907	1.05473	2.6375	59.86	-0.2751	-0.0308	0.2443	1085.6971	0.107287	-415.84114	-415.833706	-415.832762	-415.874209	24.985	
C	 0.4969773513	 1.379893027	 0.0191804634	-0.225973
O	 0.7182736862	-0.0128929783	-0.04181392	-0.22983
C	 0.0704889975	-0.6120732717	-1.1360962922	-0.173551
C	 0.308355003	-2.0859230007	-1.0917847468	 0.426726
N	 0.7589627414	-2.848440531	-2.0436270456	-0.311484
C	 0.7266325456	-4.0846147505	-1.4456413848	 0.037514
N	 0.2940973507	-4.0969455052	-0.2154184492	-0.106238
O	 0.0050945173	-2.750008881	 0.0283559582	-0.182192
H	 0.8796664889	 1.8924355866	-0.8765697592	 0.112727
H	-0.5732548955	 1.6159155599	 0.1237791835	 0.112156
H	 1.030807156	 1.7499983455	 0.8964963924	 0.139813
H	-1.0159219067	-0.4185604964	-1.1048672233	 0.119437
H	 0.4490686839	-0.2424262951	-2.0997069449	 0.131311
H	 1.0375646204	-4.9934523491	-1.9396790214	 0.149585
