18
gdb 40505	4.32106	1.22913	1.17351	1.5792	75.44	-0.2398	0.0767	0.3165	1093.7149	0.148685	-401.85228	-401.845119	-401.844175	-401.884236	28.215	
C	 0.1068381333	 1.4833516338	-0.0185579625	-0.181945
O	 1.2104705877	 0.58038027	-0.1068711336	-0.238647
C	-0.1024675189	 0.0311665626	 0.0612680533	-0.053765
C	-0.3635544122	-0.6547599695	 1.3456474393	 0.384412
C	 0.0995747388	-0.2646390086	 2.7493940663	-0.308062
C	-0.427841337	-1.6583493657	 3.1853881114	-0.09127
C	-1.9348056366	-1.5341313569	 2.9062399172	-0.14508
N	-1.6461043055	-1.4522728999	 1.4352310442	-0.195223
C	-0.3277459579	-2.1036971272	 1.6750986896	-0.104198
H	 0.0667619184	 2.0837522896	 0.8890246833	 0.113254
H	-0.1433687034	 2.0122590221	-0.9370890052	 0.117577
H	-0.4995310638	-0.4813509882	-0.8144198696	 0.099285
H	 1.1894035941	-0.2032619376	 2.7789631161	 0.123316
H	-0.3409785354	 0.6145677549	 3.2332682333	 0.092351
H	-0.0247858979	-2.1643408064	 4.0601332084	 0.078056
H	-2.4937750869	-2.454973674	 3.0909747022	 0.111332
H	-2.4742498376	-0.6782531958	 3.3294595891	 0.097112
H	 0.0325081908	-2.9771218032	 1.1474146173	 0.101495
