18
gdb 40425	4.16169	1.24201	1.09733	1.5594	76.75	-0.2307	0.0107	0.2414	1125.124	0.149085	-401.90469	-401.897258	-401.896314	-401.936654	29.274	
C	 0.568676493	 1.4051519712	 0.108351344	-0.180638
O	 1.0777460891	 0.157375474	-0.380535373	-0.238617
C	-0.2883557181	 0.2120419872	 0.0358338309	-0.056693
C	-0.6381969631	-0.5834317415	 1.2500299158	 0.320557
N	 0.438011866	-0.9567540252	 2.2072282121	-0.384179
C	-0.2591047331	-2.0140811932	 1.4393193878	-0.091964
C	-1.3804716731	-2.7062008874	 2.2065947197	-0.267715
C	-2.3642818587	-1.5806422121	 2.4612451193	-0.074119
C	-1.9700551278	-0.4280074223	 1.9163898881	-0.133336
H	 0.9621659217	 1.7186693484	 1.0734208482	 0.126187
H	 0.4714086134	 2.1891149295	-0.640275288	 0.121189
H	-1.0086187563	 0.1541727603	-0.7816644069	 0.100878
H	 1.3241805601	-0.7877438741	 1.7272671619	 0.236681
H	 0.3052274012	-2.5518806939	 0.6852416816	 0.098409
H	-1.8321044498	-3.5169840135	 1.6200861106	 0.106874
H	-1.0176625973	-3.1505397709	 3.1412731787	 0.12287
H	-3.2613833064	-1.7167521135	 3.0547904018	 0.098664
H	-2.4993182509	 0.5160556672	 1.9707555575	 0.094953
