19
gdb 102022	2.39545	1.01716	0.80768	3.1561	73.66	-0.2668	-0.0632	0.2035	1462.8842	0.155013	-460.187969	-460.177334	-460.17639	-460.225376	36.289	
C	-0.1707241028	 1.538736089	 0.1116905579	-0.40012
C	-0.0050509064	 0.0176320047	 0.0551115557	-0.194008
C	 0.6876680893	-0.4597270458	-1.2289595168	-0.162083
C	 2.1490342599	 0.0034627174	-1.2890647002	 0.155542
O	 2.7469148618	 0.2295274721	-2.3062078026	-0.23606
C	 0.7262669222	-1.9854167577	-1.3322195363	 0.327679
O	 0.7612585476	-2.703535326	-0.3565179717	-0.321406
C	 0.7495878944	-2.5867631617	-2.7251978114	-0.135909
O	 0.911247468	-3.9719421025	-2.6887284775	-0.418732
H	 0.7942473344	 2.0562909635	 0.0697861626	 0.124434
H	-0.7752008121	 1.903985422	-0.7255372428	 0.124497
H	-0.6665235753	 1.8407899112	 1.0384917951	 0.126848
H	 0.5714964775	-0.3413251173	 0.9144836697	 0.12642
H	-0.9824336416	-0.4698328722	 0.1298006569	 0.115669
H	 0.2035658647	-0.0657209531	-2.1297844522	 0.11166
H	 2.6366684795	 0.086276114	-0.2924867799	 0.10117
H	-0.1943299475	-2.298873532	-3.2221670477	 0.116839
H	 1.5546523732	-2.0983164022	-3.2972897723	 0.142092
H	 0.8852597033	-4.2105523836	-1.7491696066	 0.295467
