17
gdb 62532	2.4575	1.40857	1.17357	1.3429	76.47	-0.2464	0.0097	0.2561	1116.8479	0.134129	-417.96549	-417.956199	-417.955255	-417.999293	34.59	
C	-0.0690521412	 1.5061358379	-0.1381879745	-0.428924
C	-0.0336814439	-0.010890285	 0.0153155174	 0.142793
N	-1.3776428877	-0.531698559	 0.1270799335	-0.547625
C	 0.8805593685	-0.7406034364	-1.0393750311	-0.116574
O	 1.8501302364	-1.042628279	 0.0265208237	-0.264741
C	 1.0393650283	-0.4890289828	 0.9970827303	 0.404682
N	 1.1709789624	-0.4352680872	 2.2415468328	-0.553035
C	 0.3643644288	-1.9340976052	-1.6721850707	 0.361355
C	-0.0779410403	-2.9226719637	-2.1930849335	-0.43572
H	 0.9338037572	 1.9148774456	-0.2894065114	 0.127983
H	-0.703420703	 1.7792545974	-0.9858239405	 0.134668
H	-0.4799260153	 1.961321233	 0.7684095174	 0.136201
H	-1.363883459	-1.5386455914	 0.2590654546	 0.239611
H	-1.8281295672	-0.1304260319	 0.9444834855	 0.241133
H	 1.3369139448	-0.0699621975	-1.7728800165	 0.118635
H	 2.0311881134	-0.8880654582	 2.5554916867	 0.229836
H	-0.4623303021	-3.7945491066	-2.6630730337	 0.209721
