17
gdb 24629	4.27364	1.32997	1.10345	0.9309	81.86	-0.1984	0.0415	0.2399	1090.957	0.138701	-380.83936	-380.832215	-380.831271	-380.871185	28.055	
C	 0.1357738479	 1.5432911474	-0.0538154124	-0.299991
N	 1.3244643812	 0.6653109771	-0.010796473	-0.358106
C	-0.0060094993	 0.0732880836	 0.0122841691	 0.153551
C	-0.5226985738	-0.8480706883	 1.1626844642	-0.234196
N	-1.0665161278	-1.6936293327	 0.082258847	 0.00064
C	-1.8343577549	-2.7202233666	-0.3821684055	-0.157283
C	-1.863241654	-2.5656018704	-1.7622228176	-0.120987
C	-1.1174951841	-1.4012194791	-2.1306738718	-0.360426
C	-0.6439798008	-0.8941392732	-0.9396817241	 0.321753
H	-0.0118023523	 2.1518017812	 0.8345913364	 0.122733
H	-0.1295917957	 2.0312387156	-0.9882330165	 0.121528
H	 1.7366288691	 0.5666065985	-0.9353338858	 0.239796
H	 0.2602863576	-1.3263555059	 1.7566559957	 0.134397
H	-1.2872246179	-0.4142687745	 1.8136791766	 0.127926
H	-2.2693270752	-3.470611353	 0.2572062314	 0.119808
H	-2.3657469077	-3.232960994	-2.4470595868	 0.093867
H	-0.9709110723	-1.0210437556	-3.129050527	 0.094991
