22
gdb 70892	3.2453	1.47067	1.37863	1.6426	84.62	-0.2286	0.0797	0.3082	1073.8994	0.196115	-367.228709	-367.220732	-367.219787	-367.260382	33.009	
C	-0.0777327296	 1.474450408	 0.0274654011	-0.495516
C	 0.0710499209	-0.01894865	-0.0311265702	 0.351156
C	 0.2710842879	-0.7773458732	-1.3417618631	-0.305509
C	 0.2118639848	-2.2099844683	-0.7572850592	 0.271845
C	 0.3211426167	-3.3765211554	-1.7178077001	-0.486146
C	 1.2591689948	-2.1071685511	 0.3800407969	-0.2607
C	 0.6879252876	-0.8595659893	 1.0377436932	-0.081571
N	-0.7919389205	-0.8493921938	 0.8567256381	-0.166827
C	-1.0795798684	-2.0769326016	 0.0801507624	-0.179006
H	 0.8195698072	 1.9747742156	-0.3541649232	 0.112856
H	-0.9301264104	 1.8092711437	-0.5747287709	 0.116973
H	-0.244681709	 1.804906026	 1.0560839262	 0.127731
H	-0.5254251225	-0.5851728332	-2.0697589139	 0.092533
H	 1.2334204879	-0.5496498055	-1.8136527286	 0.093248
H	 1.276845096	-3.3672744359	-2.2532682918	 0.114773
H	 0.2481967961	-4.3334824777	-1.1889748411	 0.114386
H	-0.4777751679	-3.3500383563	-2.4673369165	 0.11426
H	 1.2552381259	-2.9833263161	 1.0377732484	 0.096061
H	 2.2780184861	-1.9582088494	 0.0061738379	 0.09557
H	 1.0704178131	-0.45306304	 1.9670589546	 0.082315
H	-1.9772248152	-1.9344490108	-0.5309373597	 0.095686
H	-1.2467905015	-2.9220167857	 0.7567625895	 0.095881
