23
gdb 121346	2.52188	1.00098	0.79816	2.6737	81.69	-0.2415	0.0788	0.3203	1513.5905	0.205877	-425.432405	-425.422388	-425.421443	-425.468088	36.722	
C	-0.5778551176	 1.3910780487	-0.14863215	-0.417047
C	 0.0936540491	 0.0198309116	-0.1122068613	 0.00199
C	 1.4086684143	-0.0892475449	-0.9014019976	-0.230728
C	 2.0009822512	-1.3752535199	-0.3287878529	-0.069407
O	 1.6151637938	-1.4061797142	 1.0433286405	-0.278482
C	 0.5148265454	-0.5130646938	 1.2835152058	 0.118016
C	 0.9437855919	 0.5459998221	 2.3026199864	-0.207289
C	 1.4250450747	-0.0703847622	 3.6184594328	-0.066372
O	 1.7614688596	 0.9113166592	 4.5897809099	-0.422713
H	 0.0888201995	 2.1784786006	 0.2158123906	 0.120658
H	-0.8661044947	 1.6481980901	-1.1729772149	 0.11431
H	-1.4861423807	 1.4105621029	 0.4629548312	 0.118859
H	-0.6046485863	-0.7146692437	-0.5345242674	 0.078745
H	 1.2568691656	-0.1331665048	-1.9830972411	 0.100154
H	 2.0583028576	 0.7670454319	-0.685164453	 0.10177
H	 1.6011308878	-2.2569935915	-0.8538165743	 0.089924
H	 3.0938685184	-1.4201895416	-0.381535775	 0.101845
H	-0.3032668628	-1.1027679761	 1.7225766066	 0.071439
H	 1.7483168532	 1.1620918173	 1.8770286125	 0.079869
H	 0.1034151587	 1.2148038187	 2.5208292755	 0.102602
H	 0.6194386022	-0.6634688202	 4.0665691747	 0.105924
H	 2.2621163966	-0.7531881983	 3.4233492579	 0.107947
H	 2.5353415823	 1.3847265782	 4.268851143	 0.277985
