19
gdb 31045	2.31236	1.32803	0.8538	0.8381	81.11	-0.1521	0.0654	0.2175	1346.8435	0.158567	-419.232373	-419.222271	-419.221327	-419.267483	36.462	
C	-0.0202556311	 1.4636286213	 0.0323429237	-0.314807
N	-0.110291643	 0.0150523455	 0.0348860346	-0.392142
C	 0.6098933573	-0.6800604964	 1.0268456188	 0.244631
C	 0.7132675987	-2.0511165793	 1.1193971958	 0.208939
C	 0.1573502061	-3.1335144431	 0.2601960056	-0.516467
N	 1.4900276554	-2.3152065504	 2.2500640377	-0.35114
C	 1.8367124856	-1.1491129389	 2.8517878366	 0.38743
O	 2.5841920117	-1.2183738855	 3.9857754727	-0.440679
C	 1.3217934623	-0.097466925	 2.1309209642	-0.400123
H	 1.0084203648	 1.8548358987	-0.0506515772	 0.100378
H	-0.6043171773	 1.8560484146	-0.8046859216	 0.113313
H	-0.4544127919	 1.8635333742	 0.9549948776	 0.127463
H	 0.0580972414	-0.3652721781	-0.8861725438	 0.226118
H	 0.8941866796	-3.5853065325	-0.4205734752	 0.115086
H	-0.2707334881	-3.9501734998	 0.8561619962	 0.116879
H	-0.6531081329	-2.7308779316	-0.3551654658	 0.132494
H	 1.7300370297	-3.2253409655	 2.6014606164	 0.257453
H	 2.7445944095	-0.3212429942	 4.292259979	 0.304507
H	 1.4418980822	 0.9498846961	 2.356214695	 0.080667
