19
gdb 82627	2.344	2.02489	1.53668	1.9147	73.2	-0.2329	0.0676	0.3005	938.614	0.161527	-423.029952	-423.022581	-423.021636	-423.061103	30.78	
O	-0.0695317126	 1.4348356784	-0.0357741472	-0.456897
C	 0.0251967744	 0.0185536095	 0.0209686263	 0.054915
C	 0.4796127178	-0.5815536768	 1.3778214069	-0.103843
C	-0.6565462756	-0.1231071785	 2.324396641	-0.214788
C	-1.8146663718	-0.6416798429	 1.479092326	-0.133959
C	-1.3095050218	-1.8807580832	 0.7380569006	-0.116335
C	 0.1473962677	-2.078266509	 1.1554299877	-0.227988
C	-1.379816589	-0.5605779051	 0.0237339826	 0.4366
O	-2.2427387933	-0.3516509333	-1.0384022402	-0.490872
H	 0.8178723117	 1.7959386728	-0.121338873	 0.28475
H	 0.6245913496	-0.3634853564	-0.8185163182	 0.06399
H	 1.4994521543	-0.3495345853	 1.6876840309	 0.055472
H	-0.591830357	-0.59416302	 3.311007733	 0.088982
H	-0.6754930688	 0.9627651802	 2.4463519893	 0.104201
H	-2.8571406429	-0.5414109913	 1.7495089003	 0.083692
H	-1.9757643057	-2.6918206763	 0.476237704	 0.090439
H	 0.7587211267	-2.5342854037	 0.3691664412	 0.09594
H	 0.2578966565	-2.6741712903	 2.0673579796	 0.097124
H	-2.3468233203	 0.6036073512	-1.124993181	 0.288576
