17
gdb 133674	2.59256	1.29304	1.05842	2.5359	61.72	-0.2487	0.0779	0.3265	1148.495	0.131402	-549.490592	-549.481729	-549.480785	-549.524578	32.463	
C	-0.181434011	 1.6300555934	-0.0134936963	-0.406815
C	 0.0288491979	 0.1159425382	-0.0043573198	-0.10346
N	 0.6873995466	-0.2975224294	 1.2256613357	-0.065515
C	 1.4929551017	-1.5141574448	 1.1736689342	-0.218657
C	 2.1432280411	-0.1788307242	 1.2494377067	-0.228744
C	-1.3113778525	-0.6148240356	-0.1092528389	 0.296978
F	-1.9171704484	-0.3105891781	-1.27128884	-0.084545
F	-1.1526483463	-1.9478648276	-0.0828245264	-0.080908
F	-2.1475058456	-0.2883396192	 0.8806219487	-0.072737
H	 0.7858021477	 2.1378474579	 0.0120423719	 0.123301
H	-0.7141639309	 1.9422417452	-0.9144119333	 0.132769
H	-0.7555490274	 1.9337891708	 0.8646992123	 0.1447
H	 0.5965784729	-0.1855565727	-0.9034655406	 0.08188
H	 1.4302360183	-2.1520658713	 2.0497432516	 0.125574
H	 1.552566389	-2.0462426525	 0.2270546339	 0.119544
H	 2.6408749028	 0.1814244118	 0.3500544936	 0.113062
H	 2.5702288242	 0.1821333779	 2.1801844066	 0.123573
