19
gdb 113768	2.96119	1.04546	0.8416	1.746	73.99	-0.2482	-0.0351	0.2132	1369.5292	0.156548	-460.140083	-460.130463	-460.129519	-460.174973	34.722	
C	-0.3498980639	 0.9945366103	 0.0729129829	-0.255225
O	 0.5909448986	-0.0699167618	 0.1532580176	-0.238034
C	 0.933522835	-0.580797316	-1.090298092	 0.121043
C	 1.511847534	-1.956917855	-1.1030383591	-0.343345
C	 0.1258307359	-1.7198085581	-1.6831725664	-0.068836
C	-1.0964357234	-2.2285441554	-0.9425080207	 0.028667
O	-2.2430798122	-1.4835611901	-1.2664694932	-0.437786
C	-1.3269752808	-3.6934664886	-1.2554213825	 0.141742
O	-2.3727896109	-4.0904942272	-1.7118876623	-0.265523
H	 0.0579345301	 1.8375531187	-0.5041216966	 0.106199
H	-1.287953302	 0.6640704753	-0.3877768454	 0.147824
H	-0.5379969202	 1.325985885	 1.0964106583	 0.126031
H	 1.3280249895	 0.1568635933	-1.790496419	 0.09037
H	 2.3304576145	-2.1820685487	-1.7764240523	 0.12061
H	 1.5698682686	-2.4515811229	-0.1387896851	 0.126762
H	 0.0268664261	-1.7368887379	-2.764990029	 0.097235
H	-0.8843730833	-2.1590542251	 0.138828354	 0.10623
H	-2.8942357057	-2.1300020168	-1.5837767132	 0.293463
H	-0.4803032999	-4.3777077289	-1.0497258562	 0.102573
