19
gdb 124857	3.54687	1.27884	1.02179	1.9354	81.84	-0.2228	0.0238	0.2467	1188.6516	0.16118	-382.086698	-382.07853	-382.077586	-382.119748	31.761	
C	 0.0376652308	 1.4956423951	-0.0510609449	-0.478247
C	 0.0124220179	-0.020142532	-0.035132382	 0.262797
C	 1.3341700915	-0.7553742691	-0.1729349832	-0.290186
C	 0.6332594587	-0.7298576299	 1.1555232585	-0.290212
C	-1.1860587122	-0.6440702451	-0.6553778991	 0.318233
N	-1.329029465	-1.9708279875	-0.7049902923	-0.318221
N	-2.5091500817	-2.1668099451	-1.3240894337	-0.178442
C	-3.1247867408	-1.0139417329	-1.6713285061	-0.023464
C	-2.2956948546	 0.0050058421	-1.2536049678	-0.311722
H	 0.9498300482	 1.8689090132	 0.4233066677	 0.110367
H	 0.0111352936	 1.886806122	-1.0746090636	 0.117047
H	-0.8160281522	 1.9168770993	 0.4921884168	 0.117048
H	 1.3200265275	-1.6841832851	-0.7307895744	 0.126778
H	 2.229617242	-0.1549107865	-0.2974833685	 0.102581
H	 1.0454181395	-0.1119161109	 1.9468095997	 0.102591
H	 0.1502258737	-1.6417255317	 1.4860973549	 0.1268
H	-2.8287679199	-3.1081754396	-1.4739840137	 0.273051
H	-4.078655055	-1.0076411299	-2.1747436247	 0.131229
H	-2.4665338821	 1.0626443136	-1.3643715738	 0.101973
