14
gdb 4671	7.29258	1.299	1.11016	2.9696	66.98	-0.241	-0.0498	0.1911	1016.1315	0.107968	-378.783896	-378.776681	-378.775736	-378.815556	25.662	
C	-0.0126959895	 1.5118718845	 0.0470268455	-0.484219
C	 0.0218774112	 0.0228581056	-0.0338231823	 0.279618
C	-0.0590782569	-0.7807537488	-1.1297048115	-0.19319
N	 0.0230731461	-2.0905939263	-0.655645339	-0.046495
C	-0.0153360857	-3.2641494763	-1.4072202057	 0.181036
O	 0.0606432399	-4.3660704858	-0.9349448851	-0.278349
C	 0.1505962238	-1.9935101266	 0.7190761753	 0.032365
N	 0.153155298	-0.7561819824	 1.1176263228	-0.309582
H	 0.9043816988	 1.8977318275	 0.5045277621	 0.141816
H	-0.1192686456	 1.9601657016	-0.943961765	 0.122081
H	-0.8478852362	 1.8480808056	 0.6704578096	 0.141811
H	-0.164895948	-0.5695224369	-2.1808932505	 0.142978
H	-0.123610027	-3.0570792078	-2.4867321375	 0.105657
H	 0.2337342214	-2.8775153939	 1.3311863514	 0.164473
