20
gdb 22240	3.13844	0.71453	0.67797	0.8159	75.48	-0.247	0.0078	0.2548	1717.4597	0.166946	-477.37159	-477.360301	-477.359357	-477.408907	39.333	
C	-0.1812803688	 1.5226101297	 0.0633726506	-0.477338
C	-0.0901698431	 0.0225988266	 0.0001766055	 0.374437
N	-0.0574387556	-0.7342065769	 1.0285396052	-0.173081
O	-0.0934633398	 0.0077284423	 2.2199956282	-0.399682
C	-0.0427093818	-0.6929359903	-1.3361090978	 0.019099
O	-1.1815963932	-0.3662040651	-2.13390383	-0.430817
C	 1.2724123474	-0.4376728325	-2.0842202608	-0.208058
C	 1.3753992886	-1.2332668206	-3.3807085135	-0.074905
O	 2.6026510411	-0.8817543811	-4.0027301018	-0.423626
H	-0.1950308735	 1.9764393347	-0.9299800085	 0.102898
H	-1.086257225	 1.8247098668	 0.5993296917	 0.153607
H	 0.6648545881	 1.9337491374	 0.6228001129	 0.151957
H	-0.0762632318	-0.6841101674	 2.8896568148	 0.306998
H	-0.1385700452	-1.762252802	-1.1255607501	 0.106363
H	-1.07505841	 0.5364464314	-2.4538606789	 0.281964
H	 1.3750816693	 0.6303387771	-2.3200532172	 0.098825
H	 2.1145789618	-0.6976065727	-1.4335502005	 0.120559
H	 1.3347325387	-2.3111044142	-3.153733993	 0.088793
H	 0.5141234224	-1.003514095	-4.0236652338	 0.095881
H	 2.6644131707	-1.3610059484	-4.8340347131	 0.286126
