13
gdb 131415	6.01159	0.99553	0.90532	3.5236	61.22	-0.267	-0.0382	0.2287	1207.2008	0.089526	-489.855874	-489.84861	-489.847666	-489.888405	26.202	
O	 0.3366564202	 1.2700777678	-0.1346811132	-0.398403
C	 0.0816768036	-0.0338839353	-0.0663198537	 0.436437
N	-0.3837521893	-0.6985025826	-1.0941102152	-0.191048
O	-0.4966740176	-2.0037905536	-0.5719908982	-0.202538
C	-0.0847455938	-1.95228581	 0.6938609017	 0.457592
N	 0.2900295753	-0.7662456584	 1.0766719362	-0.404486
C	-0.1060765322	-3.1775086307	 1.5128195543	-0.048739
C	-1.1011495649	-4.2409680758	 1.2761788517	-0.168097
O	 0.2484247544	-4.3940856805	 0.856071	-0.211695
H	 0.6761295597	 1.541122586	 0.7271232596	 0.321873
H	 0.3080660018	-3.0350291917	 2.5075725162	 0.131292
H	-1.4095447601	-4.8608987772	 2.1161617216	 0.133026
H	-1.8280111371	-4.1155672279	 0.476871669	 0.144786
