14
gdb 34065	4.18663	1.42787	1.23152	3.8534	73.51	-0.2519	-0.0808	0.1711	966.9868	0.101341	-395.595097	-395.588348	-395.587404	-395.626129	26.475	
N	-0.0745592397	-1.078025191	-0.0209974802	-0.329984
C	-0.0676928289	 0.0795594125	-0.020823973	 0.21542
C	-0.0668717044	 1.505441506	-0.0226683341	 0.210475
N	-1.3849833904	 2.2637935463	 0.3701658039	-0.369377
C	-0.5729179358	 3.3634854247	-0.1943490866	 0.111454
N	-0.0117161301	 4.1331458326	 0.6458529803	-0.134679
C	 1.4199421714	 3.7264377525	 0.6374475534	-0.183946
C	 1.3351526696	 2.3295676891	-0.0114076261	-0.095776
C	 0.3357569678	 2.4563532281	-1.0922144205	-0.191702
H	-2.0494926244	 1.9038744075	-0.3253070651	 0.239418
H	 2.1083790664	 4.3735698599	 0.0744113799	 0.126713
H	 1.7358575853	 3.7231100106	 1.6844300182	 0.146664
H	 2.2074467572	 1.6889074249	-0.1117646732	 0.123736
H	 0.3931080562	 2.3435486964	-2.1665004769	 0.131583
