14
gdb 26052	3.34945	1.15027	1.04899	1.6833	69.12	-0.25	-0.0147	0.2353	1145.9907	0.100421	-436.665843	-436.657717	-436.656773	-436.699292	29.282	
O	-0.2229826087	 1.358884728	 0.0927807599	-0.401469
C	 0.0192524111	-0.0414368988	-0.0125068175	-0.189504
C	 0.7942174963	-0.3718587738	-1.2156566971	 0.304975
C	 1.4419211438	-0.6157812998	-2.1976402285	-0.448294
C	 0.6549784947	-0.5986273887	 1.2231454969	 0.364725
C	 0.2651549138	-1.4516183478	 2.2003031658	-0.196492
N	 1.2817136249	-1.5748871754	 3.1406286322	-0.256537
C	 2.2141368959	-0.8006649455	 2.6946613605	 0.07864
O	 1.9203321212	-0.1696027362	 1.5340535665	-0.185766
H	 0.6350120271	 1.7991016004	 0.0885627311	 0.293713
H	-0.9741320974	-0.4973995557	-0.0899894399	 0.141068
H	 2.0086564534	-0.8382213595	-3.0681922964	 0.20648
H	-0.6667308613	-1.9857384989	 2.2963084602	 0.133344
H	 3.1818574051	-0.5964994982	 3.1251200162	 0.155115
