23
gdb 73477	2.38523	2.08874	1.51782	0.0891	87.7	-0.2673	0.0876	0.3549	998.7292	0.209947	-351.166421	-351.159202	-351.158258	-351.197325	31.477	
C	 0.0556620399	 1.5093741625	-0.0097053204	-0.496533
C	 0.0131366221	-0.0098473744	-0.0372606612	 0.395561
C	 0.7185493233	-0.6287299099	-1.2634178183	-0.291438
C	-0.0454137255	-1.9606860011	-1.4979938918	-0.216494
C	-0.7759027049	-2.1549663949	-0.1606041329	-0.010057
C	 0.3080544072	-2.2108820419	 0.96588183	-0.22676
C	 0.2861043038	-0.7205264635	 1.3529086248	-0.05841
C	-1.227761888	-0.540070293	 1.6621582779	-0.251551
C	-1.3637476985	-0.7431659025	 0.1383400576	-0.054435
H	 1.0939334348	 1.8621510085	 0.004550192	 0.113154
H	-0.4184166531	 1.9306608139	-0.9037788664	 0.110912
H	-0.4431146631	 1.9358270755	 0.8649455974	 0.113348
H	 0.6526409513	 0.0374708093	-2.1296762951	 0.090111
H	 1.7859232965	-0.7886130317	-1.0732982896	 0.095388
H	-0.7631585822	-1.8562062176	-2.3199887399	 0.089544
H	 0.6133425909	-2.7997285225	-1.7430912505	 0.089822
H	-1.4900218907	-2.9806192836	-0.1478206616	 0.053372
H	 0.0242716483	-2.8481267352	 1.8087594129	 0.089587
H	 1.2746372925	-2.5628509335	 0.592646066	 0.087596
H	 1.0612290043	-0.3591118882	 2.0321175125	 0.049714
H	-1.6943392293	-1.2727367295	 2.3278520713	 0.082736
H	-1.4977568428	 0.4661159881	 1.9859532302	 0.09491
H	-2.2546773567	-0.4497780547	-0.4209620952	 0.049924
