13
gdb 131749	4.4591	0.99641	0.83507	2.7386	70.46	-0.2803	-0.0683	0.212	1287.9016	0.088396	-452.702393	-452.694382	-452.693438	-452.735676	28.495	
O	-0.0100084994	 1.3461365022	-0.4189131144	-0.406682
C	-0.0259983587	 0.0930957264	 0.2287955971	-0.177942
C	-1.3937624036	-0.5232856843	 0.1916171406	 0.324258
N	-1.9849174781	-1.0682663219	 1.2216845359	-0.148417
O	-3.2082065225	-1.5039433775	 0.7082853264	-0.197421
C	-3.2180130205	-1.156716169	-0.5915274699	 0.277653
N	-2.1270230964	-0.5520631765	-0.9711949072	-0.3665
C	-4.3582543974	-1.4753847042	-1.3590280833	 0.248921
C	-5.3342527611	-1.7508712659	-2.0033526988	-0.336526
H	-0.4210992212	 1.2251620216	-1.2832283414	 0.302149
H	 0.6876732749	-0.6124705856	-0.2264224673	 0.117365
H	 0.2754733015	 0.2491237422	 1.267032143	 0.145159
H	-6.1955073175	-1.9922369776	-2.5777765107	 0.217983
