18
gdb 12840	2.91855	2.4379	1.76113	1.9717	71.48	-0.2392	0.0126	0.2517	819.5561	0.154933	-347.80047	-347.793438	-347.792494	-347.831447	27.611	
C	-0.2223431989	 1.5254587289	 0.0361858831	-0.483212
C	 0.0701450087	 0.0351421878	-0.0343476745	 0.293594
C	-1.0957711258	-0.8869561119	 0.4099054769	-0.117639
O	-0.3986058085	-1.3029923181	 1.6023215581	-0.29646
C	 0.806654599	-0.6114551131	 1.175743047	 0.060905
C	 1.8389849869	-1.509418812	 0.5544031425	-0.088083
C	 1.838003839	-1.4133807222	-0.7760448497	-0.061584
C	 0.8307440793	-0.4159644553	-1.3011589355	-0.334162
H	 0.700663354	 2.1112388983	-0.0390289192	 0.117417
H	-0.8813188246	 1.8378412366	-0.782353652	 0.116778
H	-0.7128385112	 1.7888243326	 0.9791156225	 0.122994
H	-2.0404664429	-0.3829823602	 0.6485812986	 0.096882
H	-1.2998695102	-1.7299499429	-0.2639490274	 0.09403
H	 1.186786788	 0.0302590265	 1.9797541893	 0.071376
H	 2.4797148645	-2.1595842809	 1.1392823268	 0.099097
H	 2.4892268863	-1.9744375287	-1.4389812586	 0.097781
H	 0.1622753512	-0.8586798043	-2.0515176064	 0.105935
H	 1.3274759952	 0.428248639	-1.7992491216	 0.104348
