16
gdb 37687	3.26244	2.49301	2.03305	1.0338	70.03	-0.2279	0.0339	0.2618	734.9455	0.126738	-400.581648	-400.57643	-400.575486	-400.610797	23.622	
C	-0.0684122146	 1.4908850256	-0.1750509067	-0.345196
C	 1.5117374033	 1.3769930978	 0.0694881346	-0.032696
C	 1.2485555472	 0.2027154423	 1.012759155	-0.037474
C	 2.1672659162	-0.7617335713	 0.3229897986	-0.065696
C	 1.0507093065	-1.6765279638	-0.4212447789	 0.020397
O	-0.2918887606	-1.4426908993	 0.163893832	-0.383495
C	 0.0932646507	-0.0385932025	-0.0046779867	 0.379869
C	 0.9489211248	-0.4114446217	-1.2365711719	-0.015471
N	 2.1945295148	 0.2826316288	-0.8492608373	-0.19193
H	-0.4915707396	 2.0284371551	 0.6782994494	 0.122574
H	-0.4753433922	 1.8677150538	-1.1162143475	 0.115875
H	 2.1131652708	 2.2615929471	 0.2647705947	 0.091641
H	 0.9741727154	 0.2605193683	 2.0639761013	 0.082435
H	 3.1139777042	-1.1432307311	 0.6965888253	 0.081751
H	 1.2168993235	-2.7064457837	-0.7260456266	 0.096618
H	 0.5067982796	-0.3064159154	-2.2272118355	 0.080798
