20
gdb 35950	3.12298	1.14423	0.88712	4.5125	84.84	-0.2581	-0.0028	0.2554	1313.2055	0.173343	-366.044407	-366.036028	-366.035083	-366.077535	32.258	
N	 0.1433719541	-1.2435552288	 0.2328141834	-0.324854
C	 0.074528668	-0.0940444409	 0.1355555143	 0.256274
C	-0.0170820682	 1.3661667498	 0.0280485822	-0.187717
C	-0.7916175481	 1.9362635366	 1.2494120537	-0.184791
C	-1.3308487434	 3.3568864325	 1.0371629799	-0.206512
C	-0.2854850572	 4.4706273142	 0.8881243983	-0.180142
C	 0.5953251297	 4.3734177719	-0.3726208611	-0.253882
C	 1.616034379	 3.2610808232	-0.3473222281	-0.077518
C	 1.3680732607	 1.9652409127	-0.1698222499	-0.035919
H	-0.623294389	 1.5716131528	-0.8676434667	 0.133515
H	-1.6364996127	 1.2709955686	 1.455713812	 0.118344
H	-0.1362305856	 1.8990921269	 2.1264263396	 0.116133
H	-1.9846920002	 3.3591843044	 0.1531293584	 0.096979
H	-1.9776900605	 3.5982776258	 1.8886399481	 0.10323
H	-0.8148692393	 5.4304218492	 0.862889308	 0.09856
H	 0.3592430336	 4.4942115463	 1.7754753118	 0.102026
H	-0.0575397391	 4.2591076296	-1.2514585043	 0.110049
H	 1.1157782493	 5.3257635221	-0.5124219185	 0.104981
H	 2.6538555473	 3.5544157424	-0.4858855535	 0.098273
H	 2.1938773015	 1.2608128005	-0.1682337678	 0.11297
