15
gdb 44076	3.25621	1.70846	1.52383	4.9215	65.64	-0.258	0.0022	0.2601	884.6502	0.113368	-457.678539	-457.672255	-457.67131	-457.709027	25.765	
O	-0.1262086298	 0.0811864586	 0.04429102	-0.351195
C	 0.0250245028	 1.2643711232	 0.0421833594	 0.477502
O	-0.9767019608	 2.1864463917	 0.1499855464	-0.261479
C	-0.2681894265	 3.4814071133	 0.0974020566	 0.325469
C	-1.0579649637	 4.2688605689	-0.9755567656	-0.171124
O	-0.2979026874	 3.5144923049	-2.0016169366	-0.304041
C	 0.7309117062	 3.3030241178	-0.9903817141	 0.133777
C	 1.2547221173	 2.1394429363	-0.0567989244	-0.277142
C	 0.8807918759	 3.2131116718	 1.1136228038	-0.330644
H	-2.1282098826	 4.0689832601	-1.034884898	 0.146541
H	-0.8332180003	 5.3383945229	-1.0305582779	 0.121988
H	 1.4889080315	 4.0878573987	-1.0713567751	 0.104138
H	 2.2235014715	 1.6546403458	-0.1405517727	 0.1115
H	 1.6176057647	 4.0115874634	 1.1995014641	 0.133079
H	 0.617580011	 2.7990899726	 2.0879209041	 0.141631
