16
gdb 99077	4.41251	0.72006	0.70224	2.1428	66.85	-0.2832	-0.0466	0.2365	1576.4431	0.121167	-475.037407	-475.027533	-475.026588	-475.073574	34.005	
O	 0.104458376	 1.386848443	-0.1946097729	-0.414013
C	-0.0751110833	 0.0216612399	-0.4013671493	-0.134578
C	-1.3775696001	-0.4754637511	 0.1942073291	 0.373495
O	-2.1510073928	 0.3087353002	 0.6982422723	-0.320632
C	-1.6615034698	-1.9703790404	 0.1488425716	-0.330661
C	-3.1477972743	-2.23020461	-0.1561540533	-0.005785
O	-3.5007506431	-1.834570065	-1.4671151559	-0.411246
C	-3.4938406756	-3.6419399221	 0.0934218902	 0.255014
N	-3.7419221265	-4.7587497629	 0.2558701565	-0.309183
H	-0.7190720878	 1.6978160758	 0.2131080338	 0.298628
H	-0.0966363788	-0.2344853957	-1.4767779413	 0.120555
H	 0.7550957837	-0.560647973	 0.0319128382	 0.122748
H	-1.0235389999	-2.4760529633	-0.5839285658	 0.12515
H	-1.4071042864	-2.3822963242	 1.1336888327	 0.162929
H	-3.7407164605	-1.5975543369	 0.5118095181	 0.169218
H	-3.1265745309	-2.4668444742	-2.0918212641	 0.298362
