21
gdb 101183	3.35265	1.01767	0.9171	2.8119	79.25	-0.2339	0.0783	0.3122	1366.649	0.180738	-424.139336	-424.13007	-424.129125	-424.174303	34.218	
C	 0.1124748352	 1.3026053423	-0.2607807037	-0.233803
O	-0.0689667747	-0.0573321522	 0.0560648001	-0.247565
C	-1.4014206482	-0.5378674749	-0.0949922042	 0.078054
C	-1.7991293601	-0.7031898461	-1.5661772106	-0.405335
C	-1.4259373965	-1.8744019575	 0.6300567697	 0.058137
C	-1.4015044841	-2.0055499326	 2.1772373829	 0.029759
C	-2.8782683317	-1.5506116808	 2.2693596929	-0.235369
C	-2.726370723	-2.5747790749	 1.1179850946	 0.02257
O	-1.8871590772	-3.4003233284	 2.0170707175	-0.311201
H	 1.1392475623	 1.5602517238	 0.0114582948	 0.128455
H	-0.0243055209	 1.5140761274	-1.3312023986	 0.107208
H	-0.5756599143	 1.9488251848	 0.3075165169	 0.101272
H	-2.0904385595	 0.1789931961	 0.3785115521	 0.061837
H	-1.7795432865	 0.2505779855	-2.1005364758	 0.117105
H	-1.1152893007	-1.3944074242	-2.0685750984	 0.126737
H	-2.815145184	-1.1036460653	-1.6433827629	 0.118835
H	-0.7366181236	-2.5786897968	 0.1567410116	 0.088031
H	-0.5767893475	-1.8370978717	 2.8689246128	 0.097204
H	-3.4147334004	-1.9276917382	 3.1405465086	 0.109256
H	-3.1335393119	-0.5157681675	 2.0343181471	 0.097258
H	-3.4959795027	-3.0894434289	 0.5410959426	 0.091553
