15
gdb 22020	5.05148	1.05832	0.88013	1.0444	81.07	-0.1974	-0.0394	0.1581	1252.7799	0.112886	-450.058739	-450.050457	-450.049513	-450.092107	29.76	
C	-0.1901803743	 1.3888127437	-0.0056088026	-0.30213
N	 0.0559181471	-0.0428340773	 0.0070823642	 0.116074
N	 0.2143719297	-0.6382273371	-1.1932066138	-0.22434
C	 0.5411495174	-1.8907178468	-1.1962147076	 0.008421
C	 0.7544064771	-2.6656185109	 0.0072051667	 0.252401
C	 0.5927498188	-1.8750097078	 1.2172487891	-0.034947
N	 0.265683733	-0.6195316459	 1.1968807691	-0.206614
N	 1.0591435097	-3.9191824053	-0.0912179641	-0.255774
O	 1.2307460452	-4.4862890389	 1.1859390736	-0.398478
H	 0.7412744518	 1.9502141202	-0.1440226031	 0.141082
H	-0.8699634749	 1.6203951426	-0.8263228521	 0.153402
H	-0.6384121617	 1.663568466	 0.948427613	 0.156422
H	 0.6550542466	-2.3610666245	-2.1675851989	 0.137477
H	 0.7439964888	-2.3187247274	 2.1919409622	 0.14864
H	 1.4448027656	-5.4001075206	 0.9734074842	 0.308366
