15
gdb 43535	2.48309	1.52284	1.10111	2.9995	72.13	-0.2832	-0.015	0.2682	1084.8437	0.112575	-416.798345	-416.790435	-416.78949	-416.831133	29.197	
N	-0.1027591499	 1.2368044314	-0.5441045041	-0.549414
C	-0.0466316509	 0.0691132725	-0.1042276488	 0.410713
O	 1.0141241988	-0.6512277094	 0.4497607708	-0.275531
C	 0.1837572581	-1.8422323752	 0.610736338	-0.086287
C	 0.0800442574	-2.2722715854	 2.0020037586	 0.295734
N	-0.0368194212	-2.6370122113	 3.0919167074	-0.315034
C	-1.0042171034	-1.0607978666	 0.030558671	 0.184819
C	-2.440557738	-1.009224315	 0.4658444924	-0.314146
C	-2.0901368091	-1.4923384393	-0.9130883417	-0.317854
H	 0.7876690994	 1.7280240967	-0.467175447	 0.240744
H	 0.5623646708	-2.6604033222	-0.0086464242	 0.145214
H	-2.7577047731	-1.7378968241	 1.2042176837	 0.145313
H	-2.8732406128	-0.021393536	 0.5753321583	 0.151967
H	-2.2806965084	-0.8382601166	-1.7566134788	 0.150701
H	-2.1764091977	-2.5530798696	-1.1232320854	 0.133061
