20
gdb 85434	2.46096	1.53269	1.16679	3.0861	80.52	-0.2437	0.0311	0.2748	1135.4491	0.171329	-403.164951	-403.156504	-403.15556	-403.197881	33.058	
C	 0.5407378385	 1.5349816206	-0.2182288642	-0.394474
C	-0.0525422949	 0.1518410419	 0.077401544	-0.088501
C	 0.3094691503	-0.8818601525	-1.0077509516	-0.309827
C	 1.6123984	-1.46952867	-0.5084140318	 0.403832
N	 2.4642590669	-2.0934522685	-1.1993444701	-0.546025
O	 1.7340795749	-1.2121646779	 0.8320478007	-0.272291
C	 0.5816882278	-0.5105309711	 1.2958038802	 0.456696
C	 0.6713577937	 0.0646116042	 2.6670523956	-0.338816
C	-0.1932549962	-1.1599248148	 2.4057422054	-0.335358
H	 1.6263522083	 1.4781168134	-0.349631214	 0.133378
H	 0.1121477805	 1.9502562058	-1.1356922171	 0.117676
H	 0.3387539183	 2.236365443	 0.5967512844	 0.117316
H	-1.1346650265	 0.2365398169	 0.2085630928	 0.081087
H	-0.4386868053	-1.6808127	-1.0579186876	 0.130168
H	 0.4225477792	-0.4666323699	-2.0099069495	 0.131212
H	 3.2446252662	-2.3987388537	-0.6148022821	 0.21973
H	 1.5998867487	-0.0858977383	 3.2057647931	 0.130921
H	 0.1831114622	 1.0138732795	 2.8600921997	 0.119706
H	-1.2721897588	-1.0460103344	 2.4218263887	 0.116411
H	 0.1736553463	-2.1124509341	 2.7708088835	 0.127158
