17
gdb 104569	2.28712	1.34416	1.03622	3.0559	70.09	-0.2536	-0.0446	0.209	1184.9168	0.13168	-458.963654	-458.954381	-458.953437	-458.998625	33.071	
C	-0.2390697047	 1.3711983026	 0.3014757969	-0.262912
O	-0.2973469549	-0.0281657158	 0.0816054232	-0.287895
C	 0.488755996	-0.4897880092	-0.9911809005	 0.300273
C	 2.039277681	-0.3799636922	-0.8212119564	-0.406861
C	 2.0698073978	-1.8861568937	-0.5394282529	 0.413505
O	 2.9076218198	-2.6407895362	-0.1469199948	-0.280213
C	 0.5840879291	-2.0536275869	-0.9016863001	-0.393846
C	-0.0660153007	-0.0150790382	-2.3229988942	 0.093178
O	 0.585789346	 0.1211369882	-3.3261425076	-0.247005
H	 0.7707631019	 1.7012583862	 0.5799051622	 0.119688
H	-0.5585375696	 1.9441192827	-0.5808869975	 0.118512
H	-0.9209956943	 1.586977895	 1.1261668073	 0.141819
H	 2.533105237	-0.1229421661	-1.7640219141	 0.159496
H	 2.4098424483	 0.2675467941	-0.0241923244	 0.137921
H	-0.0535982217	-2.4886804783	-0.129053875	 0.152048
H	 0.4299886816	-2.5780614739	-1.8491605043	 0.145981
H	-1.1656408827	 0.1596347017	-2.3032700979	 0.096312
