22
gdb 14173	3.4473	1.62839	1.61414	0.1494	81.35	-0.2512	0.0805	0.3317	973.943	0.201525	-313.080648	-313.072295	-313.07135	-313.112845	32.488	
C	 0.0219288951	 1.5733140158	 0.0646911144	-0.466555
C	 0.0600832991	 0.0561559296	 0.0361284008	 0.339426
C	-1.2556282116	-0.5408938601	-0.4416940909	-0.445499
C	 1.295291639	-0.7309889972	-0.3577075546	-0.076265
C	 2.6720380059	-0.0775743919	-0.3753489092	-0.228386
C	 2.9198276351	 0.490465221	 1.0501859481	-0.216625
C	 1.8469581123	-0.1431685706	 1.9795131903	-0.22848
C	 0.7933671698	-0.7708749713	 1.0747006057	-0.076281
H	 0.9502737626	 2.02933405	 0.4087931156	 0.117321
H	-0.1880106979	 1.9696159739	-0.9361949885	 0.111998
H	-0.7806518759	 1.9231598451	 0.7252938384	 0.111943
H	-1.4993444117	-0.198663531	-1.454852097	 0.109742
H	-1.218587001	-1.6346095974	-0.4602163791	 0.109647
H	-2.083849999	-0.2466529349	 0.2144109055	 0.109742
H	 1.1435961694	-1.5766696356	-1.0219614857	 0.07044
H	 3.4169154561	-0.8439906383	-0.616648556	 0.097626
H	 2.7680042348	 0.6996300882	-1.1421871293	 0.095704
H	 3.9314169105	 0.2623109965	 1.3982987589	 0.09481
H	 2.8423401975	 1.5805819437	 1.0533415406	 0.10593
H	 2.2919198134	-0.9335374849	 2.594148943	 0.097638
H	 1.4302896433	 0.5931472225	 2.6763250082	 0.095692
H	 0.2752618032	-1.6456772432	 1.4563996508	 0.070431
