15
gdb 69624	3.80151	1.18783	1.15097	3.7027	71.72	-0.2475	-0.0057	0.2418	1094.9662	0.11128	-416.722383	-416.714649	-416.713705	-416.754504	29.519	
C	-0.1602470473	 1.5315569112	 0.0399622508	-0.508631
C	 0.1122832171	 0.066453292	 0.0185877903	 0.438707
O	-0.7769513188	-0.8407953778	 0.6769845078	-0.242818
C	 0.6020420554	-0.8974132454	 1.0052828273	-0.120682
C	 1.3521876783	-1.7065988527	-0.1259382368	 0.216187
N	 0.3427392154	-2.1106952654	-1.1433837969	-0.333767
C	 0.8384082589	-0.7309630251	-1.1366790581	-0.214079
C	 2.6372506486	-2.2975375277	-0.0221054093	 0.174762
N	 3.6871252979	-2.7747453271	 0.0895110691	-0.34283
H	 0.7363800472	 2.095948483	-0.2358606464	 0.135058
H	-0.9541342396	 1.7876240328	-0.6701517966	 0.143043
H	-0.4773807572	 1.8422957559	 1.0384265837	 0.145974
H	 0.9103699583	-0.8130312732	 2.0399762759	 0.127363
H	 0.8437887377	-2.6144673275	-1.8769763664	 0.253838
H	 1.372461478	-0.295515073	-1.9711530744	 0.127874
