19
gdb 2103	4.41481	2.32342	1.67336	1.2016	67.56	-0.2416	0.0898	0.3314	800.6113	0.173543	-310.941319	-310.934382	-310.933438	-310.971767	27.113	
C	-0.0133107482	 1.5264502946	 0.0633222935	-0.400791
C	 0.0286361366	 0.0075284562	-0.0116883452	 0.155946
C	 0.7104296899	-0.5172493564	-1.2825360949	-0.187383
C	 0.8301250545	-2.0475381067	-1.2468563779	-0.209111
C	 1.4855941768	-2.4941222478	 0.0668823083	-0.191857
C	 0.7578635514	-1.8596419017	 1.2536300433	-0.061539
O	 0.7136066105	-0.4470067773	 1.1523028893	-0.259413
H	 1.0014691005	 1.9364121828	 0.0459538538	 0.121097
H	-0.5692972607	 1.9390556772	-0.7840719383	 0.110474
H	-0.4964869284	 1.8498063281	 0.989194447	 0.12083
H	-1.0051078881	-0.3860198457	 0.0135650538	 0.055876
H	 0.1459940562	-0.1910656173	-2.1639019695	 0.089713
H	 1.7092494125	-0.0664286719	-1.3510451805	 0.096933
H	-0.1725038568	-2.4913158311	-1.3203354052	 0.093387
H	 1.3974003101	-2.4116128238	-2.1100621387	 0.093297
H	 1.4727848992	-3.5858553686	 0.1643696968	 0.090529
H	 2.5353505022	-2.1759749552	 0.0856949978	 0.101295
H	-0.2678214069	-2.2651338502	 1.320058282	 0.079387
H	 1.2647995687	-2.0811261551	 2.1978274345	 0.101331
