20
gdb 99625	1.95233	1.43287	0.95118	4.0982	80.38	-0.2432	0.0314	0.2747	1288.3949	0.170718	-399.300788	-399.290926	-399.289982	-399.335596	36.007	
C	-1.6505654129	 0.5270818111	 1.8905508994	-0.420763
C	-0.8535558258	-0.4550498962	 1.0606489974	 0.031677
C	 0.0280909273	-0.0015652885	-0.047773003	-0.24862
N	 0.6128578155	-0.6020931169	 1.153579908	-0.111407
C	 1.3702310135	 0.261063597	 2.0654900658	-0.104762
C	 1.7988030862	-0.5542143438	 3.3034499109	-0.159954
N	 0.6108956195	-1.0473084066	 3.9978486145	-0.517698
C	 2.5599756085	 0.7827297391	 1.3768078047	 0.301716
N	 3.4981364478	 1.2033377556	 0.8498303863	-0.328843
H	-1.268348314	 1.5488419267	 1.8159417145	 0.123277
H	-2.6857733607	 0.5422396706	 1.53469816	 0.123544
H	-1.6485702792	 0.2366440114	 2.9456869578	 0.147209
H	-1.3383733909	-1.4238068356	 0.9480442573	 0.095305
H	 0.144059966	-0.5795597539	-0.9602385426	 0.12338
H	 0.1333070934	 1.07427216	-0.1795337695	 0.121614
H	 0.7920067324	 1.1275380913	 2.4172740373	 0.11688
H	 2.4897152358	-1.3418570148	 2.9684886773	 0.11094
H	 2.3507083552	 0.1085269514	 3.9775499879	 0.118587
H	 0.2237140314	-1.8304510026	 3.4804393969	 0.242056
H	 0.871255581	-1.4053600052	 4.9106609293	 0.235861
