18
gdb 48141	2.88833	1.28551	0.92044	3.1753	74.64	-0.244	-0.0691	0.1749	1241.4413	0.148438	-439.13282	-439.1242	-439.123256	-439.166913	30.827	
O	-0.8878774497	 1.2897425843	-0.0224997009	-0.248667
C	 0.2701439308	 0.9909048772	-0.1563366122	 0.091275
C	 1.472855928	 1.9375007788	-0.1576207287	 0.301791
O	 2.5699493867	 1.4409675255	-0.3844083184	-0.375869
N	 1.2772503366	 3.2545138794	 0.0694758735	-0.098889
C	 0.0201317038	 3.9584040409	 0.3798122087	-0.146329
C	 0.4997501888	 5.3460145694	 0.8308231644	-0.224347
C	 1.7870997942	 5.5601795234	 0.019375846	-0.22729
C	 2.4284693917	 4.1680011829	 0.0087784933	-0.149275
H	 0.613109764	-0.0513447606	-0.3194186771	 0.117416
H	-0.6141327134	 4.0241015443	-0.5119873781	 0.120671
H	-0.5507901634	 3.4304262276	 1.143279558	 0.135749
H	-0.2553664628	 6.1166282297	 0.6613985856	 0.111567
H	 0.7284977328	 5.3310759937	 1.9021008984	 0.113006
H	 1.5421280957	 5.8686161578	-1.0028261628	 0.113002
H	 2.4472289425	 6.3175238822	 0.4471742418	 0.111544
H	 3.0778125716	 4.0075774053	 0.8789308563	 0.12104
H	 3.0263772521	 3.9560168082	-0.8807381078	 0.133605
