22
gdb 110260	2.75133	1.19321	0.96915	1.9184	84.52	-0.2123	0.0698	0.2822	1332.5832	0.192752	-404.261619	-404.251919	-404.250975	-404.296124	36.551	
C	 0.9443967568	 1.0499923911	-0.6347391382	-0.372346
C	-0.2059279222	 0.6064161859	 0.2788852998	-0.24265
C	 0.3029936855	-0.2035566133	 1.4637553731	 0.088692
C	-0.6007750193	-1.0177433318	 2.4462397564	-0.101007
C	-0.7499430995	-2.1510875481	 1.398791081	 0.140283
O	-1.615860902	-1.9548364676	 0.3059280703	-0.435874
C	 0.7524742446	-1.701488986	 1.394750573	-0.108605
N	 0.7003878286	-1.6544068311	 2.9124430873	-0.099287
C	 0.6914377166	-2.8880138012	 3.6959534145	-0.332654
H	 1.4513008123	 0.1877059612	-1.0821910226	 0.110795
H	 0.5788293625	 1.6798019803	-1.4518392595	 0.108309
H	 1.6973050681	 1.6236030092	-0.0823391178	 0.111481
H	-0.7104750663	 1.4978426585	 0.6758895206	 0.09049
H	-0.9476675374	 0.0540600217	-0.295321366	 0.127097
H	 1.0388555719	 0.3758189686	 2.0311191133	 0.074821
H	-1.3425274215	-0.6445282703	 3.1558728634	 0.073711
H	-0.9203433175	-3.1418512921	 1.825390354	 0.068211
H	-1.6504339279	-2.7727821437	-0.1987523188	 0.28433
H	 1.6054011949	-2.1372129465	 0.8689594711	 0.070003
H	 1.7171007847	-3.2706874307	 3.7310467132	 0.122638
H	 0.4008652279	-2.6352216974	 4.7211590114	 0.123793
H	 0.0422837093	-3.7103835567	 3.3598965906	 0.097767
