19
gdb 97908	4.00976	0.59371	0.54204	2.7329	82.07	-0.2517	-0.0381	0.2136	2043.592	0.156092	-423.0142	-423.003636	-423.002691	-423.053292	36.33	
C	 0.5314319713	 1.5823706201	 0.05437545	-0.363947
C	 0.8588353815	 0.0776966737	 0.0592895772	-0.314947
C	 0.7517298603	-0.5325595312	-1.2627246151	 0.091364
C	 0.6480044912	-0.9999962384	-2.3687384216	 0.024635
C	 0.5364305477	-1.6081960325	-3.6886397124	-0.37631
C	 1.1413892909	-3.0367202893	-3.7611379249	 0.05458
O	 0.8669014154	-3.6135474773	-5.0043595754	-0.428321
C	 2.6367827377	-3.0084618122	-3.5121345564	 0.139371
O	 3.4141265058	-3.4672941759	-4.3157141618	-0.263999
H	 1.213583533	 2.1262823905	-0.6044576842	 0.129412
H	-0.4885845148	 1.7565132267	-0.29836451	 0.130148
H	 0.6232948306	 1.994806935	 1.0634031397	 0.116636
H	 1.8728384732	-0.0746279994	 0.4508495031	 0.12876
H	 0.1869623805	-0.4409811914	 0.7550660771	 0.130701
H	-0.5143288138	-1.699255655	-3.9856552054	 0.149101
H	 1.0204904475	-0.9867585289	-4.4521107437	 0.137104
H	 0.6928870546	-3.6275991216	-2.9433302594	 0.105857
H	 1.7306277482	-3.8654302891	-5.370107559	 0.294658
H	 2.9719697692	-2.5454943437	-2.5654067379	 0.115198
