18
gdb 77266	2.64898	1.04542	0.97068	2.0824	79.39	-0.2324	-0.0276	0.2048	1296.23	0.143899	-401.885427	-401.875578	-401.874633	-401.921104	34.867	
C	-1.8035387719	 0.7871028412	-0.7036960783	-0.325763
N	-0.8212933918	-0.2708289383	-0.489457195	-0.097819
C	 0.3728477975	-0.3544126306	-1.3155707629	-0.0197
C	 0.6876642758	 0.6142177317	-2.4429732317	-0.317878
C	-0.0645350698	 0.2595305945	-3.7108933826	 0.168576
O	-0.728769672	 1.0311809789	-4.3520158143	-0.236536
C	 0.4765389741	 0.0585364785	 0.130822717	-0.222589
C	 0.8294011453	 1.4070549076	 0.4804675564	 0.353051
C	 1.1218168611	 2.527124424	 0.8091347965	-0.465816
H	-1.3809730176	 1.7827257184	-0.8864079886	 0.125311
H	-2.4318885558	 0.5111381874	-1.5552537821	 0.136111
H	-2.4386209098	 0.8479026462	 0.1847128368	 0.131525
H	 0.6585254999	-1.383132917	-1.5388523917	 0.101534
H	 0.4857967974	 1.6535467498	-2.1827575746	 0.13935
H	 1.7614124924	 0.5283433628	-2.6663084949	 0.131179
H	 0.0430897209	-0.8047393546	-4.0271801489	 0.076193
H	 0.8134162698	-0.6871769383	 0.8485495434	 0.118791
H	 1.3840044646	 3.5147269978	 1.0991767758	 0.204479
