19
gdb 89722	2.57936	1.41554	1.05896	1.8273	78.14	-0.2434	0.0014	0.2448	1172.8427	0.158298	-423.021493	-423.012655	-423.011711	-423.055231	33.452	
C	-0.2171624773	 1.4613975562	 0.0530789831	-0.507625
C	-0.0969550308	-0.0262392372	-0.0313667522	 0.272492
C	-0.1736200725	-0.8050546611	-1.1158351824	-0.232639
C	 0.0360578712	-2.2702080423	-0.8120549915	 0.08515
O	 1.2534350629	-2.7662121525	-1.3728551729	-0.433036
C	-0.0067920049	-2.3226030357	 0.7382030894	-0.343044
C	 0.1078719617	-0.8686426774	 1.1901488718	 0.362538
C	 0.8564775944	-0.4154814617	 2.3761181571	-0.254364
O	-0.5696963701	-0.4759129028	 2.3953451469	-0.277499
H	 0.7371704572	 1.923878492	 0.3346491064	 0.128872
H	-0.5307508763	 1.8930414849	-0.9001493222	 0.128193
H	-0.9429154366	 1.738179907	 0.8251576699	 0.149023
H	-0.3093314972	-0.44921238	-2.1316956327	 0.098117
H	-0.7355939531	-2.9061865721	-1.2570792706	 0.090866
H	 1.944611632	-2.1278700695	-1.1635752625	 0.272711
H	-0.9643345523	-2.7181296438	 1.0902826394	 0.123943
H	 0.7847577491	-2.9695592164	 1.1233354648	 0.111131
H	 1.3658257103	-1.155778309	 2.9928830842	 0.115288
H	 1.2834802222	 0.5862174512	 2.4131960142	 0.109883
