19
gdb 120597	4.05466	0.77161	0.71761	2.5719	80.38	-0.2599	0.0261	0.2861	1629.1055	0.154658	-422.957872	-422.94747	-422.946525	-422.993821	36.733	
C	 0.125372808	 1.3534850191	-0.1914544217	-0.225734
O	 0.1406867901	-0.0505763395	-0.088849829	-0.233248
C	 0.5129065646	-0.5014244786	 1.1941300498	-0.092539
C	 0.4856370102	-2.0086268687	 1.1717226413	 0.008504
O	 1.6952523989	-2.7068922238	 0.8825832553	-0.274431
C	 1.1272474698	-2.8630916764	 2.1986126539	 0.179283
C	 1.9396533738	-2.3016417573	 3.3500678969	-0.472605
C	 0.5371238671	-4.1589326926	 2.4603570366	 0.28941
C	 0.0573046837	-5.2314742366	 2.7134803469	-0.426765
H	 1.1191581325	 1.7883606166	-0.0007257391	 0.107256
H	-0.1792235861	 1.6020013069	-1.2106366831	 0.132016
H	-0.5885142147	 1.8068395582	 0.5149861064	 0.103897
H	 1.5158228948	-0.1371335955	 1.4608458155	 0.09924
H	-0.1956583894	-0.1279909746	 1.9554891387	 0.09324
H	-0.3932107317	-2.4129001048	 0.6687310628	 0.108215
H	 2.3887516472	-1.3432295066	 3.0864654335	 0.12984
H	 1.30785337	-2.1707896021	 4.2337492164	 0.133756
H	 2.7412923753	-2.9989365374	 3.6096436225	 0.141146
H	-0.3697962542	-6.1810314266	 2.9230741564	 0.199518
