13
gdb 20466	6.37473	1.47767	1.3018	3.379	61.23	-0.2592	-0.0269	0.2323	894.304	0.096363	-398.564607	-398.558252	-398.557308	-398.595809	22.958	
C	 0.3236169822	 1.5053375556	 0.1225204783	-0.17335
O	 1.1094251443	 0.3818965287	-0.2617605765	-0.220372
C	-0.2728121809	 0.160467307	 0.0441024149	-0.050572
C	-0.5786289182	-0.63318853	 1.2452486136	 0.459043
C	-1.4403640039	-1.6650867797	 1.4629434342	-0.348308
C	-1.2567363287	-1.9608467712	 2.8391835815	 0.03811
N	-0.3660542329	-1.1807441865	 3.3994727691	-0.132162
O	 0.0660675809	-0.3305114092	 2.3858064387	-0.210361
H	 0.5532022319	 1.9226943488	 1.1002677724	 0.140606
H	 0.1076678675	 2.2243100904	-0.6664552734	 0.1237
H	-0.8931444408	-0.0893213321	-0.8148043982	 0.110281
H	-2.0959907071	-2.142224784	 0.7541251396	 0.125593
H	-1.7411158143	-2.7177727976	 3.4397694458	 0.137792
