15
gdb 99453	2.30156	0.86623	0.64871	2.6743	79.67	-0.2734	-0.0704	0.203	1642.4993	0.107867	-420.538795	-420.528655	-420.527711	-420.575495	33.793	
C	-0.1864197289	 1.3636635411	-0.1505619103	-0.237352
O	 0.1578328572	 0.00639102	 0.06397043	-0.222816
C	 0.7128945742	-0.6181514805	-1.0798451644	-0.24104
C	 1.2843149516	-1.9059903847	-0.6816969675	 0.308775
C	 1.7697767157	-2.9588015007	-0.3739131334	-0.39095
C	-0.2718738755	-0.8050409364	-2.161129813	 0.166741
C	-1.0737343561	-0.9413981854	-3.053470632	-0.007001
C	-2.0597970001	-1.1030437381	-4.0935619416	 0.021202
O	-1.8192089679	-1.5207421925	-5.2019336579	-0.222245
H	 0.6905677841	 1.9578768832	-0.4488318717	 0.113209
H	-0.9636396443	 1.4722794036	-0.9188550463	 0.121535
H	-0.5670864356	 1.7406885777	 0.8001216536	 0.140999
H	 1.5256117074	 0.0125951135	-1.4855710813	 0.133814
H	 2.1945427673	-3.8924030249	-0.0969039421	 0.209477
H	-3.084946849	-0.8069577758	-3.792753932	 0.10565
