22
gdb 65092	2.95676	1.37174	1.13179	1.3276	85.97	-0.2375	0.0821	0.3196	1181.5161	0.194836	-367.163334	-367.154683	-367.153739	-367.196668	34.353	
C	-0.0188970604	 1.5128237898	 0.1619207638	-0.466343
C	 0.0231007883	 0.0069650541	-0.0182251832	 0.259319
C	 1.1659196097	-0.5674594956	-0.8255094794	-0.309855
C	 1.1363978054	-0.757401387	 0.6705715857	-0.301035
C	-1.3134070871	-0.658373107	-0.0993367315	 0.320818
C	-1.5917496539	-2.1445789953	-0.414449885	-0.313842
C	-2.9183582637	-1.7179665009	-1.1269313419	-0.237432
C	-2.6087209582	-0.2611308539	-0.7683873358	-0.095536
N	-2.4269766605	-0.1056660414	 0.6722473265	-0.359513
H	 0.9941773758	 1.9197581503	 0.2368583776	 0.103366
H	-0.5109940051	 1.9977047461	-0.6890775304	 0.112119
H	-0.5740178679	 1.7825580295	 1.0634146473	 0.136983
H	 0.9886455991	-1.433400079	-1.4533014439	 0.107225
H	 1.881673986	 0.1346691363	-1.2397537894	 0.109069
H	 1.8365337488	-0.1955160732	 1.2795641291	 0.109961
H	 0.9183915553	-1.7506969517	 1.0487487689	 0.108864
H	-0.8832388833	-2.5978230249	-1.1107800086	 0.110356
H	-1.6811566382	-2.7962545432	 0.4617259306	 0.094235
H	-2.8908741445	-1.9178679472	-2.200839804	 0.106753
H	-3.8552077651	-2.1162528359	-0.7216804465	 0.095841
H	-2.8696371841	 0.6196086981	-1.344983549	 0.09098
H	-2.9303982063	-0.8089068182	 1.2115953291	 0.217667
