10
gdb 130729	3.82398	1.31071	0.97613	3.88	63.1	-0.2945	-0.1434	0.151	1056.8378	0.055236	-463.779651	-463.772855	-463.771911	-463.81149	23.908	
O	-0.045383675	-0.0705553748	 0.0041237964	-0.328643
C	 0.0267792698	 1.1265089984	 0.0085907989	 0.472824
N	-1.1451301247	 1.9266811277	 0.0291191413	-0.233902
N	-1.2127874437	 3.2487498519	 0.0364483205	-0.007722
N	-0.1215164046	 3.9118518993	 0.024085273	-0.222473
C	 1.0553533583	 3.1691906514	 0.003315367	 0.289782
N	 1.195869855	 1.882173792	-0.0044765858	-0.311551
C	 2.2469816001	 3.9867495361	-0.0084350873	 0.32511
N	 3.1980635227	 4.6423080473	-0.0178312585	-0.290476
H	-2.0434006379	 1.4564797107	 0.0396523045	 0.307051
