17
gdb 29923	2.03754	1.92222	0.99654	1.4828	88.52	-0.1751	0.0112	0.1863	1156.3823	0.135751	-380.875834	-380.866553	-380.865609	-380.909917	34.262	
C	 0.0063081953	 1.4309111975	 0.049575	-0.337288
N	-0.0338783611	-0.0136246651	 0.0054855139	-0.067424
C	-0.0348262017	-0.7856586525	-1.1125542104	-0.097935
C	-0.0213306413	-2.1183617611	-0.7488485861	-0.223268
C	-0.0056227799	-2.1641293403	 0.666729479	 0.15512
N	-0.064488458	-3.3033032795	 1.4704378536	-0.620216
C	-0.0046794789	-0.8454562512	 1.1259601208	 0.128682
C	 0.0167378215	-0.3683436697	 2.4435013687	 0.23008
C	 0.0490872905	 0.0165840705	 3.5890292184	-0.472661
H	 0.9802567206	 1.794914389	 0.3955261213	 0.140523
H	-0.1801838447	 1.8202501128	-0.9529676933	 0.135095
H	-0.7622791922	 1.8140243546	 0.7266715504	 0.148598
H	-0.0469394607	-0.3310268266	-2.0909900362	 0.117391
H	-0.0407806214	-2.9621044422	-1.4212458114	 0.092442
H	 0.4499913358	-4.0883932682	 1.0949982641	 0.242735
H	 0.216708136	-3.1221601689	 2.425698224	 0.246555
H	 0.0540739601	 0.3560950511	 4.5945233333	 0.181571
