17
gdb 56442	2.38421	1.35761	1.01609	2.8673	75.71	-0.2421	-0.0057	0.2365	1200.7683	0.134392	-417.954671	-417.945126	-417.944182	-417.989506	34.084	
N	-0.1810795574	 1.507138965	-0.0619942462	-0.491309
C	 0.0230270882	 0.0603897726	-0.052115914	-0.242704
C	-1.2575720553	-0.6411214287	 0.079808348	 0.368585
C	-2.3073816625	-1.2229543491	 0.1483219929	-0.475195
C	 0.7285987665	-0.4632356414	-1.3366520559	 0.346964
O	 0.6734907694	 0.1457843933	-2.3805729486	-0.33949
N	 1.492924858	-1.6013319588	-1.1578016186	-0.074376
C	 1.0404412349	-2.916397926	-0.7384370166	-0.234507
C	 1.596620442	-2.6763031442	-2.1137176164	-0.221503
H	 0.7314389304	 1.9564036019	-0.0450876333	 0.234375
H	-0.5808496329	 1.751631566	-0.9659877725	 0.245902
H	 0.6530398658	-0.1972412337	 0.8076035373	 0.125683
H	-3.2431587332	-1.7191888292	 0.2274466639	 0.204837
H	 1.6518349486	-3.4085450051	 0.012890507	 0.129843
H	-0.0295639825	-3.0718282015	-0.6431930547	 0.14977
H	 0.9037744405	-2.6584560677	-2.9504424133	 0.142376
H	 2.6038616195	-3.0059832832	-2.350772049	 0.130749
