21
gdb 91597	2.07953	1.97667	1.40683	2.971	80.83	-0.2297	-0.0085	0.2212	1032.1652	0.185083	-387.140366	-387.132613	-387.131669	-387.172374	31.525	
C	-0.2306000866	 1.5509997704	 0.0041098926	-0.415094
C	 0.0277345259	 0.0447613558	 0.0009628537	 0.037974
C	 0.8798810196	-0.4815851028	-1.2035453206	-0.229838
C	 1.9935477231	-1.316553336	-0.5281259491	-0.014417
C	 1.2582448933	-1.8879445982	 0.7092986319	-0.242137
C	 0.8065224235	-0.509039792	 1.2393130264	-0.122071
C	 2.13960336	 0.2360526506	 1.2927743903	 0.434868
O	 2.468024709	 1.1031886891	 2.0607554616	-0.341541
C	 2.9843895572	-0.343155234	 0.1415433392	-0.326763
H	 0.7022304308	 2.1239757817	 0.0089867647	 0.128322
H	-0.8002573558	 1.8465742556	-0.8831337523	 0.112965
H	-0.8044108568	 1.8522307312	 0.8866748817	 0.120232
H	-0.9409394253	-0.468040834	-0.0031229424	 0.078446
H	 0.2748217716	-1.0963859916	-1.8759772431	 0.097829
H	 1.2937566215	 0.3385076389	-1.7995566721	 0.09781
H	 2.4651743413	-2.0500637594	-1.1838235295	 0.065263
H	 0.4161555575	-2.5372675469	 0.4518556228	 0.099294
H	 1.9205158585	-2.4253081134	 1.3954053927	 0.099965
H	 0.249342663	-0.4639823132	 2.1747585043	 0.074548
H	 3.8494538881	-0.8672040124	 0.5654534414	 0.123779
H	 3.3655827607	 0.4499021206	-0.5082271343	 0.120566
