19
gdb 36604	5.20861	0.79885	0.78551	4.1394	81.43	-0.2438	0.0235	0.2673	1477.9032	0.16066	-382.022216	-382.013963	-382.013018	-382.056009	31.193	
N	 0.0713369651	-1.1478251723	-0.0613882537	-0.297613
C	 0.0321070544	 0.0057547327	-0.0215893867	 0.249595
C	-0.0203033607	 1.4677616852	 0.0600989353	-0.280957
N	 1.3174189474	 2.0459943014	-0.0191135352	-0.423713
C	 1.3335658363	 3.4738101075	 0.0250050343	 0.406826
C	 0.7622284389	 4.4810205833	 1.0983574577	-0.272259
C	 1.4323743953	 5.344210318	-0.0038587965	-0.033674
C	 2.6202052973	 4.3383331035	 0.0057565464	-0.274846
C	 0.7556520938	 4.4273859736	-1.062959194	-0.247196
H	-0.6116954327	 1.8394165166	-0.7849231296	 0.162517
H	-0.5760696609	 1.7373869594	 0.9751003085	 0.137934
H	 1.9104248006	 1.6591205416	 0.7082771335	 0.232157
H	-0.3254014051	 4.5574385019	 1.1839007537	 0.089712
H	 1.2445404265	 4.4768769968	 2.0801268606	 0.090004
H	 1.495951533	 6.429860308	-0.028540876	 0.083014
H	 3.2375941597	 4.317568327	 0.908761682	 0.090201
H	 3.2275129024	 4.2808411956	-0.9011183021	 0.099881
H	 1.2278792485	 4.377933913	-2.047520967	 0.099406
H	-0.3333443	 4.4963732772	-1.1402775112	 0.089013
