17
gdb 64935	4.43284	0.6957	0.6532	1.6505	80.54	-0.2558	0.0118	0.2677	1718.4272	0.133192	-421.747731	-421.738473	-421.737529	-421.783628	32.634	
C	-0.394144493	 1.0681698788	-1.131299598	-0.466182
C	-0.0621472024	-0.0213402272	-0.1326734083	 0.213379
C	 1.3232267296	-0.5205481664	-0.0034629753	-0.209282
O	 0.7914033946	 0.3844420586	 0.9573856794	-0.256343
C	-1.1551511379	-0.8941751011	 0.2288210572	 0.071372
C	-2.0989896496	-1.5899824814	 0.5073591775	 0.1341
C	-3.2012954053	-2.4519355822	 0.8355449616	-0.129651
C	-4.0473251511	-2.2066244463	 2.0215524492	-0.157785
O	-4.5270174832	-1.9083751704	 0.718081756	-0.212393
H	 0.4910803824	 1.6783254569	-1.3262971846	 0.129336
H	-0.7448570126	 0.6333584669	-2.071894644	 0.134441
H	-1.18537395	 1.7136401625	-0.7395702247	 0.141197
H	 1.4967043762	-1.5351739507	 0.3503958306	 0.120747
H	 2.0900731998	-0.1146183246	-0.662889928	 0.116746
H	-3.1169466901	-3.4785358256	 0.4805192213	 0.11914
H	-4.5176188583	-3.0543920655	 2.5182053389	 0.121536
H	-3.829934269	-1.3468113623	 2.651889141	 0.129642
