19
gdb 97110	2.86063	1.29148	1.04291	0.9923	78.72	-0.2317	0.0196	0.2513	1217.512	0.159835	-419.176479	-419.167614	-419.16667	-419.210652	31.959	
C	-0.0968531845	 1.4403991379	 0.1329759664	-0.340306
N	-0.1107762246	-0.0067397356	 0.3009955161	-0.334078
C	-1.1195423461	-0.6568847514	-0.0516612008	 0.401908
O	-2.3230766933	-0.2465341559	-0.6040919506	-0.278613
C	-2.8659730633	-1.6033646655	-0.5252638906	-0.13627
C	-1.5145726527	-2.1241152845	 0.0057722048	 0.190642
C	-0.6334180026	-3.1778433934	-0.709965931	-0.299246
C	-0.2602293048	-3.6726340073	 0.7086220504	-0.153337
N	-1.4040639495	-2.8918136158	 1.2505205048	-0.353312
H	 0.6663167325	 1.7104624918	-0.6059073104	 0.128348
H	-1.0569503682	 1.8611265709	-0.1875420304	 0.128082
H	 0.1968136481	 1.9069835897	 1.0792853398	 0.125477
H	-3.6895820166	-1.6598333494	 0.1912090114	 0.122988
H	-3.1811182397	-1.9593335148	-1.5096873853	 0.116339
H	-1.2232287471	-3.8971590894	-1.2820704741	 0.113662
H	 0.1741278664	-2.7864806597	-1.3280083892	 0.123525
H	-0.326320333	-4.7478506352	 0.9012288774	 0.103134
H	 0.7220269787	-3.3093236939	 1.0307432532	 0.114598
H	-1.1962184898	-2.3314964586	 2.0710612682	 0.226457
