17
gdb 72191	3.09337	2.02486	1.61227	1.4419	69.73	-0.2318	0.072	0.3038	852.9164	0.137591	-421.773857	-421.76757	-421.766625	-421.804	27.247	
O	-0.1421932309	 1.3558171978	 0.0737938245	-0.484349
C	 0.0309226293	-0.0237692893	 0.0193780338	 0.411314
C	 1.1304139586	-0.7412381129	 0.8291946406	-0.310577
C	 1.0855175899	-1.8533068783	-0.2566502677	 0.070081
O	 0.0952519369	-2.8173318331	 0.067481575	-0.256623
C	-1.1346015007	-2.2223615518	-0.2579008939	 0.094358
C	-1.0531583389	-1.3039139962	-1.4290110522	-0.12618
C	-1.3370500612	-0.73962691	-0.0193619209	-0.153722
C	 0.4050710407	-0.8375057569	-1.2718155724	-0.157057
H	 0.7249340495	 1.7702428506	 0.003562641	 0.277041
H	 2.0725330962	-0.1814137888	 0.7766378185	 0.085464
H	 0.9349188654	-1.0473044238	 1.85963777	 0.106202
H	 2.0091635433	-2.3682718774	-0.5204490142	 0.081727
H	-1.9740520639	-2.8898860679	-0.1085511526	 0.108558
H	-1.6573926598	-1.3443053582	-2.3252075333	 0.091053
H	-2.2474079397	-0.3304741477	 0.4030249586	 0.091714
H	 0.9832325553	-0.4330335161	-2.0983884049	 0.070996
