18
gdb 67407	2.82485	1.51448	1.27978	1.1091	84.19	-0.2225	0.0355	0.2581	1055.9247	0.147067	-364.711506	-364.703419	-364.702475	-364.743758	31.811	
C	-0.1446637031	 1.4957545328	-0.014435194	-0.52557
C	-0.045221986	 0.0131359831	-0.0308094538	 0.323724
C	-0.0060120199	-1.0577086388	-1.0745585275	-0.178668
C	 1.2678556196	-1.5902991797	-0.4502145248	-0.185589
N	 0.9118386052	-0.8573830629	 0.8299099403	-0.209979
C	-0.3041913833	-1.6302253881	 1.2832280194	-0.241492
C	-1.067703046	-1.1082472494	 0.0705073125	 0.179515
C	-2.463728131	-1.0671193677	-0.1810283683	 0.095639
C	-3.6534387723	-1.0340137177	-0.3665113201	-0.376835
H	 0.7873140586	 1.9605944564	-0.3536749232	 0.131786
H	-0.9530437575	 1.8227959232	-0.6761113394	 0.137236
H	-0.3598528662	 1.865059824	 0.9938220606	 0.134779
H	-0.3260727144	-1.0045057661	-2.1077553097	 0.100512
H	 1.4104520119	-2.669829236	-0.3320169346	 0.102153
H	 2.1663050727	-1.1451038406	-0.8860641505	 0.113159
H	-0.146251892	-2.7082142039	 1.3977964178	 0.101914
H	-0.683213303	-1.2097765263	 2.217553731	 0.116774
H	-4.7012734033	-1.0077218124	-0.5344663857	 0.180942
