14
gdb 132374	2.00914	1.86633	0.96842	4.9141	68.98	-0.2265	0.005	0.2315	1111.7286	0.103022	-474.239378	-474.231804	-474.23086	-474.271125	29.604	
N	 0.029267138	 1.3596278616	 0.1546344783	-0.569205
C	-0.0178499599	-0.0028953082	 0.0517448872	 0.413414
C	-1.222945348	-0.7071505333	 0.0032524446	-0.282488
C	-1.1295087803	-2.0994300185	-0.0557461536	 0.413386
N	-2.2315427233	-2.9029424175	-0.1500262515	-0.569121
N	 0.0586999245	-2.7363390494	-0.062019094	-0.39596
C	 1.1054794768	-1.9408081371	-0.015590272	 0.333888
F	 2.2753955368	-2.560656243	-0.0250623361	-0.06683
N	 1.176419081	-0.6282554399	 0.038751206	-0.395958
H	 0.9279106607	 1.7755395639	-0.0323735578	 0.263967
H	-0.7773047319	 1.8931547373	-0.1222654133	 0.2564
H	-2.1800796222	-0.2000298055	 0.0110028555	 0.078154
H	-3.1222245651	-2.5369934621	 0.1408103853	 0.256392
H	-2.0685858872	-3.8811707082	 0.0287605114	 0.263963
