21
gdb 109396	2.93184	1.1017	0.86371	1.2461	81.03	-0.236	0.0132	0.2492	1373.891	0.18369	-424.221102	-424.212178	-424.211234	-424.255016	33.911	
O	 0.1966299582	 1.3550808206	 0.3446658064	-0.405711
C	 0.0355358642	-0.0418462881	 0.2178398983	-0.144751
C	-1.3887639929	-0.5162295141	 0.0135287629	 0.247783
C	-2.4224327345	 0.3259496534	 0.0478551606	-0.151587
C	-3.8783863753	-0.0309716945	-0.1391065994	-0.259889
C	-4.1952103212	-0.9127837205	-1.3582305752	-0.189765
C	-3.6258435166	-2.3308040382	-1.2885951744	-0.064064
O	-2.2157202541	-2.3993033437	-1.3789214054	-0.232523
C	-1.5231780891	-2.0133848614	-0.2062511233	-0.181133
H	-0.0934100507	 1.7535530378	-0.4829835973	 0.283529
H	 0.6600963106	-0.4441373314	-0.5993248509	 0.099196
H	 0.441261759	-0.4725527957	 1.1440377597	 0.122191
H	-2.2052832513	 1.3699193098	 0.2595536618	 0.086769
H	-4.2508149073	-0.5353737029	 0.7665806961	 0.107955
H	-4.4596815145	 0.893872772	-0.2167136637	 0.101245
H	-5.2849934683	-0.9980702794	-1.4600402501	 0.091797
H	-3.8233078851	-0.4310103806	-2.2697710454	 0.104808
H	-3.9675055716	-2.825110004	-0.361832142	 0.080859
H	-4.0015692556	-2.9195015955	-2.1322437348	 0.103332
H	-0.5262277781	-2.4599586349	-0.2975219912	 0.102989
H	-1.9998930557	-2.4737477288	 0.6771858372	 0.096974
