16
gdb 45834	2.3158	1.7621	1.07442	3.3493	72.6	-0.2644	-0.0288	0.2357	1079.8874	0.124997	-437.925886	-437.918093	-437.917149	-437.958999	29.176	
N	-0.1010051911	 1.3230002871	 0.3796361797	-0.468894
C	-0.0827518374	 0.1368174181	-0.0475163359	 0.405836
C	-1.3181782177	-0.7272204704	-0.0091293181	-0.333168
C	-1.6853361888	-1.2691358682	-1.3704432616	-0.064634
C	-0.8997821337	-2.1482514945	-1.9832724695	-0.066733
C	 0.3699272424	-2.6413123556	-1.3337861391	-0.384812
C	 1.4378427451	-1.575647386	-1.1335934729	 0.411336
O	 2.5810233684	-1.7301980667	-1.4476879794	-0.285073
O	 1.1109483325	-0.3667787371	-0.5548323752	-0.246593
H	 0.8210778546	 1.752600242	 0.2796342358	 0.234569
H	-1.1475367739	-1.5568366967	 0.6924221723	 0.13154
H	-2.1075119217	-0.1051941827	 0.4106084463	 0.147022
H	-2.5922285929	-0.9006736097	-1.8379322698	 0.114744
H	-1.1405111784	-2.5298906405	-2.9698604471	 0.114645
H	 0.1474271565	-3.0676913287	-0.3444419978	 0.144392
H	 0.8518696861	-3.4258237303	-1.9166199177	 0.145823
