23
gdb 92554	2.53418	1.62009	1.5232	0.2228	86.95	-0.2557	0.076	0.3317	1051.986	0.209879	-351.171099	-351.163443	-351.162499	-351.203052	31.836	
C	-0.217385112	 1.5481011959	 0.0370726847	-0.404716
C	-0.0187165056	 0.0277017976	 0.0020561413	 0.030277
C	 0.5650058361	-0.5326198529	-1.3307940958	-0.238204
C	 1.8117220589	-1.3997723775	-0.9841727507	-0.025488
C	 3.1209620298	-0.6064058096	-1.1816467849	-0.195032
C	 3.1630414349	 0.3598338132	 0.027123001	-0.240751
C	 2.3886068677	-0.3796906448	 1.122805934	-0.03672
C	 0.8735288049	-0.5470951639	 1.0980795099	-0.04835
C	 1.7579874684	-1.6286060946	 0.5432097567	-0.089226
H	 0.7201093229	 2.088431192	-0.1243342529	 0.119874
H	-0.9232602052	 1.8680383954	-0.7373033974	 0.108719
H	-0.6202782796	 1.8679949155	 1.0041422853	 0.109293
H	-1.0082650449	-0.4235254321	 0.1524369978	 0.068086
H	-0.1888128788	-1.1378925867	-1.8430455061	 0.093988
H	 0.8311884264	 0.2755715295	-2.0209573953	 0.090901
H	 1.8159581914	-2.3337754667	-1.550976744	 0.061175
H	 3.9739358319	-1.2925763056	-1.125142086	 0.09103
H	 3.1726634358	-0.0978034017	-2.1503286956	 0.086565
H	 4.1892937008	 0.5599187382	 0.3496167623	 0.09516
H	 2.7221641885	 1.3308255054	-0.2184291517	 0.101719
H	 2.8303077626	-0.4135906769	 2.1133510059	 0.075671
H	 0.418410446	-0.6766584708	 2.0764374151	 0.072267
H	 1.8605494891	-2.6161108189	 0.9769141264	 0.073763
