16
gdb 36559	5.46716	0.50459	0.4713	3.673	84.66	-0.2675	0.0134	0.2809	2191.659	0.121695	-363.564526	-363.554466	-363.553522	-363.603254	34.161	
C	-0.0229299986	-1.1599912733	 0.3192969612	-0.433797
C	 0.115046307	 0.0297136406	 0.4181924564	 0.291883
C	 0.3046570692	 1.471331232	 0.5028269874	-0.341078
C	 1.1664388883	 2.0148534272	-0.6684959594	-0.348919
C	 1.3576082109	 3.4573472417	-0.5911724176	 0.0549
C	 1.4969657409	 4.6481245765	-0.4979476492	 0.118051
C	 1.6775818707	 6.0947468544	-0.4026549694	-0.473397
C	 2.0974519738	 6.5352867822	 0.934864479	 0.279158
N	 2.426276277	 6.8931748137	 1.98209463	-0.29982
H	-0.1541987989	-2.2113095424	 0.2483321602	 0.199661
H	-0.6660516237	 1.9799848937	 0.4984636115	 0.144121
H	 0.7858614524	 1.7335683786	 1.4517811324	 0.149602
H	 2.1373150252	 1.5067313423	-0.6630519365	 0.148663
H	 0.6860002359	 1.7512491429	-1.617574242	 0.146644
H	 2.4290229887	 6.4369881707	-1.1260187461	 0.18288
H	 0.747734201	 6.6192796494	-0.6580112478	 0.181447
