21
gdb 23368	1.94946	1.33372	0.97982	1.7574	82.32	-0.2303	0.0035	0.2339	1321.2329	0.181281	-420.344463	-420.334264	-420.33332	-420.380257	37.271	
C	 0.4201597271	-0.7426387737	-1.3617038488	-0.398895
C	-0.0348298272	-0.0309423506	-0.0776983094	-0.067548
C	 0.3641872176	 1.4585359069	-0.0829920562	-0.393075
C	-1.5268370611	-0.1664888528	 0.1595898794	 0.363502
N	-2.0773477945	-0.3820348002	 1.2942439869	-0.215029
O	-1.1558393348	-0.5299035493	 2.3417189787	-0.398495
C	-2.467329419	-0.0208557935	-0.9909633693	-0.066387
C	-3.2926746756	-1.1923461042	-1.4181297085	-0.225999
N	-3.9148313793	-0.0346190076	-0.7709638734	-0.318181
H	 1.5090588525	-0.6805593605	-1.4545261634	 0.11609
H	 0.1429090556	-1.8009685249	-1.353681345	 0.121195
H	-0.012173804	-0.289056385	-2.2591366473	 0.119365
H	 0.4622407349	-0.5048216264	 0.7719790185	 0.112489
H	-0.1268511339	 2.0024761916	-0.897384179	 0.119259
H	 0.0917936748	 1.9393789922	 0.8602864908	 0.132241
H	 1.4457117753	 1.559712703	-0.2198034466	 0.115931
H	-1.7330061644	-0.6866047535	 3.0961827923	 0.306622
H	-2.1390349282	 0.6763731106	-1.7580080008	 0.098671
H	-3.5379875846	-1.3273286339	-2.4683180413	 0.117958
H	-3.176072973	-2.10903797	-0.8460063879	 0.117224
H	-4.0710847982	-0.2411503984	 0.2144393203	 0.243061
