18
gdb 105317	2.39364	1.55535	1.16822	4.0504	75.64	-0.2635	0.0088	0.2723	1111.1022	0.146493	-401.919165	-401.910572	-401.909628	-401.952372	32.326	
C	 0.0390726923	 1.4929453296	-0.2476667082	-0.395526
C	 0.0206500443	 0.028669114	 0.2020731908	-0.239111
C	-1.3618464423	-0.6108738768	 0.0927938971	 0.246774
O	-1.9101672964	-0.5859536718	-1.2617969685	-0.316972
C	-2.1866045616	-1.9940166398	-1.1977356401	 0.111953
C	-0.9167444601	-2.7679303015	-1.0942181326	-0.319306
C	-1.5210014667	-2.142513759	 0.1478688269	-0.166271
C	-2.3175977577	 0.0413266587	 1.0073768791	 0.290024
N	-3.0513074494	 0.5428113374	 1.7459512035	-0.342799
H	 1.052280784	 1.8986243974	-0.1837546719	 0.119499
H	-0.3017605608	 1.5803155127	-1.2827654965	 0.141413
H	-0.6121973503	 2.1098451338	 0.37870941	 0.142025
H	 0.7102061323	-0.5628473112	-0.4071497115	 0.110514
H	 0.352013884	-0.0606971167	 1.2435700862	 0.119197
H	-3.1319181144	-2.3407861159	-1.5949924673	 0.120803
H	-1.0227387722	-3.8480318582	-1.1261167012	 0.127836
H	-0.0098946814	-2.3818306499	-1.5482888129	 0.126372
H	-1.8090268034	-2.7021584625	 1.025904777	 0.123577
