21
gdb 78664	2.56701	1.53796	1.18256	1.1584	81.98	-0.2367	0.0772	0.3139	1138.4492	0.181753	-387.041921	-387.033212	-387.032268	-387.074489	34.683	
C	-0.1109477478	 1.4523995253	 0.0130341284	-0.404241
C	 0.0356224578	-0.0658525754	 0.0165092298	 0.011166
C	 0.8462498577	-0.6141439633	-1.1586352427	-0.142305
C	 2.1459711355	-0.5246558732	-0.3751089405	-0.134706
C	 1.2127451636	-0.5754872383	 0.9025520266	-0.086331
C	 1.2082854736	-2.13544901	 0.7804627648	-0.038856
C	-0.0099836076	-2.9697054544	 1.1582327209	-0.435673
C	 1.5887047956	-1.8815645856	-0.6788491627	 0.369227
O	 2.1281874563	-2.787398527	-1.5718364171	-0.467952
H	 0.8531070463	 1.9411636056	-0.1649046479	 0.11637
H	-0.8029655531	 1.7826855521	-0.7695106771	 0.109358
H	-0.5002912575	 1.8090074145	 0.9733451653	 0.108544
H	-0.9418692116	-0.5259168054	 0.2074792407	 0.055574
H	 0.7122009164	-0.4376080889	-2.2198026462	 0.078057
H	 3.1019659319	-0.0727818945	-0.5924688531	 0.09361
H	 1.4229162938	-0.1039278356	 1.8616014142	 0.063953
H	 2.0964069997	-2.5190516836	 1.2972937972	 0.073768
H	-0.9103708851	-2.6597089554	 0.6200787321	 0.115935
H	 0.1648678862	-4.026634004	 0.9273659038	 0.114468
H	-0.2197207647	-2.9006474199	 2.2315622632	 0.114889
H	 1.405303963	-3.240664003	-2.0191332996	 0.285145
