25
gdb 95998	2.28198	1.36622	0.99606	0.0869	91.64	-0.2652	0.0796	0.3448	1325.9722	0.230602	-352.363709	-352.354238	-352.353294	-352.39832	36.505	
C	-0.9979677008	 1.154867702	 0.4925488066	-0.409561
C	-0.2277599364	-0.1298449687	 0.1934806856	 0.044955
C	 0.6075264718	-0.0834385725	-1.1066741474	-0.207005
C	 1.7068548592	-1.1700995719	-0.9456754554	-0.204853
C	 1.5625105733	-1.7006104252	 0.505373838	-0.215308
C	 0.788328021	-0.6021314181	 1.267429483	-0.018062
C	 1.7077055187	 0.4954866897	 1.7767784122	 0.047826
C	 1.3570210987	 1.2962853046	 3.0059328185	-0.272893
C	 2.4824669842	 0.2925514245	 3.0554602008	-0.279112
H	-0.3225276252	 2.0076575992	 0.6120736665	 0.116714
H	-1.6910445384	 1.389883753	-0.3227771524	 0.106251
H	-1.5872336995	 1.0663961904	 1.4115918141	 0.106721
H	-0.9583577367	-0.9445816375	 0.0876506952	 0.063963
H	-0.01548441	-0.2416133043	-1.9920075338	 0.090846
H	 1.0597565803	 0.9085197205	-1.221734683	 0.0933
H	 1.5961149289	-1.976861708	-1.6755382494	 0.094676
H	 2.7003236265	-0.7417834292	-1.1089302492	 0.097451
H	 0.972824489	-2.6242533796	 0.5069968778	 0.089627
H	 2.5245583774	-1.9331525381	 0.9704270219	 0.092965
H	 0.2629687972	-1.0255290646	 2.1329892673	 0.052373
H	 2.236767145	 1.0438952928	 1.0007321415	 0.07838
H	 1.6042387447	 2.3521625978	 3.0290374598	 0.107261
H	 0.4371493921	 1.0476998698	 3.5254163016	 0.108775
H	 2.3146439274	-0.6281360028	 3.6057416385	 0.108119
H	 3.5008219218	 0.6612015063	 3.1121084017	 0.106593
