22
gdb 120169	3.04771	1.05117	0.91052	1.5192	83.96	-0.226	0.0731	0.2991	1397.0572	0.193574	-404.257497	-404.248029	-404.247085	-404.292626	34.914	
C	 0.7528399356	 1.2814086375	 0.009735743	-0.222799
O	 0.8825381748	-0.0990933667	-0.2299255821	-0.235755
C	-0.0692004236	-0.5898600404	-1.1550509248	-0.122601
C	 0.1437816692	-2.0893889675	-1.2370214716	 0.038809
N	-0.7095420881	-2.9006645846	-2.2337207444	-0.173101
C	 0.2963064605	-2.4341368522	-3.3038946579	-0.217588
C	 1.2360974753	-2.7612245427	-2.1163941543	 0.302847
C	 2.7357025028	-2.6452633828	-2.0138431673	-0.515442
C	 0.3277200184	-4.0090947243	-1.9730628621	-0.201292
H	 0.8980161448	 1.8729001615	-0.9085125804	 0.102902
H	-0.2364410727	 1.5326356152	 0.4241077359	 0.105446
H	 1.5211530873	 1.5617593509	 0.7345392336	 0.126969
H	-1.0961042744	-0.3909453869	-0.8033315014	 0.097736
H	 0.0445732545	-0.0774628461	-2.1216851141	 0.087627
H	 0.0616454069	-2.490430098	-0.2202242699	 0.073932
H	 0.3328457072	-3.0963906167	-4.1740072062	 0.096115
H	 0.1714322841	-1.3981397182	-3.6221748751	 0.098564
H	 3.0533699597	-1.6024853374	-2.114150676	 0.127218
H	 3.0882684325	-3.0065229384	-1.0419014452	 0.123143
H	 3.2332231036	-3.2314942612	-2.7942482582	 0.115147
H	 0.2351961989	-4.4704217175	-0.9852038827	 0.097003
H	 0.3597541929	-4.7630043435	-2.7648158287	 0.095119
