17
gdb 126007	3.02092	1.62137	1.10593	5.0609	74.65	-0.2033	0.0142	0.2175	1068.2289	0.139399	-414.176714	-414.169226	-414.168282	-414.208692	28.835	
C	-0.1908446959	 1.5740714077	-0.023666102	-0.394943
C	 0.0416931958	 0.063039639	 0.0498154651	-0.112698
C	 0.889490007	-0.4924426505	-1.1552837791	-0.18135
N	 1.7584883515	-1.595301866	-0.6182419923	-0.415803
C	 1.81197381	-1.325879811	 0.7424243105	 0.388827
C	 0.8808693514	-0.432004629	 1.1949553989	 0.281427
N	 0.9561985507	-0.3520177229	 2.5438293811	-0.290502
N	 1.9053185459	-1.1425444113	 2.9604270223	-0.145827
N	 2.4370243685	-1.769794295	 1.8432654008	-0.334342
H	 0.7606853123	 2.1154615742	-0.0337163248	 0.11783
H	-0.7515217422	 1.8448289428	-0.9248054287	 0.111502
H	-0.7613295452	 1.9150973295	 0.8446531557	 0.137626
H	-0.9356701371	-0.4390763478	 0.0564768682	 0.096885
H	 0.2648730435	-0.8764537853	-1.9649435242	 0.118762
H	 1.514462126	 0.3167656072	-1.5561760377	 0.107815
H	 2.646104025	-1.6792784883	-1.0982702393	 0.241072
H	 3.192864563	-2.4222988731	 1.9648387754	 0.273719
