17
gdb 69246	2.86553	1.56864	1.17107	3.2509	75.3	-0.2164	-0.0083	0.2082	1059.3544	0.137831	-418.034598	-418.02688	-418.025936	-418.066516	30.382	
C	-0.0215582402	 1.5214829151	 0.0334716578	-0.483237
C	 0.0323199245	 0.0109802326	-0.0199035854	 0.283881
N	-0.8006428357	-0.7682220663	 0.9268333883	-0.357731
C	 0.6690229936	-0.7473722061	 1.1137830682	-0.238638
C	 1.3947321465	-2.0324140817	 0.8575098579	 0.47872
O	 2.0746066424	-2.5941306396	 1.6932158181	-0.373098
N	 1.2645872385	-2.5223252411	-0.4282647001	-0.365443
C	 0.7153592374	-1.8182024386	-1.4973097365	 0.015212
C	 0.157681351	-0.6116793452	-1.3612000289	-0.157355
H	 0.8580597605	 1.9634903147	-0.4454605071	 0.133913
H	-0.9097540101	 1.894453239	-0.4893285186	 0.129164
H	-0.060870807	 1.8806295688	 1.0670455556	 0.11787
H	-1.2101418606	-0.1369676085	 1.6131413633	 0.234198
H	 1.0731171848	-0.2012859968	 1.9606655326	 0.105845
H	 1.7614248068	-3.3828869026	-0.602357974	 0.25629
H	 0.7879191147	-2.3246854503	-2.4522616879	 0.123506
H	-0.2335907273	-0.0929806232	-2.2275317134	 0.096902
