22
gdb 113003	2.77714	0.99661	0.78829	4.4259	85.02	-0.237	0.0276	0.2647	1509.0641	0.193223	-404.371161	-404.360994	-404.360049	-404.407155	36.278	
C	-0.0070825421	 1.7417830797	-0.1830570147	-0.386018
C	-0.2831599204	 0.234485924	-0.210463335	-0.193228
C	 0.7165762435	-0.5208685291	-1.0799477501	-0.005277
C	 2.1578677557	-0.6804739246	-0.5053481752	-0.18414
N	 1.986577376	-2.1304966824	-0.5712945702	-0.041657
C	 2.9272148249	-3.0981818023	-0.5120934814	 0.124687
O	 4.0871185768	-2.9155319666	-0.1992433784	-0.334077
C	 0.6299681915	-2.0912672082	-1.144271038	 0.013698
C	-0.4416568361	-2.8155533246	-0.3388438606	-0.398955
H	 0.9929823665	 1.9576105561	 0.2082694675	 0.124133
H	-0.0692289903	 2.1731734727	-1.1881643585	 0.11771
H	-0.7299531937	 2.2642160558	 0.4503943621	 0.117713
H	-0.2581645512	-0.1589359583	 0.8129267447	 0.103557
H	-1.2992215031	 0.0567140768	-0.5845392191	 0.100283
H	 0.7224608835	-0.0863062805	-2.0835059922	 0.080112
H	 2.9753187944	-0.3120400711	-1.1329095135	 0.123078
H	 2.3017968688	-0.301045065	 0.5127963846	 0.116296
H	 2.5160682144	-4.0953173824	-0.7754289119	 0.062897
H	 0.6112701411	-2.4569540072	-2.1793037031	 0.086577
H	-0.4405846648	-2.5016486424	 0.7080539497	 0.125997
H	-1.4337409007	-2.6236798301	-0.7606624136	 0.122496
H	-0.2738756546	-3.8968941204	-0.3662146631	 0.124119
