19
gdb 84554	2.77172	1.80149	1.36855	2.0077	80.18	-0.2307	0.0038	0.2345	991.9365	0.159765	-385.79807	-385.79081	-385.789866	-385.829299	30.043	
C	 0.062308682	 1.5605377902	 0.0898010775	-0.409694
C	 0.0241440767	 0.0325891101	 0.0375816729	-0.193577
C	 0.7804938321	-0.5890671602	-1.1627685424	-0.032507
C	 1.4999644402	-1.687741497	-0.8723848057	-0.176539
C	 1.2147354801	-2.0716856859	 0.5595231889	-0.040973
C	 1.9128177019	-1.8230765506	 1.9441699769	-0.01359
C	 2.2684758144	-0.3958320072	 1.5340861784	-0.258449
C	 0.8008737879	-0.7079206889	 1.1066186878	 0.459323
O	 0.5863217892	-1.3125581474	 2.4492897121	-0.38564
H	 1.0932435907	 1.9257436306	 0.1355155915	 0.123862
H	-0.4094753771	 1.9952307411	-0.7973795253	 0.115374
H	-0.4701607182	 1.9343308654	 0.9694392282	 0.127791
H	-1.0214730022	-0.3087746597	 0.0182714659	 0.099285
H	 0.7072140579	-0.1414662193	-2.1495829822	 0.097992
H	 2.0703548953	-2.2593675933	-1.5961573796	 0.097965
H	 0.4417214561	-2.8421117478	 0.6475971589	 0.092461
H	 2.4275908388	-2.518624517	 2.6080640247	 0.091565
H	 2.3632972326	 0.3078424367	 2.3613185112	 0.103244
H	 3.0139103416	-0.2502254597	 0.7510952403	 0.102105
