25
gdb 58572	2.26475	1.39534	1.19409	0.1207	93.3	-0.2346	0.0275	0.2621	1242.0761	0.2287	-352.378417	-352.368402	-352.367458	-352.412873	39.025	
C	 0.1319734985	 1.5091988951	 0.0673785363	-0.404883
C	-0.0524224091	-0.0178941322	 0.0759779065	 0.01528
C	 0.6194787229	-0.5993856089	 1.3300777123	-0.400938
C	-1.5441543719	-0.4692187985	-0.0909042988	 0.289187
C	-2.1246166549	 0.0975916368	-1.4021937631	-0.445587
C	-1.6791579239	-2.0318512116	-0.0718265441	-0.266981
C	-2.299972006	-2.4218418828	 1.2956577651	-0.25582
C	-2.8080210746	-1.105351778	 1.8299204995	-0.075134
C	-2.4026979586	-0.0711549084	 1.0971153169	-0.088034
H	 1.1920511963	 1.7616049113	 0.17524396	 0.108785
H	-0.2196521283	 1.9701466057	-0.8587978684	 0.112463
H	-0.3989523435	 1.9806601488	 0.9021881337	 0.113329
H	 0.4774985076	-0.4174888751	-0.8013707756	 0.06663
H	 0.1333513446	-0.236215232	 2.2412213455	 0.117597
H	 0.5914771768	-1.6921761624	 1.3503200777	 0.110407
H	 1.6716043429	-0.2987844941	 1.3701699374	 0.105805
H	-1.5140544429	-0.19878488	-2.2635497372	 0.107568
H	-3.1392811252	-0.2797732113	-1.5629345721	 0.110685
H	-2.1807876081	 1.1898104643	-1.3924986519	 0.11255
H	-2.3517128211	-2.341546377	-0.8772101409	 0.094641
H	-0.7238874162	-2.5296959351	-0.2572358662	 0.094845
H	-3.0976500366	-3.1668977405	 1.1907173074	 0.099344
H	-1.5632412718	-2.863253128	 1.9803927059	 0.104461
H	-3.41710271	-1.0349685281	 2.7253673729	 0.087971
H	-2.6420116473	 0.9664860721	 1.3068345612	 0.085829
