18
gdb 35247	3.07133	1.13016	0.92078	2.4343	78.76	-0.2384	0.0257	0.2641	1273.2786	0.146344	-401.850495	-401.841765	-401.84082	-401.884953	31.907	
C	-0.4015245918	-1.219658332	 0.2438334803	-0.468346
C	-0.2291164996	-0.0318725876	 0.1604142133	 0.340033
C	-0.0432189676	 1.3855951055	 0.0106023468	-0.174412
C	 0.5395870597	 2.1941719587	 1.1311959054	-0.249176
N	 1.3041880982	 1.9880850416	-0.0893845454	-0.093088
C	 2.4519993225	 1.1043196791	-0.006700943	 0.00698
C	 3.0163364672	 0.639360542	-1.3643062448	-0.080179
O	 4.2946322409	 1.2512597559	-1.0914246524	-0.272698
C	 3.8068183272	 1.8299873525	 0.1355857834	-0.085574
H	-0.5574941356	-2.2668629294	 0.328066081	 0.204269
H	-0.7691980903	 1.8678619608	-0.6395206383	 0.122689
H	 0.1804747303	 3.2043810333	 1.3060476976	 0.125976
H	 0.8345024102	 1.6441805432	 2.0228316234	 0.124381
H	 2.3114017854	 0.2856049754	 0.7100300309	 0.082897
H	 3.0995627609	-0.4428674037	-1.5128723675	 0.104148
H	 2.5135768075	 1.0936797634	-2.2267366229	 0.106473
H	 3.7272578814	 2.922617047	 0.0781451778	 0.10624
H	 4.4244807936	 1.5497501444	 0.9969274843	 0.099387
