25
gdb 116193	2.1432	1.35902	1.05689	1.3566	88.35	-0.2398	0.075	0.3148	1322.792	0.228227	-389.514464	-389.504057	-389.503113	-389.549755	39.134	
C	-0.0132245508	 1.6513531834	-0.1470363268	-0.383943
C	-0.1150490603	 0.1229150263	-0.1148627121	-0.198461
C	 0.6979508007	-0.5417485511	-1.2184827925	 0.137256
O	 2.0795638513	-0.2728366343	-0.9937295566	-0.275347
C	 2.8516154752	-1.1860890038	-1.7708938408	-0.077772
C	 1.8988074451	-2.3248292755	-2.201273208	-0.273928
C	 0.6178821465	-2.0843515952	-1.3619128328	 0.277812
C	 0.7361365945	-2.7875775495	 0.0009856391	-0.427642
C	-0.6493017765	-2.5407878782	-2.0900241386	-0.445755
H	 1.0277317953	 1.9680232542	-0.0426832896	 0.136037
H	-0.3924640641	 2.053101932	-1.0934649399	 0.109277
H	-0.5934398377	 2.1029862377	 0.6634363878	 0.10622
H	 0.2310685292	-0.2486016192	 0.855257092	 0.104184
H	-1.1634350947	-0.1833424243	-0.221534538	 0.093341
H	 0.390935549	-0.101605126	-2.1873902345	 0.046381
H	 3.2831293704	-0.673592114	-2.6421612824	 0.091793
H	 3.6809060862	-1.5380916542	-1.1474766898	 0.102205
H	 1.6675882806	-2.247897039	-3.2684436739	 0.09718
H	 2.3268628638	-3.3164258923	-2.030616985	 0.099334
H	 1.6085985969	-2.4320658682	 0.5571002791	 0.125052
H	-0.1501714563	-2.6185576935	 0.620404919	 0.112663
H	 0.839556007	-3.8691215382	-0.1375793816	 0.106244
H	-0.6308792286	-3.6210832062	-2.2702469065	 0.113285
H	-1.5480347588	-2.3235660559	-1.5020390487	 0.114024
H	-0.7532164438	-2.042379285	-3.060042369	 0.11056
