18
gdb 30120	3.73713	1.12948	1.02983	2.9126	80.03	-0.2004	0.0358	0.2363	1199.8185	0.149007	-401.965047	-401.956926	-401.955982	-401.998456	31.434	
O	 0.1511776481	 1.4388616645	 0.0639070948	-0.428968
C	 0.0730031215	 0.0516287772	 0.0900476834	 0.131238
C	-0.3296196977	-0.6581772677	 1.3511441313	-0.320209
C	-1.289290486	-0.6314754466	 0.1721088782	-0.181976
C	-2.5079535348	 0.1968457395	 0.1829102838	 0.320538
C	-2.8741426415	 1.3115217967	 0.9204998225	-0.260543
C	-4.1483284499	 1.7447128374	 0.4538836431	-0.136834
C	-4.5265614982	 0.8945276032	-0.5551414174	-0.097084
N	-3.5260950233	-0.0334539501	-0.7135009944	-0.303831
H	-0.7437292072	 1.7856759846	-0.067902809	 0.285335
H	 0.8234577595	-0.41617268	-0.5425112038	 0.096705
H	 0.1377990007	-1.6047806557	 1.6005738611	 0.111584
H	-0.5778747096	-0.0334999332	 2.2023193231	 0.125941
H	-1.386865431	-1.5593912079	-0.3850837911	 0.077725
H	-2.307086389	 1.7423251529	 1.731530712	 0.107251
H	-4.7197330878	 2.5812103597	 0.8252148629	 0.096688
H	-5.4144644221	 0.8628399629	-1.165567708	 0.117657
H	-3.5273937519	-0.7756381774	-1.3916675725	 0.258783
