16
gdb 124336	4.16843	1.14181	0.90633	3.2471	75.24	-0.2722	-0.0534	0.2188	1259.3433	0.123796	-434.107629	-434.098975	-434.098031	-434.14168	30.302	
C	-0.0991044761	 1.4629388087	-0.0052052944	-0.483447
C	 0.0349649099	-0.0390679626	 0.0250488609	 0.443777
O	 1.0656871177	-0.6487652521	 0.058565533	-0.27549
N	-1.2155946193	-0.7400176088	 0.0113855382	 0.031869
N	-2.3981179619	-0.1011987986	-0.0255455515	-0.210347
C	-3.2793923962	-1.0830364936	-0.0260473772	-0.119336
C	-2.5949931575	-2.3288102708	 0.0115677138	 0.317541
C	-3.1436516757	-3.7171867529	 0.025665864	-0.496234
N	-1.2951796354	-2.0805969044	 0.0346186665	-0.251109
H	 0.9040873002	 1.8874547142	 0.0069409842	 0.148269
H	-0.6388278863	 1.7847842794	-0.8991654073	 0.161748
H	-0.6732752647	 1.8167343523	 0.8546185552	 0.161747
H	-4.339246271	-0.8797541662	-0.0523513689	 0.133988
H	-3.7496832033	-3.9116337356	-0.8654166479	 0.140597
H	-2.3266613423	-4.4399365669	 0.0551683767	 0.155798
H	-3.7850683381	-3.8797418622	 0.8981858948	 0.14063
