19
gdb 2542	3.30271	1.84277	1.29429	2.677	68.16	-0.2452	-0.0189	0.2263	982.2594	0.169173	-310.941183	-310.932124	-310.931179	-310.975338	31.23	
C	-0.0256468266	 1.5680684291	 0.0899658036	-0.391409
C	-0.0026595971	 0.0404625812	-0.0212170935	-0.195968
C	 0.7151226507	-0.4829283144	-1.2833122541	-0.036311
C	 0.8625009521	-2.0189548455	-1.2535473962	-0.195967
C	 1.7174061704	-2.5816251938	-2.3932877697	-0.391412
C	-0.0752740589	-0.0796101897	-2.5120899611	 0.17192
O	 0.3154446968	 0.6217811546	-3.4089194559	-0.256032
H	 0.9903542555	 1.9756641673	 0.1195808071	 0.122599
H	-0.5372531459	 2.029333559	-0.7610661258	 0.129436
H	-0.5410231933	 1.8858380124	 1.0012590182	 0.115946
H	 0.495377282	-0.3871174756	 0.8570527471	 0.102762
H	-1.0293754421	-0.3506555092	-0.0057712637	 0.100249
H	 1.7050857793	-0.0180926416	-1.3650917909	 0.088163
H	 1.2998006207	-2.3015169573	-0.2885861848	 0.10276
H	-0.1371485063	-2.4745117312	-1.2764741356	 0.100248
H	 1.2969160972	-2.3381372844	-3.3744446191	 0.129418
H	 2.7325357975	-2.1719239401	-2.3628222478	 0.122603
H	 1.7932954033	-3.6708735193	-2.3238279081	 0.115951
H	-1.1102956454	-0.5050941216	-2.5282756298	 0.065043
