19
gdb 40010	3.26719	1.57069	1.48067	1.7346	78.34	-0.2344	0.0129	0.2474	967.5912	0.161983	-385.877455	-385.870702	-385.869757	-385.908304	28.594	
C	 0.0697161938	 1.4974935248	-0.0003902466	-0.276917
O	 1.2087623235	 0.6241911635	 0.0013176777	-0.296049
C	-0.0982800065	 0.0454865972	 0.0054407668	 0.499827
C	-0.5041287644	-0.810942007	 1.219356334	-0.303095
C	-1.119195671	-2.0711986962	 0.52581445	-0.063783
C	-0.1830941038	-2.2031199388	-0.7026496196	-0.224104
C	-0.5147380717	-0.784345029	-1.2276253548	-0.134141
C	-2.0389622088	-0.8311167116	-1.1966645965	-0.086779
C	-2.3962376343	-1.5964372751	-0.161514113	-0.072745
H	-0.0822294315	 2.0667159772	 0.9163873209	 0.110008
H	-0.0843087892	 2.0610270261	-0.9208436686	 0.107356
H	 0.3906966378	-1.0637555577	 1.7958696172	 0.114763
H	-1.211927393	-0.3101912116	 1.8837077989	 0.103309
H	-1.2140296866	-2.9403590494	 1.1767653136	 0.063204
H	 0.8713849336	-2.3283228127	-0.4363540649	 0.104178
H	-0.493232929	-2.9924683613	-1.3909658051	 0.097067
H	-0.0441551101	-0.453096732	-2.1527141402	 0.066694
H	-2.6844845495	-0.2527675531	-1.8451510492	 0.096452
H	-3.3973919893	-1.7758245031	 0.2102991692	 0.094754
