21
gdb 62065	3.98929	0.6333	0.5932	2.8921	80.55	-0.2467	-0.0202	0.2265	1881.7869	0.179705	-424.215825	-424.205467	-424.204523	-424.253022	35.989	
C	 0.0092168285	 1.5489182089	-0.1568360544	-0.409936
C	-0.0164036417	 0.0181993084	-0.0043505574	-0.064094
C	 0.8411643471	-0.4892858428	 1.1762430406	-0.190368
C	 2.3450220144	-0.2127913999	 1.0313615063	-0.232997
C	 3.1314211975	-0.792258895	 2.1824487711	 0.098354
C	 4.3071413762	-0.123319725	 2.7512631066	-0.181205
O	 3.047894283	-0.0873120809	 3.4255683172	-0.236243
C	-1.4472035203	-0.4335374914	 0.2176164989	 0.158618
O	-2.0424756238	-1.224901836	-0.4664240361	-0.249649
H	 1.0204986979	 1.9106694766	-0.358316823	 0.129163
H	-0.6283769713	 1.871223735	-0.9857305786	 0.129512
H	-0.3466329305	 2.0412955354	 0.7554681267	 0.124868
H	 0.3236950279	-0.4568432447	-0.9316804188	 0.092325
H	 0.487871401	-0.0365822318	 2.1114676781	 0.119043
H	 0.6899315761	-1.5717978722	 1.2780501694	 0.109138
H	 2.7144833691	-0.646485929	 0.092376252	 0.104744
H	 2.5358728737	 0.8644145895	 0.9885281806	 0.10791
H	 3.0670998199	-1.8772118653	 2.2917994973	 0.092977
H	 5.0840546503	-0.709762952	 3.2398641859	 0.116201
H	 4.6390371284	 0.8254807911	 2.3308956057	 0.112565
H	-1.9345146335	 0.0356499911	 1.107052902	 0.069075
