21
gdb 32905	4.19533	0.78921	0.69908	1.3664	88.11	-0.1767	0.0549	0.2316	1679.2823	0.183546	-383.313847	-383.303976	-383.303032	-383.349412	36.175	
C	 0.1702413192	 1.5763680613	-0.043610149	-0.379368
C	 0.2113821075	 0.0468261585	-0.0695700711	-0.152028
C	 0.5391856668	-0.5663109975	 1.3070649144	-0.309638
C	 0.5733907881	-2.0606567774	 1.3255213992	 0.303155
C	-0.2775018828	-2.9810377392	 1.8939324688	-0.22584
C	 0.2175781569	-4.2868001429	 1.6025659743	-0.202684
C	 1.3599715682	-4.130188015	 0.8509155409	 0.258669
N	 2.2493034621	-5.0382273478	 0.2325824207	-0.61237
N	 1.5644867074	-2.7808414428	 0.6873373335	-0.308766
H	 1.1326538844	 1.9948673224	 0.2724547845	 0.111472
H	-0.0631535052	 1.9870742338	-1.0308181431	 0.111768
H	-0.590912158	 1.9389951292	 0.656413765	 0.115092
H	-0.7513104766	-0.3511630261	-0.4112030281	 0.104842
H	 0.9542117551	-0.2887050543	-0.8050784913	 0.087061
H	 1.4983721143	-0.1561074642	 1.6572365359	 0.094258
H	-0.2124588233	-0.2362734887	 2.0331272041	 0.108456
H	-1.1559112524	-2.7392546382	 2.4740662016	 0.082483
H	-0.2016322706	-5.2289762852	 1.9223283668	 0.077073
H	 3.0779123062	-5.2076601751	 0.7970407109	 0.24042
H	 1.7961351697	-5.9328536141	 0.0900656914	 0.244299
H	 2.2958340229	-2.3990748867	 0.1120737505	 0.251645
