24
gdb 100041	2.98808	1.03794	0.96803	1.0471	85.99	-0.2197	0.0647	0.2844	1393.1082	0.214661	-405.514241	-405.503315	-405.50237	-405.54972	41.042	
C	 1.1486626422	 0.9199481354	 0.919844038	-0.402399
C	 0.9511987127	-0.5117739638	 0.4160043573	-0.191726
C	 1.4420982548	-0.7747501127	-1.0308767483	 0.345437
C	 0.7579091688	 0.1784777331	-2.013439859	-0.423708
O	 2.8447905246	-0.4681542098	-1.1234267656	-0.460628
C	 1.2247851946	-2.2729708468	-1.3099703759	-0.039792
C	 0.3278984397	-2.8356868197	-2.3657105337	-0.257196
N	 1.7647872358	-3.0370868387	-2.4360373048	-0.091515
C	 2.5181106317	-2.4182546217	-3.5184552164	-0.309139
H	 2.1784150012	 1.2454192174	 0.7486113077	 0.129553
H	 0.4820119555	 1.6285391277	 0.4199321835	 0.117659
H	 0.943355618	 0.980080258	 1.9929132067	 0.109396
H	 1.4956147485	-1.2001888071	 1.0770354264	 0.085647
H	-0.1051405539	-0.8015545034	 0.4862969512	 0.099644
H	 1.0319256399	 1.2085391801	-1.7745251895	 0.127848
H	 1.0644678528	-0.0085540761	-3.0429403553	 0.125368
H	-0.3294349869	 0.0831949651	-1.9521585844	 0.115466
H	 3.3191395223	-1.1003962546	-0.5718704537	 0.278626
H	 1.2947528057	-2.8540857728	-0.3884600443	 0.079639
H	-0.2798334144	-3.715939943	-2.1660503126	 0.108456
H	-0.1193845569	-2.1318704068	-3.0661574192	 0.105114
H	 2.0674399502	-1.5094636115	-3.9392313997	 0.105794
H	 3.5193438242	-2.1615558641	-3.1662675224	 0.126464
H	 2.6092275492	-3.1516786445	-4.3267822759	 0.115993
