20
gdb 6706	6.05233	0.77404	0.71692	1.1418	78.46	-0.2536	0.0557	0.3093	1597.2075	0.173475	-348.973118	-348.96303	-348.962086	-349.00881	35.671	
C	-0.159522149	 1.5445817198	 0.1552693673	-0.387206
C	-0.0070645671	 0.0351721424	 0.0035547425	 0.158555
C	 0.8030508949	-0.5801910587	 1.1485505649	-0.393627
O	-1.3281778327	-0.4954598541	-0.0604141194	-0.255752
C	-1.4306939798	-1.8084188252	-0.5593186666	-0.056804
C	-2.9233378888	-2.1038717418	-0.7543377467	-0.346638
C	-3.1593504594	-3.4490485763	-1.2600457179	 0.287576
C	-3.3236912892	-4.5638195198	-1.6781235889	-0.451316
H	 0.8192782926	 2.0329227158	 0.1704164677	 0.112354
H	-0.7431839392	 1.9544178644	-0.6730921371	 0.120211
H	-0.6786419057	 1.7809053796	 1.0896188551	 0.12291
H	 0.5043753664	-0.1807013346	-0.9502849455	 0.064774
H	 0.3054331499	-0.3941645143	 2.1059557981	 0.122002
H	 0.9237298149	-1.6604394744	 1.0281338118	 0.11794
H	 1.8037384934	-0.1381638197	 1.1875136196	 0.115197
H	-0.9005882707	-1.9066410381	-1.5201448786	 0.096455
H	-0.9989578704	-2.5477078819	 0.1311586108	 0.101359
H	-3.4340761548	-1.9628903939	 0.2056331486	 0.139412
H	-3.3411006596	-1.3582669616	-1.4409504829	 0.137509
H	-3.4839167155	-5.5462451076	-2.047233343	 0.195088
