21
gdb 53440	4.13875	0.80339	0.71793	0.2728	94.11	-0.2326	0.0251	0.2577	1653.1281	0.183225	-349.953886	-349.94445	-349.943506	-349.98955	34.525	
C	 0.0163310446	 1.5107830155	-0.0255336815	-0.498479
C	-0.0027097481	 0.0545594892	-0.0170299998	 0.087864
C	-0.0166605341	-1.1497912198	-0.0146052158	 0.036762
C	-0.038805938	-2.6133868824	 0.0067017345	-0.197639
C	 0.8334418622	-3.1806659617	 1.1513887142	-0.193404
C	 0.6152005221	-4.6890107366	 1.3061400943	-0.215894
C	-0.8452513716	-5.0004940011	 1.6641041727	-0.237072
C	-1.8121167619	-4.1912015948	 0.8396258444	-0.066733
C	-1.4616816401	-3.1431295901	 0.0969339637	-0.038314
H	 0.6635962609	 1.9058437518	 0.7655401976	 0.145387
H	 0.3867689316	 1.9009095025	-0.9802097596	 0.144792
H	-0.9862912597	 1.9236002597	 0.1328665444	 0.145747
H	 0.3893922315	-2.9644061793	-0.9468652834	 0.105423
H	 1.8855238703	-2.9514310436	 0.9559154447	 0.099087
H	 0.5626300246	-2.6680834411	 2.0820263522	 0.106751
H	 0.8712224054	-5.1892295587	 0.3629964693	 0.098735
H	 1.2881438359	-5.094743081	 2.0689334399	 0.090795
H	-1.0496291027	-6.0703030681	 1.5297921051	 0.101343
H	-1.0243628444	-4.8025894789	 2.7317097135	 0.108292
H	-2.8556374811	-4.4978807849	 0.8643069703	 0.084478
H	-2.2062100177	-2.6075334266	-0.4851398008	 0.092079
