22
gdb 118284	4.52971	0.58256	0.56617	4.2014	80.57	-0.2505	0.0321	0.2826	1976.7207	0.192461	-441.509425	-441.498238	-441.497294	-441.547423	38.73	
C	 0.2381050375	 1.390923312	 0.3198985498	-0.385968
C	-0.0003941961	-0.096483651	 0.0286140369	 0.007154
C	 0.6090278164	-0.551043467	-1.3078162769	-0.163096
C	 0.0253653847	 0.1335395547	-2.538487062	-0.08576
O	 0.5815366817	-0.5012561611	-3.6808870159	-0.420251
C	 0.5560332206	-0.9840588594	 1.1593082384	-0.165574
N	-0.0809500662	-0.7631988625	 2.447913111	-0.275704
C	 0.5649566084	-0.2474515446	 3.5285396885	 0.153304
O	 1.7265142312	 0.0998679645	 3.555045611	-0.323199
H	 1.309480531	 1.6211067706	 0.3164238039	 0.126566
H	-0.2479683849	 2.0313690282	-0.4214282291	 0.112289
H	-0.1559168438	 1.6655890058	 1.3021418524	 0.120243
H	-1.0873306572	-0.268640602	-0.0209153952	 0.061932
H	 1.6944947641	-0.3887213698	-1.2973468871	 0.10852
H	 0.4584759423	-1.6304869868	-1.4336644605	 0.103065
H	-1.0741411457	 0.0410686631	-2.5276405751	 0.081114
H	 0.2620993219	 1.2078416443	-2.5313210639	 0.090684
H	 0.2736689092	-0.0356301441	-4.4637687379	 0.285714
H	 0.4494770177	-2.040271384	 0.88171364	 0.104346
H	 1.6205470368	-0.7850454314	 1.3097630743	 0.14874
H	-1.0496376642	-1.0185960459	 2.5585884937	 0.244575
H	-0.1058599556	-0.1778365138	 4.4086312834	 0.071305
