14
gdb 133283	2.56929	1.64602	1.00965	2.7511	70.49	-0.2302	-0.0661	0.1641	1089.5694	0.101551	-474.151212	-474.143561	-474.142617	-474.183621	27.911	
C	 0.1283103668	 1.3980116481	 0.1360386476	-0.348461
N	 0.1552531959	-0.0516566958	 0.1190416224	-0.309578
C	 0.4832891474	-0.6251742126	-0.9724665813	 0.281149
N	 0.8280319134	-0.0209265714	-2.1816894314	-0.31201
N	 1.1728549652	-0.6521604153	-3.3279681898	-0.180949
C	 1.1759528836	-1.943324664	-3.2720764018	 0.07774
N	 0.8648656767	-2.716373046	-2.1688517321	-0.310057
C	 0.5450753481	-2.0855327725	-1.1084284384	 0.32687
F	 0.2399968494	-2.7649637335	-0.0298006755	-0.018188
H	 1.1133794663	 1.8409558481	-0.088028116	 0.115057
H	-0.5918087492	 1.8152115148	-0.5879439589	 0.115019
H	-0.1679508554	 1.7427670253	 1.1288293009	 0.13816
H	 0.8328773626	 0.9838951621	-2.2496923985	 0.28
H	 1.4483871493	-2.4726213171	-4.176055197	 0.145248
