17
gdb 33862	4.03409	1.29698	1.15497	4.8685	76.34	-0.2564	0.0267	0.2831	1061.7897	0.138831	-380.857711	-380.850635	-380.849691	-380.889074	28.457	
N	-0.0546295088	-1.1016238865	-0.2168159857	-0.352645
C	-0.0384139506	 0.0512833414	-0.1117671623	 0.20674
C	-0.0249423098	 1.4784068448	 0.0295361366	 0.171407
C	 0.4555337323	 2.310497748	-1.1502016214	-0.315964
C	 1.3052101253	 2.251525264	 0.0825638913	-0.069921
C	 1.128702635	 3.3445168151	 1.1129539509	-0.04833
N	 0.1110582184	 4.3566975893	 0.7577415461	-0.337451
C	-0.241695455	 3.2675030941	 1.6875126011	-0.032392
C	-0.9965001301	 2.1059075603	 1.0488256387	-0.29892
H	 0.7931365832	 1.7590059417	-2.0197845921	 0.131222
H	-0.0735650035	 3.234659626	-1.3466904617	 0.152749
H	 2.2455449565	 1.7153553607	 0.058817432	 0.110908
H	 1.9869200358	 3.6422911933	 1.704348242	 0.095726
H	 0.2803853891	 5.2127364015	 1.2795790987	 0.236461
H	-0.446844528	 3.5151973136	 2.7241375684	 0.096898
H	-1.932059372	 2.4272091254	 0.5817398822	 0.127488
H	-1.2426271476	 1.3643264374	 1.8142697252	 0.126025
