17
gdb 68805	2.89578	1.32209	1.1013	2.0849	75.55	-0.2301	0.0194	0.2495	1142.2361	0.132501	-421.745769	-421.736756	-421.735812	-421.779071	34.182	
C	-0.0723162732	 1.5202321119	 0.0747434463	-0.493888
C	 0.0495687483	 0.0339130261	 0.0781976527	 0.418009
C	 1.2457867094	-0.7879573188	-0.3464464567	-0.408407
C	 0.6289705442	-0.9867900137	 1.0211812731	 0.257329
O	 1.2914801015	-0.823159828	 2.2155372509	-0.454863
C	-0.7146847956	-1.7220485132	 0.8722414324	-0.114083
O	-1.1478638385	-0.7395781671	-0.1207041435	-0.330274
C	-0.7312221313	-3.0963863111	 0.4061423294	 0.314966
C	-0.7224353474	-4.2407136554	 0.0372490375	-0.441353
H	 0.8781244335	 1.978811865	 0.361160727	 0.131091
H	-0.3398019633	 1.8845574686	-0.923206555	 0.134461
H	-0.8445991079	 1.8472438245	 0.7773776087	 0.133207
H	 1.1515498455	-1.5399360912	-1.124813011	 0.124737
H	 2.1908149604	-0.2533182293	-0.3143340343	 0.1166
H	 2.0069890661	-1.4676948414	 2.2596451608	 0.294183
H	-1.3181027119	-1.610464397	 1.7813429066	 0.116725
H	-0.7244838597	-5.2505003901	-0.2921696649	 0.20156
