17
gdb 82665	3.0838	1.67132	1.34186	1.7047	71.09	-0.2367	-0.017	0.2197	967.7662	0.136947	-421.796712	-421.789767	-421.788823	-421.827895	27.945	
C	-0.052704076	 1.4868817038	 0.003825148	-0.423788
C	 0.0749380257	-0.0298788122	 0.0670752216	 0.026274
C	 1.0690683261	-0.6388832779	-0.95785502	 0.056651
O	 2.3141616456	 0.0321478977	-0.6091495792	-0.28299
C	 2.2663731053	-0.7975583188	 0.551919607	 0.101776
C	 1.5260842575	-1.9514241371	-0.2039299883	-0.216037
C	 0.6469850952	-2.1019454657	 1.0306796929	 0.437139
O	 0.1645461322	-3.0216321984	 1.6247763031	-0.327401
C	 0.8517460173	-0.6060842513	 1.2923330564	-0.232817
H	 0.9283126732	 1.9619976567	 0.0648673031	 0.141153
H	-0.5247095059	 1.7953618042	-0.9359707537	 0.116601
H	-0.6741167001	 1.8570846699	 0.8249741058	 0.119196
H	-0.9129520893	-0.4963477774	-0.0167645851	 0.09186
H	 0.8400218233	-0.6148622894	-2.0225011733	 0.091499
H	 3.1850431439	-0.8818854831	 1.1267739254	 0.108605
H	 2.0114611618	-2.7531488931	-0.7532684316	 0.102474
H	 0.7256367442	-0.1474394579	 2.269127828	 0.089804
