22
gdb 118884	3.11835	1.08049	0.97757	1.5541	82.72	-0.2302	0.0817	0.3119	1335.2751	0.192999	-404.291319	-404.28181	-404.280866	-404.325737	35.669	
C	-0.0099895914	 1.4171269088	 0.0859691573	-0.223226
O	-0.0672694145	 0.0146116472	-0.013659376	-0.237488
C	 0.7404344782	-0.4981634643	-1.0533199044	-0.100358
C	 0.6034279753	-2.016817144	-1.0555929839	 0.323372
C	 1.1247656433	-2.6032334739	 0.250387745	-0.431105
C	-0.7670945447	-2.6222112905	-1.4848388912	-0.301524
C	-0.0037296984	-3.3215882687	-2.6055669969	-0.007513
C	 0.6762735282	-2.3448719061	-3.4707202004	-0.245665
N	 1.3312632953	-2.7131840737	-2.1970361581	-0.176966
H	 1.0110816472	 1.769894029	 0.3008539351	 0.105825
H	-0.3525992339	 1.9072319296	-0.8394604787	 0.102922
H	-0.6669607494	 1.7147969592	 0.906901781	 0.127281
H	 0.4294268669	-0.0616487923	-2.0148264588	 0.080457
H	 1.7993074864	-0.2265784644	-0.8998896054	 0.092406
H	 0.561067987	-2.2027037763	 1.0965275863	 0.129101
H	 1.0371260734	-3.6933522158	 0.243111328	 0.112735
H	 2.182963434	-2.3535081906	 0.3808999479	 0.115582
H	-1.1843194087	-3.2942001214	-0.7333181376	 0.10858
H	-1.546946556	-1.9236299911	-1.8011938979	 0.102859
H	-0.0850331557	-4.3720840037	-2.8657012089	 0.092457
H	 1.2234213217	-2.7220186427	-4.3294811172	 0.12003
H	 0.2500031758	-1.3556268841	-3.6133950053	 0.110236
