25
gdb 120546	5.36294	0.60011	0.58163	0.8585	91.17	-0.2496	0.0881	0.3377	2050.6554	0.227756	-389.478469	-389.467762	-389.466818	-389.515124	38.711	
C	 0.0978310964	 1.4883565749	-0.1360678888	-0.377493
C	 0.0473803637	-0.0248690366	 0.0995524511	-0.194289
C	-1.3647725466	-0.593699172	 0.0593044194	 0.065583
C	-2.1320360571	-0.6238990919	-1.2962751166	-0.261264
C	-2.6905800711	-2.0200555865	-0.9076443387	 0.024417
C	-2.783459265	-3.0762406637	-1.9873412019	-0.071242
O	-3.1956240245	-4.2921841568	-1.3985749264	-0.232712
C	-3.2898913326	-5.3466898905	-2.3233071334	-0.22258
C	-1.5623765548	-2.1327408398	 0.153083111	-0.249872
H	 1.1256902976	 1.863539141	-0.1104648975	 0.110136
H	-0.3279884962	 1.7522462366	-1.1103586716	 0.117123
H	-0.4724039643	 2.0267886572	 0.6293000749	 0.112571
H	 0.6597505104	-0.5356844801	-0.6562535446	 0.087357
H	 0.5033419917	-0.2616605376	 1.0704121886	 0.09319
H	-1.9817650972	-0.0938479408	 0.8165628206	 0.065328
H	-2.8497698222	 0.1732353009	-1.505088348	 0.094738
H	-1.4357257321	-0.6933220976	-2.1411185475	 0.091438
H	-3.6662232607	-1.9260505357	-0.4197588677	 0.076872
H	-3.4982940601	-2.7660846593	-2.771177719	 0.080266
H	-1.8020928321	-3.202705163	-2.4797696767	 0.075097
H	-3.6127243522	-6.2365412279	-1.7768429605	 0.124538
H	-4.0238857801	-5.1323425601	-3.1171376967	 0.100445
H	-2.3214695765	-5.5584889807	-2.8050684499	 0.100525
H	-0.6955064339	-2.6705845966	-0.2482385769	 0.09169
H	-1.8154532504	-2.5614368234	 1.1250889868	 0.098137
