22
gdb 55278	2.36349	1.40484	1.11026	3.5976	83.56	-0.2306	0.0362	0.2668	1227.2397	0.191955	-404.385648	-404.375186	-404.374242	-404.421538	37.711	
C	-0.1338706073	 1.4492503042	-0.0109111104	-0.485906
C	-0.2443047641	-0.068556396	-0.0221905996	 0.365447
O	-0.5798755283	-0.7192329983	 0.9573731965	-0.386524
N	 0.0583371294	-0.6567028018	-1.2062851272	-0.080769
C	 0.4783381023	-0.1634757409	-2.5162300501	-0.176429
C	 0.5130161912	-1.6354200471	-3.0124598419	-0.297651
C	 0.060710396	-2.0894471298	-1.5826342134	 0.328421
C	 1.0927134012	-2.9089259316	-0.8082843238	-0.430891
C	-1.3267808068	-2.72709048	-1.5159332783	-0.430906
H	 0.8835532616	 1.7729117752	-0.2553510553	 0.132779
H	-0.8065476782	 1.899499908	-0.7487819412	 0.132807
H	-0.3975039403	 1.8074464653	 0.9838071713	 0.145882
H	-0.2567325796	 0.4813218239	-3.0126770908	 0.111874
H	 1.4453107249	 0.3537346662	-2.5150162485	 0.111878
H	-0.2013949802	-1.8641213086	-3.8045528625	 0.110511
H	 1.5012037665	-1.9919286026	-3.3065367916	 0.110511
H	 2.0850020685	-2.451612084	-0.8729995789	 0.106615
H	 0.8095609514	-2.9690425731	 0.2450868431	 0.151512
H	 1.1552888903	-3.9234154344	-1.2166076758	 0.111352
H	-1.2996931676	-3.7389992013	-1.9344278327	 0.11135
H	-1.6639963716	-2.7829311669	-0.4783677733	 0.151533
H	-2.0555066494	-2.1405840766	-2.0842065156	 0.106606
