16
gdb 16760	5.29163	1.37888	1.19467	2.8086	65.88	-0.2332	0.0081	0.2413	992.6878	0.130373	-383.719112	-383.711766	-383.710822	-383.750925	27.372	
O	-0.0065838708	 1.4207123056	-0.0325682168	-0.41244
C	-0.029581493	 0.0068342991	-0.0807100212	-0.171249
C	-1.4368187914	-0.479915791	 0.0292512704	 0.297754
C	-2.5448112294	 0.2675679035	 0.0794900857	-0.177645
C	-3.7557709698	-0.6029826572	 0.0759034256	 0.004935
O	-3.8726728421	-1.4188142948	-1.1185515676	-0.260526
C	-3.2798247373	-1.9958892468	 0.044038707	 0.041852
C	-1.7550194701	-1.9676032877	 0.0519988533	-0.342113
H	 0.9037142187	 1.7096636005	-0.1400888684	 0.291018
H	 0.4083182147	-0.3731607874	-1.021170806	 0.101327
H	 0.5715583457	-0.4345618466	 0.7351222862	 0.094211
H	-2.566833424	 1.3482315679	 0.0769989114	 0.114512
H	-4.7013066088	-0.2933219075	 0.5102064086	 0.093997
H	-3.8210857099	-2.8295831778	 0.4835123471	 0.093331
H	-1.3369335016	-2.4974134709	-0.8130433968	 0.122047
H	-1.3534910408	-2.4558520587	 0.9501969015	 0.108991
