16
gdb 11033	4.17714	1.79311	1.48023	1.422	65.17	-0.2324	0.0066	0.239	855.4875	0.130239	-383.718937	-383.711582	-383.710638	-383.750044	28.789	
O	-0.0850879408	 1.4574097705	-0.0443790031	-0.430771
C	 0.006846623	 0.0322654644	-0.0033342486	 0.059836
C	 0.6661622779	-0.4864573841	 1.2696632453	-0.110736
C	-0.1390079246	-1.29275918	 1.9588733825	-0.14832
C	-1.4753722155	-1.4316878104	 1.2899066282	 0.360666
O	-2.1007702934	-2.6772386978	 1.2483987777	-0.470207
C	-2.2849045672	-0.1562546979	 1.2071113628	-0.3293
C	-1.3900732059	-0.5736330181	 0.0545898713	-0.085689
H	 0.8109405236	 1.809488077	-0.0468103781	 0.280894
H	 0.5429024551	-0.3258010454	-0.8969580188	 0.071553
H	 1.6599549375	-0.1709160122	 1.570804865	 0.091647
H	 0.0910354138	-1.7784154038	 2.9013932134	 0.096422
H	-2.6356598133	-2.7691152657	 2.0437673916	 0.284361
H	-3.350019197	-0.2721243526	 1.0322312406	 0.109293
H	-1.9976087065	 0.6964465088	 1.811176606	 0.124335
H	-1.8692571968	-0.8948642227	-0.8610027658	 0.096017
