17
gdb 4159	4.42626	1.21216	1.00665	1.0274	69.01	-0.2465	-0.0016	0.245	1162.8623	0.140324	-400.937232	-400.928673	-400.927728	-400.970589	30.55	
C	-0.1012476071	 1.5146182353	 0.0420939798	-0.385883
C	 0.3108411812	 0.0487575906	-0.1184549052	-0.184187
C	 0.7619553408	-0.5659322647	 1.1983648182	 0.057519
O	-0.3043179012	-0.6372385818	 2.1933752405	-0.298914
C	-0.1964627761	-2.0751163994	 2.3145838097	-0.161557
C	 0.8963658431	-2.069126549	 1.2771530986	 0.346528
N	 1.6341864299	-2.8906253273	 0.6664048563	-0.228449
O	 1.3668474567	-4.2077665025	 1.0794802659	-0.390429
H	 0.7383838278	 2.1272624988	 0.3885888101	 0.115268
H	-0.4499979905	 1.9303065202	-0.9075894096	 0.114962
H	-0.9091494438	 1.6070401743	 0.7733501586	 0.138651
H	-0.5245051187	-0.5404620671	-0.5136555799	 0.102208
H	 1.1362353555	-0.0478579255	-0.8345149872	 0.111562
H	 1.6254338592	-0.0172782047	 1.6026120326	 0.095684
H	 0.1085424089	-2.3949880286	 3.3191761157	 0.127476
H	-1.1199999746	-2.5983690421	 2.0368220264	 0.129121
H	 1.9867663989	-4.7188895065	 0.5479828695	 0.310438
