19
gdb 82450	2.37467	1.76261	1.38451	2.225	74.64	-0.2193	0.0617	0.281	1015.9448	0.158381	-422.970204	-422.961858	-422.960914	-423.00234	33.533	
C	-0.0286126438	 1.6012620732	-0.065948134	-0.430546
C	 0.0813242083	 0.0832817084	-0.0073916418	-0.016647
C	 1.1388588218	-0.7065243636	-0.8578592054	-0.089298
C	 2.5320135806	-0.1256111478	-0.4635517495	-0.297025
C	 2.2343167474	-0.7342505109	 0.8974576871	 0.294985
O	 3.0334228715	-0.8241445589	 2.0238648231	-0.474998
C	 1.2595593411	-1.7537920203	 0.3214763024	-0.260387
C	 0.7313411446	-0.6115902852	 1.1768757105	 0.388041
O	 0.2697847187	-0.6193948796	 2.4718181758	-0.48193
H	 0.9257319022	 2.0940104189	 0.1401466979	 0.116647
H	-0.3775182335	 1.934418174	-1.0497458598	 0.110707
H	-0.7477541083	 1.9562828746	 0.6794917892	 0.126067
H	-0.9007585734	-0.3705706165	-0.186492154	 0.076654
H	 0.9268798625	-0.9651919707	-1.8917735514	 0.074581
H	 3.3365788035	-0.6629404431	-0.9771916831	 0.089795
H	 2.6962699423	 0.9533586777	-0.5515647077	 0.093845
H	 3.6986864092	-1.5072364542	 1.8886653845	 0.292768
H	 1.1850957883	-2.8296893949	 0.3800601648	 0.094712
H	 1.0473504871	-0.620827201	 3.0467764813	 0.292028
