21
gdb 60858	2.20901	1.31335	1.11164	3.2935	78.39	-0.2393	-0.0202	0.2191	1225.2387	0.179782	-424.226921	-424.216872	-424.215928	-424.262696	36.782	
C	 0.0936367088	 1.4361082183	-0.2248051966	-0.447067
C	-0.0768779717	-0.0823195887	-0.0558369597	-0.098563
C	 0.7509749644	-0.5666021815	 1.1216018517	 0.164066
O	 1.569021493	-1.4498791125	 1.0662190714	-0.258571
C	-1.5588276505	-0.4875505255	 0.1574133426	 0.400823
O	-2.1027696634	 0.1411479332	 1.3050486887	-0.484299
C	-2.4105708678	-0.419483714	-1.1496666825	-0.286839
C	-2.2518430518	-1.9568142939	-1.2959150375	-0.214442
C	-1.7834772449	-2.0227661565	 0.1823862161	-0.267731
H	 1.1233518256	 1.6879132893	-0.493665926	 0.135017
H	-0.5597972299	 1.8217815025	-1.0137113666	 0.127571
H	-0.1395858034	 1.9700588337	 0.7034847207	 0.121194
H	 0.2981551114	-0.6031350822	-0.9432855962	 0.094257
H	 0.5359261288	-0.0414033645	 2.0785601708	 0.084542
H	-2.1732850239	 1.0859596457	 1.1311131136	 0.279052
H	-3.4376303822	-0.1341463212	-0.9064793773	 0.106372
H	-2.0480485181	 0.2110804269	-1.9660847138	 0.095073
H	-3.1493814441	-2.5207811289	-1.5550245564	 0.104813
H	-1.4602452856	-2.2301481187	-1.9979437198	 0.110167
H	-0.9207863604	-2.6489996333	 0.4179470071	 0.119781
H	-2.6003689043	-2.2617586484	 0.8666527899	 0.114785
