20
gdb 22487	3.12217	0.70409	0.61288	2.3316	80.35	-0.2457	-0.0253	0.2204	1802.5302	0.167596	-440.26004	-440.249332	-440.248388	-440.297407	37.072	
C	 0.9442942133	 0.5004984821	-1.1225020169	-0.376054
C	-0.0178687691	 0.0120970632	-0.0223655248	-0.267916
C	 0.7233706497	-0.5928488536	 1.1449305266	 0.359467
C	 0.8629506858	-2.0913304764	 1.2462609071	-0.287485
C	-0.4539056411	-2.7832728645	 1.6694426504	-0.271384
C	-0.2622474325	-4.2738308771	 1.837456444	 0.156322
O	-0.8822346484	-5.1200581559	 1.2475497668	-0.233152
N	 1.2793711904	 0.0764181692	 2.0822480277	-0.172653
O	 1.101201802	 1.4615675813	 1.9196918435	-0.398883
H	 1.5617431872	-0.3185033523	-1.505367723	 0.117645
H	 0.3829823461	 0.9184226743	-1.9632914176	 0.11793
H	 1.607268992	 1.2747151322	-0.7301574596	 0.14195
H	-0.6139631879	 0.8566141071	 0.3344569102	 0.130805
H	-0.7069593668	-0.7296295664	-0.4388978449	 0.102014
H	 1.1819139177	-2.4922647879	 0.2754525049	 0.119456
H	 1.647246427	-2.3186096674	 1.9743287185	 0.123828
H	-0.7653906403	-2.371511264	 2.6390766296	 0.130909
H	-1.2580024301	-2.6165197469	 0.9477530056	 0.125543
H	 0.5312049628	-4.5520418123	 2.570922457	 0.074607
H	 1.5545952521	 1.8142609252	 2.6923680549	 0.307051
