25
gdb 118482	2.08836	0.92599	0.68159	1.2862	89.41	-0.2608	0.0807	0.3415	1729.053	0.227533	-389.476694	-389.465593	-389.464649	-389.513682	40.306	
C	-1.6177405509	-0.3602941918	-0.2666244825	-0.38543
C	-0.1184281176	-0.1175945787	-0.0644364131	-0.175541
C	 0.7871608882	-0.6011600874	-1.216812494	-0.003326
C	 2.262489104	-0.2198365203	-0.9820470841	-0.168062
C	 2.5559294461	 1.2765116099	-0.9912960032	-0.086367
O	 3.9673429851	 1.4345299782	-0.92529492	-0.421803
C	 0.6736655089	-2.1029085932	-1.4351033772	 0.042319
C	-0.3496204504	-2.6973154891	-2.3710621632	-0.274107
C	 1.1129234347	-2.7236189516	-2.7374451231	-0.279824
H	-1.9767959613	 0.1193056958	-1.1845015351	 0.108671
H	-1.8509269802	-1.4257517148	-0.3374931962	 0.125514
H	-2.1928998697	 0.053705916	 0.5678745352	 0.107353
H	 0.0420444996	 0.9555054303	 0.0912712257	 0.092214
H	 0.208905343	-0.6067463856	 0.8638896433	 0.092218
H	 0.4526669213	-0.1066617076	-2.1428277856	 0.059622
H	 2.6088667318	-0.6409799949	-0.0291477799	 0.097247
H	 2.8797562793	-0.6767711972	-1.7633431291	 0.107068
H	 2.14877097	 1.7271681756	-1.9125533595	 0.080076
H	 2.0690593635	 1.7782039835	-0.1417105625	 0.085658
H	 4.1614488831	 2.3750715599	-0.8779926448	 0.283341
H	 0.8906361343	-2.6895140168	-0.5438938321	 0.077265
H	-0.8308427324	-3.6287075879	-2.0922912273	 0.107955
H	-0.9924335475	-2.0149689985	-2.9172188458	 0.109626
H	 1.446148512	-2.0578337457	-3.5277291495	 0.109072
H	 1.6369986052	-3.6725750583	-2.7111223264	 0.109241
