15
gdb 87106	2.88914	1.22438	1.01109	3.0029	71.71	-0.2432	-0.069	0.1742	1164.8939	0.108508	-457.714023	-457.704815	-457.703871	-457.748053	33.853	
O	-0.1332355773	 1.3642839559	-0.1335028973	-0.421177
C	 0.0087048076	-0.0052260798	-0.0185827831	 0.105108
C	-0.2672463955	-0.7198477565	 1.2653628676	-0.361283
C	-1.294211727	-0.8241754893	 0.1589954946	 0.234761
O	-2.4407831581	-0.0420998862	 0.3454626258	-0.480527
C	-1.4047652455	-2.0920065519	-0.6050800524	 0.200141
O	-0.5038462562	-2.9064623657	-0.6608018405	-0.314741
C	-2.6485815186	-2.2649017712	-1.3445389525	 0.214696
C	-3.6761257424	-2.3850196272	-1.9614768523	-0.394171
H	-1.0299534618	 1.5745933685	 0.1660676015	 0.291062
H	 0.764562155	-0.4060634611	-0.6850385963	 0.13142
H	 0.287983972	-1.6272632303	 1.4747266998	 0.148135
H	-0.5682394026	-0.1240148523	 2.120399285	 0.132825
H	-2.9339276758	-0.0311768913	-0.485556028	 0.292284
H	-4.5754187438	-2.5212302616	-2.512735082	 0.221467
