15
gdb 10480	3.01153	1.39142	1.02773	3.3294	72.21	-0.2411	-0.0253	0.2159	1143.3069	0.116569	-362.619183	-362.610423	-362.609478	-362.653927	29.771	
C	-0.0293824991	 1.4897515692	 0.0350437084	-0.503866
C	-0.0039839561	 0.035367792	 0.0294529353	 0.146296
C	 0.0295086198	-1.1685118126	 0.0237509094	-0.032932
C	 0.0661359939	-2.6021869291	-0.0147911851	 0.034004
C	-0.4717742227	-3.3787152029	 1.164098383	-0.257904
N	-1.2108825742	-3.3797837012	-0.0848584292	-0.342794
C	 1.1644081409	-3.267665834	-0.7958400994	 0.133354
O	 2.1185508855	-2.7083153841	-1.2632225737	-0.246676
H	 0.9828934155	 1.8955183982	-0.0667195744	 0.160744
H	-0.6296119931	 1.8817106118	-0.793311286	 0.15312
H	-0.4516955207	 1.8781476173	 0.9681759442	 0.150067
H	-0.0108177278	-4.3269933237	 1.4289387846	 0.132855
H	-0.8210946702	-2.781991875	 2.0010587729	 0.137307
H	-1.9822371405	-2.7182192925	-0.0430517107	 0.250371
H	 1.0013551287	-4.3635701035	-0.896092889	 0.086054
