21
gdb 112846	3.08417	1.18031	0.96492	2.6744	78.54	-0.2476	0.0819	0.3295	1299.2009	0.182122	-424.212148	-424.203154	-424.20221	-424.245965	33.793	
C	 0.0224697065	 1.3325206866	-0.1514377111	-0.234231
O	-0.0103411899	-0.0291371223	 0.209144298	-0.248752
C	-1.2916281334	-0.6118230598	 0.1275269539	 0.135306
C	-1.8182251698	-0.8542586973	-1.3101957472	-0.271959
C	-2.7547741907	-2.0855777133	-1.2149456016	-0.005125
C	-2.8527453448	-2.8977022899	-2.507508433	-0.401294
C	-2.17593749	-2.8609236937	-0.0393879125	 0.039997
O	-0.7523343793	-3.0133307318	-0.1153085918	-0.257833
C	-1.2875275977	-1.9965861696	 0.7426705178	 0.007748
H	 1.0414540026	 1.6875420809	 0.0204741519	 0.128367
H	-0.2303547125	 1.4913837752	-1.2099558618	 0.107942
H	-0.6699429515	 1.9321056514	 0.4615950832	 0.100521
H	-2.013077187	 0.0046738002	 0.6954283174	 0.060967
H	-2.3240561472	 0.0164869707	-1.7335000084	 0.095726
H	-0.9578159485	-1.0905113646	-1.9425504258	 0.124396
H	-3.7609873534	-1.75492996	-0.9208566464	 0.074173
H	-1.8699635611	-3.2941594455	-2.7815109003	 0.133231
H	-3.5407381017	-3.7427039265	-2.396368705	 0.11154
H	-3.2140369435	-2.2800915275	-3.3360699084	 0.11384
H	-2.7134965657	-3.7009518057	 0.3954285807	 0.089871
H	-1.0933529713	-2.1265023674	 1.8038418602	 0.095569
