19
gdb 34364	2.60011	1.60863	1.27261	0.7044	86.29	-0.2412	0.0206	0.2618	1060.4827	0.159873	-348.724982	-348.717054	-348.71611	-348.7572	31.765	
C	 0.0173942332	-1.1200379712	-0.4757542249	-0.426586
C	 0.0059473711	 0.049121302	-0.1905842	 0.220272
C	-0.0064787624	 1.4554440168	 0.149944369	 0.153015
C	-0.4116920448	 2.3991505255	-1.0417416352	-0.261469
C	 1.0607754498	 2.8619342317	-1.194647303	-0.218272
C	 1.3997443459	 2.1872020651	 0.165547476	-0.09086
C	 1.2952578793	 3.0716656883	 1.3754643565	-0.080659
C	 0.1814988059	 2.8683711173	 2.0792315654	-0.067203
C	-0.6904662486	 1.7766793527	 1.5064761186	-0.329177
H	 0.0265205829	-2.1517277456	-0.7257720248	 0.186278
H	-0.8569603145	 1.8981166756	-1.9022777831	 0.110538
H	-1.08198976	 3.1956260938	-0.7097898867	 0.104468
H	 1.5675884568	 2.3764930736	-2.0324218171	 0.107237
H	 1.2326945172	 3.9391492159	-1.2580211835	 0.09723
H	 2.294317691	 1.5577934475	 0.1712881123	 0.082693
H	 2.063430049	 3.7972372901	 1.6234474912	 0.093702
H	-0.0866190693	 3.4016790196	 2.9851987119	 0.094155
H	-1.7313424835	 2.0923785919	 1.3617914862	 0.107888
H	-0.719902939	 0.8988628996	 2.1640326211	 0.11675
