18
gdb 64080	3.40734	1.2104	1.0925	4.2395	75.17	-0.2409	-0.0398	0.2011	1155.4884	0.147663	-439.130807	-439.122012	-439.121068	-439.163978	33.46	
C	 0.0497032975	 1.5731753528	-0.0075641093	-0.427809
C	-0.0405865924	 0.0426326601	 0.0094902996	 0.316768
O	-1.4170536176	-0.3606695248	-0.0076870534	-0.459528
C	 0.5824650734	-0.5396628274	-1.2658602492	-0.170896
N	 0.8323423248	-1.9648608775	-1.1491766856	-0.33926
C	 1.3150001269	-2.5651157361	-0.0196152536	 0.39654
O	 1.7148885691	-3.7175128648	 0.0024706272	-0.384009
C	 1.2706271772	-1.7144939344	 1.2010369067	-0.160773
C	 0.6516066725	-0.5341432593	 1.2285468413	-0.114392
H	 1.0886285191	 1.9173668391	 0.0023110669	 0.1229
H	-0.4471423963	 1.9701348287	-0.8974922183	 0.127923
H	-0.45226808	 1.98835688	 0.8728541997	 0.112037
H	-1.7779142024	-0.242725392	 0.8775991196	 0.279949
H	-0.1148705657	-0.3690680456	-2.0908672683	 0.125714
H	 1.5092808735	 0.0100291556	-1.4874461046	 0.105954
H	 0.9050493682	-2.5189543526	-1.988847871	 0.248242
H	 1.7323045499	-2.1553684141	 2.0774047401	 0.119597
H	 0.5898053521	 0.0411542123	 2.1510626822	 0.101041
