18
gdb 116755	4.92812	0.64107	0.58587	3.3182	74.18	-0.253	-0.0292	0.2238	1862.2297	0.143824	-476.220213	-476.209662	-476.208718	-476.258034	35.103	
C	 0.1536261006	 1.0143127174	-0.4388322114	-0.252444
O	-0.9724190905	 0.4168905311	 0.196932786	-0.187867
C	-1.1517331707	-0.8898512931	-0.0453476246	 0.156723
N	-2.1358312387	-1.4997193169	 0.4559632211	-0.210981
C	-2.2915088888	-2.8876555506	 0.097018376	-0.2835
C	-2.9515460044	-3.0717236882	-1.2703126758	 0.363255
O	-2.7545018159	-2.315764239	-2.1953364469	-0.313771
C	-3.8585917239	-4.2753772368	-1.4607952599	-0.133648
O	-4.2493936791	-4.4209486527	-2.7920563619	-0.417844
H	 0.1776906475	 2.0520822448	-0.1054076261	 0.14937
H	 1.0881801559	 0.52107902	-0.1460078162	 0.127969
H	 0.0537425442	 0.9878814572	-1.5299706113	 0.137414
H	-0.3802685841	-1.348358047	-0.6815776144	 0.082243
H	-1.3346118253	-3.4376785778	 0.0258569352	 0.123764
H	-2.8858374292	-3.40189479	 0.8596507116	 0.124156
H	-3.3362114828	-5.176509313	-1.1004602113	 0.117523
H	-4.7250931934	-4.1364261021	-0.7891258825	 0.122825
H	-3.9264829714	-3.6218603935	-3.2380300677	 0.294813
