18
gdb 66360	2.33759	1.4917	1.38665	3.7507	72.	-0.2587	0.0212	0.28	1053.4987	0.147866	-439.095822	-439.08739	-439.086445	-439.128543	31.91	
C	 0.0089430448	 1.5124252879	 0.0431470013	-0.427494
C	-0.0107080349	-0.0156823996	-0.0040497055	 0.183652
C	 0.7146136108	-0.5567159916	-1.2552697836	-0.09796
O	 0.8500966175	-1.95810582	-1.2090824782	-0.24513
C	 1.5589552698	-2.3679349076	-0.0471932302	-0.081624
C	 0.8362356538	-1.8889063877	 1.203393395	-0.099554
O	 0.6615313685	-0.4709074274	 1.1651844297	-0.276123
C	-1.4165156097	-0.4991317361	 0.0032190115	 0.27019
N	-2.5137782353	-0.8609283231	 0.0165356059	-0.342721
H	 1.0460540778	 1.8562499255	 0.0543512177	 0.13487
H	-0.5038421787	 1.9337366937	-0.8251281066	 0.138069
H	-0.4865566156	 1.8629269816	 0.9505887837	 0.150817
H	 0.1554781112	-0.316128481	-2.1630993818	 0.128613
H	 1.7013895801	-0.0672147855	-1.297853965	 0.099846
H	 1.6101512321	-3.4597102113	-0.0770187878	 0.120149
H	 2.5834941322	-1.9624827997	-0.0670058021	 0.098521
H	-0.1398639058	-2.3866085559	 1.2885445613	 0.127077
H	 1.4191167113	-2.0958972422	 2.1047431348	 0.118801
