14
gdb 22573	4.50231	1.06191	0.88608	4.4038	72.34	-0.26	-0.0839	0.1762	1213.2591	0.101397	-473.820586	-473.812975	-473.81203	-473.853016	28.216	
O	-0.060214503	 1.3576306668	-0.0572203732	-0.378983
N	 0.0395939549	-0.0281892749	-0.0956267318	-0.187686
C	-1.1043733541	-0.6051729664	-0.0210404475	 0.319863
C	-1.109645905	-2.109205035	 0.034525503	-0.155249
O	-2.2090786694	-2.6938983456	-0.6764782375	-0.237915
C	-3.4373197071	-2.1162876007	-0.6043453597	 0.427709
O	-4.4033520713	-2.720159263	-0.9918491858	-0.328915
C	-3.5053978539	-0.7161270482	-0.1206239294	-0.219086
C	-2.4088024144	 0.0282878346	 0.0855675412	-0.119678
H	 0.8610840442	 1.6357149588	-0.1068409464	 0.318241
H	-0.1995951619	-2.5189199338	-0.4042758962	 0.149958
H	-1.1668951371	-2.4353180322	 1.0826512986	 0.132913
H	-4.5089253084	-0.3150673374	-0.0452703786	 0.137293
H	-2.4610835735	 1.0847559371	 0.3188625132	 0.141536
