17
gdb 106544	2.29239	1.52979	1.13597	2.2297	68.35	-0.2448	-0.0098	0.235	1097.0069	0.13464	-458.912995	-458.904251	-458.903307	-458.946806	32.297	
O	 0.0187074108	 1.3930223814	-0.0025004578	-0.417263
C	 0.0109383862	-0.0226426431	-0.1065004418	-0.208264
C	-1.3907781843	-0.564124048	-0.0632290819	 0.12656
C	-2.5961812422	-0.2951585286	-1.0455189772	-0.301137
C	-3.2528435221	-1.1836265379	 0.0750142849	-0.230611
C	-1.9323810892	-2.0483330761	 0.0350143568	 0.130704
O	-1.7075106948	-2.9567079147	-0.9986072558	-0.440267
C	-2.4468601816	-0.2793493452	 1.007472372	 0.433273
O	-2.5615293929	 0.3731871285	 2.0029227662	-0.343453
H	-0.3853266257	 1.6199004921	 0.843139314	 0.299415
H	 0.4996621029	-0.265235068	-1.0559281919	 0.118767
H	 0.6048731476	-0.4941452954	 0.6927893349	 0.102517
H	-2.9412428184	 0.734482459	-1.1390071664	 0.13287
H	-2.513208145	-0.7549762677	-2.0329348176	 0.097234
H	-4.2821410887	-1.5264408261	 0.1427727788	 0.101748
H	-1.6848731449	-2.5811391313	 0.9550317315	 0.108583
H	-1.9604794978	-2.569587249	-1.842842859	 0.289324
