23
gdb 123194	11.01508	0.40986	0.40106	1.1154	90.47	-0.2556	0.0558	0.3114	2725.7243	0.202478	-388.257961	-388.24648	-388.245536	-388.296123	39.768	
C	 0.0091260966	 1.5799388063	-0.0454256871	-0.37925
C	 0.0258969341	 0.0489659824	-0.0298078758	-0.165585
C	 0.716142027	-0.5510662367	-1.2589887345	-0.179004
C	 0.7324280536	-2.0730765983	-1.2428302467	-0.053059
O	 1.3855476862	-2.5341308651	-2.4086505581	-0.245748
C	 1.4551730599	-3.9371841047	-2.4930581753	-0.047472
C	 2.1833013581	-4.2866568714	-3.7958745789	-0.350209
C	 2.3136363111	-5.7243890708	-3.988337114	 0.287886
C	 2.4067346343	-6.9151431618	-4.1217404523	-0.450367
H	 1.0263589794	 1.985875244	-0.0708687564	 0.115695
H	-0.5195806049	 1.9602177237	-0.9263633229	 0.115694
H	-0.4886691493	 1.9827627957	 0.8420398664	 0.111898
H	 0.5306291446	-0.3019038456	 0.8800979874	 0.096654
H	-1.0039041096	-0.3273667295	 0.030816391	 0.096653
H	 0.2126757266	-0.2162082265	-2.174291728	 0.103719
H	 1.7502750832	-0.1907554933	-1.3232908254	 0.103724
H	 1.2536847468	-2.4431079331	-0.3427602968	 0.084814
H	-0.2973400851	-2.4688313196	-1.2014980718	 0.08481
H	 1.9996434386	-4.3592102231	-1.6328064277	 0.097576
H	 0.4479360577	-4.3844669898	-2.493235309	 0.097581
H	 1.6357096601	-3.8380308884	-4.6332034359	 0.139311
H	 3.1720157602	-3.8128947577	-3.7813561361	 0.139294
H	 2.4953109506	-7.9647857867	-4.2528954622	 0.195386
