21
gdb 70086	2.14046	1.82529	1.44803	1.2325	82.89	-0.2254	0.0199	0.2453	1042.463	0.181468	-387.088713	-387.079791	-387.078847	-387.121231	35.961	
C	-0.1377806719	 1.579678284	 0.0279227721	-0.423487
C	-0.0215338543	 0.0455337672	-0.0096355024	 0.158449
C	-1.4314045698	-0.5750374062	-0.0947570044	-0.402436
C	 0.8290541961	-0.4513209702	-1.1699680102	-0.106259
C	 1.8017865672	-1.2816522726	-0.7875354353	-0.092934
C	 1.8500259623	-1.4187601691	 0.695753321	-0.133206
C	 2.1789672261	-0.1239402764	 1.4363405029	-0.351445
C	 0.7448737285	-0.5267788618	 1.2089107472	 0.378214
O	 0.0043138072	-0.9429246638	 2.3196148927	-0.469684
H	 0.8433255478	 2.0602067072	 0.07249314	 0.11468
H	-0.6557534313	 1.9556709962	-0.8610336926	 0.111732
H	-0.7147627235	 1.9026708254	 0.9027857465	 0.102514
H	-1.9226955016	-0.2683354194	-1.0242528636	 0.103143
H	-1.3808279175	-1.6666989936	-0.0775474706	 0.122725
H	-2.055461283	-0.2544212935	 0.7442990508	 0.107486
H	 0.6188646126	-0.1542303792	-2.1923797981	 0.08972
H	 2.5076491024	-1.7719397415	-1.4486383655	 0.095053
H	 2.0874511592	-2.362457956	 1.1730535097	 0.095132
H	 2.5274030863	-0.2286308044	 2.4590702719	 0.108553
H	 2.6262393685	 0.6873325149	 0.8717897185	 0.110318
H	-0.1634267411	-0.1710251373	 2.8711029495	 0.281733
