18
gdb 17393	4.51925	1.6858	1.56511	1.8183	71.04	-0.2486	0.0833	0.3318	880.1613	0.154257	-347.751232	-347.744327	-347.743383	-347.78228	27.24	
C	-0.0342234047	 1.5507985312	-0.0780874999	-0.208772
C	 1.5107861798	 1.5499727185	 0.0929897998	-0.276441
C	 1.4134599756	 0.0986428064	 0.6167612964	 0.363661
C	-0.0049224336	-0.0011052036	-0.0015679015	-0.289817
C	 2.4862360168	-1.0242613096	 0.4141231286	-0.355389
C	 2.53269934	-1.1936759765	 1.9381235468	 0.040029
O	 2.8926013658	 0.0782260468	 2.4945086794	-0.251632
C	 1.5240222459	-0.142085105	 2.1326935423	-0.037371
H	-0.5413217852	 1.9929874021	 0.7838222037	 0.103619
H	-0.4424201188	 2.0000385283	-0.9859472976	 0.097992
H	 2.0252710282	 1.5935421843	-0.8721730225	 0.099774
H	 1.9628186395	 2.2855160286	 0.7623498358	 0.108333
H	-0.7778467593	-0.5031227519	 0.5882927158	 0.095627
H	 0.0236790085	-0.4592006506	-0.9951417179	 0.101073
H	 2.0734831038	-1.8931497443	-0.1069990415	 0.103858
H	 3.4312965532	-0.730790412	-0.0509937574	 0.107536
H	 2.7626079513	-2.0730121085	 2.5286100269	 0.101794
H	 0.7750752831	-0.0017369941	 2.905407113	 0.096127
