18
gdb 129869	2.95505	1.50778	1.06248	3.2544	78.78	-0.1983	0.0411	0.2393	1126.6448	0.149942	-398.129581	-398.121432	-398.120488	-398.162766	31.116	
N	 0.2152198434	 1.308357632	-0.2677095077	-0.606842
C	 0.0287123456	-0.0610232907	-0.091625162	 0.392934
C	-1.1134453449	-0.8385578014	-0.0289832017	-0.320383
C	-0.6316104991	-2.1322041614	 0.2659387623	 0.010224
N	 0.6874426013	-2.174338851	 0.3804881541	-0.280661
N	 1.0843249872	-0.8844235571	 0.1557322743	-0.00809
C	 2.4533391661	-0.4864820276	 0.2470609748	 0.028749
C	 3.50495091	-1.4717441877	-0.1521244749	-0.26653
C	 3.2491312405	-0.2721657658	-1.0285004794	-0.28131
H	 1.0494534959	 1.5340254745	-0.7957271759	 0.254289
H	-0.5919886243	 1.756835659	-0.6780915177	 0.254228
H	-2.1310881187	-0.5161124347	-0.1782915638	 0.089421
H	-1.2039364963	-3.0402460475	 0.3932661641	 0.10435
H	 2.6632147592	 0.1759283778	 1.0826061095	 0.113506
H	 4.4120471302	-1.4991491731	 0.4396578354	 0.121893
H	 3.1476992142	-2.4348802737	-0.4920115626	 0.151313
H	 2.7339809789	-0.4430291218	-1.9671817001	 0.125573
H	 3.9778235607	 0.5308936202	-1.0433849687	 0.117336
