15
gdb 29488	3.26081	1.68012	1.11647	0.4066	74.02	-0.1989	0.0023	0.2011	1030.1776	0.114445	-420.657698	-420.650686	-420.649742	-420.68912	27.061	
C	-0.0153149562	 1.533376787	 0.0292779897	-0.505994
C	-0.0065640476	 0.038457093	 0.0373243413	 0.061452
C	-0.0338076279	-0.8014979816	-1.044768125	-0.09634
O	-0.0156023663	-2.1390446029	-0.7047557826	-0.207567
C	 0.0243505472	-2.1481345884	 0.6486509899	 0.292231
C	 0.0312318436	-0.873080919	 1.1356552159	 0.225484
O	 0.0713706975	-0.8820001607	 2.4916548258	-0.206121
C	 0.0891718348	-2.2146200802	 2.8376765807	-0.010962
C	 0.0621566844	-3.0457703904	 1.751260968	-0.354763
H	 0.8796199183	 1.9406325868	 0.5125246732	 0.137057
H	-0.0507245282	 1.9183377012	-0.9931745875	 0.128541
H	-0.8815848683	 1.9305123378	 0.5697455643	 0.137041
H	-0.0664766948	-0.6000660697	-2.1030610522	 0.136461
H	 0.1214648717	-2.4101639613	 3.8964742934	 0.137431
H	 0.0691184218	-4.1230278115	 1.7716419351	 0.126051
