23
gdb 116297	2.15523	1.27722	0.89695	1.9205	82.25	-0.2394	0.0769	0.3163	1401.8168	0.205178	-425.423346	-425.413187	-425.412243	-425.459283	36.328	
C	-0.1415358095	 1.6998531196	 0.0827243401	-0.389364
C	-0.083717709	 0.1904092243	 0.3422280191	-0.192526
C	-1.3664206794	-0.5402541482	-0.0578573631	-0.011747
C	-1.7105825389	-0.5327280204	-1.5536727192	-0.071066
O	-2.6467177121	-1.5900513708	-1.7431642511	-0.26622
C	-2.5268801576	-2.5338736552	-0.6811921552	-0.083698
C	-1.3838042969	-2.0525172819	 0.2297333323	 0.071875
O	-0.1277944763	-2.5930037431	-0.1492510984	-0.245698
C	 0.1013336939	-3.9029514942	 0.3124848709	-0.234417
H	 0.7762877706	 2.1911006649	 0.4202322282	 0.112948
H	-0.2605380887	 1.922594915	-0.9828838108	 0.120155
H	-0.9810943098	 2.1641616928	 0.6127501154	 0.112093
H	 0.7600841081	-0.2536152176	-0.1940063883	 0.116533
H	 0.1063514871	 0.0127883043	 1.4083001122	 0.091891
H	-2.21623845	-0.1053071308	 0.4856901672	 0.076374
H	-2.1788157449	 0.3967291769	-1.8913527886	 0.101845
H	-0.8046659242	-0.704445026	-2.1558353572	 0.09654
H	-3.4777122813	-2.5838188172	-0.1318035997	 0.092765
H	-2.3203439423	-3.5297628724	-1.0923440094	 0.100636
H	-1.5796411192	-2.2776104509	 1.2886855837	 0.060984
H	 0.0467283184	-3.9594922881	 1.411294271	 0.104392
H	-0.6138946858	-4.6286140348	-0.1028023246	 0.106693
H	 1.1070782778	-4.1870499562	-0.0066515944	 0.129013
