19
gdb 53292	2.74704	1.04847	0.83655	2.2734	85.3	-0.227	0.0379	0.2649	1430.3547	0.159179	-381.989372	-381.979875	-381.978931	-382.025399	33.647	
C	-0.0646059339	 1.4513886859	 0.2559734717	-0.501325
C	-0.0621428379	 0.0016485257	 0.1343489181	 0.106228
C	-0.0790091609	-1.198925951	 0.0407694675	 0.123295
C	-0.0856724109	-2.6274496549	-0.1057965606	-0.259886
N	-0.6417113031	-3.4423337775	 1.0068063863	-0.338315
C	-1.341747184	-3.4328285976	-0.2772404872	-0.025049
C	-2.7120733215	-2.8239044921	-0.2868406721	-0.005667
C	-3.7197890267	-3.3098900637	 0.6921680675	-0.235898
N	-3.1481484514	-1.9600791976	 0.8113566584	-0.313513
H	 0.5254042156	 1.7817239318	 1.1180830434	 0.148436
H	 0.3589744957	 1.9245525822	-0.6368417459	 0.147874
H	-1.0838735248	 1.8320242785	 0.3827767282	 0.158103
H	 0.7933120064	-3.0351682414	-0.6022649896	 0.10653
H	-0.0966015025	-4.2916185321	 1.1232351536	 0.238698
H	-1.2391484673	-4.3098362884	-0.9165663008	 0.089679
H	-3.0483413807	-2.5028073483	-1.2709352822	 0.091991
H	-4.7716099327	-3.3473092449	 0.4227915568	 0.112429
H	-3.3969323559	-4.0686628783	 1.4007208421	 0.110228
H	-2.4221264935	-1.9733013762	 1.5269502947	 0.246162
