19
gdb 104528	2.15064	1.39244	1.02272	2.8683	75.12	-0.2418	0.0214	0.2632	1214.5296	0.158858	-419.184101	-419.174684	-419.17374	-419.218952	33.708	
C	-1.5609968735	-0.2117602975	-0.0995131791	-0.338066
N	-0.1155960535	-0.0518139325	 0.0287447507	-0.326491
C	 0.6790721415	-0.607069024	-1.0425186954	 0.259651
C	 0.4116148505	-0.0173136275	-2.4572394831	-0.407834
C	 0.6209553784	 1.4270821522	-2.4777088892	 0.256268
N	 0.7912205255	 2.5697562617	-2.4343090704	-0.308103
C	 2.1921355762	-0.7121287342	-0.7366126124	-0.114107
O	 2.197810299	-2.1140306973	-1.0786669561	-0.272879
C	 0.7577021152	-2.1532099489	-1.089816059	-0.104848
H	-2.0120916091	 0.2821960565	-0.9758657568	 0.107767
H	-1.8067863976	-1.2781530628	-0.1513467931	 0.128457
H	-2.0429075159	 0.1928712	 0.7942945903	 0.133764
H	 0.1177904451	 0.9284717911	 0.1575233089	 0.236472
H	 1.0783449651	-0.4909938809	-3.1855076339	 0.16243
H	-0.6151943084	-0.2321365213	-2.7722898456	 0.151332
H	 2.8771857498	-0.1295720705	-1.3620856601	 0.114103
H	 2.4169429062	-0.5436333796	 0.3231708412	 0.110509
H	 0.3490322882	-2.6239115401	-0.1872267481	 0.10894
H	 0.3658250071	-2.6559552645	-1.9815738288	 0.102636
