20
gdb 69826	3.12525	1.57879	1.29513	1.2092	78.38	-0.2167	0.0824	0.2991	1044.4068	0.172169	-403.099792	-403.09212	-403.091176	-403.131298	31.603	
C	 0.1182072401	 1.4832919199	-0.0958510528	-0.451709
C	-0.0433871926	-0.0060670664	 0.0504571919	 0.452669
C	-0.9709456714	-0.5882714724	 1.0919293741	-0.388068
C	 0.5456208455	-0.7446230542	 1.2268607694	-0.063089
N	 1.2829244559	-1.9574025638	 0.9735681686	-0.082072
C	 0.6582143163	-3.2711051329	 0.9779999223	-0.250989
C	 1.0603344402	-2.6299782002	-0.3101462482	-0.019641
C	 0.0119830824	-2.0297141684	-1.23019879	-0.12865
O	 0.0534934116	-0.6076611383	-1.2168706538	-0.292325
H	 1.077535089	 1.7168469058	-0.5680572548	 0.12775
H	-0.6800477974	 1.897588185	-0.7202493733	 0.124387
H	 0.082810518	 1.9729448257	 0.8809920338	 0.115401
H	-1.4596117576	 0.096145463	 1.7770415425	 0.112107
H	-1.5704179171	-1.455494203	 0.8442656576	 0.113623
H	 1.0131951559	-0.1474698848	 2.0046030735	 0.096702
H	 1.2603705083	-4.0670375982	 1.4080029321	 0.116104
H	-0.4072563195	-3.3459934182	 1.1880909838	 0.110456
H	 1.9781344713	-2.9514951041	-0.7975145128	 0.094564
H	 0.209013529	-2.3137989458	-2.2665616307	 0.116141
H	-0.998290698	-2.3834719386	-0.9805294434	 0.096638
