27
gdb 121830	3.64818	0.62122	0.61043	1.351	92.87	-0.2614	0.0752	0.3366	2007.444	0.249166	-390.699548	-390.6873	-390.686356	-390.73753	44.467	
C	-0.1426164681	 1.4813813201	 0.2328326118	-0.405278
C	 0.034483827	-0.0146812525	-0.0508949514	-0.172903
C	 0.7747714085	-0.4093832886	-1.3583290102	 0.264541
C	 0.0133371461	 0.1290757558	-2.5838699244	-0.410728
C	 2.2076356256	 0.1549507382	-1.3492293874	-0.410727
C	 0.8075861793	-1.9615783146	-1.3841586295	-0.191832
C	 1.4895326401	-2.6333298577	-2.5818159505	-0.195351
C	 1.450848842	-4.1535869533	-2.4819397032	-0.069584
O	 2.1016266297	-4.6857353196	-3.6268840213	-0.422825
H	 0.8161243668	 2.0011473678	 0.3211063318	 0.116922
H	-0.7244887409	 1.98324808	-0.5460665467	 0.11692
H	-0.6763261855	 1.6239524561	 1.1780732878	 0.111338
H	 0.5705078441	-0.4697333095	 0.7927627572	 0.087434
H	-0.9566167454	-0.4875747529	-0.0665168499	 0.087434
H	-0.0449948935	 1.2214721915	-2.5702812199	 0.111043
H	 0.5071248739	-0.153678774	-3.5181031589	 0.114679
H	-1.0109169231	-0.2603358081	-2.6157533621	 0.104611
H	 2.77339764	-0.2157728071	-0.4865395445	 0.10461
H	 2.7548592919	-0.127104946	-2.2534180589	 0.114679
H	 2.2067070604	 1.2480206121	-1.3032372648	 0.111044
H	 1.2990793156	-2.3052201837	-0.4628953905	 0.085991
H	-0.2286722724	-2.3232018389	-1.3226808688	 0.085988
H	 1.0070887596	-2.3461001595	-3.522286071	 0.107404
H	 2.5386512267	-2.3284357294	-2.6600853617	 0.107405
H	 1.9496534725	-4.4786798921	-1.553753875	 0.081722
H	 0.4044080214	-4.4965147563	-2.4237737294	 0.081723
H	 2.0788264278	-5.6450626177	-3.5665999287	 0.283741
