18
gdb 68015	2.92132	1.57588	1.2266	3.6279	72.16	-0.2492	0.0149	0.2641	1042.2753	0.147901	-439.107576	-439.099594	-439.09865	-439.139354	32.236	
C	-0.0573485553	 1.5194005356	-0.0220992534	-0.501786
C	 0.0696506819	 0.0201108638	 0.0125204651	 0.319001
C	 1.0456331858	-0.7872084536	-0.8959900009	-0.300462
C	 0.6832801946	-1.9158060894	 0.1189868101	 0.306805
O	 1.3499423865	-3.1108311452	 0.2334025985	-0.482119
C	 0.6591290864	-0.784651637	 1.2164290309	-0.318705
C	-0.8282580176	-2.0357882534	-0.1082658354	 0.367961
O	-1.4792934631	-3.0552376638	-0.0904551737	-0.400746
N	-1.1987681057	-0.7185762487	-0.2780432221	-0.351227
H	 0.9132442615	 1.9868039511	 0.1647618713	 0.131095
H	-0.4206330858	 1.8584960217	-0.9973841855	 0.133988
H	-0.7534438132	 1.876625258	 0.745342592	 0.12279
H	 0.7645063733	-0.9178425858	-1.9431689728	 0.109426
H	 2.0826396621	-0.4593220471	-0.7962649116	 0.109897
H	 0.6668315597	-3.7996391572	 0.204857884	 0.293707
H	 1.663332586	-0.466374545	 1.5065492385	 0.109707
H	 0.0221972652	-0.9252795523	 2.094153207	 0.101687
H	-2.0963597422	-0.3851899617	 0.0444750779	 0.24898
