17
gdb 7868	3.40775	1.72115	1.16833	3.7689	72.44	-0.2024	0.0074	0.2098	1015.9488	0.141516	-363.928472	-363.92014	-363.919196	-363.960978	30.565	
C	 0.0857822931	 1.5250916193	 0.0244973209	-0.495444
C	 0.0042744487	 0.0342302261	-0.0088294698	 0.18098
C	-1.0846272742	-0.7513674103	 0.0399091126	 0.275028
C	-2.5353669388	-0.4193194994	 0.1401926	-0.505112
N	-0.7111819152	-2.1140330899	-0.0189671757	-0.366688
C	 0.6553303076	-2.281043836	-0.1096334584	 0.4116
O	 1.2455201513	-3.3351288837	-0.1739230332	-0.373659
C	 1.2232688992	-0.8538117222	-0.1090612443	-0.43966
H	 0.6820913419	 1.8764651315	 0.876995568	 0.124757
H	 0.57030739	 1.9218081524	-0.8775336609	 0.12476
H	-0.9006187694	 1.990564098	 0.0993423204	 0.121231
H	-3.0917593046	-0.8106894038	-0.7206386562	 0.13515
H	-2.9812313975	-0.8601411461	 1.040537188	 0.135063
H	-2.6916128338	 0.6595191806	 0.1802734225	 0.140401
H	-1.3499666609	-2.8918487409	 0.0017513394	 0.25405
H	 1.8090634772	-0.6923078693	-1.022487784	 0.138779
H	 1.9208548953	-0.7370978763	 0.7295466309	 0.138764
