18
gdb 56324	2.43691	0.97833	0.80779	2.7239	69.92	-0.2575	0.0061	0.2636	1446.105	0.145365	-476.279946	-476.269545	-476.268601	-476.31833	34.511	
C	-0.6785153863	 1.2937029215	 0.0503612886	-0.484659
C	-0.6876936112	-0.2044373041	 0.3013091373	 0.400451
O	-0.4616434919	-0.6939740931	 1.3945133228	-0.373909
N	-0.9421552041	-0.983016133	-0.794419415	-0.304159
C	-0.9132237363	-2.4318368208	-0.7118275172	-0.165066
C	-2.1928079258	-3.0144745696	-0.1131497161	-0.089373
O	-3.3094862821	-2.7223278687	-0.9599580605	-0.18024
C	-4.1509244476	-1.7423120931	-0.5772666834	 0.163851
O	-5.0429226559	-1.3527893202	-1.2694403828	-0.27837
H	-1.1175244955	 1.7973965853	 0.9129481546	 0.156412
H	 0.3584872268	 1.6327334286	-0.0406008684	 0.155082
H	-1.2177975448	 1.5838428809	-0.8552232484	 0.12243
H	-1.1569683328	-0.550379204	-1.6764564394	 0.258161
H	-0.7608272128	-2.8333338757	-1.7170591295	 0.121946
H	-0.0707243216	-2.7321629198	-0.0811614127	 0.14037
H	-2.1206240152	-4.1034537838	-0.0451844074	 0.125468
H	-2.3500575002	-2.6054522828	 0.8902701606	 0.143562
H	-3.9293948827	-1.3590897876	 0.4372217769	 0.088045
