18
gdb 103616	2.76812	1.25932	1.0832	3.4464	70.11	-0.2384	0.0221	0.2605	1182.0945	0.146706	-476.236562	-476.227105	-476.226161	-476.270905	34.015	
C	 0.0670340114	 1.3776503703	 0.0934969838	-0.346156
N	 0.0193905141	-0.0613543884	 0.1093092688	-0.084121
C	-1.1056515869	-1.0078902422	 0.1205134555	-0.233778
C	-0.0601997759	-2.1525119465	 0.0096550446	 0.258261
O	-0.0625153102	-3.003999881	 1.1234869592	-0.474755
C	 0.0342926175	-2.9540099653	-1.2844560639	-0.132011
O	 1.2259472238	-3.7279344034	-1.2326475794	-0.432064
C	 0.9982923253	-1.0091884504	 0.018943574	 0.36838
O	 2.2026916533	-0.9538584332	-0.0896877489	-0.405342
H	 1.1167974628	 1.6753160576	 0.0383320911	 0.163559
H	-0.4637565583	 1.7869164571	-0.7749139677	 0.13064
H	-0.3747938667	 1.8025325724	 1.0024000798	 0.135579
H	-1.6679501982	-1.0296533805	 1.0584324089	 0.127556
H	-1.7894571581	-0.8939958189	-0.7288894082	 0.110543
H	 0.5719055671	-3.7037933085	 0.9129642846	 0.292353
H	-0.7968951352	-3.6628653376	-1.3596715391	 0.117901
H	 0.0092309799	-2.2907238199	-2.1616645024	 0.09875
H	 1.9620551342	-3.1038908315	-1.1507170407	 0.304704
