18
gdb 39720	5.02565	1.39555	1.27274	1.5846	80.7	-0.2172	-0.0061	0.2111	1013.1754	0.149011	-364.706841	-364.700234	-364.69929	-364.737398	28.099	
C	-0.0141593585	 1.5165822128	 0.0088601297	-0.373742
C	 1.3167895033	 0.7588715401	-0.0076541899	-0.373745
C	 0.0238577422	 0.0339718345	 0.0740952735	 0.455337
C	-0.5663331806	-1.0226510781	 0.9871080812	-0.172863
C	-1.7692663402	-1.0774614135	-0.012852557	-0.026653
C	-2.200199759	-2.5191258718	-0.1743961324	-0.097492
C	-1.0411014269	-3.1790010427	-0.188925271	-0.097479
C	-0.0184035744	-2.0742517136	-0.0346096047	-0.026658
N	-0.5296753547	-0.9157671356	-0.9607968792	-0.194647
H	-0.2699373694	 2.0775805354	 0.902391346	 0.112187
H	-0.3347710019	 1.9766393169	-0.920326027	 0.122331
H	 1.8585460795	 0.7279839633	-0.9475349107	 0.12233
H	 1.9463907591	 0.8158165512	 0.8748987528	 0.112187
H	-0.5846856976	-1.0787953605	 2.0828543314	 0.064621
H	-2.4960962515	-0.2670737715	-0.0570813862	 0.075595
H	-3.2132130007	-2.8795153573	-0.2799091546	 0.111548
H	-0.8360435849	-4.232841495	-0.3096804518	 0.111548
H	 1.0484237465	-2.2850113545	-0.10112954	 0.075594
