20
gdb 107439	2.8175	1.48672	1.21496	2.6986	77.77	-0.2381	0.0782	0.3163	1091.4973	0.17261	-403.105099	-403.097214	-403.09627	-403.137419	31.662	
O	 0.0652224133	 1.3988113687	 0.0725887062	-0.419298
C	 0.025721971	-0.0057634954	-0.0994994646	-0.127861
C	-1.3790206266	-0.542529186	 0.0326463091	 0.32706
C	-1.9191080615	-1.0432268356	 1.3475865268	-0.33501
C	-1.7219072548	-2.0047219461	 0.1953919978	-0.085477
C	-2.898253614	-2.3011650075	-0.7391804306	-0.265208
C	-3.1983733065	-0.9756749877	-1.4456927927	-0.014056
C	-3.6972507775	 0.1844346901	-0.6657926579	-0.256203
N	-2.2646008066	 0.0692516697	-0.9705673662	-0.16184
H	-0.5897168459	 1.746407872	-0.5459298083	 0.286556
H	 0.4277335592	-0.2935109418	-1.0848164557	 0.084326
H	 0.6754524789	-0.4409980531	 0.666842231	 0.098803
H	-1.2055512724	-1.104440075	 2.1633964053	 0.116176
H	-2.9215939294	-0.7947108143	 1.6756683527	 0.112816
H	-0.9466016232	-2.7584922916	 0.2877602453	 0.089156
H	-2.6016781082	-3.0511712332	-1.4786986626	 0.112062
H	-3.7724392062	-2.7008868703	-0.2133108574	 0.111555
H	-3.3804172005	-1.0071883055	-2.5170953062	 0.092655
H	-4.1961837685	 1.0023595188	-1.179184742	 0.115775
H	-4.0458509308	 0.0272986138	 0.34933893	 0.118011
