16
gdb 42955	2.51098	2.11501	1.42947	2.8339	67.22	-0.2545	-0.02	0.2345	904.8211	0.126245	-437.862416	-437.855694	-437.85475	-437.89374	26.266	
O	 0.0311012045	 0.0188943823	 0.3422043952	-0.312053
C	-0.0092097746	 1.1943395456	 0.1074488885	 0.372507
C	-1.2805689542	 2.0501637517	-0.0077278828	-0.185732
C	-1.9746885362	 2.2782623895	 1.3487682671	-0.08583
O	-1.2493565288	 3.5203987484	 1.5306673033	-0.291714
C	-0.7740279046	 3.4920415368	 0.1616242083	 0.095413
C	 0.7409479808	 3.428869174	-0.0154218108	-0.048739
C	 1.5588241335	 2.8279475362	 1.0648513708	-0.247622
N	 1.1480172086	 2.0126029818	-0.1013387571	-0.128806
H	-1.8940708201	 1.7650402023	-0.8626110562	 0.114062
H	-3.0540734647	 2.4539233477	 1.2728551435	 0.113264
H	-1.7741542211	 1.5488080285	 2.1392434378	 0.128818
H	-1.2327755138	 4.2827576573	-0.4391882237	 0.086777
H	 1.2004401392	 4.094448054	-0.7396938932	 0.104735
H	 2.6236089068	 3.0311385805	 1.1193945062	 0.134962
H	 1.0682539347	 2.6396070034	 2.0143761832	 0.149958
