20
gdb 90831	3.04907	1.88294	1.44483	1.5797	82.5	-0.2266	0.0925	0.3191	965.6679	0.173114	-365.920889	-365.91396	-365.913016	-365.951794	29.151	
C	-0.1691299156	 1.5018081477	-0.031251136	-0.405072
C	 0.0573886329	-0.0073860489	 0.047745537	-0.10525
C	 1.0696305624	-0.5706461619	-1.0294864076	-0.242388
C	 2.1727937381	-1.1787061153	-0.1354441651	-0.014747
C	 1.4862967294	-1.8840913581	 1.0340273255	-0.081949
C	 2.3321110858	-1.1699181393	 2.1128976742	-0.026021
C	 1.1124358166	-0.4723246829	 2.7662246384	-0.347043
C	 0.8568945818	-0.470143473	 1.2502757426	 0.352622
N	 2.3494880754	-0.1337382341	 0.9660644633	-0.178929
H	 0.7808068516	 2.0339847448	 0.0753869435	 0.135812
H	-0.6142103628	 1.7824452479	-0.9913932468	 0.111028
H	-0.8428523116	 1.8441240922	 0.7614877079	 0.111749
H	-0.9012287194	-0.5341332773	-0.0106722842	 0.072602
H	 0.6105460037	-1.3179931062	-1.6835921979	 0.099273
H	 1.466541586	 0.2320543435	-1.6585947582	 0.108644
H	 3.0730301523	-1.5527520795	-0.6291338301	 0.062111
H	 0.9769236829	-2.8529636834	 1.089043257	 0.05781
H	 3.2560944535	-1.4975967864	 2.5914525273	 0.079684
H	 0.4530194311	-1.093386335	 3.3775123539	 0.099793
H	 1.3046115555	 0.498529015	 3.2305831054	 0.11027
