19
gdb 80958	2.28829	1.42401	1.2489	3.677	76.6	-0.2478	-0.0308	0.217	1116.5573	0.157462	-422.982706	-422.973777	-422.972833	-423.016241	33.543	
C	 0.5332387534	 1.2277906105	 0.3288148441	-0.518225
C	 0.2007593375	-0.223111706	 0.1132900872	 0.264919
C	 0.5998772965	-1.1290853596	-1.0976925878	-0.302042
C	-0.2329121853	-2.0619318186	-0.166578124	-0.107712
C	 0.5439769059	-1.4420043046	 1.0391260498	 0.150749
O	 1.8751240826	-1.7781593698	 1.3069497904	-0.449746
C	-1.2353909984	-0.8823088951	-0.0396712928	-0.101346
C	-2.240400931	-0.8026722158	 1.0734583828	 0.116852
O	-2.3670856036	-1.5942451861	 1.9758702909	-0.246932
H	 1.6169081386	 1.3545174474	 0.4272707401	 0.130619
H	 0.1950794516	 1.8487738046	-0.5076047669	 0.121298
H	 0.0716916141	 1.6093134698	 1.245656512	 0.127903
H	 0.154710174	-0.8747223972	-2.0635030626	 0.097979
H	 1.6625871968	-1.3524419484	-1.2318993757	 0.080641
H	-0.489280064	-3.1080160183	-0.3295893722	 0.085606
H	 0.0323046683	-1.4768071253	 1.9987852081	 0.110026
H	 2.3651630555	-1.8557693479	 0.48258358	 0.282062
H	-1.7227281959	-0.5815578577	-0.9749508085	 0.082644
H	-2.9163500866	 0.0821424382	 1.001062665	 0.074706
