20
gdb 3014	3.33079	2.29796	1.47477	0.9629	71.47	-0.2292	0.0895	0.3188	892.5628	0.182447	-291.01782	-291.009529	-291.008585	-291.05003	30.72	
C	-0.0781783362	 1.5766563179	-0.0181531562	-0.390879
C	-0.0534498381	 0.0459809162	 0.0020667871	-0.158844
C	-1.4297723355	-0.6374501033	 0.0043779944	 0.072497
C	-1.2774054231	-2.1588485489	-0.0658688312	-0.388932
N	-2.1671226102	-0.2912779565	 1.224144714	-0.060239
C	-3.0504905985	 0.8692746212	 1.1730651804	-0.219
C	-3.6095617245	-0.5081790605	 1.1977400283	-0.225823
H	 0.9379336233	 1.9774270656	-0.0903365962	 0.109496
H	-0.6436919899	 1.9571181596	-0.876690795	 0.106898
H	-0.5301288293	 1.9840391587	 0.8899008355	 0.128879
H	 0.4971179836	-0.3173494701	-0.8747737289	 0.089217
H	 0.4985863545	-0.3010298556	 0.8841258264	 0.102283
H	-1.9890399493	-0.2997381085	-0.8911063668	 0.048106
H	-2.2525284972	-2.6545997821	-0.0838502603	 0.111017
H	-0.731426787	-2.4518869784	-0.9677375297	 0.109789
H	-0.7280784812	-2.5264681557	 0.8067743474	 0.12314
H	-3.068682417	 1.493461949	 2.0623032915	 0.113466
H	-3.1255239441	 1.4142436658	 0.2336214449	 0.10923
H	-4.0570109822	-0.8737530996	 0.2739869325	 0.106307
H	-4.046853998	-0.915807885	 2.104847412	 0.113391
