18
gdb 80245	2.3975	1.65129	1.28861	3.3285	73.18	-0.2485	0.0277	0.2762	1042.5176	0.148432	-439.073125	-439.065177	-439.064233	-439.105206	31.243	
C	-0.0940915183	 1.6398917712	-0.019909198	-0.437123
C	 0.0108224641	 0.1263957189	 0.0099226277	 0.021514
C	 1.1634246409	-0.6056177743	-0.7243545342	 0.016597
O	 2.3618053821	-0.0228568976	-0.1402968271	-0.26289
C	 2.0433030652	-0.0156079069	 1.2098340547	 0.444371
N	 2.7655701211	 0.4046708501	 2.1507970286	-0.579061
C	 0.6678220119	-0.6247813923	 1.2355776257	-0.168634
C	 0.9297297284	-1.8084780504	 0.2410224606	 0.124358
O	-0.2210531947	-2.5830795114	 0.0370851432	-0.433948
H	 0.8659982497	 2.1209333496	 0.1829382055	 0.137474
H	-0.443467066	 1.981572498	-1.0001541263	 0.118108
H	-0.8125281252	 1.9907960323	 0.7279701069	 0.125477
H	-0.9395404196	-0.3510375784	-0.2294207039	 0.105453
H	 1.2778954965	-0.6775176507	-1.805059399	 0.084672
H	 3.6558087552	 0.7553021905	 1.7907584171	 0.222496
H	 0.190164142	-0.7556878852	 2.2021395122	 0.100047
H	 1.8179164651	-2.421334882	 0.438657175	 0.08919
H	-0.0321329185	-3.2271496913	-0.6529556187	 0.291899
