15
gdb 28147	5.1045	1.26916	1.02284	1.6964	74.76	-0.1765	0.	0.1765	1092.0875	0.115334	-416.853375	-416.84641	-416.845466	-416.88444	27.749	
O	 0.078438002	 1.2941397325	 0.1392560657	-0.426047
C	 0.0682612211	-0.044509709	 0.017790792	 0.411294
N	 0.0892481875	-0.728671867	-1.102241642	-0.450708
C	 0.0656627651	-2.03751475	-0.6683540631	 0.262065
C	 0.0309510534	-2.1234895446	 0.6946488373	 0.30437
N	 0.032506638	-0.8134973265	 1.1499760256	-0.446332
C	 0.0066336618	-3.5057023702	 1.1315453173	-0.1997
C	 0.0269191218	-4.274740092	 0.017975541	-0.091256
C	 0.0665725862	-3.4201731673	-1.2450403672	-0.406427
H	 0.1040758681	 1.6428825214	-0.7606920402	 0.31484
H	 0.0126812817	-0.4626718095	 2.0917147852	 0.270754
H	-0.0222337383	-3.8595855733	 2.1535950962	 0.096945
H	 0.0169684425	-5.3557581742	-0.0046972153	 0.09657
H	-0.7982424896	-3.6214902862	-1.8906976527	 0.131815
H	 0.9583760586	-3.638480384	-1.8469900799	 0.131816
