18
gdb 22416	3.89187	0.9087	0.82084	2.0949	77.45	-0.2393	0.008	0.2472	1401.6957	0.145358	-439.007754	-438.998759	-438.997815	-439.041913	33.931	
O	-0.082477198	 1.3174183342	 0.4732510194	-0.39424
N	 0.0640791934	-0.0782757011	 0.3479499681	-0.232111
C	-1.010520722	-0.6091954601	-0.0566775472	 0.418936
C	-2.3967827204	-0.1203160387	-0.4386114158	-0.384335
C	-2.7346433127	-1.5885268847	-0.7606242554	 0.338769
C	-4.057729992	-2.2787590521	-0.5593325124	-0.394714
C	-3.5135156064	-2.0377358479	-1.9505096358	 0.04632
O	-4.0596210988	-1.0248380121	-2.7427113138	-0.418235
C	-1.3307693868	-2.0683206735	-0.3325482337	-0.399964
H	 0.7917514161	 1.5850991965	 0.7758389801	 0.305342
H	-2.9562828884	 0.3307685706	 0.3873732631	 0.123314
H	-2.430064505	 0.5630803994	-1.2918380543	 0.14269
H	-4.0662936457	-3.2942023464	-0.1745938669	 0.112652
H	-4.8930480989	-1.6606731367	-0.2441531893	 0.11625
H	-3.1377601404	-2.9019318691	-2.5009605532	 0.085429
H	-4.9288599135	-1.3119667801	-3.0410545876	 0.289843
H	-0.7298606159	-2.5392217893	-1.1174467843	 0.122329
H	-1.3107123345	-2.709877239	 0.5547591889	 0.121727
