25
gdb 83945	2.09347	1.57907	1.35006	0.0519	91.34	-0.2647	0.0803	0.345	1173.1344	0.231923	-352.365754	-352.35695	-352.356006	-352.398426	35.739	
C	-0.1058528144	 1.6232906886	-0.0085296711	-0.436599
C	 0.0714547693	 0.1109111767	 0.0063562716	 0.059115
C	 1.0663259963	-0.6139825499	-0.9518811324	-0.028178
C	 2.3920898698	 0.1576732316	-1.0385207136	-0.216876
C	 3.0793571345	 0.2652400232	 0.3510548878	-0.197325
C	 2.0960753897	 0.1484431524	 1.5486950473	-0.216875
C	 0.8247616832	-0.62151329	 1.1594129258	-0.028177
C	 1.1728809778	-1.741118875	 0.1257704116	 0.042684
C	 0.1603689613	-2.8763966883	 0.0058737676	-0.429155
H	 0.8353935572	 2.1689848445	 0.1010711809	 0.116166
H	-0.5653239756	 1.9501563562	-0.9486503929	 0.110651
H	-0.7659921725	 1.9438960208	 0.8058478803	 0.110652
H	-0.916544344	-0.344940907	-0.1083142384	 0.066129
H	 0.6979289561	-0.8904098676	-1.9453384006	 0.046702
H	 3.0702720499	-0.3462087728	-1.7370858435	 0.089153
H	 2.2057975236	 1.1512386875	-1.4622985604	 0.095654
H	 3.8128612503	-0.5425572808	 0.432096658	 0.103807
H	 3.65713051	 1.1922845542	 0.4204682599	 0.090297
H	 2.5993531341	-0.360892367	 2.3788217283	 0.089153
H	 1.8180789338	 1.1391493337	 1.9264298719	 0.095654
H	 0.2417163189	-0.9046306879	 2.0420162888	 0.046701
H	 2.171170656	-2.1784542725	 0.2384299422	 0.054397
H	-0.8663047317	-2.5152082314	-0.1103112447	 0.115152
H	 0.3855579467	-3.5086276568	-0.8604889192	 0.110559
H	 0.1845526196	-3.5148882924	 0.8962411752	 0.110559
