17
gdb 9634	4.2663	1.19954	1.07823	1.5899	71.85	-0.2422	0.031	0.2732	1121.4076	0.140294	-363.798941	-363.790019	-363.789075	-363.83243	32.645	
C	 0.0870575033	 1.514400694	-0.1954947807	-0.457609
C	-0.0122624352	 0.0285194315	 0.10255296	 0.126052
N	 1.2742981647	-0.7178520548	 0.1291464533	-0.376618
C	 0.4948292294	-0.5968864267	 1.3716762482	-0.060283
C	 1.1816660722	 0.1528746365	 2.4910680759	-0.074265
O	 2.2651783307	-0.6047013	 3.0027632115	-0.417679
C	-1.1385192693	-0.6301634332	-0.5161344142	 0.277779
C	-2.0722332563	-1.1662388953	-1.0530044576	-0.449479
H	 1.0097897677	 1.9323291229	 0.2085009169	 0.13237
H	 0.087836057	 1.6747935071	-1.2775761241	 0.133092
H	-0.7664706976	 2.0530055818	 0.2269791685	 0.128676
H	 1.1449835136	-1.6378415987	-0.2839201276	 0.241663
H	-0.0423405013	-1.4844267441	 1.6992788577	 0.100819
H	 1.5143839412	 1.1419258639	 2.1497676246	 0.091829
H	 0.4877815248	 0.3027527719	 3.3246262357	 0.113021
H	 2.8458001539	-0.7789396262	 2.2523684426	 0.2911
H	-2.8989489088	-1.6428320905	-1.5189972508	 0.199532
