21
gdb 81352	2.47821	1.43721	1.35957	2.0987	77.27	-0.2552	0.0625	0.3177	1094.0311	0.183986	-424.213385	-424.205037	-424.204093	-424.245716	33.716	
C	-0.2302609867	 1.4502038963	 0.0232889719	-0.438237
C	-0.0219166744	-0.0586678795	 0.0648114974	 0.037497
C	 1.0820359644	-0.6584549586	-0.8765010181	-0.074817
C	 2.1078724473	-0.3106251227	 0.2416610938	-0.25324
C	 0.9076092279	-0.6391434955	 1.1746962116	-0.043105
C	 0.7739527069	-2.155126602	 0.9395897292	 0.116463
O	-0.4625929185	-2.6775113611	 1.3590114897	-0.452199
C	 0.9173109239	-2.1651647279	-0.6427231245	 0.09281
O	-0.2037225961	-2.7727750952	-1.2745664215	-0.447805
H	 0.703877592	 2.0154592659	 0.0819975785	 0.118672
H	-0.7348543807	 1.7458810389	-0.9033210374	 0.113908
H	-0.8626301778	 1.7709758637	 0.8579691793	 0.122047
H	-1.0024318105	-0.5474756195	 0.0225755235	 0.057228
H	 1.2090018224	-0.3294418376	-1.9097427321	 0.061922
H	 3.0020599622	-0.9377259043	 0.3200615058	 0.093885
H	 2.4002298861	 0.7384187708	 0.2516607682	 0.107066
H	 0.8555886891	-0.2943748162	 2.2078613327	 0.064853
H	 1.5962240663	-2.7040034931	 1.4195418211	 0.063504
H	-0.8081486552	-3.1650763396	 0.5963790866	 0.282338
H	 1.787845295	-2.7372966148	-0.9735795778	 0.087103
H	-0.8727314436	-2.094040148	-1.416361158	 0.290105
