17
gdb 43764	3.87837	1.13994	1.02396	2.7631	73.31	-0.2517	-0.0159	0.2358	1170.4808	0.136397	-417.954569	-417.946771	-417.945827	-417.987567	29.617	
O	 0.3763521822	-0.0196192914	 0.1311558891	-0.290325
C	 0.2066926478	 1.1576044562	 0.1143504467	 0.420091
C	-1.0089668058	 2.0837672504	-0.0699238258	-0.465661
C	 0.0167623948	 3.2218886607	 0.0026506685	 0.344859
C	 0.7798032752	 3.116656656	 1.2540392491	-0.289482
N	 1.1961423735	 2.2203104401	 0.1261979737	-0.206438
C	 0.1051510649	 4.3939740907	-0.9039309535	-0.090969
C	-0.5798992041	 4.4330341044	-2.2197426744	-0.248224
N	-1.0731398737	 5.2616086236	-1.1063998526	-0.320178
H	-1.4645968592	 1.9323492701	-1.0510725189	 0.147007
H	-1.7858841109	 2.0525704434	 0.6980861218	 0.136393
H	 1.5287396898	 3.8735199187	 1.4635582567	 0.144451
H	 0.3349877249	 2.6656522733	 2.1382086029	 0.133535
H	 1.0345929805	 4.9493838792	-0.8000966124	 0.10275
H	-0.1271782791	 4.9883668264	-3.0357866354	 0.131021
H	-1.1637767455	 3.5728447088	-2.5333047022	 0.116353
H	-1.8952809653	 4.8246352394	-0.6938744734	 0.234816
