23
gdb 104806	2.19277	1.3651	1.08201	1.5458	85.52	-0.2353	0.0295	0.2648	1256.6202	0.205749	-388.302832	-388.293177	-388.292233	-388.337068	37.03	
C	 0.6536839772	 0.016647924	 1.5547920457	-0.397403
C	 0.0430301222	 0.2002700546	 0.1597586453	-0.253611
C	-1.2212830927	-0.6294336358	-0.138934462	 0.313916
C	-2.3614701417	-0.3088703027	 0.8521414808	-0.107759
O	-2.7922842791	 1.0440900975	 0.8229011002	-0.427407
C	-1.7405154882	-0.3671746434	-1.5874554839	-0.306196
C	-2.156625147	-1.7292787947	-2.0811709918	-0.060396
C	-1.7418659108	-2.7033152602	-1.2741212945	-0.065423
C	-0.9723084669	-2.1702200104	-0.0901485178	-0.302999
H	 1.5790147886	 0.5934645258	 1.64852471	 0.115385
H	-0.0190453761	 0.351990279	 2.3513684948	 0.110894
H	 0.8969030861	-1.0323213242	 1.7528487575	 0.122503
H	-0.1835768038	 1.2632068359	-0.0021348152	 0.090039
H	 0.7983854327	-0.0521863673	-0.5948335008	 0.098322
H	-3.2396793343	-0.9043667715	 0.5810888359	 0.112622
H	-2.0703542474	-0.6070868736	 1.8702075936	 0.087626
H	-2.0902092964	 1.5889701537	 1.1908133275	 0.284599
H	-2.5533405053	 0.3670166962	-1.5840518673	 0.119126
H	-0.9516518458	 0.0532909981	-2.2277491426	 0.093294
H	-2.7080895492	-1.8731011027	-3.004195913	 0.088847
H	-1.8987618251	-3.7644194331	-1.4356259537	 0.088197
H	 0.0970086114	-2.4103424555	-0.178181141	 0.09958
H	-1.3006092782	-2.6124822697	 0.8599806122	 0.096243
