18
gdb 19722	3.76142	2.31552	2.11661	1.9265	68.78	-0.2537	0.0899	0.3436	736.9413	0.158024	-347.802569	-347.796883	-347.795939	-347.831949	24.498	
C	-0.0258977645	 1.5420641707	 0.0087597093	-0.206494
C	 1.4855785403	 1.9585365926	-0.0037905886	-0.206494
C	 2.2286987812	 0.591870113	-0.005017737	-0.061467
C	 1.2786473648	-0.26759329	-0.8651948645	-0.220448
C	 0.0358811734	-0.0123394764	 0.0131868206	-0.061467
C	 0.5637526438	-0.3683896901	 1.4056419814	 0.057142
O	 1.5988170732	-1.3596908115	 1.4541187302	-0.265901
C	 1.9792324119	 0.0216333156	 1.3938893645	 0.057142
H	-0.5596131759	 1.9356251388	 0.8792947362	 0.096373
H	-0.546649996	 1.9058684447	-0.8814948424	 0.098912
H	 1.7327091251	 2.5339175315	-0.9004253985	 0.098912
H	 1.7557750402	 2.5736134171	 0.8600653489	 0.096374
H	 3.2714881663	 0.6390394412	-0.3218813801	 0.06267
H	 1.1613343232	 0.1276563129	-1.8778026325	 0.087932
H	 1.5673369691	-1.3166532804	-0.909678593	 0.117509
H	-0.8886629858	-0.5072515392	-0.287341444	 0.06267
H	-0.0720762912	-0.3017899501	 2.2841795905	 0.093316
H	 2.5046980909	 0.4082081795	 2.262789179	 0.093316
