17
gdb 75217	2.7948	1.57316	1.24382	0.8902	68.98	-0.2333	0.0149	0.2482	1025.294	0.137157	-455.134694	-455.12672	-455.125776	-455.16708	30.923	
N	 0.0024280277	 1.2792677938	-0.1944781455	-0.571341
C	-0.0317938056	-0.0815307075	-0.0254314894	 0.374178
N	-1.1086020587	-0.7774869338	-0.0650898251	-0.288888
C	-0.8016200631	-2.1736601385	 0.2411262367	-0.238126
C	 0.7342366081	-2.3064452468	 0.3651784697	 0.353942
O	 1.1885349352	-3.1547895578	 1.3833928809	-0.481179
C	 1.5435605161	-2.5085025098	-0.9322868736	-0.111577
O	 1.9968276228	-1.1315599106	-0.9326630098	-0.296612
C	 1.2433625594	-0.8421762406	 0.268768138	-0.058348
H	 0.8568636773	 1.654978601	-0.5773537105	 0.262252
H	-0.8368478291	 1.675385566	-0.5945689199	 0.256747
H	-1.2864851364	-2.4712581372	 1.1843975284	 0.091742
H	-1.2142492962	-2.831822378	-0.5332936434	 0.111014
H	 0.6383967011	-3.0192348556	 2.1624446039	 0.281709
H	 2.3763209196	-3.2094205653	-0.8155332748	 0.117524
H	 0.9661115005	-2.754099629	-1.8306237949	 0.107528
H	 1.8700993514	-0.4200988603	 1.0614405591	 0.089437
