21
gdb 59904	3.28978	0.7058	0.69646	2.5427	81.07	-0.2493	-0.0396	0.2097	1745.9356	0.178161	-424.264849	-424.253999	-424.253055	-424.302702	37.806	
C	-0.1315108512	 1.5382515896	 0.2931782425	-0.397223
C	 0.0432012799	 0.0181478536	 0.1818753063	 0.048634
C	 0.8124307731	-0.5408087012	 1.3868716109	-0.390208
C	-1.3195870695	-0.6691313805	 0.0187187494	-0.30251
C	-1.2649954473	-2.1108037119	-0.4521160681	 0.363144
O	-0.2420539325	-2.6749743256	-0.7681092805	-0.307614
C	-2.6003544786	-2.8606665588	-0.5117149389	-0.370452
C	-2.5416463727	-4.1150659251	 0.3497604417	 0.162223
O	-3.3976213477	-4.4341583193	 1.1305621432	-0.230768
H	 0.8386946127	 2.0364904289	 0.3866681415	 0.116001
H	-0.6371534514	 1.9523840042	-0.5859650718	 0.109182
H	-0.7256026408	 1.8048448493	 1.1756767941	 0.112682
H	 0.6262765644	-0.2019523826	-0.720497489	 0.093746
H	 0.9731923111	-1.6166665605	 1.2883877004	 0.133362
H	 1.7918228909	-0.0604761419	 1.4777328345	 0.113357
H	 0.2655437758	-0.3557362366	 2.3197843368	 0.107039
H	-1.8953145491	-0.6387302065	 0.9560282277	 0.124733
H	-1.9462570458	-0.1306463854	-0.7090676404	 0.123784
H	-3.4588854945	-2.2537521326	-0.2189392197	 0.126841
H	-2.7287389083	-3.1935216546	-1.5502171577	 0.155782
H	-1.6234680384	-4.7189397325	 0.195577917	 0.108263
