17
gdb 52472	4.33452	0.55319	0.50351	0.7834	103.17	-0.2316	-0.0069	0.2247	2176.0556	0.132151	-347.480194	-347.469487	-347.468542	-347.518923	36.692	
C	-0.0226423613	 1.5088848383	 0.045438745	-0.517995
C	-0.0018251906	 0.0576062097	 0.0169628405	 0.241113
C	 0.0164152371	-1.1522072701	-0.0085354222	-0.193951
C	 0.0364356189	-2.5119532828	-0.0359381845	-0.264249
C	 0.0527561339	-3.7215376751	-0.064656042	 0.394644
C	 0.0522740899	-5.1863090067	-0.0775457988	-0.374717
C	-1.3912476162	-5.7507181107	-0.0244614014	-0.377303
C	 0.783255632	-5.7120122694	-1.2367219666	 0.347722
C	 1.3643598369	-6.1658964389	-2.184621818	-0.465583
H	 0.977725628	 1.9227944385	-0.1247292984	 0.156858
H	-0.6856446989	 1.9112786142	-0.7288471362	 0.156484
H	-0.3766122019	 1.8813805078	 1.013426112	 0.156008
H	 0.5740264515	-5.5291138101	 0.8285973545	 0.141058
H	-1.9519544469	-5.4382331257	-0.9078330921	 0.140632
H	-1.361037537	-6.8426381653	 0.005416399	 0.129147
H	-1.902885544	-5.3799447652	 0.8669045618	 0.129521
H	 1.8867275685	-6.5559684785	-3.0228396323	 0.20061
