19
gdb 76312	2.54416	1.38261	1.14558	2.6989	75.04	-0.2521	0.0206	0.2727	1127.1513	0.159711	-419.207815	-419.198402	-419.197458	-419.242173	34.674	
C	 0.719099221	 1.5676084264	-0.0407978998	-0.407757
C	 0.1166902773	 0.1716095084	 0.0450330587	-0.056179
C	 0.7216413871	-0.8791626599	-0.9534244375	 0.154512
O	 1.487524467	-0.4182058677	-2.0198424593	-0.427215
C	 1.5306131793	-1.5377362507	 0.2191106417	-0.055809
N	 2.9185971654	-1.0863994882	 0.1861001681	-0.53336
C	 0.6294348664	-0.7372815956	 1.2222078422	-0.164807
C	 1.2987214118	-0.1174664632	 2.3496270284	 0.286061
N	 1.8843312056	 0.3678106966	 3.2219928632	-0.346483
H	 1.8082985093	 1.5497509169	 0.051407502	 0.130246
H	 0.4731635514	 2.016377865	-1.0068688654	 0.132111
H	 0.3267033938	 2.2113570178	 0.7521341182	 0.125517
H	-0.9742435392	 0.2362956387	 0.0157736983	 0.082417
H	-0.049056516	-1.5462015948	-1.3511522332	 0.084658
H	 2.3509090127	-0.204947534	-1.6268260357	 0.286741
H	 1.4386964181	-2.62489942	 0.3127621167	 0.077468
H	 3.2409697024	-0.7891693168	 1.101979661	 0.257528
H	 3.5311203875	-1.8299110739	-0.1269780528	 0.247926
H	-0.1691368308	-1.380302245	 1.6005674453	 0.126425
