20
gdb 66353	2.31124	1.39598	1.30475	3.2456	78.38	-0.2597	0.0363	0.296	1117.6988	0.172371	-403.180279	-403.171699	-403.170755	-403.213048	33.199	
C	-0.017503204	 1.5526759218	 0.01077149	-0.4264
C	-0.021779134	 0.0117233012	 0.002537726	 0.084388
C	 0.6896199904	-0.5401011072	-1.2620629343	-0.219574
C	 0.8730940834	-2.0575482058	-1.1880188758	-0.095049
O	 1.5789823442	-2.4397815907	-0.0203111475	-0.243153
C	 0.8873310179	-2.0701272498	 1.1598981168	-0.09505
C	 0.7048890395	-0.5535761107	 1.2524239089	-0.219572
C	-1.4216620884	-0.4499344341	 0.0085430674	 0.276378
N	-2.5214356453	-0.8073215991	 0.0134403923	-0.352134
H	 1.0145002657	 1.9158440963	 0.0064491727	 0.124544
H	-0.5286069809	 1.9508288227	-0.8701909567	 0.133802
H	-0.5178412813	 1.9413308892	 0.9020954352	 0.133804
H	 0.1301092376	-0.2683523629	-2.1633300982	 0.113433
H	 1.6744115345	-0.0630370388	-1.3229768613	 0.110378
H	-0.1082774627	-2.558265945	-1.221951875	 0.112264
H	 1.4635691925	-2.4138621785	-2.0364370152	 0.112928
H	-0.0935972738	-2.5712290829	 1.2003616519	 0.112267
H	 1.4880237637	-2.4354811978	 1.9972262373	 0.112927
H	 1.6903832867	-0.0771378367	 1.3064954263	 0.110381
H	 0.1563794044	-0.2915378213	 2.1632786091	 0.113435
