16
gdb 16032	3.49142	1.77397	1.45876	1.8464	72.99	-0.2292	0.0163	0.2455	907.0782	0.128963	-346.526695	-346.519022	-346.518077	-346.558329	29.178	
C	 0.0008731587	 1.5634504529	-0.0068495884	-0.420398
C	 0.0533240222	 0.0544627081	-0.07922504	-0.070652
C	 0.6541267752	-0.7426759263	-1.2172149413	-0.204109
C	 1.9492463318	-0.0993459476	-1.6911582309	-0.100389
O	 2.4622697314	-0.0146542234	-0.3346993216	-0.319562
C	 1.3198449142	-0.7336275899	 0.1633253825	 0.272453
C	 1.5061529929	-1.7295299177	 1.1584914724	 0.242451
C	 1.6563335926	-2.5651174112	 2.011269826	-0.412855
H	 0.9709964494	 2.0022433461	-0.2497533842	 0.14021
H	-0.7481205717	 1.9657827386	-0.6971449776	 0.117897
H	-0.2645697585	 1.8877332702	 1.0042708463	 0.125341
H	-0.8139185013	-0.4555828471	 0.3345504684	 0.101628
H	 0.1308376312	-1.5481983139	-1.7142735295	 0.110184
H	 2.5720816041	-0.770817587	-2.2918112387	 0.11735
H	 1.8882385821	 0.8820429136	-2.1747461471	 0.10749
H	 1.7936492257	-3.3031043753	 2.7624161736	 0.192961
