18
gdb 93572	3.44244	1.06549	0.88479	15.1179	75.41	-0.1709	-0.0173	0.1536	1310.9005	0.148619	-439.056616	-439.047841	-439.046897	-439.091371	31.66	
C	 0.170373442	 1.4998305632	 0.0105434431	-0.347995
N	-0.1060697687	 0.0286313635	-0.0293677002	-0.082306
H	-1.1192063531	-0.091646401	-0.0687092383	 0.29096
C	 0.5266305147	-0.6865686546	-1.2296663637	-0.210647
C	 1.7840674659	-1.3606247553	-0.6625990952	-0.301079
C	 1.5140878839	-1.4318089454	 0.8171287827	 0.226683
C	 0.4653156905	-0.6920919269	 1.1511712315	-0.223812
C	 2.3886194631	-2.2690770134	 1.8055927374	 0.290213
O	 2.0309566176	-2.1644897907	 2.9869929288	-0.469413
O	 3.28835427	-2.8922210023	 1.219338325	-0.471359
H	 1.2513674117	 1.6378522418	-0.004156699	 0.192534
H	-0.2943552534	 1.985590222	-0.8500262319	 0.158647
H	-0.2349629397	 1.9046258568	 0.9386706893	 0.177541
H	-0.207017438	-1.4219426949	-1.5643330861	 0.154849
H	 0.6868981416	 0.0461889463	-2.0220675929	 0.142384
H	 1.9478949359	-2.3580251429	-1.0742388823	 0.165381
H	 2.6995798043	-0.7927919575	-0.8580807139	 0.143402
H	 0.0276734117	-0.4935110685	 2.1172307259	 0.164016
