19
gdb 54723	2.92344	1.35309	1.32992	2.88	78.42	-0.2125	-0.0104	0.2021	1076.4821	0.15787	-385.827258	-385.818941	-385.817996	-385.860452	32.077	
C	 0.5994649441	 0.5354116161	 1.3176371739	-0.472092
C	 0.0880555338	 0.1457165891	-0.0581498384	 0.331699
O	 0.5224561545	 0.6335266515	-1.0756763291	-0.302749
C	-1.0786027292	-0.8236143196	-0.0662470431	-0.108526
C	-1.3590024202	-2.0067796858	-0.9459105668	-0.088467
C	-0.1953513809	-3.0168482002	-1.1440128846	-0.042165
C	 1.0816451244	-2.6624944557	-0.4386745079	-0.309731
C	-0.0786939754	-3.1857792071	 0.3636073034	-0.058334
C	-1.2452971765	-2.1796320432	 0.5711080886	-0.097628
H	 1.3654684482	 1.3069950904	 1.2288197744	 0.138016
H	-0.2276239003	 0.9007185003	 1.9372163499	 0.134918
H	 1.0085339105	-0.3427411587	 1.8286516907	 0.147835
H	-1.9918131344	-0.2406569769	 0.0798618323	 0.116843
H	-2.2563689682	-2.0560502245	-1.5495503195	 0.093921
H	-0.2375660807	-3.7859124537	-1.903838136	 0.09193
H	 1.8746911356	-3.3920864324	-0.579021349	 0.113491
H	 1.4497098157	-1.6471719259	-0.3744640625	 0.131641
H	-0.0137033986	-4.1041512882	 0.9324142702	 0.090295
H	-2.0420180524	-2.3780582056	 1.2774161134	 0.089104
