23
gdb 118645	2.80051	0.74441	0.61588	1.3447	89.41	-0.2526	0.0553	0.3079	1901.8066	0.202219	-388.252415	-388.240908	-388.239964	-388.289959	40.337	
C	-0.0540414545	 1.5711556689	 0.0024390912	-0.3816
C	-0.0008795699	 0.0412298863	 0.0034387696	-0.174313
C	 0.706437595	-0.5273266382	-1.2302171364	-0.176167
C	 0.7808877524	-2.0717780376	-1.2539435148	-0.184749
C	 1.368175525	-2.5674297235	-2.5841615639	-0.058769
O	 1.2366842349	-3.9664852125	-2.646262102	-0.22884
C	 1.8085682652	-4.5206767297	-3.8059918305	-0.227152
C	 1.542307196	-2.5939443607	-0.1202157051	 0.36521
C	 2.1886705786	-2.9911771914	 0.8124906605	-0.494288
H	 0.9532003789	 2.0023164355	-0.0106891966	 0.114893
H	-0.5871823034	 1.9520533528	-0.8760804189	 0.111658
H	-0.5660620721	 1.9510196024	 0.8919216818	 0.113147
H	 0.5113056718	-0.3129012906	 0.9048727003	 0.115316
H	-1.0210692879	-0.3622497122	 0.0513900942	 0.09402
H	 0.1817668492	-0.1969305672	-2.1361253779	 0.092871
H	 1.7244929345	-0.1217180738	-1.2904566292	 0.102784
H	-0.2420253577	-2.4691631616	-1.1961174191	 0.112238
H	 0.8272568635	-2.0903953097	-3.419596277	 0.082755
H	 2.4270030273	-2.2688865917	-2.6606227663	 0.092042
H	 1.3347979208	-4.1335317286	-4.7226409188	 0.101274
H	 2.8891124806	-4.3156398822	-3.8669597486	 0.105545
H	 1.6564241073	-5.6016670367	-3.7605565855	 0.128626
H	 2.7492879846	-3.3611091079	 1.6347617328	 0.193499
