18
gdb 39884	4.02896	1.52277	1.40828	2.1954	75.57	-0.2293	0.0791	0.3084	961.3831	0.150232	-401.865135	-401.858702	-401.857758	-401.895698	27.2	
C	 0.0008228356	 1.5411803542	 0.0534538385	-0.331291
N	 1.2337291866	 0.703192443	 0.0530165231	-0.390108
C	-0.0814334614	 0.0772246115	-0.0095036973	 0.442584
C	-0.5471321116	-0.9906393662	 0.9816260748	-0.024887
O	-1.9719967489	-0.9611258642	 0.7859036081	-0.269733
C	-1.9754640321	-1.4105771614	-0.5818726711	 0.082468
C	-1.4212507779	-2.8470190232	-0.4521154142	-0.248568
C	-0.1328369123	-2.096964917	-0.0844951639	-0.057607
C	-0.5397299065	-0.9198363258	-1.0574572594	-0.197082
H	-0.191352326	 2.0631642013	 0.9866915715	 0.12376
H	-0.2365361606	 2.1104746221	-0.8419679276	 0.111663
H	 1.659594765	 0.7233241792	-0.8714417651	 0.229401
H	-0.2789520621	-1.0067484272	 2.0356180944	 0.086576
H	-2.9103825686	-1.1519546803	-1.0757396208	 0.081338
H	-1.9059526051	-3.4976021727	 0.2796454226	 0.103977
H	-1.3192449006	-3.3499254858	-1.4177382541	 0.100654
H	 0.8636258806	-2.5286916128	-0.0320605885	 0.084606
H	-0.3043261441	-0.879682555	-2.1197882109	 0.07225
