15
gdb 96704	3.12906	1.01526	0.85775	3.1422	66.7	-0.248	-0.083	0.1649	1333.3912	0.108869	-491.120073	-491.109992	-491.109047	-491.156841	33.519	
C	-0.4120780129	 1.5869793872	-0.0193122504	-0.331603
N	-0.4644434512	 0.1460568143	-0.1658273552	-0.230144
C	 0.298281386	-0.4983540929	-0.9276485643	 0.321108
O	 0.1806948495	-1.8736949618	-1.0327221431	-0.292554
C	 0.1477037909	-2.6340364621	 0.131955388	 0.49674
N	-0.3784720214	-3.8495582886	-0.1666705674	-0.55121
O	 0.5868815077	-2.2796757039	 1.1893708534	-0.36228
C	 1.38278014	-0.0245539239	-1.8634208073	 0.099583
O	 1.5486654771	 1.1227621196	-2.1901955913	-0.238925
H	 0.5269752365	 2.0483679623	-0.3307182601	 0.15043
H	-1.2205274595	 2.024068907	-0.6185915617	 0.142958
H	-0.6257529355	 1.8262126855	 1.0264901927	 0.138522
H	-0.8870065525	-3.9793419303	-1.0235451652	 0.272254
H	-0.5422054027	-4.4784002237	 0.5999018248	 0.276979
H	 2.0260823379	-0.8472871486	-2.2379824328	 0.108143
