13
gdb 43599	3.3503	1.39821	1.12276	5.8699	62.58	-0.2769	-0.0247	0.2523	1020.069	0.090512	-452.75544	-452.748398	-452.747454	-452.787343	25.996	
O	-0.0385743326	 0.0602632412	 0.286064716	-0.321506
C	 0.0107362288	 1.2200332425	 0.0195072984	 0.497135
O	-1.1150180794	 1.950966971	-0.2886930087	-0.233962
C	-0.7861109541	 3.2503728513	-0.8039015086	-0.021251
C	-1.6007893415	 4.2760090884	-0.1419541236	 0.301045
N	-2.231200908	 5.1190550638	 0.3313930002	-0.307771
C	 0.7145785918	 3.4289568783	-0.5791942342	-0.074053
N	 1.0500276838	 3.2885746696	 0.8351452208	-0.310667
C	 1.2046651682	 2.1266112318	-0.0791257119	-0.202233
H	-1.0165183428	 3.2597704778	-1.8758450625	 0.147972
H	 1.2805247749	 4.0742380307	-1.2393936948	 0.130836
H	 1.967251332	 3.6914174867	 1.0146171044	 0.256833
H	 2.1777599989	 1.7045268369	-0.2912795056	 0.137623
