18
gdb 89935	2.97825	1.37277	1.117	4.7602	76.73	-0.2675	0.0032	0.2707	1127.6764	0.147555	-401.935052	-401.926771	-401.925827	-401.968048	31.32	
C	 0.2490369279	 1.5959491442	-0.11874381	-0.415843
C	 0.0302744724	 0.1142149516	 0.084852472	 0.147379
O	 0.7970939921	-0.7063246595	-0.8510180493	-0.3374
C	 1.2483808199	-1.5780357373	 0.2011266397	 0.326942
C	 2.6770386537	-1.2343225695	 0.6938129182	-0.277356
C	 2.0641649948	-0.2458752401	 1.7338178134	-0.235514
C	 0.6287166926	-0.6420413334	 1.291436338	-0.160703
C	 0.8843205682	-2.9694728797	-0.0060262544	 0.227626
N	 0.6038021403	-4.0830835082	-0.1405089998	-0.34115
H	 1.3046047253	 1.8663424091	-0.0352987653	 0.12639
H	-0.095736381	 1.8870234811	-1.1157343416	 0.138301
H	-0.3223187979	 2.1696799635	 0.6187472623	 0.124886
H	-1.0369889428	-0.1228164437	-0.0246485495	 0.092419
H	 3.1954850526	-2.0817589199	 1.1469475777	 0.12618
H	 3.2993695289	-0.8055751885	-0.0934011477	 0.126368
H	 2.2773128966	-0.5242364087	 2.7671615249	 0.11889
H	 2.3247861215	 0.8061439811	 1.6064567801	 0.114088
H	-0.061337965	-0.9848580821	 2.0598336011	 0.098497
