18
gdb 127760	3.19266	1.55033	1.07503	4.6997	78.71	-0.231	0.0064	0.2373	1113.3704	0.150733	-398.139821	-398.132041	-398.131097	-398.172427	28.886	
C	-0.0225986622	 1.4635226061	-0.0220059807	-0.341544
N	-0.0237316597	 0.0208997112	 0.0829930478	-0.093004
N	-0.0419397165	-0.7390440687	-1.0536151709	-0.165979
N	-0.0411011702	-1.9989644306	-0.7031394543	-0.29488
C	-0.0318097036	-2.0548564658	 0.6503381916	 0.28411
C	-0.022454124	-0.7866374046	 1.1621559703	 0.342836
C	 0.0345939223	-0.7314154744	 2.6531938822	-0.352478
C	-0.2568771381	-2.2360875677	 3.0042875767	-0.197901
C	 0.0161571236	-3.1001117016	 1.7234075168	-0.335876
H	 0.8772178767	 1.8862205385	 0.4346666619	 0.143305
H	-0.0403942841	 1.7100338408	-1.0837135895	 0.170212
H	-0.9044653282	 1.8895850802	 0.4654469369	 0.14346
H	 1.0238118675	-0.4155207901	 3.0092502825	 0.120084
H	-0.6968952648	-0.0581056556	 3.1118692963	 0.115901
H	 0.328925498	-2.5710148247	 3.8633530773	 0.106731
H	-1.3115214123	-2.3304838114	 3.2779630989	 0.117272
H	-0.7270314308	-3.8938673005	 1.6054375147	 0.120368
H	 0.9978627164	-3.5874609111	 1.7677684314	 0.117383
