20
gdb 78609	2.94748	1.42053	1.14316	1.6115	79.89	-0.2379	0.0739	0.3118	1151.7631	0.169711	-403.060915	-403.05226	-403.051316	-403.093574	33.767	
C	-0.1399236019	 1.5983019297	-0.1034428542	-0.428604
C	-0.0608972994	 0.0800898106	-0.0799994505	-0.009442
C	 1.2007472167	-0.6182963417	-0.6117686869	-0.083461
N	 2.0151323228	-0.2505847729	 0.6502118375	-0.171078
C	 2.4660568096	-1.7062747513	 0.8005031739	-0.006591
C	 2.897190008	-2.1405727476	 2.1861443118	-0.418237
C	 1.0203237209	-1.8659046262	 0.3209477627	 0.334711
O	 0.2356847424	-2.9944238926	 0.1499007351	-0.470684
C	 0.5814093866	-0.6203324516	 1.1302383955	-0.058349
H	 0.7994884963	 2.0429670376	 0.2344107717	 0.138721
H	-0.3488789359	 1.9628956041	-1.1152571818	 0.11231
H	-0.9447293983	 1.9572070968	 0.5475451631	 0.113302
H	-0.9932124572	-0.3892863202	-0.4094219942	 0.080117
H	 1.6740061813	-0.5771290744	-1.5958845061	 0.07293
H	 3.2358856094	-1.949207199	 0.0552820547	 0.063347
H	 2.1385620959	-1.9132400972	 2.9407285261	 0.120765
H	 3.0776500805	-3.2204738519	 2.2086736427	 0.119046
H	 3.8255146175	-1.6369081449	 2.4741747708	 0.126681
H	 0.6255234243	-3.538470502	-0.5436059885	 0.282406
H	 0.3153186003	-0.5612880652	 2.1861606265	 0.08211
