18
gdb 19014	4.74159	1.90646	1.72474	1.3777	71.08	-0.2344	0.1	0.3344	823.4285	0.155661	-347.765916	-347.759562	-347.758617	-347.796082	26.002	
C	-0.0931816258	 1.533977031	-0.066587384	-0.400978
C	 0.0291342851	 0.0204871926	 0.0319361602	 0.115976
O	 0.8696606307	-0.4952365403	-1.0270897304	-0.297594
C	 1.8694329625	-1.1919340139	-0.3145941403	 0.151111
C	 1.252875378	-1.9636715885	 0.890935663	-0.08986
C	 2.5547686721	-1.7239811378	 1.6862220392	-0.256466
C	 2.3116288587	-0.3904086077	 0.9450429225	-0.084807
C	 0.7769649816	-0.5151664289	 1.2513809128	-0.050129
H	 0.882303822	 2.0146868932	 0.0537327536	 0.118607
H	-0.4966490352	 1.8202950796	-1.0420153416	 0.126329
H	-0.7673588171	 1.9162662074	 0.7075090868	 0.111116
H	-0.9649678123	-0.4398696473	-0.0596754371	 0.074738
H	 2.5887161203	-1.6513272759	-0.9920608926	 0.083046
H	 0.6346782841	-2.8616060591	 0.8528437312	 0.070824
H	 2.4598667957	-1.6981137754	 2.774553883	 0.09559
H	 3.4326104354	-2.3037476211	 1.3854510053	 0.091854
H	 2.9155750531	 0.5171647043	 0.9723648814	 0.071681
H	 0.3950430412	-0.2946185823	 2.248921947	 0.068964
