19
gdb 13669	5.05892	0.94713	0.87367	0.8122	78.16	-0.2265	0.0542	0.2807	1340.4785	0.16353	-327.859673	-327.850626	-327.849682	-327.893731	33.01	
C	-0.2751099714	 1.3816248632	 0.0047264808	-0.315808
N	 0.0343532297	-0.0376769784	 0.0854757791	-0.077993
C	 1.4004289679	-0.445216244	-0.2196656343	-0.267998
C	 0.8750714159	-0.5542866884	 1.1714300474	 0.024847
C	 1.4331987115	 0.2953479818	 2.2942766614	-0.213052
C	 0.4204179914	 0.4819134138	 3.4468918993	-0.351765
C	 0.9674749853	 1.2420800816	 4.5635152513	 0.291957
C	 1.4465658188	 1.8722689848	 5.468124431	-0.436516
H	 0.5508831368	 2.0544050024	 0.2846059973	 0.102008
H	-0.5563103312	 1.6158486583	-1.0271058114	 0.12592
H	-1.1344877376	 1.6066980025	 0.645174683	 0.122309
H	 1.513779811	-1.3249242702	-0.8483802006	 0.113513
H	 2.1343641369	 0.3400006572	-0.4043431184	 0.10376
H	 0.5482826039	-1.5405895889	 1.5041651772	 0.087487
H	 2.3307471906	-0.1934469622	 2.6907485296	 0.116474
H	 1.7544809459	 1.2753019191	 1.9312666704	 0.112568
H	-0.4792975701	 0.9818969176	 3.067483133	 0.136386
H	 0.09039691	-0.5037345041	 3.8006625192	 0.13202
H	 1.856534865	 2.4267434038	 6.2753136149	 0.193883
