21
gdb 17673	3.88859	1.36262	1.33209	1.0469	79.74	-0.2244	0.0845	0.309	1070.6883	0.18755	-329.083471	-329.074622	-329.073677	-329.116771	33.608	
C	 1.9673775704	 0.890342478	-0.5920498368	-0.416736
C	 1.1618833225	-0.3175003589	-0.1669354109	-0.012459
C	 1.7965696499	-1.4866894493	 0.5532913479	-0.328197
C	 0.7839196369	-0.6210288473	 1.2693323722	 0.356827
C	 1.2573825648	 0.2827138066	 2.3937058069	-0.482692
N	-0.5190942607	-1.2542559503	 1.3665570315	-0.105424
C	-1.0042898599	-1.7931117793	 2.6288531038	-0.230353
C	-1.6369280407	-0.5869729978	 2.0177565275	-0.229276
H	 2.7790481496	 1.1153679037	 0.105807988	 0.112098
H	 2.4244412794	 0.7187571714	-1.5731057638	 0.118138
H	 1.34016084	 1.7856585062	-0.6728368167	 0.114879
H	 0.3806207121	-0.5996241691	-0.8666136419	 0.090324
H	 1.4891414509	-2.4887003035	 0.2782006483	 0.112486
H	 2.8363848627	-1.3925598566	 0.8516550281	 0.100507
H	 2.2786726442	 0.6240698287	 2.2131531557	 0.12096
H	 0.6311716389	 1.1755834285	 2.4980892626	 0.118118
H	 1.265063923	-0.2405204752	 3.3560626677	 0.11834
H	-1.4867227104	-2.7651596124	 2.5669107551	 0.112789
H	-0.4218592867	-1.6374186754	 3.5341005218	 0.108711
H	-1.4693303744	 0.3620214534	 2.5219745028	 0.108383
H	-2.5916320027	-0.6601982014	 1.5032406101	 0.112577
