20
gdb 99527	2.01815	1.42311	1.0391	3.7122	75.84	-0.2823	0.0218	0.304	1248.2537	0.166424	-440.290954	-440.279813	-440.278869	-440.326938	39.326	
C	 0.1828214665	 1.3973841326	 0.0860739774	-0.249322
O	-0.1204247022	 0.026299711	-0.1112279267	-0.241394
C	 0.5652898191	-0.5713911205	-1.1829996362	-0.009247
C	 2.0187124245	-0.6578170896	-0.9067060281	 0.293513
N	 3.1451413261	-0.6778303435	-0.6503288726	-0.342605
C	-0.0462374882	-1.9718641517	-1.4467138995	 0.314267
C	 0.1564307063	-2.8986004415	-0.2453417926	-0.439684
C	-1.5311587714	-1.8174833151	-1.7956006766	-0.417677
O	 0.6845496532	-2.4277769666	-2.5843209694	-0.465097
H	 1.2399255983	 1.5442062281	 0.3425186718	 0.139167
H	-0.0515096296	 1.9894243526	-0.8105227862	 0.115088
H	-0.4394793495	 1.7391246419	 0.9150008668	 0.13789
H	 0.4471432903	 0.0181606894	-2.1063301857	 0.117188
H	-0.3177788554	-2.4839301999	 0.6473738705	 0.1418
H	-0.2948415134	-3.8769501646	-0.4458457909	 0.108755
H	 1.2211684649	-3.0403987271	-0.0424008099	 0.146038
H	-1.6472538737	-1.1934285523	-2.6865618757	 0.120595
H	-1.9651541384	-2.7993865235	-2.0106865449	 0.108919
H	-2.0862614346	-1.3650962651	-0.9711444522	 0.135675
H	 0.5636693573	-3.3794855946	-2.6580243492	 0.28613
