18
gdb 58372	2.61596	1.03466	0.88188	3.7802	77.92	-0.2778	0.0256	0.3034	1361.8117	0.144759	-401.932792	-401.922657	-401.921712	-401.968107	36.508	
C	 0.0792971943	 1.5495765823	-0.0318888268	-0.418272
C	 0.0024100506	 0.028319981	 0.0744985684	 0.124813
O	 0.6909700234	-0.4645096446	 1.2114258853	-0.430865
C	-1.463220217	-0.4987017025	 0.0549856344	-0.17574
C	-1.4498750736	-2.0484015268	-0.0426683402	-0.347093
C	-2.783298532	-2.637500866	-0.1083509669	 0.262842
N	-3.8396133651	-3.1006300878	-0.176107045	-0.305402
C	-2.1774145669	-0.052119987	 1.2482560925	 0.319639
C	-2.7104611536	 0.3058587954	 2.2650471741	-0.45118
H	 1.1242587703	 1.8671922986	 0.0038588397	 0.131734
H	-0.3606809881	 1.9035763857	-0.9699456136	 0.119787
H	-0.4583167328	 2.024562365	 0.7952145818	 0.129722
H	 0.5186759534	-0.4195977439	-0.782935689	 0.093723
H	 0.2463957907	-0.1064132996	 1.9908126733	 0.287343
H	-1.9627507601	-0.099044411	-0.8360285385	 0.124807
H	-0.893678696	-2.3448845637	-0.9389466184	 0.151422
H	-0.9094221652	-2.4498781682	 0.8191063962	 0.171645
H	-3.2204510823	 0.6190491931	 3.1430406325	 0.211075
