25
gdb 96315	1.97368	1.44804	0.91073	0.3465	95.63	-0.2225	0.0298	0.2522	1404.579	0.230215	-352.38569	-352.376118	-352.375174	-352.41953	37.683	
C	 0.0779725642	 1.6151541756	 0.0208385273	-0.408619
C	 0.0076717347	 0.0813611361	-0.0111639328	-0.010853
C	 0.6392875844	-0.4680835876	-1.310289165	-0.168368
C	 0.2441421434	-1.9082649364	-1.6659281462	-0.195017
C	 0.6796965134	-3.0012169409	-0.6797816693	-0.175987
C	 0.063749139	-2.8828634587	 0.7282650272	-0.294255
C	 0.6695259494	-1.7879121966	 1.5872941217	 0.305204
C	 1.3278597803	-2.2420869042	 2.8640637968	-0.47599
C	 0.637237717	-0.499240405	 1.2388826728	-0.127474
H	 1.1190987417	 1.9585195681	-0.0060164656	 0.113714
H	-0.4410372199	 2.0547041782	-0.8366664431	 0.106551
H	-0.3786379826	 2.0129007856	 0.9331317767	 0.110843
H	-1.0575746341	-0.2007404908	-0.0288145636	 0.075045
H	 0.3346397764	 0.1789959072	-2.1432815901	 0.084037
H	 1.7317249587	-0.3851453001	-1.2373284557	 0.089409
H	-0.8491705548	-1.9538637943	-1.7767125476	 0.088738
H	 0.6553091549	-2.1480849386	-2.6544575305	 0.088355
H	 0.3946839517	-3.972460465	-1.1030032986	 0.087963
H	 1.7739591915	-3.0107892576	-0.5934363413	 0.092562
H	-1.0197431884	-2.7216105526	 0.6262592448	 0.102767
H	 0.1757841257	-3.8426080723	 1.2443494332	 0.090704
H	 2.1371480227	-2.9562396245	 2.6604378923	 0.119189
H	 1.7470620348	-1.4048664121	 3.4286839496	 0.115386
H	 0.6123645313	-2.7664403553	 3.5115604065	 0.119695
H	 1.1069937746	 0.2221206118	 1.9067109206	 0.066398
