21
gdb 87622	2.60442	1.36331	1.15719	1.3305	85.28	-0.2251	0.0214	0.2465	1182.0984	0.182591	-387.091333	-387.08242	-387.081476	-387.124758	34.714	
C	-0.1657531299	 1.4976566041	-0.0069748154	-0.412403
C	-0.0140547156	-0.0062615335	 0.05829222	-0.03593
C	 1.3098173521	-0.6644266541	-0.2138159357	-0.351368
C	 0.7202570457	-0.6977442311	 1.1892634004	 0.298813
C	 1.3688846464	 0.0011792758	 2.3302339384	-0.144383
C	 1.4608009459	-0.7864690219	 3.4042289973	-0.099066
C	 0.9050882996	-2.1647842224	 3.1349400031	-0.291875
C	 0.1535564649	-2.0020170122	 1.7847265866	 0.031566
O	-1.2584161958	-1.9461629479	 1.9644302764	-0.426042
H	 0.7449442168	 2.0117914554	 0.3154749527	 0.114016
H	-0.3767087555	 1.8212393585	-1.0322279819	 0.119273
H	-0.9877166816	 1.847604356	 0.6276003755	 0.115374
H	-0.8880487861	-0.5568252985	-0.2799667977	 0.099345
H	 1.3318999637	-1.5927715874	-0.7760959692	 0.111199
H	 2.1715916415	-0.0236214062	-0.3769494577	 0.106502
H	 1.7296909293	 1.021505755	 2.2700650108	 0.093971
H	 1.9090296285	-0.5041259136	 4.3500526159	 0.091881
H	 1.7125651728	-2.9060248878	 3.061269106	 0.108589
H	 0.2157284791	-2.5284497731	 3.9049377786	 0.107925
H	 0.3091706194	-2.8576762337	 1.1227269729	 0.083451
H	-1.4495641612	-1.1523573916	 2.4769923931	 0.279164
