19
gdb 59890	3.03681	0.90033	0.7762	1.7622	72.44	-0.2512	-0.0315	0.2197	1498.0601	0.15591	-460.153076	-460.143117	-460.142172	-460.189059	35.455	
C	-0.1065136166	 1.1302038	 0.0352905143	-0.410806
C	 0.1373518049	-0.3270953314	 0.4197194901	 0.139977
O	 0.7289740547	-0.4374368084	 1.7121397922	-0.434868
C	-1.132140244	-1.1886593461	 0.3494408088	-0.337755
C	-1.614761872	-1.4898062525	-1.0562013104	 0.353032
O	-1.0989541266	-1.0385595074	-2.0557948935	-0.312095
C	-2.8085157683	-2.398824623	-1.1993619125	 0.002506
C	-2.8392505234	-3.7363531588	-0.5709723873	-0.179034
O	-3.5983471522	-2.6619145728	-0.0380924982	-0.2162
H	 0.8206492304	 1.7021633315	 0.1274805999	 0.124085
H	-0.4659927608	 1.2013745686	-0.9936665905	 0.144602
H	-0.8571301338	 1.5853101016	 0.6953522427	 0.099143
H	 0.8785866144	-0.7546551384	-0.2632218809	 0.104432
H	 0.1739234748	 0.0492814068	 2.33144977	 0.275368
H	-0.9448753569	-2.1341681481	 0.8733762471	 0.133224
H	-1.9635029236	-0.7219055499	 0.8964271187	 0.130462
H	-3.3588879598	-2.2543034766	-2.1276701695	 0.120441
H	-3.4099517405	-4.5250555746	-1.0580586907	 0.134172
H	-1.9997583107	-4.0703937503	 0.0359216197	 0.129314
