23
gdb 62559	1.79551	1.58973	1.58636	1.1591	86.53	-0.2274	0.0685	0.2959	1129.5704	0.203342	-388.274553	-388.264393	-388.263448	-388.308322	39.356	
C	-0.0167438295	 1.5425881189	 0.0273855869	-0.466672
C	 0.0952797785	 0.0321146806	 0.0566532315	 0.310012
O	-1.0834726543	-0.5882578005	-0.416620332	-0.469212
C	 1.3575993471	-0.7630551297	-0.2397878645	 0.239282
C	 1.4261978163	-1.8067119368	-1.3184239007	-0.507724
C	 2.5849715437	-0.0416755358	 0.3321996457	-0.291565
C	 1.9266554841	-0.0534118679	 1.7474602664	-0.291255
C	 0.7040507931	-0.7816907293	 1.1730252914	 0.255886
C	-0.0512126062	-1.8488485827	 1.9147616995	-0.496449
H	 0.864336798	 2.0430572193	 0.4327662212	 0.123087
H	-0.1485743062	 1.8976989946	-1.0030821086	 0.102513
H	-0.8900157944	 1.8638897932	 0.6042540915	 0.12418
H	-1.1775723895	-0.3636316716	-1.3489719042	 0.280084
H	 1.7675028993	-1.3723964244	-2.2678275127	 0.110336
H	 2.1318125433	-2.6039994813	-1.0574193691	 0.114788
H	 0.448541557	-2.2648204162	-1.4881169993	 0.124233
H	 3.4819018567	-0.6661182694	 0.2947935115	 0.098919
H	 2.8343228496	 0.9328086092	-0.1016794258	 0.089
H	 2.4803993209	-0.6800763464	 2.4514345102	 0.099796
H	 1.7439944189	 0.9140872705	 2.2269415687	 0.09148
H	-0.5421360251	-1.4300659504	 2.8026615448	 0.114048
H	-0.8241916606	-2.2961508736	 1.2875632222	 0.138079
H	 0.6227047893	-2.6422512704	 2.2586360153	 0.107154
