23
gdb 103283	2.29416	1.34057	1.15329	1.424	85.66	-0.2465	0.0718	0.3183	1237.2282	0.204966	-388.264374	-388.25469	-388.253746	-388.298294	37.569	
C	-0.4348343164	 1.4137178208	 0.1418005099	-0.381033
C	 0.2235247205	 0.0465797774	-0.0879995155	-0.26102
C	 0.8151272633	-0.5653593994	 1.1788672835	 0.357555
C	 2.0697500505	 0.1448040718	 1.674514808	-0.461232
C	-0.0331097177	-1.1223072792	 2.292150689	-0.093165
C	-1.2945346102	-1.8201083551	 1.7692040737	-0.306362
C	-0.3688474293	-2.8274859638	 0.99920073	 0.10327
O	-0.5072711301	-2.9963774605	-0.3983598296	-0.426013
C	 0.8633550531	-2.0547654443	 1.4463242258	-0.12461
H	 0.2776020154	 2.15845592	 0.5109122024	 0.11223
H	-0.8608594546	 1.8021083453	-0.7887743857	 0.108023
H	-1.2446953954	 1.3422887345	 0.8762383179	 0.114376
H	-0.4951253661	-0.6401797496	-0.536709239	 0.119437
H	 1.0297890237	 0.1480365609	-0.8265436339	 0.088478
H	 1.8702910356	 1.1958005353	 1.9075318665	 0.117121
H	 2.463168243	-0.3235815011	 2.5823240784	 0.110444
H	 2.8586433965	 0.1161638659	 0.9142250243	 0.115275
H	 0.1155716462	-0.8219532614	 3.3227997583	 0.079248
H	-1.8860405548	-2.3056930916	 2.5489173929	 0.096684
H	-1.9604721892	-1.2131766026	 1.149064198	 0.09964
H	-0.393024584	-3.8032871107	 1.5033452076	 0.07375
H	-1.2907433168	-3.5321401721	-0.5593909812	 0.281677
H	 1.7991590168	-2.5294999403	 1.720416359	 0.076225
