19
gdb 52245	5.18069	0.74307	0.7122	3.0833	76.56	-0.2542	-0.0268	0.2274	1589.392	0.15738	-422.990002	-422.981096	-422.980151	-423.025184	31.934	
O	-0.124305986	 0.0902203889	 0.4231130885	-0.23882
C	 0.0313505404	 1.1809764161	-0.0573727252	 0.138919
C	 1.3929612857	 1.8093415998	-0.2988489768	-0.15164
O	 1.198367453	 3.0514558058	-0.9243121426	-0.260346
C	 2.3901970134	 3.7711805014	-1.150649214	 0.147439
C	 3.3342257865	 3.3182757663	-2.3230269621	-0.273785
C	 3.1476779418	 4.7046817018	-2.9491330792	-0.041018
C	 1.6945487095	 4.9352473061	-3.2355349388	-0.268104
C	 2.1858501785	 5.1170824075	-1.8250640522	-0.082343
H	-0.8177280035	 1.8302676391	-0.3651688345	 0.097317
H	 1.9078305652	 1.9124430632	 0.6724575763	 0.120106
H	 1.9978703531	 1.1192726977	-0.9092641144	 0.124721
H	 2.9528381216	 3.8615659502	-0.2103611887	 0.072271
H	 4.3511397091	 3.1085321189	-1.985025851	 0.105693
H	 2.9765420722	 2.4773571946	-2.926304884	 0.101078
H	 3.9303191125	 5.2950770704	-3.4077407229	 0.090482
H	 1.4578394808	 5.8593257629	-3.7526086784	 0.113582
H	 1.0425197006	 4.1022821964	-3.4832078046	 0.116676
H	 2.0963622857	 6.0625260931	-1.3049579857	 0.087771
