20
gdb 11471	3.93549	1.36343	1.09421	1.0834	71.67	-0.2515	0.0915	0.343	1145.1286	0.17652	-386.157797	-386.148991	-386.148047	-386.191805	31.621	
C	-0.0003758205	 1.5746099625	 0.0987511852	-0.382046
C	 0.0384544626	 0.044554073	 0.0799647616	-0.203337
C	-1.3444924162	-0.5880135011	 0.0935918008	 0.121978
C	-1.3696154008	-2.1331044266	 0.102816496	-0.108062
O	-2.3993836878	-2.4732555024	 1.0233683093	-0.270223
C	-2.9950761202	-1.2625334873	 1.4693207293	 0.234836
C	-3.4074091546	-1.3767775894	 2.9192720145	-0.403631
O	-2.0192567006	-0.2624237637	 1.3058582191	-0.264423
H	 1.0102529385	 1.9932817711	 0.1073647717	 0.112251
H	-0.518083332	 1.9681075251	-0.7830261681	 0.113147
H	-0.5285140973	 1.9343727366	 0.985618279	 0.137401
H	 0.5670395382	-0.3093991827	-0.8143520436	 0.099259
H	 0.5938082773	-0.3313113916	 0.9477569461	 0.107088
H	-1.9346109913	-0.2138000819	-0.7605592357	 0.066699
H	-1.584473033	-2.5469760335	-0.8901682087	 0.099719
H	-0.4195553542	-2.5520431863	 0.4581856039	 0.100773
H	-3.867248654	-1.0349005913	 0.8256729171	 0.055981
H	-2.529147718	-1.5837668348	 3.5353612496	 0.128937
H	-3.8712725657	-0.4446865595	 3.2523136641	 0.125084
H	-4.1276270903	-2.190206456	 3.036500479	 0.128567
