19
gdb 69603	3.37565	1.31238	1.22376	1.3674	75.76	-0.2303	0.0704	0.3007	1094.9768	0.159086	-422.996264	-422.988299	-422.987355	-423.028284	32.184	
O	-0.1099052032	 1.384236553	 0.0453228794	-0.467176
C	-0.0705822342	-0.0067357812	 0.0065573483	 0.372404
C	-0.4974275504	-0.7681744661	-1.219888505	-0.362306
C	-1.3386577497	-0.815213319	 0.0456418204	-0.183202
C	-1.056433315	-1.9499599018	 0.9830622833	 0.474263
C	-1.9068031281	-2.2288885453	 2.1941060414	-0.337221
C	-1.7990798812	-3.2406559522	 1.0609327383	-0.33574
O	 0.3524368177	-2.0363175	 1.1089668309	-0.296899
C	 0.8858086282	-0.7244314242	 0.9519937956	-0.156603
H	 0.5811224079	 1.7193873453	-0.536020087	 0.28644
H	-0.8998501316	-0.1730817823	-2.0323211547	 0.112339
H	 0.0545178723	-1.6552114059	-1.5145085433	 0.122722
H	-2.3062620353	-0.3299056852	 0.0591604291	 0.101049
H	-1.3842666449	-2.4612556704	 3.1151672477	 0.120555
H	-2.8377434995	-1.6853613385	 2.319156045	 0.111188
H	-2.6533226204	-3.3840659303	 0.4082239474	 0.115116
H	-1.2113249251	-4.1328969829	 1.2457971932	 0.123329
H	 1.9091030196	-0.832072664	 0.5757554946	 0.098846
H	 0.912832993	-0.1726256089	 1.9044121054	 0.100896
