21
gdb 111764	2.41107	1.2264	0.97104	1.3381	78.78	-0.2401	0.0724	0.3125	1301.3224	0.181445	-424.175475	-424.165893	-424.164949	-424.210209	35.367	
C	 0.0184597083	 1.3497306178	-0.1708669278	-0.257091
O	-0.0293548299	-0.0218594504	 0.1853087579	-0.277232
C	-1.2933646289	-0.5661746858	 0.1060044902	 0.418027
C	-2.3318125536	-0.4705145685	 1.2364035019	-0.304652
C	-2.7038206434	-1.9668365263	 0.9721676986	-0.228308
C	-1.6393573002	-2.027984883	-0.1336414193	-0.179921
C	-1.892812273	-0.9795981822	-1.2126379813	-0.10176
C	-3.2579286303	-0.623011972	-1.752613875	-0.089222
O	-3.7376767537	-1.5906049049	-2.6783932296	-0.42032
H	 1.0603368685	 1.6659759144	-0.0852468851	 0.128379
H	-0.3234647035	 1.5080870243	-1.2033223444	 0.111507
H	-0.5963492091	 1.9666164395	 0.4998025014	 0.111864
H	-1.8422280435	-0.3419104836	 2.2043614017	 0.112248
H	-3.1246295091	 0.277008432	 1.1384927408	 0.097071
H	-2.4649031197	-2.6085896295	 1.8222825767	 0.110039
H	-3.7363417521	-2.167850827	 0.6698191318	 0.097206
H	-0.9692562417	-2.8594960766	-0.3149152051	 0.09567
H	-1.1273334834	-1.0300094942	-1.9848843292	 0.098328
H	-3.978093328	-0.4694785558	-0.9355162176	 0.088095
H	-3.2079093374	 0.3179115442	-2.3115999365	 0.107797
H	-3.6673610463	-2.4499917525	-2.2493295	 0.282274
