17
gdb 29818	3.2173	1.38729	0.9811	5.8518	79.94	-0.2248	-0.0505	0.1743	1183.2768	0.136816	-418.079462	-418.070936	-418.069992	-418.112959	30.816	
C	-0.0184967451	 1.4611694464	 0.0671777324	-0.330385
N	-0.0310216078	 0.0042682087	-0.0066113246	-0.11959
C	-1.1799674267	-0.7051756092	 0.0862431836	-0.01748
C	-1.1834872465	-2.0684459303	 0.0162866358	 0.17367
C	-2.4362988186	-2.8953155497	 0.1149111818	-0.496965
C	 0.1026365723	-2.6536198537	-0.1590268638	-0.01776
N	 1.2315177135	-2.0078926001	-0.2528821239	-0.331417
C	 1.2364678412	-0.6270613369	-0.1819171378	 0.444246
O	 2.2289696616	 0.0683611019	-0.2576605921	-0.395847
H	 0.6082758651	 1.7853574893	 0.9009716629	 0.161112
H	 0.4104164833	 1.8756351856	-0.8479254758	 0.161074
H	-1.0392279445	 1.8229368032	 0.2012960839	 0.124439
H	-2.0882077181	-0.1253682093	 0.2185880112	 0.128951
H	-2.5950207036	-3.4979245162	-0.7866067185	 0.13792
H	-2.3973807235	-3.5887095647	 0.96270254	 0.137922
H	-3.3175473422	-2.2613433865	 0.2473822383	 0.125312
H	 0.1695851798	-3.7421499485	-0.2229098235	 0.114799
