20
gdb 16150	4.14437	1.60332	1.36331	0.2393	79.34	-0.2226	0.0252	0.2477	986.935	0.178133	-311.875063	-311.867424	-311.86648	-311.906731	30.207	
C	-0.2949197703	 1.4922208059	-0.0672424948	-0.374133
C	 0.1403658935	 0.0254201452	 0.0490513128	-0.278219
C	 0.8406228323	-0.4924346888	-1.1891944933	 0.381161
C	 0.0135816896	-1.0078764772	-2.3415330421	-0.319001
C	 0.8763049991	-1.973709199	-1.5462240367	-0.136081
C	 2.2322515254	-2.2201777943	-2.1136932656	-0.06776
C	 2.9613942855	-1.1023161416	-2.1491474016	-0.085894
C	 2.2243358783	 0.0740936774	-1.5437098638	-0.327211
H	 0.5650500156	 2.1508408047	-0.2283670339	 0.117088
H	-0.9810769007	 1.6315586981	-0.9092244656	 0.11665
H	-0.8033020857	 1.8272274983	 0.8423200508	 0.108696
H	 0.8047033391	-0.0901424444	 0.9163456791	 0.093873
H	-0.7386461532	-0.5987448078	 0.2531163151	 0.091386
H	-1.0606242567	-1.0557256136	-2.1875195706	 0.103364
H	 0.3151060301	-0.7861942403	-3.3607006472	 0.106166
H	 0.3890928742	-2.7252209087	-0.9332160844	 0.080669
H	 2.5489413295	-3.1901739058	-2.4805375847	 0.091627
H	 3.9566301122	-1.0121898179	-2.5697484342	 0.089654
H	 2.1648365832	 0.9246715795	-2.2349048479	 0.107231
H	 2.739301819	 0.4468345004	-0.6458081314	 0.100733
