13
gdb 129459	2.84451	1.57395	1.01456	2.4323	62.03	-0.2454	-0.062	0.1834	1059.9817	0.089981	-486.064466	-486.056547	-486.055603	-486.096987	29.314	
N	-0.027152718	 1.2866203128	-0.0229760874	-0.534461
C	 0.0411811557	-0.0637095735	 0.0021229669	 0.372135
O	 1.0864734664	-0.7003655054	 0.0350465388	-0.382326
C	-1.2616706327	-0.770780806	-0.0061747392	 0.2066
N	-2.4301066914	-0.1913844831	 0.0530216441	-0.165303
O	-3.3457914863	-1.1795164011	 0.0628031739	-0.156055
N	-2.7472083758	-2.4340190065	 0.0091588464	-0.185646
C	-1.4564710613	-2.1929629802	-0.0395171122	 0.326765
N	-0.4805451442	-3.129357506	-0.1546429472	-0.595384
H	 0.8287473472	 1.8152676762	-0.0000917263	 0.27264
H	-0.9144827613	 1.7612248002	-0.0365855698	 0.286025
H	-0.7085575395	-4.0764787891	 0.0986288874	 0.268986
H	 0.4511830011	-2.7915080384	 0.0423003344	 0.286023
