20
gdb 121588	4.12562	0.69895	0.61272	1.7055	79.42	-0.2255	-0.0231	0.2024	1834.7686	0.170572	-436.513607	-436.503018	-436.502074	-436.550709	37.507	
C	-0.1180002543	 1.4659901153	 0.0800599978	-0.379167
C	-0.1171852291	-0.05150071	-0.1173098072	-0.19654
C	 0.824532718	-0.4910298106	-1.2370637392	-0.097152
N	 0.8031190516	-1.9315200025	-1.3990773722	-0.306543
C	 1.4228504465	-2.5560633637	-2.4294893186	 0.264398
N	 1.9433133962	-1.9178435427	-3.4158860839	-0.549004
C	 1.3917957937	-4.0749079918	-2.2345916114	 0.364662
N	 1.5596549634	-4.8080531348	-3.3678896425	-0.530967
O	 1.2395256708	-4.5689431276	-1.1316501591	-0.367521
H	 0.8825436134	 1.8343735234	 0.3310295569	 0.119973
H	-0.4427526708	 1.9826885777	-0.8294291718	 0.120574
H	-0.793526181	 1.7582120031	 0.889181923	 0.116211
H	 0.1793229844	-0.543752119	 0.8189407987	 0.099895
H	-1.1311310791	-0.4023347108	-0.3447868317	 0.106759
H	 0.5320578173	-0.0379192004	-2.1905801008	 0.128578
H	 1.8484360953	-0.1393917382	-1.0361951256	 0.106959
H	 0.6214092942	-2.5221658809	-0.5999718793	 0.257875
H	 2.3895196945	-2.5546283887	-4.0711165085	 0.207005
H	 1.4240097691	-4.3867989064	-4.271002631	 0.265238
H	 1.4541695357	-5.8069871113	-3.2897724536	 0.268769
