15
gdb 35206	3.8191	1.14969	1.07897	5.1668	70.65	-0.2533	-0.0016	0.2516	1120.5852	0.11255	-416.739944	-416.732499	-416.731555	-416.772179	28.198	
N	-0.1113111979	-1.1267831288	-0.0434853548	-0.329333
C	-0.0466950902	 0.0271796481	-0.0256915309	 0.315185
C	 0.0297327126	 1.4705124346	-0.0295563477	-0.21987
O	 0.6248153106	 2.0790520735	 1.1331993484	-0.271265
C	 1.3347673977	 2.1511988411	-0.0834058068	 0.499506
C	 2.772414807	 1.6121853713	-0.2397176407	-0.320912
C	 3.1178301557	 2.9532779556	-0.9120393255	-0.041194
N	 2.2278872337	 3.0644990485	-2.0875722552	-0.328353
C	 1.7229883801	 3.458965773	-0.7435431573	-0.177055
H	-0.8536460981	 1.9742967506	-0.415575213	 0.141844
H	 3.2374003545	 1.4860582126	 0.7406199668	 0.132858
H	 2.9103638395	 0.7163149417	-0.8476702115	 0.135192
H	 4.053522849	 3.4936063866	-0.8580514739	 0.110302
H	 2.4677653976	 3.9283232835	-2.5744869606	 0.238727
H	 1.3373391381	 4.448731248	-0.5365177272	 0.114366
