20
gdb 106715	2.45837	1.56631	1.25064	2.3106	79.85	-0.225	0.0889	0.314	1109.968	0.170027	-403.073211	-403.06436	-403.063416	-403.106607	33.603	
C	 0.173254623	 1.2700622029	 0.2216318897	-0.254607
O	-0.1718189276	-0.055565106	-0.1398873704	-0.283419
C	 0.5114897803	-0.5241223807	-1.2384385499	 0.449466
C	 1.9349112904	-1.0336845738	-1.1359851616	-0.406174
C	 0.8278801143	-1.9987460017	-1.5208275046	 0.24892
C	 0.4365159366	-3.2037028251	-0.7161625395	-0.492166
C	 0.4621228844	-1.7484190379	-2.9697752182	-0.108907
N	-0.9518745793	-1.3040230833	-3.0022211872	-0.335265
C	 0.1237628864	-0.3225104788	-2.6849059427	-0.156474
H	 1.2448534516	 1.3595020995	 0.4498792222	 0.108893
H	-0.0755963783	 1.9862202406	-0.5744703704	 0.109851
H	-0.4066791916	 1.5192354304	 1.1130716827	 0.127659
H	 2.700499276	-0.7416629858	-1.8503617289	 0.100572
H	 2.2905081307	-1.1406397426	-0.1151121026	 0.114989
H	 0.4930445752	-2.9905372268	 0.3557371728	 0.124515
H	-0.5927396167	-3.4939279779	-0.9477634727	 0.137421
H	 1.0913663918	-4.0578689264	-0.9241420528	 0.112977
H	 0.9483619761	-2.1467722984	-3.8531195441	 0.089839
H	-1.1987163036	-1.1625514857	-3.9837094797	 0.221711
H	 0.2869085503	 0.5437774374	-3.3157199922	 0.090199
