13
gdb 129850	3.25902	1.43118	0.99451	4.517	66.2	-0.2298	-0.0552	0.1746	1078.4268	0.089238	-489.905257	-489.897435	-489.896491	-489.93768	29.168	
N	 0.0275094684	 1.3220782788	-0.0571272745	-0.573553
C	-0.060106461	-0.0219666529	-0.0271362294	 0.23889
C	-1.1826516315	-0.7900332844	-0.0254515734	-0.308928
C	-1.0057004327	-2.2016890443	 0.0307334047	 0.465691
O	-2.1280638493	-2.9494883975	 0.0359094071	-0.410898
N	 0.1188558022	-2.8454113072	 0.0782222728	-0.232652
O	 1.2758955262	-2.0417069283	 0.0691494633	-0.253143
C	 1.2624232233	-0.6930036898	 0.0180385847	 0.457009
O	 2.3036873128	-0.0765674333	 0.0070747383	-0.365486
H	 0.9544214189	 1.7147127274	-0.1135566815	 0.285775
H	-0.7791524103	 1.9082835637	-0.1719544481	 0.27035
H	-2.1857649147	-0.3836097102	-0.0606312504	 0.116732
H	-1.8504328523	-3.876236802	 0.0763726463	 0.310213
