23
gdb 72218	3.05582	1.59874	1.29969	0.1541	87.93	-0.2576	0.0793	0.3369	1085.6293	0.208515	-351.154946	-351.147144	-351.1462	-351.18691	32.374	
C	 0.0205525788	 1.5717032876	 0.0165169044	-0.498971
C	-0.0232240791	 0.0600314695	 0.0166925683	 0.393278
C	 0.4437761695	-0.6667699456	-1.2824491257	-0.300655
C	-0.8679894695	-1.5174557142	-1.3158112481	 0.003324
C	-0.7458430845	-3.0068033951	-0.9806889531	-0.213226
C	-0.4087976949	-3.0737610021	 0.5331356021	-0.227581
C	-0.7800570989	-1.6934867907	 1.1327509942	-0.000926
C	 0.4001054308	-0.6862857051	 1.306425588	-0.289579
C	-1.3407263211	-0.801607136	-0.0235305272	-0.097472
H	 1.0562323898	 1.9351997242	 0.0305016164	 0.1128
H	-0.4613536836	 1.9875304172	-0.8761248912	 0.109007
H	-0.4868219301	 1.9874597462	 0.8947902596	 0.108851
H	 0.5263072217	 0.0126599511	-2.1354162462	 0.094067
H	 1.3816898982	-1.2274750922	-1.2055509817	 0.086714
H	-1.4667264789	-1.3388914464	-2.2118521217	 0.059977
H	-1.7075690783	-3.4981082888	-1.1713259687	 0.092878
H	-0.0014457776	-3.5177519844	-1.6009821919	 0.092676
H	-0.9585901589	-3.8846327809	 1.0200252671	 0.093903
H	 0.6539002024	-3.2842622733	 0.6940081699	 0.095974
H	-1.4114918949	-1.7862910291	 2.0180135586	 0.062837
H	 1.4119011171	-1.1074007743	 1.3324263937	 0.083529
H	 0.2684397994	-0.0563162906	 2.1919861815	 0.090087
H	-2.3487318275	-0.3924694471	 0.0540322516	 0.048506
