18
gdb 6836	3.33035	1.45466	1.29945	3.5367	63.85	-0.2482	0.054	0.3023	1012.0662	0.151945	-422.049506	-422.040684	-422.03974	-422.083009	32.27	
C	-0.1578447939	 1.5689788825	-0.1373948284	-0.462411
C	-0.0281507019	 0.0578068578	-0.0041533593	 0.307561
O	-1.2444754067	-0.5930823782	-0.3083275136	-0.470396
C	 1.2484482946	-0.5545742764	-0.6451415256	-0.108131
O	 1.7991522864	-0.8650867778	 0.6515278075	-0.312404
C	 0.5584834191	-0.5078421411	 1.3151137472	 0.110247
C	 0.8416803951	 0.3620575011	 2.5252141304	-0.082742
O	 1.6666555722	-0.33699234	 3.4399275439	-0.421275
H	 0.7759702578	 2.0805857695	 0.1095133479	 0.133492
H	-0.408428442	 1.831847925	-1.1732197723	 0.111176
H	-0.9507656601	 1.9515771308	 0.5120930555	 0.132092
H	-1.6195286734	-0.1870863131	-1.0972111741	 0.279162
H	 1.0373637679	-1.4573720845	-1.2313278225	 0.102703
H	 1.8989116476	 0.1185684631	-1.216260879	 0.097584
H	 0.0118386792	-1.4080142778	 1.624280044	 0.093148
H	 1.3099141779	 1.3078044422	 2.2135697972	 0.082137
H	-0.0899023708	 0.5999850264	 3.0502774483	 0.112416
H	 2.4297897909	-0.6406813294	 2.933668443	 0.29564
