23
gdb 13895	2.67194	1.62014	1.21963	1.3329	82.01	-0.2103	0.0748	0.2851	1128.578	0.20977	-330.304309	-330.294194	-330.29325	-330.338701	37.155	
C	-1.4323977305	 0.3639573015	 0.3992217044	-0.389332
C	 0.0433663595	 0.2198383604	-0.0049137944	 0.0156
C	 0.6571879211	 1.5888247527	-0.3392423495	-0.390023
C	 0.820081177	-0.4521487166	 1.1176870874	 0.010159
C	 0.8888287094	-1.9354670732	 1.3165191645	-0.01073
C	 0.2167483573	-2.9356304064	 0.3977507027	-0.416215
N	 2.0852000301	-1.1738453007	 0.9445636278	-0.115918
C	 2.6868730871	-1.3432237638	-0.3687064784	-0.315157
H	-1.5284459025	 0.954568482	 1.3180277057	 0.11424
H	-2.0065738226	 0.8726745669	-0.3822870369	 0.109318
H	-1.8954371612	-0.6106979131	 0.5806686939	 0.1155
H	 0.0851831657	-0.3983486174	-0.9076801194	 0.069992
H	 0.6359358236	 2.247621335	 0.53682953	 0.114322
H	 1.6994528529	 1.4959668366	-0.6583363139	 0.118217
H	 0.1001190015	 2.0837192574	-1.1417159301	 0.108224
H	 0.8195183471	 0.1603694749	 2.0230222239	 0.076973
H	 0.9319428525	-2.2888378534	 2.3478275352	 0.081911
H	 0.0722376466	-2.5678003825	-0.61954338	 0.119955
H	 0.803462951	-3.8593851162	 0.3380045109	 0.120912
H	-0.7684036645	-3.2015667832	 0.7959940532	 0.121486
H	 1.9907085104	-1.4482778574	-1.2131322475	 0.098676
H	 3.3330764237	-0.4832665987	-0.5737686905	 0.122418
H	 3.3220924548	-2.2351941248	-0.3491780189	 0.119474
