13
gdb 61106	2.45005	1.25564	1.03698	3.7198	67.24	-0.3138	-0.0402	0.2736	1139.5871	0.088189	-411.798864	-411.789692	-411.788747	-411.8331	31.675	
N	-0.0689052116	 1.4862415068	 0.0297161873	-0.489915
C	-0.0268994518	 0.0288970701	-0.0080436425	-0.089436
C	 0.7129341832	-0.5025116609	 1.2619380604	-0.351949
C	 0.0933848083	-0.0519273943	 2.5038117089	 0.294627
N	-0.3741575383	 0.2828159143	 3.5046278592	-0.28253
C	-1.4116113136	-0.4852253811	-0.0356555171	 0.340737
N	-2.4900637092	-0.8942018329	-0.0659464663	-0.298818
C	 0.6925927589	-0.5063783588	-1.1956656526	 0.285333
N	 1.300954225	-0.8589544093	-2.1123062238	-0.307707
H	 0.8709239821	 1.8647468702	-0.0458348642	 0.260557
H	-0.6152990715	 1.8515152226	-0.7440318788	 0.2699
H	 0.7400786618	-1.5955155789	 1.2354910932	 0.191547
H	 1.7487806766	-0.149642528	 1.2204890262	 0.177653
