16
gdb 111036	2.02999	1.67952	1.08615	5.826	70.32	-0.2632	-0.0044	0.2587	1109.6555	0.123452	-437.809154	-437.800896	-437.799952	-437.842607	30.41	
O	 0.295780635	 0.4932575827	 1.0673838342	-0.408658
C	-0.0638876692	 0.3473605134	-0.2961108498	-0.138074
C	-1.388175082	-0.3873143639	-0.3097008047	 0.016943
C	-1.9759420976	-1.1006264035	-1.5580880544	-0.005662
C	-0.9317331784	-2.2374793842	-1.4459358993	-0.268995
C	-1.5036348078	-1.9217597965	-0.0372971128	 0.321865
O	-2.8556817325	-1.8752371403	-0.642530292	-0.325601
C	-1.3161750441	-2.6435305036	 1.1971525181	 0.189983
N	-1.1371923352	-3.2258729966	 2.1788507353	-0.344113
H	 1.1319943119	 0.9657787549	 1.1159634698	 0.295016
H	-0.2027363429	 1.324456098	-0.7873382662	 0.0989
H	 0.7109755785	-0.190714959	-0.8600582125	 0.093641
H	-2.1473004328	 0.1651757953	 0.2473431582	 0.114237
H	-2.4387883062	-0.6715915286	-2.4445356898	 0.113801
H	-1.2563252474	-3.1956496642	-1.8501488382	 0.131382
H	 0.1190475507	-2.0252737439	-1.644069506	 0.115333
