18
gdb 78872	3.74713	1.40363	1.25834	1.12	75.39	-0.2358	0.0669	0.3027	1035.9918	0.147847	-401.851331	-401.84396	-401.843016	-401.88275	29.959	
O	 0.0454774956	 1.2579140168	-0.169229103	-0.444075
C	-0.053704146	-0.1439860187	-0.024010807	 0.130544
C	 0.0678845362	-0.6024527537	 1.4370346809	-0.100266
C	-1.3842220807	-0.4324470631	 1.6586301599	-0.032205
C	-1.543723899	-0.5506657613	 0.0920137358	-0.205819
C	-1.4368068252	-2.0460098883	 0.3338904761	 0.440364
C	-2.4635875369	-3.1102509744	 0.1726044067	-0.355358
C	-1.1321173704	-3.1969886737	-0.564860633	-0.343447
N	-0.8085853052	-1.8098614235	 1.6613937049	-0.193568
H	 0.9565152345	 1.5143080503	 0.0065706032	 0.28442
H	 0.5420323411	-0.6685940004	-0.7840888785	 0.068059
H	 0.8952553663	-0.469985196	 2.1236925057	 0.093482
H	-1.9781578984	-0.0174364406	 2.4607903389	 0.101373
H	-2.2863870315	-0.0884029748	-0.554663099	 0.083098
H	-2.6167281988	-3.7824038717	 1.0101673522	 0.12451
H	-3.355885298	-2.889351773	-0.4040145447	 0.113811
H	-1.1264352713	-3.0330960065	-1.6379712528	 0.11301
H	-0.4139895124	-3.9304683474	-0.2141949962	 0.122066
