19
gdb 72146	2.50439	2.02785	1.80218	0.4954	73.	-0.2413	0.0824	0.3237	892.9695	0.161847	-423.036764	-423.030023	-423.029078	-423.067391	28.505	
C	 0.0216403287	 1.4797551148	-0.112896868	-0.512149
C	 0.009296341	-0.0193512919	-0.020034197	 0.412517
O	 0.4664399187	-0.6554073244	-1.197464652	-0.292062
C	 0.3252209295	-2.0218023439	-0.7707673176	 0.045175
C	 1.1883735782	-2.0426309208	 0.5144898281	-0.229038
C	 0.6519950136	-0.7732266368	 1.1960251858	 0.030533
O	-0.6537256861	-1.0261038591	 1.7653868692	-0.307443
C	-1.2582272211	-0.8024706197	 0.4701690617	 0.030531
C	-1.1725999204	-2.0787765609	-0.3826451338	-0.229038
H	 1.0353761083	 1.8472424324	-0.2995591193	 0.128513
H	-0.6216650858	 1.8218652338	-0.9293945252	 0.128515
H	-0.340309431	 1.9172537626	 0.821738755	 0.132753
H	 0.6400077666	-2.6892116365	-1.5722950724	 0.07877
H	 1.0503347728	-2.9269153038	 1.1403379687	 0.109293
H	 2.2458242455	-1.940325596	 0.252753751	 0.10508
H	 1.3253345182	-0.2728699987	 1.8947438012	 0.076838
H	-2.2387122722	-0.3274349241	 0.5404581659	 0.076838
H	-1.7917895933	-2.0021427206	-1.2814811612	 0.105079
H	-1.4613221613	-2.9653658563	 0.1859482998	 0.109293
