13
gdb 23334	2.29177	1.54046	1.067	2.1021	66.88	-0.2672	-0.0166	0.2506	1076.9544	0.087843	-452.616125	-452.608509	-452.607564	-452.648642	28.069	
O	-0.057864121	 1.3906071841	-0.1253208479	-0.386525
N	 0.0845271103	-0.0038366929	-0.0938398241	-0.30019
C	-1.0238205661	-0.5823749137	 0.0189493968	 0.524181
C	-2.5431908075	-0.4346505249	 0.0602569435	-0.040968
O	-2.5868905687	-1.5186096408	-0.9570966967	-0.303622
C	-1.5746730284	-1.9940323036	 0.0244053654	-0.032548
C	-2.5790607556	-1.5625038823	 1.1491960029	-0.149197
C	-2.1086846749	-1.3043984652	 2.4986042896	 0.26432
N	-1.7370499734	-1.1016754668	 3.5738215634	-0.310228
H	 0.8572320794	 1.6867817737	-0.1883931122	 0.31709
H	-3.1977237608	 0.4234097541	-0.0606329801	 0.137863
H	-1.1011228301	-2.9584240144	-0.1380995931	 0.133991
H	-3.5067641231	-2.1361748873	 1.1227875225	 0.145833
