18
gdb 55751	4.0435	1.13722	1.03754	2.1817	72.8	-0.2657	0.0544	0.3202	1187.8095	0.148462	-439.084122	-439.07604	-439.075095	-439.117204	31.189	
N	-0.1859808689	 1.2702529326	 0.1131657796	-0.566466
C	 0.0844257781	-0.066262809	 0.0377525705	 0.459343
O	 1.1878041122	-0.5559162463	 0.0099300479	-0.391458
O	-1.0861113608	-0.7638839991	 0.032205675	-0.319504
C	-0.9843503077	-2.1643439358	 0.0103559131	 0.473478
C	-0.3489550958	-3.0986439592	 1.0739077057	-0.266423
C	-0.9848083881	-4.0126341557	-0.0166023229	-0.062634
C	-2.2295780115	-3.0715782634	 0.0083115884	-0.280375
C	-0.3684439495	-3.0673542288	-1.0913800694	-0.266738
H	 0.5811108038	 1.8920900113	-0.0746960754	 0.268981
H	-1.1191070205	 1.5916904778	-0.0793287862	 0.265709
H	 0.7387916975	-3.0857386395	 1.1394129228	 0.116981
H	-0.8263368123	-3.1108278571	 2.0572673538	 0.090605
H	-0.9926268935	-5.0990858424	-0.0323316709	 0.085092
H	-2.832363079	-3.0782881723	 0.9200138418	 0.094275
H	-2.8486970034	-3.0522479366	-0.8922812904	 0.093201
H	-0.8635952711	-3.0515923522	-2.0659941247	 0.089142
H	 0.7179411206	-3.0524299844	-1.1761597685	 0.11679
