16
gdb 129464	4.55179	0.91376	0.88361	3.7982	70.77	-0.2308	0.0084	0.2392	1304.4375	0.126268	-434.122312	-434.113792	-434.112848	-434.157643	30.452	
N	 0.7433588697	-0.0565126904	 0.5167147217	-0.521325
C	-0.2538048021	 0.2848796356	-0.3422518063	 0.407696
O	-0.3793127207	 1.4004958283	-0.8068269379	-0.365057
C	-1.2499700377	-0.834969264	-0.7025095973	-0.444625
C	-0.978840992	-2.211083375	-0.1762385268	 0.181059
C	-0.3604504076	-3.264616525	-0.8264416337	-0.124756
N	-0.3354914503	-4.3002603837	 0.0459753214	-0.171937
N	-0.8952225028	-4.007798224	 1.2335254069	-0.218553
C	-1.2861401226	-2.7434453662	 1.1021278657	-0.083519
H	 1.3992799645	 0.6549081262	 0.7926312338	 0.258992
H	 0.8227979788	-0.9840561301	 0.8949322043	 0.265416
H	-2.2272394117	-0.4777569672	-0.3596320525	 0.142906
H	-1.3045917606	-0.8390557383	-1.7950883906	 0.137685
H	 0.0448632806	-3.3482386799	-1.8229112219	 0.140488
H	 0.03330753	-5.2241426131	-0.1040992764	 0.278578
H	-1.7849978156	-2.2495626831	 1.9242534096	 0.116951
