18
gdb 16502	3.70926	2.23567	1.931	1.8497	70.15	-0.2456	0.0926	0.3382	780.2289	0.155465	-347.765802	-347.759395	-347.758451	-347.795849	26.662	
C	-0.0521851673	 1.4774086514	 0.0384098798	-0.492181
C	 0.073589082	-0.014396895	-0.0330325636	 0.435391
O	-0.5586495443	-0.7815598589	 1.0133175578	-0.302043
C	 0.8637570099	-0.8984515513	 0.825956206	-0.019743
C	 1.3187739163	-1.9837579275	-0.175251894	-0.074001
C	 0.0208187508	-2.2482547819	-0.9883834994	-0.213328
C	 0.1998330433	-0.7592897107	-1.3899362394	-0.107417
C	 1.7414692608	-1.0584544284	-1.3713705471	-0.220791
H	 0.695452008	 1.9604697099	-0.6000761766	 0.123121
H	-1.0410978464	 1.8013983492	-0.3053704674	 0.127433
H	 0.0826223301	 1.829264045	 1.0644036598	 0.129191
H	 1.4845327505	-0.5761487693	 1.6560984575	 0.093719
H	 1.9519397498	-2.790098121	 0.1938651436	 0.063443
H	 0.2037039738	-2.9188341373	-1.8299174963	 0.092374
H	-0.8787182739	-2.5300641386	-0.4450612271	 0.117597
H	-0.2991272871	-0.3216177323	-2.254944705	 0.059578
H	 2.4206689734	-0.2271457744	-1.1567198809	 0.09095
H	 2.0873649204	-1.6122772689	-2.2481450878	 0.096706
