17
gdb 44422	3.46864	1.45183	1.42015	3.4745	73.33	-0.2523	-0.0275	0.2248	968.8266	0.136639	-421.735115	-421.72827	-421.727325	-421.766195	28.042	
O	 0.0319088161	-0.0307494321	 0.0380231754	-0.272961
C	-0.0371995054	 1.1531679573	 0.0448968375	 0.305011
C	-1.273084274	 2.1977657708	-0.0973387611	-0.404981
C	-0.2414716302	 3.0132657503	-0.921070168	-0.007359
C	 0.8296129603	 4.1731136187	-0.9130863134	-0.001733
C	 0.9441644398	 4.6479416785	 0.5353005822	-0.210517
C	 1.02133561	 3.2354100531	 1.1764420934	-0.254272
C	 0.8798336375	 2.3966849568	-0.1296077819	 0.266327
O	 1.8708757975	 3.1065147384	-0.9832791947	-0.361687
H	-2.1303846705	 1.7972963185	-0.6398064605	 0.135515
H	-1.595747078	 2.6035217746	 0.860789244	 0.13587
H	-0.209797261	 2.594813323	-1.930145401	 0.115349
H	 0.9006839961	 4.8787077212	-1.7401679919	 0.094531
H	 1.8491238109	 5.2372807735	 0.6932501079	 0.118472
H	 0.0801101599	 5.2347669657	 0.8578502801	 0.106945
H	 1.996105178	 3.0172687407	 1.6168378377	 0.126093
H	 0.2574213231	 3.0433730511	 1.9317345242	 0.109396
