16
gdb 51129	4.47601	1.04323	0.97973	3.7687	69.46	-0.2287	0.0014	0.2301	1198.1329	0.123272	-437.807147	-437.799518	-437.798574	-437.839844	28.987	
O	 0.0739910279	-0.0205612975	-0.2100709459	-0.266402
C	 0.1076512039	 1.1685668305	-0.2894891179	 0.145631
O	 1.067506295	 1.906988563	 0.3249056341	-0.228246
C	 0.9725605255	 3.2939362725	 0.1986983125	 0.42293
C	 1.0712774162	 4.0425619538	-1.0995456502	-0.347815
C	 2.0989848069	 4.2764602409	-0.0072304141	-0.146427
C	 1.5323915237	 5.1296206853	 1.1688577348	-0.046932
N	 0.132420608	 5.5183425633	 0.8532439021	-0.335664
C	 0.4369698896	 4.1659481172	 1.3792458634	-0.131053
H	-0.6056224321	 1.7917274282	-0.8580009621	 0.094499
H	 1.4565563407	 3.4440519326	-1.9195745873	 0.123975
H	 0.3498087919	 4.8038464092	-1.3662485416	 0.151758
H	 3.1513618653	 4.0756171921	-0.15212583	 0.112863
H	 2.1247899496	 5.6822270197	 1.8853080358	 0.105127
H	-0.2115300603	 6.0763848151	 1.6344780085	 0.23644
H	-0.0047796416	 3.776459814	 2.2869059781	 0.109314
