15
gdb 125260	3.10638	1.39808	0.96984	2.4965	72.08	-0.2222	-0.0541	0.1681	1140.4216	0.113867	-454.002347	-453.994509	-453.993564	-454.034646	29.686	
C	-0.0201927147	 1.5224665558	-0.0173012679	-0.475126
C	-0.0620624115	 0.0283474379	-0.0030738149	 0.195591
C	-1.1910428553	-0.7131568811	-0.1104097838	-0.270393
C	-1.1054863982	-2.141734649	-0.0839441777	 0.449554
O	-2.2623872295	-2.831802783	-0.1948482866	-0.417929
N	 0.0049612109	-2.798001849	 0.0387814991	-0.311338
N	 1.1224170242	-2.0386856675	 0.1447257642	-0.290837
C	 1.2315336661	-0.6589363104	 0.1388772549	 0.379212
O	 2.3152558674	-0.1026920267	 0.2438379123	-0.390862
H	 0.6188665449	 1.8740623477	-0.8341214255	 0.154747
H	-1.0174246271	 1.9540406367	-0.1253680941	 0.121585
H	 0.4399562057	 1.8956518508	 0.9036828597	 0.154752
H	-2.1699553734	-0.2575758694	-0.2170778512	 0.123261
H	-2.0369983793	-3.7714549614	-0.1600226064	 0.305476
H	 1.9828017798	-2.5597155113	 0.2399556179	 0.272307
