14
gdb 51282	6.25954	0.83039	0.74086	1.3532	65.08	-0.2555	-0.0449	0.2106	1404.2162	0.099367	-473.876477	-473.868323	-473.867379	-473.910683	28.247	
O	 0.0676408483	-0.0183506768	 0.0775453089	-0.243328
C	-0.0140928959	 1.162298964	-0.0285227514	 0.169198
O	 1.1107781558	 1.9535931054	 0.1140029266	-0.23244
C	 0.9779006349	 3.3081497354	 0.0796760312	 0.441763
N	-0.1274582098	 3.9298078035	 0.1288401272	-0.294063
C	 0.1399188538	 5.3654317333	 0.0701398209	-0.270329
C	 1.6682543089	 5.532645939	-0.0135076769	 0.391236
O	 2.2786014428	 6.5629058982	-0.0735252783	-0.288615
C	 2.2446896415	 4.1084447143	-0.0054166719	-0.45802
H	-0.9141740641	 1.7489788725	-0.2481106355	 0.1465
H	-0.3471957466	 5.8227910701	-0.7994315983	 0.150508
H	-0.257572175	 5.8746517399	 0.9560910741	 0.151557
H	 2.910892838	 3.9440295312	 0.8480515756	 0.169141
H	 2.8242193072	 3.8985910001	-0.9105502622	 0.166893
