23
gdb 78468	3.09708	1.38434	1.36875	0.0592	88.01	-0.2492	0.0898	0.339	1111.2525	0.209972	-351.159615	-351.152242	-351.151297	-351.190818	31.752	
C	 0.0964379178	 1.6182059907	 0.0706353223	-0.428745
C	 0.0133647155	 0.1066552834	 0.0164423552	-0.017528
C	 1.2755829029	-0.6725488301	-0.2695400169	-0.04092
C	 0.6613131692	-0.6888106919	 1.1252904555	-0.040925
C	 0.3222642452	-2.1784805069	 1.3604660011	-0.025179
C	-0.8474962113	-2.6441385567	 0.4608860548	-0.217375
C	-0.2163577615	-2.6274357679	-0.9722310704	-0.217374
C	 1.2329588583	-2.1543750474	-0.7074380837	-0.02518
C	 1.5213463366	-2.8566511249	 0.646005478	-0.201827
H	 1.0511413776	 1.9472914565	 0.4950805427	 0.112895
H	 0.0099470874	 2.0561905653	-0.9300228411	 0.114991
H	-0.7040140151	 2.0373331856	 0.6905025415	 0.11499
H	-0.9199612942	-0.2580199817	-0.398833359	 0.079186
H	 2.1802827681	-0.1110078735	-0.4817358955	 0.07236
H	 1.1107764772	-0.1393203476	 1.946801139	 0.07236
H	 0.186562919	-2.4236277363	 2.4154861973	 0.052247
H	-1.1543639266	-3.6561309714	 0.7421283088	 0.090293
H	-1.729277808	-2.0046216575	 0.5504513346	 0.097854
H	-0.2073847079	-3.6310707074	-1.4081563252	 0.090293
H	-0.7511261899	-1.9787371649	-1.6706260837	 0.097854
H	 1.9216602913	-2.3777025796	-1.5243802695	 0.052247
H	 2.4870796597	-2.5735614767	 1.0746093415	 0.087305
H	 1.4517336587	-3.9502412191	 0.6026022125	 0.080178
