21
gdb 126417	2.83106	1.21625	0.92505	2.3722	86.39	-0.2193	0.0328	0.252	1346.2024	0.182383	-383.317705	-383.307491	-383.306547	-383.353632	36.272	
C	 0.0228106419	 1.5565068724	 0.0762637113	-0.371714
C	-0.0787564449	 0.0315823425	-0.1017656037	-0.2821
C	 0.7327324994	-0.4856889982	-1.251960751	 0.279385
N	 0.1498987459	-0.7626679115	-2.4160559025	-0.299858
N	 1.1609591584	-1.1721423172	-3.208709328	-0.264438
C	 2.3705922391	-1.1758897253	-2.5886154574	 0.298577
C	 3.6232062523	-1.5891168107	-3.2899216214	-0.50453
C	 2.1345929723	-0.7280161435	-1.299623583	 0.060818
C	 3.1319464913	-0.5428966657	-0.1970087617	-0.518406
H	 1.0560390571	 1.8695260666	 0.2582854761	 0.114919
H	-0.3283372704	 2.0724738644	-0.822390002	 0.125344
H	-0.5838330057	 1.893012742	 0.9232466938	 0.108168
H	 0.2404457347	-0.4625904071	 0.8245735107	 0.096721
H	-1.1234918413	-0.2485458005	-0.2681407458	 0.115427
H	 0.9561336814	-1.4621288589	-4.1497433445	 0.263054
H	 4.0421553621	-0.7788521836	-3.8991063558	 0.138201
H	 4.3886070549	-1.8827584098	-2.5673631036	 0.140612
H	 3.449350786	-2.4437906146	-3.9528352706	 0.127897
H	 3.3944038162	 0.5112665809	-0.0431088234	 0.127625
H	 2.746524782	-0.917121727	 0.7579475739	 0.127
H	 4.0637142075	-1.078314355	-0.4040295013	 0.117296
