14
gdb 11238	4.54537	1.47848	1.25285	3.1796	63.31	-0.2706	-0.0034	0.2671	953.9676	0.107708	-378.755457	-378.748	-378.747056	-378.787893	26.109	
C	-0.1768771687	 1.3882748996	 0.1641106538	-0.474016
C	 0.008768736	-0.074481372	-0.0346479377	 0.413651
N	-0.1897590836	-0.7370274748	-1.0965123612	-0.289166
C	 0.1264524731	-2.1339994846	-0.8070205156	-0.204932
C	 0.5383353173	-2.1333411489	 0.705595238	-0.04777
O	 0.4512103655	-0.7469175324	 1.0806995945	-0.248628
C	-0.3433956444	-2.935574558	 1.5588030101	 0.274222
N	-1.035686119	-3.5949012545	 2.2073177781	-0.310412
H	 0.7647265315	 1.849568418	 0.4773065094	 0.152082
H	-0.5186062128	 1.8427071934	-0.7648118093	 0.159559
H	-0.909104183	 1.5702973511	 0.9566490117	 0.156635
H	-0.7397670284	-2.7735926993	-0.9958027252	 0.144602
H	 0.9457957661	-2.4823362119	-1.4428089265	 0.132014
H	 1.5690268003	-2.4652059457	 0.8595276899	 0.14216
