12
gdb 21826	5.97405	1.45882	1.1725	4.2847	58.01	-0.2402	-0.022	0.2182	918.9683	0.08516	-414.669791	-414.663297	-414.662353	-414.700942	23.301	
O	-0.2293497495	 0.0135788059	 0.0000874239	-0.304114
C	-0.0752207961	 1.2143576188	 0.0080183412	 0.141361
N	 1.141092795	 1.839592139	 0.0013288828	-0.41267
C	 2.3669863593	 1.1727276644	-0.0151365703	 0.212357
C	 2.6354752662	-0.1648591271	-0.0284021744	 0.023595
O	 3.9680567701	-0.3511610143	-0.0420117569	-0.160689
N	 4.6109344576	 0.8721550862	-0.0378510227	-0.120023
C	 3.6578683486	 1.7706554661	-0.0217978155	-0.053154
H	-0.9083450361	 1.9408307245	 0.0212247169	 0.093274
H	 1.1551438605	 2.8473306524	 0.0086734189	 0.262723
H	 2.010722773	-1.0390854683	-0.0298005426	 0.185687
H	 3.9172805813	 2.8203042526	-0.0155596316	 0.131653
