18
gdb 90470	2.55767	1.40085	1.19419	5.2688	75.03	-0.2705	0.0249	0.2954	1094.8875	0.149252	-401.962274	-401.954197	-401.953252	-401.995004	31.034	
O	 0.5549629849	 0.5734679771	-0.7995910244	-0.43987
C	-0.0418529376	-0.3212430039	 0.1181219879	 0.131534
C	 0.500088062	-0.1948174166	 1.5706592486	-0.261864
C	-0.6635946483	-0.518220666	 2.4894556181	-0.05859
C	-1.9344314994	-0.5027163379	 1.6781712838	-0.058582
C	-1.5851251955	-0.1693643587	 0.2394901877	-0.261923
C	-1.4379413256	-1.8162231473	 2.2764806507	-0.192246
C	-0.9420707514	-2.9012657208	 1.4789777674	 0.308214
N	-0.54636934	-3.7832880153	 0.8422305047	-0.354826
H	 0.3746466845	 1.4722235968	-0.5021774189	 0.273527
H	 0.1975366166	-1.3101098327	-0.2757934515	 0.129369
H	 1.3790284143	-0.8247726055	 1.7338282298	 0.125286
H	 0.809734512	 0.8429757091	 1.7490963434	 0.098226
H	-0.6397335044	-0.1519927699	 3.5095789473	 0.101564
H	-2.8633834028	-0.1248625059	 2.0900184043	 0.101564
H	-1.8593099679	 0.8755664064	 0.045312737	 0.098195
H	-2.113910478	-0.7820974382	-0.4960011452	 0.125302
H	-1.9956384333	-2.1562433208	 3.1435826593	 0.13512
