15
gdb 51506	3.28216	1.10023	0.87612	1.0265	67.97	-0.2559	-0.0497	0.2062	1255.842	0.112033	-453.994037	-453.985814	-453.98487	-454.028283	28.601	
O	 0.1348441216	-0.1577059598	 0.2762201171	-0.220159
C	 0.0683883588	 0.9569582527	-0.1640312644	 0.151236
C	 1.1967039893	 1.9771461153	-0.0477968345	-0.267329
N	 1.2339761259	 2.9042474035	-1.1536303339	-0.113359
C	 1.6335750212	 2.6607139899	-2.4692676089	 0.068955
N	 1.6046538607	 3.6582014252	-3.2638529786	-0.247471
C	 1.1304197582	 4.7900347592	-2.4622617786	-0.293847
C	 0.8976358962	 4.2581524383	-1.046902153	 0.394016
O	 0.5241389502	 4.8083992888	-0.0402248102	-0.362412
H	-0.8382316866	 1.3392910878	-0.6854724954	 0.096446
H	 1.0092469346	 2.5840129134	 0.8485380698	 0.177079
H	 2.1475707125	 1.4519942324	 0.0835427008	 0.148068
H	 1.9465518521	 1.6604492246	-2.7531740222	 0.149545
H	 1.867061209	 5.6004348418	-2.4542599091	 0.159942
H	 0.2048474362	 5.2034287269	-2.8772769689	 0.159288
