18
gdb 75390	2.19517	1.69089	1.02321	3.5629	81.88	-0.2179	-0.0306	0.1873	1168.0164	0.149034	-402.000191	-401.99186	-401.990916	-402.033143	31.691	
C	 0.0303262083	 1.5304734134	-0.1216432589	-0.478442
C	-0.0757852769	 0.0349319698	 0.0105203812	 0.361664
C	-1.2423807429	-0.6096247492	 0.1103257544	-0.155588
C	-1.3711153831	-2.1138617073	 0.1417567738	-0.328523
C	-0.5940904458	-2.7344545928	 1.2769108041	-0.066015
C	 0.7044493845	-2.5301066971	 1.5120554949	-0.120926
C	 1.6461581765	-1.7044990266	 0.7233169615	 0.35256
O	 2.8432218529	-1.9417208081	 0.7199133765	-0.373629
N	 1.1701720843	-0.6167116167	 0.0004002074	-0.392214
H	 0.5788183803	 1.967232428	 0.7210762938	 0.136915
H	 0.5732833823	 1.8033624458	-1.0360784307	 0.129886
H	-0.9583487101	 1.9894753845	-0.1719350478	 0.134664
H	-2.1488706306	-0.0185354847	 0.16950494	 0.091342
H	-2.4243727271	-2.3934144455	 0.2183837514	 0.110554
H	-1.0098424579	-2.5355019054	-0.8087744852	 0.130906
H	-1.1325894163	-3.4120061485	 1.9359574068	 0.106328
H	 1.2058368388	-3.0641476893	 2.3125035438	 0.115723
H	 1.9439254928	-0.0976317904	-0.394768467	 0.244793
