19
gdb 89613	3.79696	1.12425	1.00129	2.705	76.11	-0.2377	0.0188	0.2565	1235.1936	0.159639	-419.20376	-419.194967	-419.194022	-419.237176	33.589	
C	-0.2967991607	 1.4586338568	 0.1231994418	-0.40464
C	 0.1094194621	-0.0019768741	 0.0560445202	 0.081703
C	 1.1584947252	-0.4850198615	-0.9897013058	-0.342267
C	 1.9520937777	-1.018643275	 0.1972198356	 0.275388
C	 2.2612379346	 0.0750257639	 1.1474892801	-0.266398
N	 0.9274580272	-0.5385506013	 1.2206155276	-0.203838
C	 2.5728753874	-2.378334724	 0.2667669185	 0.278647
N	 2.4651173491	-2.9663127279	 1.4960099695	-0.537235
O	 3.135538607	-2.8773795634	-0.689360035	-0.362263
H	 0.5637484684	 2.1338819339	 0.1398602942	 0.118774
H	-0.9011461421	 1.7185025005	-0.7524415776	 0.124581
H	-0.8971716823	 1.6489145378	 1.0187557039	 0.129234
H	-0.7887208111	-0.6235039867	 0.0104088269	 0.091815
H	 0.790230821	-1.2658391086	-1.6553936545	 0.127749
H	 1.6586115821	 0.2817165464	-1.5876245489	 0.108183
H	 2.8794861902	-0.1655340248	 2.006210669	 0.130757
H	 2.3833110082	 1.0869344464	 0.7698712689	 0.119749
H	 1.7513077934	-2.6253214536	 2.1224946311	 0.270894
H	 2.7583015925	-3.9268726148	 1.5749944247	 0.259167
