20
gdb 31130	1.9201	1.68367	0.96668	1.4569	83.01	-0.1862	0.0346	0.2208	1263.6549	0.170387	-403.186787	-403.176898	-403.175954	-403.221676	36.066	
C	 0.0840286064	 1.5142844086	 0.260801993	-0.367666
C	-0.0179461068	-0.0042756519	 0.0246490022	-0.319489
C	 0.6647956122	-0.4697680563	-1.2276212536	 0.131705
C	 0.1126142315	-0.7493786173	-2.4445726144	 0.27167
C	-1.2806355026	-0.7071258007	-2.9642107461	-0.492758
O	 1.0700284306	-1.1497128366	-3.3226896378	-0.190718
C	 2.2696414125	-1.1159777749	-2.6602757507	-0.109874
C	 2.0815149461	-0.7133499837	-1.3747839281	 0.12977
N	 3.0168966983	-0.6405329041	-0.3283478626	-0.608296
H	 1.1270632815	 1.8452341045	 0.3184968341	 0.10844
H	-0.3848993652	 2.0681164858	-0.5583434787	 0.120554
H	-0.4083158927	 1.8018456546	 1.1955188074	 0.111592
H	 0.4153076119	-0.5323203348	 0.8836898565	 0.111893
H	-1.0755871151	-0.2889804344	-0.0033313331	 0.102645
H	-1.3943511574	 0.0404775222	-3.7583973027	 0.134802
H	-1.5774171803	-1.675009775	-3.3837139358	 0.136734
H	-1.9782150076	-0.4545526713	-2.1625443615	 0.13049
H	 3.1339580373	-1.419258467	-3.2266718507	 0.114544
H	 3.9726362388	-0.6910433458	-0.6576704325	 0.240557
H	 2.9095047405	 0.1954645081	 0.232852085	 0.243403
