17
gdb 69184	1.98888	1.70642	1.15659	3.4963	80.14	-0.2355	-0.0141	0.2214	1114.0491	0.133745	-384.652417	-384.643773	-384.642829	-384.685592	32.766	
C	 0.0085725902	 1.530790571	 0.0319557622	-0.498976
C	 0.0244786433	 0.0311426583	 0.0179773758	 0.356047
C	-0.8584846195	-0.8366078092	 0.8343887155	-0.334251
C	 0.6511355956	-0.943756594	 1.0602077945	-0.23013
C	 1.2594607457	-1.7280715388	-0.0480696406	 0.425735
O	 2.0852762611	-2.5888415447	-0.1170129034	-0.310891
C	 0.5993604687	-0.8106879357	-1.1527629333	-0.377856
C	-0.3068343861	-1.3822786756	-2.1236198443	 0.330109
C	-1.072899214	-1.8779834381	-2.9074621766	-0.457169
H	 0.9846957791	 1.9439033253	-0.2441573985	 0.127176
H	-0.7310510959	 1.9167471486	-0.6786497046	 0.138342
H	-0.2536516829	 1.9119384129	 1.0237928377	 0.126554
H	-1.3788007912	-0.350005313	 1.6536557364	 0.126365
H	-1.4043213347	-1.659243785	 0.3830191143	 0.138853
H	 1.0905688211	-0.7527967209	 2.0316703043	 0.113726
H	 1.4224337231	-0.2813190701	-1.6488627865	 0.126709
H	-1.7408728935	-2.3151006111	-3.6077258228	 0.199658
