17
gdb 94753	4.05856	1.16358	1.02152	4.5242	73.98	-0.2402	0.002	0.2422	1172.3152	0.136382	-418.000001	-417.991862	-417.990917	-418.032591	30.766	
C	 0.1495061165	 1.5675143327	-0.0190604486	-0.392687
C	 0.0626614528	 0.0427818743	 0.0181594472	 0.020453
N	 0.7906759282	-0.5605746004	-1.11000509	-0.325206
C	 1.253132955	-1.901317552	-0.7476700366	-0.242836
C	 1.4603048434	-1.7894384933	 0.7550986877	 0.305622
O	 2.1597456931	-0.6094300944	 1.1679257492	-0.267638
C	 0.7318017094	-0.5965716521	 1.2222132542	-0.025371
C	 1.6585925246	-2.9770093499	 1.547328958	 0.215843
N	 1.8115071442	-3.9477716572	 2.155598534	-0.330522
H	 1.1952880772	 1.8808637937	 0.0231250489	 0.143405
H	-0.2879374466	 1.9534350467	-0.9449495713	 0.118392
H	-0.3951047325	 2.0125464944	 0.8199905422	 0.116002
H	-0.9993175217	-0.263061937	 0.0624941028	 0.071415
H	 0.2556571077	-0.5509779012	-1.9681910056	 0.230442
H	 0.5239658639	-2.7098862985	-0.9245267604	 0.109807
H	 2.1766955082	-2.1550314459	-1.2795322279	 0.131261
H	 0.2935381268	-0.5213977796	 2.2130444563	 0.121618
