19
gdb 59611	2.87301	1.21056	1.11208	5.1194	70.86	-0.2896	0.044	0.3336	1191.4489	0.15923	-460.225919	-460.217009	-460.216064	-460.260102	32.434	
C	 0.0019996162	 1.5353799318	-0.0592301731	-0.39877
C	 0.0093801931	 0.0069744961	 0.0798330281	 0.013542
C	 0.7503541089	-0.4308930307	 1.3515720221	-0.409383
C	-1.422162297	-0.5444756207	 0.0056314418	 0.093373
C	-1.5519646752	-2.0817455066	 0.0517306427	-0.131702
O	-2.0681240663	-2.3505467623	 1.3556087301	-0.242495
C	-2.4878980879	-1.1980049437	 1.9378304088	 0.504913
O	-3.037270266	-1.132227889	 2.9901431193	-0.374132
O	-2.1906816244	-0.1339799332	 1.150512949	-0.255979
H	 1.0217638801	 1.9310829425	-0.0463804322	 0.117952
H	-0.4693134127	 1.8503214399	-0.9963023966	 0.113002
H	-0.550236699	 1.993910923	 0.7666428523	 0.1415
H	 0.5283996325	-0.417296004	-0.7924930144	 0.080723
H	 0.7773677348	-1.51867877	 1.4697722086	 0.123262
H	 1.7850773976	-0.0777071587	 1.3249143145	 0.120503
H	 0.2773352707	-0.0070039805	 2.2424511269	 0.144055
H	-1.9214721782	-0.1348289907	-0.8775829926	 0.100813
H	-2.2549655755	-2.464612938	-0.694511941	 0.127776
H	-0.5951330817	-2.5958773351	-0.0626735442	 0.131048
