16
gdb 127801	3.23166	1.30023	0.9327	6.9825	75.92	-0.2181	-0.0067	0.2114	1197.4077	0.125763	-430.243267	-430.234739	-430.233795	-430.277008	30.276	
C	-0.0113472734	 1.4074572097	 0.091433764	-0.35272
N	-0.0085917117	-0.0345039724	 0.0303460028	-0.031324
N	-0.037657731	-0.6732838632	-1.1749200764	-0.157491
N	-0.0275548351	-1.9469552365	-0.9353958292	-0.184952
C	 0.0077075018	-2.1696867649	 0.4068994896	-0.139018
C	 0.020242835	-0.942549536	 1.0401127432	 0.435163
N	 0.0531008559	-0.5438188639	 2.3661404371	-0.414766
C	 0.0842284888	-1.3838442745	 3.4587599313	 0.079522
N	 0.0859497896	-2.6507981641	 3.3550895072	-0.437459
H	 0.8948811163	 1.7872151472	 0.5767468608	 0.140992
H	-0.0394438222	 1.7686039881	-0.9365747055	 0.179926
H	-0.8931728424	 1.7817882478	 0.6236574464	 0.140963
H	 0.0221378157	-3.1486504446	 0.847229572	 0.154139
H	 0.0547015751	 0.4441499065	 2.5553029928	 0.257373
H	 0.106366118	-0.8128660506	 4.3938596021	 0.098378
H	 0.1111826895	-3.0820453188	 4.2755752517	 0.231275
