14
gdb 19099	3.79992	2.94837	2.84696	2.783	58.31	-0.2256	0.0337	0.2593	591.8237	0.109514	-382.440003	-382.435338	-382.434393	-382.468484	20.256	
O	-0.0038649868	 1.4173870175	 0.156209641	-0.268326
C	 1.4205119027	 1.4155353858	-0.0478013681	 0.070553
C	 2.1234543908	 0.7264676071	 1.2091071132	 0.070552
O	 1.1106304972	 0.3248780105	 2.1489977909	-0.268326
C	 0.7139648471	-0.69709361	 1.2169549014	 0.070555
C	 0.0110149016	-0.0080187657	-0.0399462218	 0.070554
C	 1.3879066521	 0.0342687697	-0.7648562032	-0.117613
C	 2.075633889	-0.6398730809	 0.4648269745	-0.117614
H	 1.8118859023	 2.3566736429	-0.435545075	 0.082242
H	 2.9896162326	 1.2021899774	 1.6703139945	 0.082242
H	 0.2494255205	-1.5653461338	 1.6855706919	 0.082242
H	-0.9283118451	-0.410854418	-0.4202732017	 0.082242
H	 1.5629799454	-0.1449182417	-1.8225657437	 0.080349
H	 2.8480369708	-1.404591731	 0.4751668561	 0.080349
