19
gdb 98427	2.60001	1.25871	1.0013	2.9141	73.44	-0.2691	-0.0013	0.2678	1264.0314	0.155769	-460.183266	-460.173124	-460.17218	-460.218606	35.843	
C	-0.2252698167	 1.350223129	 0.2499268551	-0.242217
O	-0.2412164503	-0.0469158991	 0.571041378	-0.233796
C	 0.9694703188	-0.6404688371	 0.6099251706	 0.411443
O	 2.0021660946	-0.061684529	 0.3887273364	-0.363405
C	 0.8349762855	-2.1016815028	 0.9782766389	 0.237621
C	-0.5033276146	-2.7608472878	 0.7241248938	-0.468743
O	 1.9825485217	-2.8841525035	 0.6414276444	-0.269407
C	 1.7425024317	-2.6482441251	 2.024659423	 0.051568
C	 2.7731865552	-1.8680392576	 2.7966869473	-0.442256
H	 0.2149243273	 1.5121205721	-0.736974814	 0.145484
H	-1.2674544669	 1.6688399829	 0.2620938891	 0.134752
H	 0.3560152627	 1.9079530112	 0.988418942	 0.142122
H	-0.7754799914	-2.6935682179	-0.3334789072	 0.13253
H	-0.4467092893	-3.817100641	 0.997472421	 0.127059
H	-1.2943688012	-2.2812683038	 1.3050184699	 0.134708
H	 1.3415100769	-3.5192458064	 2.5501649662	 0.090016
H	 3.1140008542	-1.0002264839	 2.2326048152	 0.164946
H	 2.3591860257	-1.5420133244	 3.757082738	 0.118177
H	 3.634314556	-2.5110777055	 3.0072428223	 0.129399
