17
gdb 88719	2.60156	1.40539	1.12267	3.8354	73.38	-0.2339	-0.0098	0.224	1114.332	0.134812	-417.949547	-417.94086	-417.939916	-417.983345	31.507	
C	-0.7083873846	 1.0047121011	 0.2919540374	-0.334819
N	 0.0960464982	-0.2051668053	 0.1452097441	-0.080117
C	 1.4927713514	-0.0712898358	-0.2239210284	-0.248894
C	 1.1009292681	-0.6363843817	 1.1048627335	-0.041944
C	 1.5481493636	 0.0421330684	 2.3661564371	 0.050663
O	 1.1908834778	 1.3885618586	 2.6538633407	-0.2238
C	 0.6914297062	 0.3736208398	 3.5308397088	-0.115278
C	-0.7339840849	 0.1345623332	 3.541672306	 0.319615
N	-1.8694203978	-0.0739876174	 3.5983793277	-0.327734
H	-0.1621455689	 1.8661340468	 0.6942862458	 0.124041
H	-1.0929914749	 1.261537204	-0.7000188031	 0.12192
H	-1.5603729083	 0.793987723	 0.9422076745	 0.150024
H	 1.8584390358	-0.7195312851	-1.0166445375	 0.119382
H	 1.9240394194	 0.930448358	-0.2131205595	 0.116225
H	 1.1403215161	-1.7201688314	 1.2255486457	 0.10898
H	 2.5816288836	-0.2021683508	 2.6269603033	 0.117801
H	 1.1404339693	 0.3711372044	 4.5227239839	 0.143934
