16
gdb 65421	4.08746	0.84097	0.78784	3.3113	75.23	-0.2875	0.0084	0.2959	1415.5283	0.124538	-396.939294	-396.930297	-396.929352	-396.973585	32.475	
N	-0.0728667504	 1.419088988	 0.1810510713	-0.557363
C	-0.0211886115	-0.0080551794	-0.0134525138	 0.122231
C	-0.6497813393	-0.8596827279	 1.076828676	-0.293712
C	-1.3422622842	-0.7446446398	-0.2468293741	-0.024829
C	-2.6233123889	 0.0618407233	-0.3859420047	-0.376281
C	-3.7847888313	-0.6656516993	 0.1259235163	 0.269319
N	-4.6948636897	-1.2488794259	 0.5339020864	-0.302526
C	 1.1443351116	-0.5370261806	-0.6932087519	 0.239259
N	 2.0865058294	-0.9154054468	-1.2486209694	-0.336553
H	 0.6364902195	 1.7137033271	 0.8452986222	 0.252682
H	 0.1081973596	 1.9096652792	-0.6897410079	 0.249975
H	-0.1714204342	-1.7960018439	 1.3352441451	 0.148382
H	-1.0601397049	-0.3005768441	 1.9104567418	 0.144361
H	-1.277171863	-1.6105535805	-0.8966444321	 0.132679
H	-2.520154184	 1.0070315468	 0.1551514418	 0.175359
H	-2.8052891787	 0.3123090638	-1.437439417	 0.157015
