22
gdb 107244	2.7953	1.44961	1.10902	1.5888	85.52	-0.2111	0.08	0.2911	1194.1331	0.193423	-367.136208	-367.127217	-367.126272	-367.169448	35.459	
C	 2.5180291169	 1.7755533504	 0.1583646471	-0.396492
C	 1.2452720211	 1.4904985627	-0.6436049156	-0.269387
C	 1.3036499033	 0.2492960562	-1.5013581842	 0.280601
C	 2.2267962931	-0.8880755522	-1.2894772016	-0.305206
N	 2.4427483293	-0.0006277061	-2.4563912186	-0.17758
C	 1.4143846809	-0.2879969794	-3.5305800354	-0.041989
C	 0.3912028819	-1.3548666111	-3.2525899702	-0.358042
C	 0.2429972825	 0.0078611691	-2.621749493	 0.280856
C	-0.9726793269	 0.8699103565	-2.8169511916	-0.498264
H	 2.6834912448	 1.0258743555	 0.9383193694	 0.116084
H	 3.3920581638	 1.7841391519	-0.4998362586	 0.141208
H	 2.4510731586	 2.7513568549	 0.6479315381	 0.11092
H	 0.3845515418	 1.4075279359	 0.0343967281	 0.099941
H	 1.0369143928	 2.3486650179	-1.2948736668	 0.104863
H	 3.0074306227	-0.7600942015	-0.5462136793	 0.118849
H	 1.9260522348	-1.9203114981	-1.4207117325	 0.113378
H	 1.6464792084	 0.0600597775	-4.5299390482	 0.09776
H	-0.2852356928	-1.5093526085	-4.0891564957	 0.111573
H	 0.5883444312	-2.2659429252	-2.6995928731	 0.110557
H	-1.7507791699	 0.6414118826	-2.078041729	 0.1198
H	-0.7415213817	 1.9368611469	-2.7361690173	 0.122144
H	-1.4052267666	 0.7011818342	-3.808271322	 0.118425
