16
gdb 48936	4.15381	1.3699	1.23392	3.0529	74.74	-0.2285	-0.0402	0.1883	1005.9938	0.1254	-400.716094	-400.709222	-400.708278	-400.747432	27.062	
O	-0.1745785057	 0.0837828279	 0.3521344473	-0.261039
C	-0.0000590894	 1.2115253221	-0.0435806301	 0.063472
C	 1.3103421772	 1.886415825	-0.0556754939	 0.238628
C	 2.5087151267	 1.5137530561	 0.7936239314	-0.303287
C	 2.8816259105	 3.0344174113	 0.7470365365	-0.057882
C	 3.7769487121	 3.2557582964	-0.4457075722	-0.081609
C	 3.0355302287	 3.1220512953	-1.5466461717	-0.071773
C	 1.6196043906	 2.9397663248	-1.127022006	-0.113407
N	 1.4590199271	 3.3719617974	 0.2601936748	-0.162845
H	-0.8362490281	 1.8300222033	-0.4421169076	 0.077383
H	 2.172737017	 1.2100107584	 1.7863057404	 0.133706
H	 3.2363413744	 0.794752033	 0.4106051138	 0.11202
H	 3.1507185692	 3.521885173	 1.6818803257	 0.092405
H	 4.8538248739	 3.3432496281	-0.3840138518	 0.114653
H	 3.3650162445	 3.1141577048	-2.5765416038	 0.11568
H	 0.799462451	 3.1910652231	-1.7928896227	 0.103895
