19
gdb 82863	2.49705	2.04507	1.75047	0.8847	72.37	-0.2433	0.0654	0.3086	884.5091	0.163166	-423.027385	-423.020797	-423.019853	-423.057925	28.117	
O	-0.0208220076	 1.4290696971	 0.1310954955	-0.428914
C	-0.0090186306	 0.0206324461	-0.0077566492	 0.122487
C	-1.4440911368	-0.5423216271	-0.1372884655	-0.090547
C	-2.2820384159	 0.2673105113	-1.1563605359	-0.234174
C	-1.5415860822	-0.4935937863	-2.2843577763	-0.067469
C	-0.1258116395	 0.0855266113	-2.5215428725	-0.215046
C	 0.6297173005	-0.5159425743	-1.3204615299	 0.008924
O	 0.1954070464	-1.8796070479	-1.310332537	-0.256049
C	-1.1977937178	-1.6242916626	-1.2447539083	 0.115411
H	 0.8830240931	 1.7233680082	 0.2802423906	 0.286155
H	 0.4960313405	-0.4546174457	 0.8441324593	 0.072286
H	-1.8913666368	-0.8167606415	 0.8180019792	 0.066047
H	-3.3394682805	-0.0070983028	-1.1053681277	 0.093215
H	-2.1876770255	 1.353949428	-1.1281049632	 0.114475
H	-2.0821567085	-0.7377513122	-3.1990133574	 0.06388
H	 0.3083717845	-0.285735745	-3.4536365056	 0.099737
H	-0.1082182074	 1.177726053	-2.5288582737	 0.106681
H	 1.7196311472	-0.4756028479	-1.3645216021	 0.06492
H	-1.769493043	-2.5497032216	-1.2369402102	 0.077981
