20
gdb 86364	2.51124	1.11901	0.98669	2.5831	77.21	-0.2444	0.027	0.2715	1299.4128	0.170392	-440.301177	-440.291559	-440.290615	-440.336553	35.125	
C	 0.5273151304	 1.4825150781	-0.1017743518	-0.412326
C	 0.0428092914	 0.0653618294	 0.1892974883	-0.010756
C	 0.4271857429	-0.9834605682	-0.8993813712	-0.241825
C	 1.5635197545	-1.5114167286	 0.0025904911	 0.083669
O	 2.7996306836	-0.9397525774	-0.4021202662	-0.4342
C	 0.9117013713	-0.75607604	 1.20398544	 0.02139
N	 1.8059259708	-0.0692671905	 2.0973310808	-0.28452
C	 1.7615248733	-0.1795988365	 3.4542473619	 0.150562
O	 0.9798015726	-0.8632206647	 4.079558261	-0.321669
H	 1.5737550548	 1.4868211012	-0.4236428615	 0.126064
H	-0.0662716054	 1.9298470724	-0.9059261609	 0.118208
H	 0.4332326236	 2.1249668362	 0.7801107667	 0.115794
H	-1.0189621573	 0.086865248	 0.4505442273	 0.076262
H	-0.3477807736	-1.7331535269	-1.0739074015	 0.106296
H	 0.7644709436	-0.5868119744	-1.8596083097	 0.11204
H	 1.6548142089	-2.5996182797	 0.106486965	 0.071266
H	 3.4809805458	-1.2705267407	 0.192808801	 0.285931
H	 0.297634374	-1.416991873	 1.8167299788	 0.118095
H	 2.5043989722	 0.5303011484	 1.6869301003	 0.24753
H	 2.5428348326	 0.4398878472	 3.9388771606	 0.072189
