15
gdb 18331	3.6203	2.17301	1.58815	2.7612	60.56	-0.2267	-0.0286	0.1981	795.7094	0.120184	-399.782295	-399.775634	-399.77469	-399.813503	24.834	
O	-0.0119481227	 0.0282619213	-0.0462298856	-0.305937
C	 0.0022321605	 1.2292348711	-0.0255021051	 0.416434
C	-1.2072971322	 2.1552518485	 0.1366055983	-0.189259
O	-0.8112129861	 3.442630511	-0.3137449567	-0.274421
C	 0.606255944	 3.5529632777	-0.3940257272	 0.119426
C	 1.3208072727	 4.0243013037	 0.8978424881	-0.188706
N	 1.5870723445	 2.6053478519	 1.2417499554	-0.320626
C	 1.2103645694	 2.1575814432	-0.1268814797	-0.155924
H	-2.0526293794	 1.8018744859	-0.4617790848	 0.135977
H	-1.5130303275	 2.1699979358	 1.1931184807	 0.13404
H	 0.8522332043	 4.0850009173	-1.3139805348	 0.094725
H	 2.2185756953	 4.6187956545	 0.6827571834	 0.099218
H	 0.6989815076	 4.5591087773	 1.6227190987	 0.114909
H	 2.5293303074	 2.3741567385	 1.5296898133	 0.231621
H	 2.0058935923	 1.7820284624	-0.7745583941	 0.088523
