17
gdb 96839	3.42592	1.13998	0.88302	1.1795	72.58	-0.256	-0.0136	0.2424	1291.7127	0.136079	-455.190991	-455.182023	-455.181079	-455.225259	32.016	
C	-0.0509905882	 1.4852084504	-0.1659269644	-0.340715
N	-0.0073408182	 0.0462615505	 0.036308638	-0.299795
C	-1.0581624013	-0.6168084141	 0.1789686916	 0.420758
C	-1.1680428284	-2.1052170564	 0.4088572818	-0.318455
C	-2.6123722645	-2.42363781	 0.0085734273	-0.113375
N	-3.2223231804	-3.523194637	 0.7331420865	-0.509383
C	-3.3025230168	-1.0593321686	 0.1613065083	 0.403575
O	-4.4677281884	-0.8260518837	 0.2675981071	-0.322336
O	-2.3491614776	-0.0664197916	 0.1640547839	-0.223439
H	 0.5314848712	 1.7297931121	-1.0601343093	 0.133806
H	-1.0598240828	 1.8976011858	-0.2694163707	 0.134111
H	 0.4463565009	 1.9738112241	 0.6792028714	 0.135849
H	-0.4076274144	-2.6516815385	-0.1471489749	 0.150227
H	-1.0190626343	-2.3193619168	 1.4746601704	 0.13771
H	-2.6519091188	-2.6612933544	-1.0631550005	 0.130225
H	-3.2522220854	-3.3047105797	 1.7262453207	 0.23336
H	-4.1922307526	-3.614157402	 0.4420835428	 0.247878
