20
gdb 97224	3.06551	1.35378	1.03177	2.7217	83.07	-0.2376	0.0246	0.2622	1207.0543	0.172448	-403.151466	-403.143	-403.142056	-403.184894	32.038	
C	-0.1231835012	 1.416976134	 0.0373807987	-0.325401
N	-0.0732093535	-0.0341515188	 0.0614429214	-0.308156
C	 0.5895009097	-0.6300036999	 0.9577955343	 0.3971
O	 1.2401687446	 0.0348159355	 1.9718899424	-0.264849
C	 2.5046419678	-0.5188680124	 2.3654854053	-0.082472
C	 2.3529049627	-1.9148395474	 2.9581189373	-0.233997
C	 1.526043536	-2.8039826669	 2.0318315156	-0.045139
C	 0.0346483465	-2.8369960272	 2.1925637589	-0.281633
C	 0.6453299425	-2.114703222	 1.0033092157	-0.093535
H	 0.6574755726	 1.9040344632	 0.6322986878	 0.11493
H	-0.0506662397	 1.7551046729	-1.0017373428	 0.117048
H	-1.0974715284	 1.7552805934	 0.4125381543	 0.122911
H	 3.1720439862	-0.5425792771	 1.4932831804	 0.107073
H	 2.9170701361	 0.1876361643	 3.0901636399	 0.114761
H	 3.3493604298	-2.3427507443	 3.1101774832	 0.106764
H	 1.8837892318	-1.844423222	 3.94563366	 0.112492
H	 2.0009023995	-3.7235248056	 1.7067657137	 0.092078
H	-0.4983724827	-3.7587481643	 1.9898377576	 0.117658
H	-0.3969667507	-2.2267727881	 2.9793218279	 0.123192
H	 0.5109495904	-2.5774942574	 0.0341997687	 0.109175
