13
gdb 23662	3.98079	1.80975	1.2452	1.6172	64.09	-0.2201	-0.0101	0.21	879.1442	0.09746	-402.814884	-402.80854	-402.807596	-402.845188	24.882	
N	-0.0285450399	 1.3766416903	-0.1509815224	-0.563772
C	 0.0229607328	 0.001779677	-0.0628584848	 0.415188
N	-1.157713131	-0.6314186268	-0.0374931449	-0.337084
C	-1.1435459987	-1.9655554029	-0.0083439336	 0.01427
C	 0.0057529875	-2.744592048	 0.0060641198	-0.285405
C	 1.2140150869	-2.0556405593	-0.0134475006	 0.347837
F	 2.359008146	-2.7377846434	 0.0022628552	-0.076847
C	 1.2544669197	-0.6773430071	-0.0501824262	-0.347256
H	 0.763519722	 1.893792365	 0.195270905	 0.252617
H	-0.9274449072	 1.76707382	 0.0883270491	 0.257598
H	-2.1188100517	-2.4463377712	 0.0091293047	 0.1123
H	-0.0238212379	-3.8253481724	 0.035458334	 0.108896
H	 2.2023754315	-0.1538332313	-0.0753801253	 0.101658
