19
gdb 120596	3.87475	0.77397	0.7213	3.7053	78.9	-0.2673	0.0155	0.2829	1612.6522	0.157442	-419.183705	-419.173592	-419.172648	-419.219473	35.283	
C	-0.2278542587	 1.3199714474	 0.0248616374	-0.228014
O	-0.1426918908	-0.0826486131	-0.0759934784	-0.234154
C	 0.7889877443	-0.5061737026	-1.0451506452	-0.066266
C	 0.7809677705	-2.0139167484	-1.0407621933	-0.057654
N	-0.0884054242	-2.7000009778	-1.9971171298	-0.348237
C	 1.3774150094	-2.840486746	-2.1440495414	 0.153008
C	 2.001025127	-2.2555230468	-3.3983117219	-0.454273
C	 1.9615814246	-4.0980415669	-1.7216930623	 0.238935
N	 2.4225393208	-5.1102979864	-1.4031272053	-0.337791
H	 0.7378829372	 1.7679473384	 0.3080459638	 0.106343
H	-0.5550702996	 1.7780143762	-0.9215811575	 0.108912
H	-0.963550504	 1.5458711437	 0.7999584157	 0.132916
H	 0.5199395272	-0.1233103277	-2.0406153349	 0.099853
H	 1.7994334744	-0.1341415154	-0.8001706623	 0.094123
H	 0.8587196508	-2.4342608361	-0.0402936999	 0.117509
H	-0.4976916962	-3.5365478343	-1.5888092922	 0.253058
H	 1.4740041772	-1.3475719194	-3.6932734012	 0.140106
H	 3.0569851983	-2.0213350949	-3.2353333782	 0.137707
H	 1.9326155619	-2.97178746	-4.2219199731	 0.143917
