19
gdb 110401	5.52148	0.93518	0.9236	3.4653	80.34	-0.2394	0.0088	0.2482	1325.8526	0.159199	-385.838548	-385.830596	-385.829652	-385.871332	30.593	
C	-0.145663183	 1.5874189608	 0.0563321259	-0.377982
C	 0.1555205532	 0.0935015952	-0.1133744507	-0.210953
C	 0.7950625736	-0.5218823771	 1.1233476857	-0.002052
C	-0.0694273214	-0.8645983988	 2.3606362221	-0.036711
C	-0.6313894768	-2.1920965868	 1.7094615504	-0.208325
C	 0.8820444427	-2.0578355722	 1.2690804585	-0.053589
C	 0.9518308908	-1.9679367218	 2.8440430335	-0.205573
C	-0.1909078572	-2.970152591	 2.9445019585	 0.44846
O	-0.5509398248	-3.8807401635	 3.6269289431	-0.334324
H	 0.7673516071	 2.1524531692	 0.2743831099	 0.116778
H	-0.5893901163	 2.0089487638	-0.8504843802	 0.116358
H	-0.8459353505	 1.7604684639	 0.8806425407	 0.118384
H	-0.7679528373	-0.443537794	-0.3624477944	 0.096545
H	 0.8313258196	-0.0482618604	-0.9671533569	 0.099114
H	 1.7287272393	 0.0010431958	 1.3697493416	 0.068833
H	-0.6343083833	-0.2111566927	 3.0260640908	 0.089232
H	-1.4995556981	-2.2929754274	 1.0631271496	 0.095253
H	 1.4208913828	-2.7869546932	 0.6629497168	 0.088465
H	 1.8452754796	-1.8034820898	 3.4429785652	 0.092087
