21
gdb 94051	3.22424	0.98252	0.93018	1.8918	83.68	-0.2527	0.0589	0.3117	1360.2622	0.182394	-387.072851	-387.063508	-387.062564	-387.107418	35.589	
O	-0.8082669414	 1.3274751105	 0.7079140158	-0.438278
C	-0.169058936	 0.1892745975	 0.1264772273	 0.134458
C	 0.7344445615	-0.5326282365	 1.1352022753	-0.24027
C	-0.2558474351	-1.2451836883	 2.079569326	-0.202122
C	-1.5280658144	-1.5332700529	 1.2237340773	 0.039676
C	-2.8179749804	-1.0008334668	 1.8904190199	-0.37189
C	-3.095146118	-1.612641503	 3.1847562168	 0.301364
C	-3.3039903377	-2.1322542517	 4.2490584724	-0.452973
C	-1.2656477681	-0.843105928	-0.1440411044	-0.235779
H	-0.1235567317	 1.9142474052	 1.0445378954	 0.280856
H	 0.3663570512	 0.4814954642	-0.7881936029	 0.057121
H	 1.3570072701	-1.2588584968	 0.5984708931	 0.097623
H	 1.4161672883	 0.1498975302	 1.6552762246	 0.084754
H	 0.167328515	-2.155390347	 2.5103401834	 0.09984
H	-0.5150511299	-0.5932154729	 2.91827842	 0.110655
H	-1.6500681908	-2.6108444094	 1.0806309201	 0.076602
H	-2.724773691	 0.0862777751	 2.0008415058	 0.147626
H	-3.6701801243	-1.1735553803	 1.2203589416	 0.121929
H	-3.4989905687	-2.5828006079	 5.1902365661	 0.189514
H	-2.1581460705	-0.3719473802	-0.5651388152	 0.105067
H	-0.8983129983	-1.5696976709	-0.8758331883	 0.094226
