16
gdb 38003	3.41181	1.88459	1.55913	1.7313	74.21	-0.237	-0.0277	0.2093	859.3611	0.126106	-400.61761	-400.611459	-400.610515	-400.647804	25.8	
C	-0.1431586217	 1.3367227306	 0.1050988785	-0.179977
N	 1.329311914	 1.609933679	-0.2033040764	-0.167259
C	 2.3262009435	 0.4471407596	 0.0049451675	-0.02611
C	 2.4192928845	-0.8477837831	 0.8045887365	 0.059374
O	 1.7382066168	-1.1225961078	 2.0192407043	-0.252976
C	 1.290766969	-1.800421353	 0.8085637795	-0.040579
C	 0.0151784433	-1.1420329771	 0.4146763867	-0.15335
C	 0.0921372442	-0.0746332698	-0.3900616691	 0.128845
C	 1.3500539824	 0.4104010344	-1.0944290743	-0.131681
H	-0.4590476567	 1.4591068603	 1.1442511965	 0.123042
H	-0.6936486053	 2.0173736266	-0.5508315841	 0.122321
H	 3.300547	 0.8869752249	-0.1893780815	 0.105484
H	 3.4377054555	-1.2392271045	 0.7824709759	 0.097634
H	 1.4558260866	-2.8744897413	 0.8118790934	 0.104501
H	-0.7893427667	-1.1990310567	 1.1453860241	 0.108417
H	 1.5376289107	 0.465784968	-2.1617037373	 0.102314
