13
gdb 29475	3.41995	1.68057	1.12684	2.3385	64.83	-0.1951	0.0091	0.2042	969.2465	0.091318	-452.765963	-452.758815	-452.75787	-452.797468	26.839	
O	 0.1015351925	 1.3603424663	-0.066022302	-0.44709
C	 0.0629873211	 0.0020423377	-0.0003409121	 0.190434
C	 0.0111836109	-0.834194237	-1.0951171926	-0.164619
N	-0.0178428687	-2.1779144388	-0.661663888	-0.424532
C	 0.0169393182	-2.1312659882	 0.6852526566	 0.416938
C	 0.0664584634	-0.8449697378	 1.1515085615	 0.108824
N	 0.0993248599	-0.8887105184	 2.5443736427	-0.357121
C	 0.0682177537	-2.1523133205	 2.8098199246	 0.03158
O	 0.0160448098	-3.0087661452	 1.7111688727	-0.216157
H	 0.1336258416	 1.7018047235	 0.8329023987	 0.309532
H	-0.0076272653	-0.597076683	-2.144504165	 0.128593
H	-0.0556971142	-2.9841969941	-1.2575633764	 0.274305
H	 0.0772690771	-2.6422253245	 3.7695860892	 0.149311
