14
gdb 19036	4.21815	2.20984	1.87484	3.3852	60.24	-0.2388	-0.0143	0.2245	715.6	0.10842	-382.522236	-382.516568	-382.515624	-382.551925	22.868	
O	-0.0026121522	 0.00291977	-0.1135065994	-0.326101
C	-0.0203793887	 1.1994845713	 0.0183492822	 0.427409
C	-1.2785004416	 2.0851579939	 0.1263287538	-0.329569
C	-0.7019251734	 3.4412285491	 0.4999917192	 0.076598
O	-0.0682415413	 3.2999516304	 1.8184619179	-0.300895
C	 1.1878004346	 3.1827155629	 1.1684853975	 0.109438
C	 0.695826344	 3.5500331035	-0.175835396	-0.16922
C	 1.1651588058	 2.1158978534	 0.0540267274	-0.204594
H	-1.7818599951	 2.1164587612	-0.8480032312	 0.129761
H	-1.9772725038	 1.6904038621	 0.8671361352	 0.140806
H	-1.3727974374	 4.29882704	 0.4653319547	 0.097215
H	 2.0862156277	 3.4146025651	 1.7266873695	 0.124085
H	 1.0424381589	 4.2281446696	-0.9421308982	 0.113363
H	 2.1230064727	 1.7729007675	-0.3157149026	 0.111704
