19
gdb 63112	2.27059	1.67438	1.19385	4.5965	81.25	-0.2511	0.0001	0.2512	1101.472	0.158835	-382.04873	-382.039904	-382.03896	-382.081665	33.754	
C	-0.0630735682	 1.5640153239	 0.0317965347	-0.473045
C	 0.0083867698	 0.050106442	 0.0814658764	 0.277837
C	-1.2540778802	-0.6238860391	-0.4255029568	-0.451765
N	 1.207181219	-0.7145445403	-0.3218914363	-0.193684
C	 2.4366383276	 0.0542930237	 0.0907052142	-0.157635
C	 2.0444164655	 0.0354178069	 1.5867963561	-0.320429
C	 0.759514477	-0.6806813617	 1.1519288656	 0.162093
C	 0.2259880179	-1.8152177168	 1.8457118979	 0.216439
N	-0.2019084036	-2.7070971174	 2.4468872295	-0.351546
H	 0.77466034	 2.0681678618	 0.5143082317	 0.126287
H	-0.1067451855	 1.8988424243	-1.0105304765	 0.133939
H	-0.9797726452	 1.9014021523	 0.5249798087	 0.134456
H	-1.4696197386	-0.2842242095	-1.4435354849	 0.124896
H	-1.1402356602	-1.7089365087	-0.4464624411	 0.149557
H	-2.1099389501	-0.3731395931	 0.2089598581	 0.126873
H	 3.3207236914	-0.543687316	-0.1337902645	 0.125437
H	 2.5354448416	 1.0273991606	-0.3966863514	 0.115314
H	 2.6908132285	-0.6082835064	 2.1837299648	 0.136687
H	 1.9139239533	 0.9861445534	 2.1092692037	 0.118287
