16
gdb 51227	4.30589	1.22116	1.1402	2.2986	68.67	-0.2323	0.0169	0.2492	1067.9691	0.124561	-437.832641	-437.825282	-437.824338	-437.86515	28.073	
O	 0.2459278745	 1.3781163577	 1.4652010496	-0.311205
C	 0.091385039	 1.5446017122	 0.2771480542	 0.133837
N	 1.0473611472	 1.3250030165	-0.6775630926	-0.422066
C	 2.3259626269	 0.8036370997	-0.3780530753	 0.360799
C	 2.7195597659	-0.5983120184	 0.0978751941	-0.286797
C	 4.1042422007	 0.0442872731	 0.3612613723	 0.067965
O	 4.6004366685	 0.359231646	-0.9785075231	-0.29586
C	 3.6145095695	 1.3816588736	-1.0066639445	 0.028953
C	 3.4198187116	 1.4573584374	 0.4660565737	-0.159318
H	-0.8548921783	 1.9094445859	-0.1705492322	 0.077954
H	 0.7720738833	 1.4185026762	-1.6440674503	 0.249433
H	 2.202333594	-0.8421857941	 1.0277873717	 0.131187
H	 2.6949054842	-1.4357064851	-0.6064846334	 0.099227
H	 4.8545246928	-0.3918732943	 1.0150652017	 0.096795
H	 3.6340919986	 2.1287956444	-1.7900497178	 0.111832
H	 3.3923421914	 2.2483384692	 1.2001214919	 0.117264
