19
gdb 39514	2.9992	1.91699	1.53457	0.5385	84.3	-0.2142	0.0079	0.2221	924.7743	0.162685	-348.735392	-348.728836	-348.727892	-348.765822	28.172	
C	-0.0579454912	 1.4772372147	 0.167257986	-0.268095
C	 1.4000130784	 1.8875094638	 0.1159991802	-0.134341
C	 2.17390746	 0.9207835287	-0.3969645728	 0.166387
C	 3.5076642258	 0.5189670893	 0.1068713149	-0.161963
C	 3.3949688471	-0.3925747444	 1.0834184346	-0.038413
C	 2.0113137852	-0.8464346799	 1.5435999057	-0.295166
C	 1.0122123291	-1.0094934305	 0.3699057801	-0.022659
C	 0.0028673468	 0.002504993	-0.2276113915	-0.06664
C	 1.3367979805	-0.2416280095	-0.8740539306	-0.123439
H	-0.4511243328	 1.6425114154	 1.1796176289	 0.106902
H	-0.7183511397	 2.0354953146	-0.5124412227	 0.103739
H	 1.7784723736	 2.7381430984	 0.673523962	 0.088729
H	 4.4565747186	 0.8952679663	-0.2598581692	 0.095644
H	 4.2668172078	-0.8136445563	 1.5768532417	 0.089741
H	 2.0914226201	-1.797667321	 2.0791035036	 0.098749
H	 1.6297760005	-0.125071227	 2.2786572498	 0.118883
H	 0.672293768	-2.032615563	 0.2295137068	 0.084471
H	-0.8956150454	-0.4521905109	-0.6314965466	 0.078481
H	 1.5167946775	-0.7065138415	-1.8376166809	 0.078992
