17
gdb 67416	2.78804	1.5213	1.2851	2.0789	80.61	-0.2262	0.0451	0.2712	1035.8472	0.135198	-384.600182	-384.592328	-384.591383	-384.632103	31.443	
O	-0.2567152359	 1.3772359741	 0.0030168589	-0.443729
C	-0.0271805989	 0.0326188693	 0.0105973777	 0.330046
C	 0.0268983431	-1.0269690311	-1.0538139544	-0.197334
C	 1.3095987258	-1.6232794979	-0.4853561664	-0.229084
C	 0.9313973766	-0.9340938582	 0.8557540206	-0.156563
C	-0.3365480677	-1.6960412441	 1.3197978159	-0.290199
C	-1.0436542532	-1.086119098	 0.1040851828	 0.20043
C	-2.4329271202	-1.046358376	-0.1822437581	 0.107543
C	-3.616565688	-1.0223759047	-0.4017831103	-0.376377
H	 0.4123855005	 1.8054236932	-0.5434549265	 0.294026
H	-0.3222932678	-0.9763861122	-2.076799748	 0.10043
H	 1.4184253233	-2.7128192905	-0.4658556636	 0.09735
H	 2.1941013017	-1.1738878085	-0.9464713217	 0.098296
H	 1.6938051948	-0.6300567563	 1.5688317631	 0.078451
H	-0.2669469669	-2.787173272	 1.384848614	 0.096058
H	-0.7499130872	-1.2927047241	 2.247068275	 0.113572
H	-4.6596168101	-0.9941346729	-0.5962660792	 0.177083
