18
gdb 41780	2.93523	1.67485	1.20092	1.6132	73.42	-0.2375	0.0213	0.2589	1030.8863	0.150285	-439.074151	-439.066881	-439.065937	-439.106016	28.35	
C	 0.1240491844	 1.6266198186	 0.2812933048	-0.250896
C	 1.5906586995	 1.4157707095	-0.1856493645	-0.227674
C	 1.1461684591	 0.0590407018	-0.8142909597	 0.040507
N	 2.112147289	-0.99670278	-0.8128833204	-0.266596
C	 2.1969890961	-1.973599877	-0.0222394649	 0.119828
O	 1.4217300732	-2.415329121	 1.0047677619	-0.218936
C	 0.0941359257	-1.9277615969	 1.179588715	 0.018284
O	 0.0063843626	-0.5541809076	 1.3216873879	-0.236552
C	-0.1365944875	 0.1215668318	 0.0792710486	 0.07317
H	-0.0313549638	 1.9857240134	 1.2996194105	 0.117182
H	-0.4611195165	 2.2377139504	-0.4097698708	 0.107552
H	 2.0326114187	 2.1538897377	-0.8567714581	 0.104413
H	 2.2628178709	 1.2467904425	 0.6579796642	 0.119351
H	 0.8428514428	 0.2350365955	-1.853417109	 0.088964
H	 3.0556803728	-2.6407905061	-0.0985418544	 0.12236
H	-0.5225406712	-2.2779280877	 0.3365039531	 0.095112
H	-0.2389535132	-2.3879681489	 2.1117564767	 0.124997
H	-1.0791623125	-0.1857420261	-0.3938502709	 0.068932
