9
gdb 21746	5.62552	2.38719	1.67599	3.2853	50.79	-0.2705	-0.0785	0.1919	652.5138	0.050156	-429.475671	-429.470512	-429.469568	-429.504921	18.818	
O	-0.070860734	 1.3520165226	 0.0098927	-0.178228
C	 1.2530157514	 1.7095632197	-0.0005755781	 0.084034
N	 2.1354676074	 0.7471019659	-0.0145633497	-0.344268
C	 1.3314565703	-0.3671428313	-0.0124478585	 0.407096
C	 0.0196096669	-0.002807913	 0.0021975594	 0.313032
N	-0.7652294421	-1.0938730554	 0.0041117851	-0.184307
N	-0.0499329455	-2.1228498641	-0.0082297635	-0.025934
O	 1.4447662403	-1.6683491758	-0.0202609545	-0.251773
H	 1.4470354354	 2.7709027816	 0.0030588499	 0.180347
