25
gdb 59781	2.95227	1.05874	0.82937	1.3483	88.95	-0.2402	0.0824	0.3226	1483.12	0.230044	-389.51103	-389.501327	-389.500383	-389.545582	37.493	
C	 0.0559544804	 1.5543391352	 0.0281049729	-0.395075
C	 0.0115402046	 0.0178034186	 0.0376910792	 0.032991
C	 0.8013930689	-0.508097224	 1.2484497133	-0.399967
C	-1.4385300122	-0.5237456175	-0.0010991645	 0.033836
C	-2.2363613684	-0.0189981514	-1.2200713084	-0.21553
C	-3.6231829088	-0.6727243452	-1.2942201713	-0.211963
C	-3.4976235268	-2.1920954996	-1.2046287937	-0.064269
O	-2.7983348166	-2.5801360657	-0.0362949513	-0.246932
C	-1.4798977708	-2.0628781742	 0.0049057088	-0.089919
H	 1.0904819183	 1.9080762049	 0.0863995145	 0.108909
H	-0.3847149917	 1.9799145868	-0.876803593	 0.115232
H	-0.4825609782	 1.9669194011	 0.8900565362	 0.111332
H	 0.5187485179	-0.3361793794	-0.872807394	 0.068932
H	 0.2979122151	-0.2488421108	 2.1877414406	 0.113249
H	 0.9314733708	-1.5932591919	 1.2274650411	 0.117309
H	 1.8006364537	-0.0614550839	 1.2770370188	 0.109332
H	-1.9537890008	-0.1843343586	 0.9104221492	 0.070588
H	-2.341389687	 1.0692862889	-1.1925020109	 0.097111
H	-1.6739067925	-0.2569039986	-2.1353630793	 0.089762
H	-4.2445805833	-0.3217675744	-0.4610542195	 0.101841
H	-4.1349867338	-0.3927825552	-2.2224616221	 0.090562
H	-4.4780687753	-2.674751053	-1.1492330689	 0.101703
H	-2.9807319758	-2.5797882451	-2.1011247496	 0.078805
H	-0.8963131762	-2.4464757466	-0.8529864071	 0.076977
H	-1.0384893414	-2.4697661204	 0.917020899	 0.105182
