22
gdb 30647	3.54124	0.96851	0.83261	1.8515	89.36	-0.1931	0.0498	0.2429	1470.5656	0.195087	-367.260979	-367.25142	-367.250476	-367.296036	36.007	
C	-0.2406767446	 1.609138592	 0.3758376664	-0.391428
C	-0.2024238064	 0.0790699202	 0.3147266017	-0.155943
C	-1.4853303228	-0.5795247261	-0.2540426608	-0.09363
C	-1.7315647168	-0.196076039	-1.7199690469	-0.395667
C	-1.4441351089	-2.0734742665	-0.0830388511	 0.319511
C	-1.2073316075	-3.1020490206	-0.9714021935	-0.231881
C	-1.2514276863	-4.3286191988	-0.2488459921	-0.142533
C	-1.5150967165	-4.0207204034	 1.0632737628	-0.101019
N	-1.6268500644	-2.6544187697	 1.1526129339	-0.29646
H	 0.6609759703	 2.0014653174	 0.8565829028	 0.113039
H	-0.3018429481	 2.0590917386	-0.61956502	 0.120446
H	-1.1036873195	 1.9620578796	 0.9527044732	 0.109831
H	 0.652775201	-0.25326207	-0.2872454443	 0.102318
H	-0.0276994404	-0.3140902516	 1.3237850833	 0.086065
H	-2.333178665	-0.1964782023	 0.3364937286	 0.067115
H	-1.8655474845	 0.8829442691	-1.8304267731	 0.112107
H	-0.8849960986	-0.4931282296	-2.3487547785	 0.120035
H	-2.6268947844	-0.6901124175	-2.1068543261	 0.121505
H	-1.0237911573	-2.9888332893	-2.0285698607	 0.085593
H	-1.110958527	-5.3204782622	-0.650384473	 0.088076
H	-1.6382355995	-4.6466973832	 1.932437508	 0.110317
H	-1.8358935729	-2.1476310371	 1.9952431493	 0.252601
