19
gdb 38144	2.77145	1.91965	1.39545	1.1764	79.25	-0.2163	0.0158	0.2321	966.395	0.162233	-385.889597	-385.882693	-385.881749	-385.920672	28.643	
C	-0.1621798677	 1.4196818778	 0.1325254339	-0.368581
C	 1.2387672504	 0.8271561241	-0.0854372865	-0.16499
C	 2.0701378807	 0.5200930154	 1.1126934085	-0.073678
C	 1.5177150604	-0.429678542	 1.8766132916	-0.103936
C	 0.1941944695	-0.9081580525	 1.3207319736	-0.130916
C	 0.1129085412	-2.3520600588	 0.7410118156	-0.245412
C	 0.0250474169	-2.1199668015	-0.7855089189	-0.096763
O	-0.5471789778	-0.8210267235	-0.9577679356	-0.28768
C	 0.0025816138	-0.050286189	 0.0628502984	 0.45446
H	-0.3997848538	 1.883990028	 1.0853101839	 0.111031
H	-0.6037560874	 1.8983910875	-0.7355418214	 0.1224
H	 1.7014817882	 1.0079729005	-1.0493601715	 0.092748
H	 3.0092773719	 1.0203081988	 1.3243681229	 0.094429
H	 1.9233395823	-0.7975443032	 2.8126335274	 0.092795
H	-0.6097855956	-0.7549185715	 2.0486903148	 0.086092
H	 0.9769098477	-2.9643357529	 1.0094720191	 0.105224
H	-0.7850585408	-2.8593527145	 1.1026274081	 0.107762
H	 1.0256026587	-2.1504555024	-1.2412058637	 0.097527
H	-0.616563789	-2.8366076002	-1.3030001002	 0.107488
