17
gdb 108158	3.4165	1.51857	1.27785	2.9158	73.86	-0.2289	-0.0511	0.1778	1005.8197	0.134768	-417.847925	-417.840239	-417.839295	-417.880054	29.803	
C	-0.1277758486	 1.3366866757	-0.2869894671	-0.259601
O	-0.0812623041	-0.0107650837	 0.1676403907	-0.289644
C	-1.3043052769	-0.6341141943	 0.2154760831	 0.429904
C	-2.3745431784	-0.2477875587	 1.2729489551	-0.245157
N	-3.4865281422	-1.1379739296	 0.8719356923	-0.155665
C	-2.9327079834	-2.0527859331	 0.1804644365	 0.133758
N	-3.1625724341	-2.0174733639	-1.276389016	-0.347028
C	-1.7260663511	-1.423605577	-1.153028361	-0.093013
C	-1.3693557292	-2.1084036791	 0.110324884	-0.25017
H	 0.9055077351	 1.6843578277	-0.340331308	 0.134505
H	-0.5882292408	 1.4032559229	-1.2810863278	 0.121426
H	-0.684865771	 1.9810182457	 0.4045603748	 0.122834
H	-1.9679237213	-0.3884787702	 2.2855068267	 0.117141
H	-2.75533567	 0.7757014835	 1.2001043	 0.126153
H	-2.9754174255	-2.9406063719	-1.6851880827	 0.224713
H	-1.1425666006	-1.2759351204	-2.0565372361	 0.116622
H	-0.6642174381	-2.8857183434	 0.3758423154	 0.113222
