22
gdb 10764	3.52719	1.32571	1.26072	1.3754	77.75	-0.2564	0.0729	0.3293	1119.149	0.198245	-350.197275	-350.187589	-350.186645	-350.231282	36.575	
C	-0.0662458325	 1.5165557484	 0.1617761475	-0.397105
C	-0.0725333786	 0.0071420413	-0.0925912177	-0.185752
C	 0.7289184253	-0.4506396921	-1.3352483873	 0.357135
C	 0.2165768644	 0.223392353	-2.6099950583	-0.424737
O	 2.0938224578	-0.0127462555	-1.2171502178	-0.462995
C	 0.6952366719	-1.9776437432	-1.3922650977	-0.011761
C	-0.2524833979	-2.7754878329	-2.2544059163	-0.272235
C	 1.2231328979	-2.7642120742	-2.5631834447	-0.282258
H	 0.9588021167	 1.8969446644	 0.1658321278	 0.128351
H	-0.6260398319	 2.0628658059	-0.6034038367	 0.114503
H	-0.5234322995	 1.7477175347	 1.1288069086	 0.106024
H	 0.3554352226	-0.5042249881	 0.7811729823	 0.078654
H	-1.1016406723	-0.3624762957	-0.183888209	 0.096054
H	 0.440192385	 1.2913763511	-2.5706562243	 0.129567
H	 0.7098159885	-0.179620505	-3.4980378304	 0.119479
H	-0.864069484	 0.1006227655	-2.7195735537	 0.11397
H	 2.514091314	-0.5490592237	-0.5363390743	 0.272112
H	 0.8989363673	-2.4226170496	-0.4187269847	 0.070591
H	-0.6911645556	-3.674565798	-1.8355057499	 0.108401
H	-0.9088742269	-2.2383994236	-2.9294286838	 0.113754
H	 1.5548370021	-2.2183685325	-3.4390834505	 0.12036
H	 1.8029308957	-3.6571537002	-2.3564727789	 0.107888
