21
gdb 94979	2.5865	1.73608	1.3026	1.4575	82.26	-0.2592	0.0728	0.332	1046.5373	0.185055	-387.027668	-387.020103	-387.019159	-387.059565	31.248	
O	-0.0779857213	 1.3937396508	-0.1824756277	-0.441214
C	-0.000780062	-0.0101513389	-0.0037245004	-0.02603
C	 0.5712254537	-0.4385943437	 1.4024140003	-0.242971
C	-0.2490247141	-1.674924803	 1.9323350695	-0.287317
C	-1.2319545615	-1.9845009235	 0.7873828908	 0.025425
C	-2.7732548009	-1.7117075161	 0.665801956	-0.086254
C	-2.4892547442	-0.2364776657	 1.0443513768	-0.247808
C	-1.3622404296	-0.6475864538	 0.0399185117	 0.375449
C	-2.480477258	-1.2988457295	-0.8249851133	-0.314728
H	 0.8151885229	 1.7499945119	-0.1480019165	 0.282258
H	 0.5993663004	-0.4689606978	-0.8060044133	 0.064674
H	 1.6415012659	-0.6581153097	 1.3405012693	 0.09337
H	 0.4561095183	 0.4192160192	 2.0721022578	 0.107673
H	 0.4012117833	-2.5299375374	 2.1337089165	 0.095297
H	-0.7411574472	-1.4315538928	 2.8771385214	 0.107807
H	-0.8862999052	-2.8218809528	 0.1707115256	 0.059859
H	-3.5989992616	-2.3378453158	 1.0088287524	 0.06718
H	-3.1999066785	 0.510011506	 0.6821527742	 0.092272
H	-2.2016473548	-0.0287441073	 2.0756930313	 0.09232
H	-2.1713615606	-2.0992929766	-1.5034586457	 0.088763
H	-3.207606275	-0.6301946334	-1.2923920466	 0.093975
