15
gdb 2216	3.652	3.26886	2.285	2.4157	56.28	-0.2405	0.0584	0.2989	628.8657	0.124815	-345.612787	-345.606231	-345.605287	-345.643243	24.414	
O	 0.0618811364	 1.4339596093	 0.1969672106	-0.474003
C	 0.0140097279	 0.0551920948	-0.0055194245	 0.346908
C	 0.3713560185	-0.5075262087	-1.4113210696	-0.299391
C	-0.9939952992	-1.2689872551	-1.447425771	-0.225081
C	-1.3280839866	-0.7276714408	-0.0386928569	 0.080609
O	-0.8742231887	-1.6088739769	 1.0100417195	-0.290825
C	 0.364216289	-0.8781825396	 1.1737836292	-0.124375
H	 0.9412602267	 1.7472518551	-0.0415617697	 0.28229
H	 0.4340217918	 0.2876536167	-2.1582855289	 0.105887
H	 1.2761048674	-1.1186868325	-1.4659375659	 0.099714
H	-1.6673212803	-0.9110676714	-2.2300768824	 0.106112
H	-0.9392660369	-2.3580688756	-1.4902950128	 0.114185
H	-2.3137338369	-0.3009628749	 0.1602654609	 0.082008
H	 1.2471476004	-1.5222090379	 1.0722157202	 0.092904
H	 0.3976163604	-0.3499031425	 2.1351364912	 0.103059
