19
gdb 33725	3.17606	1.50375	1.27217	0.7753	85.5	-0.2464	0.0466	0.2931	1044.7545	0.160939	-348.683047	-348.675865	-348.674921	-348.714228	30.565	
C	 0.0145869914	-1.1902562651	-0.0310087125	-0.355996
C	 0.0293899853	 0.0127765752	-0.0219688562	 0.047333
C	 0.0478134453	 1.4534255475	-0.0008214143	 0.273603
C	-0.3005861675	 2.2875575915	 1.2976472093	-0.245086
C	 0.4650205864	 3.4069361287	 0.5129392332	-0.072392
C	 1.3846635737	 2.2622290561	 0.0170767446	-0.273288
C	-0.5177012166	 3.6445946368	-0.6513905104	-0.032464
C	-0.1961893221	 3.1386242707	-2.0373170946	-0.317812
C	-0.830282214	 2.2101863742	-1.0333452199	-0.079458
H	 0.0043640808	-2.2517551381	-0.0402349248	 0.177138
H	-1.3610877751	 2.4468301441	 1.5089520528	 0.095277
H	 0.2244568896	 1.9278169814	 2.1861766454	 0.101017
H	 0.8740408341	 4.2826426226	 1.015576875	 0.066253
H	 2.0431301388	 1.900264123	 0.8078574897	 0.107069
H	 1.9527962889	 2.3702264644	-0.9064617521	 0.100755
H	-1.2981707585	 4.3856085167	-0.5209433934	 0.087741
H	-0.861022256	 3.4862260289	-2.8224791825	 0.110563
H	 0.8242828356	 3.005129869	-2.3750831823	 0.115754
H	-1.8386852203	 1.8464646823	-1.189689847	 0.093993
