23
gdb 75207	3.3378	1.20483	1.02343	0.26	92.04	-0.2258	0.0347	0.2604	1289.7556	0.206482	-351.176717	-351.167748	-351.166804	-351.209736	35.708	
C	-0.4139327375	 1.5110713758	 0.0647934483	-0.474794
C	-0.0228723168	 0.059780231	-0.0070761247	 0.311589
C	-0.0720071324	-0.6361123712	-1.1450868348	-0.151225
C	 0.2642029677	-2.0958298905	-1.281646707	-0.321625
C	 1.0898932014	-2.6711277256	-0.1380639682	 0.346657
C	 1.0789618542	-4.183860562	-0.0566648597	-0.466234
C	 2.3657911393	-1.9509725072	 0.2353851506	-0.326408
C	 1.1611783086	-1.8782471644	 1.1466415078	-0.05637
C	 0.3991816696	-0.5747180411	 1.2973379759	-0.313073
H	 0.4246228105	 2.1317918542	 0.4067568664	 0.119998
H	-0.7457399236	 1.8901093908	-0.9056196828	 0.117149
H	-1.2269729657	 1.66729674	 0.7862567178	 0.119314
H	-0.4064554624	-0.1367836058	-2.0525760012	 0.072718
H	-0.6729647427	-2.6697025841	-1.3640493719	 0.102852
H	 0.7857067565	-2.2678434716	-2.2347064059	 0.099395
H	 1.459710186	-4.6332150277	-0.9822350326	 0.112135
H	 1.705009344	-4.5419564479	 0.7669189617	 0.109903
H	 0.0636246054	-4.5666730133	 0.1029998787	 0.111218
H	 3.2156920676	-2.5463816423	 0.5529020957	 0.10024
H	 2.6259514599	-1.057855501	-0.3238109336	 0.109366
H	 1.2269369357	-2.4610438325	 2.0620352706	 0.072679
H	 1.0010379637	 0.1436614021	 1.8736369459	 0.098369
H	-0.500386019	-0.7476188956	 1.9082640132	 0.106148
