21
gdb 103498	2.53018	1.51635	1.27255	2.2633	78.45	-0.2297	0.0772	0.3069	1112.2189	0.18195	-424.204465	-424.195318	-424.194374	-424.238109	34.095	
C	 0.1441101076	 1.2102657535	 0.2612191021	-0.247972
O	-0.1900263543	-0.0908975033	-0.1812148875	-0.273292
C	 0.6012984362	-0.5859830426	-1.2220415447	 0.441312
C	 0.4326356464	 0.1326488933	-2.5470084085	-0.463053
C	 1.9589018421	-1.1920480318	-0.9178533603	-0.153336
C	 2.3151684281	-1.5352121698	 0.5188759476	-0.09285
O	 1.2277358217	-2.2693603368	 1.0610570401	-0.250656
C	 0.4637413985	-2.854794619	 0.0133679674	-0.086267
C	 0.7672951794	-2.0777718254	-1.2558864386	-0.150881
H	 1.2171424376	 1.3066683167	 0.4751610923	 0.108071
H	-0.1346586477	 1.9820219579	-0.4702369478	 0.107703
H	-0.4180177621	 1.3840705198	 1.1816950175	 0.129831
H	 0.7984795618	 1.1635829102	-2.4996695799	 0.119303
H	 0.9885543363	-0.3774577261	-3.3384526607	 0.118622
H	-0.6247132142	 0.1580196674	-2.8304095815	 0.126054
H	 2.772237233	-1.0367627784	-1.6189150464	 0.084999
H	 3.2436799888	-2.1305465743	 0.5238811507	 0.088679
H	 2.4742332525	-0.665626494	 1.1668321807	 0.10443
H	 0.7360583829	-3.912340107	-0.132971709	 0.086947
H	-0.5882098151	-2.8061543108	 0.3132344173	 0.114533
H	 0.6818628804	-2.5955205095	-2.2049946308	 0.087822
