23
gdb 114218	4.46594	0.89608	0.82171	0.1698	93.7	-0.2181	0.0267	0.2448	1514.788	0.206366	-351.162433	-351.153336	-351.152392	-351.196526	35.418	
C	 0.1591723165	 1.5429919241	 0.0090340171	-0.387229
C	 0.0235324913	 0.0175352985	 0.0041202044	-0.175156
C	-1.4297490714	-0.4842801256	 0.0505411826	-0.016581
C	-1.5481132167	-2.0306070021	-0.0841968818	-0.330052
C	-2.6533868023	-2.4496500864	 0.8945862387	 0.353724
C	-3.8491102553	-3.2800557356	 0.4653765653	-0.310504
C	-2.8063843227	-3.8715920257	 1.3777805661	-0.315928
C	-2.8274620445	-1.2776542336	 1.7918108012	-0.140059
C	-2.1664147237	-0.2087541483	 1.3475819459	-0.088373
H	 1.2089659299	 1.8462246477	-0.0540104071	 0.111225
H	-0.3671672905	 1.9893116914	-0.8423277624	 0.113047
H	-0.2555503313	 1.9839431902	 0.9213843362	 0.117055
H	 0.5004662831	-0.3829798196	-0.9001452785	 0.092748
H	 0.5719970166	-0.4079973483	 0.8546901476	 0.0939
H	-1.9714013162	 0.005434196	-0.7746398006	 0.072781
H	-1.7474281153	-2.3472786377	-1.1120392766	 0.095065
H	-0.5981144519	-2.489354335	 0.2171232257	 0.098928
H	-4.8200491044	-3.035402038	 0.8838081357	 0.109488
H	-3.8804868516	-3.6193253499	-0.5651863372	 0.110288
H	-2.1311226654	-4.615985263	 0.9671630995	 0.108988
H	-3.0667839327	-4.0356365598	 2.4187309084	 0.108676
H	-3.4500757867	-1.3144144637	 2.6800851527	 0.088752
H	-2.1735615151	 0.7664354544	 1.8213171168	 0.089215
