20
gdb 88107	2.7484	1.4164	1.20974	2.2089	79.27	-0.2427	0.0296	0.2722	1119.7791	0.172558	-403.151496	-403.143187	-403.142243	-403.184325	31.986	
C	-0.1058665596	 1.5384853001	-0.062930081	-0.416391
C	 0.0146691033	 0.0324388125	 0.0253837962	-0.019119
C	 1.3316425801	-0.6654888969	-0.2281651611	-0.360311
C	 0.7268938856	-0.688577102	 1.1514287061	 0.288465
C	 1.3730214554	 0.0801002675	 2.2751723406	-0.141275
O	 0.4320147229	 0.3162840817	 3.3395573277	-0.227982
C	-0.4451794009	-0.6907102616	 3.5742508934	 0.133813
N	-0.6450291007	-1.7568126117	 2.9250996804	-0.270883
C	 0.123078556	-1.9697117404	 1.6982949697	-0.222811
H	 0.8183641888	 2.0452362986	 0.2304795239	 0.114609
H	-0.3265339114	 1.8447148925	-1.0912365384	 0.120827
H	-0.9102639613	 1.9140352198	 0.5785166075	 0.127629
H	-0.8631385671	-0.4938367343	-0.3433905053	 0.089719
H	 1.3401720736	-1.59014871	-0.79717742	 0.112999
H	 2.2064293063	-0.0413840081	-0.3900427741	 0.107697
H	 2.2204626804	-0.4835767033	 2.6887223371	 0.111381
H	 1.7331224311	 1.0648536282	 1.974113628	 0.114811
H	-1.0249881956	-0.4679791632	 4.4686371134	 0.121332
H	-0.5406353535	-2.431330275	 0.9580609254	 0.106994
H	 0.9091956067	-2.7106247645	 1.9055718404	 0.108495
