13
gdb 130328	3.26737	1.30487	0.9962	2.1091	63.76	-0.2596	-0.0483	0.2112	1099.2709	0.089964	-448.900122	-448.892377	-448.891433	-448.932945	27.994	
N	 0.2023808227	 1.2995728653	-0.3648696108	-0.599735
C	 0.1105321294	-0.05486631	-0.1435903331	 0.295377
N	-1.0156675418	-0.6902798717	 0.0661105739	-0.159486
O	-0.6552058544	-1.9979059706	 0.3261749066	-0.155479
N	 0.6878752888	-2.1651396014	 0.2555488973	-0.137833
C	 1.1878002938	-0.9943729253	-0.0206045145	 0.310712
C	 2.669185311	-0.7728807501	-0.1295745471	-0.443321
C	 3.012935831	 0.0616048506	-1.2828786022	 0.265606
N	 3.2332825144	 0.7565827162	-2.1793676434	-0.305134
H	 0.9233997921	 1.5775095089	-1.0179700683	 0.279657
H	-0.687009877	 1.7371273123	-0.563360608	 0.272392
H	 3.0493204387	-0.2770346569	 0.7726838226	 0.184814
H	 3.1739447614	-1.7401265873	-0.2048819131	 0.192431
