21
gdb 65737	3.62708	0.97396	0.93758	2.7766	83.42	-0.2449	-0.0207	0.2241	1334.6617	0.181338	-387.115749	-387.106538	-387.105594	-387.150202	34.581	
C	-0.095461673	 1.4894136702	 0.0667875812	-0.430802
C	 0.0464349346	-0.0387969206	-0.0510286375	 0.301365
C	-1.3416930367	-0.68501725	-0.2620312561	-0.331225
C	-2.0536857292	-0.2167544254	-1.5113557878	 0.160444
O	-3.1577695352	 0.2650233929	-1.535639751	-0.246416
C	 1.0660468624	-0.3810458368	-1.1872628379	-0.295258
C	 2.3672461033	-0.592165108	-0.4528021057	-0.063593
C	 2.1852457058	-0.7053555251	 0.8608266934	-0.059873
C	 0.7306651814	-0.5907240816	 1.2408756242	-0.296554
H	 0.8796299935	 1.95107925	 0.2512863921	 0.12203
H	-0.5073675119	 1.9276544648	-0.8486874734	 0.120506
H	-0.761807328	 1.7599020093	 0.8928593298	 0.118525
H	-1.2139286789	-1.7738157594	-0.3510346698	 0.113398
H	-1.9977724288	-0.4912409137	 0.5926727932	 0.116632
H	-1.4769547793	-0.3555544589	-2.4556135256	 0.073649
H	 0.7821874037	-1.2938496286	-1.731345321	 0.100371
H	 1.1240025018	 0.4151627021	-1.9390215623	 0.104285
H	 3.3196706109	-0.6693656975	-0.9654536979	 0.093687
H	 2.9664810505	-0.8887916316	 1.5901468782	 0.093742
H	 0.5600451679	 0.0683960533	 2.1007007429	 0.103231
H	 0.3263076251	-1.5728727456	 1.5248767708	 0.101856
