21
gdb 104086	2.41467	1.42281	1.1465	2.2371	79.1	-0.2354	0.0276	0.2631	1168.7709	0.181847	-424.235443	-424.226021	-424.225077	-424.269219	36.341	
C	 0.4713158973	 1.633754161	-0.1924725404	-0.384636
C	 0.0125113971	 0.1988714546	 0.1170396899	-0.091044
C	 0.3231695303	-0.7588921917	-1.0113199941	-0.069137
C	 1.3055731075	-1.605891945	-0.7082940789	-0.067224
C	 1.8186814434	-1.3948009767	 0.6924951339	-0.321743
C	 0.7509035224	-0.4531039946	 1.3298537355	 0.416901
O	 1.3173458872	 0.5418551122	 2.1665999639	-0.489408
C	-0.2457918999	-1.2662410896	 2.1626982146	-0.133378
O	 0.4747357351	-1.7863031299	 3.2796316809	-0.438011
H	 1.5431480052	 1.6666441617	-0.4069866401	 0.120729
H	-0.062156257	 2.0185850032	-1.0678694242	 0.101321
H	 0.2771970252	 2.2943323646	 0.6551593827	 0.126657
H	-1.0681084812	 0.2342443778	 0.317155208	 0.06316
H	-0.1839105203	-0.7005601665	-1.9688812762	 0.087259
H	 1.7166730431	-2.3535226133	-1.3783253048	 0.088555
H	 1.9392459513	-2.3218596111	 1.262953073	 0.11037
H	 2.7942446389	-0.8924599477	 0.6952476926	 0.110698
H	 1.5045899464	 0.0989714276	 3.0041901604	 0.28367
H	-1.0521277007	-0.5990143041	 2.4982580108	 0.093411
H	-0.6831437704	-2.0716746273	 1.5557936664	 0.097867
H	-0.154077721	-2.1300540652	 3.919592666	 0.293984
