17
gdb 72177	2.43428	2.23096	1.72353	1.8289	66.07	-0.2458	0.0655	0.3113	852.5629	0.137949	-458.941895	-458.935197	-458.934252	-458.972612	27.574	
O	-0.0811319161	 1.3973316138	 0.0238058047	-0.480382
C	-0.0094155704	 0.0163380665	-0.0541009038	 0.360629
C	 0.2583795015	-0.8048651363	-1.3455389228	-0.30984
C	-0.3457019202	-1.9158666176	-0.4640455758	 0.071712
O	 0.6761777148	-2.0951979178	 0.545735727	-0.27958
C	 0.725686638	-0.7672915994	 1.078775013	 0.128532
O	-0.1026482209	-0.676738863	 2.2038448664	-0.250235
C	-1.431013262	-0.9518649527	 1.7098763622	-0.113275
C	-1.281326457	-0.8426897961	 0.1930733781	-0.113398
H	 0.8095557547	 1.7556898681	 0.1037544901	 0.285749
H	-0.3908735143	-0.4871863394	-2.1643919704	 0.1087
H	 1.2862501914	-0.9533736177	-1.6839917624	 0.100449
H	-0.6898300111	-2.878295824	-0.8349081454	 0.08847
H	 1.7424156187	-0.4918063161	 1.3621195996	 0.085338
H	-1.7499533665	-1.9497437719	 2.0328061053	 0.109567
H	-2.1194506448	-0.2075501182	 2.1220483439	 0.115823
H	-2.165466206	-0.5744391481	-0.3825311997	 0.091743
