16
gdb 49476	2.31582	1.68715	1.24394	3.3536	75.07	-0.248	-0.0019	0.2461	1027.9858	0.123235	-400.686028	-400.677964	-400.67702	-400.718862	30.19	
O	 0.3572382232	 0.2885912507	-0.7322297035	-0.2936
C	 0.2788961969	 1.4396199981	-0.3816838973	 0.152505
N	 1.2307312216	 2.0847018305	 0.3965495642	-0.05656
C	 2.6603227301	 1.9817039071	 0.3254614415	-0.041926
C	 3.1334475056	 2.0225249971	-1.1356119236	-0.267292
C	 2.4365315034	 3.4326518511	-1.2922984007	-0.187262
C	 1.4530351201	 3.6290888631	-2.3381011203	 0.319032
C	 0.6327057282	 3.7785859959	-3.2049534998	-0.448058
C	 1.94031007	 3.3126980219	 0.1753795652	-0.084558
H	-0.5993881114	 2.0825202473	-0.5699543069	 0.095401
H	 3.202571811	 1.5889533153	 1.176913984	 0.11536
H	 4.2166484488	 2.0940396005	-1.2425198893	 0.11675
H	 2.7503648267	 1.2203735448	-1.7669335477	 0.145023
H	 3.2040617635	 4.2107714906	-1.3479926512	 0.117197
H	-0.0914219224	 3.907712883	-3.9712242652	 0.204228
H	 1.8189237647	 4.1357162631	 0.8702031305	 0.113762
