16
gdb 103119	2.33205	1.20184	1.18709	3.3926	66.04	-0.2684	0.0181	0.2865	1138.545	0.122166	-475.005832	-474.99641	-474.995466	-475.040218	34.181	
O	-0.0440596396	 1.4438066561	-0.1466200316	-0.426324
C	 0.0336184922	 0.0498073116	 0.1437488869	-0.148243
C	-1.3610016557	-0.5333801248	 0.0691449455	 0.364909
O	-2.2801577946	 0.1230423829	 0.8820299901	-0.467776
C	-1.8641502214	-1.0981967947	-1.2273298344	 0.012476
O	-0.986438537	-1.0957401428	-2.3024370319	-0.411679
C	-1.5948514051	-2.0317638918	-0.0283648374	-0.314265
C	-0.4977001691	-2.9497510563	-0.0976409919	 0.300962
N	 0.3817930646	-3.6968992803	-0.1871984256	-0.344955
H	-0.1413682239	 1.532192237	-1.1015841546	 0.299712
H	 0.7211968511	-0.4743402098	-0.5247584126	 0.133853
H	 0.4058572484	-0.0290285436	 1.1692621941	 0.132537
H	-2.0674261317	 1.0634458143	 0.7929426509	 0.295171
H	-2.9170855397	-0.9397496032	-1.4553384883	 0.116182
H	-1.021181141	-1.9504525128	-2.7475278722	 0.307424
H	-2.4716889074	-2.391923002	 0.4995147231	 0.150016
