18
gdb 95111	2.4135	1.56298	1.17288	5.0437	76.39	-0.2722	0.0335	0.3057	1088.4536	0.149029	-401.96571	-401.957496	-401.956552	-401.998368	31.514	
O	-0.0911485448	 1.4571720525	 0.0662810575	-0.432074
C	-0.0144187288	 0.0446367813	 0.0045029746	 0.058688
C	 0.688150664	-0.5987561471	 1.2256555812	-0.278063
C	 0.0041593649	-1.9645337278	 1.4364697554	-0.226753
C	-1.4195618974	-1.7672624578	 0.9319740808	-0.076423
C	-2.1541856576	-0.5282861931	 1.346197701	-0.320542
C	-1.422451826	-0.5470678492	 0.0123402763	 0.21672
C	-2.179657607	-0.5174860692	-1.2046490046	 0.199618
N	-2.782088896	-0.5010227912	-2.1925588893	-0.351981
H	 0.7776444116	 1.817127778	-0.1370179891	 0.288744
H	 0.4774478555	-0.2716016541	-0.9269988199	 0.086216
H	 1.7675790484	-0.6879330849	 1.0781863191	 0.104086
H	 0.5340642649	 0.0596186326	 2.0857594241	 0.120481
H	 0.4926582878	-2.7399135436	 0.8361034086	 0.113715
H	 0.0403261803	-2.2939895826	 2.4800729917	 0.112295
H	-2.0057844946	-2.6371922062	 0.6600939879	 0.110835
H	-3.2360121358	-0.5521885277	 1.2963868817	 0.13946
H	-1.7537115394	 0.11104174	 2.1242821931	 0.134978
