21
gdb 118972	2.50925	1.09006	0.99524	2.6432	75.73	-0.2421	0.0601	0.3022	1342.9145	0.179229	-461.328046	-461.31755	-461.316606	-461.363978	37.221	
C	-0.00060172	 1.3741300841	 0.0934987409	-0.222774
O	 0.0083451047	-0.0317113239	 0.0950325803	-0.238473
C	-1.2712116841	-0.5861579903	-0.1110064186	-0.075107
C	-1.1659662909	-2.1080658467	-0.0357214712	 0.368547
C	-0.0673341672	-2.6602454089	-0.9276272557	-0.443849
O	-0.9992974915	-2.5599501988	 1.3422270035	-0.318069
C	-2.35395125	-3.0403261657	 1.4086870323	-0.105903
C	-2.5468261763	-2.8144542095	-0.1051975863	 0.009072
O	-3.6029933659	-1.9886871784	-0.534823799	-0.426698
H	 1.026773202	 1.7086961376	 0.2575130558	 0.125506
H	-0.3588692697	 1.78087509	-0.8661452061	 0.100822
H	-0.6387263951	 1.7798091383	 0.8946500819	 0.1044
H	-1.9803800565	-0.2246590511	 0.6483125165	 0.09321
H	-1.6732325399	-0.2962546533	-1.0959732797	 0.094055
H	 0.8959915046	-2.2339073844	-0.6417725056	 0.14777
H	-0.0159081278	-3.7485816365	-0.835784202	 0.110125
H	-0.2600526815	-2.4032426038	-1.9750828792	 0.114534
H	-2.4101844036	-4.0699360588	 1.7812339221	 0.097522
H	-3.0016291275	-2.3944975627	 2.0176927798	 0.09733
H	-2.5023535218	-3.742427834	-0.6891039967	 0.076985
H	-4.4042569922	-2.5172966632	-0.5930532028	 0.290996
