11
gdb 21713	8.62824	1.19416	1.05796	6.3169	59.02	-0.2513	-0.0575	0.1938	1009.0461	0.072218	-426.850628	-426.843696	-426.842752	-426.882227	23.917	
N	 0.0274367973	 1.3629967791	-0.0479944418	-0.484921
C	 0.0663248451	 0.0253951154	 0.0731553776	 0.145876
N	 1.1555465682	-0.6376326524	-0.1059431102	-0.33
C	 1.0837788989	-2.0006481166	-0.0820321267	 0.471588
N	 0.0559285381	-2.7623961064	-0.3778096438	-0.182634
O	 0.5141604825	-4.0303250104	-0.2234390657	-0.152476
N	 1.854696965	-3.9800903596	 0.1611531658	 0.046781
N	 2.1944602906	-2.7767055444	 0.2394454184	-0.215979
H	 0.8756943266	 1.8626491202	-0.2629388932	 0.280247
H	-0.797370173	 1.8830096148	 0.1895691393	 0.278897
H	-0.8897592793	-0.4407075698	 0.3305298804	 0.14262
