15
gdb 43113	2.86192	1.94419	1.49958	3.9383	64.06	-0.229	-0.0457	0.1834	873.333	0.1137	-457.732601	-457.725987	-457.725043	-457.764036	25.302	
O	-0.0518444736	 0.0076145995	-0.0040544193	-0.284019
C	-0.0494036117	 1.2003713487	 0.0232745212	 0.409552
C	-1.1429592205	 2.292409558	-0.0407295017	-0.03049
O	-1.3486570793	 2.8082615765	 1.2981156279	-0.30402
C	-0.3268057324	 3.8303913027	 1.1310645465	 0.093063
C	 0.9278896659	 3.5474739494	 1.9487698303	-0.088396
O	 1.7060884446	 2.5903430472	 1.2227431801	-0.260618
C	 1.082184835	 2.2912709105	-0.0112082444	-0.028543
C	-0.0229651339	 3.3480373939	-0.2982040036	-0.14627
H	-2.0710525615	 2.145364139	-0.5946431056	 0.101015
H	-0.7415317723	 4.829256954	 1.2906415456	 0.09427
H	 1.523105115	 4.4598552532	 2.0860698933	 0.107883
H	 0.6643064328	 3.1433509993	 2.9327223578	 0.128063
H	 1.8501872523	 2.1063425478	-0.7672542296	 0.109922
H	 0.0453224194	 4.0201874604	-1.1472874386	 0.098587
