20
gdb 113395	2.98521	0.94869	0.80811	3.2717	71.9	-0.2482	0.0483	0.2964	1440.4828	0.169876	-477.37259	-477.362361	-477.361416	-477.408239	37.042	
O	-0.1794474212	 1.3010933389	-0.6329000165	-0.419477
C	 0.0087118011	 0.1484891333	 0.1704698549	-0.073684
C	-1.2969593131	-0.5957117305	 0.3450121484	-0.086623
N	-1.7895443594	-1.2776838446	-0.8649224454	-0.367591
C	-1.4348801885	-2.0800029397	 0.3265503165	 0.263338
C	-0.2266042881	-3.0014285318	 0.1772074784	-0.099788
O	-0.5789281938	-4.3720446929	 0.1088316789	-0.432326
C	-2.5938686962	-2.6828172617	 1.0935296384	-0.182115
O	-3.2742620464	-3.575202842	 0.2013256865	-0.419575
H	-0.550723632	 0.9847698839	-1.4652484691	 0.290592
H	 0.7755561753	-0.5126695873	-0.2553101102	 0.095456
H	 0.3745785354	 0.5038924757	 1.1395766642	 0.10945
H	-2.0317113762	-0.049197427	 0.935444029	 0.086576
H	-2.8005434191	-1.2007852978	-0.9469066739	 0.238777
H	 0.3419716271	-2.688606792	-0.7091272589	 0.100331
H	 0.4296640585	-2.8990811997	 1.0513798364	 0.10105
H	-1.4294297419	-4.4304555113	-0.3446008149	 0.289833
H	-2.2200832416	-3.2210160001	 1.9739657987	 0.115642
H	-3.2802981337	-1.8938393999	 1.433431527	 0.093921
H	-3.8578079162	-4.1372427733	 0.7205093817	 0.296212
