25
gdb 111848	2.12958	1.37166	1.09	0.1377	92.46	-0.2476	0.0792	0.3268	1311.9657	0.230098	-352.369923	-352.360203	-352.359259	-352.404421	37.387	
C	 0.1064082767	 1.4105089348	-0.2157612195	-0.368746
C	 0.0758183465	-0.0659499001	 0.2018140272	-0.219229
C	-1.3182594539	-0.6584429448	 0.1120969212	-0.030236
C	-1.9915992811	-1.1912893299	-1.1396862692	-0.090706
C	-1.1618503444	-1.6008113004	-2.3490983156	-0.221248
C	-0.1103853659	-2.6196982527	-1.833976104	-0.222445
C	-0.6188417719	-3.1137717218	-0.4547142708	-0.265817
C	-1.686156032	-2.1255361382	 0.0190264388	 0.312887
C	-2.7611594328	-2.6705361409	 0.9330162773	-0.478423
H	 1.1117451615	 1.8322350996	-0.1161147493	 0.106731
H	-0.2095372179	 1.5316969985	-1.2571278138	 0.11871
H	-0.5694621932	 2.0101339589	 0.4042433875	 0.111569
H	 0.7914722798	-0.6258824339	-0.4050551332	 0.098347
H	 0.4292356316	-0.1545381079	 1.2380313538	 0.094298
H	-2.0164778664	-0.1056498605	 0.7415304349	 0.071158
H	-3.0112512324	-0.866784516	-1.3265647984	 0.070129
H	-1.8247988168	-2.0721481011	-3.0838569854	 0.0972
H	-0.690126773	-0.7520809645	-2.85760369	 0.095741
H	 0.0184254865	-3.4508057926	-2.5334610013	 0.094246
H	 0.8717160845	-2.1496467434	-1.7424789491	 0.107141
H	-1.0887483809	-4.0998089791	-0.5530405483	 0.093562
H	 0.1999400263	-3.2325828939	 0.2646786795	 0.093116
H	-2.3437488308	-2.9957355695	 1.8941096197	 0.112578
H	-3.524677397	-1.9155455511	 1.1463306163	 0.110375
H	-3.263383303	-3.5365217293	 0.4842226816	 0.109066
