23
gdb 70735	2.35514	1.57765	1.17608	1.1657	85.33	-0.2424	0.0851	0.3274	1165.8597	0.207878	-388.290201	-388.281738	-388.280794	-388.322577	34.396	
C	-0.0277150288	 1.5036583878	 0.0251967842	-0.467073
C	-0.0184779191	-0.01241575	-0.0100598828	 0.36361
C	-0.8646971002	-0.7739295515	 0.9867009275	-0.365537
C	 0.6393711236	-0.7473403482	 1.1344327693	-0.022203
C	 1.5071792144	-1.9703140653	 0.884406199	-0.238152
C	 2.7087202395	-1.6688861574	-0.0300150495	-0.190166
C	 2.3544899384	-1.5413461926	-1.51829896	-0.063557
O	 1.5019156969	-0.465798421	-1.8676649483	-0.242991
C	 0.1661474698	-0.5956340238	-1.4009052272	-0.155861
H	 0.881775315	 1.9008299222	-0.4380440158	 0.128828
H	-0.8875645256	 1.9088593126	-0.5221324952	 0.110196
H	-0.0784141795	 1.8800420232	 1.0517233204	 0.107789
H	-1.4683284895	-0.2055192176	 1.687117299	 0.106947
H	-1.3222880243	-1.7056267898	 0.6660980884	 0.105179
H	 1.0198114714	-0.099775912	 1.9215722454	 0.079529
H	 1.8638301471	-2.3567642303	 1.8465613766	 0.095573
H	 0.9133671061	-2.7807566473	 0.4428328496	 0.092295
H	 3.2085198832	-0.7510791282	 0.3036073538	 0.101442
H	 3.4469584019	-2.4779721343	 0.0517133994	 0.089819
H	 3.2706678821	-1.3832539436	-2.0973658014	 0.10235
H	 1.9081410051	-2.4917736602	-1.8613691653	 0.081189
H	-0.1439927366	-1.6505326311	-1.4327883817	 0.082093
H	-0.4603368209	-0.0500388017	-2.1170731556	 0.098701
