20
gdb 122579	5.24909	0.69356	0.64796	2.0486	76.58	-0.2485	0.0235	0.272	1742.6179	0.170961	-440.288685	-440.279271	-440.278327	-440.324491	32.706	
C	-0.1151586199	 1.350451789	-0.0169596529	-0.228426
O	-0.0687207109	-0.055190181	-0.0584523968	-0.23141
C	 0.6629456277	-0.5472820494	-1.1593227283	-0.05564
C	 0.6190423827	-2.0695637831	-1.1160764448	-0.218174
C	 1.422433317	-2.7305550525	-2.226233079	 0.087951
C	 1.3303316969	-4.2817727173	-2.2612481135	-0.201764
N	 0.7155277043	-4.6072340064	-3.5600647158	-0.261192
C	 0.5238229731	-3.4959857752	-4.1350160615	 0.121927
O	 0.8820839902	-2.3408013386	-3.5258932838	-0.233224
H	 0.8909553141	 1.7911181907	 0.071352135	 0.102636
H	-0.5936576077	 1.7710969681	-0.9157078211	 0.104684
H	-0.701805451	 1.6334296109	 0.8604427023	 0.127132
H	 0.2369461193	-0.1817263388	-2.1069494181	 0.103897
H	 1.7087527138	-0.192968743	-1.1165889337	 0.081389
H	 1.0148632301	-2.4090957559	-0.15121818	 0.114132
H	-0.4229091763	-2.4053973416	-1.1715694786	 0.117602
H	 2.460361929	-2.3804178771	-2.2075250492	 0.092136
H	 2.3103995345	-4.7628465394	-2.1838061903	 0.118257
H	 0.7086146609	-4.6725041198	-1.4476697198	 0.117852
H	 0.0805557424	-3.3641758196	-5.1161138299	 0.140237
