17
gdb 19828	3.45516	2.3212	1.92392	3.2119	66.45	-0.2275	0.0643	0.2918	756.6878	0.144467	-363.78848	-363.782277	-363.781333	-363.818429	25.962	
O	 0.1023874923	 1.4340897139	-0.1226138615	-0.437132
C	 0.0187546957	 0.0449356695	 0.0017725026	 0.135915
C	 0.2941505761	-0.5984632669	 1.4095941127	-0.276348
C	-1.114412924	-1.2513760016	 1.3888519194	-0.031357
C	-2.2957217591	-0.4271947873	 1.9542242773	-0.057697
N	-2.0174357609	 1.0105732595	 1.7017221642	-0.353907
C	-2.5748483998	 0.162456068	 0.612969843	-0.052967
C	-1.4042902913	-0.6239594205	-0.0143672684	-0.06259
H	-0.4671649518	 1.7786579483	 0.5826501132	 0.291184
H	 0.6652584059	-0.3767276311	-0.7734537426	 0.081045
H	 1.1125457738	-1.3229607445	 1.4083592232	 0.095249
H	 0.463282706	 0.1307983871	 2.2042244021	 0.106246
H	-1.196582503	-2.3253339223	 1.5514439204	 0.070167
H	-2.9700495382	-0.7025846304	 2.7564154336	 0.094281
H	-2.7897490887	 1.542710423	 2.0987851765	 0.235848
H	-3.510512292	 0.4403205559	 0.1433147946	 0.096303
H	-1.6771190909	-1.2367566307	-0.8734800603	 0.06576
