25
gdb 101827	4.67358	0.56669	0.54632	1.353	89.9	-0.2625	0.0786	0.3411	2113.0813	0.227588	-389.479584	-389.468554	-389.46761	-389.516633	40.172	
C	 0.1914264796	 1.540300953	-0.1727982217	-0.390283
C	 0.0253558914	 0.0270086845	 0.0203223191	 0.03757
C	 0.641345708	-0.4175650844	 1.3483898846	-0.079566
O	 2.0304570181	-0.1171467692	 1.3292972375	-0.424254
C	-1.4410197605	-0.4319900177	-0.0570271065	-0.179523
C	-2.1081605007	-0.2222799351	-1.423875003	-0.216168
C	-3.5239391807	-0.7579461368	-1.4748072393	 0.038913
C	-4.6781618034	 0.0897453875	-0.9984607094	-0.254071
C	-4.5174132977	-0.2141081161	-2.4687772884	-0.278619
H	 1.2348278385	 1.8269956275	-0.0249111798	 0.132423
H	-0.1114213949	 1.8587051599	-1.1741436552	 0.110247
H	-0.4185512887	 2.0927758789	 0.5532070941	 0.102784
H	 0.5901603002	-0.4859994723	-0.7713877849	 0.078676
H	 0.1349706755	 0.1014308978	 2.1799837831	 0.080056
H	 0.4761827502	-1.4982257563	 1.4872530452	 0.079961
H	 2.395608037	-0.3254061501	 2.1936811614	 0.285315
H	-1.492577244	-1.5006485842	 0.1939832311	 0.086079
H	-2.0286546909	 0.0883800436	 0.7123068185	 0.093243
H	-2.1248549158	 0.8452365307	-1.6753930169	 0.09423
H	-1.5021377576	-0.709690157	-2.2006099293	 0.093777
H	-3.6053158961	-1.8219413438	-1.2627385237	 0.077404
H	-5.4891459361	-0.3870031174	-0.4588801111	 0.107735
H	-4.4586206969	 1.099159869	-0.664701328	 0.107674
H	-4.1921065698	 0.5913995788	-3.1194476905	 0.108251
H	-5.2171896948	-0.9010368109	-2.9320415868	 0.108147
