20
gdb 98902	3.87844	1.03896	0.84848	2.6714	77.13	-0.2308	0.0603	0.2911	1386.0639	0.172157	-440.342243	-440.332884	-440.33194	-440.377517	32.83	
C	-0.0336458265	 1.3293882376	 0.0095593247	-0.230347
O	 0.1259453908	-0.0892978491	-0.0106403292	-0.262876
C	 0.6063677271	-0.6170731413	 1.1492821187	 0.51393
O	 0.8881658699	 0.0409911986	 2.1300563597	-0.434564
N	 0.7237688855	-1.9637197135	 1.0539932571	-0.147062
C	 0.4051973151	-2.7718764524	-0.1251051639	-0.148537
C	 0.5044266441	-4.2109902679	 0.4044100971	-0.222179
C	 1.5624965598	-4.108383584	 1.5172169305	-0.221713
C	 1.2608588485	-2.7499085829	 2.1657281641	-0.144332
H	 0.9251032071	 1.8287716166	 0.1734380879	 0.135496
H	-0.436323426	 1.5956818024	-0.9686438885	 0.124862
H	-0.7237226102	 1.6346602126	 0.8005521578	 0.136412
H	-0.5860501127	-2.5255879479	-0.5138831008	 0.120214
H	 1.1285780531	-2.5898833145	-0.9312630614	 0.109016
H	-0.4575834394	-4.5186720315	 0.8287877704	 0.11061
H	 0.766561266	-4.9253318634	-0.3792782671	 0.106328
H	 1.5174685292	-4.9319788514	 2.2331212843	 0.106832
H	 2.5671483371	-4.0994608168	 1.0802601932	 0.10996
H	 2.1403741358	-2.2600094518	 2.5904356066	 0.127349
H	 0.5184828858	-2.8423684796	 2.9698367987	 0.110603
