17
gdb 97062	3.34571	1.20175	0.91202	4.1098	73.7	-0.2397	-0.063	0.1767	1251.1626	0.135504	-455.161686	-455.152706	-455.151762	-455.195564	32.432	
C	 0.0146141487	 1.4046170973	 0.1013427479	-0.340743
N	 0.035740867	-0.0378184685	-0.0626237007	-0.294791
C	-1.0857407146	-0.6381845109	-0.052386707	 0.317891
N	-2.3709803079	-0.1549283822	 0.1196588247	-0.361943
C	-3.4167844353	-1.1326880665	-0.1909777654	-0.208107
C	-2.7013537249	-2.4658886903	 0.0918038371	 0.066149
O	-3.1782136235	-3.5510198645	-0.6463382791	-0.435489
C	-1.2463303392	-2.1281684303	-0.2302799598	 0.293304
O	-0.4459241915	-2.9313230374	-0.6333036006	-0.309807
H	 1.0318686256	 1.7963067865	 0.0346138768	 0.133765
H	-0.5885209242	 1.9059512653	-0.6741973246	 0.107685
H	-0.3987551118	 1.7010364903	 1.0781714387	 0.117792
H	-2.5611752956	 0.8313759148	 0.0548769262	 0.256099
H	-4.2968123983	-0.9743642646	 0.4369330414	 0.124171
H	-3.7264868719	-1.1094643048	-1.2443401805	 0.126712
H	-2.7494383178	-2.6608065129	 1.1783307075	 0.109785
H	-2.3930448947	-4.0463260413	-0.9243589825	 0.297527
