23
gdb 118495	2.38164	0.9798	0.75431	2.4828	82.86	-0.2485	0.083	0.3315	1605.0695	0.203334	-425.395603	-425.384877	-425.383933	-425.432136	37.989	
C	 4.2514384633	-0.6367748226	-0.6314900924	-0.380917
C	 2.74369254	-0.770798999	-0.4022916207	-0.174064
C	 2.4023635043	-1.7000600463	 0.7657513338	-0.168634
C	 0.8977488852	-1.8766909919	 0.9898949093	 0.070188
O	 0.3480764513	-2.4833586605	-0.1706849646	-0.23986
C	-0.9825730162	-2.104546115	-0.4454556436	-0.240095
C	 0.636194307	-2.6917582368	 2.2518283013	 0.062648
C	-0.1450741088	-3.9352804184	 2.2670419629	-0.171478
O	 1.2798390026	-3.9653500185	 2.3363031496	-0.231134
H	 4.7050750479	-1.6095552406	-0.8510114057	 0.117235
H	 4.4693058355	 0.029458316	-1.4721742472	 0.109481
H	 4.7547298112	-0.2314156129	 0.2536240966	 0.110917
H	 2.3118724545	 0.2224044067	-0.2166935203	 0.084773
H	 2.2604944903	-1.1537221742	-1.3071111691	 0.111908
H	 2.8298110135	-2.6954113596	 0.6011869697	 0.123072
H	 2.8484022691	-1.3185182444	 1.6936247378	 0.091121
H	 0.4355952641	-0.8854522622	 1.1368217182	 0.059263
H	-1.2883322171	-2.63434018	-1.3512411314	 0.128094
H	-1.6723162242	-2.3724828183	 0.3685318139	 0.104383
H	-1.0649990643	-1.0212819182	-0.6225371436	 0.108863
H	 0.6924294619	-2.1124051692	 3.1761820271	 0.08983
H	-0.6668151532	-4.2327413353	 3.1762936328	 0.108719
H	-0.5628405877	-4.3106308587	 1.3366122856	 0.125685
