17
gdb 72025	2.89256	2.14014	1.87993	2.122	68.62	-0.261	0.0923	0.3533	822.3641	0.138099	-421.804339	-421.798211	-421.797267	-421.834453	26.238	
C	 0.0450751046	 1.4887147471	-0.0659687278	-0.518634
C	-0.0300933229	-0.0102752241	-0.0409244117	 0.403478
O	 0.7949682901	-0.6324463026	-1.0263785527	-0.268643
C	 0.7325059922	-1.9448998855	-0.4899880567	 0.122938
O	 1.3009171126	-1.7913288717	 0.80635043	-0.237995
C	 0.334860274	-0.8637904146	 1.2818237087	-0.021319
C	-1.0299772457	-1.5607515754	 1.1559791197	-0.100929
C	-0.7915921883	-2.167136935	-0.2100862373	-0.091238
C	-1.3713999762	-0.7777983976	-0.0932130544	-0.140741
H	 1.0730981409	 1.8236355211	 0.0985683665	 0.135433
H	-0.2927485016	 1.8764159043	-1.0323085092	 0.1322
H	-0.5913188165	 1.9151710293	 0.7150439158	 0.124044
H	 1.2850798917	-2.6596703845	-1.0929217832	 0.093218
H	 0.6563688639	-0.3696785234	 2.1946677068	 0.084265
H	-1.6555513535	-1.9844256011	 1.9300094786	 0.094308
H	-1.3522852011	-3.0117099008	-0.5823385779	 0.098038
H	-2.3210101642	-0.4528939153	-0.4985159752	 0.091579
