17
gdb 17435	2.73663	2.5846	1.85826	2.3406	66.69	-0.2276	0.0605	0.2881	789.1946	0.141547	-363.791494	-363.78396	-363.783016	-363.823989	28.395	
C	 0.0296003011	 1.6120888976	-0.0096131021	-0.433549
C	 0.0987424829	 0.0903514124	 0.0265402181	-0.046006
C	 0.7589518954	-0.7136722861	-1.0937723326	-0.047324
C	 1.2288144286	-1.7649820222	-0.1653157281	-0.101391
N	 2.2372841346	-0.8871286581	-0.8191890732	-0.15096
C	 2.4820350526	-0.1960795486	 0.491076321	-0.207627
C	 1.0947876492	-0.6703556501	 0.9640416188	 0.336284
O	 0.7901826298	-0.9419970384	 2.2872403259	-0.478556
H	 0.992927652	 2.0676950077	-0.2526626122	 0.127448
H	-0.6893335803	 1.9446423282	-0.7660778882	 0.124141
H	-0.3048382029	 2.0191114224	 0.9526651985	 0.106809
H	-0.8974846467	-0.3315128258	 0.2042655159	 0.083769
H	 0.4617921456	-0.7973708038	-2.1314655793	 0.095765
H	 1.23474454	-2.846139863	-0.1868524403	 0.10106
H	 3.2899703006	-0.7202857103	 1.0076014771	 0.113257
H	 2.7067513145	 0.8749218879	 0.4348572926	 0.091053
H	 0.4516741429	-0.1401407199	 2.700118418	 0.285827
