23
gdb 122637	3.55223	0.74345	0.664	1.4872	83.05	-0.2528	0.0675	0.3203	1778.4155	0.204381	-425.406516	-425.396145	-425.3952	-425.44277	37.51	
C	-0.0443422784	 1.3704792883	-0.2298462277	-0.384313
C	-0.0422169823	-0.1483321212	-0.1890287133	-0.027673
O	-1.3684555241	-0.5964972026	-0.0007937529	-0.244227
C	-1.4829085213	-2.0014652502	 0.0533032293	-0.065856
C	-2.943634539	-2.3579551577	 0.2698508241	-0.055487
C	-3.8457778109	-2.104055087	-0.972147869	-0.220759
C	-3.7291042539	-3.6088305858	-1.3449939545	-0.261658
C	-3.2559942551	-3.8814805927	 0.1057535867	 0.145299
O	-2.2663932049	-4.8496834677	 0.3617857216	-0.430137
H	 0.9714586454	 1.7502365907	-0.3747451901	 0.113862
H	-0.6708850152	 1.7311433091	-1.0505958567	 0.125757
H	-0.4380974423	 1.7782745007	 0.7054385815	 0.127269
H	 0.3692060559	-0.5597755214	-1.1272109795	 0.081753
H	 0.6023551122	-0.5130831471	 0.6289704217	 0.08511
H	-1.1009253948	-2.4433833893	-0.8866499538	 0.063342
H	-0.8684202227	-2.411667595	 0.8718975883	 0.094807
H	-3.2739687457	-1.9029890176	 1.2076074584	 0.074183
H	-4.8640391684	-1.8242003936	-0.6923018073	 0.103101
H	-3.471866762	-1.3761791971	-1.6941803796	 0.108853
H	-4.6211258143	-4.1323221426	-1.6963778489	 0.100989
H	-2.9217159278	-3.7875871678	-2.0641576048	 0.092727
H	-4.1005832568	-4.1566935743	 0.7441707102	 0.092766
H	-1.5694772337	-4.749967818	-0.2945886837	 0.280292
