16
gdb 43442	2.96481	1.46374	1.06129	1.9863	72.76	-0.2527	-0.0125	0.2402	1096.8297	0.126445	-434.095091	-434.087439	-434.086495	-434.127851	29.102	
N	-0.0907173378	 1.2962567299	 0.0565479656	-0.526714
C	-0.0186073952	 0.0316698848	 0.0098732911	 0.399509
C	-1.2319283365	-0.8888125121	 0.0140794957	-0.39812
C	-0.6484188613	-2.2952020091	 0.015189975	 0.181723
C	-1.2356526946	-3.4583532117	 0.7342115051	-0.271896
N	-1.2279378496	-3.4239576616	-0.7311112046	-0.329611
C	 0.8548926604	-2.1543284606	-0.0578087521	 0.413837
O	 1.6885238911	-3.0226223458	-0.0845163229	-0.352984
N	 1.108221894	-0.7866128425	-0.0549281484	-0.386153
H	 0.832350688	 1.7334854738	 0.0404139021	 0.213052
H	-1.858057381	-0.6712278163	 0.8826444014	 0.147185
H	-1.8305869615	-0.68947405	-0.8807369434	 0.145418
H	-0.5654626594	-4.1934167223	 1.1699147914	 0.145697
H	-2.1690639383	-3.2942451613	 1.2668522787	 0.119912
H	-2.1452780562	-3.1498795482	-1.0774599374	 0.237304
H	 2.0541054579	-0.4333611072	-0.0694434073	 0.261842
