15
gdb 26842	3.72905	1.10549	0.85658	4.6182	76.87	-0.2029	-0.0328	0.1701	1260.7497	0.114065	-453.996124	-453.987971	-453.987027	-454.028775	30.554	
N	-0.2568792045	 1.4301449428	-0.0178451553	-0.629608
C	-0.0149920271	 0.02463544	-0.0169388778	 0.084354
C	-1.0903923347	-0.8594760394	-0.0963241869	 0.424863
O	-2.3926099852	-0.5668970315	-0.1780535677	-0.422136
N	-0.6338031674	-2.1241656889	-0.0799336546	-0.367681
C	 0.7557862907	-2.1024851643	 0.0108387775	 0.223636
C	 1.4939534456	-3.3320122808	 0.0459981915	 0.067333
O	 0.9793077033	-4.4390358416	 0.0004253933	-0.33779
C	 1.1501594682	-0.7695589417	 0.0505357173	-0.304568
H	 0.1916550641	 1.8939760909	-0.8018286763	 0.246108
H	 0.0855172215	 1.8767657488	 0.8272867472	 0.246109
H	-2.428600994	 0.4040945379	-0.1701485604	 0.309915
H	-1.1674020244	-2.9776557913	-0.1236568412	 0.284857
H	 2.5949935468	-3.2037138972	 0.1187240767	 0.065706
H	 2.1719035371	-0.4254792237	 0.1206966367	 0.108903
