15
gdb 133560	2.94159	1.36977	1.24228	2.7808	57.43	-0.2548	0.0644	0.3192	1014.9355	0.10974	-548.270266	-548.262657	-548.261713	-548.302986	28.516	
F	-0.2443769744	 0.0986449417	-0.1184116768	-0.078395
C	-0.0116591048	 1.4101045909	 0.0482700633	 0.230255
F	 1.307408248	 1.5775132252	 0.1904739572	-0.070477
F	-0.3861979959	 2.0243007789	-1.0886142757	-0.079564
C	-0.7738720807	 1.9576889541	 1.2167611835	 0.169749
C	-0.2631670774	 3.0525275873	 2.062153	-0.285046
N	-0.3351542891	 1.6978181148	 2.6407464187	-0.15745
C	-1.7903195971	 1.4812220072	 2.9885662627	-0.15165
C	-2.2359908432	 1.6333285371	 1.5094460239	-0.325098
H	 0.7552412522	 3.3838005961	 1.8930602146	 0.142213
H	-0.951594439	 3.8195090498	 2.410909482	 0.11743
H	-1.9310115213	 0.4789403789	 3.3947550887	 0.12499
H	-2.1738814581	 2.2169745615	 3.7015372541	 0.113825
H	-2.966325821	 2.4063691429	 1.2597356449	 0.115355
H	-2.5486933881	 0.6864608936	 1.0682658189	 0.133863
