13
gdb 25532	5.66064	1.0012	0.85073	5.7625	63.54	-0.2195	-0.0111	0.2084	1241.208	0.08986	-489.927359	-489.919757	-489.918813	-489.959903	27.574	
N	-0.0877368401	-0.2344205828	 1.2607450125	-0.448191
C	-0.0116635721	-0.171353098	-0.008226596	 0.078139
N	-1.107366111	 0.1424274975	-0.7777064172	-0.398657
C	-2.3566504584	 0.411344757	-0.2703485706	 0.40992
C	-2.9043532148	 0.4654446889	 0.9454975402	-0.122304
O	-4.2517116308	 0.8012875012	 0.7804674473	-0.214574
C	-4.4930018139	 0.9445542902	-0.5427431741	 0.504363
O	-5.5245594517	 1.2267734683	-1.0598385548	-0.370099
O	-3.3117552285	 0.7028827855	-1.2188611277	-0.252063
H	 0.8136077251	-0.477723464	 1.6633257205	 0.234928
H	 0.8792707132	-0.3471394173	-0.6188474042	 0.111196
H	-1.0164193689	 0.1846768067	-1.7792452561	 0.27721
H	-2.526217578	 0.3105429767	 1.9346514702	 0.190131
