16
gdb 67315	3.20163	1.47799	1.23746	4.1491	74.1	-0.2548	0.0076	0.2624	1015.1114	0.125418	-396.839259	-396.831842	-396.830898	-396.87101	28.952	
N	-0.0580292471	 1.430472687	 0.0442339387	-0.620794
C	 0.0128961926	 0.0181852988	-0.0380077703	 0.292492
C	 0.3910653871	-0.9704545072	 1.1060063919	-0.026108
C	-1.0353498721	-1.038348749	 1.6556987544	-0.265401
C	-1.1737530938	-0.9793107367	 0.1323559855	-0.032008
N	 0.0370810901	-1.9346048403	-0.058465221	-0.153944
C	 0.6742253906	-0.9617350665	-1.0499948246	-0.187073
C	 0.1554816242	-1.0071849626	-2.407713681	 0.279112
N	-0.2759251893	-0.9915518712	-3.4808815356	-0.326707
H	 0.8623309238	 1.8553414699	 0.0966777874	 0.238423
H	-0.5415783382	 1.8278507657	-0.7553308011	 0.247146
H	 1.3530111673	-1.0596714431	 1.6139078732	 0.090771
H	-1.3261775621	-1.9772551521	 2.1317256814	 0.117341
H	-1.383594917	-0.1653181246	 2.2089610001	 0.122482
H	-2.0537363267	-1.0781093472	-0.5033537961	 0.108639
H	 1.7677049204	-1.0183135711	-1.054379973	 0.115628
