20
gdb 10064	2.89584	1.12538	0.84674	1.3409	80.99	-0.247	0.0466	0.2936	1418.2286	0.173723	-348.977223	-348.96663	-348.965685	-349.014078	35.726	
C	 0.8105140537	 1.0982008694	-0.4107538871	-0.389571
C	 0.2978363878	-0.3088744214	-0.0987699688	-0.176102
C	-1.2222351559	-0.3541762387	 0.1172744301	-0.066984
O	-1.8300484354	 0.0732404506	-1.0952985322	-0.229249
C	-3.2191640823	 0.2951988814	-0.9944924346	-0.233787
C	-1.67475749	-1.691809278	 0.5238795981	 0.089333
C	-2.037098185	-2.7934495235	 0.8501335846	 0.066682
C	-2.4731509233	-4.1250187964	 1.2456784731	-0.500079
H	 1.8910538313	 1.0891790884	-0.5822221018	 0.108909
H	 0.3226772704	 1.4972076542	-1.3029001764	 0.135245
H	 0.6108588144	 1.7857870624	 0.4191191155	 0.10894
H	 0.5390097774	-0.9959564821	-0.9170801516	 0.113225
H	 0.778051912	-0.7048198072	 0.8022913148	 0.103834
H	-1.4853931225	 0.3604565434	 0.9187325055	 0.081692
H	-3.7605027885	-0.6218077328	-0.7243818191	 0.11538
H	-3.4521839764	 1.0698296771	-0.2465554762	 0.100068
H	-3.560015804	 0.6371048963	-1.9746979782	 0.124197
H	-3.3390823293	-4.0817687196	 1.9154501859	 0.147532
H	-2.7568819276	-4.7236791422	 0.3731534854	 0.150897
H	-1.6751394468	-4.6631542513	 1.7691067229	 0.149836
