19
gdb 73140	2.41073	1.81203	1.5715	2.3725	73.36	-0.2463	0.0682	0.3144	956.2764	0.160836	-423.002718	-422.995353	-422.994409	-423.034001	30.356	
O	 0.2982381863	 1.3972953562	 0.0199683384	-0.483164
C	 0.004302402	 0.0251444828	 0.0208381013	 0.366172
C	-1.3702039783	-0.3132159228	 0.6176961407	-0.120383
O	-0.791804578	-1.3989014535	 1.3816683541	-0.298694
C	 0.5533510592	-0.9028760431	 1.1459613519	 0.059801
C	 1.530002744	-1.9151197321	 0.5419711749	-0.255776
C	 1.3304280872	-1.8364833864	-0.9709291981	-0.038367
C	-0.0519927162	-2.1131547855	-1.4907999134	-0.295595
C	 0.3868444424	-0.6815854377	-1.2775179643	-0.131089
H	 1.1507039993	 1.5245097163	-0.4099551317	 0.279427
H	-1.7515626219	 0.4851607627	 1.2662948587	 0.107527
H	-2.156641286	-0.6557448184	-0.0617948056	 0.105658
H	 0.9392642508	-0.3905250561	 2.0351520622	 0.077033
H	 2.5554146135	-1.628645938	 0.8027039717	 0.09932
H	 1.3572400516	-2.9175691537	 0.9480175114	 0.117563
H	 2.1780752079	-2.0503318653	-1.6129417016	 0.082579
H	-0.1463390941	-2.4410854198	-2.5205910459	 0.108749
H	-0.7772449285	-2.5448590655	-0.8100576032	 0.136927
H	 0.5077106286	-0.0505590902	-2.1521635916	 0.082313
