21
gdb 113147	3.60235	0.72701	0.68134	1.4236	90.74	-0.2253	0.044	0.2693	1786.4044	0.179199	-387.056738	-387.045736	-387.044792	-387.094281	38.908	
C	 0.2079149423	 1.4345280427	 0.3049610051	-0.374825
C	-0.2229568976	 0.0272305684	-0.1244893243	-0.196899
C	 0.5585436499	-0.4734004325	-1.3217538852	-0.026093
C	 1.9198209855	-1.1086954431	-1.1546728323	-0.345278
C	 0.7264539572	-1.9549624401	-1.580448878	 0.174208
O	 0.1492334168	-2.7899877953	-0.6063819335	-0.450769
C	 0.6676308401	-2.4583806693	-2.9294023674	 0.056048
C	 0.625179417	-2.9124075197	-4.0453613634	 0.059069
C	 0.561710775	-3.4499345713	-5.3965971266	-0.500748
H	 1.2673550286	 1.4555582142	 0.5815914042	 0.11584
H	 0.0636522874	 2.1595253028	-0.503841894	 0.111842
H	-0.3724445192	 1.7779430737	 1.1670347933	 0.11062
H	-0.101545947	-0.6754541434	 0.7046267959	 0.113563
H	-1.2925536751	 0.028016315	-0.3691775469	 0.100991
H	 0.4328577826	 0.1209756417	-2.2229578511	 0.093838
H	 2.697079706	-0.9058970303	-1.8823075721	 0.115447
H	 2.264146841	-1.2778996806	-0.1391476323	 0.114269
H	 0.628511684	-3.6256741276	-0.6247443935	 0.283584
H	-0.3816823329	-3.9799521886	-5.5688435458	 0.150083
H	 0.6294235892	-2.6493525441	-6.1417266249	 0.149597
H	 1.3792413592	-4.1530663425	-5.5920071369	 0.145611
