16
gdb 48616	2.64302	1.66861	1.23298	4.4475	69.19	-0.2496	-0.0353	0.2143	1001.9745	0.125103	-437.90058	-437.89308	-437.892136	-437.932946	28.538	
O	-0.0184561883	-0.1007266027	-0.1960481908	-0.253693
C	 0.0746548299	 1.0342363863	 0.2024273612	 0.057145
C	 1.3221818929	 1.8459573249	 0.0894007317	 0.080195
C	 2.7100021035	 1.265807882	-0.3217003618	-0.249403
C	 3.0100817851	 2.7660948661	-0.5687219113	-0.01243
C	 1.5461485478	 2.8962794727	-1.0841910974	-0.269159
N	 2.9244860779	 3.2789996487	 0.8191113322	-0.326421
C	 1.7044139616	 2.7785145898	 1.2637507961	 0.407207
O	 1.0951541009	 3.0430395238	 2.2682441379	-0.371156
H	-0.7839459201	 1.5588323623	 0.6724334398	 0.098201
H	 3.2971690465	 0.7596524588	 0.4457201133	 0.121657
H	 2.6452763702	 0.6710440807	-1.2332754776	 0.12689
H	 3.8782315696	 3.1252374666	-1.1171618013	 0.093607
H	 1.3728509405	 2.4520717498	-2.0664098383	 0.126196
H	 1.0587823898	 3.8702843966	-0.9974325168	 0.116789
H	 3.1824141722	 4.2273084937	 1.0522878132	 0.254374
