18
gdb 109186	4.42964	0.9657	0.80483	2.9311	77.62	-0.2212	0.0142	0.2354	1421.2976	0.147273	-435.29174	-435.28217	-435.281226	-435.327013	33.099	
C	-0.0289118112	 1.3497615314	-0.0078183385	-0.237631
O	 0.0280352828	-0.0818462392	 0.043180042	-0.266262
C	 0.6601349051	-0.5806179222	 1.1027884	 0.51464
N	 1.2094000505	 0.0610962278	 2.0584154201	-0.377286
C	 1.7560544672	-0.9678255394	 2.9533506217	-0.262504
C	 1.4154909003	-2.3196765044	 2.3241755586	 0.40972
N	 0.7215771147	-1.9659725613	 1.1637215956	-0.429888
N	 1.7073985735	-3.4657027367	 2.7742877674	-0.323955
C	 1.2775590274	-4.6209827995	 2.003183086	-0.339117
H	 0.979158956	 1.7709110491	-0.0351276413	 0.146368
H	-0.5725898823	 1.5898064974	-0.9214637352	 0.134144
H	-0.5512584276	 1.7421782552	 0.8682004183	 0.146563
H	 2.8400639614	-0.8548643122	 3.0658516734	 0.137751
H	 1.3214995345	-0.8870709552	 3.9559646438	 0.137741
H	 0.3405912657	-2.5883010074	 0.4731720569	 0.268458
H	 1.7202743026	-4.6390925314	 0.9943912576	 0.107009
H	 1.5869016589	-5.5367445637	 2.5126936309	 0.127688
H	 0.1829062306	-4.6625836482	 1.8845157225	 0.106561
