20
gdb 23131	1.85537	1.57275	0.95597	1.026	78.31	-0.2482	0.0021	0.2503	1274.8802	0.170334	-440.252006	-440.242693	-440.241749	-440.286337	34.382	
C	-0.1273502462	 1.5184244359	 0.2015669055	-0.386264
C	-0.0100018462	 0.0040276887	 0.0243895083	-0.177353
C	 0.7289009546	-0.4205069417	-1.2648030604	-0.091558
C	 0.8408921447	-1.9539690033	-1.3864763417	-0.10255
O	-0.3813507593	-2.3776478454	-1.9856698353	-0.256765
C	-0.7206619681	-1.416860122	-2.9739770233	-0.150813
C	-0.066801964	-0.1299270652	-2.5194464124	 0.360331
N	-0.1101191748	 1.0075357189	-3.0848052249	-0.222215
O	-0.9267356834	 0.9559873059	-4.2332389862	-0.395448
H	 0.8619781215	 1.9835844119	 0.2758014235	 0.112416
H	-0.6431218936	 1.9787215727	-0.645209833	 0.136461
H	-0.6801344371	 1.7612493142	 1.1143376023	 0.110202
H	 0.5322893983	-0.4252120938	 0.8764190771	 0.096223
H	-1.0039935224	-0.4591214024	 0.0285049004	 0.110352
H	 1.707658656	 0.0670060457	-1.3011565488	 0.092129
H	 1.699938502	-2.2348920062	-2.0167889725	 0.091949
H	 0.9324792264	-2.4621841618	-0.42326939	 0.110824
H	-0.3394905598	-1.6968564776	-3.969554993	 0.118879
H	-1.8098137884	-1.3403691576	-3.0461225383	 0.135499
H	-0.8582864601	 1.853919603	-4.5742504973	 0.3077
