16
gdb 121726	5.0986	0.6929	0.63338	4.2868	64.84	-0.2693	-0.024	0.2454	1687.669	0.122629	-512.210406	-512.200721	-512.199777	-512.246948	32.527	
O	-0.0559333636	 1.4875527134	-0.1410411509	-0.414804
C	 0.0216185345	 0.0770282333	-0.0972329331	-0.072125
C	-1.3390283011	-0.5723032507	 0.0725373566	-0.073704
O	-2.1021186613	-0.2336690395	-1.1063683417	-0.297008
C	-3.3750952207	-0.7009382463	-1.1212343262	 0.553264
O	-3.885713261	-1.3531884803	-0.2575686028	-0.347546
N	-3.9633759232	-0.2876877524	-2.3172278738	-0.396258
C	-5.262060585	-0.5448752394	-2.7441045015	 0.1667
O	-6.1006610874	-1.1606373701	-2.149564552	-0.248973
H	-0.6547979718	 1.7126307399	-0.8608445663	 0.287517
H	 0.5119603389	-0.3322038954	-0.9945323137	 0.098308
H	 0.642804412	-0.1793313914	 0.7668892102	 0.123148
H	-1.2631713169	-1.6608311324	 0.157153067	 0.127743
H	-1.8563658497	-0.1858586594	 0.9548392836	 0.138444
H	-3.3714339662	 0.2464207853	-2.9358368744	 0.264283
H	-5.4251492476	-0.0885977845	-3.7411977209	 0.09101
