21
gdb 104766	2.57857	1.22383	0.96634	3.2079	80.29	-0.2567	-0.0413	0.2154	1303.5687	0.179321	-424.222502	-424.212235	-424.211291	-424.257987	36.884	
C	 0.9295245603	-0.1847027539	-0.8368469173	-0.374164
C	 0.0414113437	-0.54359557	 0.3618088361	-0.26878
C	-1.4469057588	-0.6109520848	 0.0108424048	 0.393803
C	-2.3190790512	 0.5435448211	 0.4810003079	-0.247449
C	-1.9352535677	 1.8893996751	-0.1480609341	-0.385089
O	-1.7591677453	-1.0822956372	-1.2986783683	-0.257947
C	-2.1341606415	-1.9271415128	-0.2173864658	-0.099367
C	-1.414494058	-3.2259883789	-0.0692238495	 0.136851
O	-0.3430846948	-3.4829987528	-0.5589192558	-0.254952
H	 1.9773172866	-0.1325206993	-0.5268362355	 0.110159
H	 0.8334693244	-0.9478982521	-1.6110402342	 0.151212
H	 0.6569160958	 0.7808903484	-1.2730488189	 0.11521
H	 0.3791854674	-1.5013381177	 0.7647298445	 0.121352
H	 0.165948234	 0.19383845	 1.1624823003	 0.096562
H	-3.3621344819	 0.3160934017	 0.2370243014	 0.10431
H	-2.2522862355	 0.6079957966	 1.5743806599	 0.104199
H	-0.9206239069	 2.1939380431	 0.1256556714	 0.1251
H	-1.9909084644	 1.8342528766	-1.2392150017	 0.136172
H	-2.6180439723	 2.6756726784	 0.1869083554	 0.1173
H	-3.2058255985	-1.9804292878	-0.0162714287	 0.0962
H	-1.9519001353	-3.9616724435	 0.5714654381	 0.079317
