19
gdb 17570	3.44246	2.30308	1.89627	1.5718	74.31	-0.2261	0.092	0.3181	799.8894	0.16785	-327.875144	-327.868666	-327.867722	-327.905153	27.447	
C	-0.0350734913	 1.5291007835	 0.0594343876	-0.503844
C	 0.0421249869	 0.020465791	 0.0800774786	 0.326948
C	 0.854161571	-0.8213581496	-0.9812912805	-0.238256
C	 0.6762903097	-1.9224599467	 0.1045886046	 0.006322
C	 0.8640620944	-0.7762422039	 1.1339889812	-0.28543
N	-0.7938268208	-2.185356083	-0.0470548423	-0.109931
C	-1.6469115708	-1.7429939371	 1.071243189	-0.258778
C	-1.2751114649	-0.776851994	 0.0057390705	-0.055459
H	 0.962942063	 1.9778218699	 0.0294126081	 0.114841
H	-0.5870948596	 1.8841226767	-0.8186661624	 0.117246
H	-0.5486820505	 1.911059068	 0.9489088802	 0.11941
H	 0.3824504966	-1.0113567544	-1.9487123277	 0.10001
H	 1.8850010671	-0.480562264	-1.1056691995	 0.091324
H	 1.2641848459	-2.8390290102	 0.1276647553	 0.070794
H	 1.9025320437	-0.4402805278	 1.1615460499	 0.097339
H	 0.497214142	-0.8733511425	 2.1566424069	 0.092442
H	-2.6420989327	-2.1786231311	 1.0362532939	 0.114177
H	-1.2462768627	-1.6552237458	 2.0744294527	 0.114105
H	-2.008519477	-0.4720860289	-0.7381074061	 0.08674
