21
gdb 62656	2.57237	1.59799	1.44042	1.2056	82.77	-0.2508	0.076	0.3268	1050.5617	0.181024	-387.026471	-387.017761	-387.016817	-387.058868	34.857	
C	-0.1556826855	 1.5756145083	-0.0369356009	-0.475669
C	-0.0295202999	 0.059602594	-0.0084142237	 0.368666
O	-1.2843411732	-0.5589334599	-0.2498433757	-0.489418
C	 1.1960422867	-0.6043078518	-0.6745571091	-0.112637
C	 2.1186908182	-0.2872154328	 0.5528686958	-0.099664
C	 2.5900160116	-1.7499461591	 0.6616541341	-0.283844
C	 1.104904628	-1.8537061322	 0.2667539642	-0.081731
C	 0.7047168807	-0.619748349	 1.1660884403	 0.340091
C	 0.3062397865	-0.6426479515	 2.6157954549	-0.534848
H	 0.7923667065	 2.069702444	 0.1928532805	 0.120324
H	-0.4712270689	 1.9188991737	-1.0308842965	 0.104248
H	-0.9072482239	 1.9110020537	 0.6849011984	 0.123885
H	-1.6581978584	-0.1798652631	-1.0520889111	 0.273561
H	 1.5026509959	-0.6088343128	-1.7228352744	 0.058387
H	 2.69078234	 0.6283252342	 0.7120528383	 0.065036
H	 3.3213313081	-2.0851512611	-0.081030188	 0.088187
H	 2.868402653	-2.1106723496	 1.6573497893	 0.089667
H	 0.4943936294	-2.7387708275	 0.0953193574	 0.077532
H	 1.0045890945	-1.2404656857	 3.2115525317	 0.119072
H	 0.2866174241	 0.367969934	 3.0393246494	 0.116455
H	-0.6933747532	-1.0741889759	 2.7319935251	 0.132699
