17
gdb 6645	7.16505	0.80999	0.73773	1.8012	72.18	-0.2683	0.0298	0.2981	1488.7223	0.139658	-363.839594	-363.830308	-363.829364	-363.874311	32.359	
C	-0.0079333562	 1.443841501	-0.1761855036	-0.441566
C	-0.0138875976	-0.0317147357	 0.1034495105	 0.40865
N	-0.0422341481	-0.4926873401	 1.2839466476	-0.517354
O	 0.0154214651	-0.725299751	-1.0720578464	-0.238936
C	 0.0150425676	-2.1455833705	-1.0138966471	-0.08249
C	 0.050394916	-2.6496185888	-2.4598843893	-0.356268
C	 0.0531203929	-4.1046625466	-2.5253527463	 0.282674
C	 0.0544929254	-5.3059188574	-2.5476352847	-0.439211
H	 0.887082527	 1.7181358115	-0.7432520011	 0.138431
H	-0.8742404036	 1.7169768247	-0.7867190099	 0.138412
H	-0.0314688862	 1.9929336447	 0.7637810707	 0.148612
H	-0.0421471487	-1.5109758548	 1.3148540688	 0.218143
H	 0.8910639509	-2.5082341046	-0.4615173716	 0.124242
H	-0.8861584403	-2.5095280541	-0.5045379717	 0.12424
H	-0.8159235383	-2.2449628272	-2.9960814161	 0.145504
H	 0.9409853608	-2.2436021155	-2.9536086194	 0.1455
H	 0.0556704132	-6.3672727455	-2.5829779506	 0.201416
