16
gdb 128796	3.42338	1.00982	0.78751	2.8043	67.57	-0.2525	0.0012	0.2536	1392.2299	0.123583	-475.001981	-474.993318	-474.992374	-475.036503	30.484	
C	 0.0033280899	 1.3973882881	 0.0449828545	-0.224905
O	 0.0174535594	-0.0111830518	 0.0260457069	-0.238562
C	 0.6317566536	-0.5349164177	-1.1286070362	-0.179827
C	 0.5940577269	-2.0240625531	-1.0483107443	 0.044209
C	 0.0818933779	-2.8232649523	-0.0795024378	 0.025626
O	 0.2471565986	-4.121299208	-0.3824338382	-0.178641
N	 0.9012255875	-4.2157663474	-1.6127528033	-0.255725
C	 1.0946360142	-2.9745115577	-1.9844664502	 0.38123
O	 1.7063025822	-2.6550640616	-3.1375150784	-0.419177
H	 1.0220327199	 1.8150723783	 0.0261416998	 0.109399
H	-0.5539906761	 1.8105298995	-0.8101701136	 0.109394
H	-0.4885939093	 1.7050216058	 0.9703300085	 0.132039
H	 0.1145555328	-0.1861747521	-2.0398713748	 0.108667
H	 1.6744853906	-0.1810615171	-1.2123369212	 0.108665
H	-0.4140285381	-2.6067084777	 0.8525271731	 0.164443
H	 1.9452956099	-3.4794261154	-3.5821775347	 0.313164
