16
gdb 106658	2.7282	1.30669	1.05134	2.361	65.79	-0.2488	-0.0026	0.2462	1144.3613	0.123566	-475.006642	-474.997984	-474.99704	-475.040249	31.958	
N	-0.113871691	 1.4607370123	 0.0962036835	-0.597595
C	-0.0744222247	 0.0540743494	-0.0159847157	 0.039566
C	-0.3038322581	-0.8468747439	 1.211802894	-0.356394
C	-1.1812701687	-0.9933840605	 0.0261082325	 0.413813
C	-2.6662275678	-0.9252904698	-0.0985491801	-0.174584
O	-3.3072907808	-2.1146973773	 0.3287435649	-0.405214
O	-0.4678699756	-1.8161028185	-0.9534075985	-0.311752
C	 0.4980263417	-0.8226369288	-1.1122964415	 0.412409
O	 1.3586969195	-0.7751734804	-1.9289592804	-0.328581
H	 0.7182030415	 1.8223408194	 0.5503837948	 0.249311
H	-0.1930357174	 1.9075469201	-0.8109750365	 0.249095
H	 0.40333006	-1.6297662151	 1.4644049119	 0.135503
H	-0.7254507955	-0.2987007951	 2.0490714026	 0.14141
H	-3.0362250909	-0.120801258	 0.5442290159	 0.131631
H	-2.9278123052	-0.6755698723	-1.1375097345	 0.105869
H	-3.012476577	-2.8258301316	-0.2506432731	 0.295513
