16
gdb 49419	4.72831	1.34226	1.20779	2.2787	73.62	-0.2282	-0.0378	0.1904	1008.8607	0.124879	-400.663601	-400.656777	-400.655833	-400.695093	26.746	
O	-0.641685472	 0.5114414438	 0.6169713572	-0.245438
C	 0.1555399461	 0.8819286778	-0.209268437	 0.131746
C	 1.2547478602	 1.8803110835	 0.0467121952	-0.04985
C	 1.4968688417	 2.4730663151	 1.4380587103	-0.074509
C	 2.0969387551	 1.0955119647	 1.8671356307	-0.038176
C	 3.3031347541	 1.3447907155	 2.744341752	-0.085371
C	 3.8880745678	 2.3944188592	 2.1645643953	-0.097226
C	 2.9789046903	 2.6807822542	 0.9915564256	-0.028561
N	 2.6346254061	 1.2717395834	 0.400499724	-0.171104
H	 0.1233796585	 0.4925239419	-1.2517490085	 0.086756
H	 1.3354865558	 2.5574788861	-0.8133710263	 0.083409
H	 0.8600736125	 3.1467096227	 2.0221950793	 0.076553
H	 1.456833195	 0.2346113379	 2.0398922942	 0.100229
H	 3.6010361042	 0.7641255405	 3.6050839675	 0.117538
H	 4.7995353727	 2.9175614158	 2.4138848943	 0.117205
H	 3.2432732618	 3.4393426478	 0.2537326362	 0.076797
