19
gdb 40760	2.85159	1.28958	0.99952	1.8007	75.66	-0.2293	0.0761	0.3055	1213.3094	0.158347	-422.961356	-422.952928	-422.951984	-422.995382	31.405	
C	 0.2467544961	 1.467160651	 0.0578311449	-0.188921
O	 1.2889810016	 0.4903437237	 0.0611973171	-0.241114
C	-0.0672941836	 0.0328664471	 0.0291608266	 0.089274
C	-0.5466258593	-0.7088712668	 1.244117515	-0.171302
C	-2.0345967134	-1.1372780841	 1.2460204571	-0.095809
O	-1.6841297504	-2.5376079619	 1.2535922608	-0.306211
C	-0.2901591452	-2.2178573346	 1.2675572459	 0.463115
C	 0.7189555529	-3.0326277178	 0.5282317838	-0.341267
C	 0.6935415079	-3.0156782345	 2.0528643523	-0.335307
H	 0.1264610069	 2.0247447052	 0.9861723567	 0.114047
H	 0.1619057935	 2.0588314617	-0.8524685606	 0.117671
H	-0.3619492535	-0.4054366171	-0.92605013	 0.099485
H	-0.2217785721	-0.1889406152	 2.148650638	 0.087387
H	-2.6063335295	-0.8522250804	 2.1359536941	 0.107393
H	-2.6039925844	-0.8640192492	 0.3488165769	 0.102604
H	 0.3599254887	-3.9290218223	 0.0339983536	 0.123561
H	 1.5268993083	-2.5178112089	 0.0188557315	 0.13254
H	 1.4861796597	-2.4935015859	 2.579185882	 0.119608
H	 0.3156483856	-3.9003860201	 2.5542238143	 0.123246
