17
gdb 40478	3.84198	1.32732	1.2041	1.2514	72.22	-0.2318	0.0557	0.2874	1052.7956	0.136931	-417.853343	-417.846278	-417.845334	-417.885186	27.803	
C	-0.431378966	 1.0588257348	-0.5141455926	-0.235893
N	 0.6204001056	 1.5234629025	 0.4078722925	-0.323603
C	 0.3933588934	 0.0751930882	 0.2318312257	-0.213467
C	-0.1429623565	-0.6261346419	 1.4218384727	 0.389898
N	-1.2447665105	-0.0841708478	 2.2807992901	-0.384516
C	-0.9028175515	-1.3827963413	 2.9475710959	-0.08067
C	-0.6658864244	-2.0920262524	 1.5835185566	 0.05247
O	 0.6292931989	-2.6480384909	 1.948691321	-0.333664
C	 0.6195620303	-1.3440086745	 2.5998289964	 0.025245
H	-1.4439436838	 1.2561549812	-0.1772254608	 0.138822
H	-0.2697849257	 1.1519592729	-1.5846268915	 0.114079
H	 1.4428037897	 1.8097210162	-0.116705043	 0.235202
H	 1.1302652663	-0.4972049471	-0.3277176299	 0.098635
H	-0.8946780622	 0.7063587247	 2.8264330091	 0.222728
H	-1.4025244176	-1.7590631924	 3.8397826692	 0.093133
H	-1.3417994216	-2.675056261	 0.9598053284	 0.103888
H	 1.4867842155	-1.0370572513	 3.1863990202	 0.097713
