21
gdb 73005	2.69572	1.51506	1.21445	1.3963	82.96	-0.219	0.079	0.298	1124.5736	0.182404	-387.044518	-387.035914	-387.03497	-387.077648	33.097	
C	 0.1326286942	 1.5198958652	 0.1087330324	-0.500843
C	-0.0099437509	 0.0267284205	 0.0722032187	 0.254649
C	-0.8328754694	-0.7668952035	-0.9530486584	-0.286844
C	-1.2499963493	-1.7826953132	 0.1605321161	-0.230425
C	-0.4179105764	-0.9992185333	 1.1765353443	-0.189528
C	 0.9928505888	-0.8873006352	 0.7020732816	 0.438468
C	 1.9956177864	-1.8978618197	 0.1416601421	-0.368219
C	 2.9794315594	-1.210399814	 1.1112106726	-0.077684
O	 1.9544357488	-0.3113601557	 1.5953115149	-0.322485
H	 0.7562065246	 1.8259611741	 0.9527061145	 0.139233
H	 0.6108545894	 1.8866326349	-0.8086100322	 0.113322
H	-0.8401899353	 2.0172599505	 0.1941335885	 0.111913
H	-1.6853365223	-0.1991737299	-1.3348079646	 0.104403
H	-0.2785649773	-1.1690309714	-1.8089852227	 0.089928
H	-2.321501146	-1.7497097662	 0.3685902325	 0.105705
H	-0.962079655	-2.8288053043	 0.0064484728	 0.093035
H	-0.6537551537	-0.8332061098	 2.2220764516	 0.088436
H	 1.7776812017	-2.9445282228	 0.363720886	 0.113639
H	 2.2292597121	-1.7940325514	-0.9198715396	 0.11221
H	 3.3754580185	-1.8392244407	 1.9162846429	 0.105986
H	 3.8053975517	-0.6646686641	 0.6409332459	 0.105099
