19
gdb 55920	3.82963	0.99418	0.93242	3.3464	75.85	-0.2386	-0.0095	0.2291	1314.1855	0.157522	-423.001606	-422.99281	-422.991866	-423.035985	32.558	
C	-0.1133322065	 0.9499612772	 0.789576808	-0.482975
C	-0.0229639279	 0.0666918827	-0.4360123094	 0.391192
O	 0.9525972287	 0.0280001658	-1.1495947866	-0.307529
C	-1.2275851613	-0.8373015136	-0.7106251325	-0.313479
C	-1.0092149573	-2.2081474601	-0.0750825866	 0.143438
O	-0.8938236974	-2.1701089941	 1.3826481251	-0.307283
C	-1.8675848173	-3.2130529027	 1.4955756435	 0.115115
C	-3.1983671022	-2.7540654249	 0.9994527003	-0.299429
C	-2.1473668012	-3.2245713618	 0.0111076277	-0.15684
H	 0.8287776674	 1.4757118067	 0.9486922264	 0.1366
H	-0.9256785998	 1.6767820039	 0.6691911746	 0.133428
H	-0.3632171298	 0.3303944735	 1.6576437925	 0.163681
H	-2.1522735751	-0.3925091399	-0.3319030804	 0.10235
H	-1.3081452022	-0.9738535257	-1.793529938	 0.125497
H	-0.0991243724	-2.6590185752	-0.488525866	 0.104822
H	-1.6853584912	-4.0000322952	 2.2173639447	 0.109934
H	-4.0165921117	-3.4542388408	 1.1369743601	 0.11965
H	-3.4727773489	-1.7067488425	 1.0844003381	 0.116649
H	-2.3055054739	-4.0469853636	-0.6726043014	 0.105178
