18
gdb 105422	2.03423	1.52763	1.09362	3.2926	68.17	-0.2507	0.0191	0.2699	1146.8688	0.146581	-476.212048	-476.202661	-476.201717	-476.246828	33.22	
O	-0.3759153262	 1.5196834695	-0.6610567085	-0.43759
C	-0.0904172776	 0.1998035096	-0.2165029115	-0.126353
C	-1.4299118914	-0.4640890421	 0.0815740198	 0.277576
C	-2.2425635129	-0.7824388414	-1.193296951	-0.115986
O	-1.8571343091	-2.1685729446	-1.1292089428	-0.277097
C	-1.3426574286	-1.998458548	 0.2119164585	-0.109912
N	-2.1548666534	 0.2358614845	 1.1275664522	-0.324953
C	-1.8340343757	 0.0854821452	 2.4410011084	 0.143123
O	-1.0485092276	-0.7353422736	 2.8707895485	-0.328226
H	 0.4554543039	 1.979868799	-0.8059125232	 0.294963
H	 0.433392038	-0.3830789017	-0.9886624721	 0.10142
H	 0.5209361827	 0.1976985561	 0.6963818779	 0.118119
H	-3.3255058932	-0.6477093209	-1.0666080125	 0.094899
H	-1.9143230393	-0.2936953103	-2.1156831931	 0.117251
H	-0.3435513536	-2.4267483608	 0.335400986	 0.114215
H	-2.0141821525	-2.4128722039	 0.9697331141	 0.118672
H	-2.6406555564	 1.0788750705	 0.8595926181	 0.255631
H	-2.396687557	 0.783506153	 3.0916972412	 0.084248
