22
gdb 86242	2.20157	1.31274	0.87912	4.2333	84.14	-0.235	0.0307	0.2657	1374.1091	0.194737	-404.401016	-404.391484	-404.39054	-404.435654	35.373	
C	-0.1994884328	 1.5072620164	-0.0157845806	-0.409755
C	 0.125005536	 0.0192578421	 0.0801571891	 0.016075
C	 0.7829788728	-0.5811813567	-1.1743698403	-0.228345
C	 1.4295433961	-1.8951705776	-0.6944395489	 0.039228
C	 2.6943284341	-2.2718819216	-1.4672838203	-0.39813
N	 1.6788329877	-1.6268092028	 0.7364919144	-0.050802
C	 1.1405805293	-0.3394158011	 1.1760858838	-0.165926
C	 2.1062930558	-2.5565792691	 1.6250524934	 0.136203
O	 2.2161104216	-2.3791809635	 2.8231851989	-0.345464
H	 0.7042831954	 2.0939045807	-0.2166226052	 0.117413
H	-0.9130261654	 1.7050530445	-0.8220731374	 0.117578
H	-0.6389128762	 1.8792436541	 0.9154499363	 0.121968
H	-0.7999983079	-0.5365096977	 0.28359406	 0.082496
H	 0.080917954	-0.7459012643	-1.9959406664	 0.105541
H	 1.5640049358	 0.0982816531	-1.5402251322	 0.10137
H	 0.7020685475	-2.7143676115	-0.7860346315	 0.086985
H	 3.4515417262	-1.4873753729	-1.3713741469	 0.123971
H	 3.1268931765	-3.2089521506	-1.1052930827	 0.124307
H	 2.46132129	-2.40121645	-2.5295184122	 0.119777
H	 1.9350730829	 0.4182578425	 1.2361979293	 0.105315
H	 0.7101529097	-0.4435549468	 2.1744584291	 0.134412
H	 2.3514981106	-3.522109817	 1.1385838106	 0.065782
