15
gdb 3309	5.17914	2.24554	2.09502	2.7354	60.65	-0.2393	-0.0184	0.2209	674.8847	0.125221	-308.495275	-308.488933	-308.487989	-308.525721	23.516	
O	-0.7759238655	 0.9930560575	-0.3051266238	-0.250916
C	 0.2291674071	 0.9698842746	 0.3619979115	 0.152274
C	 1.3882385454	 1.9152761193	 0.2111232272	-0.082899
C	 1.325471992	 3.0251525433	-0.8814452136	-0.253182
C	 1.4084065741	 4.0911711194	 0.2206319084	-0.031013
C	 0.2694103705	 3.9381307554	 1.1856019134	-0.275048
C	 1.4518402899	 3.0133489115	 1.3057533774	-0.073133
H	 0.340443736	 0.2400538476	 1.1988228235	 0.070665
H	 2.3189215931	 1.3393831541	 0.179321881	 0.09164
H	 2.2004471295	 3.0043188172	-1.5336551943	 0.105969
H	 0.4195390991	 3.0311262727	-1.4922270349	 0.121883
H	 1.9904700095	 5.0024510666	 0.1634304239	 0.089654
H	 0.2086129314	 4.6964354719	 1.9594210455	 0.114328
H	-0.6938407912	 3.5662482822	 0.8456643837	 0.128709
H	 2.0571252292	 2.9596519268	 2.2018814911	 0.091069
