18
gdb 53092	4.8697	0.82289	0.72524	1.3135	87.04	-0.2362	-0.0107	0.2255	1588.5564	0.147902	-401.94335	-401.934256	-401.933311	-401.979312	31.991	
C	-0.1029637617	 1.4465900606	 0.042799878	-0.509563
C	-0.0199501988	-0.0039250068	 0.00787253	 0.304007
C	 0.0586270699	-1.2052938737	-0.0204781314	-0.065756
C	 0.1494093623	-2.6351058751	-0.0518959023	 0.17256
N	 1.2685734736	-3.2237417515	 0.0852512464	-0.320805
C	 1.3008906511	-4.6808548738	 0.1109188516	-0.155692
C	-0.0633301437	-5.3155497166	 0.3951210804	-0.233309
C	-1.1012155359	-4.6102453438	-0.466206678	-0.073743
O	-1.0836295384	-3.1956781165	-0.2356803434	-0.258421
H	 0.5098197257	 1.8935342721	-0.7477733277	 0.156486
H	-1.1336947152	 1.7892310384	-0.0969724711	 0.154148
H	 0.2551959776	 1.8384202714	 1.001126925	 0.156132
H	 1.6937933748	-5.0346859378	-0.852933863	 0.112364
H	 2.0364668013	-4.985396067	 0.8639373819	 0.113088
H	-0.0596749241	-6.3892489251	 0.1813063232	 0.102708
H	-0.3252416054	-5.1880207917	 1.4514745134	 0.116988
H	-0.908212314	-4.7927617459	-1.5322624911	 0.111413
H	-2.121787939	-4.9302937573	-0.2435187318	 0.117394
