19
gdb 89249	2.56068	1.80481	1.3593	2.8738	73.64	-0.2443	0.0645	0.3087	999.7127	0.158954	-422.96625	-422.958473	-422.957529	-422.99794	31.65	
C	-0.0053064358	 1.5508744643	-0.0149517472	-0.49669
C	-0.0062821506	 0.0400735532	 0.0310559489	 0.322274
C	-1.3305569708	-0.7290207548	 0.3090655492	-0.335355
C	-0.6360584958	-1.5229213079	 1.469636158	 0.157009
O	-0.641425482	-2.9215901104	 1.4214645692	-0.44096
C	 0.7064972406	-0.7684951986	 1.1767184334	-0.157721
C	 1.6299984754	-1.394188033	 0.1103337246	 0.016348
O	 0.8065394603	-2.0813405808	-0.8525988173	-0.260651
C	 0.9549269153	-0.6579865978	-0.9736103728	-0.03004
H	 1.0150555956	 1.9510962199	-0.0398893928	 0.117421
H	-0.5280227924	 1.9191937337	-0.9062191269	 0.121143
H	-0.5071574144	 1.9717057242	 0.8625496107	 0.121381
H	-2.1475725609	-0.0831977519	 0.6424080809	 0.098203
H	-1.6882134701	-1.3600459875	-0.5075171353	 0.10472
H	-1.0378818978	-1.2494798917	 2.449067239	 0.087443
H	-0.3201745986	-3.156720674	 0.5414946615	 0.293587
H	 1.2194094298	-0.2657352448	 1.9976862049	 0.068852
H	 2.6487192984	-1.7511101124	 0.2089921307	 0.110407
H	 1.3155720238	-0.2929523097	-1.9301624787	 0.102628
