16
gdb 72009	2.76087	1.64608	1.19675	3.854	70.41	-0.2359	-0.0249	0.2109	1012.8647	0.123701	-437.806798	-437.799208	-437.798264	-437.838789	29.265	
O	-0.1429190979	 1.3395610948	 0.1210362298	-0.450829
C	 0.018577573	-0.0245907227	 0.0950700545	 0.31113
C	 1.1256605581	-0.9067269045	 0.6502149785	-0.235453
N	 0.5227949399	-2.0569798675	-0.1406884892	-0.165109
C	-0.7857764307	-2.277954633	 0.6060760561	-0.236625
C	-1.255076495	-0.9252847793	 0.115172976	 0.200053
C	-2.6082256038	-0.3656581422	 0.031177603	 0.04639
O	-3.5849967059	-0.9193234782	 0.4832101332	-0.272182
C	-0.2033534081	-1.007325556	-1.0011089231	-0.160766
H	 0.5545458134	 1.7437736098	-0.4077616489	 0.297468
H	 2.1068211812	-0.6573865805	 0.2352841669	 0.111317
H	 1.2043016869	-1.0767949275	 1.728331829	 0.114185
H	-1.3368573966	-3.1038420596	 0.1520058991	 0.127644
H	-0.6708255027	-2.4537858559	 1.6798457284	 0.112415
H	-2.6820595675	 0.6118357014	-0.4914786841	 0.080702
H	-0.2838928445	-0.9930060091	-2.0787524493	 0.119658
