18
gdb 17855	4.86696	1.56368	1.47878	2.0734	71.25	-0.2401	0.0735	0.3137	911.508	0.155	-347.74465	-347.737703	-347.736759	-347.775893	26.74	
C	-0.064449599	 1.4601419267	-0.1216979908	-0.232598
C	 1.4996053846	 1.5095016355	-0.0624528787	-0.232605
C	 1.5287050015	-0.0147241062	 0.1069616481	-0.127555
C	-0.0102582138	-0.063309136	 0.048575904	-0.127563
C	 0.8213670945	-0.6761523106	-1.0299079419	 0.318775
C	 0.8708170579	-0.4304611652	-2.5377981997	-0.146183
O	 0.9250859602	-1.854357643	-2.7831686237	-0.277284
C	 0.8813660397	-2.1625664033	-1.3740613012	-0.156888
H	-0.5230440217	 1.9685320655	 0.7288328751	 0.107266
H	-0.5395593837	 1.8249880431	-1.0384789974	 0.098396
H	 2.01874168	 1.9056895276	-0.9415809212	 0.0984
H	 1.859675987	 2.0437526533	 0.8190768992	 0.107261
H	 2.2105716568	-0.5691009998	 0.7425660076	 0.08519
H	-0.7020023847	-0.6610600367	 0.6320591364	 0.08519
H	-0.022333279	 0.0275085732	-2.9831751643	 0.10024
H	 1.7644876348	 0.0839275971	-2.9153836873	 0.100238
H	 1.7807971266	-2.699055733	-1.0426580455	 0.099861
H	-0.0049735517	-2.7554478583	-1.1103983888	 0.09986
