15
gdb 5531	3.31831	1.81698	1.26003	0.505	63.85	-0.211	0.0054	0.2163	949.8829	0.119366	-399.839536	-399.831933	-399.830989	-399.871935	27.43	
C	-0.2963329288	 1.6022909765	-0.1092474258	-0.371627
C	 0.0402921884	 0.1065318812	 0.0228646148	-0.303333
C	 0.8198775062	-0.4371269053	-1.1178932159	 0.246018
C	 2.0622358568	-0.9657815243	-1.2750600049	 0.24022
O	 3.0022286677	-1.1569806644	-0.3260831308	-0.432294
N	 2.2821190931	-1.3128028754	-2.5932546962	-0.337754
C	 1.1764574433	-0.9843848594	-3.1852270517	 0.07108
O	 0.2446975173	-0.4524880269	-2.3791559927	-0.179933
H	 0.6153714382	 2.2039771481	-0.1699001606	 0.123641
H	-0.8848737309	 1.7901129471	-1.0118784152	 0.128242
H	-0.8773761648	 1.9445622921	 0.7523832351	 0.114446
H	 0.63240059	-0.0680547603	 0.9270537453	 0.129086
H	-0.8896486592	-0.4649702879	 0.1445208898	 0.116536
H	 3.7623819153	-1.5555760967	-0.7659544623	 0.305722
H	 0.9252366273	-1.0885046841	-4.228872819	 0.14995
