18
gdb 32726	3.10278	0.99698	0.79619	1.8351	74.86	-0.2288	0.009	0.2379	1420.9184	0.14734	-439.121848	-439.112595	-439.111651	-439.156934	32.519	
C	-0.2828490871	 1.5515133224	 0.3273521626	-0.493756
C	-0.0533688154	 0.0987930732	 0.0769832404	 0.166831
C	 0.1026640298	-0.5712670845	-1.0958601438	 0.255966
C	 0.1238911203	-0.1993714074	-2.5341689815	-0.302994
C	 1.4976542654	-0.3836348962	-3.1869535271	-0.066586
O	 1.3686658171	-0.0010137546	-4.545730405	-0.417899
O	 0.2862802791	-1.9035865459	-0.7882122251	-0.183827
C	 0.226659553	-1.9509906103	 0.5596710617	 0.059969
N	 0.028743509	-0.81287423	 1.1331249496	-0.303469
H	 0.5247437107	 1.9754468913	 0.9336660898	 0.138712
H	-0.3390484705	 2.1142668359	-0.6077053487	 0.124216
H	-1.2157785929	 1.7081315492	 0.8789584023	 0.140164
H	-0.6046145376	-0.7965113577	-3.0957782181	 0.128607
H	-0.1761757794	 0.8475326805	-2.636657087	 0.125875
H	 2.2397809035	 0.2351071165	-2.6586901341	 0.092399
H	 1.811235675	-1.4335709363	-3.0886539379	 0.101521
H	 2.217201907	-0.1318719968	-4.9785098686	 0.288814
H	 0.3472891229	-2.9207051494	 1.0172669705	 0.145457
