19
gdb 75016	3.21428	1.44204	1.24676	1.4191	75.43	-0.219	0.06	0.2791	1066.3721	0.16323	-419.258231	-419.250719	-419.249775	-419.290224	30.068	
N	-0.1602375205	 1.3848236345	-0.0356279756	-0.576668
C	-0.1411178005	 0.0150806174	-0.0518910265	 0.461185
N	-1.1087211702	-0.763921785	 0.2350483693	-0.353927
C	-0.6335704557	-2.1267857615	-0.0234976583	-0.003321
C	-1.3679653076	-2.802597055	-1.2035549472	-0.202836
C	-0.5588286004	-2.3923223664	-2.4455338127	-0.214643
C	 0.8986206749	-2.463784467	-1.954332792	-0.219792
C	 0.8473697373	-1.944073074	-0.5114094975	 0.084894
O	 1.0436685976	-0.5083228193	-0.4675165172	-0.267664
H	 0.7366081981	 1.8237904296	 0.1046603458	 0.260609
H	-0.9116808336	 1.7745830443	 0.5116501125	 0.26628
H	-0.7160678453	-2.7236916267	 0.8906984692	 0.070653
H	-1.3385327051	-3.8926386978	-1.0821285916	 0.088528
H	-2.4156320434	-2.4966343764	-1.2395771957	 0.10986
H	-0.7463230061	-3.0317336234	-3.3122121011	 0.093393
H	-0.8094534234	-1.3660465311	-2.7353907188	 0.115501
H	 1.2384802322	-3.506650695	-1.9392448217	 0.098491
H	 1.6067549374	-1.8942762669	-2.5615550967	 0.107718
H	 1.6078509943	-2.3890945101	 0.1342250859	 0.081738
