16
gdb 86534	3.12617	1.09203	0.84897	3.4597	68.62	-0.2449	-0.0716	0.1734	1296.5481	0.122481	-475.029347	-475.020261	-475.019317	-475.064334	31.351	
O	 0.2324086706	 1.4213672654	-0.2503575057	-0.423263
C	-0.1403132786	 0.0989642499	 0.035304525	 0.09371
C	 0.082732479	-0.3988868488	 1.5015183948	-0.19983
N	-1.3652473496	-0.5585796519	 1.6163356432	-0.084752
C	-1.6657059961	-0.0193144248	 0.2815302099	-0.171667
C	-2.0717667364	-1.0163196261	 2.6658288628	 0.280192
O	-1.5759856609	-1.400361893	 3.7152092684	-0.366286
C	-3.5905440632	-1.0536669596	 2.5003778439	 0.095115
O	-4.1931344795	-0.7050395134	 1.5183124361	-0.244818
H	 1.1811035837	 1.4470428714	-0.4108684558	 0.291675
H	 0.236328249	-0.6031591541	-0.7175204326	 0.086244
H	 0.6419361086	-1.3303500262	 1.6335715487	 0.124968
H	 0.4888632013	 0.3704239034	 2.1671568415	 0.128054
H	-2.1659363269	 0.9528223301	 0.2988101663	 0.140717
H	-2.2192831421	-0.6998406743	-0.3680598835	 0.133226
H	-4.0837140289	-1.4475738881	 3.412558017	 0.116715
