17
gdb 95677	2.99565	1.33463	1.03058	1.7704	72.36	-0.2468	-0.0648	0.182	1138.2028	0.136667	-458.970658	-458.962588	-458.961644	-459.00373	30.459	
O	 0.3268369358	 0.8337937442	 0.9599752503	-0.426148
C	 0.0453808333	-0.2675410442	 0.100034793	 0.07528
C	-1.4598942815	-0.4401543945	-0.0595378847	-0.125989
O	-2.0101842659	 0.7138506343	-0.6744438387	-0.249578
C	-2.2136830896	 0.5874259031	-2.0606791151	-0.186057
C	-0.9842362168	 0.3927616056	-2.9573529412	 0.315786
O	-1.1607809413	 0.4161620632	-4.1599429485	-0.315792
C	 0.3866068026	 0.2130630315	-2.4208799071	-0.146166
C	 0.8142578702	-0.0768901687	-1.1847870731	-0.061923
H	-0.1436164524	 1.5867607169	 0.5785256058	 0.290487
H	 0.4449648739	-1.1493869625	 0.6172373971	 0.096331
H	-1.7018673637	-1.348947366	-0.6283881244	 0.101599
H	-1.9064908506	-0.5224485454	 0.9365903438	 0.12274
H	-2.903301434	-0.2420807437	-2.2849768073	 0.12687
H	-2.7018224858	 1.5079115956	-2.3941573175	 0.146528
H	 1.125503281	 0.3149750322	-3.2123310161	 0.116742
H	 1.8909502248	-0.1467874616	-1.0411376863	 0.119289
