13
gdb 28546	3.17845	1.45908	1.00002	1.3993	66.04	-0.2112	-0.0361	0.1752	1070.8619	0.090679	-489.953469	-489.946293	-489.945348	-489.984911	28.058	
O	 0.0578327721	 1.3101683564	-0.037894489	-0.421351
C	 0.0701624312	-0.0407684577	-0.0365236103	 0.391087
C	 0.0238455209	-0.7439609573	-1.2319753981	-0.118408
N	 0.0363792397	-2.0847957374	-1.2243446739	-0.318055
C	 0.092937307	-2.7117507632	-0.0709545129	 0.341213
O	 0.106983773	-4.0626114071	-0.0308168718	-0.414663
C	 0.1397527458	-1.9867622667	 1.1404993955	 0.343874
O	 0.197201446	-2.6524874603	 2.3067793374	-0.40146
N	 0.127871582	-0.6676064125	 1.143098317	-0.428326
H	 0.0959488303	 1.5899536274	 0.8857332963	 0.299648
H	-0.0228889069	-0.2341906545	-2.1866850305	 0.124388
H	 0.0690372713	-4.3568629091	-0.951144119	 0.300266
H	 0.2219393577	-1.9845652481	 3.0058797991	 0.301786
