22
gdb 63906	2.90726	1.34944	1.22108	1.4919	87.2	-0.2331	0.0161	0.2492	1155.6934	0.195503	-367.205216	-367.196645	-367.195701	-367.237749	34.697	
C	 0.128912947	 1.51462014	-0.0118645088	-0.423902
C	-0.0698705356	-0.011171944	 0.0019800983	 0.230912
C	-1.5822379131	-0.3257570459	 0.0604926267	-0.405052
C	 0.5569768704	-0.6145049134	-1.2821365631	-0.227108
C	 0.7474161578	-2.1252355263	-1.2135108506	-0.055296
N	 2.1251511677	-2.5871633345	-0.9283390625	-0.340248
C	 1.0654550216	-2.7294151772	 0.1035218686	-0.069013
C	 1.1263394412	-1.8237794037	 1.2784014198	-0.071465
C	 0.6034505988	-0.5987817252	 1.2314717835	-0.061582
H	 1.1923460423	 1.7749432	-0.0029668324	 0.117507
H	-0.319317903	 1.9574595422	-0.9083127454	 0.108802
H	-0.3402557663	 1.9819079932	 0.8612622841	 0.107708
H	-2.1101364401	 0.1496413966	-0.7745984245	 0.106089
H	-1.7609698171	-1.4040466447	 0.0118317779	 0.115911
H	-2.0259063822	 0.0428782074	 0.991543846	 0.110105
H	-0.0635927413	-0.3487373333	-2.1459404271	 0.087249
H	 1.5404427187	-0.1608396575	-1.4398710118	 0.110937
H	 0.1621550553	-2.7229535916	-1.9076251981	 0.08102
H	 2.27822876	-3.4913361569	-1.3707751917	 0.224825
H	 0.71271795	-3.7396866143	 0.3034746699	 0.084112
H	 1.5962248145	-2.1936391835	 2.1861854762	 0.086752
H	 0.6314423933	 0.0357249828	 2.1154770751	 0.08174
