16
gdb 34153	2.79325	1.67283	1.36093	4.7965	72.81	-0.2547	-0.0073	0.2474	965.9966	0.125991	-400.704875	-400.698059	-400.697114	-400.736142	27.015	
N	-0.0447140942	-1.1157019605	 0.1154931177	-0.343413
C	-0.044467508	 0.0400579924	 0.0875541967	 0.164979
C	-0.0137819067	 1.477716553	-0.0008449968	 0.35547
O	-0.6203197717	 2.2861608675	 1.0586293425	-0.337368
C	-0.0852654072	 3.2551611283	 0.0844507323	 0.02121
C	 1.2266554209	 2.4312916443	-0.0764221133	-0.068402
C	 1.7199822812	 2.5108280648	-1.5141051499	-0.254019
C	 0.3582608342	 2.4928091807	-2.2799635339	-0.254019
C	-0.612394903	 2.4069626442	-1.1107374691	-0.068412
H	-0.2197740127	 4.3136995542	 0.2987095947	 0.108002
H	 1.9262347552	 2.4061747803	 0.7572996757	 0.099742
H	 2.2935636545	 3.4241044226	-1.6964184927	 0.114743
H	 2.3597109831	 1.663375675	-1.7752828115	 0.123502
H	 0.1978770733	 3.3963767655	-2.8750679742	 0.114744
H	 0.2663097227	 1.635677805	-2.9526552332	 0.123502
H	-1.6874554616	 2.3583699827	-1.2751064351	 0.09974
