18
gdb 47577	2.69062	1.64469	1.22348	4.913	71.79	-0.2468	0.0515	0.2983	1038.1715	0.150349	-439.103706	-439.095989	-439.095045	-439.136267	29.762	
O	 0.0836431375	-0.0076255829	-0.6369212353	-0.378922
C	 0.0009164691	 1.099583454	-0.1632015236	 0.439448
N	-1.2006423963	 1.7624315084	-0.0998341377	-0.35552
C	-1.5904835928	 3.1581254143	 0.0855044344	-0.16197
C	-0.4490041737	 4.1633686151	 0.2068601209	-0.227774
C	 0.5047544344	 3.9125955333	 1.3599292207	-0.052962
C	 0.2118246926	 2.8477577876	 2.4117612181	-0.34223
C	 1.253013124	 2.6184630226	 1.3564903889	 0.136955
O	 1.1331245905	 1.7051208161	 0.2901435445	-0.245454
H	-1.924600483	 1.1664264594	-0.4716319684	 0.256823
H	-2.2128241504	 3.4467702476	-0.7701888555	 0.11507
H	-2.2267189968	 3.2411652186	 0.9778026296	 0.114244
H	 0.1191998426	 4.1909831172	-0.731288144	 0.12314
H	-0.914141	 5.1482838086	 0.3221923358	 0.112842
H	 1.0551013196	 4.7884667159	 1.6903682311	 0.093085
H	 0.564291818	 3.0120703976	 3.4239578114	 0.119537
H	-0.7188024021	 2.2986026295	 2.3514746567	 0.138744
H	 2.2930856768	 2.614858667	 1.6606019725	 0.114943
