16
gdb 129470	4.28147	1.00957	0.87932	5.4227	71.11	-0.2276	0.0048	0.2325	1274.7587	0.126681	-434.127033	-434.11884	-434.117895	-434.16122	30.124	
N	 0.4837582389	 0.1375751599	-0.7601282292	-0.507892
C	-0.2677046939	 0.2281965538	 0.3686972854	 0.38132
O	-0.1518042911	 1.1193048795	 1.1873743765	-0.362593
C	-1.3555855753	-0.8553400252	 0.5091009207	-0.401856
C	-0.9470612396	-2.2581263349	 0.1663476059	 0.336416
N	-0.5693761798	-2.5849407135	-1.072534648	-0.307194
N	-0.2639405579	-3.8954168391	-1.0053189579	-0.176846
C	-0.445985022	-4.4161792314	 0.2294743611	-0.015641
C	-0.8877486249	-3.3802218377	 1.0243849559	-0.277789
H	 1.2330140387	 0.7985537036	-0.8808331988	 0.253777
H	 0.4302542024	-0.6828966596	-1.3459295556	 0.270875
H	-1.7047888449	-0.8041596839	 1.5406275397	 0.133448
H	-2.1898040859	-0.5478258994	-0.1337785316	 0.141769
H	 0.0391257019	-4.3701164822	-1.8385082393	 0.27869
H	-0.2549756524	-5.456562405	 0.4395901858	 0.140394
H	-1.1329897743	-3.4209355249	 2.0730525192	 0.113119
