18
gdb 23566	3.0241	1.49634	1.31834	1.2046	78.87	-0.2402	0.0208	0.261	1022.7547	0.149286	-401.861083	-401.853924	-401.85298	-401.892463	29.491	
O	-0.1060685217	 1.3696641109	-0.1157285349	-0.402395
N	 0.0531422128	-0.0371553185	-0.0651670925	-0.324012
C	-1.0597216785	-0.6152412987	 0.0787370031	 0.483452
C	-2.5432647167	-0.2884609905	 0.068157133	-0.133246
C	-2.6089084692	-1.5342353498	-0.9031381515	-0.230892
C	-1.4591559507	-2.0741309706	 0.0384540083	-0.12151
C	-2.2385228365	-2.2392626104	 1.3622645002	-0.038958
C	-2.0110457543	-1.2331727744	 2.4646244047	-0.304253
C	-3.0246589887	-0.9360493616	 1.3852989844	-0.03518
H	 0.8030656992	 1.6654245432	-0.231615884	 0.303676
H	-2.9166228903	 0.6952473619	-0.2031725433	 0.09024
H	-3.5440074433	-2.1007879914	-0.9024377103	 0.099251
H	-2.2746848175	-1.3150570518	-1.9197304493	 0.111482
H	-0.7651321143	-2.8551003545	-0.264236576	 0.08147
H	-2.6942536323	-3.1975467851	 1.5806487126	 0.091203
H	-2.4146048834	-1.4929636654	 3.4382780599	 0.107606
H	-1.0815805979	-0.6744558978	 2.5034972043	 0.130735
H	-4.0804967867	-0.8982458155	 1.6252495414	 0.091334
