14
gdb 27925	2.47851	1.42208	0.90873	3.6532	68.26	-0.2394	-0.0495	0.1898	1191.7485	0.10027	-473.877686	-473.869579	-473.868635	-473.910627	29.032	
C	 0.1131577178	 1.4862668473	-0.0048697659	-0.4952
C	-0.0539897792	 0.014206338	-0.032392417	 0.296252
C	-1.0995686952	-0.8602624805	 0.0562873423	 0.064139
C	-2.5124793249	-0.5254530435	 0.2241261433	 0.077302
O	-3.4147379807	-1.3255715066	 0.3000767044	-0.264554
N	-0.6205810738	-2.1759423333	-0.0381509095	-0.411869
C	 0.6468789937	-2.0154437299	-0.173983733	 0.469874
O	 1.6017185803	-2.9267093947	-0.308746966	-0.394167
O	 1.0894930143	-0.7371474838	-0.1830676365	-0.196683
H	 0.7638406082	 1.7927578904	 0.8216616835	 0.154827
H	 0.5683323752	 1.8478468555	-0.9336235101	 0.154826
H	-0.8538577659	 1.9762089697	 0.1182823206	 0.152638
H	-2.708032854	 0.568979197	 0.2796070676	 0.063181
H	 1.1690511142	-3.7906527955	-0.2872460538	 0.329434
