19
gdb 82577	3.19703	1.46856	1.2463	3.1677	74.73	-0.2414	0.0643	0.3058	1055.6902	0.159816	-422.974762	-422.966903	-422.965959	-423.00729	30.883	
O	-0.1555321581	 1.469293243	 0.1983346509	-0.443588
C	-0.153489654	 0.0841844017	 0.0178597479	 0.135465
C	-0.3626463742	-0.8881190568	 1.1411601119	-0.102808
C	-1.3663483461	-0.3005504822	 2.1381978557	-0.306176
C	-2.4019430711	-0.1693802176	 0.9862019485	 0.449198
C	-3.8322914931	-0.7307685035	 1.0963792435	-0.365535
C	-4.2833320188	 0.6864523327	 0.690670167	-0.074806
O	-2.9190425922	 1.1571829803	 0.6851358709	-0.327326
C	-1.4008016686	-0.7473564988	-0.006144098	-0.198463
H	-1.0680063789	 1.7794717136	 0.1314970896	 0.30349
H	 0.5982046175	-0.230517936	-0.7037263834	 0.095497
H	 0.3154474891	-1.7091126798	 1.3383810108	 0.088344
H	-1.6960989949	-1.0069780903	 2.9039474234	 0.101558
H	-1.0721683163	 0.6423143495	 2.606073845	 0.116375
H	-4.0772471795	-1.5285729	 0.3929149632	 0.114846
H	-4.120946112	-1.036759995	 2.1037315487	 0.115058
H	-4.7471134679	 0.7674701231	-0.2994004639	 0.107654
H	-4.8972149285	 1.2289117146	 1.41803029	 0.10962
H	-1.6507162925	-1.4120699884	-0.8262124016	 0.081598
