19
gdb 31135	1.92649	1.70627	0.9681	2.0046	79.38	-0.1709	0.0478	0.2187	1236.0938	0.159257	-419.233287	-419.223334	-419.222389	-419.268624	36.072	
C	 0.017618265	 1.5448425281	 0.2238360224	-0.36532
C	-0.0121131245	 0.0156593021	 0.038473287	-0.325525
C	 0.6757940151	-0.4709052479	-1.2011275872	 0.163086
C	 0.1074581829	-0.7989769503	-2.3980167304	 0.266366
N	-1.2182238948	-0.8063936976	-2.8283193718	-0.601202
O	 1.0250606786	-1.2514031962	-3.2799718709	-0.183635
C	 2.2509636294	-1.2118466385	-2.6372051964	-0.126299
C	 2.0859027274	-0.7399750992	-1.3730657326	 0.136689
N	 3.0393683851	-0.6279266233	-0.3482333234	-0.608825
H	 1.0449100431	 1.9235651944	 0.2675314082	 0.107991
H	-0.4760713221	 2.0539043308	-0.6107714845	 0.109192
H	-0.4874579652	 1.8417576126	 1.1491454092	 0.110377
H	 0.4502555925	-0.4587797042	 0.9135277378	 0.110574
H	-1.0548690282	-0.3240060034	 0.0247690697	 0.106008
H	-1.6891927819	 0.0782111861	-2.6875601894	 0.252952
H	-1.2846048042	-1.0790034472	-3.8007353715	 0.251015
H	 3.0905089703	-1.5785241973	-3.201037748	 0.113604
H	 3.9893692011	-0.6964505572	-0.6902339838	 0.24021
H	 2.9422418805	 0.2297267282	 0.1811436056	 0.242741
