23
gdb 57186	2.26461	1.20639	1.08968	1.3633	81.77	-0.2417	-0.0128	0.2288	1299.2103	0.201001	-425.458388	-425.44692	-425.445976	-425.494608	42.199	
C	 0.0207290107	 1.5378994625	 0.0308120637	-0.420754
C	-0.0325660844	-0.0041223918	 0.1132735854	-0.072186
C	 0.7932211868	-0.4488295055	 1.3216722379	 0.380216
C	 2.2760011293	-0.6611870647	 1.0681861107	-0.477248
O	 0.3188708255	-0.6048330573	 2.4259367548	-0.312233
C	-1.4795897169	-0.5647176941	 0.0703450281	 0.357268
C	-1.4632309735	-2.0980776002	 0.1668986403	-0.430109
C	-2.4109735887	 0.0330597805	 1.1321935369	-0.435692
O	-1.9324345362	-0.1854962439	-1.2409201135	-0.472382
H	 1.0436173709	 1.8886113966	-0.136362209	 0.112443
H	-0.5984322085	 1.8754575039	-0.8021334916	 0.145302
H	-0.3434320437	 1.9986798835	 0.9530709825	 0.131238
H	 0.4577433852	-0.392372218	-0.7880091534	 0.085737
H	 2.7056964142	 0.1663988191	 0.4948149055	 0.138118
H	 2.8045152423	-0.7788022112	 2.0149403495	 0.139957
H	 2.410562565	-1.5667609887	 0.4640288634	 0.144432
H	-1.1140588142	-2.4345778187	 1.1461930972	 0.135891
H	-2.4739105043	-2.4945976591	 0.0172123124	 0.100651
H	-0.8192311677	-2.5229738002	-0.609571463	 0.112073
H	-2.5200049703	 1.1112312558	 0.9919193365	 0.116808
H	-3.4068815269	-0.4189473117	 1.0463914571	 0.094563
H	-2.0286308536	-0.1580146724	 2.1358862336	 0.152044
H	-2.8616121511	-0.4295394544	-1.3073457652	 0.273865
