16
gdb 35051	2.60858	1.50898	1.49585	4.7518	74.37	-0.2552	-0.0084	0.2467	977.9404	0.125807	-400.745217	-400.737763	-400.736819	-400.777425	28.248	
N	-0.1014994008	-1.1687912696	 0.0585427746	-0.34118
C	-0.0557506033	-0.0130942904	 0.0470209143	 0.316206
C	-0.0190713402	 1.4190332901	 0.011066507	-0.243532
C	 0.5272412073	 2.1864484953	 1.2159765656	 0.087403
O	 0.959262451	 1.4358637045	 2.2996581938	-0.250508
C	 2.3710929568	 1.3224170835	 2.4739578013	-0.122029
C	 3.1222331331	 1.0723507298	 1.1945708148	-0.063891
C	 2.6221927853	 1.4365018784	 0.0164175064	-0.079838
C	 1.3308317171	 2.1625991393	-0.0419773988	-0.123921
H	-0.8420686999	 1.8768814965	-0.5280043842	 0.133667
H	-0.0096267834	 3.0915797023	 1.4924179564	 0.109171
H	 2.7668680528	 2.2206109978	 2.9773992432	 0.112404
H	 2.5026312567	 0.483684027	 3.1638805224	 0.135017
H	 4.0864204739	 0.5804163258	 1.2762234327	 0.109617
H	 3.1431320082	 1.2342839514	-0.9135702992	 0.107382
H	 1.3121568655	 3.0535982982	-0.6626896206	 0.114032
