15
gdb 74698	3.18664	1.44486	1.4407	2.5503	66.62	-0.2181	-0.0278	0.1903	957.9374	0.114327	-453.95129	-453.944148	-453.943204	-453.982688	28.142	
N	 0.047814154	 1.2965070973	-0.0941307232	-0.572763
C	-0.0430313964	-0.0683527778	-0.0310432499	 0.470241
N	-1.1537714667	-0.6980583772	 0.0384357398	-0.342974
C	-1.0288188757	-2.166790432	-0.0372688556	-0.107872
C	 0.0276144928	-2.5362545683	-1.1269953541	-0.268126
C	 1.1055052762	-2.0858221957	-0.1015304835	-0.010794
O	 1.1942878047	-0.6444649387	-0.1024005696	-0.270503
C	 0.0674828822	-2.5413452101	 0.9689819234	 0.424126
O	 0.1411723272	-3.0836700639	 2.0306118338	-0.310566
H	 0.9076181395	 1.6937495887	 0.2511529463	 0.265291
H	-0.7936530329	 1.7765068953	 0.1840949864	 0.270521
H	-2.0076744971	-2.6424011828	-0.0171384979	 0.094698
H	 0.0844881257	-3.6094312458	-1.3230126872	 0.124172
H	-0.0207873424	-1.967373513	-2.057144571	 0.125981
H	 2.1230527586	-2.471177256	-0.1148031877	 0.108569
