15
gdb 123887	4.64898	1.23263	1.01388	4.4737	76.29	-0.2336	-0.0576	0.176	1119.1694	0.114858	-412.969797	-412.96272	-412.961776	-413.00188	26.115	
C	-0.1533153087	 1.2417283773	-0.4077540242	-0.236401
C	 1.2698489599	 1.0419782475	 0.0155722427	-0.215925
N	 0.2990749715	-0.0217417712	 0.1572705071	-0.117378
C	-0.106631335	-0.4979959459	 1.3867514251	 0.354998
C	-1.4573615936	-0.8355595075	 1.6245861913	-0.028615
N	-1.852895223	-1.353758081	 2.7707834257	-0.167024
N	-0.9430178669	-1.5751945177	 3.7308094843	-0.202502
C	 0.3146073992	-1.2439168216	 3.4617991935	 0.104234
N	 0.7979342831	-0.7034617931	 2.3368702213	-0.303766
H	-0.7787952663	 1.8755170331	 0.2164947026	 0.13692
H	-0.4212708259	 1.2179958905	-1.4595643182	 0.137232
H	 2.0384032319	 0.878455309	-0.7333277821	 0.136424
H	 1.6046665076	 1.5281755648	 0.9272933677	 0.144145
H	-2.2199115427	-0.6780747779	 0.8675840464	 0.124761
H	 1.0290826688	-1.4311817763	 4.2592067167	 0.132895
