18
gdb 15698	3.48522	1.67804	1.20406	3.759	67.47	-0.248	-0.0286	0.2194	999.9987	0.154807	-384.977171	-384.969481	-384.968537	-385.009383	29.066	
O	-0.0685864019	 1.4875578042	-0.1832369796	-0.426657
C	 0.031984919	 0.0825895356	-0.1558997201	-0.071924
C	-1.3346149899	-0.5915710128	 0.0306438366	-0.102197
C	-1.3689314072	-2.1283037002	 0.0095559206	-0.24026
C	-2.6422801927	-2.4921081039	 0.8065983017	-0.219088
C	-2.6802876952	-1.4576847144	 1.943804543	-0.309893
C	-1.9709667208	-0.2291295422	 1.3760682228	 0.411347
O	-1.889250764	 0.8521318813	 1.9153445284	-0.340959
H	-0.556672359	 1.7347660246	 0.6156609506	 0.295258
H	 0.4719432388	-0.2277653787	-1.1102330662	 0.105615
H	 0.7122035411	-0.2651624097	 0.641541478	 0.082041
H	-2.0098730772	-0.1937198422	-0.7419950363	 0.113107
H	-1.3697642458	-2.540895622	-1.0020555616	 0.10938
H	-0.4822126977	-2.5241727833	 0.5221774513	 0.105861
H	-3.5238709319	-2.376616572	 0.1659123661	 0.110426
H	-2.6358841972	-3.5234771385	 1.1664138657	 0.107803
H	-3.6757604638	-1.202806028	 2.3156185177	 0.132953
H	-2.0959907745	-1.7941656977	 2.8106627014	 0.137188
