21
gdb 108021	3.77904	1.36964	1.25906	0.0668	84.2	-0.2152	0.0892	0.3045	1096.3299	0.184164	-349.91834	-349.910811	-349.909867	-349.950191	31.111	
C	 0.1488155666	 1.4493140642	 0.2234945445	-0.377102
C	-0.1114643664	-0.0123290218	-0.1644214347	-0.288504
C	 0.6433205928	-0.4655808511	-1.3934011267	 0.348294
C	 0.419786575	 0.1657181681	-2.7607702267	-0.293192
C	 1.395147021	-0.6578154456	-3.5765881359	-0.074367
C	 2.5925952875	-1.056572405	-2.732623145	-0.088312
C	 1.4996343668	-2.0661139727	-3.0210765241	-0.091369
C	 0.9943026696	-1.9363231904	-1.5636140731	-0.138472
C	 2.0893262563	-0.9268280275	-1.2737849623	-0.120318
H	 1.214892219	 1.6250711277	 0.401089437	 0.116554
H	-0.173926359	 2.1362598182	-0.5652935698	 0.117811
H	-0.3938198799	 1.714751302	 1.1361939692	 0.108841
H	 0.1590481952	-0.6625617591	 0.6771957749	 0.094293
H	-1.1877297226	-0.1604778155	-0.325929126	 0.095631
H	-0.6160701465	 0.0478066013	-3.102011237	 0.093214
H	 0.6678878111	 1.2332547051	-2.7737539113	 0.096467
H	 1.5301520267	-0.4983049931	-4.6399705699	 0.080244
H	 3.6192666039	-1.0317150383	-3.0710949031	 0.081594
H	 1.5272453669	-2.9645966338	-3.6220642877	 0.081905
H	 0.6017067867	-2.7264895308	-0.9373811937	 0.078375
H	 2.6948602092	-0.8033787822	-0.3855992987	 0.078413
