14
gdb 31188	1.99483	1.73475	0.94753	4.9504	66.56	-0.2505	-0.0547	0.1959	1145.3587	0.100914	-473.851572	-473.843559	-473.842614	-473.884933	28.163	
O	 0.3689868223	 0.9941052988	-0.6800853389	-0.390883
C	-0.0310348256	 0.0674848511	 0.308804733	-0.173441
C	-1.3942336406	-0.5031119129	 0.0611063911	 0.255392
C	-2.1792794073	-0.73126754	-1.039242219	 0.056887
C	-1.8676838246	-0.4608280565	-2.4523135119	 0.061243
O	-2.6125392797	-0.708151455	-3.370493143	-0.25771
N	-3.3832066503	-1.3036029624	-0.6200325999	-0.274614
C	-3.2671461849	-1.3930089058	 0.6551451197	 0.068929
O	-2.0872899292	-0.9230125808	 1.1548624747	-0.176671
H	-0.238318764	 1.7418427697	-0.6547470596	 0.293871
H	 0.7207694772	-0.7303333505	 0.2889499815	 0.150561
H	-0.0137143291	 0.4952695556	 1.3219185112	 0.12776
H	-0.8713216017	-0.0027680371	-2.6083922757	 0.095713
H	-3.9692882624	-1.7831385144	 1.3752842267	 0.162964
