17
gdb 10850	4.89116	1.46661	1.1822	2.3441	66.07	-0.2416	0.03	0.2716	1006.9863	0.142545	-401.017444	-401.009452	-401.008508	-401.049659	29.388	
C	-0.0187990091	 1.4697380864	 0.0598316103	-0.452544
C	 0.0264994765	-0.0241849867	-0.070672434	 0.40179
N	-0.0335385207	-0.6062188493	-1.1946219349	-0.312641
C	-0.0405384439	-2.063013133	-1.2530030198	-0.157746
C	-0.3819902011	-2.7263386879	 0.0778069847	 0.063013
O	-0.0171139529	-4.0941753209	-0.0007241351	-0.422724
C	 0.4028552636	-2.0073221826	 1.1737894555	-0.102108
O	 0.1317871495	-0.6039401427	 1.1642658711	-0.258702
H	 0.9035044932	 1.8394250232	 0.519472338	 0.136495
H	-0.1468248654	 1.9193857615	-0.9236468771	 0.144679
H	-0.8454000576	 1.7663534423	 0.713463149	 0.136992
H	-0.7508430887	-2.3748930957	-2.0258197501	 0.113942
H	 0.9448967858	-2.422535101	-1.5782511902	 0.1209
H	-1.4582568419	-2.6105329281	 0.2770401828	 0.080386
H	-0.3958812881	-4.5564809987	 0.7538130182	 0.287076
H	 0.1342493402	-2.3624831796	 2.1733704655	 0.104508
H	 1.4759699507	-2.1810423071	 1.0199917361	 0.116683
