20
gdb 9875	4.77296	0.98041	0.91249	0.8431	81.29	-0.2539	0.0591	0.313	1324.977	0.175113	-311.830363	-311.821216	-311.820272	-311.864148	34.285	
C	 0.0444057257	 1.581378069	 0.2661880046	-0.466032
C	-0.0173312171	 0.0785330489	 0.0603702801	 0.395216
C	-1.343560635	-0.4665720673	-0.4464696011	-0.258238
C	-1.7011332738	 0.0043226737	-1.8749803969	-0.357897
C	-2.9397093802	-0.5842201309	-2.3683473236	 0.297477
C	-3.9635659716	-1.0866484725	-2.7487391964	-0.441089
C	 1.243214975	-0.6241722576	-0.3911673366	-0.296375
C	 0.7542303252	-0.7854469369	 1.0295667072	-0.321517
H	 1.0144445555	 1.881565453	 0.6744718993	 0.113752
H	-0.0972984966	 2.131397331	-0.6709178195	 0.117443
H	-0.7292611751	 1.9155129412	 0.9678940644	 0.115881
H	-1.3151789247	-1.5615481016	-0.4426146701	 0.105221
H	-2.1523348573	-0.1752961509	 0.2352529492	 0.106432
H	-1.7879567419	 1.0973276239	-1.8977403072	 0.130646
H	-0.8768327671	-0.2490966068	-2.5539696604	 0.130986
H	-4.8665518296	-1.5226648225	-3.0972352427	 0.191487
H	 1.148032323	-1.4739211508	-1.0597557864	 0.109417
H	 2.1321451911	-0.0260355227	-0.5618149639	 0.108644
H	 1.3108955095	-0.2933388704	 1.8202591987	 0.108464
H	 0.328967805	-1.7415375299	 1.3164592416	 0.110084
