18
gdb 93437	2.968	1.37675	0.97209	2.0456	75.77	-0.2338	-0.0044	0.2293	1190.604	0.150318	-435.33381	-435.325422	-435.324477	-435.366851	31.916	
C	-0.2253704236	 1.5176138024	 0.0005460922	-0.398031
C	 0.0636129069	 0.0166520248	 0.0042712714	-0.106123
C	 0.8059084699	-0.4595625479	-1.2483889903	-0.18431
N	 1.1016525522	-1.877356721	-1.1225443686	-0.31483
C	 1.770771967	-2.3445398158	-0.0133514932	 0.434969
N	 2.4390358264	-3.4312275581	-0.0579539282	-0.565902
N	 1.6119643812	-1.5305963615	 1.120481167	-0.384805
C	 0.8345865987	-0.3924520543	 1.2569909377	 0.422432
O	 0.7828606863	 0.2017006033	 2.3120887553	-0.360371
H	 0.6981723153	 2.095769116	-0.1064516453	 0.125183
H	-0.8911859215	 1.7794667409	-0.8269261288	 0.113417
H	-0.6933414688	 1.8128805453	 0.9406104887	 0.148294
H	-0.8846892784	-0.5374248164	 0.0528327898	 0.12114
H	 0.1768484131	-0.3166393144	-2.1311287228	 0.119725
H	 1.7148056244	 0.1484930186	-1.3915236487	 0.108437
H	 1.3694313658	-2.3769079577	-1.957435969	 0.256418
H	 2.8058788902	-3.6886552911	 0.8552465553	 0.208629
H	 2.0940624449	-1.8152126531	 1.9615432876	 0.255728
