21
gdb 81036	2.45148	1.71035	1.28355	1.6612	77.53	-0.2366	0.0701	0.3067	1065.9745	0.183366	-424.216483	-424.20809	-424.207146	-424.248695	33.753	
C	-0.129564835	 1.4979317812	-0.0046525353	-0.425251
C	 0.0270160094	-0.0182123784	 0.0308387595	-0.009489
C	 1.1971938341	-0.6088480734	-0.8114170951	 0.115599
C	 2.1202237882	-0.4198851236	 0.4255785726	-0.342651
C	 0.804280099	-0.5950610323	 1.2480783786	 0.415594
O	 0.6126426796	 0.0938515221	 2.4553547498	-0.489304
C	 0.4809967376	-2.0966379613	 1.3365213244	-0.295928
C	 0.9674859657	-2.8124457212	 0.0540435278	-0.071826
O	 0.9420719377	-1.9780921078	-1.1000946965	-0.275303
H	 0.8180713535	 2.0233719532	 0.1434671021	 0.116867
H	-0.5403480338	 1.8142937963	-0.969500249	 0.112213
H	-0.8118754127	 1.8312896337	 0.7822915148	 0.130443
H	-0.9361038089	-0.5002344611	-0.1671325995	 0.065506
H	 1.4622064499	-0.1276347623	-1.7544958347	 0.077355
H	 2.946669627	-1.1188650363	 0.5751348917	 0.092926
H	 2.4957250817	 0.6021437859	 0.4885674531	 0.110231
H	 1.0951284617	-0.3649707945	 3.1516219822	 0.273771
H	 0.988684933	-2.5442488678	 2.201957851	 0.083799
H	-0.5964829478	-2.219132444	 1.4902832322	 0.110645
H	 1.9908744195	-3.1814868834	 0.2130395226	 0.09559
H	 0.3452431205	-3.6816153149	-0.1770470524	 0.109215
