18
gdb 117483	6.03393	0.54679	0.52509	2.7129	71.48	-0.2525	-0.033	0.2195	2023.4415	0.144481	-476.253267	-476.242618	-476.241674	-476.291564	35.406	
O	-0.1343557825	 1.3904282119	 0.3025364532	-0.42541
C	-0.0194085899	-0.0247991158	 0.30813752	-0.070088
C	-1.3574367322	-0.5773493505	-0.163166824	-0.31557
C	-1.3726293201	-2.0984322772	-0.1968683119	 0.422118
O	-0.4211810039	-2.7824371011	 0.1353030712	-0.36648
N	-2.5528299339	-2.6467831071	-0.6316115006	-0.334916
C	-2.7382757457	-4.0750850536	-0.7601813294	-0.243224
C	-3.7571955667	-4.6192763176	 0.2296505551	 0.152877
O	-4.5149598899	-5.5213690029	-0.0083091318	-0.229934
H	 0.7028212811	 1.7580239959	 0.5997074514	 0.289006
H	 0.7793085614	-0.3736625217	-0.3607933325	 0.106096
H	 0.2065730685	-0.4141852485	 1.3101966321	 0.106844
H	-2.1549274361	-0.2166502471	 0.4980244894	 0.132507
H	-1.5853950008	-0.1830933026	-1.1611443722	 0.130707
H	-3.2933196271	-2.0314246407	-0.9274954916	 0.253228
H	-3.0281488867	-4.3700701654	-1.7738887311	 0.132567
H	-1.7661656739	-4.5294071229	-0.5292229951	 0.175727
H	-3.7402859318	-4.1043921631	 1.2178830177	 0.083945
