19
gdb 53091	4.87092	0.77157	0.68412	1.5308	92.16	-0.2177	-0.0094	0.2083	1659.9166	0.159178	-385.880436	-385.871188	-385.870244	-385.916305	33.016	
C	-0.0904891866	 1.4897331226	 0.0040649612	-0.505427
C	-0.0061639897	 0.0376006691	-0.0076928129	 0.194029
C	 0.0821528615	-1.16672724	-0.0180025954	-0.11053
C	 0.1135654004	-2.5882248713	-0.0211792485	 0.157932
C	 1.2518802287	-3.2872967728	-0.1492644706	-0.168768
C	 1.2896374224	-4.7878206625	-0.1113202846	-0.118388
O	 0.0746852207	-5.3789783108	 0.3013850314	-0.244465
C	-1.0517901688	-4.7790342265	-0.3154770531	-0.091041
C	-1.2084362519	-3.3228370212	 0.1227918221	-0.303456
H	 0.5191046128	 1.918293559	 0.8078190532	 0.149963
H	 0.2635507201	 1.917116375	-0.9411727907	 0.14959
H	-1.121804855	 1.8276194158	 0.1541172347	 0.148833
H	 2.1998413578	-2.7761601352	-0.287671119	 0.093431
H	 1.5925901841	-5.1752120632	-1.1034115742	 0.097946
H	 2.0518970117	-5.1288680078	 0.6004565264	 0.120509
H	-0.9596298535	-4.8309352895	-1.413164442	 0.090212
H	-1.9179912819	-5.3780328774	-0.0210746714	 0.107246
H	-1.5502261951	-3.2727499545	 1.1641738866	 0.121518
H	-1.9757527179	-2.8283852586	-0.4836555331	 0.110867
