18
gdb 116581	4.17003	0.9531	0.90531	2.4142	76.28	-0.2504	0.0052	0.2556	1366.3801	0.147231	-439.046944	-439.038503	-439.037559	-439.081368	30.525	
C	-0.8359092576	 0.2494555792	-0.759339425	-0.361347
C	 0.1171935713	 0.3320500356	 0.4337285048	-0.152403
N	 0.364620577	-1.0029950686	 0.9736354801	-0.334238
C	 0.2130888224	-1.2221240754	 2.1911089995	 0.469788
O	-0.1355948902	-0.3585452851	 3.2424797101	-0.28588
C	-0.0084510451	-1.4243685583	 4.2207545867	 0.059895
C	-1.2996867741	-2.2303787958	 4.3949325097	-0.095514
O	-0.9484926506	-3.1003313139	 3.2876310319	-0.283969
C	 0.3190057439	-2.4330286656	 3.1003201645	-0.054391
H	-1.8153106908	-0.1276291242	-0.4495808412	 0.121546
H	-0.9752430594	 1.2382306617	-1.207538275	 0.109706
H	-0.4392126272	-0.4278487079	-1.520686202	 0.127274
H	 1.0825003211	 0.7316328272	 0.0977861747	 0.111494
H	-0.2757928163	 1.0232327963	 1.1904248597	 0.111354
H	 0.6081963495	-1.1374671703	 5.069675593	 0.10868
H	-1.3631543179	-2.7947300839	 5.3328051022	 0.114905
H	-2.2261891797	-1.6728482287	 4.2249486202	 0.124329
H	 1.1653994936	-3.1132705023	 3.010554676	 0.108771
