20
gdb 127068	2.47088	1.4836	1.00975	3.2359	83.1	-0.1931	0.0393	0.2324	1223.193	0.171599	-399.340036	-399.330515	-399.329571	-399.374405	34.758	
C	-0.1116259294	 1.587760336	 0.6017066928	-0.34525
N	-0.140083056	 0.2557431976	 0.0245766618	-0.152971
C	 0.9329842281	-0.6069009392	 0.5099664812	-0.339657
C	-1.3975163329	-0.341579976	-0.09753046	 0.355828
C	-1.8136594927	-1.4086020911	-0.8858075358	 0.111629
C	-0.9953911555	-2.2123675478	-1.8476281965	-0.51908
C	-3.194675157	-1.5140903381	-0.6080496811	-0.066929
N	-3.6252362511	-0.6017227764	 0.2561871961	-0.251653
N	-2.5065956486	 0.0939669861	 0.5670463565	-0.268546
H	 0.8771180287	 2.0273215466	 0.4403466629	 0.13044
H	-0.8508836271	 2.2243773846	 0.1077803718	 0.135281
H	-0.302913	 1.6020048913	 1.6910978466	 0.1011
H	 0.8655118732	-0.7992167653	 1.594422823	 0.107463
H	 0.9075161959	-1.5655493239	-0.0091985167	 0.140948
H	 1.8977307672	-0.1317818668	 0.3052839119	 0.121817
H	-0.4673919294	-3.0477012895	-1.368443063	 0.121196
H	-1.629628689	-2.6438294291	-2.6278733115	 0.123779
H	-0.2400110618	-1.58993032	-2.3397348408	 0.126883
H	-3.8964864927	-2.2191445456	-1.0325743784	 0.101494
H	-2.5729606299	 0.8562921269	 1.2180755591	 0.266229
