19
gdb 82062	2.82628	1.45909	1.26995	1.8461	74.39	-0.2473	0.0771	0.3245	1067.2931	0.159185	-422.970408	-422.962425	-422.96148	-423.003085	31.177	
O	 0.4410022272	 1.3456510529	 0.1719188871	-0.432623
C	 0.196038144	-0.0314570514	 0.1095105845	 0.03048
C	 0.1904597817	-0.7939172772	 1.4440351567	-0.016667
O	-0.8814161254	-0.2071992921	 2.2050010306	-0.265638
C	-1.2023631464	-1.2199685936	 1.233950125	-0.055589
C	-1.2907618833	-0.5142160882	-0.1203493961	 0.325923
C	-2.4565001474	 0.4563160865	-0.4137356866	-0.290116
C	-3.0406318936	-0.5856545811	-1.4086619476	-0.208975
C	-1.684248836	-1.3448475674	-1.3700569087	-0.305257
H	-0.0642789439	 1.6694900865	 0.9291345604	 0.291318
H	 0.877226052	-0.4549780378	-0.634348796	 0.089149
H	 1.0026522176	-1.2434932014	 2.0041486474	 0.105906
H	-1.7241725079	-2.0999896595	 1.5936106537	 0.105704
H	-3.0762304919	 0.7519923537	 0.4363734444	 0.104356
H	-2.0923461958	 1.3602520858	-0.9111746151	 0.113174
H	-3.8539212818	-1.1692706686	-0.9693354104	 0.103121
H	-3.3716389618	-0.2147391117	-2.3810710811	 0.101395
H	-1.0467648989	-1.1110427937	-2.2282289563	 0.106464
H	-1.7190793783	-2.4321322819	-1.2547306419	 0.097876
