22
gdb 76423	2.72167	1.03042	0.9384	4.0725	86.67	-0.2744	0.0336	0.308	1385.0787	0.192272	-367.229455	-367.21885	-367.217905	-367.264922	38.586	
C	-0.3079914762	 1.0235376593	-1.7094218825	-0.419744
C	-0.0888106458	-0.1411921914	-0.7669650667	-0.041213
C	 1.2857989624	-0.6322912905	-0.3471723226	-0.078894
C	 2.5790903356	-0.0041097035	-0.8228489329	-0.415776
C	 0.3670438365	 0.0201396361	 0.6719658533	 0.317934
C	 0.6811896873	 1.3849853386	 1.2555099658	-0.470792
C	-0.2642515259	-0.9331101102	 1.690019587	-0.40807
C	-1.5746503066	-0.4767568047	 2.1610157838	 0.272976
N	-2.6066334443	-0.1004985052	 2.5205973164	-0.317997
H	 0.4396201565	 1.8114188773	-1.5960111741	 0.116883
H	-0.2696901943	 0.6858564294	-2.750831847	 0.120714
H	-1.2914077371	 1.4762127357	-1.5441875134	 0.129707
H	-0.8207842518	-0.933097566	-0.9140412654	 0.084533
H	 1.3654475178	-1.7136754993	-0.250061591	 0.078699
H	 2.5069446596	 1.0775669569	-0.9538758909	 0.119095
H	 3.3912093958	-0.194381631	-0.1123921862	 0.119864
H	 2.8792436181	-0.4292220623	-1.7868622417	 0.122596
H	 1.1032828233	 2.0701874816	 0.5196237324	 0.121259
H	-0.2245933839	 1.8510337692	 1.6582715883	 0.141881
H	 1.4028193702	 1.2987785817	 2.0767065059	 0.116593
H	-0.3889675723	-1.9297761349	 1.2530068079	 0.144764
H	 0.3917047551	-1.051618707	 2.5621572636	 0.14499
