18
gdb 19065	4.99212	1.62225	1.61006	1.6033	70.61	-0.2355	0.0773	0.3128	864.1625	0.156218	-347.753152	-347.746756	-347.745812	-347.783225	26.811	
O	 0.0968005134	 1.3846094241	-0.0249713714	-0.447577
C	 0.0852324913	-0.0142511442	-0.0412351007	 0.119771
C	-0.3121498313	-0.7536378488	 1.2128220236	-0.095979
C	-1.2419406686	-0.7317507792	-0.0084922124	-0.095978
C	-1.3351350956	-2.2427125247	-0.2926405743	-0.040866
C	-1.5589557835	-2.7916788592	 1.1607241873	-0.205022
C	-0.0892130143	-2.2720396186	 1.3439129425	-0.040867
C	 0.1221437835	-2.7564919402	-0.1184816674	-0.233629
H	-0.6265817154	 1.6922948191	 0.5312927964	 0.281634
H	 0.9005398125	-0.3534890988	-0.668010835	 0.105035
H	-0.5191065467	-0.1739084657	 2.1074508324	 0.078926
H	-2.149224513	-0.1355340761	-0.0337723428	 0.078927
H	-1.9540578048	-2.5566966607	-1.133244305	 0.062087
H	-2.3417452967	-2.3247035018	 1.7650366874	 0.085931
H	-1.6380120826	-3.8816217258	 1.2013803847	 0.091553
H	 0.5506651557	-2.6156534306	 2.1567791736	 0.062087
H	 0.1653133745	-3.846311728	-0.1708770273	 0.096633
H	 0.9272064615	-2.3387113509	-0.7238961516	 0.097334
