15
gdb 11931	3.23715	1.87207	1.51734	5.1219	68.01	-0.2277	0.0084	0.2361	862.9417	0.120274	-358.80137	-358.794046	-358.793101	-358.832706	27.945	
N	-0.0738198098	 1.4648704631	-0.2354956922	-0.580579
C	-0.0292818929	 0.0652208367	-0.06778025	 0.236552
C	-0.3686834733	-0.8375122836	-1.2192282346	-0.328884
C	-1.1936895859	-0.9589362077	 0.0365366786	 0.210713
N	-0.427239633	-1.7937638876	 0.9936809307	-0.361521
C	 0.6454805502	-0.741594931	 1.0540809894	-0.219858
C	-2.6004550499	-0.7794517386	 0.1139422212	 0.189228
N	-3.7447656857	-0.628996483	 0.2150650772	-0.352635
H	-0.0522922107	 1.9646498611	 0.6459934508	 0.238841
H	 0.6765111114	 1.8072587849	-0.8259914487	 0.241732
H	-0.8573452959	-0.3256722769	-2.0408771358	 0.14387
H	 0.2639193114	-1.6801094092	-1.4841252681	 0.128552
H	-0.9162499178	-1.8553132767	 1.8814536446	 0.235724
H	 1.6542845103	-1.1238187354	 0.863146168	 0.111172
H	 0.6421979016	-0.1893039163	 2.000658609	 0.107095
