16
gdb 26701	2.26247	1.62782	0.9564	0.7302	68.64	-0.1703	0.0512	0.2214	1170.1116	0.12243	-475.042826	-475.033094	-475.03215	-475.077197	34.703	
C	 0.0503413313	 1.5719216276	 0.0675907659	-0.519738
C	 0.0314658155	 0.0776777193	 0.0237369081	 0.098037
C	 0.0134222845	-0.7279426628	-1.0672943675	 0.328892
O	 0.0183055143	-0.4223034167	-2.3796634429	-0.432844
O	 0.0127848015	-2.0425921833	-0.7479183569	-0.220212
C	 0.0304534335	-2.092534716	 0.6422976095	 0.257029
O	-0.0495664091	-3.3110100385	 1.2208517489	-0.4264
C	 0.0453522748	-0.8369268091	 1.1507702116	 0.051254
N	 0.1433353836	-0.4596963363	 2.5004247097	-0.616075
H	 0.9155292274	 1.9480476681	 0.626365634	 0.131005
H	 0.0971198152	 1.9849508471	-0.9431253282	 0.137411
H	-0.8469333802	 1.9845735135	 0.5478093653	 0.116141
H	-0.1077823478	-1.2389281956	-2.8759514383	 0.30536
H	 0.8133258151	-3.7452122824	 1.1970535735	 0.302706
H	-0.0684876441	-1.2370058513	 3.115005418	 0.244455
H	-0.4748822053	 0.3109389963	 2.7265851392	 0.242978
