17
gdb 1787	5.11709	1.77841	1.58367	2.0298	60.44	-0.2559	0.0833	0.3393	838.6633	0.146244	-346.840727	-346.832489	-346.831545	-346.872904	29.687	
C	 0.2446141204	 1.4104165309	-0.3064471042	-0.424447
C	 0.0965384712	-0.0328323902	 0.1020193856	 0.032912
O	 1.290778483	-0.8276438651	 0.1735685119	-0.308027
C	 0.5380515556	-0.6011995765	 1.388435414	 0.352729
C	 1.2366898699	 0.2058602971	 2.4588250645	-0.46532
C	-0.1193295166	-1.8802635149	 1.8784560261	-0.113914
O	 0.8512474764	-2.8046911634	 2.3403464265	-0.418072
H	 1.065433296	 1.9034096336	 0.2167741835	 0.128657
H	 0.4393964672	 1.4768989089	-1.3819381013	 0.131998
H	-0.6813443005	 1.9584875489	-0.1008462851	 0.123212
H	-0.7296042874	-0.5476766372	-0.3949409203	 0.082898
H	 0.505815016	 0.6769072701	 3.1254338444	 0.119891
H	 1.8602655658	-0.4607125583	 3.0615141633	 0.141117
H	 1.8728749232	 0.9811987222	 2.0304621523	 0.12661
H	-0.778973274	-1.6744078484	 2.7285323555	 0.108049
H	-0.7290040971	-2.3116127383	 1.0708190024	 0.088727
H	 1.458072211	-2.9450571094	 1.603584271	 0.292981
