11
gdb 20306	6.18977	1.63033	1.29044	2.6219	68.28	-0.2448	-0.0834	0.1614	852.5439	0.072888	-356.412569	-356.406345	-356.405401	-356.442996	22.771	
C	 0.0148006188	-1.1810646018	-0.0037422822	-0.363253
C	 0.0250495159	 0.0216867554	 0.0024904299	 0.264261
C	-0.011907834	 1.4442774624	 0.0105982762	 0.168802
C	-1.2333410324	 2.141931567	 0.0306345789	-0.04406
N	-1.2618957189	 3.4631601385	 0.0380626408	-0.222816
C	-0.058233122	 4.0476222571	 0.0250985364	 0.105561
N	 1.1262615951	 3.4359262568	 0.0060056681	-0.171831
N	 1.155483206	 2.111058992	-0.0014487699	-0.23485
H	 0.0228121528	-2.2436332224	-0.0094318877	 0.212886
H	-2.1794541321	 1.6070345628	 0.0404159869	 0.141965
H	-0.0282024093	 5.132853112	 0.0304811626	 0.143334
