17
gdb 74704	2.8188	1.70601	1.26721	3.2223	74.21	-0.231	-0.0563	0.1747	1011.0684	0.136728	-421.833227	-421.82569	-421.824746	-421.865149	29.169	
C	 0.0643421394	 1.4644934168	 0.0461240951	-0.483035
C	 0.0257463354	-0.0295697531	-0.04000065	 0.203835
C	-0.0666285596	-0.76401876	-1.1613940451	-0.153344
C	-0.0514233918	-2.2694277184	-1.0113822179	 0.040107
C	-1.1170251736	-2.7060749766	 0.0308180812	-0.257135
C	 0.0340689781	-2.3310199708	 0.9981273852	-0.023228
O	 0.9947921544	-2.6233406076	-0.0547502163	-0.289611
C	 0.0497637336	-0.8147836701	 1.2357919066	 0.354064
O	 0.0452365109	-0.3086940399	 2.3364472941	-0.326642
H	 1.002900424	 1.8011572906	 0.5001459847	 0.145509
H	-0.03056393	 1.92415379	-0.9407430372	 0.119337
H	-0.7374357129	 1.8360345562	 0.6926365432	 0.143897
H	-0.1547223696	-0.3149527683	-2.1465799811	 0.107031
H	 0.0431248907	-2.8098587778	-1.9548655578	 0.086474
H	-2.0554173905	-2.1517166326	 0.0768748398	 0.115271
H	-1.293862773	-3.7830689572	 0.0223638156	 0.120017
H	 0.2001435144	-2.8913555512	 1.9193887499	 0.097451
