17
gdb 117328	3.21859	0.83647	0.69475	2.9131	67.79	-0.2697	-0.0081	0.2616	1564.7673	0.134554	-492.325685	-492.315813	-492.314868	-492.362325	34.388	
N	 0.6456514642	 0.2168668936	-0.3973638557	-0.553338
C	 0.0510387377	-0.2688925693	 0.7048734492	 0.467576
O	 0.2259737125	 0.06226248	 1.8440282154	-0.358841
O	-0.9033279701	-1.2901869987	 0.4808044521	-0.256029
C	-1.2567075414	-1.8710680262	-0.6955012731	 0.425774
N	-0.7601478563	-1.5410210292	-1.8176466576	-0.537956
C	-2.2809031863	-2.9449123458	-0.4246531944	-0.288872
C	-1.6987785654	-4.1255659487	 0.3796495536	-0.066556
O	-2.6644411897	-5.1348750512	 0.59929074	-0.410359
H	 1.3372524545	 0.9327070415	-0.2581895534	 0.269207
H	 0.4206835806	-0.1763512575	-1.3073660088	 0.294576
H	-1.1561162428	-2.0973731664	-2.5698270839	 0.235544
H	-3.1036549808	-2.499990179	 0.1474755378	 0.126693
H	-2.6865911551	-3.3167883053	-1.3690370996	 0.117845
H	-0.8933929492	-4.5970202836	-0.1931335077	 0.121724
H	-1.2667924429	-3.7533468731	 1.3170904317	 0.125088
H	-3.2847901295	-4.8163039811	 1.2626699241	 0.287922
