16
gdb 26637	3.36578	1.27147	0.9282	2.1213	83.47	-0.1908	0.0125	0.2033	1214.0264	0.123192	-400.761391	-400.752287	-400.751343	-400.794945	33.841	
C	-0.0029960392	 1.5202251547	 0.057015578	-0.514026
C	 0.0192448045	 0.0316464845	-0.0032426112	 0.239879
C	 0.0345717452	-0.8201770211	-1.0803460406	 0.142171
O	 0.031915783	-0.4334824161	-2.3836106628	-0.454068
C	 0.0536856736	-2.1729203118	-0.600049923	 0.076493
C	 0.0491228339	-2.0949727301	 0.7844031144	-0.199288
N	 0.0286476387	-0.7780909656	 1.1243623323	-0.305518
C	 0.0726726789	-3.3079490443	-1.4356863064	 0.204532
C	 0.0880334173	-4.2224846234	-2.2232653062	-0.468961
H	 0.8758366495	 1.9324577891	 0.569402807	 0.124218
H	-0.0089454499	 1.9174491645	-0.9603384085	 0.154607
H	-0.8937966816	 1.9058559876	 0.5694175419	 0.124136
H	 0.0449689684	-1.2336935983	-2.9230790295	 0.29744
H	 0.0589435307	-2.8771432741	 1.5247363505	 0.12974
H	 0.021124415	-0.4311489639	 2.0673361151	 0.262622
H	 0.1015437521	-5.0469575415	-2.8915897509	 0.186024
