14
gdb 20421	6.13213	1.48223	1.25974	3.686	63.74	-0.224	-0.009	0.215	918.8034	0.108512	-378.672537	-378.66607	-378.665125	-378.703796	23.868	
C	-0.1711080406	 1.2865341528	-0.3409194936	-0.227008
C	 1.2504734878	 1.0151969754	 0.0114465212	-0.22878
N	 0.2533129664	-0.0460107687	 0.0941771293	-0.15643
C	-0.1428491463	-0.5054410038	 1.3555168013	 0.145146
C	 0.6007665661	-0.7869176349	 2.4625899082	 0.000238
O	-0.1827959559	-1.2993804643	 3.4315586201	-0.16604
N	-1.4892958059	-1.3614878252	 2.9736479533	-0.12777
C	-1.4571053381	-0.8978663321	 1.7498897786	-0.027302
H	-0.7503521856	 1.884552274	 0.3585071197	 0.127248
H	-0.4763283001	 1.3584116899	-1.3800563342	 0.128614
H	 1.9976299233	 0.8937259294	-0.7665508938	 0.128789
H	 1.616743611	 1.4373849184	 0.9447741564	 0.122513
H	 1.649623107	-0.6985578232	 2.6942877202	 0.146855
H	-2.369339479	-0.8516038776	 1.1722018531	 0.133926
