14
gdb 133236	3.12588	1.4631	1.00313	3.0461	73.95	-0.2228	-0.05	0.1728	1096.7047	0.101161	-474.129514	-474.121722	-474.120778	-474.162672	28.019	
C	 0.0966824394	 1.4143480872	 0.0760970996	-0.304806
N	 0.0173504699	-0.0368838055	 0.0245989023	 0.114873
N	-0.0191895527	-0.6219384982	-1.1722868685	-0.200601
C	-0.012893665	-1.9208772186	-1.2157458743	 0.01668
C	 0.0435380467	-2.7843327885	-0.0467685852	 0.110232
N	 0.0433926801	-4.0672329403	-0.1251035294	-0.548087
C	 0.099439316	-1.9661363484	 1.1582353794	 0.309418
F	 0.16210047	-2.5993428546	 2.3205183073	-0.057525
N	 0.0927795198	-0.6837993354	 1.2004468108	-0.279841
H	 1.1146842938	 1.7400354767	 0.3145734925	 0.148732
H	-0.1902050621	 1.7935474138	-0.9030370495	 0.164239
H	-0.5851261545	 1.7861388743	 0.8430745905	 0.156315
H	-0.0545092835	-2.3746851171	-2.1997771167	 0.146395
H	 0.0892437722	-4.4754526853	 0.8099521414	 0.223978
