16
gdb 26706	2.31306	1.5752	0.94722	1.09	68.99	-0.1652	0.0517	0.2169	1174.3922	0.124233	-471.209865	-471.200043	-471.199099	-471.243909	35.697	
N	 0.2018538206	 1.4390554423	 0.0040963617	-0.613205
C	 0.0280067336	 0.0388170992	-0.0362366414	 0.144373
C	-1.0712799688	-0.7862671733	-0.0418831961	 0.206043
O	-2.3784752461	-0.3876413533	-0.0092198955	-0.464243
C	-0.6101052158	-2.1347125296	-0.0692459297	 0.070892
O	-1.4213248045	-3.2552849051	-0.0004598185	-0.463549
C	 0.7691176209	-2.1096884307	-0.0769376662	 0.227769
N	 1.7153889969	-3.1496154895	-0.151676564	-0.610875
N	 1.143988984	-0.795573587	-0.0602873079	-0.312481
H	-0.2981672668	 1.8524246539	 0.7850829794	 0.24247
H	-0.14782411	 1.8884016351	-0.8369805651	 0.240813
H	-2.8978652517	-1.1700837725	 0.2101314353	 0.291894
H	-1.7229643312	-3.4726054936	-0.8898681203	 0.295134
H	 1.2291894687	-4.0278900948	-0.2961635151	 0.245396
H	 2.244526946	-3.2428524689	 0.7120163662	 0.242806
H	 2.0847322242	-0.4555442722	-0.1587885727	 0.256766
