20
gdb 93579	3.56509	1.07175	0.92132	0.8146	81.6	-0.2324	0.0269	0.2592	1344.3779	0.171923	-403.164888	-403.156137	-403.155192	-403.199463	32.244	
C	-0.1390883642	 1.36607364	 0.2478816876	-0.385952
C	-0.0054485648	-0.1155617035	-0.1017863718	 0.031448
C	 1.0565473095	-0.4099118431	-1.2000291602	-0.124977
O	 1.9559787665	-1.3551832265	-0.5847325626	-0.262467
C	 1.5040445754	-1.5237966078	 0.6907524531	 0.427438
N	 0.4537919928	-0.9040885926	 1.0528391198	-0.343568
C	 2.3174740425	-2.4369724006	 1.5119825851	-0.110945
C	 2.4589730509	-2.15030888	 2.9959673861	-0.252765
C	 1.6204590649	-3.3031466877	 2.5452739579	-0.253085
H	 0.8265474841	 1.7751054342	 0.5633576437	 0.117231
H	-0.4932273965	 1.9414642764	-0.61450437	 0.109439
H	-0.8491830205	 1.5004200164	 1.0680364453	 0.128632
H	-0.9900888406	-0.4911618508	-0.4087752997	 0.083031
H	 0.6433427084	-0.8660356182	-2.1035984365	 0.115131
H	 1.6319009939	 0.4785485916	-1.4828757532	 0.110408
H	 3.1710159285	-2.8545676873	 0.9930387479	 0.102199
H	 3.4233646439	-2.3497336922	 3.449245992	 0.115905
H	 1.9453082989	-1.2679811838	 3.3583919651	 0.138168
H	 0.54424293	-3.1942537892	 2.605605787	 0.138838
H	 1.9972460461	-4.3102767052	 2.6832116035	 0.115892
