15
gdb 19807	4.00734	2.10653	1.82135	3.151	64.12	-0.2357	-0.039	0.1967	751.9057	0.119404	-362.599404	-362.593213	-362.592269	-362.62962	24.583	
O	 0.010725049	-0.0135717738	-0.0100337044	-0.285881
C	-0.0198685501	 1.1804213251	 0.0226976467	 0.388072
C	-1.1642369341	 2.2251284072	 0.0714535857	-0.374156
C	-0.0832899126	 3.3390095827	 0.1207626404	-0.046244
C	 0.5252221088	 3.7009176888	 1.4865673938	-0.024371
C	 0.6902606647	 2.5525574615	 2.3969654119	-0.252472
N	 1.6891143503	 2.7248261868	 1.3193810158	-0.143572
C	 1.059338994	 2.2950416437	-0.0028078179	-0.088957
H	-1.736359383	 2.2241305831	-0.8625594913	 0.138268
H	-1.8641237582	 2.1378963662	 0.9073969781	 0.131661
H	-0.1782987483	 4.1649768853	-0.5799419998	 0.087993
H	 0.7048095775	 4.7194625951	 1.815892433	 0.102448
H	 1.1182103151	 2.7641581011	 3.3724734937	 0.130132
H	 0.011002387	 1.705428728	 2.3933078902	 0.133152
H	 1.8024509701	 2.2712285894	-0.7998799358	 0.103925
