25
gdb 116313	2.75804	1.20032	0.93149	0.1519	91.98	-0.2578	0.0804	0.3382	1381.545	0.231557	-352.369416	-352.360357	-352.359413	-352.403059	35.981	
C	-0.1502572374	 1.5716143008	 0.0504539436	-0.391124
C	-0.0034882182	 0.0467208713	 0.0113476234	-0.172459
C	 0.7714047727	-0.4969354179	-1.203623626	 0.029695
C	 2.234787033	-0.0188664266	-1.2587297867	-0.209423
C	 2.9911099828	-0.6792916239	-2.4172234776	-0.196165
C	 3.1185191643	-2.1985778766	-2.2257276052	-0.215641
C	 1.8064280394	-2.861136366	-1.8033493594	-0.038087
C	 1.4291542991	-2.9169794747	-0.3405901481	-0.287394
C	 0.6638031097	-2.015637862	-1.2775162184	-0.0113
H	 0.816486972	 2.0740519751	 0.1527919871	 0.116978
H	-0.6239050416	 1.947690289	-0.8638380885	 0.110628
H	-0.7712724014	 1.8830324251	 0.8963627933	 0.109622
H	 0.4856532106	-0.3018370275	 0.9303519443	 0.092926
H	-1.0032043041	-0.4071244984	 0.0139909644	 0.087774
H	 0.2812563176	-0.1034198742	-2.1085055136	 0.063361
H	 2.2587770555	 1.0697769598	-1.3710701928	 0.093739
H	 2.7412343472	-0.2397645134	-0.3080830955	 0.089253
H	 2.4519266044	-0.4718297008	-3.3514202161	 0.092247
H	 3.9870498968	-0.2354796549	-2.5270145593	 0.086443
H	 3.4721630946	-2.6541446337	-3.1567260742	 0.093634
H	 3.8946654944	-2.4029436856	-1.4767465911	 0.095646
H	 1.5203663085	-3.72636369	-2.39369754	 0.07731
H	 0.9346841452	-3.8045357961	 0.0396755475	 0.102431
H	 2.1191741822	-2.4637107463	 0.3651764207	 0.105227
H	-0.3351668671	-2.3620120225	-1.5322160915	 0.074678
