22
gdb 117229	3.2972	0.83156	0.80971	1.4016	84.95	-0.2535	0.0298	0.2834	1595.7097	0.192984	-404.354237	-404.343993	-404.343048	-404.390399	37.202	
C	 0.9502057608	-0.4831141437	 1.7484365895	-0.38958
C	 1.4108121716	-1.8816616608	 1.3814631327	-0.027164
O	 1.3675757242	-1.9877832629	-0.0490290034	-0.246894
C	 1.7728668658	-3.1580818496	-0.5856842559	 0.393488
N	 2.1587541653	-4.1178660778	 0.1555789549	-0.542871
C	 1.6578539865	-3.0810902524	-2.0717296911	-0.092201
C	 2.0361946412	-4.2302284908	-2.9719402437	-0.314659
C	 0.5858770131	-3.8669545916	-2.8248403008	 0.020231
C	-0.3832359953	-4.7838672971	-2.1137974521	-0.412285
H	 1.6048652796	 0.2729323933	 1.3052934932	 0.125063
H	-0.0695061715	-0.3020996203	 1.3963609432	 0.125239
H	 0.9667291518	-0.358944125	 2.8353935695	 0.118524
H	 2.4308886359	-2.083121988	 1.7251081709	 0.118051
H	 0.7682987718	-2.6536823142	 1.8180922798	 0.116231
H	 2.4639898111	-4.9078577094	-0.4075514593	 0.215853
H	 1.8411500549	-2.08044244	-2.4475475477	 0.10186
H	 2.5549948948	-3.9960896808	-3.8948251619	 0.117417
H	 2.3678208374	-5.1531413023	-2.50500716	 0.112607
H	 0.1511118296	-3.3217254437	-3.658378004	 0.092262
H	 0.0728035047	-5.246921097	-1.2346255186	 0.128922
H	-1.2677437737	-4.2338553288	-1.7751145879	 0.122333
H	-0.7213298595	-5.5829592071	-2.7823806475	 0.117575
