14
gdb 20670	3.39145	2.24618	1.36247	5.0417	67.65	-0.2263	-0.0369	0.1894	850.1638	0.109213	-378.75687	-378.749987	-378.749043	-378.7879	25.621	
C	-0.0242656099	 1.5225349421	 0.015505761	-0.479749
C	-0.0027721012	 0.0263400322	-0.0207653277	 0.139981
C	-0.0450368981	-0.6971398878	-1.1701663278	-0.044317
N	-0.0232970988	-2.059068591	-1.1585859595	-0.221263
N	 0.0398575981	-2.8089077735	-0.050253997	-0.177588
C	 0.0823386444	-2.1645187079	 1.0780683215	-0.07142
C	 0.0674081076	-0.7038380621	 1.2434962885	 0.279157
O	 0.1102863893	-0.1632048211	 2.3448568371	-0.383256
H	 0.8687811186	 1.903411077	 0.5222992919	 0.148728
H	-0.0773769808	 1.9564698064	-0.9865699372	 0.111228
H	-0.8780709355	 1.8763436336	 0.6031096872	 0.148717
H	-0.0978738216	-0.2473934062	-2.1565433313	 0.132356
H	-0.0549265634	-2.5875285401	-2.0148394051	 0.281232
H	 0.1336876612	-2.7750766114	 1.9745116685	 0.136194
