19
gdb 57105	2.5113	1.26131	1.06677	3.9587	74.07	-0.2597	0.0181	0.2778	1196.8105	0.161167	-419.211627	-419.202633	-419.201689	-419.246462	32.608	
N	-0.1750393362	 1.4758870428	 0.1468455514	-0.507993
C	-0.040011408	 0.0247564124	-0.0161283349	-0.146923
C	-1.376291607	-0.5886678381	 0.0897341112	 0.302214
N	-2.4160170025	-1.0899494786	 0.1439150142	-0.32878
C	 0.6840098885	-0.4488541026	-1.3016258457	-0.001811
C	 0.8047491063	-1.9919614448	-1.4547597832	-0.259766
C	 0.130325426	-2.2703133642	-2.8132584481	-0.079807
O	 0.2385748549	-1.0569261963	-3.5452947569	-0.239915
C	-0.0133995573	-0.020276478	-2.6176920995	-0.10693
H	 0.7459853167	 1.9027475236	 0.1108591042	 0.23817
H	-0.7155325024	 1.8680673327	-0.6186992971	 0.245352
H	 0.5334367527	-0.340762951	 0.8454113632	 0.136802
H	 1.6835775155	-0.0045851976	-1.2603000267	 0.08285
H	 1.8545428814	-2.2931227073	-1.469269208	 0.111493
H	 0.3131116646	-2.5327271842	-0.6414490897	 0.119974
H	 0.6151986609	-3.0576338649	-3.394792085	 0.112347
H	-0.9272015184	-2.5395070787	-2.6698766581	 0.110828
H	-1.0986328543	 0.0985523741	-2.4537629203	 0.103202
H	 0.3763462486	 0.9090766707	-3.040064841	 0.108694
