25
gdb 58558	2.04345	1.37494	1.20836	1.7034	87.96	-0.2377	0.0759	0.3136	1261.8808	0.227361	-389.48088	-389.470434	-389.46949	-389.515363	40.238	
C	-2.1012297739	-1.2270699106	 0.2984095919	-0.408832
C	-0.8678489404	-0.3020693106	 0.2355357001	-0.008406
C	-1.3616098761	 1.1519831589	 0.1297783876	-0.404059
C	 0.1561288437	-0.519233289	 1.3858470209	 0.256688
C	 1.1682374598	 0.6215712346	 1.4894903648	-0.472663
C	-0.4630845363	-0.992153945	 2.7289039539	-0.112565
O	-0.08820963	-2.3614474399	 2.4729188083	-0.297959
C	 0.8136290487	-1.9406474459	 1.4212459814	 0.142142
C	 0.8674526228	-2.8833730138	 0.2355951365	-0.42683
H	-2.8436217216	-0.8351975394	 1.0024991803	 0.11117
H	-2.5864278824	-1.2730625426	-0.6818131851	 0.106386
H	-1.8619491286	-2.242575111	 0.6158652217	 0.136643
H	-0.3255293407	-0.5262999178	-0.6941009561	 0.075032
H	-1.8241455782	 1.4822607919	 1.0679474938	 0.112558
H	-0.5620839646	 1.8542071265	-0.1177188928	 0.114182
H	-2.123652711	 1.2307264644	-0.6525759435	 0.110778
H	 0.6983957355	 1.5630984684	 1.7878563007	 0.120398
H	 1.9364720327	 0.3883944462	 2.2334575988	 0.111676
H	 1.67424647	 0.7932998079	 0.5318345977	 0.11435
H	 0.0542751446	-0.5897675284	 3.6118556691	 0.086858
H	-1.5423886287	-0.8841981407	 2.8715747848	 0.100712
H	 1.8334310692	-1.8571634968	 1.8326705063	 0.061671
H	-0.0908997259	-2.9927713206	-0.2737202256	 0.125973
H	 1.6089371122	-2.5306767222	-0.4897603651	 0.116341
H	 1.1843843793	-3.8738425746	 0.5788750497	 0.127756
