16
gdb 125831	3.04458	1.31671	0.98877	3.1675	71.35	-0.255	-0.044	0.211	1172.9052	0.124891	-434.007373	-433.999372	-433.998428	-434.040819	28.82	
C	 0.1532605803	 1.5307645765	-0.1439220458	-0.503542
C	 0.057145554	 0.0490570476	 0.0027552437	 0.252546
N	 0.0710070545	-0.7607168913	-1.0216792625	-0.132435
O	-0.03327293	-2.0241817819	-0.5131297465	-0.15721
N	-0.1094706915	-1.9999818656	 0.8507973272	-0.174781
C	-0.062986861	-0.740207107	 1.193866003	 0.295164
C	-0.1321483844	-0.2959295105	 2.598929369	-0.123127
C	-1.2580715438	-0.7665806313	 3.4647991924	-0.224691
N	 0.1015520887	-1.2586560732	 3.684875709	-0.307969
H	 1.0227086752	 1.9224593363	 0.3942133424	 0.147865
H	 0.247845414	 1.7962972425	-1.197948724	 0.160232
H	-0.7353344481	 2.0241469016	 0.2628990068	 0.147425
H	 0.2814823379	 0.6925858462	 2.7797120502	 0.102443
H	-1.6444155903	-0.1096537692	 4.2390139865	 0.128205
H	-1.9872648009	-1.4263163443	 3.0034586304	 0.133151
H	 0.2031813655	-2.1880484361	 3.281301718	 0.256723
