16
gdb 77331	2.48879	1.52551	1.17602	3.6882	70.8	-0.2446	0.0058	0.2504	1068.4197	0.12547	-434.093792	-434.085316	-434.084372	-434.127341	30.175	
C	-0.0679524384	 1.3731109046	 0.0349201985	-0.345425
N	-0.0271951908	-0.0629319796	-0.1647800075	-0.09455
C	-1.1940510039	-0.8968703141	 0.022315699	-0.159155
C	-0.5696154476	-2.2897066835	-0.218685731	-0.106094
O	 0.802345643	-2.1235039429	 0.1338564354	-0.246808
C	 1.123684405	-0.7911908558	 0.1023147795	 0.481311
N	 2.2721056002	-0.2959183714	 0.2738952974	-0.594054
C	-1.7998903046	-0.7624504936	 1.3674594955	 0.278797
N	-2.2713907626	-0.634831772	 2.4146781773	-0.313733
H	 0.9389188545	 1.7556593687	-0.1315628413	 0.178657
H	-0.7573808907	 1.8301216261	-0.6814484687	 0.126745
H	-0.383824878	 1.6370919481	 1.0528006754	 0.142511
H	-1.9710441604	-0.6732775348	-0.7167557086	 0.139378
H	-1.0042023414	-3.0748342211	 0.4004098116	 0.149113
H	-0.6522035503	-2.5593651889	-1.2771047909	 0.130849
H	 2.967428466	-1.0277120199	 0.3939250384	 0.23246
