21
gdb 70887	2.30656	1.64171	1.425	1.68	83.05	-0.2182	0.0893	0.3075	1084.2712	0.18041	-387.050925	-387.041767	-387.040823	-387.083994	35.395	
C	-0.0160582864	 1.3791357918	-0.0802546366	-0.508906
C	-0.0227669181	-0.1095849772	-0.0021733446	 0.43958
O	 0.93550603	-0.8510804454	-0.7634242931	-0.369747
C	 0.1496095151	-2.0460139561	-0.4572192919	 0.383032
C	 0.2576619957	-3.1268164373	-1.4872206455	-0.504464
C	 0.4231964799	-2.2524854624	 1.0586554198	-0.271479
C	-0.3566664861	-0.9551397983	 1.2478268617	-0.212336
C	-1.1002145447	-1.1389694326	-0.079431611	 0.174578
C	-2.5445617388	-1.1369938001	-0.4596244668	-0.532012
H	 0.9222103698	 1.7848824804	 0.3134251266	 0.132115
H	-0.1278423135	 1.7187414539	-1.1150198902	 0.127614
H	-0.8380791583	 1.7952666217	 0.5101337908	 0.122413
H	 1.2966287597	-3.4653153428	-1.567882203	 0.132498
H	-0.3623314115	-3.9859798618	-1.2135996712	 0.119905
H	-0.0588597411	-2.7638439003	-2.4695315798	 0.127571
H	-0.1222631906	-3.1135369208	 1.4561306849	 0.094956
H	 1.4761735356	-2.2938972398	 1.3568026254	 0.093351
H	-0.7328176511	-0.5138865313	 2.16326343	 0.081449
H	-3.0569767797	-0.2738347456	-0.0202544424	 0.123985
H	-2.6762368399	-1.080694266	-1.5464095568	 0.124632
H	-3.0605003058	-2.0375675501	-0.1062123064	 0.121267
