19
gdb 76526	2.50373	1.22589	1.22245	1.6586	78.51	-0.2424	-0.0265	0.2159	1181.6662	0.156633	-423.014765	-423.005284	-423.00434	-423.049273	34.089	
C	-0.1134242607	 0.7094522901	-2.1175147903	-0.40763
C	 0.0712398174	-0.4144571851	-1.120855982	-0.105251
C	 1.350673079	-0.6206489592	-0.3357803295	-0.105254
C	 2.559769787	 0.2786137793	-0.4772513829	-0.407621
C	 0.1141493593	-0.0957235992	 0.3551183362	 0.302496
O	 0.0149345613	 1.2410653893	 0.8678667944	-0.318591
C	-0.7585485304	 0.8091926549	 2.014828391	-0.191538
C	-0.6759057738	-0.6402934644	 1.499467956	 0.280176
O	-1.0654613187	-1.714128733	 1.8523251652	-0.301376
H	 0.3024704248	 1.6498322274	-1.7509648057	 0.138583
H	 0.3660963896	 0.4681747939	-3.0719781031	 0.122473
H	-1.1779230048	 0.876315396	-2.3096641094	 0.125545
H	-0.4708333863	-1.3274176491	-1.3567312728	 0.105874
H	 1.5781953249	-1.6576399622	-0.0994278371	 0.105874
H	 2.2779752584	 1.3314128204	-0.5392660587	 0.138573
H	 3.219581468	 0.1678657141	 0.3889512725	 0.125548
H	 3.135402399	 0.0215611422	-1.3726425227	 0.122474
H	-0.2470439057	 1.001776299	 2.9645602051	 0.134825
H	-1.7632533985	 1.2461304056	 2.0340796438	 0.134822
