17
gdb 3218	3.31714	3.16337	2.14271	1.7727	63.15	-0.2492	0.0931	0.3422	692.4617	0.14783	-309.685045	-309.678039	-309.677095	-309.715562	26.607	
C	-0.4335217163	 1.5266094572	 0.3421399414	-0.405083
C	-0.1382549202	 0.0372892128	 0.2330127846	-0.021872
C	 0.2845124723	-0.4955462012	-1.1456196033	 0.022281
O	 1.5402211612	 0.1145680226	-1.4750866424	-0.249642
C	 1.5447934074	-1.0345700311	-0.6165656448	 0.022282
C	 1.227862447	-0.5470061927	 0.8064969946	-0.021872
C	 2.2370028729	 0.3844077043	 1.4632071534	-0.405082
H	 0.3525014602	 2.1150500606	-0.1376385737	 0.133882
H	-1.3836788145	 1.7695909141	-0.1464584921	 0.111867
H	-0.5099245902	 1.8428869812	 1.3877290967	 0.113302
H	-0.9746219689	-0.5486893132	 0.6281584846	 0.073188
H	-0.3332056229	-0.8244795176	-1.9741647499	 0.097255
H	 2.1408449847	-1.882632233	-0.9355840632	 0.097255
H	 1.0093215877	-1.3972346246	 1.4609989488	 0.073188
H	 2.5330557947	 1.1824347509	 0.777796945	 0.133882
H	 1.8262285119	 0.8436466901	 2.3684636355	 0.113302
H	 3.139776683	-0.1650967503	 1.7523646249	 0.111867
