20
gdb 85920	2.68311	1.26435	1.08347	3.9679	75.49	-0.2476	0.0257	0.2733	1208.2104	0.170553	-440.342717	-440.333504	-440.33256	-440.376215	35.597	
C	 0.0052540078	 1.5425972667	-0.0254854503	-0.42522
C	-0.0040047608	 0.0105560455	-0.030369031	 0.266925
C	-1.4486361266	-0.516672872	 0.0279417379	-0.407487
C	 0.7793646903	-0.5785565327	-1.2412535082	-0.266517
C	 1.455039453	-1.8380125633	-0.6918104688	 0.041064
O	 2.6800913413	-2.1453693711	-1.3067018595	-0.4431
C	 1.6593640988	-1.49858631	 0.7893982084	 0.384839
O	 2.4861368313	-2.0278714993	 1.5067944027	-0.403845
N	 0.7834295361	-0.5105535677	 1.0987142002	-0.329945
H	 1.029656459	 1.925124356	-0.0161391186	 0.126607
H	-0.4992924066	 1.9288341047	-0.9166093616	 0.126628
H	-0.5205679871	 1.9399040225	 0.8503100375	 0.114275
H	-2.0316718804	-0.1397378431	-0.8183483411	 0.121296
H	-1.4722035848	-1.6099305586	 0.0012646171	 0.124163
H	-1.9433137944	-0.1915503589	 0.9493079762	 0.114504
H	 0.1272928672	-0.7637490491	-2.0971180568	 0.108475
H	 1.5673133073	 0.1146804972	-1.5510426146	 0.118143
H	 0.7678714244	-2.700371588	-0.7419910289	 0.087787
H	 3.2388978381	-2.4941604215	-0.5957834038	 0.292198
H	 0.7073015662	-0.1468627873	 2.0366262032	 0.249213
