16
gdb 12499	3.36003	2.0551	1.51989	5.1456	60.55	-0.2703	0.0276	0.298	845.6226	0.132289	-420.915622	-420.90852	-420.907576	-420.947574	26.069	
O	 0.1048144737	 0.3671276616	-0.7954661926	-0.348595
C	-0.0586517337	 1.1961036518	 0.0472604998	 0.450272
O	-1.271730656	 1.7562129547	 0.2517982849	-0.239906
C	-1.4765344771	 2.579905514	 1.4116516009	-0.068048
C	-0.9463607947	 3.999157108	 1.1914726797	-0.209509
C	 0.3977747849	 3.9818820678	 0.4487832137	-0.229133
C	 1.3774699215	 2.9436203018	 0.9820738121	-0.069602
O	 0.9211009604	 1.5743187548	 0.9130571385	-0.26107
H	-2.5565673455	 2.5750878351	 1.5722200779	 0.124921
H	-0.9959128478	 2.1088609844	 2.2731885171	 0.128141
H	-1.667716361	 4.5889885854	 0.617407935	 0.116891
H	-0.8427624166	 4.483959563	 2.1693922726	 0.109261
H	 0.2272009181	 3.7981615798	-0.6178346463	 0.135639
H	 0.8823455901	 4.961944989	 0.5156871741	 0.112813
H	 2.3184442648	 2.9943775466	 0.4228155689	 0.127819
H	 1.6012253888	 3.1208184722	 2.0393820238	 0.120106
