16
gdb 26704	2.30235	1.62124	0.96161	0.9803	70.32	-0.1649	0.0494	0.2143	1164.874	0.124685	-471.210351	-471.200919	-471.199975	-471.243915	34.979	
N	-0.0191359093	 1.3862948181	-0.0020213306	-0.601993
C	-0.0795159406	-0.0037733873	-0.0337353006	 0.185488
C	-1.1451391523	-0.8483488499	-0.0298466467	 0.137662
N	-2.5090884181	-0.5334187268	-0.0596642578	-0.62512
C	-0.6100840295	-2.1834462696	-0.0757302334	 0.110365
O	-1.3153284584	-3.365023533	-0.0067148132	-0.461549
C	 0.745898914	-2.060046306	-0.1133049336	 0.294261
N	 1.7639984279	-3.0010833345	-0.2301333644	-0.601188
O	 1.1029861811	-0.7577166689	-0.0972264048	-0.208767
H	 0.485675402	 1.7477711681	 0.8018084405	 0.238035
H	 0.3905593083	 1.7928938459	-0.8382149413	 0.240145
H	-2.657425848	 0.4491877534	 0.1392161559	 0.247691
H	-3.0415684541	-1.0987345067	 0.5920248218	 0.242353
H	-1.8654239418	-3.4360302115	-0.7955449043	 0.297721
H	 1.3950560497	-3.9333949424	-0.0867488765	 0.255862
H	 2.5269484989	-2.8312549088	 0.4163406089	 0.249034
