16
gdb 22397	6.78146	0.72211	0.66862	3.9573	74.81	-0.2463	-0.0124	0.2339	1570.9089	0.122965	-433.998016	-433.989182	-433.988238	-434.032362	31.439	
O	-0.1512785186	 1.3627964771	 0.1518706926	-0.39025
N	 0.0422398871	-0.0225304191	 0.0371591467	-0.222021
C	-1.0615288223	-0.6243431417	-0.0738235967	 0.415994
C	-2.5272765226	-0.2584872895	-0.1543206662	-0.267639
N	-2.7867556987	-1.6605718061	-0.5828642252	-0.087842
C	-3.8872198756	-2.3455070206	 0.0630066785	-0.292641
C	-4.0144640724	-3.7251044529	-0.420632399	 0.280354
N	-4.1027421199	-4.8180173938	-0.78309371	-0.299201
C	-1.398910631	-2.0875859356	-0.2391071297	-0.264966
H	 0.7521345113	 1.6930859804	 0.2070801439	 0.312689
H	-2.9521532398	 0.0046527539	 0.8278475208	 0.117724
H	-2.817543622	 0.5046864633	-0.8827188099	 0.141453
H	-3.7975433587	-2.3805601888	 1.1668338098	 0.129108
H	-4.8181371113	-1.8129558134	-0.1640098538	 0.160797
H	-0.8890093262	-2.646069618	-1.0287889322	 0.145865
H	-1.3274340592	-2.653997895	 0.7029079804	 0.120579
