16
gdb 67177	3.07678	1.53212	1.47855	3.0085	68.71	-0.217	0.0173	0.2343	943.4476	0.127549	-434.045162	-434.038149	-434.037205	-434.076254	28.513	
N	-0.1412659482	 1.4651867682	 0.055009736	-0.623978
C	 0.0072741965	 0.0637844899	-0.0157550634	 0.302691
C	-1.0262706096	-1.0380940834	 0.062870457	-0.081318
N	-0.4772141413	-1.7108636764	-1.1036599997	-0.302355
C	 0.7726796081	-0.8733169968	-1.0194598226	-0.199709
C	 1.7716184029	-1.6692851258	-0.1734548636	 0.396616
O	 2.749368033	-2.2862847531	-0.5362290006	-0.385355
N	 1.2386402326	-1.6434004035	 1.1034185352	-0.313556
C	 0.0474736564	-0.8513771797	 1.170018573	-0.058358
H	 0.726259103	 1.926219812	 0.3107565295	 0.239423
H	-0.4581301325	 1.8556358025	-0.8265307044	 0.240286
H	-2.0906380102	-1.0056542814	 0.2665620719	 0.1039
H	-0.3120271306	-2.7114972477	-0.9884020209	 0.225031
H	 1.1496243418	-0.5111574015	-1.9746980195	 0.090261
H	 1.4738351192	-2.36186863	 1.7698214418	 0.253038
H	-0.260273921	-0.4733719035	 2.1365382306	 0.113383
