14
gdb 1045	7.31556	2.06921	1.66088	1.5031	60.74	-0.1783	0.0405	0.2189	737.9509	0.114677	-324.594534	-324.587887	-324.586943	-324.625443	24.03	
C	-0.1133998617	 1.4333428783	 0.1328649055	-0.329148
N	-0.0527901205	 0.0435930031	-0.311374828	-0.383561
C	-1.1575938935	-0.7653700037	-0.1168898804	 0.429035
C	-1.3058754434	-2.1007616909	 0.1308988023	-0.301201
C	-2.7220116207	-2.3427811489	 0.1144175383	-0.155865
C	-3.3193958031	-1.1525405176	-0.125920387	-0.034727
O	-2.3652807534	-0.1711378192	-0.2729340839	-0.177694
H	 0.8205981458	 1.9280423238	-0.1432829383	 0.124052
H	-0.9325213334	 1.9415123966	-0.3791516603	 0.151613
H	-0.2662868952	 1.5433751484	 1.2172602684	 0.114338
H	 0.7969096842	-0.4268156504	-0.0351216025	 0.242367
H	-0.5171188381	-2.8151187697	 0.3034726545	 0.091156
H	-3.2201285644	-3.2869358209	 0.2718037882	 0.104226
H	-4.3392123626	-0.8201326388	-0.2113531669	 0.125408
