13
gdb 130521	4.01229	1.69696	1.19257	3.7382	73.13	-0.2596	-0.0664	0.1932	932.1506	0.0924	-415.645863	-415.640027	-415.639083	-415.675939	23.522	
O	-0.0530986311	 1.313373995	 0.0096315236	-0.257268
N	 1.3452602923	 1.7706361081	-0.0009421547	-0.004761
N	 2.0960841951	 0.7787399416	-0.0137124786	-0.185704
C	 1.3605185526	-0.3968854249	-0.0133900758	 0.241416
C	 0.0146244933	-0.0190757096	 0.0014634291	 0.397625
C	-1.0133264058	-0.9596971587	 0.0058569083	-0.261378
C	-0.619418088	-2.291317038	-0.0053929747	-0.084734
C	 0.7362576265	-2.6779919727	-0.0203884747	-0.104277
C	 1.7522067214	-1.7353958942	-0.0246577036	-0.223769
H	-2.0547219841	-0.6650613923	 0.0173598207	 0.127769
H	-1.3820918025	-3.0628606643	-0.0025519302	 0.114444
H	 0.9824481524	-3.7335353158	-0.0286871597	 0.111535
H	 2.7990982578	-2.0123543444	-0.0361212899	 0.129102
