19
gdb 104321	2.83199	1.41724	1.34389	2.5359	71.	-0.2562	0.0829	0.3392	1068.0893	0.157417	-460.138494	-460.129671	-460.128727	-460.171984	32.851	
C	 0.1357114463	 1.3163371438	 0.1823794338	-0.250962
O	 0.0506616796	-0.0812447779	-0.0427731936	-0.271132
C	 0.599795254	-0.5551668643	-1.2365898471	 0.470093
C	-0.1630074734	-0.0763804103	-2.4761057721	-0.446035
O	 1.974714845	-0.1526563627	-1.3301582957	-0.307435
C	 2.8051973344	-1.2270513564	-1.7533676142	-0.114839
C	 2.0110015985	-2.4881953748	-1.4976581191	 0.02604
O	 1.5237755708	-2.5630803834	-0.1559784143	-0.243405
C	 0.6472687755	-2.0763655859	-1.1688443253	-0.03144
H	 1.16989366	 1.6681502064	 0.1126537435	 0.132983
H	-0.4887585555	 1.8912179109	-0.5153220838	 0.104006
H	-0.2347441119	 1.4831228076	 1.1961081322	 0.128154
H	-0.035328992	 0.9997139435	-2.61093221	 0.132837
H	 0.2213874711	-0.5724271183	-3.3725150389	 0.118767
H	-1.2296736269	-0.2996052993	-2.3813285447	 0.125083
H	 3.0462235759	-1.1455785668	-2.8249132012	 0.097487
H	 3.7397416848	-1.1868144776	-1.1831110197	 0.121553
H	 2.2656937284	-3.4272700564	-1.9810576635	 0.103573
H	-0.2446692344	-2.662154178	-1.3705715764	 0.104672
