21
gdb 80442	2.26785	1.52352	1.24544	1.8073	84.89	-0.2136	0.0217	0.2353	1145.0517	0.181895	-387.098548	-387.089368	-387.088424	-387.131943	35.322	
C	 0.1186256451	 1.4892070475	 0.1204437755	-0.495418
C	 0.0514750674	-0.0028015815	 0.0050080221	 0.180623
C	-0.0017087262	-0.7585149063	-1.1088951689	 0.21274
C	-0.0288790056	-0.3117663701	-2.539500618	-0.505378
C	-0.0037557416	-2.218563358	-0.7797167885	-0.186749
C	 1.233860484	-2.7216952335	-0.0583737493	 0.126523
O	 2.4396833809	-2.0218826404	-0.0436993352	-0.428454
C	 0.037458545	-2.2987598684	 0.7503797388	-0.110281
C	 0.0275959229	-0.8610260819	 1.2605062665	-0.311818
H	 1.015272867	 1.8077810743	 0.6673267233	 0.126218
H	 0.1272426818	 1.9870364777	-0.8520431936	 0.123305
H	-0.7393224849	 1.8741916009	 0.6873447362	 0.126492
H	-0.0323670663	 0.7759732908	-2.6405209251	 0.122681
H	 0.8347568006	-0.7022566225	-3.0919902652	 0.132192
H	-0.9214986236	-0.6977904238	-3.0482231977	 0.127998
H	-0.5738576802	-2.9044152781	-1.3991353884	 0.078818
H	 1.4262760699	-3.7882486224	-0.1193572967	 0.101279
H	 2.2449926168	-1.1128035382	-0.3075793894	 0.279497
H	-0.5187001449	-3.0550097297	 1.2925963049	 0.082634
H	 0.8944422615	-0.654672768	 1.9043867258	 0.112822
H	-0.8639024095	-0.6478023785	 1.8654311127	 0.104275
