20
gdb 102830	1.7055	1.49444	0.90525	4.1916	76.44	-0.2444	0.0355	0.28	1326.6762	0.170427	-440.292535	-440.282711	-440.281767	-440.327878	35.354	
O	 0.0268494765	 1.6027407379	-0.0668619708	-0.429798
C	 0.1332001801	 0.1979211281	-0.2833215355	-0.101363
C	-1.2298182885	-0.4125830558	 0.039960532	 0.009305
N	-1.5772785924	-0.0568130113	 1.4133462726	-0.271223
C	-2.1807543435	-0.9122133221	 2.2725008464	 0.160376
O	-2.4981790678	-2.0582448757	 2.0188759667	-0.338508
C	-2.2951712719	 0.0082148557	-0.9573754002	 0.028949
C	-2.5350588607	-0.8377924317	-2.1841249788	-0.27327
C	-3.5577326729	-0.8028016547	-1.0752208527	-0.276304
H	 0.8875502206	 2.0032084716	-0.2165866822	 0.295142
H	 0.3927394971	-0.02799991	-1.3270466847	 0.101905
H	 0.8993544331	-0.2428143453	 0.3708192095	 0.096573
H	-1.1400365106	-1.5032580482	 0.0208036697	 0.108309
H	-1.3667615396	 0.8846051973	 1.7066776815	 0.254271
H	-2.3507046669	-0.4487119951	 3.2649164598	 0.073319
H	-2.3822126795	 1.0831850091	-1.0820741888	 0.090755
H	-2.763023705	-0.3353227137	-3.1176076804	 0.109317
H	-1.948722451	-1.7438807923	-2.3022773552	 0.110035
H	-3.6455203008	-1.6726760926	-0.4342897499	 0.144502
H	-4.4891623663	-0.276657051	-1.2527833091	 0.107708
