18
gdb 55763	4.18644	0.97004	0.92067	3.4479	73.22	-0.2299	0.023	0.2529	1317.9248	0.146067	-439.068036	-439.058949	-439.058005	-439.10402	32.514	
C	 0.2087920638	 1.5156057446	-0.0844439238	-0.498466
C	 0.4586061048	 0.0153399052	-0.0154425477	 0.380265
O	 1.1714591504	-0.5022952316	 0.8181275034	-0.347221
N	-0.1752469366	-0.7024622938	-1.0093968824	-0.429673
C	-0.1041508997	-2.1071050577	-1.1276089243	 0.329257
C	 1.2005704736	-2.8609001342	-1.2276344328	-0.291729
C	 0.1856252162	-3.008796422	-2.3160644759	 0.017826
O	-0.8303127045	-3.9406469328	-1.941802851	-0.281964
C	-1.2293263327	-3.0997844132	-0.825299077	-0.125162
H	 0.718577325	 1.9464931453	-0.9529249873	 0.143397
H	-0.8577361588	 1.7456787966	-0.175910107	 0.129481
H	 0.6029942867	 1.9761842108	 0.8206074395	 0.153701
H	-0.8122386486	-0.2083229716	-1.6153768392	 0.243962
H	 2.0501971669	-2.2286954541	-1.461284753	 0.127606
H	 1.4074329123	-3.6903140947	-0.5580588494	 0.123431
H	 0.3434208336	-2.8167689046	-3.3711884243	 0.109238
H	-1.1999749288	-3.6275830681	 0.1346029643	 0.115745
H	-2.2312036838	-2.6860728143	-0.994751872	 0.100306
