23
gdb 96595	2.43305	1.46794	1.038	0.6129	82.07	-0.2492	0.0913	0.3405	1242.1667	0.207113	-425.435989	-425.426963	-425.426018	-425.469312	35.175	
C	 0.8337880091	 1.4594489193	-0.141352579	-0.400714
C	-0.1202347496	 0.3148783403	 0.1759919079	 0.188076
O	-0.386942227	-0.5073560597	-0.943829753	-0.257806
C	 0.6671328087	-1.3953184779	-1.315331944	-0.077371
C	 0.1531830615	-2.8367430594	-1.2941438502	-0.200718
C	-0.7211735508	-3.1745106761	-0.0742746476	-0.176044
C	-0.1421522	-2.8298928704	 1.3118343998	-0.198685
C	-0.3887456322	-1.405896819	 1.8332735016	-0.059212
O	 0.4306755395	-0.3948587863	 1.2541259096	-0.240537
H	 1.8219235377	 1.0748723571	-0.4087181383	 0.123907
H	 0.4424763243	 2.0409872052	-0.9795155176	 0.12247
H	 0.9432717955	 2.111544578	 0.7288445342	 0.122618
H	-1.1132672618	 0.7047666672	 0.4485825317	 0.073225
H	 1.0237971714	-1.1275232223	-2.3181460083	 0.092752
H	 1.5055240453	-1.291041592	-0.6207874881	 0.113372
H	-0.4353136532	-3.0308093662	-2.1987223739	 0.099348
H	 1.0204094955	-3.5089431339	-1.3383147036	 0.091592
H	-1.6873321055	-2.6699471091	-0.1843372412	 0.105551
H	-0.9323286396	-4.2496265138	-0.1084493425	 0.088926
H	-0.6015960878	-3.4988543129	 2.0512330913	 0.094691
H	 0.9355362222	-3.0356288437	 1.3496527281	 0.10105
H	-1.4505387634	-1.1423602868	 1.7153116046	 0.093418
H	-0.1590869596	-1.3837885377	 2.9048091286	 0.100092
