18
gdb 45048	2.482	1.90053	1.29679	1.9424	76.3	-0.2294	-0.0221	0.2073	1000.9901	0.148336	-401.939821	-401.93232	-401.931376	-401.971766	29.821	
O	 0.0296973433	 0.0967451712	-0.5530888615	-0.329375
C	-0.0148943635	 1.2190957401	-0.1137649692	 0.340477
C	-1.2681118475	 1.9599392599	 0.3805285833	-0.354081
C	-0.7290720029	 3.2483441079	 0.9675431636	-0.035413
C	 0.2583080009	 3.1437665772	 2.0698689936	-0.251565
N	 0.7320958754	 3.3835402971	 0.6941346502	-0.15759
C	 1.1403818371	 2.166583451	 0.0214588685	 0.245794
C	 2.5431181112	 1.6285624804	 0.1683092973	-0.300809
C	 2.1291285604	 2.2519452156	-1.1279815543	-0.305112
H	-1.9237376385	 2.1441608668	-0.4781650101	 0.1392
H	-1.8270420667	 1.3380001647	 1.0854266064	 0.138822
H	-1.3092946648	 4.1583535574	 0.852213235	 0.09983
H	 0.4022069705	 3.9769804332	 2.7509931515	 0.121134
H	 0.4361458695	 2.1627111036	 2.5074816584	 0.118227
H	 3.2054821195	 2.1897618218	 0.8173906563	 0.128017
H	 2.6378851199	 0.548790308	 0.2085091192	 0.136372
H	 1.9475778752	 1.6007888934	-1.9757291187	 0.134139
H	 2.490656371	 3.2477534805	-1.3556549096	 0.131933
