22
gdb 71994	1.87687	1.78168	1.64902	1.8849	86.54	-0.2118	0.0772	0.2889	1068.8742	0.193152	-367.157145	-367.147815	-367.146871	-367.190457	35.76	
C	-0.0385524118	 1.4646377741	-0.0036865773	-0.509909
C	 0.0607573853	-0.0323254683	 0.0048107828	 0.224922
C	 0.9106217958	-0.9176766071	-0.8907244822	-0.226595
N	 0.0595607104	-2.1061945134	-0.4992285873	-0.202411
C	 0.4189589952	-2.2458258587	 0.964153036	-0.226603
C	-0.2677670942	-0.9199638752	 1.2445423351	 0.224895
C	-0.7200161699	-0.3764159863	 2.5677421225	-0.509908
C	-1.0231820951	-1.0825970838	-0.0532439953	 0.285945
C	-2.4562757483	-1.1143642113	-0.4557452627	-0.529746
H	 0.8700850294	 1.9277981542	 0.3996343907	 0.121117
H	-0.1760213497	 1.8419973605	-1.0237133815	 0.119903
H	-0.8818370634	 1.8251974529	 0.5938950739	 0.118328
H	 0.766094269	-0.6970975821	-1.953486692	 0.098475
H	 1.9824325733	-1.0384357517	-0.6887660835	 0.087905
H	-0.1215880163	-3.0948976564	 1.3953093315	 0.09848
H	 1.4922135507	-2.362725917	 1.1606230266	 0.087899
H	 0.13191659	-0.0654773542	 3.1844551003	 0.121115
H	-1.3754273878	 0.4929106726	 2.4539500943	 0.11833
H	-1.2766972767	-1.1335180649	 3.1322342314	 0.1199
H	-3.0011514816	-0.279632787	-0.0018534114	 0.121835
H	-2.5673108628	-1.0366797848	-1.5432040851	 0.128056
H	-2.9399087616	-2.0446000121	-0.1368593566	 0.128069
