19
gdb 39019	2.9966	1.70625	1.25887	1.5438	81.21	-0.2325	0.0219	0.2544	1026.3644	0.161618	-385.873063	-385.865979	-385.865035	-385.904352	28.912	
C	 0.0845419636	 1.6090402549	 0.2589732214	-0.240396
C	 1.579474164	 1.5172870073	-0.2081615922	-0.317514
C	 1.4805189715	 0.0336409584	 0.0794158634	 0.348956
C	 2.2339448301	-0.914507073	 0.6167533113	-0.238339
C	 1.5948704323	-2.177452518	 1.1487671691	-0.291523
C	 0.1386906641	-1.984079222	 1.5551726043	 0.057789
O	-0.1594433539	-0.8463963975	 2.3702931279	-0.256025
C	-0.676404457	-0.8702045361	 1.0355074917	 0.020379
C	-0.0293510429	 0.0623517149	 0.0454752051	-0.086379
H	 0.0158972621	 1.8605911189	 1.3192639157	 0.123848
H	-0.5856173172	 2.249531971	-0.3183179627	 0.096895
H	 1.6788252168	 1.7443895834	-1.2758829752	 0.107433
H	 2.3263414524	 2.0936251055	 0.3432989326	 0.110786
H	 3.3028791202	-0.7811977814	 0.7594005595	 0.085783
H	 1.6375521951	-2.9988205054	 0.417824601	 0.112005
H	 2.1542747408	-2.5340737991	 2.0234096206	 0.11512
H	-0.3733725729	-2.8957604884	 1.8661623497	 0.087099
H	-1.7591955502	-0.9908287419	 0.9811589583	 0.083619
H	-0.4290129489	-0.1538465716	-0.9546590116	 0.080462
