20
gdb 55917	3.99951	0.93638	0.84755	2.475	79.2	-0.2282	-0.0043	0.2239	1412.723	0.169795	-403.1245	-403.115367	-403.114423	-403.159732	33.467	
C	-0.1336321018	 1.5143267631	-0.0971568562	-0.471736
C	-0.1707786133	 0.0006539931	 0.0307346626	 0.381292
O	-0.4204625485	-0.5432542451	 1.0837765096	-0.297066
C	 0.121758787	-0.7905643676	-1.2354352122	-0.32343
C	 0.0173231325	-2.2962493796	-1.0503487273	 0.037036
C	-1.4022632848	-2.9285250403	-0.793251709	-0.225827
C	-1.2106213634	-3.7736073057	-2.0551314018	-0.041287
N	-1.0343867219	-2.8095312917	-3.1714727658	-0.336337
C	 0.1232463455	-3.1678903093	-2.3122050395	-0.086926
H	 0.8361143991	 1.844664598	-0.4857323588	 0.134259
H	-0.8920493134	 1.8508552471	-0.8131633073	 0.140023
H	-0.318371339	 1.9744523992	 0.8743131179	 0.139615
H	-0.5613134506	-0.4634907939	-2.0295344576	 0.139271
H	 1.1268732995	-0.50767579	-1.5826893452	 0.111256
H	 0.713552686	-2.6323828365	-0.278868453	 0.084851
H	-1.4318062894	-3.5079908064	 0.1302719637	 0.11032
H	-2.2534736862	-2.2437469739	-0.8198648563	 0.102132
H	-1.5662095484	-4.7781554316	-2.2493139615	 0.090877
H	-0.9457991251	-3.3563570562	-4.0277031262	 0.225987
H	 1.0179975563	-3.5978671027	-2.7472686963	 0.08569
