18
gdb 12572	3.14057	1.86915	1.28091	0.9449	63.61	-0.2548	0.0685	0.3233	947.9206	0.155217	-422.065471	-422.057794	-422.05685	-422.097461	28.937	
O	-0.0875608434	 1.4332359784	-0.0939340274	-0.43209
C	 0.0069009756	 0.0159293792	 0.0141447521	 0.107126
C	-1.4311784153	-0.4989346752	 0.1026399685	-0.236018
C	-1.5649337909	-1.9304659186	 0.6396378682	-0.079928
O	-0.5229372953	-2.8308905169	 0.2735888566	-0.236341
C	-0.0414317646	-2.7722038631	-1.0387782647	 0.017629
O	 1.0555669143	-1.9076671848	-1.1794273802	-0.228768
C	 0.7418765863	-0.5304351688	-1.2247363943	-0.100325
H	 0.8050540826	 1.7937382335	-0.1068498531	 0.284849
H	 0.5646523195	-0.2764709834	 0.9170607111	 0.082848
H	-1.9931520942	 0.1682831616	 0.7644488851	 0.117145
H	-1.8926437235	-0.4051212774	-0.8872022678	 0.107028
H	-1.5410908601	-1.921593846	 1.7338071543	 0.115989
H	-2.5399612899	-2.3424274706	 0.3386268881	 0.096977
H	 0.3417876171	-3.7683841149	-1.2733368526	 0.115841
H	-0.8424151073	-2.5035513599	-1.7494433135	 0.077277
H	 0.1364575361	-0.2913644863	-2.1148277895	 0.095552
H	 1.7045482032	-0.0169702068	-1.3303553708	 0.09521
