18
gdb 1662	4.70524	1.55728	1.52862	3.3594	65.47	-0.24	0.0387	0.2787	927.9197	0.158634	-327.02168	-327.012595	-327.011651	-327.056105	31.157	
C	 0.2522208044	 1.5008994629	 0.1249781236	-0.332656
N	 0.3340075871	 0.0552344568	 0.056236226	-0.317198
C	 0.2332324621	-0.6336024846	-1.1181835389	 0.425833
O	 0.064919465	-0.0862574983	-2.1954754396	-0.391926
C	 0.3507858002	-2.1562370396	-0.9997226026	-0.078144
C	-0.9316355725	-2.8055933338	-1.5420368844	-0.377413
C	 1.5881124796	-2.6260266457	-1.7812044411	-0.377342
H	 0.108086456	 1.8630995358	-0.8936332041	 0.172059
H	-0.5919831816	 1.8258385121	 0.7436706614	 0.123507
H	 1.1719334573	 1.9352665456	 0.5330193827	 0.123447
H	 0.4710771095	-0.463618256	 0.9070406687	 0.243461
H	 0.4713582178	-2.4343660386	 0.0557305205	 0.059201
H	-0.8492512712	-3.8967633087	-1.5230570245	 0.108659
H	-1.8073863857	-2.5200172623	-0.9504160135	 0.111962
H	-1.1010965467	-2.4836701753	-2.5729043758	 0.142862
H	 2.5097467707	-2.2091655919	-1.3624136958	 0.111774
H	 1.6670461827	-3.7173207475	-1.7581786212	 0.109447
H	 1.5130909653	-2.301783101	-2.8226057114	 0.142467
