19
gdb 104326	3.01477	1.2918	1.21571	3.3336	70.11	-0.2264	0.0573	0.2837	1103.4312	0.159102	-460.137108	-460.128645	-460.127701	-460.169858	33.126	
O	-0.1454203359	 1.4522785247	 0.0284762971	-0.437818
C	-0.0012600505	 0.0328071453	-0.0179613911	-0.133865
C	-1.4165937122	-0.5365342762	 0.001041749	 0.378472
O	-2.0784632043	-0.0885009434	 1.1782388636	-0.490132
C	-2.2287491006	-0.1743365294	-1.2764647859	-0.127182
O	-3.1459863186	-1.2423485286	-1.4999904939	-0.255488
C	-2.6135595563	-2.4015797051	-0.9194225876	 0.114415
C	-1.2064897223	-2.7998730355	-1.2759691432	-0.350453
C	-1.4948635653	-2.0512329849	 0.0178826026	-0.109228
H	 0.7145361847	 1.8477504506	 0.1952078874	 0.296182
H	 0.5356244814	-0.2860593365	-0.9220139346	 0.093081
H	 0.5438816813	-0.337788708	 0.8611489616	 0.099222
H	-1.8538738756	 0.8474650697	 1.2604368215	 0.284554
H	-2.7993371237	 0.7469902283	-1.1440965865	 0.116704
H	-1.5642582013	-0.0486435525	-2.1433361876	 0.088346
H	-3.3738448372	-3.1433858682	-0.7083998125	 0.103439
H	-0.9447856825	-3.8477331952	-1.1768079089	 0.115596
H	-0.7045661524	-2.2930749545	-2.0929701583	 0.11578
H	-1.3539548387	-2.5371471507	 0.9750767074	 0.098375
