19
gdb 99301	5.76799	0.64695	0.59915	1.9472	75.17	-0.241	0.064	0.305	1844.323	0.158238	-456.355144	-456.344849	-456.343905	-456.392673	35.024	
C	-0.2323120816	 1.3242701093	 0.0771527717	-0.322111
N	 0.3066834478	-0.0227537279	 0.0470618782	-0.362944
C	 0.6500650717	-0.602779102	-1.1568001543	 0.50506
O	 0.691851527	 0.0139958121	-2.2087128524	-0.409835
N	 0.9463197167	-1.9500358657	-1.0629480941	-0.373534
C	 1.5220471956	-2.6593439401	-2.1901901732	-0.17321
C	 0.9607428809	-4.0548903875	-2.2799559687	 0.088616
C	 1.7887137839	-5.1978288468	-2.6767989547	-0.178568
O	 1.454313369	-4.9847019711	-1.3040266493	-0.245872
H	 0.1751963486	 1.862999451	-0.7783076762	 0.16781
H	-1.3281955626	 1.3460760391	 0.0057117923	 0.118503
H	 0.0693427752	 1.8285298374	 0.9999123143	 0.119464
H	 0.0354792527	-0.6384125664	 0.797264327	 0.235316
H	 1.1416478615	-2.3374694668	-0.1528107082	 0.242847
H	 1.2761933074	-2.080001294	-3.0836806582	 0.151368
H	 2.6175951826	-2.7161494293	-2.1172287704	 0.102322
H	-0.1168172253	-4.1134008663	-2.4368377499	 0.099704
H	 1.3236684795	-6.0644557228	-3.1437777981	 0.11869
H	 2.8358098896	-5.0401474321	-2.9326811758	 0.116372
