19
gdb 5301	4.25655	1.46925	1.20926	1.8453	77.98	-0.1937	0.0489	0.2426	1050.0784	0.16663	-327.973794	-327.965596	-327.964652	-328.006682	31.092	
C	 0.036276844	 1.5936940724	 0.1292167061	-0.385647
C	-0.0501811219	 0.0681840569	-0.0051306911	-0.088845
C	 0.8096593476	-0.6238025351	 1.0732805463	-0.374372
C	-1.4754514664	-0.410842241	 0.0305111052	 0.325407
C	-2.6484912352	 0.1999475606	 0.4224958436	-0.231497
C	-3.7077933245	-0.739987838	 0.2704819855	-0.144118
C	-3.1570553559	-1.9017215937	-0.2120020537	-0.09917
N	-1.8065291745	-1.6922415653	-0.3516374128	-0.297578
H	 1.0754892533	 1.9270640194	 0.049612265	 0.107795
H	-0.5469304925	 2.0953164237	-0.6479359948	 0.120739
H	-0.344278136	 1.9219254099	 1.1023829158	 0.121232
H	 0.3732069035	-0.2023740412	-0.9848039338	 0.073771
H	 0.7765304864	-1.7139448575	 0.9789834166	 0.102346
H	 1.8568331334	-0.3114264287	 0.9971789487	 0.108582
H	 0.4464599606	-0.3679204693	 2.0740592574	 0.122954
H	-2.7396144969	 1.2142478332	 0.7787543367	 0.086587
H	-4.7524331249	-0.5767143605	 0.48672452	 0.08827
H	-3.6023462016	-2.8490190931	-0.4704675291	 0.110549
H	-1.1518851984	-2.3709085828	-0.6999041218	 0.252992
