12
gdb 3755	7.20853	2.2238	1.71797	1.5836	52.81	-0.2303	0.0013	0.2316	684.4113	0.091782	-356.699504	-356.6932	-356.692256	-356.730145	22.048	
C	 0.0069008518	 1.3745933172	 0.091664876	-0.308647
N	 0.0087287346	-0.0695263614	 0.0240696133	 0.157113
N	-0.1644869975	-0.728686356	-1.109246492	-0.215721
C	-0.0975848996	-2.0150526184	-0.755432593	-0.133386
C	 0.1214141065	-2.0657634014	 0.6295456443	 0.370289
O	 0.2517941878	-3.1633096359	 1.3961127757	-0.423218
N	 0.186988156	-0.8287273157	 1.112505217	-0.346935
H	 0.9653983816	 1.736894539	 0.4729242574	 0.149725
H	-0.1560931435	 1.7450704305	-0.9192990248	 0.163497
H	-0.7932799045	 1.7216189024	 0.750912598	 0.149734
H	-0.2039057074	-2.8111429482	-1.4725578102	 0.128912
H	 0.3928857142	-2.868447852	 2.3041660183	 0.308638
