17
gdb 26629	3.31219	1.26208	0.92088	2.4259	87.23	-0.182	0.0192	0.2011	1237.6052	0.13567	-380.881897	-380.872532	-380.871588	-380.915607	34.879	
C	-0.0566051094	 1.5217179806	 0.074236051	-0.515435
C	-0.0012104746	 0.0341337614	-0.0074912647	 0.290014
C	-0.0280378018	-0.8000396635	-1.1031732761	 0.040235
N	-0.1565706879	-0.413836576	-2.4510354557	-0.628059
C	 0.0329815547	-2.1563620627	-0.6247120854	 0.137037
C	 0.0963243647	-2.0917253712	 0.7584459672	-0.213406
N	 0.0881686685	-0.778085796	 1.1120958195	-0.307134
C	 0.0284649673	-3.3074641098	-1.4406160211	 0.211786
C	 0.028405483	-4.255634457	-2.1870211351	-0.45257
H	 0.9274217722	 1.9863736447	 0.2261689541	 0.12381
H	-0.4697670562	 1.9204593109	-0.8567579018	 0.144742
H	-0.7052897261	 1.8600352055	 0.8912749754	 0.121673
H	 0.558139508	 0.2422086831	-2.742195803	 0.238767
H	-0.1145165791	-1.2240532167	-3.058800297	 0.24407
H	 0.1479391475	-2.8807733161	 1.4898753021	 0.125528
H	 0.1183945587	-0.4384686082	 2.0572879477	 0.259583
H	 0.0214004005	-5.103570429	-2.8250987869	 0.179359
