23
gdb 111924	2.15619	1.34044	0.91698	1.0368	89.42	-0.2348	0.0204	0.2552	1386.0444	0.204677	-388.305567	-388.295473	-388.294529	-388.340583	37.336	
C	 0.2267790342	 1.3755913888	 0.178547574	-0.232138
O	-0.0972432143	 0.0255271782	-0.0430672116	-0.246022
C	 0.5577923114	-0.5523084898	-1.1739462021	 0.08414
C	 2.0289009524	-0.8070444063	-0.9262528731	-0.194954
C	 2.2717576914	-2.0850172188	-0.6211375466	 0.335894
C	 3.5853111611	-2.693473864	-0.245695499	-0.492816
C	 1.0003467239	-2.9052140546	-0.6730187003	-0.30959
C	-0.0000136262	-1.9807436035	-1.4069371558	 0.000046
C	-1.4666258861	-2.1759619188	-1.0305894077	-0.399765
H	 1.2814821147	 1.5158022717	 0.4587561503	 0.10291
H	 0.0237787708	 1.995047679	-0.7106672808	 0.097387
H	-0.3999478677	 1.7296041151	 1.0015765866	 0.122155
H	 0.3756566074	 0.1015151139	-2.0428346757	 0.052134
H	 2.778785805	-0.0232310155	-0.9395380155	 0.082964
H	 4.3910575137	-1.9543937419	-0.245385488	 0.122264
H	 3.5363685018	-3.1459634529	 0.7531116307	 0.128066
H	 3.8595446905	-3.5006531197	-0.9368535739	 0.125018
H	 1.1376498034	-3.8637222484	-1.1885213719	 0.094709
H	 0.660008444	-3.1480075432	 0.3440283578	 0.108844
H	 0.1175605117	-2.1725919948	-2.4806292483	 0.07589
H	-1.6299695847	-1.9641614549	 0.0285303746	 0.131102
H	-2.1169720756	-1.5093411023	-1.6061589005	 0.109223
H	-1.7801006028	-3.2060396773	-1.2316717034	 0.102536
