18
gdb 106932	4.1205	1.10813	0.99263	4.0712	72.03	-0.2659	-0.0051	0.2608	1220.7201	0.148594	-439.108896	-439.100664	-439.09972	-439.141995	30.78	
C	 0.2887115503	 1.5036199824	 0.2195298806	-0.387588
C	-0.1515684732	 0.0688189692	-0.0994672515	-0.265654
C	 0.5213935733	-0.4878966074	-1.3307444819	 0.326916
C	 0.2332258364	 0.1206255378	-2.6984077826	-0.153004
O	 0.5298333107	-0.8932713237	-3.6713216916	-0.237602
C	 0.6508425867	-2.1260573179	-3.0779999817	 0.458544
O	 0.6642141367	-3.1410107577	-3.7094388379	-0.337546
C	 0.772237245	-1.9333339008	-1.5966315861	-0.260583
N	 1.8678914066	-1.0310736711	-1.1745144838	-0.361772
H	 1.3728195436	 1.5509760013	 0.3601683693	 0.134905
H	 0.0199785493	 2.1992741409	-0.5828851178	 0.118051
H	-0.1879277004	 1.860755132	 1.1365812638	 0.122966
H	 0.0897316979	-0.5853348666	 0.7441151933	 0.119756
H	-1.2393483977	 0.0283883537	-0.2369125226	 0.10531
H	-0.8222365198	 0.4022391922	-2.7930326734	 0.124973
H	 0.8508164607	 0.9963604847	-2.9221978404	 0.127204
H	 0.5288113265	-2.7566675223	-0.936906222	 0.120876
H	 2.4683819672	-0.7998075868	-1.9647776337	 0.244249
