15
gdb 116988	5.17122	0.592	0.55273	5.3964	84.93	-0.2791	-0.0822	0.1969	1924.5231	0.111582	-416.823356	-416.813665	-416.812721	-416.860269	32.615	
C	-0.2099041841	 1.4088580241	-0.1438611379	-0.373402
C	 0.3502146718	 0.0327292277	 0.2222208466	-0.159222
N	 1.037039136	-0.6133736618	-0.8896879684	-0.313841
C	 0.4819714399	-1.6286174507	-1.601802035	 0.253885
O	-0.6031248732	-2.1335023873	-1.3824273557	-0.344425
C	 1.3249875382	-2.1033564439	-2.700278998	-0.037429
C	 1.960199611	-2.5500118972	-3.6266570916	 0.166665
C	 2.6899650078	-3.0425148114	-4.6699451408	 0.205717
N	 3.3170167773	-3.4556245709	-5.5560312966	-0.323444
H	 0.5842016299	 2.0899900703	-0.4672193693	 0.118396
H	-0.9415626064	 1.3260182009	-0.95216168	 0.14036
H	-0.7039245295	 1.8564270166	 0.7238342081	 0.129203
H	 1.0505114364	 0.113175123	 1.0609036823	 0.117755
H	-0.4532291228	-0.6435224634	 0.5200469434	 0.158141
H	 1.9278685778	-0.2519896161	-1.1937396769	 0.261641
