20
gdb 69852	2.24723	2.06386	1.50053	1.3751	77.66	-0.219	0.0719	0.2909	971.2477	0.172157	-403.100693	-403.092898	-403.091954	-403.132216	32.396	
C	-0.0347060869	 1.4641788723	-0.0405630111	-0.489939
C	 0.0367754259	-0.035537215	-0.0464683478	 0.262774
N	-0.6260681428	-0.8551708795	 1.0033463604	-0.389066
C	 0.8524104203	-0.8978921061	 0.832520061	-0.080389
C	 1.3664782442	-1.9538981225	-0.1693647023	-0.054766
C	 0.0993054297	-2.2922444702	-1.0049624673	-0.295138
C	 0.2236433622	-0.7926089547	-1.3978957388	 0.369525
O	-0.3491037809	-0.2431234352	-2.5443801754	-0.487739
C	 1.7690374401	-1.0157216012	-1.3604270992	-0.253835
H	 0.7382526601	 1.8964343942	-0.6840822271	 0.132803
H	-1.002116046	 1.8191387095	-0.4146506392	 0.118911
H	 0.1020435642	 1.86248048	 0.9705359237	 0.110537
H	-0.8292887845	-0.2449319567	 1.7944397559	 0.220591
H	 1.4934359614	-0.5142463609	 1.6191757194	 0.086548
H	 2.0309454543	-2.7333691193	 0.1988663829	 0.066439
H	 0.339013717	-2.9364578226	-1.8527152184	 0.092923
H	-0.7932632007	-2.6269538201	-0.4808567109	 0.119363
H	-1.3070768452	-0.2789678577	-2.447243041	 0.281216
H	 2.4050106	-0.153185587	-1.1403449698	 0.088781
H	 2.1378895178	-1.5544419973	-2.2360892752	 0.100459
