18
gdb 103206	3.50316	1.37838	1.29376	3.7294	70.6	-0.2352	0.0548	0.29	1026.8051	0.148029	-439.005957	-438.998211	-438.997267	-439.037892	30.901	
O	-0.1825669168	 1.4647093379	-0.109480168	-0.436686
C	-0.0350859676	 0.0474558759	-0.0097833914	-0.158598
C	-1.4480166526	-0.5204037504	 0.0896790105	 0.476939
O	-2.2246130297	-0.0422230396	-0.9777902907	-0.49882
C	-1.457142203	-2.0250798027	 0.3080570952	-0.119342
C	-1.4496630436	-1.8565965916	 1.7857074406	-0.053272
C	-2.0349934675	-0.4175169944	 1.5423302081	-0.162935
C	-3.3842791727	-1.1273123381	 1.3838404897	-0.158733
N	-2.6546260463	-2.4199227039	 1.1249406618	-0.15728
H	 0.6378425942	 1.8380680788	-0.4427383764	 0.296635
H	 0.4563098808	-0.3551891186	-0.9071693303	 0.097509
H	 0.5605955915	-0.2311219252	 0.8695998113	 0.1015
H	-1.94917728	 0.875411131	-1.1106997216	 0.283956
H	-1.0168541693	-2.7990006189	-0.3078423506	 0.093531
H	-0.889946638	-2.3397792369	 2.5743947781	 0.097196
H	-1.8864430316	 0.4849946121	 2.1317126752	 0.07799
H	-3.9346545296	-1.2340059006	 2.3215452007	 0.102576
H	-4.0430578182	-0.7917937546	 0.578426908	 0.117834
