21
gdb 107414	3.13945	1.2043	1.09377	1.0634	78.34	-0.2413	0.0733	0.3145	1210.7561	0.182514	-424.213398	-424.204506	-424.203562	-424.246661	34.48	
C	 0.4304634071	 1.3342730287	-0.2002909318	-0.253761
O	 0.023100416	-0.0065925703	-0.0037319912	-0.292119
C	 0.4295242395	-0.5447097094	 1.2145735726	 0.452468
C	 1.8593719898	-0.9977816399	 1.3817162007	-0.353852
C	 0.7315235449	-2.0152124477	 1.2985483718	-0.106262
C	 0.1496828609	-2.548297632	 2.5966617468	-0.246167
C	-0.1366940315	-1.2981265608	 3.4697023817	 0.087935
O	 0.9678781331	-0.9477465194	 4.3051254127	-0.42668
C	-0.3413375464	-0.1441803296	 2.4690347053	-0.279139
H	 1.5225377052	 1.4392100211	-0.1316994344	 0.108552
H	 0.1055518761	 1.6226320043	-1.2029129167	 0.122634
H	-0.0293149492	 2.0166357254	 0.5289139109	 0.108139
H	 2.48456637	-0.9233016112	 0.4982084015	 0.107657
H	 2.3602145058	-0.836241969	 2.3288240393	 0.128455
H	 0.6758699549	-2.624707408	 0.4039111334	 0.089447
H	-0.7876452326	-3.0794398682	 2.3913341662	 0.101761
H	 0.8091119812	-3.2502159872	 3.1222506054	 0.087359
H	-1.0300859143	-1.4463466469	 4.0917407177	 0.068567
H	 1.1659996082	-1.7061520304	 4.8639030823	 0.280206
H	-0.021333852	 0.7999033577	 2.919156491	 0.110496
H	-1.4003592668	-0.0547039472	 2.2023134148	 0.104304
