23
gdb 118971	2.46735	1.0675	0.97601	2.423	82.6	-0.2387	0.0799	0.3186	1404.1884	0.203074	-425.403472	-425.392886	-425.391942	-425.439266	38.254	
C	-0.3605073052	 1.2850091576	-0.1026354805	-0.224383
O	-0.1133175168	-0.0945241878	 0.0087155977	-0.232124
C	 0.5394074049	-0.6289531095	-1.1189413696	-0.089124
C	 0.691834712	-2.1388183344	-0.9436221173	 0.397565
C	 1.3087777154	-2.4962711234	 0.399268271	-0.44077
O	-0.5914938655	-2.8054277241	-1.124805948	-0.32106
C	-0.179730999	-3.3729924347	-2.3808502357	-0.082646
C	 1.270142218	-2.8857157851	-2.1891207686	-0.075681
C	 1.9488280381	-2.1346821464	-3.326655099	-0.422912
H	 0.5725225552	 1.8617214815	-0.2114494297	 0.100216
H	-1.0068577894	 1.5161537377	-0.9643144859	 0.104623
H	-0.8664793565	 1.602035491	 0.8125249734	 0.127806
H	-0.0417880938	-0.4184261364	-2.030756293	 0.085006
H	 1.5348268562	-0.166211066	-1.2458591294	 0.079855
H	 0.7034691625	-2.0923107724	 1.213049846	 0.145062
H	 1.3701700311	-3.5824845384	 0.5061186475	 0.111818
H	 2.3186948914	-2.0782857553	 0.4821115617	 0.107863
H	-0.3424246836	-4.4565152231	-2.4187156428	 0.099297
H	-0.6997505431	-2.9104227882	-3.2329141496	 0.090134
H	 1.9199761528	-3.7001625971	-1.8551561175	 0.079822
H	 1.3257555504	-1.3243645336	-3.717583953	 0.120357
H	 2.9056137669	-1.7047474818	-3.0119237954	 0.120575
H	 2.1565580677	-2.8167606202	-4.1584177025	 0.118701
