15
gdb 14259	4.06181	1.79733	1.60188	1.6613	61.82	-0.2654	0.0166	0.282	823.4852	0.119878	-399.776813	-399.770131	-399.769187	-399.807749	25.839	
O	 0.5019176377	 1.0157319032	-0.6746174852	-0.429471
C	 0.0881672313	-0.1760278196	-0.0770403668	 0.145871
C	 0.2303763039	-0.3573269514	 1.4752990318	-0.286069
C	-1.3003288652	-0.6682996933	 1.5759256242	-0.16745
C	-1.4377047369	-0.3930791835	 0.0519081464	 0.058363
O	-2.1048022163	 0.8774802815	 0.3498168835	-0.289107
C	-2.1055670717	 0.5974511899	 1.7180980145	 0.442203
N	-2.6164276879	 1.2292690044	 2.6690876238	-0.540724
H	-0.1359212675	 1.6932658762	-0.4145882845	 0.291384
H	 0.5677430714	-0.9960177096	-0.6198044491	 0.098731
H	 0.8696177299	-1.1938967482	 1.7624798047	 0.116818
H	 0.5498184425	 0.5339993507	 2.0185171512	 0.124134
H	-1.6308265134	-1.5622880171	 2.0974164293	 0.107054
H	-2.0026174197	-0.9757025214	-0.6747910555	 0.096437
H	-3.0902813882	 2.0758603082	 2.3501633715	 0.231826
