17
gdb 62487	2.24089	1.769	1.27851	4.6516	70.16	-0.244	-0.0347	0.2093	1024.6507	0.135093	-455.175343	-455.166454	-455.16551	-455.208836	33.26	
C	 0.1297595008	 1.5527604547	 0.0771946232	-0.426793
C	-0.0934415321	 0.0306479218	-0.028196641	 0.241874
O	-1.460665811	-0.2773300743	-0.0984799426	-0.465588
C	 0.671327422	-0.5499322832	-1.2129322169	 0.336735
N	 0.1506171688	-0.5358934281	-2.37478005	-0.568898
N	 1.8770544413	-1.025326109	-0.7566929077	-0.348361
C	 1.9440709633	-1.1973747005	 0.6872675768	-0.28298
C	 0.5903866281	-0.6477984139	 1.1720156692	 0.370473
O	 0.1711799533	-0.7336777073	 2.2907278638	-0.294727
H	 1.1898933891	 1.8110130499	 0.1718554039	 0.116452
H	-0.264776048	 2.0273492723	-0.824978853	 0.139774
H	-0.4077976544	 1.9263007894	 0.9521288103	 0.144646
H	-1.6425933948	-0.3852094174	-1.0451178538	 0.294773
H	 0.7293164636	-0.9872653315	-3.0831313053	 0.209057
H	 2.4804549341	-1.5519376985	-1.3686915883	 0.247665
H	 2.0417662692	-2.2461687965	 0.9927609095	 0.144147
H	 2.7673179467	-0.6349585777	 1.1456270517	 0.141752
