19
gdb 61073	3.10128	1.10698	0.86472	3.6894	72.74	-0.2459	-0.0194	0.2265	1335.4854	0.157626	-460.172241	-460.16277	-460.161826	-460.208219	32.685	
C	-0.2413709211	 1.523612095	-0.0284249309	-0.419721
C	-0.1982421742	-0.0161549763	-0.048170787	-0.096707
C	-1.6138230762	-0.5512125555	-0.1693773251	 0.172172
O	-2.2610600602	-0.9831971731	 0.7473910151	-0.251113
C	 0.6541046003	-0.5235366853	-1.2055710452	 0.224407
O	 1.9891276938	-0.1120717519	-1.0509350127	-0.253235
C	 2.7521170972	-1.0612331567	-1.7816806684	-0.113028
C	 1.9797312655	-2.3745333167	-1.5587907545	-0.090428
O	 0.662424185	-1.9416467879	-1.2245770985	-0.27301
H	 0.7734521955	 1.924032847	 0.0237580309	 0.146974
H	-0.7175947204	 1.9203553855	-0.932320757	 0.12092
H	-0.8070008884	 1.8784387646	 0.8366817694	 0.135587
H	 0.2279714516	-0.397471207	 0.8838407379	 0.107158
H	-2.0504139371	-0.4725878358	-1.1934673141	 0.072161
H	 0.2584545951	-0.1536016482	-2.1728251469	 0.062728
H	 2.7863071983	-0.7947532815	-2.8484573844	 0.104022
H	 3.7682492845	-1.0705853724	-1.3831606616	 0.124645
H	 1.9574682626	-3.0050549933	-2.4544341117	 0.110774
H	 2.3873760383	-2.9580812704	-0.7253876752	 0.115695
