19
gdb 63044	2.63298	2.02713	1.55175	2.2762	73.1	-0.239	0.069	0.308	919.8057	0.160665	-422.984315	-422.977243	-422.976299	-423.015246	29.999	
C	-0.0448499891	 1.5697162781	 0.0067697745	-0.455221
C	 0.0591711407	 0.0519688869	-0.0005493756	 0.475275
O	-1.2604867362	-0.4422600047	-0.0787509856	-0.501999
C	 1.0044335962	-0.6059911387	-1.0509551497	-0.152593
C	 2.3892241366	 0.0150608406	-0.7390747864	-0.266016
C	 2.2711406614	-0.7688215107	 0.5804156065	-0.070458
C	 1.4486335523	-1.851613449	-0.1441746346	 0.098026
O	 0.5302801882	-2.0039020712	 0.9564817198	-0.313561
C	 0.8293906472	-0.5870904558	 1.1945997475	-0.002918
H	 0.9012018864	 2.0620946592	 0.23930092	 0.115676
H	-0.398068155	 1.934698106	-0.9623615369	 0.126427
H	-0.77899511	 1.8640664654	 0.7618578506	 0.128155
H	-1.1960943664	-1.3706371256	 0.1913068355	 0.281613
H	 0.6155258918	-0.7110667711	-2.0618825456	 0.073643
H	 3.1846285151	-0.4158462704	-1.3547694415	 0.104431
H	 2.4895234637	 1.1010561505	-0.7369996451	 0.103798
H	 3.0950152486	-0.9846464251	 1.2583068853	 0.081363
H	 1.8118541573	-2.7761944057	-0.5892838881	 0.091244
H	 0.6233624412	-0.2636095586	 2.2141470095	 0.083112
