20
gdb 102930	3.17993	0.70469	0.60434	3.4623	81.07	-0.2587	-0.0304	0.2283	1825.0495	0.168467	-403.183288	-403.172701	-403.171757	-403.220406	36.217	
C	 0.0073973104	 1.5984870236	-0.111285847	-0.399284
C	-0.0328606273	 0.0693131508	-0.1225728122	-0.185726
C	-1.4518206022	-0.519233494	 0.0542512279	-0.129651
C	-1.4586230794	-2.060343803	-0.0667907129	-0.210689
C	-2.8642255965	-2.6798101862	-0.0041456941	-0.292345
C	-2.8040265321	-4.1912809923	-0.0079363198	 0.159627
O	-3.3465251137	-4.9007348728	-0.8139689735	-0.232844
C	-2.0312678218	-0.1061896754	 1.3377733156	 0.289089
N	-2.4787378273	 0.2019182281	 2.3584513756	-0.336935
H	 1.0306895372	 1.9574658632	-0.2521384275	 0.124458
H	-0.6070264224	 2.0175502896	-0.9154920469	 0.120785
H	-0.3622172045	 1.9988811117	 0.8374083076	 0.14608
H	 0.3588804263	-0.3091155564	-1.0735912537	 0.109462
H	 0.6142963358	-0.3310894275	 0.6662907353	 0.118488
H	-2.0971753073	-0.1065216501	-0.7333054671	 0.128267
H	-0.9833323087	-2.3200569908	-1.0191140721	 0.121433
H	-0.8295336885	-2.4802388993	 0.7274552163	 0.122364
H	-3.3524829632	-2.3692440716	 0.9303954488	 0.146856
H	-3.4864265336	-2.3532661941	-0.8425947626	 0.124355
H	-2.1935492212	-4.6250945938	 0.8191608622	 0.07621
