20
gdb 62259	4.87038	0.5372	0.51742	1.8305	79.52	-0.2474	-0.0307	0.2167	2075.4293	0.168393	-440.31877	-440.308096	-440.307152	-440.356648	35.722	
C	-0.1084856548	 1.4534081274	 0.1397489857	-0.350509
N	 0.0174957818	 0.0178122949	-0.0502844799	-0.029498
C	-0.0274069542	-0.8547319667	 1.107616756	-0.1802
C	-1.4334069481	-1.029766723	 1.7033445545	-0.198824
C	-1.4228836302	-1.9499624513	 2.9361490148	-0.271862
C	-2.8221428096	-2.2026308529	 3.4523968895	 0.160234
O	-3.2034944719	-1.946596155	 4.5642985068	-0.232021
C	 0.1979786728	-0.4837577677	-1.30745738	 0.152526
O	 0.2404297027	 0.1664583775	-2.3298109148	-0.33848
H	 0.6414251915	 1.8117044614	 0.8549492482	 0.125493
H	 0.0507064557	 1.9292643977	-0.8278897638	 0.172082
H	-1.1017300039	 1.7283944886	 0.5120364775	 0.129561
H	 0.3629246346	-1.8342032641	 0.8083797112	 0.119031
H	 0.6524661588	-0.4640071714	 1.876995987	 0.114082
H	-1.8432697469	-0.0531376284	 1.9842226698	 0.12254
H	-2.0962687057	-1.4401085406	 0.9316507361	 0.114864
H	-0.9902255703	-2.9224983722	 2.6579571865	 0.120504
H	-0.8226423503	-1.5295668323	 3.7484782504	 0.125983
H	-3.5111493059	-2.6530080894	 2.6991370122	 0.074848
H	 0.3092881137	-1.5864393124	-1.2925265576	 0.069645
