19
gdb 65018	2.04531	1.37027	1.05771	3.84	75.82	-0.2478	-0.0358	0.212	1223.0413	0.155451	-423.025035	-423.015169	-423.014225	-423.060861	34.975	
C	-0.0655136696	 1.375944953	 0.742705091	-0.466249
C	 0.0209688005	 0.0322765717	 0.0405598344	 0.329507
C	 1.2715401024	-0.2767835994	-0.7554743149	-0.303206
C	 1.034847117	-0.9549907183	 0.5716265632	-0.313923
C	-1.3368878723	-0.4780584442	-0.4844699315	-0.248224
C	-1.6969415918	 0.2251771033	-1.7852620677	 0.158265
O	-2.1199375324	-0.3450296422	-2.7589183493	-0.241776
C	-1.3984211184	-1.9869362821	-0.6912819678	 0.161419
O	-2.0412694052	-2.7294370757	 0.0023666397	-0.250668
H	 0.9254638294	 1.7050428628	 1.0696981148	 0.123086
H	-0.4716073121	 2.1584375868	 0.0921386486	 0.122761
H	-0.7075246342	 1.3128973968	 1.6287732368	 0.127765
H	 1.1812638166	-0.8755770196	-1.6561937537	 0.124119
H	 2.0369192362	 0.4896057913	-0.8146025098	 0.119019
H	 1.632046208	-0.639696741	 1.4206044467	 0.118737
H	 0.7950235873	-2.0123841208	 0.5776175011	 0.132885
H	-2.1074118265	-0.2311232179	 0.2587664023	 0.119697
H	-1.5325665808	 1.324633079	-1.7919665675	 0.089168
H	-0.7920228343	-2.3703471536	-1.5385477866	 0.097617
