19
gdb 74777	2.80967	1.67444	1.45899	1.7163	80.18	-0.2261	0.0064	0.2324	997.4373	0.16111	-385.90162	-385.894223	-385.893278	-385.933071	30.033	
C	-0.0068578465	 1.4908299637	 0.0528740021	-0.502469
C	-0.0638578776	 0.0029212884	-0.0239150899	 0.344799
C	-0.0868332217	-0.8079824966	-1.080830427	-0.20361
C	-0.0294247314	-2.242737074	-0.5793831809	 0.025765
C	 1.4320227642	-2.7429349403	-0.4471915249	-0.258967
C	 2.1373223129	-2.0435086845	 0.6958160183	-0.053624
C	 1.498667607	-1.1830830197	 1.4899427797	-0.056894
C	 0.0269543856	-0.9152456108	 1.2076147666	-0.072373
O	-0.5664484126	-2.1284486675	 0.7433378103	-0.252511
H	 0.9139247824	 1.824791656	 0.5481417851	 0.13148
H	-0.0392282929	 1.9461786391	-0.9404592064	 0.127878
H	-0.8418149878	 1.8921384229	 0.6410893492	 0.128944
H	-0.0609628194	-0.5240619256	-2.1255586318	 0.093832
H	-0.6452975151	-2.9487120169	-1.1433512981	 0.077971
H	 1.4368296484	-3.8273093387	-0.2737121079	 0.113483
H	 1.97890728	-2.5812699694	-1.3866978875	 0.103401
H	 3.1898442673	-2.2703722689	 0.8460697948	 0.088954
H	 1.9976267432	-0.6598953865	 2.2996582644	 0.087442
H	-0.522810576	-0.5692367705	 2.0872202139	 0.076499
