15
gdb 85220	2.58739	1.16502	0.8738	4.3823	63.87	-0.2857	-0.0226	0.2631	1272.3118	0.110465	-494.941779	-494.933095	-494.932151	-494.976433	29.867	
C	-0.2424475705	 1.5045787132	 0.1026323681	-0.399114
C	 0.1139305918	 0.0388079935	 0.0258221279	 0.103938
O	 1.2635816131	-0.213726277	-0.8646480239	-0.25066
C	 2.0582185803	-0.6503917392	 0.1599929949	 0.438167
O	 3.2013743515	-0.9637573134	 0.1337107809	-0.308828
C	 0.9201471875	-0.5689501793	 1.1992707858	-0.083928
O	 1.1551708554	 0.270975477	 2.3018721367	-0.181688
C	 1.0221417473	-0.2476634238	 3.550760153	 0.179591
O	 1.1997966414	 0.402483512	 4.5300320193	-0.253921
H	 0.6058389952	 2.0992100129	 0.4482261673	 0.149901
H	-0.5522335706	 1.8642227177	-0.8820319551	 0.142142
H	-1.0720324216	 1.6506656084	 0.8011525794	 0.136932
H	-0.7279750073	-0.5754113147	-0.303414303	 0.108723
H	 0.5758881691	-1.559777612	 1.5164582764	 0.12651
H	 0.7341251873	-1.3162289654	 3.5371019623	 0.092237
