16
gdb 60831	1.99212	1.3489	0.84911	3.0188	71.46	-0.2716	-0.0669	0.2047	1290.9895	0.120209	-437.909377	-437.899356	-437.898412	-437.945821	33.446	
C	 0.0951601065	 1.5265560501	-0.0578164617	-0.423479
C	 0.0014998448	-0.0074322067	 0.0313007535	-0.079645
C	 0.6103276965	-0.594002172	-1.2392984031	 0.161729
O	-0.0345812831	-0.9656293651	-2.180075798	-0.229789
C	 0.7448723689	-0.5528086913	 1.2936759144	-0.248251
C	-0.0074693302	-0.1051069925	 2.557607146	 0.158645
O	 0.2484528147	 0.9114987969	 3.1401555791	-0.22778
C	 0.849366851	-2.0118061594	 1.2716962392	 0.266684
N	 0.9082410003	-3.1659326218	 1.2757728342	-0.300864
H	 1.1314515564	 1.8468156344	-0.2131147951	 0.132986
H	-0.5030432829	 1.8840691931	-0.8993294319	 0.147429
H	-0.26482801	 2.0025171447	 0.8566605597	 0.156645
H	-1.0459936328	-0.3239183451	 0.0593227186	 0.122452
H	 1.72512199	-0.6068044172	-1.2523875179	 0.089735
H	 1.7488887434	-0.1161985306	 1.3360781411	 0.15227
H	-0.8335798536	-0.7784222475	 2.866648652	 0.121233
