18
gdb 133748	2.32607	1.29147	1.24337	2.9077	60.86	-0.2664	0.0786	0.345	1121.0418	0.140654	-570.593718	-570.583619	-570.582675	-570.628906	36.328	
C	-0.0819994435	 1.3547576382	 0.133802553	-0.246429
O	 0.0287845078	-0.0413106676	-0.0404456852	-0.282163
C	 0.6909261379	-0.5075250833	-1.2093063349	 0.21073
C	-0.0499983737	-0.1136963663	-2.495415696	-0.443514
C	 2.1688572685	-0.0922606193	-1.2472495752	-0.443567
C	 0.6113287274	-2.0390877111	-1.0414406499	 0.292201
F	-0.6537816789	-2.4670109126	-0.9884017722	-0.076297
F	 1.2022907904	-2.6576400003	-2.0816920761	-0.088475
F	 1.2293673735	-2.448800917	 0.0705935318	-0.076317
H	 0.8957689908	 1.8494157622	 0.2072446389	 0.111746
H	-0.6596465928	 1.8351255233	-0.667262556	 0.111738
H	-0.6135636663	 1.5004683645	 1.076872949	 0.137077
H	 0.0403097947	 0.9592991862	-2.6799995596	 0.121283
H	 0.3747977752	-0.6377176779	-3.3546503542	 0.136028
H	-1.1083231076	-0.3713751375	-2.4156898326	 0.139309
H	 2.6537032555	-0.3341564854	-0.2989782672	 0.139309
H	 2.6904344378	-0.616179459	-2.0514888147	 0.136052
H	 2.2640911035	 0.9805872428	-1.4301931789	 0.121289
