23
gdb 95824	2.84153	1.14256	0.88123	1.2413	82.03	-0.2441	0.0747	0.3188	1376.8841	0.206419	-425.433826	-425.424384	-425.42344	-425.467843	36.461	
C	 0.1284543665	 1.6034373402	 0.0833210822	-0.394555
C	 0.0060874799	 0.0838258771	 0.0209350871	 0.134615
C	 0.5899787923	-0.4811577597	-1.2870371262	-0.207352
C	 0.1133064659	-1.8793378492	-1.7275817038	-0.201747
C	-0.2175706721	-2.8909050837	-0.6206418434	 0.126347
O	-0.1819605003	-4.1643864835	-1.2627042255	-0.440943
C	 0.7148349786	-2.8450142926	 0.5987693448	-0.227096
C	 0.3920702037	-1.7143798065	 1.5837679258	-0.075907
O	 0.7212589347	-0.4127308839	 1.1518438375	-0.254654
H	 1.1750505326	 1.9045372385	-0.0298160612	 0.122731
H	-0.4547893987	 2.0732174371	-0.7141244738	 0.110632
H	-0.2303422125	 1.97353232	 1.0471007837	 0.118731
H	-1.0581325402	-0.191761349	 0.1157051981	 0.061436
H	 0.3788503635	 0.2197484609	-2.102381326	 0.094228
H	 1.6777674485	-0.4739048136	-1.1530280345	 0.107916
H	-0.7727972048	-1.7891681067	-2.3652688442	 0.101775
H	 0.8867810866	-2.339896723	-2.3521370761	 0.112756
H	-1.2406352672	-2.6963773811	-0.2552471531	 0.059746
H	-0.4881459812	-4.8240185247	-0.6322034597	 0.276493
H	 0.5979837389	-3.790314064	 1.1478067827	 0.081297
H	 1.7639581816	-2.7906923984	 0.2857882509	 0.108954
H	-0.6792576954	-1.7670379563	 1.8500871548	 0.080114
H	 0.9627322392	-1.8612176379	 2.5064997601	 0.104485
