19
gdb 40918	3.72397	1.39004	1.33347	2.6494	74.24	-0.2457	0.0733	0.319	1023.0535	0.161014	-422.980935	-422.973885	-422.972941	-423.012486	28.473	
C	 0.0245640177	 1.5037308887	-0.0989563902	-0.147484
O	 1.427584605	 1.5198190329	 0.2371778044	-0.275022
C	 1.4369049418	 0.0945187015	 0.4611058441	-0.147483
C	 0.0133061935	-0.0371162901	-0.1138717472	 0.40309
O	-0.9630762109	-0.6882858932	 0.7098708161	-0.322962
C	-1.5448800839	-1.6361280218	-0.2078745249	 0.108549
C	-0.3073503482	-2.2465941025	-0.9093395713	-0.245387
C	-0.2021590666	-0.7782237909	-1.4352747136	-0.122088
C	-1.7644918114	-0.7926926468	-1.4871667979	-0.245388
H	-0.6009839432	 1.9300406114	 0.6955342685	 0.106826
H	-0.1829079722	 2.0149388245	-1.0473109937	 0.09876
H	 2.2454144382	-0.4080051563	-0.0843634865	 0.09876
H	 1.4949806404	-0.161278513	 1.526685811	 0.106826
H	-2.3185258813	-2.2103921546	 0.2981373461	 0.084157
H	 0.4896344713	-2.6324248175	-0.2691151621	 0.104026
H	-0.5569550365	-2.9593382417	-1.696905245	 0.103975
H	 0.4224338458	-0.487484256	-2.2788023798	 0.082843
H	-2.1527516802	-1.367091779	-2.3297142736	 0.103975
H	-2.3014262492	 0.1524315044	-1.3759050844	 0.104026
