19
gdb 48491	1.9159	1.63236	1.13162	1.7924	76.44	-0.2595	-0.06	0.1994	1149.0141	0.158472	-423.061793	-423.052829	-423.051885	-423.097203	32.154	
O	-0.0009713565	-0.1724160898	 0.41754868	-0.239475
C	 0.0170972888	 0.9922184277	 0.1195751371	 0.101092
C	 1.2802941719	 1.8463237384	-0.0235649857	 0.143731
C	 2.5622324568	 0.9766335065	-0.1640460115	-0.279271
C	 2.9882017262	 1.1459757551	-1.6330718892	-0.201553
C	 2.5592207883	 2.5806793308	-1.9788997241	-0.201536
C	 1.1860830159	 2.7297956608	-1.300330297	-0.279309
C	 1.3521867225	 2.6865579272	 1.2549289973	 0.101084
O	 1.0512195139	 3.847577165	 1.3381045652	-0.239456
H	-0.9221126971	 1.5536178121	-0.0783022143	 0.101184
H	 3.3470151445	 1.350842887	 0.5044731243	 0.101789
H	 2.3580955653	-0.0582185122	 0.1183156715	 0.13334
H	 4.0552605854	 0.9635876797	-1.7854309846	 0.102753
H	 2.4412288537	 0.4333872764	-2.2621454657	 0.108278
H	 3.2677914169	 3.2950700944	-1.5427077544	 0.108276
H	 2.5204998003	 2.774659827	-3.0540585709	 0.102752
H	 0.3937877187	 2.3559037507	-1.9601029572	 0.101786
H	 0.934490325	 3.75948503	-1.0381151214	 0.133344
H	 1.7163723296	 2.1183253932	 2.1386306205	 0.10119
