15
gdb 64627	2.96849	1.44222	1.35062	2.9372	71.63	-0.2539	-0.0199	0.234	993.5162	0.110568	-420.557991	-420.549972	-420.549028	-420.590295	30.804	
O	-0.0711718252	 1.4476963143	-0.0022421198	-0.449196
C	 0.0124103025	 0.0266887808	 0.0148401415	 0.181008
C	 0.6410632282	-0.5190619919	 1.3034674629	-0.140832
C	-0.1785898246	-1.3363438884	 1.9627405197	-0.081686
C	-1.4964513234	-1.425999144	 1.2584535914	-0.008205
O	-2.1713195817	-0.1456125249	 1.1998233438	-0.24639
C	-1.4118380023	-0.5645488607	 0.0755972431	 0.0103
C	 0.7260680653	-0.474367909	-1.1634855704	 0.287427
C	 1.3278114624	-0.8610855669	-2.130293981	-0.483179
H	 0.7846737149	 1.7873628666	-0.2851991871	 0.287449
H	 1.6307277943	-0.2039850141	 1.6126071047	 0.109628
H	 0.0327744257	-1.830022778	 2.9031768177	 0.113119
H	-2.1443916209	-2.2934322998	 1.3279460076	 0.104955
H	-1.955612719	-0.7242342576	-0.8500335514	 0.110285
H	 1.8556185337	-1.2086346065	-2.9842719727	 0.205315
