16
gdb 31084	2.28472	1.48863	0.91089	0.2027	68.39	-0.1757	0.06	0.2357	1224.7053	0.124742	-471.228988	-471.219779	-471.218835	-471.263237	32.996	
C	 0.0816276276	 1.4074916295	 0.0332958884	-0.231323
O	 0.0403354865	-0.0126496856	 0.0111008832	-0.280421
C	 0.6530473749	-0.6390169303	 1.0399400142	 0.339233
C	 0.7222473378	-1.9983317226	 1.1972118831	 0.107946
N	 0.2666999587	-3.1189202862	 0.4827744901	-0.618609
N	 1.4479774894	-2.1547326965	 2.3972303461	-0.322101
C	 1.741658757	-0.9216349422	 2.8414838156	 0.443846
O	 2.4370397006	-0.750154922	 3.9810407587	-0.426787
N	 1.2867683454	 0.0322726691	 2.0620631007	-0.455062
H	 1.112016835	 1.7783034841	 0.0069267789	 0.125993
H	-0.4542343147	 1.7363098936	-0.8591636703	 0.120834
H	-0.4053900184	 1.8080155041	 0.9289960234	 0.126017
H	-0.7440561083	-3.1327741449	 0.393880137	 0.244526
H	 0.6530167141	-3.1597054195	-0.4546775136	 0.244527
H	 1.6892486722	-3.0334458639	 2.8225877782	 0.270613
H	 2.5266404622	 0.2038130933	 4.0981357164	 0.310767
