19
gdb 104245	3.06934	1.13338	1.00605	1.9432	77.36	-0.2534	0.0343	0.2877	1238.9711	0.156684	-422.973987	-422.964337	-422.963393	-423.008732	35.694	
C	-0.4020485966	 1.6254497766	 0.147668718	-0.436582
C	-0.1451569694	 0.1323799966	 0.1013737749	 0.39447
C	-1.3714789553	-0.6673833956	-0.3453505303	-0.089823
O	-1.6868894172	-0.3765625976	-1.6904777107	-0.420655
O	 0.9479381324	-0.1902945966	-0.8143095492	-0.332837
C	 1.7280452704	-0.7970514054	 0.2311983154	-0.075845
C	 0.6355958798	-0.5162242219	 1.2986778635	-0.329504
C	 1.0040938815	 0.3140876572	 2.4243040295	 0.343712
C	 1.3203269136	 1.0024667749	 3.3582386897	-0.459039
H	 0.5205878848	 2.1743344828	 0.3463249424	 0.126611
H	-0.8161974405	 1.9490194097	-0.810636071	 0.135778
H	-1.121923697	 1.8644191021	 0.9369717584	 0.122805
H	-1.1723771759	-1.7424089405	-0.2051854686	 0.080708
H	-2.2462397938	-0.4045872961	 0.259664901	 0.111203
H	-0.8665393796	-0.5112726209	-2.1828627491	 0.293334
H	 1.9297679094	-1.8570513981	 0.0401556034	 0.109275
H	 2.6729071308	-0.269511043	 0.3965650838	 0.117111
H	 0.1473041301	-1.4290796673	 1.6534855637	 0.108319
H	 1.5961905126	 1.6091582533	 4.1850520352	 0.200957
