19
gdb 68582	4.13249	0.98377	0.91868	1.5196	81.31	-0.2574	0.0527	0.3101	1306.6747	0.157863	-385.810812	-385.802125	-385.801181	-385.844068	34.044	
O	-0.0775807849	 1.3369058191	 0.0258187253	-0.468145
C	 0.0246813478	-0.040089044	 0.004163149	 0.395874
C	 0.6658806913	-0.9828970204	 1.0715868581	-0.343129
C	 0.0464141578	-1.9044008532	-0.0209891227	 0.34945
C	 0.0613253243	-3.4196525473	-0.0320332625	-0.479983
C	-0.6085883607	-3.985534966	-1.1987373163	 0.307342
C	-1.1656476123	-4.4271386706	-2.1678332046	-0.456083
C	-1.2055743092	-0.9728934383	-0.0041290763	-0.282733
C	 0.6555609301	-0.9525388584	-1.0936846947	-0.316866
H	 0.8105719806	 1.7095918016	 0.0137214072	 0.282001
H	 1.7581317369	-0.9806542932	 1.144856013	 0.082948
H	 0.191680586	-1.0021211651	 2.0568178569	 0.092611
H	 1.1009519845	-3.7719704431	 0.0012800203	 0.131392
H	-0.4168245824	-3.7935319005	 0.8830877285	 0.132755
H	-1.6558607374	-4.828209866	-3.0199143856	 0.195849
H	-1.8134054772	-0.9881439311	 0.9047676069	 0.090981
H	-1.8196473049	-0.9680751061	-0.907420468	 0.101952
H	 0.1723771896	-0.9507208992	-2.0733369124	 0.102344
H	 1.7472536602	-0.9486677182	-1.1753581321	 0.081441
