18
gdb 9013	5.58856	0.79682	0.74428	2.9255	78.11	-0.2441	-0.0233	0.2208	1530.011	0.15013	-347.797049	-347.786925	-347.78598	-347.83411	33.642	
C	 0.0479442849	 1.4982374362	-0.0286457323	-0.498422
C	 0.0331029875	 0.0420477987	-0.0257681268	 0.108733
C	 0.0363032949	-1.1622904061	-0.0217512192	 0.031881
C	 0.0153028351	-2.6197357151	-0.0053746956	-0.368819
C	-1.4223598694	-3.2099578104	 0.0169558693	-0.052333
C	-2.2286225803	-2.8002809604	-1.2254252199	-0.405767
C	-1.3275358711	-4.7213392674	 0.0790447998	 0.155001
O	-1.7686368667	-5.4128776108	 0.9591383612	-0.244459
H	 0.907914176	 1.88706409	 0.5277392757	 0.150156
H	 0.1059744109	 1.8955219471	-1.0480085585	 0.148055
H	-0.8568782768	 1.9064487822	 0.4349520661	 0.149162
H	 0.547753092	-3.0091127918	-0.8847269361	 0.127359
H	 0.5651231317	-2.9853198976	 0.8713498603	 0.138042
H	-1.9320245551	-2.8754297937	 0.9251672717	 0.105124
H	-2.2475254476	-1.7113931569	-1.3162033009	 0.141274
H	-1.7784603783	-3.2066819579	-2.1388406857	 0.118632
H	-3.2582962341	-3.1637533432	-1.1639419941	 0.128904
H	-0.7984819336	-5.174290373	-0.7956342851	 0.067478
