22
gdb 100159	2.93442	0.91466	0.84286	3.9699	80.33	-0.2462	0.0369	0.2831	1486.4445	0.191228	-441.510502	-441.499375	-441.49843	-441.547661	39.453	
C	-0.2656033738	 1.3992735937	-0.1713961444	-0.24533
O	-0.0103611073	 0.0159596032	-0.0637453727	-0.289024
C	 0.7252728929	-0.6231910826	-1.1236964345	 0.337556
C	 0.0209705937	-0.4647512406	-2.4773763504	-0.41948
C	 2.1685548209	-0.1061236113	-1.1841734054	-0.425652
C	 0.7428736081	-2.098260109	-0.6782073251	-0.164963
N	-0.5914480488	-2.6172158444	-0.4548992003	-0.270824
C	-1.0751066079	-3.7321058167	-1.0591479819	 0.152168
O	-0.4563307015	-4.4463017632	-1.8214149055	-0.329917
H	 0.6545652235	 1.9947731954	-0.2443298052	 0.109977
H	-0.9085517769	 1.6459847696	-1.0270462219	 0.111039
H	-0.7870168907	 1.6887525579	 0.7448087679	 0.128012
H	 0.0249323471	 0.5755764806	-2.814096708	 0.114604
H	 0.5326581759	-1.0599056207	-3.239196741	 0.129286
H	-1.0149847895	-0.8073344951	-2.4174083621	 0.123061
H	 2.6346854326	-0.1568941456	-0.1958374234	 0.122974
H	 2.7599514018	-0.7123194264	-1.8773361102	 0.124747
H	 2.2141335228	 0.9283105793	-1.5354550677	 0.117775
H	 1.2109902303	-2.7286256692	-1.436318534	 0.142175
H	 1.3319347451	-2.1717012058	 0.2444598495	 0.108106
H	-1.1990859498	-2.0638818805	 0.1284247704	 0.253441
H	-2.1267223187	-3.9292607888	-0.7689989842	 0.07027
