21
gdb 90946	2.85521	1.70523	1.54489	1.3277	80.35	-0.2176	0.0807	0.2983	985.4622	0.186088	-387.101945	-387.094757	-387.093812	-387.133228	30.134	
C	-0.4865353192	 1.4881848595	 0.0914455772	-0.408497
C	 0.0925493722	 0.0851362593	-0.0474937656	 0.167008
O	 0.8192117885	 0.0265322715	-1.2843016947	-0.292149
C	 2.0648371142	-0.6188830849	-1.23614818	 0.128547
C	 2.3700760718	-1.7197545626	-0.2548861612	-0.096364
C	 1.3623710351	-1.8470624242	 0.8764405686	-0.232055
C	 0.9841465004	-0.3701236869	 1.1239728653	-0.069508
C	 2.3508574633	 0.3521030059	 1.0638199342	-0.226058
C	 3.0249184045	-0.3402377686	-0.1129216327	-0.095368
H	 0.2992546118	 2.2396697275	 0.2094474985	 0.120058
H	-1.0614231382	 1.7413577847	-0.8036742049	 0.125122
H	-1.1554093262	 1.5421233211	 0.957020193	 0.107885
H	-0.7489326627	-0.6234389688	-0.1215952142	 0.065545
H	 2.4582340005	-0.7111833232	-2.2423482023	 0.095811
H	 2.931737181	-2.5873118976	-0.5832824803	 0.07835
H	 0.4903886088	-2.4576883197	 0.6180361608	 0.096519
H	 1.8334940311	-2.2915401157	 1.7611396153	 0.093338
H	 0.4531877469	-0.2154128117	 2.0667230888	 0.066926
H	 2.252800885	 1.433035619	 0.9230283515	 0.101825
H	 2.9163726206	 0.1901411014	 1.9884709304	 0.096025
H	 4.0774279509	-0.1749138859	-0.3144631377	 0.077041
