20
gdb 99606	2.21585	1.23644	0.99646	4.9342	79.2	-0.276	0.0334	0.3094	1302.2534	0.169041	-403.152086	-403.142118	-403.141174	-403.187054	36.646	
C	-0.1174780399	 1.5922907208	-0.0930828401	-0.400585
C	-0.0781637185	 0.0636490762	-0.1316084483	-0.200384
C	 0.8044436883	-0.508864023	-1.2652517257	-0.193785
C	 2.2037264098	-0.0915109807	-1.1008646795	 0.297627
N	 3.2990798593	 0.2526148975	-0.9693114853	-0.334264
C	 0.708642589	-2.0339920739	-1.3620395554	 0.41894
O	 1.1065372353	-2.7155062706	-0.2070443358	-0.463165
C	-0.3887151016	-2.6383720692	-2.2036403121	-0.339447
C	 1.0617235135	-2.7160503647	-2.6445331388	-0.298511
H	 0.8823437626	 2.0097996655	 0.0581670926	 0.148248
H	-0.5154102302	 2.002422255	-1.0277174458	 0.118676
H	-0.7558572184	 1.9420342566	 0.7232020972	 0.12131
H	 0.2903416834	-0.3214944948	 0.8255887505	 0.11594
H	-1.0892454083	-0.3358863216	-0.2750317337	 0.105854
H	 0.4560718189	-0.0908658262	-2.218463694	 0.119771
H	 0.4047402679	-2.6401809739	 0.4486218714	 0.287734
H	-0.8424345279	-3.549308568	-1.8298911307	 0.121991
H	-1.0623337536	-1.9814802387	-2.744119683	 0.115298
H	 1.3830864872	-2.1098045381	-3.4841873912	 0.123973
H	 1.5600425234	-3.6735196183	-2.5537696123	 0.134779
