18
gdb 32617	4.58206	0.90292	0.80558	3.2317	90.59	-0.2009	0.0178	0.2187	1445.628	0.147501	-364.824322	-364.815427	-364.814482	-364.858448	33.302	
C	-0.0033822769	 1.5536572847	 0.0240566118	-0.369392
C	-0.0172695779	 0.0230354613	-0.0039827678	-0.158726
N	-1.3595200684	-0.5386568708	 0.0111604254	 0.028625
C	-2.1067764321	-0.7875280429	 1.1402338975	-0.079108
C	-3.3473396985	-1.2256752851	 0.7543251343	-0.297839
C	-3.3660564661	-1.2440824236	-0.6776633078	 0.142113
C	-2.1172616701	-0.8080047725	-1.0932665297	-0.214899
C	-4.4364385343	-1.6400463723	-1.5124087698	 0.252733
C	-5.3566727119	-1.9789987057	-2.2130353225	-0.465972
H	 1.0270269043	 1.9222469035	 0.0115389199	 0.121813
H	-0.5271231946	 1.9632779594	-0.8442941408	 0.134076
H	-0.4932307753	 1.9312514578	 0.9260117001	 0.132359
H	 0.4894039934	-0.3472414893	-0.9003759171	 0.124216
H	 0.5240700957	-0.3794483658	 0.858064564	 0.12266
H	-1.6833134648	-0.6341483716	 2.1203502485	 0.119244
H	-4.1575783979	-1.5198934703	 1.4021628589	 0.104498
H	-1.7220407944	-0.6789291661	-2.0879897342	 0.124783
H	-6.1649493502	-2.2777041807	-2.8323668406	 0.178814
