20
gdb 79969	1.88958	1.86208	1.60923	2.2643	80.01	-0.2188	-0.0008	0.2181	1021.9735	0.169868	-403.119916	-403.110854	-403.10991	-403.152876	34.815	
C	-0.2238599472	 1.4757913362	-0.1148531054	-0.305927
N	 0.0690994966	 0.0585540808	 0.0470532184	-0.129411
C	 1.3996650343	-0.5221761345	-0.1910331032	-0.12751
C	 2.5778021217	 0.3995384392	-0.1447598398	-0.076627
C	 2.7024650596	 0.9634535961	 1.0572382734	-0.135837
C	 1.6787846784	 0.4191039563	 2.0390897427	 0.017027
O	 0.8820348877	 1.404094959	 2.6932131591	-0.431703
C	 0.7875324053	-0.4992486967	 1.1836511476	 0.320966
C	 0.1472113673	-1.6789135371	 1.8731388781	-0.478825
H	 0.5923994457	 2.1567690128	 0.1519554953	 0.110323
H	-0.5018164221	 1.6485122876	-1.1602890365	 0.10836
H	-1.0823412657	 1.7207578555	 0.5157581905	 0.127073
H	 1.4164416924	-1.4051711591	-0.8246525339	 0.085037
H	 3.1984774951	 0.6072609571	-1.0093926313	 0.101155
H	 3.4237791765	 1.7253736275	 1.3355548532	 0.093353
H	 2.1850935128	-0.2020669832	 2.797811526	 0.074662
H	 1.4566762602	 1.9227359001	 3.2650808376	 0.284611
H	-0.5282948122	-1.334593052	 2.664726806	 0.127877
H	-0.4359587339	-2.2661409508	 1.1603426141	 0.125432
H	 0.9013110176	-2.3272932648	 2.3334700881	 0.109965
