20
gdb 7820	3.47851	1.64185	1.20098	1.7742	71.63	-0.2567	0.0924	0.3492	1050.499	0.177643	-386.159636	-386.151556	-386.150612	-386.191656	31.051	
C	-0.0184672284	 1.5364242097	 0.098491456	-0.402518
C	 0.027384917	 0.0207507721	 0.0019391396	 0.125947
C	 0.7212313494	-0.4963540549	-1.2654672935	-0.198706
C	 0.8995302813	-2.0184750706	-1.1848612101	 0.125947
C	 1.7483142891	-2.5946162139	-2.3057167883	-0.402518
O	 1.5338847118	-2.3561507445	 0.0496223702	-0.248258
C	 0.8224191185	-1.8585497267	 1.1494903331	 0.016271
O	 0.7232774846	-0.4608159737	 1.1526819443	-0.248258
H	 0.9948203925	 1.9493937731	 0.0880568635	 0.126018
H	-0.5752213768	 1.9581122492	-0.7439881318	 0.113446
H	-0.5047179012	 1.8447517636	 1.0280008318	 0.124374
H	-1.0024788751	-0.3803560482	 0.0256876751	 0.061248
H	 0.1367612133	-0.2294628122	-2.1535630703	 0.093762
H	 1.7072847462	-0.0243309655	-1.3519011864	 0.104431
H	-0.1004439022	-2.4894695031	-1.2017852407	 0.061248
H	 2.746721248	-2.1468528368	-2.2959031052	 0.126018
H	 1.8563913955	-3.675925504	-2.1849573922	 0.124374
H	 1.2868381139	-2.3957053572	-3.2778494108	 0.113446
H	-0.1919449727	-2.304701198	 1.1706623106	 0.069548
H	 1.3767614276	-2.1434004639	 2.046306012	 0.11418
