18
gdb 74106	2.42819	1.61797	1.07329	4.1855	80.43	-0.2303	-0.0425	0.1878	1135.3184	0.148958	-401.96761	-401.959669	-401.958725	-402.000066	30.619	
C	-0.2545269098	 1.5332896772	 0.016263482	-0.474413
C	 0.0107673173	 0.0551991136	-0.0017975974	 0.330122
C	-0.1324463663	-0.6786568168	-1.1175827268	-0.267828
C	 0.0869499844	-2.132529102	-1.1802992287	 0.436155
O	-0.2923220194	-2.8133602066	-2.1156602511	-0.35227
C	 0.7891056968	-2.7506920526	-0.0079160183	-0.166126
N	 2.0963123869	-2.1339801997	 0.3430069918	-0.331422
C	 0.9576587893	-1.9563114017	 1.2430043413	-0.039785
C	 0.4021039963	-0.5514079667	 1.3247977132	-0.310666
H	 0.6578807667	 2.084209077	 0.2775110642	 0.138037
H	-0.609647552	 1.8940705678	-0.9514152744	 0.133124
H	-1.000879451	 1.7897629424	 0.7789007822	 0.130727
H	-0.4721648361	-0.2229318365	-2.043099961	 0.098789
H	 0.6975668494	-3.8310979452	 0.0466101325	 0.100207
H	 2.7139611603	-2.8603034276	 0.6966385742	 0.24013
H	 0.9604754793	-2.5093468642	 2.1796897293	 0.092638
H	 1.1372274437	 0.0996744668	 1.8174486989	 0.120825
H	-0.4816146858	-0.5440357552	 1.9796731179	 0.121755
