21
gdb 115354	2.1352	1.49572	1.20875	1.444	74.87	-0.2535	0.0676	0.3211	1168.8763	0.181298	-461.362022	-461.352075	-461.351131	-461.397199	35.776	
C	-0.0595091671	 1.1639858709	-0.7069024117	-0.239007
O	-0.169264251	-0.2419127953	-0.6056682279	-0.233657
C	-1.2299729583	-0.664612451	 0.2030078733	 0.220197
O	-2.4937924685	-0.3125392776	-0.325727264	-0.26901
C	-2.9923018214	-1.3740049125	-1.1444127313	-0.095478
C	-2.0463174728	-2.5833309212	-0.9750946332	 0.070668
O	-1.1571062438	-2.7503053686	-2.0680247849	-0.421758
C	-1.2377694039	-2.1976944695	 0.2798324414	-0.032547
C	 0.1255593516	-2.8666779426	 0.4228471568	-0.402472
H	 0.8105059572	 1.3736600469	-1.3329689898	 0.123923
H	-0.9529654112	 1.6058480437	-1.1637418785	 0.122481
H	 0.0917084171	 1.6259523743	 0.2815076806	 0.100993
H	-1.1651423742	-0.1721386492	 1.1856469603	 0.062667
H	-4.0144852868	-1.5999308369	-0.8172150323	 0.098438
H	-3.0241993581	-1.0619035954	-2.1962225637	 0.095116
H	-2.6162521546	-3.5079974164	-0.8070203795	 0.064117
H	-1.6761148949	-2.9887136698	-2.8417804608	 0.283051
H	-1.8656264527	-2.4471651431	 1.1437547931	 0.081753
H	 0.7595468545	-2.6329556399	-0.4315286182	 0.154808
H	 0.6278043995	-2.523250621	 1.3328031385	 0.107766
H	 0.0170925095	-3.9537389857	 0.4882442017	 0.107953
