20
gdb 88031	2.28189	1.366	1.06468	0.9436	85.77	-0.2385	0.0395	0.278	1230.0034	0.169796	-365.948605	-365.939422	-365.938478	-365.982404	35.091	
C	-0.0663548276	 1.5244436339	-0.0881987346	-0.394413
C	 0.0065361929	 0.0232169486	 0.0390044081	-0.068916
N	 1.344307608	-0.592256609	-0.1335538954	-0.397072
C	 0.6873088923	-0.6580565686	 1.1621684092	 0.350452
C	 1.2041082287	-0.0699519706	 2.4774661218	-0.301517
C	 0.3116281396	-1.0984911167	 3.2285399804	-0.229869
C	 0.1726519283	-1.9194938075	 1.9002000296	-0.254575
C	-1.1094792446	-2.4842459676	 1.5367510836	 0.316813
C	-2.1796170735	-2.9349368328	 1.2203958584	-0.45077
H	 0.8208985472	 1.9931315391	 0.3453729897	 0.125821
H	-0.1209656808	 1.8215417333	-1.140902671	 0.120814
H	-0.9538458497	 1.9179715758	 0.4197859797	 0.115053
H	-0.8377449951	-0.520075862	-0.3832365987	 0.09535
H	 1.2677361835	-1.4857592195	-0.6153708215	 0.229506
H	 2.2729313773	-0.2586714388	 2.614655039	 0.111394
H	 1.0070580551	 0.9878175783	 2.6638263077	 0.107806
H	 0.7513032295	-1.6273200992	 4.0753099186	 0.107932
H	-0.6482360957	-0.6742998467	 3.5283367219	 0.117275
H	 0.9460272449	-2.6976787382	 1.8691261775	 0.103512
H	-3.1241274103	-3.3391879016	 0.9521948761	 0.195403
