13
gdb 46226	2.98068	1.36125	1.07423	5.0175	65.11	-0.2897	-0.0329	0.2568	1071.1224	0.08853	-452.712671	-452.705038	-452.704094	-452.745294	27.452	
N	 0.0124107396	 1.2071969355	-0.2399111773	-0.530982
C	 0.0203683229	-0.0160880215	 0.0031046113	 0.395373
O	 1.0072407369	-0.8701196122	 0.4742965451	-0.259323
C	 0.107967836	-2.0223816051	 0.5017611835	-0.158931
C	-0.9870662366	-1.1321307233	-0.0836935844	 0.298082
O	-2.3332004417	-1.0844084991	 0.3014161998	-0.236382
C	-2.0497028843	-1.4112678827	-1.0661933825	-0.220804
C	-2.4330264972	-0.4473947851	-2.0733304738	 0.340368
N	-2.7532470777	 0.274558766	-2.9161234544	-0.312991
H	 0.9104158831	 1.6525113777	-0.048427825	 0.245618
H	 0.4805010779	-2.8346096669	-0.1257870773	 0.139742
H	-0.0764430445	-2.3632770199	 1.523200684	 0.147204
H	-2.2425453744	-2.4475115032	-1.3387921791	 0.153026
