12
gdb 132928	3.14339	1.41593	0.9762	3.3868	62.31	-0.2187	-0.059	0.1597	1059.8618	0.077993	-518.086564	-518.079584	-518.078639	-518.118327	26.207	
F	 0.0309058157	-0.0054461116	 0.0028715397	-0.056985
C	-0.0257532279	 1.3255792491	 0.0107653686	 0.058092
C	-1.1936518977	 2.010241379	 0.029446012	-0.060962
N	-1.1680634999	 3.3650061449	 0.0363968618	-0.31761
C	 0.020975322	 4.1248123157	 0.0252242934	 0.431671
N	-0.0905185273	 5.3943362177	 0.0336609311	-0.56758
N	 1.2070750034	 3.3928015025	 0.0060790811	-0.363583
C	 1.1669883565	 2.1149326331	-0.0002832174	 0.244503
F	 2.3071626551	 1.4461603583	-0.0185514186	-0.041305
H	-2.158267317	 1.5194082349	 0.0391910473	 0.163389
H	-2.0228399649	 3.9009736426	 0.0502876802	 0.280096
H	 0.8369455121	 5.8127194637	 0.0240958309	 0.230274
