14
gdb 45924	3.00171	1.46189	0.9891	2.861	67.07	-0.2686	-0.0537	0.2148	1094.3859	0.103068	-470.075671	-470.067887	-470.066943	-470.109501	28.039	
N	-0.0785947953	 1.2919818811	-0.3112209834	-0.456036
C	-0.0242386995	 0.0565521148	-0.0324391555	 0.283778
N	 1.1538332938	-0.6784146876	 0.1488150945	-0.398725
C	 1.2910227358	-2.0156970945	 0.4520670079	 0.410258
O	 2.3749836099	-2.5353847895	 0.5840646091	-0.345682
C	 0.0049326072	-2.8054615592	 0.6122223256	-0.274076
N	-1.2056078492	-2.0366768858	 0.4228918789	-0.355386
C	-1.3335694828	-0.7102487544	 0.1225052019	 0.405489
O	-2.407445256	-0.1717083615	-0.0132366077	-0.330726
H	 0.8524421933	 1.7072216283	-0.3921295041	 0.22051
H	 2.0350535908	-0.1872283032	 0.050276004	 0.259032
H	 0.0609109782	-3.6369612468	-0.1016991383	 0.159423
H	 0.0375778633	-3.2510432833	 1.6145062233	 0.159427
H	-2.0899968393	-2.5152725484	 0.5187154438	 0.262714
