20
gdb 22246	3.38088	0.7546	0.71116	2.3482	76.35	-0.2441	0.0066	0.2508	1663.7851	0.167246	-477.36815	-477.357189	-477.356245	-477.405015	38.297	
C	-0.0108071469	 1.2366691539	-0.0978981704	-0.230773
O	 0.1049875034	-0.1682219507	-0.0679040192	-0.248716
C	 0.4868307993	-0.6771360524	 1.1960919599	-0.093505
C	 0.7060751401	-2.1834621809	 1.0088470241	 0.036795
O	 1.6112286082	-2.4048151043	-0.060219231	-0.443221
C	 1.269933584	-2.8129784764	 2.2619578271	 0.36196
C	 2.7127458878	-2.5987283813	 2.62310422	-0.477393
N	 0.4345308666	-3.4914372502	 2.9511384026	-0.176698
O	 1.0155723612	-3.9908736591	 4.1250739305	-0.395838
H	 0.9400051023	 1.727649839	 0.1602223412	 0.110573
H	-0.2933298217	 1.5194878476	-1.1146136232	 0.132208
H	-0.7840203389	 1.592766667	 0.5990843445	 0.11274
H	 1.4166632438	-0.1920779495	 1.5353536346	 0.092747
H	-0.2938218652	-0.4964180831	 1.9503433503	 0.104825
H	-0.2692997999	-2.645793407	 0.804557	 0.091225
H	 1.3665479313	-1.7618466556	-0.7382561535	 0.292732
H	 2.8016506119	-1.9423293601	 3.4963462164	 0.136585
H	 3.1731194145	-3.5507547251	 2.9007636071	 0.148426
H	 3.2527313106	-2.1651506136	 1.7817067315	 0.138776
H	 0.2954713175	-4.5064471482	 4.5033579876	 0.306555
