23
gdb 95351	2.83511	1.30384	1.03332	1.5014	84.75	-0.2576	0.0756	0.3332	1238.678	0.208766	-388.298928	-388.290675	-388.289731	-388.331346	33.714	
O	-0.0789478041	 1.4572613335	 0.0466066764	-0.443951
C	 0.031612892	 0.038662846	 0.0281195265	 0.139221
C	 0.7607461518	-0.4994275381	 1.2646044289	-0.221774
C	 0.8897789142	-2.0291120969	 1.2116011251	-0.247535
C	-0.4348290576	-2.7311370727	 0.9134754926	 0.055283
C	-1.588293004	-2.8050804751	 1.9545026315	-0.235419
C	-2.589637773	-2.6539274923	 0.7755418362	-0.22673
C	-1.4351540719	-2.0498809211	-0.0756680215	-0.022718
C	-1.3914941086	-0.5130527704	-0.020629053	-0.199989
H	 0.8072994437	 1.8215091137	 0.1388143091	 0.27575
H	 0.5790112105	-0.2861746788	-0.8755008835	 0.055206
H	 1.7589492364	-0.047374401	 1.3375537498	 0.076544
H	 0.2049867488	-0.1785995359	 2.1549050051	 0.101719
H	 1.6072314359	-2.2889657941	 0.4211680818	 0.093235
H	 1.3189650102	-2.4078387722	 2.1474711874	 0.093986
H	-0.2288566975	-3.7484096548	 0.5624426587	 0.06629
H	-1.6533843109	-3.7052918891	 2.5708063613	 0.091138
H	-1.6065713822	-1.9342224312	 2.6166002768	 0.101723
H	-2.9096907956	-3.6280426897	 0.39488202	 0.096049
H	-3.4748155748	-2.0311230537	 0.9302151061	 0.093831
H	-1.3685270012	-2.3882029373	-1.1142180671	 0.058718
H	-1.9059425739	-0.1451045201	 0.8761138946	 0.099313
H	-1.9232896084	-0.0850041286	-0.8766626028	 0.100109
