15
gdb 30388	4.13774	1.13172	0.89354	4.0282	76.27	-0.2153	-0.0295	0.1858	1239.1606	0.112559	-453.97233	-453.964153	-453.963208	-454.005339	29.779	
C	 0.0418826834	 1.4616065905	-0.0356605158	-0.328047
N	 0.1372542807	 0.0172381115	-0.0664354481	-0.31384
C	 0.6192314605	-0.6209619765	 0.926411595	 0.374489
C	 0.7203428398	-2.0745174609	 0.9065880142	-0.327414
C	 1.2297110804	-2.7170803808	 1.9636871632	 0.476272
O	 1.3779082605	-4.0419162111	 2.0732270403	-0.407264
O	 1.6677647811	-2.0612476981	 3.0827151274	-0.240849
C	 1.5521893088	-0.6920524426	 3.0525948255	 0.1177
N	 1.0912035641	 0.0132851684	 2.116550228	-0.301441
H	 0.5996890758	 1.872359277	-0.8866889515	 0.119193
H	-1.0056474992	 1.751489055	-0.1862251415	 0.119188
H	 0.4094770545	 1.9246297007	 0.8864530365	 0.122829
H	 0.3845353381	-2.6258568073	 0.0404797526	 0.129353
H	 1.7668288383	-4.2366802539	 2.9349793971	 0.311956
H	 1.9268087032	-0.274745752	 3.982693947	 0.147873
