16
gdb 44030	3.28579	1.6834	1.5396	0.9749	73.94	-0.2211	-0.0419	0.1792	898.1096	0.123898	-400.587137	-400.58041	-400.579466	-400.618217	27.257	
O	-0.0343185605	-0.0214702796	-0.2383200428	-0.267301
C	-0.026083793	 1.1591479444	-0.0946519864	 0.320231
C	-1.1499869527	 2.220947478	 0.2904079098	-0.451244
C	 0.0055214513	 3.043281607	 0.8909308183	 0.269326
C	 0.7547121152	 2.8619502645	 2.2130640533	-0.292521
C	 1.8360278219	 3.1080601862	 1.1581281753	-0.040787
N	 0.9902975042	 4.2182803404	 0.454208135	-0.196416
C	 1.1677193916	 3.5022726581	-0.8799538428	-0.208194
C	 1.0480972848	 2.2911719529	 0.0471288453	 0.033398
H	-1.6045548112	 2.6581012737	-0.6030924224	 0.148599
H	-1.9410401401	 1.8742367984	 0.9589956916	 0.141084
H	 0.6221032009	 3.6467741821	 2.9618311621	 0.116377
H	 0.7301539097	 1.8646658025	 2.6602809749	 0.115089
H	 2.9142584561	 3.2505681041	 1.2634635937	 0.093488
H	 0.3604350058	 3.7015454447	-1.5916498007	 0.108412
H	 2.1396482961	 3.6836414527	-1.348334804	 0.110461
