19
gdb 39439	2.43906	1.97631	1.34344	0.6717	74.8	-0.242	0.076	0.3179	986.9417	0.16126	-422.991285	-422.984089	-422.983144	-423.02268	29.122	
C	-0.0007382402	 1.5221062517	-0.0124701941	-0.411016
C	 1.2955935092	 0.7512337877	 0.0459596711	 0.060533
O	 1.9854324813	 0.6899355935	 1.2576911509	-0.258444
C	 2.0739593218	-0.6557345582	 1.7347397141	-0.08286
C	 0.6973526223	-1.1467077126	 2.1881389797	-0.233097
C	-0.3484305985	-0.9701435714	 1.0906325322	 0.092329
O	-0.3689775506	-2.0349635528	 0.0987972492	-0.301647
C	-0.3855074333	-1.0776608874	-0.9886241293	-0.152982
C	-0.0110011805	 0.0249383851	-0.0149597418	 0.253251
H	-0.3218253734	 2.0279998321	 0.8924458748	 0.124446
H	-0.2325988964	 2.0462773163	-0.9343684589	 0.116984
H	 1.935424091	 0.7557949694	-0.8379657927	 0.086229
H	 2.4835458789	-1.3105357878	 0.9519155038	 0.101682
H	 2.7795826773	-0.6370237637	 2.5690295783	 0.109284
H	 0.7325549378	-2.2017059202	 2.4824220669	 0.11415
H	 0.3910900577	-0.56741685	 3.0667508083	 0.106148
H	-1.3525594714	-0.8457877087	 1.5209160208	 0.071902
H	 0.3368833219	-1.3256312057	-1.7752427416	 0.104463
H	-1.3884466349	-0.9874224974	-1.4299765616	 0.098643
