20
gdb 51725	2.92314	1.08503	0.88218	3.1962	83.01	-0.2535	0.027	0.2805	1366.1512	0.170525	-403.120712	-403.111751	-403.110807	-403.155672	33.143	
N	 0.3515458525	 1.0558630653	-0.3922120665	-0.445192
C	 0.1780484174	-0.1621287465	-0.1111561981	 0.12017
O	-1.059458971	-0.69227244	-0.135105096	-0.187969
C	-1.2230855344	-2.0503408413	 0.2400674512	 0.077152
C	-2.0935207946	-2.3299808598	 1.4909508317	-0.251312
C	-2.8137091089	-3.4593678056	 0.6931266335	-0.310097
C	-2.2265321783	-2.8531721613	-0.5894977823	 0.337023
C	-3.010969957	-2.2802121932	-1.732677105	-0.303927
C	-2.0592494825	-3.4324244104	-1.9603021374	-0.340832
H	 1.3415002428	 1.2854514699	-0.3362649771	 0.227939
H	 0.957880782	-0.8875423205	 0.1617064963	 0.084449
H	-0.2414843704	-2.5392465211	 0.295744785	 0.079084
H	-1.5754289741	-2.6010835641	 2.4131298857	 0.100393
H	-2.7542824088	-1.4816146839	 1.681572021	 0.126361
H	-2.414044351	-4.4530698872	 0.9177065732	 0.104469
H	-3.9027292724	-3.4947695337	 0.7686474046	 0.108021
H	-4.0770000388	-2.4813777307	-1.7663303587	 0.112295
H	-2.7216588387	-1.2988206947	-2.0915709497	 0.136422
H	-1.1334003556	-3.2307001175	-2.4907611747	 0.112602
H	-2.4774856282	-4.4155451137	-2.1516777366	 0.112949
