16
gdb 43338	2.96025	1.88649	1.40388	4.1659	74.43	-0.2436	-0.063	0.1807	913.6317	0.127055	-400.726056	-400.719632	-400.718688	-400.756752	26.187	
O	 0.0290815189	-0.0213993105	-0.0357831354	-0.339828
C	-0.0532144315	 1.1923347607	-0.0188402376	 0.388438
C	-1.3521819513	 1.8968323229	-0.0375987615	-0.177255
C	-1.4172600031	 3.2299773874	 0.0797265684	-0.05121
C	-0.1759750618	 4.0293560679	 0.3317959624	-0.120911
C	 0.5522455976	 3.6273933257	 1.6626270335	-0.155562
N	 1.7021972369	 3.0109216375	 0.9347163696	-0.146956
C	 1.1004410106	 3.4965586613	-0.355228848	-0.060726
C	 1.1908982366	 2.0437958025	-0.0947997449	-0.126744
H	-2.2299761661	 1.2710498444	-0.1584050382	 0.115587
H	-2.376159931	 3.741410694	 0.0812901023	 0.11471
H	-0.3377990676	 5.101088522	 0.2245583151	 0.090163
H	 0.9241470063	 4.4958500668	 2.2103779667	 0.124118
H	 0.0149782161	 2.9600675237	 2.3419645294	 0.119055
H	 1.6802797731	 4.0118896612	-1.1141359414	 0.105539
H	 2.0258516763	 1.5012576524	-0.5262556503	 0.121583
