13
gdb 1211	8.12805	1.33752	1.16507	1.5599	57.1	-0.2708	0.01	0.2808	962.1235	0.098562	-344.452972	-344.444932	-344.443988	-344.486557	26.681	
C	-0.0161573956	 1.4579693044	-0.090595539	-0.477351
C	-0.0976830805	-0.0406303009	 0.0626442426	 0.442098
O	-0.2420942408	-0.6412064018	 1.0968387724	-0.344939
O	 0.014677609	-0.6484025677	-1.1408454957	-0.236256
C	-0.0519208253	-2.0882517187	-1.0950734548	-0.225742
C	 0.0811917037	-2.6057123511	-2.4458529228	 0.28674
C	 0.1882495374	-3.0669138729	-3.5490293229	-0.413776
H	 0.936189303	 1.7356091376	-0.5507776976	 0.154007
H	-0.8118677178	 1.8101064867	-0.7529001279	 0.153994
H	-0.1092538851	 1.9271456276	 0.8878981256	 0.150357
H	 0.7436486783	-2.4664966117	-0.4440280084	 0.152784
H	-1.0030656527	-2.3920852586	-0.6446651095	 0.152786
H	 0.2831903665	-3.4726677928	-4.525958482	 0.205299
