19
gdb 52764	2.13423	1.15288	0.98541	2.1419	81.78	-0.2231	0.0427	0.2658	1347.709	0.155764	-422.984051	-422.973505	-422.972561	-423.020326	37.621	
C	-0.1452712118	 1.43228119	 0.005682985	-0.502475
C	-0.0796609562	-0.0226626062	 0.0032579066	 0.103232
C	 0.0178574201	-1.2258413846	 0.0249779811	-0.005834
C	 0.0794963542	-2.6590351387	 0.0135540029	 0.029283
C	 1.1766594278	-3.2937096823	-0.825152007	-0.463125
C	-0.3924767019	-3.4248813266	 1.2687735269	 0.078745
O	-0.816190047	-2.7562012959	 2.400827681	-0.425196
C	-1.2809158808	-3.3708523929	 0.0588293527	 0.001449
O	-2.4315883813	-2.5946092289	 0.2257755907	-0.431041
H	 0.8504282491	 1.8686082964	 0.1417843406	 0.154341
H	-0.5523500964	 1.8217972311	-0.9340547394	 0.147033
H	-0.7789353729	 1.7987211758	 0.8207708649	 0.152325
H	 2.1645645663	-2.9860474252	-0.4690359977	 0.13187
H	 1.1230649088	-4.3855778051	-0.7685527433	 0.116937
H	 1.0865756647	-3.0056222106	-1.8775245079	 0.126265
H	 0.151306393	-4.3385265145	 1.4933633129	 0.103455
H	-1.693198746	-2.4050688153	 2.1826622966	 0.289249
H	-1.4244839126	-4.2412552325	-0.5771460517	 0.100925
H	-2.2515889474	-1.7189240939	-0.146371255	 0.292563
