17
gdb 93548	3.46513	1.27296	0.97449	2.5657	72.07	-0.2567	-0.0128	0.2439	1181.6728	0.137837	-455.19499	-455.186909	-455.185965	-455.227972	30.155	
C	-0.0920541256	 1.520691111	 0.0167876754	-0.390062
C	 0.0039726888	-0.0101567351	 0.0062384942	 0.024445
C	 0.7522322598	-0.4867598239	-1.2383137	-0.09667
O	 0.5455503126	-1.8754897418	-1.5358638746	-0.231808
C	 1.1330967909	-2.841558582	-0.8174334115	 0.466402
O	 1.2649306983	-3.9555398946	-1.2508295582	-0.368078
N	 1.5976513634	-2.5144999262	 0.4619942763	-0.381837
C	 1.2707326496	-1.5062351252	 1.3739947006	 0.094222
N	 0.6028166174	-0.4394258543	 1.261406492	-0.243475
H	 0.9061014343	 1.9713009381	 0.0066008421	 0.121222
H	-0.6505542493	 1.8910196376	-0.8482685965	 0.11347
H	-0.5947976829	 1.8479265139	 0.9290348534	 0.135655
H	-1.0138269487	-0.4227134149	-0.0460128504	 0.106949
H	 0.3780940651	 0.0284935484	-2.1250440578	 0.131702
H	 1.8251012311	-0.2801416753	-1.1454729478	 0.126582
H	 2.0754674306	-3.3088079701	 0.8636277379	 0.268856
H	 1.7013732647	-1.7356906657	 2.350576075	 0.122426
