18
gdb 70037	4.18716	1.07549	0.94691	1.0336	88.61	-0.2199	-0.0293	0.1906	1261.2717	0.147353	-364.776983	-364.768654	-364.76771	-364.809518	32.678	
C	 0.0345355766	 1.504477387	-0.0582829051	-0.469487
C	-0.048494593	 0.0058806305	 0.081167647	 0.326603
C	-1.3921145025	-0.689554165	-0.1571084574	-0.392605
C	-1.338584061	-1.926945567	 0.734422832	 0.156785
C	-0.2127080149	-1.9336450734	 1.4751723634	-0.189881
C	 0.6702345687	-0.7898588742	 1.131745327	-0.097166
N	 1.1622958687	-0.745197209	-0.272115423	-0.364628
C	-2.3591320954	-2.9043822753	 0.7266078043	 0.220095
C	-3.2577762208	-3.7074226166	 0.6900184934	-0.420895
H	 1.0422413302	 1.8539227297	 0.1785518389	 0.131029
H	-0.1939924054	 1.8138889924	-1.0847719918	 0.121152
H	-0.6772633633	 2.0016930424	 0.6094443571	 0.11654
H	-2.2309220913	-0.0435446546	 0.1309542279	 0.122135
H	-1.5479883914	-0.9491483072	-1.2113422092	 0.122395
H	 0.0440166911	-2.6930449394	 2.2034430842	 0.10813
H	 1.3405031061	-0.3579244635	 1.8676469296	 0.092163
H	 0.9278875288	-1.621750003	-0.7357687401	 0.224487
H	-4.0415843313	-4.4233879736	 0.6704942821	 0.193148
