20
gdb 89430	2.84608	1.64961	1.42388	2.0435	77.35	-0.2302	0.0675	0.2977	1005.2069	0.172239	-403.121797	-403.113954	-403.113009	-403.153533	31.912	
C	-0.0365154237	 1.5113596521	 0.0212672414	-0.473766
C	 0.0254089905	 0.0012118299	 0.0149568306	 0.337629
C	 0.296947551	-0.6999315858	-1.3503198828	-0.287913
C	-0.9286051267	-1.542353645	-1.0454196429	-0.025822
C	-0.9401114687	-2.0514747662	 0.3483195695	-0.024489
C	 0.3649297268	-2.1258338482	 1.124062875	 0.077788
O	 1.2547734478	-3.0119619334	 0.4502058177	-0.431563
C	 0.8262755399	-0.6464099738	 1.1443376921	-0.270764
N	-1.3688870882	-0.6560760451	 0.0987248772	-0.187984
H	 0.9578118289	 1.9416616222	-0.1427151846	 0.112856
H	-0.7010750478	 1.8750293032	-0.7679341664	 0.122356
H	-0.4173002983	 1.8793316045	 0.9799167376	 0.119575
H	 0.1206038192	-0.0217117929	-2.1890375287	 0.099706
H	 1.2491135678	-1.2176021855	-1.4850154059	 0.109117
H	-1.6412418835	-1.9106475657	-1.7775965633	 0.088214
H	-1.7460216769	-2.7264503561	 0.6175505711	 0.088978
H	 0.1798117828	-2.4919280853	 2.1431698903	 0.069483
H	 2.0332256927	-3.126067505	 1.0046462118	 0.282586
H	 1.908778378	-0.5567437623	 1.00665934	 0.09401
H	 0.5610763287	-0.1796553415	 2.1001032003	 0.100002
