17
gdb 68773	2.42029	1.74416	1.24459	3.6511	69.45	-0.2367	-0.0219	0.2148	1017.5719	0.134598	-458.974545	-458.966064	-458.96512	-459.007266	32.513	
O	-0.0223525866	 1.3888647929	-0.032395455	-0.455889
C	 0.0104461626	 0.0038968882	-0.0042586675	 0.325954
C	-0.3806538963	-0.7433093013	 1.2388723027	-0.42704
C	-1.3010831902	-0.793116318	 0.025495484	 0.321068
O	-2.5649407575	-0.2576252766	 0.1171137274	-0.468242
C	-1.1190069509	-1.9152117082	-0.9324525976	 0.345532
O	-2.0508816844	-2.4644471715	-1.477957885	-0.350949
C	 0.3683511968	-2.1041903971	-1.2092545866	-0.346512
C	 0.9843501168	-0.7091705795	-0.94373838	-0.277998
H	 0.5704923356	 1.7256966639	 0.6477335649	 0.289664
H	 0.1697416568	-1.6191541739	 1.570577431	 0.115538
H	-0.8019185563	-0.1315676258	 2.0304062774	 0.136717
H	-3.1063683065	-0.7946053225	-0.4823246408	 0.296493
H	 0.768015811	-2.8630339207	-0.5257910293	 0.133614
H	 0.5223047812	-2.4712114298	-2.2252709659	 0.136522
H	 1.0367684984	-0.1342536219	-1.8735221282	 0.125655
H	 1.9968523196	-0.7646237183	-0.5282056615	 0.099875
