16
gdb 43648	5.22199	0.86985	0.77885	1.2821	76.05	-0.2526	-0.0603	0.1923	1380.7543	0.124921	-400.801487	-400.793375	-400.792431	-400.835218	29.474	
O	 0.0288719887	-0.0462420012	-0.0787217069	-0.319568
C	 0.0242766524	 1.1593240004	-0.0224428989	 0.383631
C	-1.2273650346	 2.0521588758	 0.0763017461	-0.369482
C	-0.7042424619	 3.5032221658	 0.0592404776	-0.049635
C	-1.184725895	 4.3345247509	 1.2759614569	-0.354723
C	-0.6575868839	 5.6976840435	 1.2667609102	 0.265142
N	-0.223486654	 6.7681120906	 1.2323375235	-0.304923
C	 0.8010569348	 3.3432566816	 0.0156869022	-0.052049
C	 1.1965754314	 2.0673950781	-0.0318224202	-0.181676
H	-1.905948363	 1.829658134	-0.7511410299	 0.141908
H	-1.7635220981	 1.8082965093	 0.9995023162	 0.135379
H	-1.0353693582	 4.0310397046	-0.8435052507	 0.117818
H	-2.2790399965	 4.3821299737	 1.2817079407	 0.161042
H	-0.8786963582	 3.8444203339	 2.2074152484	 0.158829
H	 1.45459289	 4.2093096664	 0.0206738012	 0.142814
H	 2.2137941259	 1.7005047024	-0.0772990163	 0.125493
