15
gdb 52007	6.50035	0.66087	0.60211	2.6243	66.21	-0.2594	-0.048	0.2114	1705.9555	0.111144	-491.152638	-491.143186	-491.142242	-491.189831	31.22	
O	-0.0420146694	-0.1442751709	-0.0060546677	-0.327866
C	-0.0387078328	 1.0698299789	 0.0056033583	 0.154273
N	 1.0852039825	 1.8268494768	 0.00698684	-0.281704
C	 2.3944796336	 1.2335960196	-0.0095798634	-0.257247
C	 3.4383462873	 2.3487480308	-0.0163263281	 0.430048
O	 3.1430330214	 3.5174478342	-0.0086568845	-0.308557
N	 4.7467020337	 1.8665078067	-0.0322000234	-0.357
C	 5.931410257	 2.6088166346	-0.0422390824	 0.167704
O	 6.0202553365	 3.8025848862	-0.0386488334	-0.24129
H	-0.9585467021	 1.6851324929	 0.0166347517	 0.086759
H	 1.0571022686	 2.8372257112	 0.0124826165	 0.270877
H	 2.5502027042	 0.5857335987	 0.8646077505	 0.150359
H	 2.5305500036	 0.5929089022	-0.8922503002	 0.150661
H	 4.86129093	 0.8623592826	-0.0373858186	 0.266625
H	 6.8043833857	 1.9259010055	-0.0542956453	 0.096357
