20
gdb 83655	2.51548	1.71297	1.32249	1.8225	78.7	-0.2073	0.0597	0.267	1043.394	0.171499	-403.081279	-403.073172	-403.072228	-403.113902	32.144	
O	 0.326479121	 1.1615607569	-0.4699866144	-0.421234
C	 0.1652451787	-0.1749787705	-0.0433561542	-0.001845
C	 0.2268851904	-0.4707274752	 1.4856832842	-0.015734
C	-0.1012773805	 0.7082631434	 2.4216033397	-0.242681
C	-1.5775657693	 0.2360026209	 2.3633067218	-0.167329
N	-1.2269307288	-0.9345942544	 1.4837050174	-0.180227
C	-1.2972127002	-0.6100361344	 0.0412711714	 0.36945
C	-2.4671202404	-0.0076293625	-0.6693805935	-0.31823
C	-2.0480263029	-1.4327486489	-0.9606850648	-0.336107
H	 1.2680801146	 1.3387168104	-0.5638468207	 0.285988
H	 0.7933571662	-0.8512580105	-0.638945598	 0.067987
H	 0.9815049709	-1.1916320766	 1.8117250166	 0.067115
H	 0.3625888467	 0.6462701232	 3.4077143894	 0.100404
H	 0.0969707704	 1.690366429	 1.9884417542	 0.112414
H	-1.9909078944	-0.0990301524	 3.3190074251	 0.100385
H	-2.2822846712	 0.9354038346	 1.9041251035	 0.107152
H	-3.3791001508	 0.1406795943	-0.0999920504	 0.116054
H	-2.2626451336	 0.7627671484	-1.4046768387	 0.128124
H	-1.567962956	-1.649366583	-1.9100814552	 0.108761
H	-2.6695416608	-2.2301213026	-0.5683119835	 0.119553
