14
gdb 127996	2.80237	1.39438	0.93651	0.775	69.01	-0.2466	-0.056	0.1905	1171.6095	0.100128	-470.006566	-469.998225	-469.997281	-470.040954	28.38	
C	-0.0178801962	 1.4160376065	 0.0861642414	-0.334852
N	 0.0648081656	-0.0356738049	 0.0326891635	-0.376156
C	 0.5458366577	-0.5968627785	-0.9784230795	 0.56229
O	 1.0452329197	-0.0381819333	-2.1315132588	-0.2619
N	 1.4689021362	-1.0656917327	-3.0241553933	-0.116793
C	 1.2368808612	-2.1676919275	-2.4120010242	 0.081354
N	 0.6811346756	-1.9887644961	-1.1627495028	-0.190086
C	 0.3145233732	-2.9887696293	-0.2603996776	 0.174053
O	 0.4591770179	-4.1592195004	-0.4965545159	-0.288587
H	 0.7854767736	 1.8089434977	 0.720580782	 0.135931
H	 0.0509657416	 1.8998043377	-0.8945661838	 0.134937
H	-0.9660419247	 1.6975697378	 0.5530433988	 0.13401
H	 1.4472656074	-3.1452759605	-2.8162149869	 0.199311
H	-0.1080288489	-2.5584327766	 0.659050447	 0.146488
