16
gdb 123551	4.08945	1.59015	1.38521	3.8437	74.17	-0.2449	0.0042	0.2491	926.3487	0.128248	-400.703981	-400.698124	-400.69718	-400.734039	24.739	
C	-0.0429286578	 1.5739959561	-0.0563896401	-0.220064
C	 1.5209139722	 1.3986542677	 0.017969532	-0.185897
C	 1.1981590059	 0.1741100711	 0.9550946344	-0.220065
C	-0.042580672	-0.0015844115	-0.00154538	-0.156552
C	 0.6892775978	-0.2830255576	-1.2890556559	 0.421136
N	 0.670420937	-1.0529150704	-2.3314873711	-0.288548
O	 1.7835743413	-0.6131536263	-3.0885221268	-0.190349
C	 2.4038015825	 0.4104738451	-2.4329735036	-0.157164
C	 1.756841436	 0.6680563144	-1.2826632107	 0.236017
H	-0.4552803203	 2.0136330048	 0.855386119	 0.107459
H	-0.461019105	 2.0539081962	-0.9435008815	 0.113717
H	 2.180951119	 2.2059325245	 0.3253714783	 0.0814
H	 1.9259256221	-0.6384483364	 1.0018530488	 0.113718
H	 0.8982863756	 0.486876901	 1.9585402595	 0.107461
H	-0.9195985121	-0.5824682762	 0.2706099119	 0.091911
H	 3.2681606978	 0.8124239976	-2.9372379343	 0.14582
