21
gdb 90489	2.77272	1.29924	1.15428	1.7404	81.39	-0.2518	0.0707	0.3226	1174.5122	0.183543	-387.03682	-387.028426	-387.027482	-387.070073	33.163	
O	 0.4393298851	 1.3165808854	 0.1501811813	-0.437228
C	 0.1334347215	-0.050734671	 0.2922904213	 0.141653
C	-0.106795494	-0.6484733887	 1.7186915044	-0.280045
C	-1.452622472	-1.2026863666	 1.2342370941	-0.084691
C	-2.3731165994	-0.1268306619	 0.7116928552	-0.021977
C	-2.5713617854	 1.2698752618	 1.2491988395	-0.044801
C	-3.7477219038	 1.5587219436	 2.1530772751	-0.279803
C	-2.3530200151	 1.6381477085	 2.7050294001	-0.25998
C	-1.2328773593	-0.5860614777	-0.1597900977	-0.121385
H	-0.1942127995	 1.812664001	 0.6781054143	 0.282567
H	 0.9401837286	-0.5822165474	-0.2187477335	 0.090635
H	 0.6142431039	-1.4304516352	 1.967894823	 0.104154
H	-0.1291892088	 0.0734397645	 2.5384406585	 0.098164
H	-1.8261375481	-2.1919032191	 1.469910286	 0.084608
H	-3.3061068888	-0.5612649241	 0.353630619	 0.090406
H	-2.3631902727	 2.0581592452	 0.5291797791	 0.095016
H	-4.3034748209	 2.4767280014	 1.9987082961	 0.112122
H	-4.3558762261	 0.7127011224	 2.457411492	 0.113885
H	-2.0435700606	 0.8484389983	 3.3793049236	 0.123403
H	-1.9394889547	 2.6134522483	 2.9394394792	 0.112692
H	-1.4260831902	-1.0180928288	-1.1353060407	 0.080604
