17
gdb 79269	2.64272	1.65969	1.32724	4.0632	72.36	-0.2431	-0.0379	0.2052	1002.8069	0.134247	-421.762983	-421.755157	-421.754213	-421.795422	29.849	
C	 0.0561329502	 1.5542584687	 0.0992588739	-0.420128
C	 0.0866951293	 0.038619018	 0.0001568019	-0.026007
C	 0.7806768498	-0.6564945773	-1.1717088923	-0.133768
C	 2.2514228512	-0.7909550932	-0.7298585254	 0.097451
O	 2.4014486976	-0.1551069591	 0.539792887	-0.303552
C	 1.1299582032	-0.7442009356	 0.8902122049	 0.321273
C	 0.8824129115	-1.0059306044	 2.3351687623	 0.041664
O	 1.6193726984	-0.6925936289	 3.2324822281	-0.237256
C	 1.2547796201	-1.801342093	-0.2852598377	-0.208148
H	 1.0698084196	 1.9583935017	 0.0547907872	 0.142115
H	-0.5255805537	 1.9814831391	-0.7246289752	 0.116663
H	-0.4050529972	 1.8820169609	 1.0372020949	 0.120319
H	-0.9035953011	-0.4046528096	 0.1493714532	 0.084159
H	 0.4757361209	-0.6958510235	-2.2099213446	 0.096483
H	 3.1049975872	-0.8523021217	-1.3908773272	 0.118292
H	-0.0864012553	-1.5257066764	 2.5204181601	 0.077887
H	 1.1833207183	-2.8781509958	-0.3412426414	 0.112552
