14
gdb 49877	3.1047	1.27399	0.94096	2.6775	66.45	-0.2516	-0.0499	0.2017	1157.6311	0.101326	-470.062577	-470.0545	-470.053556	-470.096069	29.08	
N	-0.0577060469	 1.3587934738	 0.0894914426	-0.563224
C	 0.025988583	 0.0985512227	-0.015084437	 0.440998
N	-1.060727123	-0.7469082342	-0.1702334326	-0.321662
C	-0.7060904827	-2.1426564168	-0.0402076516	-0.199879
C	-1.2000177275	-2.9827587133	-1.22075527	 0.165353
O	-1.6128983351	-4.1028888679	-1.1144634819	-0.221054
C	 0.842308689	-2.0877978766	-0.024233238	 0.411095
O	 1.6067780156	-3.0152182091	-0.0266602075	-0.336388
N	 1.1502878655	-0.7452956232	-0.0118496062	-0.377044
H	 0.8539133777	 1.7979224199	 0.1861140018	 0.220223
H	-1.9585916688	-0.3968608741	 0.1218997335	 0.270283
H	-1.0482285956	-2.6190378037	 0.8871825023	 0.138276
H	-1.1489254994	-2.4449831293	-2.1926344259	 0.097572
H	 2.0999483382	-0.4096357982	 0.0100956307	 0.27545
