14
gdb 27126	3.21147	1.19035	0.90811	3.9092	66.07	-0.2077	-0.0078	0.1999	1205.4819	0.100619	-473.855312	-473.847134	-473.84619	-473.888966	29.227	
N	-0.2336689329	 1.2982641397	 0.3568805141	-0.617598
C	-0.068518954	-0.0598786353	 0.0652540726	 0.13194
C	-1.0230691503	-0.955487132	-0.308127636	 0.329494
O	-2.3335123891	-0.7837810486	-0.6340711349	-0.223773
C	-3.2586195159	-1.0936830255	 0.3361482608	 0.162712
O	-4.4255555495	-0.997810298	 0.1397407445	-0.246118
O	-0.5111259842	-2.213155729	-0.4377998223	-0.166009
C	 0.8092513761	-2.1129972694	-0.1365858594	-0.003445
C	 1.1390594165	-0.8340186513	 0.1790621382	-0.236459
H	 0.5659517989	 1.8557477578	 0.0858533901	 0.251307
H	-1.0702016117	 1.6844774935	-0.0631271579	 0.253909
H	-2.7732640102	-1.4198019607	 1.2726918776	 0.105553
H	 1.3714633536	-3.0301266733	-0.1871857944	 0.143832
H	 2.1143033727	-0.4711052177	 0.4644975871	 0.114656
