19
gdb 98478	2.35682	1.42735	1.01043	1.503	73.27	-0.251	0.0121	0.2631	1228.2281	0.156666	-460.169265	-460.159377	-460.158432	-460.20439	35.012	
C	 0.394038021	 1.3264959386	-0.3034876444	-0.241802
O	 0.2141637318	-0.0826201358	-0.1096079449	-0.233827
C	 0.8301899186	-0.590724282	 0.9727574885	 0.405061
O	 1.486968894	 0.0691755186	 1.7435846181	-0.382367
C	 0.621750598	-2.0718538981	 1.106314398	 0.277642
C	 1.8237363362	-2.8467388732	 1.5997610974	-0.293262
C	 0.6651468972	-2.6219850195	 2.5243617982	-0.308612
O	-0.1560613047	-2.7198282918	 0.1578243025	-0.27356
C	-1.5557971268	-2.5348946528	 0.3052578145	-0.253557
H	 1.452877935	 1.5641390655	-0.4315364314	 0.142751
H	-0.1653078452	 1.57410352	-1.2055109056	 0.134211
H	 0.0107267694	 1.8862190389	 0.553332928	 0.140729
H	 1.9410075778	-3.8306054915	 1.1615425668	 0.130792
H	 2.7335182897	-2.2852306446	 1.7721138235	 0.137249
H	 0.7820851518	-1.9047254431	 3.3272614981	 0.139704
H	 0.0084099298	-3.4608187477	 2.7235162979	 0.12402
H	-1.9043265377	-2.8697067658	 1.2919796689	 0.106498
H	-1.8415381944	-1.4867525655	 0.1611645392	 0.120308
H	-2.0319540917	-3.1445825303	-0.4657553534	 0.12802
