19
gdb 107708	3.16821	1.34764	1.12621	0.3103	75.62	-0.238	0.0627	0.3007	1158.7664	0.156261	-422.929271	-422.920591	-422.919647	-422.96251	33.008	
C	-0.1049568039	 1.5598427888	-0.0900740079	-0.380737
C	-0.1034335934	 0.0262183102	-0.0922025524	-0.340582
C	-1.4753178028	-0.5529558655	 0.0329670995	 0.447454
O	-2.486859319	-0.2570074512	-0.9821705579	-0.375981
C	-3.2219171115	-1.1195533868	-0.0615381816	 0.420624
C	-4.648478887	-1.4591793032	-0.332093623	-0.536398
C	-1.9796436121	-2.0155210216	 0.2652993083	-0.068209
O	-2.1072873001	-1.8667311073	 1.7081771678	-0.333195
C	-2.5076027793	-0.5576197742	 1.212905602	-0.053425
H	 0.9085353415	 1.9497567496	-0.219025259	 0.115428
H	-0.7284132526	 1.946353587	-0.900732695	 0.139637
H	-0.4991830626	 1.9515886749	 0.8531310712	 0.118663
H	 0.3491778505	-0.3504366634	-1.0175913915	 0.115132
H	 0.4971147182	-0.3639174143	 0.7384865615	 0.120613
H	-4.7475129772	-1.9795177162	-1.2895172597	 0.136962
H	-5.0256179294	-2.1103387607	 0.4622680205	 0.141648
H	-5.2621944585	-0.5539114641	-0.365311315	 0.136786
H	-1.6459617592	-2.9696099611	-0.1442485289	 0.097363
H	-2.8020489716	 0.2133427491	 1.9256178011	 0.098218
