19
gdb 91749	2.38529	1.90854	1.65112	1.8422	73.9	-0.2365	0.0076	0.2441	940.282	0.161571	-423.040488	-423.033226	-423.032282	-423.071886	29.556	
C	-0.2689336311	 1.5373651607	-0.1042875299	-0.41071
C	-0.0007932175	 0.042914451	-0.0050885473	 0.133076
O	 0.78515401	-0.4150284889	-1.123179116	-0.28471
C	 1.9202613818	-1.0619567058	-0.5585023323	 0.137421
O	 1.465556734	-1.6046666972	 0.6641122808	-0.25031
C	 0.7940387783	-0.4739968799	 1.2305423428	 0.024633
C	 1.8487661002	 0.4882436151	 1.8036252458	-0.272697
C	 2.9879463215	 0.6586611949	 0.8268441378	-0.073924
C	 3.030930448	-0.0587901307	-0.2933885206	-0.052156
H	 0.6623104667	 2.1081879785	-0.1203797724	 0.129469
H	-0.814277811	 1.7537894331	-1.0269717108	 0.12854
H	-0.8829287565	 1.8785428657	 0.7366167167	 0.112113
H	-0.9555543507	-0.4986035337	-0.0407262401	 0.085552
H	 2.2246368304	-1.8794387086	-1.2162072468	 0.089296
H	 0.1252752101	-0.8378453646	 2.0135781982	 0.085
H	 1.3941974167	 1.457701023	 2.0400838245	 0.11267
H	 2.2258096026	 0.0913910897	 2.7562330275	 0.115986
H	 3.7673753384	 1.3750919063	 1.0719965103	 0.095607
H	 3.8172427781	 0.0545924414	-1.0322446179	 0.095143
