18
gdb 126876	5.34088	0.86581	0.79923	3.8358	78.6	-0.2131	0.0105	0.2235	1485.8436	0.146799	-435.270082	-435.260709	-435.259765	-435.30549	33.295	
C	-0.8480397608	 0.5773238686	-0.4804583247	-0.360998
C	 0.4451685804	 0.3700854563	 0.3146905752	-0.139757
N	 0.5024210147	-0.9632882912	 0.905056064	-0.397585
C	 0.150859869	-1.113284266	 2.1043977221	 0.534084
N	 0.1372106519	-2.3053234713	 2.8184490836	-0.413127
C	-0.2808952213	-2.0387018259	 4.0929851831	 0.415649
C	-0.4130171004	-3.0641794914	 5.1622760817	-0.501304
N	-0.5530483877	-0.7879664662	 4.266041859	-0.181823
O	-0.2929659885	-0.171089346	 3.0033020624	-0.256548
H	-1.720002468	 0.5418708009	 0.1802138591	 0.119222
H	-0.8404086609	 1.5496816348	-0.984045651	 0.107179
H	-0.9628056742	-0.2042335937	-1.237479867	 0.119388
H	 1.3011794773	 0.4633281032	-0.3635310598	 0.097723
H	 0.5437819321	 1.1618997478	 1.0696826884	 0.106616
H	 0.4329514832	-3.1841867218	 2.4329304718	 0.280991
H	 0.5495806289	-3.546033895	 5.3625625837	 0.149529
H	-0.7658748696	-2.5844485056	 6.0756984298	 0.170808
H	-1.1258294062	-3.8423821675	 4.8705404685	 0.149955
