19
gdb 63244	2.2722	1.71622	1.30729	3.4987	76.74	-0.2328	-0.024	0.2088	1057.4233	0.157851	-423.056235	-423.047065	-423.046121	-423.090329	34.414	
C	-0.7984420059	 1.3341353975	 0.0773547508	-0.43458
C	 0.1020468282	 0.1083754991	 0.018502525	 0.242402
O	-0.6771871869	-1.1034181433	 0.0872104566	-0.476222
C	 1.0131642326	 0.0961107745	-1.1938715132	-0.127358
C	 2.0062225991	-0.7913166041	-1.2769448787	-0.066756
C	 2.2787899721	-1.773940102	-0.1660743441	-0.263289
C	 1.9994986005	-1.1709721797	 1.2301792767	-0.298734
C	 1.0353777094	 0.0111454938	 1.2424633072	 0.399809
O	 1.0222126913	 0.8247847758	 2.132841616	-0.323692
H	-0.2056377484	 2.2527471588	 0.0988463442	 0.127738
H	-1.4518222137	 1.3599617736	-0.8013600477	 0.100456
H	-1.4157919359	 1.3052244032	 0.9765643453	 0.135877
H	-0.9594488736	-1.3139812022	-0.809480027	 0.279217
H	 0.8237581497	 0.8185344296	-1.9830688369	 0.095007
H	 2.6330246951	-0.8327627013	-2.1639250965	 0.101096
H	 1.6550413136	-2.6621421646	-0.3226413139	 0.127893
H	 3.3159244436	-2.1194896481	-0.2138654163	 0.109296
H	 1.5887905966	-1.930461291	 1.904188931	 0.139392
H	 2.9232763626	-0.8152746197	 1.6948185716	 0.132448
