16
gdb 56878	3.52053	0.95237	0.78298	2.2069	69.97	-0.2581	-0.0363	0.2218	1367.8623	0.1222	-437.896749	-437.887796	-437.886852	-437.931639	32.031	
O	-0.3296993378	 1.2622612488	 0.0552626777	-0.40796
C	 0.0274968317	-0.1049099045	 0.0079465731	-0.027509
C	 0.6985627832	-0.4424674263	-1.2664044664	 0.256923
N	 1.2544184989	-0.6849227008	-2.250051938	-0.31207
C	 0.8864398041	-0.5393021545	 1.1981752096	-0.005015
C	 0.2010161253	-0.3859555069	 2.5906972586	-0.372827
C	 0.4993295225	-1.8737578847	 2.8461597926	 0.409783
O	 0.3986751847	-2.5859222004	 3.7994586318	-0.276408
C	 1.0375259822	-2.0782763205	 1.4173678755	-0.371199
H	 0.4724367692	 1.791192186	-0.028598205	 0.296991
H	-0.9240971058	-0.6498015174	 0.0373689515	 0.139325
H	 1.8542756675	-0.0327667253	 1.1479654351	 0.095179
H	 0.6555570453	 0.311460017	 3.2983058849	 0.139544
H	-0.8705853069	-0.1661780492	 2.5370878867	 0.145708
H	 0.3708550755	-2.6890049806	 0.7979605487	 0.142513
H	 2.0438748404	-2.4970677607	 1.3476389235	 0.147023
