16
gdb 71450	4.17218	1.44113	1.30617	3.7674	70.16	-0.2361	0.0061	0.2421	987.5825	0.12495	-437.852254	-437.845229	-437.844285	-437.883476	27.904	
C	-0.1179233128	 1.4484410401	-0.0104341568	-0.502702
C	 0.0166340307	-0.0357684336	 0.0215599424	 0.442861
O	-1.1585522126	-0.8227023487	-0.1721532247	-0.322465
C	-0.5128620887	-1.9469173282	 0.5201496586	-0.027864
C	 0.6517511645	-1.0404514518	 0.9688505793	-0.249524
C	 1.2259923843	-0.8593466412	-0.407515575	 0.000888
O	 1.0060278985	-2.001654546	-1.218998292	-0.241568
C	 0.0600734028	-2.7863235286	-0.5964776231	 0.469414
N	-0.2874887809	-3.9469683739	-0.939766751	-0.5557
H	 0.8494372937	 1.92553568	 0.1715102154	 0.129596
H	-0.4806841805	 1.7726487602	-0.991592819	 0.145127
H	-0.825691288	 1.7916784589	 0.7500227847	 0.138603
H	-1.1702696672	-2.450432708	 1.2229342451	 0.112864
H	 1.1546421871	-0.9834142758	 1.9243829652	 0.11302
H	 2.1852154207	-0.3907718075	-0.5834739498	 0.119862
H	 0.2355077384	-4.2550838459	-1.7619951592	 0.227587
