20
gdb 121059	3.07801	0.96275	0.81423	4.3523	76.51	-0.2352	0.0376	0.2728	1459.1972	0.171628	-440.32596	-440.316681	-440.315736	-440.360999	33.386	
C	 0.3820179673	 1.3186897174	 0.0713401506	-0.22983
O	 0.1252840366	-0.0641733379	-0.0147303681	-0.239776
C	 0.6452649815	-0.6563399992	-1.1835264509	-0.054402
C	 0.3520469821	-2.1543080029	-1.1119681952	-0.001446
C	 0.9709753739	-2.9600508822	-2.2846996608	-0.244456
C	 2.2639731305	-3.5661813011	-1.7116963427	-0.328033
C	 2.0912436613	-3.5083088421	-0.1891867517	 0.40352
O	 2.8140162751	-4.0006608273	 0.6482979357	-0.378833
N	 0.961815096	-2.7702573756	 0.052510081	-0.288372
H	 1.4620513772	 1.5321131919	 0.0799216842	 0.110254
H	-0.0710302733	 1.8694711311	-0.7676395538	 0.107213
H	-0.0570310499	 1.6752189866	 1.0059898892	 0.131474
H	 0.1764950055	-0.2244839045	-2.0845812499	 0.087751
H	 1.7333431519	-0.4845593964	-1.2566956494	 0.088109
H	-0.7366689819	-2.2755364941	-1.0751959131	 0.092492
H	 0.2793037942	-3.7510502564	-2.5846265415	 0.118007
H	 1.1409485048	-2.3287236079	-3.1606483099	 0.108234
H	 2.453286117	-4.591944351	-2.0332412606	 0.131571
H	 3.1541419599	-2.9814715112	-1.9670454424	 0.130148
H	 0.7578505302	-2.4411632573	 0.9833793994	 0.256375
