12
gdb 654	7.4502	3.53716	3.25337	1.8437	46.16	-0.2388	0.0631	0.3019	452.7784	0.096525	-306.286325	-306.281284	-306.28034	-306.314443	19.211	
O	 0.008945505	 1.4741263255	-0.1064024684	-0.426785
C	 0.0255679975	 0.079639083	-0.0087153116	 0.133325
C	-0.0925675766	-0.6445545722	 1.3735210879	 0.009213
C	-1.532604048	-0.1016985945	 1.5215818801	-0.223115
C	-1.3428414454	-0.632404189	 0.07994489	 0.033882
O	-0.6235496099	-1.8052931713	 0.6277584472	-0.309684
H	 0.9158802288	 1.7930403398	-0.0703445006	 0.292159
H	 0.7289760766	-0.4060394486	-0.6936640948	 0.084529
H	 0.6636385189	-0.8404965526	 2.13473065	 0.090119
H	-2.1895566936	-0.7026742373	 2.151180493	 0.105837
H	-1.6597226377	 0.9734622764	 1.6517350169	 0.114977
H	-2.0806587456	-0.8124589192	-0.7019557096	 0.095542
