19
gdb 82967	2.94649	1.76159	1.46239	1.6616	80.28	-0.2223	-0.0051	0.2172	953.891	0.161603	-385.839506	-385.832628	-385.831684	-385.870331	29.118	
O	 0.2943685554	 1.3679950513	-0.2231585827	-0.420804
C	 0.0805893978	 0.0099980349	-0.002188374	 0.090874
C	-1.36886477	-0.6406429663	-0.0539421636	-0.078182
C	-2.2012057739	-0.4647307925	-1.3721786015	-0.251572
C	-1.6176587411	-1.7978254354	-1.9927751873	-0.017895
C	-0.5924238354	-1.6235952904	-3.1418267462	-0.250717
C	 0.4907929137	-0.8135039522	-2.4266072815	-0.182015
C	 0.3913889225	-0.9902379917	-1.1037001939	 0.110976
C	-0.7568747985	-1.9125318107	-0.7147769677	-0.067541
H	 0.0126291133	 1.5594096998	-1.1256702246	 0.280669
H	 0.5170948648	-0.2192864684	 0.9760769491	 0.10022
H	-1.9292508275	-0.6407465687	 0.8831759675	 0.068994
H	-3.272585194	-0.5388265952	-1.1741921858	 0.108408
H	-2.0308754351	 0.4524332224	-1.9445088571	 0.086322
H	-2.3776189983	-2.5617627863	-2.1770176528	 0.059475
H	-0.2568239178	-2.5927427453	-3.5376040895	 0.103364
H	-1.0007752435	-1.0629590281	-3.9916742149	 0.100766
H	 1.0450113683	-0.0181322099	-2.9145078209	 0.091539
H	-0.5503693608	-2.8469999173	-0.1931806226	 0.067118
