18
gdb 116732	2.27635	0.72343	0.5697	1.6152	80.13	-0.2483	0.0181	0.2664	1908.1514	0.144597	-439.033772	-439.022866	-439.021922	-439.072428	35.864	
C	-0.5558194053	 0.8869544971	-1.0403816753	-0.251129
O	-0.789975814	 0.0943268244	 0.1182165217	-0.195695
C	-1.3156118803	-1.1235962121	-0.112907478	 0.144737
N	-1.5585719987	-1.8931412636	 0.8538822593	-0.242301
C	-2.1294718872	-3.2093109837	 0.5962062434	-0.263798
C	-2.3868900435	-3.5927115928	-0.7961832969	 0.040323
C	-2.572573305	-3.8868753965	-1.9510510327	 0.032122
C	-2.8664724393	-4.2435079693	-3.3390345541	-0.194282
O	-3.7753394719	-3.3528236487	-3.9724296085	-0.40202
H	-0.135016461	 1.8290123951	-0.6870999636	 0.145444
H	 0.159447034	 0.406231646	-1.7185698775	 0.128784
H	-1.4866826414	 1.0905059643	-1.5832029431	 0.12974
H	-1.4979037727	-1.3577217879	-1.1693361344	 0.09514
H	-1.4618011787	-3.9546737274	 1.0494410738	 0.143747
H	-3.0649087823	-3.280573925	 1.167683285	 0.140593
H	-1.951912188	-4.2102894366	-3.9414336959	 0.139939
H	-3.2302720679	-5.2828755029	-3.3756491744	 0.120893
H	-4.5562314069	-3.2934607602	-3.4120225189	 0.287765
