19
gdb 92996	3.17418	1.03598	0.86977	2.506	77.84	-0.2496	-0.0222	0.2274	1339.9417	0.15838	-423.042185	-423.033267	-423.032322	-423.07688	32.777	
O	 0.1043119122	 1.4291737767	 0.0369259145	-0.424398
C	 0.0080339744	 0.0134994166	 0.0332653014	 0.100827
C	 0.6770004302	-0.604615971	 1.2860311343	-0.283359
C	-0.4836513094	-0.7625163368	 2.2423158725	-0.089694
C	-1.6540934463	-0.695962506	 1.6070979403	-0.068906
C	-1.4695157892	-0.4818033456	 0.1175757812	-0.07514
C	-2.4949892296	 0.4625786761	-0.5412295581	-0.270957
C	-3.8493984236	-0.2007403223	-0.6180125245	 0.153709
O	-4.8293971246	 0.1507147261	-0.0121511764	-0.243149
H	-0.23908766	 1.741779869	 0.8824460644	 0.283535
H	 0.4857735932	-0.2975922149	-0.8992665922	 0.085838
H	 1.1313350041	-1.5788832174	 1.0576607026	 0.112609
H	 1.4814675234	 0.0417809941	 1.6526120417	 0.112342
H	-0.3547472059	-0.9424428756	 3.3036353052	 0.099509
H	-2.6312458685	-0.8025158272	 2.0650042776	 0.11358
H	-1.530228261	-1.4558817621	-0.3948405826	 0.087442
H	-2.5879631271	 1.40013897	 0.0103956451	 0.114921
H	-2.1619525434	 0.6921735658	-1.5617082044	 0.121129
H	-3.8829940988	-1.0945866156	-1.2864670725	 0.070162
