19
gdb 121697	4.79226	0.69855	0.6374	3.9578	75.5	-0.2597	-0.0128	0.2469	1759.7545	0.158457	-456.389909	-456.37992	-456.378976	-456.426128	34.776	
C	-0.0606870039	 0.7917404209	-0.508581884	-0.367462
C	-0.4399976919	 0.678534674	 0.9708328973	-0.195505
C	 0.5077522541	-0.1940179567	 1.7782782033	-0.038894
O	 0.4169549827	-1.5354108788	 1.2643278157	-0.275133
C	 1.2204779676	-2.4462956459	 1.8477841519	 0.512801
N	 2.0189326468	-2.1881206724	 2.789892492	-0.570481
N	 0.983462476	-3.6809747741	 1.210117602	-0.366693
C	 1.5955232318	-4.8718609432	 1.5017084497	 0.167855
O	 2.4361978378	-5.0455298495	 2.3544517653	-0.298071
H	-0.0552120046	-0.1914610796	-0.9870215582	 0.12233
H	-0.7678108785	 1.4275886895	-1.049179461	 0.115365
H	 0.9382350588	 1.2259311092	-0.6268365953	 0.11768
H	-0.4436878353	 1.6717607349	 1.435555661	 0.105918
H	-1.4580787517	 0.2835812658	 1.0709986383	 0.10663
H	 1.5462973491	 0.1446545451	 1.6978694335	 0.123813
H	 0.2485261166	-0.2064484193	 2.841503424	 0.122294
H	 2.5196658848	-3.0292261338	 3.0689415146	 0.255981
H	 0.2948249321	-3.6654719332	 0.4726063278	 0.264496
H	 1.2233815877	-5.6842864329	 0.8494228719	 0.097075
