17
gdb 2071	4.19397	2.48188	1.73872	3.008	63.87	-0.2332	-0.0094	0.2238	747.4134	0.150525	-309.764115	-309.757612	-309.756668	-309.7945	24.961	
O	 0.0028715256	-0.0740842399	-0.0066046085	-0.307966
C	-0.0137706192	 1.1349917137	-0.0059813819	 0.393649
C	-1.3086408142	 1.9381582877	 0.0113488702	-0.286564
C	-1.3194049344	 3.0298801423	-1.0785547378	-0.199471
C	-0.0654220325	 3.9101654978	-1.005208698	-0.183769
C	 1.209896346	 3.0647106384	-1.1125598784	-0.199471
C	 1.2584926409	 1.9735114939	-0.0231628769	-0.286564
H	-2.1488249945	 1.246747015	-0.0877577861	 0.116496
H	-1.3856126003	 2.4194625696	 0.9972522764	 0.113344
H	-1.3687026588	 2.5509714666	-2.0652494587	 0.107418
H	-2.2254841656	 3.6373776251	-0.9820610453	 0.101153
H	-0.0864827149	 4.6616617929	-1.801953819	 0.098096
H	-0.0602418426	 4.4619013098	-0.0547957983	 0.09524
H	 1.2458206007	 2.5869740012	-2.1003996614	 0.107418
H	 2.1011731105	 3.6969591404	-1.0402320977	 0.101153
H	 1.3486535198	 2.4571199383	 0.9604924846	 0.113344
H	 2.1144280999	 1.3054589073	-0.1450699633	 0.116496
