14
gdb 45342	2.6184	1.8296	1.23808	4.8145	62.84	-0.2756	-0.0193	0.2564	958.8502	0.102665	-473.860749	-473.853898	-473.852953	-473.892521	25.616	
N	 0.0134855536	 1.262247076	-0.1570046516	-0.527071
C	 0.018270227	 0.0268671983	 0.0802541358	 0.421097
O	 1.1081940515	-0.7033671833	 0.4786039614	-0.238745
C	 0.8686368367	-2.1138853101	 0.3665237502	-0.114286
C	-0.6393307163	-2.286521316	 0.2700589595	 0.094167
O	-1.2905985621	-2.3109343591	 1.583436023	-0.252219
C	-1.8717210114	-1.080773263	 1.375772409	 0.461569
O	-2.6243393667	-0.4998143289	 2.0790579123	-0.297703
C	-1.1907389373	-0.8784024653	 0.004328913	-0.317968
H	 0.9449781453	 1.6625860461	-0.0353359445	 0.234185
H	 1.3643574306	-2.4925405845	-0.5352171714	 0.126283
H	 1.2874054914	-2.6095949821	 1.2453277212	 0.146934
H	-0.9730924789	-3.1258027876	-0.3381760671	 0.118563
H	-1.8491965334	-0.6644153504	-0.8332185708	 0.145195
