17
gdb 19375	5.11926	1.55426	1.43841	2.3664	67.2	-0.2054	0.0579	0.2633	902.9757	0.1427	-363.766589	-363.759493	-363.758549	-363.797669	28.094	
O	 0.5544223654	 0.4707000611	-0.9543702509	-0.409225
C	-0.0471333894	 0.2103733914	 0.3069322194	-0.208617
C	-1.4647023827	-0.2617938683	 0.1681690259	 0.33531
N	-1.8492980706	-1.2489165594	-0.8653478603	-0.375367
C	-2.5064124497	 0.0881887602	-0.8184360033	-0.126851
C	-3.5982972402	 0.0802427409	 0.2915770704	-0.054254
C	-3.6626023974	-1.2333736206	 1.0236550313	-0.287933
C	-2.5285562234	-0.2856368876	 1.3125675558	-0.122335
H	 0.1198061046	 1.245485868	-1.3264258939	 0.287964
H	 0.5689013945	-0.5671920703	 0.7751597638	 0.123184
H	-0.0098347659	 1.0932604331	 0.9637947197	 0.09826
H	-1.1219267334	-1.1798936512	-1.5791688351	 0.233411
H	-2.4803792913	 0.7493014523	-1.6761748972	 0.083864
H	-4.3661764453	 0.8385274541	 0.3697969214	 0.087468
H	-4.418456487	-1.2746673993	 1.8020481891	 0.105716
H	-3.4805095591	-2.1630861854	 0.5008311937	 0.144016
H	-2.3539077191	 0.1502397009	 2.2880064504	 0.08539
