18
gdb 10922	3.18602	1.89116	1.49496	2.6872	67.61	-0.2338	0.068	0.3018	903.1592	0.1525	-384.904736	-384.89645	-384.895505	-384.936815	31.72	
C	-0.0992719686	 1.5991975242	-0.0624249821	-0.403689
C	 0.0305286621	 0.0810909177	-0.063872845	-0.016653
C	 0.692092203	-0.6175414436	-1.2580637428	-0.159451
C	 2.1521598151	-0.2259309085	-1.3603280669	-0.312062
C	 1.762800908	-1.2289797161	-0.3319873512	 0.411589
O	 2.3769803931	-2.4670390243	-0.3309880432	-0.459978
C	 1.125696755	-0.5662918437	 0.8797984076	 0.011253
O	 1.9973910476	 0.2787071389	 1.5975580511	-0.424302
H	 0.8603331782	 2.0911978204	-0.237922297	 0.12849
H	-0.7970855308	 1.9290455174	-0.8392660192	 0.114858
H	-0.4830929403	 1.9600229232	 0.899215375	 0.100992
H	-0.9453205369	-0.368021151	 0.1505868961	 0.065076
H	 0.1699866557	-1.0713019939	-2.0917470702	 0.085389
H	 2.6698086745	-0.668753352	-2.2050583664	 0.118083
H	 2.5044430459	 0.7621085127	-1.081108639	 0.120545
H	 1.7672002265	-3.1074293625	 0.0519746336	 0.28086
H	 0.669101607	-1.3161317412	 1.5439792925	 0.055559
H	 1.515465165	 0.6513192825	 2.3429093474	 0.283441
