19
gdb 33497	2.64702	1.18463	0.91369	2.2885	81.92	-0.2401	0.0544	0.2945	1312.7632	0.157104	-385.817259	-385.808091	-385.807147	-385.851697	34.305	
C	 0.2149436978	-1.1956202709	-0.2809023041	-0.45997
C	 0.1081170029	-0.0027588889	-0.1713846433	 0.30075
C	-0.009596249	 1.4265992707	-0.0458954172	 0.14871
C	-1.1278255375	 2.0792815105	-0.8558742614	-0.30302
C	-2.5139460228	 1.6340422576	-0.4476241374	 0.105418
C	-3.6507764392	 1.70321474	-1.3739544886	-0.184977
O	-3.0319832731	 0.4547798416	-1.0645399537	-0.220344
C	 0.3407158404	 2.0416809729	 1.3045057658	-0.288059
C	 1.2793534085	 2.2131356292	 0.1460707236	-0.307911
H	 0.2916712614	-2.2496694262	-0.3804249008	 0.191749
H	-1.0569141136	 3.1671785579	-0.7277371151	 0.099405
H	-0.9910631329	 1.8656166954	-1.9216730477	 0.113855
H	-2.7263595219	 1.7001312779	 0.6211243684	 0.090936
H	-4.6600313524	 1.8383539774	-0.9871631951	 0.111984
H	-3.4927311333	 2.0645277188	-2.3899273397	 0.110491
H	-0.2453694528	 2.897473278	 1.6230362353	 0.115154
H	 0.6259831056	 1.3665810719	 2.1019281181	 0.129751
H	 2.2059813648	 1.6523792847	 0.1501133486	 0.129591
H	 1.3390090972	 3.1853436316	-0.3317163254	 0.116485
