21
gdb 69365	4.0587	0.99593	0.93899	1.8107	84.21	-0.2352	0.0872	0.3223	1350.9668	0.182775	-383.199173	-383.190572	-383.189628	-383.232553	33.257	
C	-0.1556908656	 1.5725989884	-0.1109604061	-0.485278
C	-0.1274380021	 0.0820344269	 0.0366041667	 0.358422
C	-1.3495330857	-0.854591161	 0.0202098166	-0.322294
C	-0.6166300226	-1.7889564982	 1.038951718	 0.046557
C	 0.5762212167	-0.8192880609	 1.0133004215	-0.104225
N	 1.0779069121	-0.6529841212	-0.3476091452	-0.365263
N	-1.2860019527	-1.8222914628	 2.3252491995	-0.064658
C	-2.1934979676	-2.9435857447	 2.5528195926	-0.22299
C	-0.8736675412	-2.8842522752	 3.2389926767	-0.226053
H	 0.8334273879	 1.9929820103	 0.0886883046	 0.131126
H	-0.4436406548	 1.8604643701	-1.1294394159	 0.117549
H	-0.8758792072	 2.0221427709	 0.5807761708	 0.119597
H	-2.2341580223	-0.4149502859	 0.4863770388	 0.117299
H	-1.6219004524	-1.2758467095	-0.9539564434	 0.087008
H	-0.3786513223	-2.8039370761	 0.6685379659	 0.045647
H	 1.2339264162	-0.5951496638	 1.8460785766	 0.091033
H	 0.8859005879	-1.4611078301	-0.9387211835	 0.218667
H	-3.1076406371	-2.7108984705	 3.09101132	 0.117302
H	-2.3062865049	-3.6778411167	 1.7565792736	 0.110499
H	-0.1067792182	-3.5798308224	 2.9014874207	 0.111858
H	-0.8074621038	-2.6068089975	 4.2869197513	 0.118196
