23
gdb 111104	2.80729	1.16474	1.06487	1.2117	85.28	-0.2558	0.0832	0.339	1289.6493	0.207426	-388.282593	-388.273833	-388.272889	-388.315828	34.801	
C	-0.0226675633	 1.5699971771	 0.0838348509	-0.378337
C	-0.0218133857	 0.040725428	 0.197915211	-0.225981
C	-1.4189617313	-0.558418933	 0.0595187716	 0.072374
C	-2.0540429572	-0.6360625762	-1.3697051891	-0.02486
C	-1.2585212274	-1.9598566908	-1.5676924631	-0.244267
C	-1.5325241814	-2.1146183851	-0.0441938578	-0.046098
C	-3.0548583304	-2.3133729014	-0.0334544946	 0.134299
O	-3.5537600621	-2.1246264785	 1.2814164177	-0.443064
C	-3.4580746218	-1.1857927195	-1.051035312	-0.264037
H	 0.9829925348	 1.9793273654	 0.2221195814	 0.109262
H	-0.3827007783	 1.896366215	-0.8976341455	 0.114759
H	-0.6736551043	 2.0216013386	 0.8406733122	 0.114206
H	 0.6670508936	-0.376441434	-0.5451434243	 0.093049
H	 0.3816881379	-0.247174425	 1.1776450131	 0.096396
H	-2.0687960004	-0.1175449539	 0.8229398508	 0.071438
H	-1.9895562508	 0.1903165364	-2.0794089706	 0.054568
H	-1.6830403315	-2.7106393964	-2.2426013859	 0.084086
H	-0.2050537231	-1.8145656313	-1.8048589835	 0.101631
H	-0.9513695441	-2.7833537733	 0.5920508099	 0.058984
H	-3.3296183003	-3.3121251657	-0.401935824	 0.059268
H	-4.5142668295	-2.1635429416	 1.2439754885	 0.279939
H	-4.1052897302	-0.4460787042	-0.5690701993	 0.092551
H	-3.9713093131	-1.5745328806	-1.9360295775	 0.089835
