19
gdb 88187	3.50378	1.21018	1.03933	2.6089	79.17	-0.242	0.004	0.246	1205.1531	0.159119	-423.013134	-423.004807	-423.003863	-423.046011	31.849	
C	-0.0301375427	 1.5391215515	-0.1058471814	-0.427586
C	-0.0146439773	 0.0412260698	 0.079089517	 0.013809
O	 1.222809358	-0.6429256554	-0.1176222791	-0.301296
C	 0.6346833125	-0.66065192	 1.2054768136	 0.361947
C	 1.3614693106	 0.1026812906	 2.300624129	-0.16831
O	 2.1295380334	-0.7602293986	 3.119491984	-0.243809
C	 1.3417545033	-1.7227788604	 3.7894743653	-0.127887
C	 0.404038118	-2.4487604147	 2.8651411735	-0.094548
C	 0.1131910688	-1.9729838317	 1.6553645807	-0.10732
H	 0.8263213682	 2.0211192702	 0.3692655712	 0.12885
H	-0.0050426232	 1.7829951704	-1.1731232275	 0.132541
H	-0.9485914276	 1.9650758419	 0.3122631999	 0.124157
H	-0.8687725345	-0.4690046826	-0.3748975753	 0.083273
H	 2.0638998963	 0.8146389682	 1.8649511269	 0.121982
H	 0.6263923769	 0.656869603	 2.9106739738	 0.089527
H	 2.0468819785	-2.4262544087	 4.2462276664	 0.122379
H	 0.7746338086	-1.2562525649	 4.6180821112	 0.097257
H	-0.0180113471	-3.3849792403	 3.220083965	 0.099781
H	-0.5213454708	-2.5196055185	 0.9637928757	 0.095253
