19
gdb 124847	3.56131	1.14279	1.10739	2.6374	81.1	-0.2316	0.0251	0.2567	1193.1284	0.161192	-382.08518	-382.076861	-382.075917	-382.119118	31.639	
C	-0.1973692803	 1.3939285031	 0.5189744649	-0.454093
C	 0.0117341201	-0.027410513	 0.0137505813	 0.237039
C	 1.3721595565	-0.3922497327	-0.5314010103	-0.292044
C	 0.9344005972	-0.9362598493	 0.8054516721	-0.302169
C	-1.1764430966	-0.6414759821	-0.6344060594	 0.312625
C	-1.5676356665	-0.7524165513	-1.9566338626	-0.312954
C	-2.8247614438	-1.3913319058	-1.9150068026	-0.005717
N	-3.2028759949	-1.6639417632	-0.6691762851	-0.230368
N	-2.1897937607	-1.1963118492	 0.0855095596	-0.25294
H	 0.7140545191	 1.779119847	 0.9871799468	 0.114126
H	-0.4676004267	 2.0643546163	-0.303426076	 0.12765
H	-1.0017361238	 1.4390798714	 1.2614500821	 0.116017
H	 1.4180817219	-1.0814625175	-1.3663908372	 0.121795
H	 2.1298492323	 0.3837681054	-0.5451624698	 0.113135
H	 1.3936929235	-0.5308209735	 1.7008354674	 0.112679
H	 0.688913223	-1.9907203777	 0.864407438	 0.11845
H	-1.0169861503	-0.4149167179	-2.8197578541	 0.100307
H	-3.4664839685	-1.666691757	-2.7393535301	 0.107886
H	-2.2329746014	-1.304847183	 1.0850755948	 0.268577
