18
gdb 12127	3.9863	1.66861	1.66508	3.0301	72.46	-0.1938	0.0788	0.2726	898.199	0.153008	-343.883619	-343.876001	-343.875057	-343.914836	30.127	
C	-0.0689602217	 1.5430893379	 0.0235757796	-0.508883
C	 0.0807169711	 0.055462877	 0.0120110257	 0.354629
N	-0.8271136681	-0.8663319601	 0.7338745508	-0.347268
C	 0.6366237682	-0.8977080045	 0.9998443365	-0.175381
C	 1.3573141578	-1.6883651965	-0.1481730641	 0.354629
C	 2.713672116	-2.3051158122	-0.0237507302	-0.508883
N	 0.3196853453	-2.1706336664	-1.0892874336	-0.347268
C	 0.7744339179	-0.7546613485	-1.1390464218	-0.17538
H	 0.8482801796	 2.03440266	-0.3209680348	 0.122784
H	-0.8856739324	 1.8664621673	-0.6331389382	 0.130111
H	-0.2843124052	 1.9083230309	 1.0337477519	 0.117059
H	-1.2371258227	-0.320705532	 1.4942962165	 0.219991
H	 1.0393030369	-0.7260579363	 1.991012152	 0.086958
H	 2.6731126676	-3.2472043705	 0.5363292648	 0.130111
H	 3.1404167831	-2.5177672002	-1.0101016427	 0.117059
H	 3.404436386	-1.6359190246	 0.5020338033	 0.122784
H	 0.8202942552	-2.6508642453	-1.8395066014	 0.219991
H	 1.2041429454	-0.325563876	-2.0364055841	 0.086958
