18
gdb 30020	3.19025	1.5779	1.08297	3.7244	79.34	-0.1719	0.0346	0.2065	1101.5446	0.151556	-398.154412	-398.146632	-398.145687	-398.186827	29.247	
C	-0.1152153375	 1.4570183264	 0.0068464163	-0.344008
N	-0.039024898	 0.0138610562	 0.0479084861	-0.110908
C	-0.0583547336	-0.8346008919	-1.0292127332	-0.030013
N	 0.0123930207	-2.1157094459	-0.6937756285	-0.37055
C	 0.061738813	-2.0741664639	 0.6657819235	 0.312436
C	 0.0075797338	-0.8052513027	 1.1583132148	 0.238785
C	 0.2304753914	-0.7831347352	 2.6353495346	-0.346846
C	-0.003599327	-2.309067969	 2.9305028868	-0.156305
N	 0.2897556979	-3.0392939728	 1.6633635836	-0.39599
H	 0.7610131193	 1.9101705948	 0.4820801132	 0.141332
H	-0.1508267708	 1.7816590388	-1.0350311992	 0.143908
H	-1.0142891519	 1.819409186	 0.5164923706	 0.140147
H	-0.1461313274	-0.4543493507	-2.0366816599	 0.119865
H	 1.2538896539	-0.482805193	 2.9043910456	 0.110998
H	-0.4538788353	-0.1613556034	 3.2222588267	 0.105703
H	 0.6327040062	-2.674120266	 3.7405500273	 0.108456
H	-1.0524828021	-2.449442344	 3.2277612994	 0.100582
H	-0.2555834026	-3.8871686037	 1.5626864225	 0.232407
