18
gdb 117307	4.55397	0.76965	0.69938	3.5799	70.55	-0.2468	-0.0032	0.2436	1611.4033	0.146165	-476.300645	-476.290744	-476.289799	-476.337049	34.739	
C	 0.5945155413	 1.0297485265	 0.1569816514	-0.388138
C	-0.2883086985	-0.2051251763	 0.0680728916	-0.057908
O	-0.1625319224	-0.8530798911	-1.2209687261	-0.231838
C	 0.8584856191	-1.7056037716	-1.3730129681	 0.446109
O	 1.6553325227	-1.9661066171	-0.4961125865	-0.379021
C	 0.8896483881	-2.2726838358	-2.776974188	-0.417762
C	 1.2290148257	-3.7695694244	-2.9103740839	 0.384963
N	 2.1915276275	-4.2212471005	-2.0669921849	-0.51184
O	 0.6969269951	-4.444390845	-3.7682693891	-0.357423
H	 1.6501790281	 0.7532261255	 0.10853656	 0.144959
H	 0.3708041719	 1.7276437458	-0.6547918063	 0.130258
H	 0.4168378973	 1.540985643	 1.1082981278	 0.126219
H	-0.0396418154	-0.9274918742	 0.8484325761	 0.135501
H	-1.3472145485	 0.0528441517	 0.1351349727	 0.121525
H	-0.0575880087	-2.0990920955	-3.2844121047	 0.155426
H	 1.6641315005	-1.7182569244	-3.3232005825	 0.162155
H	 2.4567312417	-3.6576029138	-1.2710683274	 0.278861
H	 2.3923775246	-5.2079837129	-2.0801021522	 0.257955
