16
gdb 12131	4.08346	1.69631	1.67961	0.7599	64.15	-0.2271	0.0661	0.2932	849.9375	0.128438	-383.659917	-383.652591	-383.651647	-383.69085	28.968	
C	-0.1126931395	 1.5146754261	 0.0469728372	-0.503391
C	 0.1407897696	 0.045864012	-0.0084050276	 0.429911
O	-0.7621139691	-0.8444089769	 0.6797868783	-0.281989
C	 0.6457721638	-0.9282269463	 0.954978689	-0.140451
C	 1.3456071759	-1.7374047173	-0.196211292	 0.359382
O	 2.6448859722	-2.191601576	-0.0896801299	-0.453901
C	 0.3593854978	-2.1855106024	-1.237146508	-0.349786
C	 0.8108171122	-0.7351261261	-1.1930107346	-0.194593
H	 0.7887079002	 2.0717027208	-0.2287352354	 0.129269
H	-0.9097414946	 1.7989827578	-0.6496109133	 0.131793
H	-0.4147791452	 1.8102887172	 1.055094595	 0.13477
H	 0.9788389189	-0.835902163	 1.9831785183	 0.104509
H	 2.6213971501	-3.0970311995	 0.2410501239	 0.288606
H	 0.8140693714	-2.7500269235	-2.0456147756	 0.112899
H	-0.6563765795	-2.4576164194	-0.9789765174	 0.133352
H	 1.3268539857	-0.2576102133	-2.0151584481	 0.099619
