19
gdb 7003	2.66758	1.96561	1.53361	2.571	72.27	-0.2209	-0.0188	0.2021	936.5628	0.16254	-365.061857	-365.052795	-365.051851	-365.094893	33.25	
C	-0.125308757	 1.5158626913	-0.0504114508	-0.331352
N	-0.0154809722	 0.0804952422	 0.0849167386	-0.1043
C	-1.235832528	-0.6982753127	 0.3605087509	-0.294219
C	-0.3937432511	-1.5601390806	 1.3096118857	 0.372078
O	-0.5478012791	-2.5945250603	 1.8867241713	-0.30024
C	 0.7599477984	-0.5384506901	 1.2106183913	 0.184075
C	 2.1145641739	-1.0949300746	 0.7831915256	-0.418121
C	 0.8663931341	 0.2940206302	 2.4973161739	-0.436053
H	 0.8703611369	 1.9595134862	-0.1505818411	 0.123669
H	-0.6823701314	 1.7522639009	-0.9633039702	 0.125591
H	-0.6395066795	 2.0124695171	 0.7926481085	 0.095003
H	-2.0260877847	-0.1523263841	 0.9059282638	 0.110241
H	-1.6897956569	-1.1939113098	-0.5049532375	 0.127661
H	 2.0197314985	-1.6733275567	-0.1388153016	 0.123627
H	 2.825710889	-0.2806538212	 0.604248656	 0.115529
H	 2.5264733535	-1.7415090068	 1.5644328576	 0.127852
H	 1.2627595041	-0.3264207549	 3.3061668725	 0.136186
H	 1.5456038087	 1.1415061552	 2.356427365	 0.121946
H	-0.1037340571	 0.6844996086	 2.8195293105	 0.120827
