16
gdb 74287	2.8785	1.23756	1.17007	4.2909	70.66	-0.247	0.0206	0.2676	1121.3872	0.124892	-434.107284	-434.098644	-434.0977	-434.140867	31.865	
C	-0.0009336208	 1.5040167708	 0.0137983961	-0.420605
C	 0.0158848499	-0.0317737094	 0.0264573261	 0.112369
C	 0.8252305036	-0.6381921508	-1.1733986555	-0.141807
O	 1.728342878	-1.5658280319	-0.5512831114	-0.247353
C	 1.5916221376	-1.3684268315	 0.7866959992	 0.486261
N	 2.4855383087	-2.0610339671	 1.5411599607	-0.578095
N	 0.7048108524	-0.55187383	 1.2158132765	-0.362245
C	-1.376111387	-0.5345049136	 0.0090490648	 0.273696
N	-2.4621581567	-0.927968657	-0.0275831039	-0.345808
H	 1.0282303588	 1.8718917282	 0.0383938904	 0.126881
H	-0.4990659309	 1.8852714769	-0.8828018572	 0.129213
H	-0.5259740474	 1.8793426746	 0.8943429955	 0.149948
H	 0.210034657	-1.1770876535	-1.8950038065	 0.144127
H	 1.4097331368	 0.1308048833	-1.6879070327	 0.123724
H	 2.9060059872	-2.8667677973	 1.1073157608	 0.271863
H	 2.243278823	-2.1565929817	 2.5140560873	 0.277831
