18
gdb 27166	2.96692	1.32858	0.99099	1.5341	81.3	-0.1793	0.028	0.2073	1206.5153	0.14881	-401.958319	-401.94991	-401.948966	-401.99209	31.768	
N	 0.094026256	 1.4204655698	-0.4558108651	-0.611679
C	 0.0329550294	 0.0622416065	-0.0914356483	 0.090573
C	-1.073394959	-0.6997911253	 0.1666928486	 0.343974
O	-0.6888668822	-1.9996891365	 0.3992700442	-0.199249
C	 0.6615237638	-2.0480201547	 0.2920158051	-0.023141
C	 1.1617712214	-0.8239273065	-0.0092058711	-0.222916
C	-2.5085977986	-0.399548244	 0.2223571992	-0.113747
C	-3.5431997372	-1.3967517952	-0.263498079	-0.261789
C	-3.4248688428	-1.1011034845	 1.2068376097	-0.264665
H	 0.8980454438	 1.8849401055	-0.0516210702	 0.242111
H	-0.737715483	 1.9317377708	-0.1883533903	 0.239639
H	 1.1128364502	-3.0125442918	 0.4558977538	 0.127831
H	 2.199054264	-0.5685354599	-0.1632853611	 0.10217
H	-2.7329009123	 0.6441566656	 0.0248054015	 0.07857
H	-4.4026510281	-1.015816754	-0.8040575321	 0.11103
H	-3.1716450852	-2.3522379418	-0.6150234753	 0.12631
H	-2.9751572343	-1.8595777509	 1.8370546691	 0.125223
H	-4.2028320058	-0.515481983	 1.6843440611	 0.109755
