18
gdb 83032	2.74266	1.3489	1.14131	5.6053	82.24	-0.2016	-0.0263	0.1753	1130.6657	0.148004	-401.961976	-401.953476	-401.952532	-401.995174	31.637	
C	-0.0967978503	 1.5647547785	-0.1054536885	-0.418024
C	 0.0351716101	 0.0652684606	 0.0092948177	-0.028183
C	 1.3312927753	-0.6853685386	-0.2000318235	-0.038231
N	 2.5742252864	 0.0248502342	-0.0254171337	-0.258382
C	 2.6891469081	 0.4999415398	 1.2433412072	-0.104048
C	 1.6484445439	 0.1054331652	 2.0329850493	 0.179651
C	 1.5558019197	 0.3079235457	 3.4545638634	 0.051253
O	 0.6532520284	-0.0985303045	 4.1651248408	-0.313096
C	 0.6757368986	-0.6515299522	 1.1898541838	-0.17424
H	 0.7503699853	 2.086867959	 0.3447074975	 0.121509
H	-0.1668349118	 1.8737217582	-1.1543821671	 0.111923
H	-1.0014387745	 1.9082052248	 0.4068715054	 0.128997
H	-0.8144210259	-0.484366643	-0.3882322827	 0.093534
H	 1.3749563352	-1.5587953469	-0.8418385115	 0.101865
H	 3.1530348526	 0.3225609251	-0.7911595476	 0.258597
H	 3.5421524981	 1.1066709807	 1.5213644262	 0.136813
H	 2.4071888287	 0.8847726946	 3.8877634561	 0.040936
H	 0.165104692	-1.503509741	 1.6219215472	 0.109126
