23
gdb 93227	2.52565	1.26958	0.91631	2.8931	85.84	-0.233	-0.0095	0.2235	1352.1277	0.206169	-388.345751	-388.336307	-388.335363	-388.379697	36.269	
C	-0.0040541577	 1.5857637436	 0.0031189491	-0.405967
C	 0.0064581903	 0.0537965681	-0.00207133	 0.031506
C	 0.6361631257	-0.5040232255	-1.2886704859	-0.197645
C	 0.6598132281	-2.0441062753	-1.2999885535	-0.307058
C	 1.3141315375	-2.6014776629	-0.0432606546	 0.389351
O	 2.2146460871	-3.4085583237	-0.0846106844	-0.311426
C	 0.7539440927	-2.0554617098	 1.2710104146	-0.090593
C	 1.495432225	-2.607096243	 2.4871811318	-0.398772
C	 0.7377890798	-0.5098585528	 1.2264409225	-0.189845
H	 1.0160381075	 1.9853025211	-0.0384471904	 0.115747
H	-0.5515090948	 1.9821443804	-0.8583505981	 0.112543
H	-0.4771531979	 1.9765230858	 0.9099744052	 0.1128
H	-1.0370081593	-0.2947253761	 0.039397732	 0.069217
H	 0.0957648141	-0.1364672718	-2.1683788987	 0.098245
H	 1.6642988462	-0.1263483945	-1.3760948787	 0.103821
H	-0.3731844284	-2.4183780953	-1.3357678933	 0.111943
H	 1.1880643865	-2.439537979	-2.1708690374	 0.115943
H	-0.2967689426	-2.3858947463	 1.3061072405	 0.088428
H	 2.5443151407	-2.2957288696	 2.4770050864	 0.124411
H	 1.0383889426	-2.2464058599	 3.4139214973	 0.104245
H	 1.4828451553	-3.6993920077	 2.4928449365	 0.127158
H	 1.7746461984	-0.1430014491	 1.228143979	 0.09942
H	 0.2773172732	-0.1318063765	 2.1470064	 0.096526
