22
gdb 88545	3.26095	1.21352	1.11739	1.0342	86.94	-0.2047	0.0955	0.3002	1218.9593	0.194226	-367.150825	-367.142108	-367.141164	-367.184372	34.189	
C	 0.2577455175	 1.4936721841	-0.5261824142	-0.415452
C	 0.0161213199	 0.0639437414	-0.0949184649	 0.019953
C	 1.133230583	-0.9190461101	-0.0437037574	-0.264571
N	 0.4965508613	-0.4688936638	 1.1906810749	-0.170243
C	 1.1845904249	 0.3855586329	 2.1068498447	 0.407378
C	 2.6172718309	 0.8562069431	 2.0521033954	-0.328091
C	 2.1578411608	 0.0201906277	 3.2275389101	-0.11704
C	 1.3874601199	 0.8967578121	 4.2183830766	-0.218365
C	 0.3856100741	 1.2680951799	 3.0761443467	-0.277815
H	 1.2684534396	 1.8275285521	-0.2812149951	 0.130982
H	 0.1219445557	 1.5868883024	-1.6092303577	 0.118518
H	-0.4515972992	 2.17585209	-0.0451602045	 0.124003
H	-0.9730236299	-0.3139985533	-0.3504579158	 0.087365
H	 0.9774273851	-1.9646201206	-0.2971197088	 0.112175
H	 2.123982542	-0.5391183244	-0.2857791805	 0.108322
H	 3.2612826576	 0.329230555	 1.3558394654	 0.108007
H	 2.8758161791	 1.9065947671	 2.1852176453	 0.094922
H	 2.6219750261	-0.9337805036	 3.4488665673	 0.085749
H	 0.9088180172	 0.3306629428	 5.0202894093	 0.103424
H	 1.9537576317	 1.7223819684	 4.6631868711	 0.091989
H	 0.2978120331	 2.3260962452	 2.8075318645	 0.088395
H	-0.6121688405	 0.8630587918	 3.2564433176	 0.110395
