19
gdb 80057	2.46847	2.00008	1.50215	2.1954	78.01	-0.2395	-0.0048	0.2347	960.9781	0.160026	-382.039182	-382.031381	-382.030437	-382.070962	30.874	
C	 0.0021033859	 1.6062791284	 0.010301383	-0.421586
C	 0.1001901916	 0.087389639	 0.0019464165	-0.023886
C	 1.158016571	-0.6818250081	-0.8914538226	-0.057954
N	 2.3821957737	 0.1337970952	-0.9259004893	-0.188737
C	 2.8271194605	 0.0708835156	 0.2646438065	 0.029988
N	 2.1758466222	-0.8194187419	 1.1773154706	-0.199438
C	 1.3308815303	-1.6610315825	 0.3081502639	-0.104908
C	 0.6489289464	-0.6946123248	 1.2050360912	 0.325899
C	-0.0037236613	-0.8484030927	 2.5437722377	-0.498011
H	 0.9641829866	 2.0795186876	 0.2178870282	 0.129071
H	-0.352001474	 1.9804156895	-0.955818341	 0.122058
H	-0.7100480786	 1.9346295083	 0.7755138554	 0.113253
H	-0.8791713956	-0.3496814269	-0.2238437251	 0.085745
H	 0.8441004563	-1.0297577227	-1.8728218624	 0.077237
H	 3.6758699456	 0.6431242115	 0.6262670725	 0.125249
H	 1.427862311	-2.7413012415	 0.3359979687	 0.09704
H	 0.5370695589	-1.5765068948	 3.1529781645	 0.137693
H	-0.0160563258	 0.1036683013	 3.0857442271	 0.129605
H	-1.0408239648	-1.1830285403	 2.4313542148	 0.121681
