23
gdb 109774	1.9478	1.36467	0.96343	2.3953	82.47	-0.2332	0.0651	0.2983	1353.6797	0.203028	-425.39814	-425.387302	-425.386358	-425.434007	39.563	
C	-0.1650218394	 1.0659346728	 0.2628610027	-0.241637
O	 0.6853789976	-0.0627283353	 0.1882334853	-0.253432
C	 0.8911006406	-0.5478687174	-1.1050490719	 0.02953
C	 1.4713827382	-1.9312432377	-1.1162796042	 0.062487
O	 1.6759931381	-2.5576663594	 0.1154352637	-0.428354
C	 0.0559996641	-1.7136476299	-1.6269118706	-0.086394
C	-1.1405817562	-2.2764162744	-0.8760082958	 0.029427
C	-2.4549664906	-1.6750978399	-1.3963725743	-0.397528
C	-1.1644977672	-3.810496671	-0.9688329855	-0.387658
H	 0.2355884703	 1.9025720554	-0.3275363137	 0.113529
H	-1.1774680746	 0.8384963406	-0.0935026176	 0.124634
H	-0.2113807097	 1.3633267665	 1.3129597549	 0.130986
H	 1.2533454764	 0.2034533654	-1.8073831577	 0.086066
H	 2.2527002318	-2.1685343702	-1.8335038151	 0.094457
H	 1.5369863376	-1.8843066442	 0.7941136501	 0.299454
H	-0.0443141803	-1.7410044652	-2.7113260834	 0.077155
H	-1.0326079352	-2.0071652376	 0.1804184337	 0.076266
H	-2.6190209505	-1.9451526982	-2.4465835204	 0.110222
H	-3.310183292	-2.0480436341	-0.8228591306	 0.109636
H	-2.458718834	-0.5821067187	-1.3346632389	 0.1091
H	-0.2548466216	-4.2337683077	-0.5371118016	 0.13692
H	-2.0274082588	-4.2209714394	-0.4329468981	 0.101695
H	-1.2364912544	-4.1389853705	-2.0127662712	 0.103435
