21
gdb 101515	5.69738	0.51174	0.4912	4.1529	91.82	-0.2623	-0.0568	0.2055	2237.4487	0.17913	-387.08244	-387.071279	-387.070335	-387.120833	38.114	
C	-0.0793503621	 1.5487084159	-0.1324178171	-0.398206
C	 0.0172011122	 0.026538464	 0.0069994969	-0.16629
C	 0.7108073912	-0.4550475843	 1.2936795625	 0.045108
C	-0.0502981896	-0.0561504683	 2.5637377065	-0.39241
C	 0.9072184186	-1.9909134746	 1.2263884678	-0.373462
C	 1.6946671053	-2.5462591901	 2.3158964567	 0.065474
C	 2.3577143496	-3.0054963943	 3.2164919183	 0.068562
C	 3.1477493519	-3.522023951	 4.3022195362	 0.014423
O	 3.4646998176	-4.682709386	 4.4331070309	-0.230809
H	 0.9109332324	 2.0143605192	-0.075203867	 0.117052
H	-0.5186749047	 1.8223461499	-1.0964941965	 0.117259
H	-0.7021557288	 1.9935837739	 0.6491878	 0.122238
H	-0.9895040592	-0.4119397216	-0.0407195486	 0.096196
H	 0.5636589356	-0.3740370325	-0.8568167595	 0.094654
H	 1.7109132295	-0.0021907333	 1.3324157816	 0.085064
H	 0.4453287938	-0.4475604442	 3.4567052783	 0.126237
H	-0.1156585265	 1.0298740354	 2.6686116065	 0.12073
H	-1.0725823885	-0.453583452	 2.545848658	 0.113572
H	-0.074688472	-2.4852876115	 1.2129670576	 0.140032
H	 1.3897020215	-2.2601663892	 0.2774358234	 0.139405
H	 3.459003912	-2.7542250452	 5.0403652875	 0.095173
