8
gdb 3820	10.19976	2.09928	1.74096	2.5558	47.78	-0.3231	-0.097	0.2261	622.6547	0.044962	-354.290746	-354.285702	-354.284758	-354.319736	17.126	
N	 0.0688982761	-1.1221745611	-0.004605003	-0.29807
C	-0.0039471387	 0.0309838472	 0.0028719119	 0.281546
C	-0.0846894502	 1.4506853777	 0.0119609969	 0.351465
N	-1.1542275821	 2.1893749537	 0.0299449268	-0.289207
C	-0.6098207321	 3.4479662513	 0.0300711593	 0.037385
N	 0.6969183414	 3.4871015719	 0.0134014955	-0.075277
O	 1.0627154732	 2.1468388422	 0.0011073157	-0.178729
H	-1.2007153176	 4.3517085271	 0.042805377	 0.170888
