18
gdb 32446	3.23974	1.2177	0.89503	2.48	76.94	-0.1783	0.055	0.2333	1292.2588	0.146018	-439.10687	-439.096786	-439.095842	-439.142051	35.485	
C	 0.0641993209	 1.3333736037	 0.0068142256	-0.243286
O	 0.0176339572	-0.0778495483	-0.009317328	-0.28384
C	-1.2343552089	-0.6191784036	 0.0058968338	 0.243547
C	-2.4813201805	-0.0347038578	 0.0343677625	-0.222464
N	-3.3976036577	-1.0660435251	 0.0372990628	-0.329531
C	-2.7623508195	-2.2922605198	 0.013308937	 0.247647
C	-3.4894323731	-3.5931606566	 0.0108046226	-0.508879
C	-1.4121253201	-2.030244568	-0.00728956	 0.135473
O	-0.4119302167	-2.9616071827	-0.0366564514	-0.465854
H	 1.1175101177	 1.6191886939	-0.0079354849	 0.129697
H	-0.4409380041	 1.7568143386	-0.8725751855	 0.11805
H	-0.4100882977	 1.735422122	 0.9130380974	 0.117998
H	-2.7894020933	 0.9958919009	 0.0510174898	 0.115405
H	-4.3931045133	-0.9439035643	 0.0606194535	 0.254195
H	-4.1364112189	-3.7100698043	-0.8683796024	 0.121028
H	-2.7640586139	-4.409789844	-0.002095623	 0.150325
H	-4.1191191256	-3.7224799672	 0.9007055609	 0.120629
H	 0.4210462775	-2.4773088676	-0.0374760807	 0.29986
