18
gdb 109066	4.03155	1.22334	1.10509	1.4708	76.71	-0.2202	0.0121	0.2324	1127.1986	0.148849	-401.890635	-401.883073	-401.882129	-401.922901	29.531	
O	-0.0014064261	 1.4159667718	-0.0534564331	-0.413681
C	-0.0260239882	 0.0011047043	-0.0200119217	-0.1943
C	-1.4378607749	-0.4671071619	 0.1102181013	 0.324348
C	-2.558147725	 0.2684224562	 0.1368908127	-0.187584
C	-3.7485044385	-0.6550526753	 0.0702051106	-0.120018
C	-3.6778566725	-1.3490309579	-1.3381914344	-0.140038
N	-2.8567284751	-2.4756399457	-0.8086366552	-0.164365
C	-3.2146082611	-2.0296681369	 0.5747032099	-0.037447
C	-1.8034644385	-1.9090496563	 0.1627207939	-0.133965
H	 0.9157787213	 1.6980858835	-0.1084309077	 0.290563
H	 0.4171018146	-0.4323177173	-0.9343568753	 0.103283
H	 0.5702418437	-0.3910067379	 0.823667214	 0.095368
H	-2.6101058769	 1.3415802027	 0.0122295419	 0.114077
H	-4.7094237264	-0.2698998583	 0.4060420745	 0.072538
H	-4.6401690212	-1.7702024381	-1.6389603836	 0.112274
H	-3.2396759013	-0.7775831344	-2.1630300142	 0.099741
H	-3.62349356	-2.6919718121	 1.3314445458	 0.091208
H	-1.0768348939	-2.6743422765	 0.4114677106	 0.087998
