21
gdb 64027	2.25249	1.54637	1.16629	0.7163	89.	-0.2414	0.0188	0.2601	1160.4464	0.1811	-349.939944	-349.930685	-349.929741	-349.973245	36.501	
C	 0.0050799923	 1.5367276497	-0.1187479008	-0.420679
C	 0.0072823522	 0.0023026823	-0.0287809733	 0.288816
C	-1.4302048448	-0.5249221733	-0.0492141359	-0.444039
C	 0.8827342242	-0.5736268074	-1.1842053429	-0.292665
C	 2.2536915181	-0.7115213636	-0.5708321365	-0.080515
C	 2.2105677327	-0.6529445774	 0.7567879039	-0.071877
C	 0.7839832974	-0.4863458946	 1.2577312132	-0.224559
C	 0.6420156877	 0.3496759199	 2.4437248121	 0.331221
C	 0.5288444394	 1.0192944153	 3.4364169	-0.477476
H	 1.0240438648	 1.9354959945	-0.1097014232	 0.11935
H	-0.4771903522	 1.8556288051	-1.0489378518	 0.104529
H	-0.536977703	 1.9837040135	 0.7184303452	 0.124619
H	-1.9501761128	-0.2103734891	-0.9606768764	 0.111783
H	-1.455793191	-1.619418324	-0.0104174211	 0.108431
H	-1.9986628461	-0.1437258695	 0.806076883	 0.122053
H	 0.5094785249	-1.5540830188	-1.5146465752	 0.101412
H	 0.8680145755	 0.0750495923	-2.0679061072	 0.100818
H	 3.1495219823	-0.8759495532	-1.1594495755	 0.095843
H	 3.0483612166	-0.7514438853	 1.4363457933	 0.10393
H	 0.3987478631	-1.4845213785	 1.5227413692	 0.106418
H	 0.4320613586	 1.613779722	 4.3108576601	 0.192589
