18
gdb 125058	2.99314	1.30401	0.98439	4.3878	79.88	-0.2254	0.0049	0.2303	1218.5308	0.149008	-398.127996	-398.119559	-398.118614	-398.162096	30.801	
C	 0.2069263072	 1.5587314156	 0.1439412188	-0.511371
C	 0.0350886175	 0.0861672144	-0.0174237474	 0.224352
C	-0.1526083147	-0.7314845951	-1.114646022	 0.264424
N	-0.2515592649	-2.0243887247	-0.6766612009	-0.276663
N	-0.1374985589	-2.0594206248	 0.6179752392	-0.119618
N	 0.0357979673	-0.7894749844	 1.0239508201	-0.223572
C	-0.2452745829	-0.3830391679	-2.5437956887	-0.104961
C	 0.3154125635	-1.3261807335	-3.5899176864	-0.260066
C	-1.1707634345	-1.1657155454	-3.4544477617	-0.260086
H	 1.1626909282	 1.8087981414	 0.6186715056	 0.140157
H	 0.1854907882	 2.0490904348	-0.8314284346	 0.149306
H	-0.5910448437	 1.9990649304	 0.7529309632	 0.140594
H	 0.1461253509	-0.5989448909	 2.0072935212	 0.274529
H	-0.150037463	 0.6773464073	-2.7535955826	 0.074345
H	 0.8110520305	-0.8905084138	-4.4505089634	 0.108004
H	 0.7538267891	-2.2463888392	-3.2216849033	 0.136323
H	-1.7210782181	-1.9792196371	-2.9962419343	 0.136293
H	-1.7084957417	-0.6183716972	-4.2208400727	 0.108011
