16
gdb 50886	4.74227	0.67986	0.64086	2.3733	77.33	-0.2534	0.0023	0.2557	1710.6654	0.123382	-434.072041	-434.062303	-434.061359	-434.108083	33.928	
N	 0.927503977	-0.0848434383	-0.0393687914	-0.476598
C	-0.214138813	 0.3909258517	 0.2522648937	 0.107582
N	-1.3573282332	-0.1605986006	-0.2968963197	-0.355537
C	-2.6323089983	 0.3315217504	-0.0372772425	 0.537187
O	-2.8322397367	 1.2847087031	 0.6917031812	-0.393328
N	-3.6268505231	-0.3414648062	-0.7063835272	-0.374338
C	-5.0263488574	-0.0717995946	-0.399486324	-0.291548
C	-5.7000639024	-1.2108263456	 0.2200439432	 0.290239
C	-6.2464392698	-2.1659444281	 0.7024852222	-0.449323
H	 1.6575168787	 0.4305338424	 0.4479660977	 0.231035
H	-0.4434877023	 1.2256268373	 0.9169829977	 0.141715
H	-1.2101094143	-0.9267168094	-0.9382437655	 0.254513
H	-3.4191700315	-1.2325714563	-1.1286892419	 0.248163
H	-5.0260541678	 0.7930984956	 0.2706050184	 0.183407
H	-5.5609866929	 0.2211759315	-1.3118852329	 0.140234
H	-6.734817113	-2.9987392029	 1.1452251411	 0.206597
