23
gdb 96553	2.24677	1.5209	1.06707	0.1441	81.98	-0.2373	0.082	0.3193	1232.202	0.20666	-425.426108	-425.416914	-425.415969	-425.459765	35.689	
C	 0.0427374239	 1.5722626265	-0.1244982158	-0.40739
C	 0.0247855136	 0.0427207166	-0.0018115137	 0.004658
C	 0.6169336315	-0.5589951275	-1.2994561407	-0.083852
O	 1.1549567376	-1.8655933774	-1.1759862758	-0.249044
C	 2.5258044261	-1.8867215009	-0.8215337853	-0.080692
C	 2.7576198137	-1.6324785103	 0.6671676753	-0.082962
O	 2.1670127297	-0.4305597697	 1.1199544437	-0.268747
C	 0.7432211049	-0.4971572454	 1.2546775379	 0.137815
C	 0.370495683	 0.2317943385	 2.5421792827	-0.407895
H	 1.069757715	 1.9481386178	-0.0644336887	 0.12893
H	-0.3734526839	 1.8879429513	-1.0876783551	 0.110479
H	-0.5452844636	 2.0564387738	 0.6593393813	 0.115756
H	-1.0190663275	-0.2881988882	 0.0860996715	 0.071186
H	-0.1699324145	-0.6191347717	-2.0598161503	 0.102953
H	 1.3929234837	 0.1179845173	-1.6869874952	 0.090541
H	 2.9086900447	-2.8800038424	-1.0854392187	 0.100595
H	 3.0773215403	-1.1401970946	-1.4144094374	 0.093327
H	 2.3736029386	-2.4852996537	 1.2490501671	 0.093434
H	 3.834396902	-1.5513252054	 0.8589111569	 0.100453
H	 0.4564989715	-1.552685134	 1.3563620322	 0.075642
H	 0.7485435398	 1.2575575242	 2.5343618101	 0.12764
H	-0.7158131392	 0.2637127033	 2.6751539691	 0.11096
H	 0.8091754388	-0.2815149681	 3.402102739	 0.116211
