21
gdb 58777	2.5198	1.27693	1.21506	1.9811	78.89	-0.2264	0.0719	0.2983	1190.6823	0.180114	-424.186931	-424.177253	-424.176309	-424.221197	36.613	
C	-0.0208287656	 1.4549466264	-0.1502101913	-0.391269
C	 0.017974323	-0.0628261925	 0.0961550379	-0.077465
C	 0.7313365657	-0.4059530659	 1.4131427123	-0.396047
C	-1.3703599433	-0.6337083232	 0.0735357072	 0.452126
C	-2.177197436	-1.0254893093	-1.143855209	-0.4183
C	-1.9631726731	-2.0174000566	-0.0166448017	 0.240849
O	-1.3366050237	-3.2385432692	-0.1659574232	-0.458991
C	-2.8135681433	-1.6110457691	 1.1824358496	-0.138011
O	-2.2754919949	-0.2608987094	 1.1309929875	-0.33186
H	 0.9902195697	 1.8741719447	-0.1457834865	 0.107896
H	-0.4844182315	 1.6892132856	-1.1134459221	 0.113464
H	-0.5992216792	 1.9562537043	 0.6324490567	 0.132824
H	 0.5622829597	-0.5369836212	-0.7311474136	 0.081757
H	 1.7412505139	 0.0156247029	 1.4290854998	 0.105534
H	 0.1766855849	 0.0011365684	 2.2636016342	 0.129915
H	 0.8104440436	-1.4892302047	 1.5455246574	 0.12285
H	-3.1500409708	-0.5760502009	-1.3278881776	 0.109496
H	-1.5813221004	-1.2395966416	-2.0267273435	 0.11464
H	-1.8505044777	-3.7734666456	-0.7810330092	 0.289417
H	-3.905600731	-1.6290737751	 1.0826055317	 0.09851
H	-2.5089416701	-2.1174001479	 2.1054288637	 0.112665
