19
gdb 108852	2.31297	1.38278	0.91578	0.6827	80.61	-0.2255	-0.0496	0.1759	1303.4025	0.158951	-419.255758	-419.246162	-419.245218	-419.29104	34.133	
C	-0.0079369927	 1.4306266461	 0.1076665766	-0.31833
N	-0.0419392022	-0.0014440211	-0.0920236379	-0.354284
C	 0.6056770354	-0.6157353895	-1.103490054	 0.293751
N	 1.2368543295	-0.0563584864	-2.0745650984	-0.312301
C	 1.756522285	-1.0919057263	-2.9900775638	 0.048689
C	 3.2528552924	-0.8817460618	-3.2255163192	-0.381618
C	 1.4051024594	-2.4730537253	-2.3829539765	-0.370124
C	 0.602698539	-2.1207917758	-1.1434471451	 0.349204
O	 0.0745813894	-2.84032341	-0.3303494726	-0.330253
H	 0.9759518051	 1.7806640974	 0.4477549874	 0.12913
H	-0.2332869492	 1.9387088454	-0.8341785697	 0.151141
H	-0.7579934451	 1.7092804728	 0.850682954	 0.126033
H	-0.3839637964	-0.6109620271	 0.634037757	 0.258738
H	 1.2411026378	-0.966331313	-3.9516817684	 0.085278
H	 3.811597582	-1.0121150691	-2.2921338181	 0.112724
H	 3.6378973806	-1.5957527918	-3.960951174	 0.110064
H	 3.4384884345	 0.1316067862	-3.5910988267	 0.127493
H	 0.8188132639	-3.1165559006	-3.0453207311	 0.13699
H	 2.2933647318	-3.0422491098	-2.0881260194	 0.137676
