23
gdb 105370	2.86111	1.00024	0.89592	0.9696	85.72	-0.2289	0.0833	0.3121	1449.9429	0.204154	-388.247942	-388.238005	-388.237061	-388.283554	37.169	
C	-0.1852585301	 1.3802899982	 0.0126531675	-0.249406
O	 0.2699635933	 0.0513014396	 0.0829381987	-0.289245
C	 0.7433530496	-0.5650362731	-1.0913388612	 0.463624
C	 0.7669145678	-2.0632444921	-0.8525979328	-0.280514
C	-0.6056039563	-2.6576162452	-0.6084947153	 0.048247
C	-1.4420834861	-3.1756225182	-1.7519627722	-0.256591
C	-0.8320935233	-4.138939672	-0.7619818883	-0.280366
C	 0.4342459127	-0.0418413435	-2.4694841428	-0.328378
C	 1.8449938966	 0.058438833	-1.9064753542	-0.335783
H	 0.5791567182	 2.0743300553	-0.3667062923	 0.106799
H	-1.0874549728	 1.479854643	-0.6067075764	 0.111539
H	-0.4326021851	 1.6748277787	 1.035692973	 0.127553
H	 1.238724166	-2.5546554848	-1.7116400717	 0.087347
H	 1.411346728	-2.2553232471	 0.0154523264	 0.105283
H	-1.1496077123	-2.1718255479	 0.19507923	 0.093379
H	-2.5146238929	-3.016756527	-1.7253708522	 0.107514
H	-1.0175200384	-3.1450990949	-2.7504031376	 0.103812
H	 0.0014483321	-4.7476563549	-1.0987343036	 0.105455
H	-1.4862373621	-4.6396659509	-0.0565680678	 0.108149
H	 0.231253895	-0.7643294094	-3.2521020618	 0.114035
H	-0.1173166036	 0.8844086221	-2.5780887315	 0.112746
H	 2.1926035502	 1.04776655	-1.6290586833	 0.113405
H	 2.6210214536	-0.586993979	-2.3041377806	 0.111397
