23
gdb 64267	2.77219	1.40882	1.2751	1.2584	84.42	-0.2411	0.0786	0.3197	1144.0383	0.206663	-388.294171	-388.285418	-388.284474	-388.326907	35.498	
C	 0.0258149585	 1.5132464589	 0.0450657883	-0.416327
C	-0.0451557168	-0.012276971	-0.0170121472	 0.377588
C	-1.5085173897	-0.476397068	 0.0812821701	-0.429978
C	 0.6174298067	-0.5340563666	-1.3132768263	-0.247848
C	 1.0933476356	-1.9819631431	-1.2114316091	-0.031307
C	 2.4289406896	-2.2739838998	-0.5679717506	-0.286213
C	 1.1613506901	-2.6477715187	 0.1483781117	-0.027226
C	 0.7140621255	-1.8475063888	 1.3541490614	-0.104682
O	 0.719817051	-0.4500634395	 1.1206205891	-0.292148
H	 1.0691252839	 1.8363594022	 0.0958350656	 0.119445
H	-0.4350694442	 1.9580163118	-0.842382525	 0.108807
H	-0.4924944615	 1.8881546536	 0.93242262	 0.115108
H	-2.1132380349	 0.0416941973	-0.6693142867	 0.112607
H	-1.617365635	-1.550383855	-0.0935375212	 0.119525
H	-1.9165382625	-0.2421927187	 1.0694115491	 0.119577
H	-0.098183996	-0.4365913865	-2.1368248152	 0.093866
H	 1.4646778895	 0.1150513467	-1.5629052362	 0.096898
H	 0.8188896184	-2.6195830023	-2.0454979389	 0.080695
H	 3.0443363591	-3.0662061934	-0.9799030471	 0.104057
H	 2.9819414548	-1.4218379085	-0.1838530966	 0.116423
H	 0.9119020495	-3.7039847517	 0.1975581215	 0.079645
H	-0.2837767423	-2.1856335816	 1.6733321763	 0.087325
H	 1.3928150406	-2.0021567274	 2.2006121473	 0.104165
