19
gdb 75164	3.17289	1.23537	1.03407	1.9198	75.83	-0.245	0.0227	0.2677	1210.7419	0.160585	-419.204366	-419.195825	-419.194881	-419.238299	31.314	
C	-0.0758924222	 1.3883664334	 0.2655977453	-0.473129
C	 0.0174653653	-0.0806156336	 0.0352009143	 0.400215
N	-0.2707291339	-0.7034609075	-1.0312157891	-0.298077
C	-0.0401052982	-2.1283798445	-0.7618891308	-0.206835
C	 0.5524749337	-2.179186456	 0.6768419037	 0.055378
O	 0.4626699844	-0.8015380341	 1.1133146503	-0.271095
C	-0.1809401027	-3.0884143093	 1.6368620992	-0.003025
C	-0.27396249	-2.7800453609	 3.0816614803	-0.243553
N	-1.4691990298	-2.688890572	 2.2156630466	-0.318767
H	 0.9064598292	 1.794663398	 0.5260166923	 0.146632
H	-0.448455021	 1.8764367006	-0.6341399258	 0.155511
H	-0.74741701	 1.6006506612	 1.1036095655	 0.143744
H	-0.9869214557	-2.6766351557	-0.8330209919	 0.125019
H	 0.6403466294	-2.5504828627	-1.5073490994	 0.117012
H	 1.6157455358	-2.4480528549	 0.6638399352	 0.094985
H	-0.1426449859	-4.1330936727	 1.3306316573	 0.098014
H	-0.295667887	-3.5858046185	 3.8096230754	 0.11858
H	 0.176886392	-1.8547852998	 3.4267179608	 0.125062
H	-1.6327398535	-1.706551181	 2.0027928808	 0.23433
