15
gdb 43457	3.00198	1.53203	1.10361	3.6329	68.27	-0.2539	-0.0051	0.2488	1053.0089	0.113294	-453.995136	-453.987372	-453.986428	-454.028461	28.926	
N	-0.0963128044	 1.248350214	 0.0065415729	-0.543427
C	-0.0509764997	-0.0081842844	 0.0025371774	 0.365967
O	 1.0907990129	-0.7789438459	-0.0043092592	-0.243007
C	 0.7607509467	-2.1399435151	-0.0035258946	 0.476885
O	 1.5825198261	-3.0068717765	 0.0073431383	-0.373292
N	-0.5983570749	-2.218902827	-0.0208689946	-0.45765
C	-1.2225484303	-0.9312373199	 0.0044668775	 0.311018
C	-2.4747335437	-0.6060780553	 0.7785592919	-0.304358
C	-2.492253012	-0.5869066889	-0.7300623324	-0.303177
H	 0.8371706929	 1.6582885956	 0.0045783954	 0.240153
H	-1.0664075394	-3.1065126215	 0.029676092	 0.27246
H	-2.9706883464	-1.4269180441	 1.2857864147	 0.124773
H	-2.4820099134	 0.341542441	 1.3048569226	 0.154021
H	-2.5117522881	 0.3740408864	-1.2312539313	 0.154231
H	-2.9995353663	-1.3951725784	-1.2459617508	 0.125404
