21
gdb 37471	2.84719	1.64968	1.35944	1.2986	80.91	-0.232	0.0832	0.3152	1033.2505	0.185891	-387.065187	-387.057878	-387.056933	-387.096783	30.122	
C	-0.0177845008	 1.4184987097	 0.025958477	-0.277976
C	 1.3147705457	 0.7293827364	 0.1004382569	-0.07231
C	 0.0108952346	-0.0813472212	 0.0861064026	-0.061296
C	 0.3618963731	-0.641757751	-1.2935015476	 0.081897
O	-0.5390812459	-0.2399962054	-2.3072562578	-0.261849
C	 0.0907019426	 0.0532489892	-3.5452232506	-0.063147
C	 1.0232784342	 1.2562847363	-3.4108640419	-0.205438
C	 2.1830215955	 0.9410851162	-2.4465591365	-0.234709
C	 1.7481408221	 0.1035340702	-1.2305291583	-0.012006
H	-0.326030596	 1.9050436332	 0.9459713431	 0.108253
H	-0.3585128214	 1.914184355	-0.8759962465	 0.117192
H	 1.9854889018	 0.8961360566	 0.9355362435	 0.081743
H	-0.458524594	-0.6402164262	 0.8854280937	 0.083795
H	 0.4748484681	-1.7341714734	-1.3107681841	 0.064949
H	 0.6462147891	-0.8239892121	-3.921015251	 0.079858
H	-0.7200945648	 0.2574203782	-4.2508106856	 0.10383
H	 1.4192251019	 1.5325068968	-4.3950485928	 0.091375
H	 0.4321814072	 2.1076950971	-3.0553219145	 0.107976
H	 2.938052195	 0.372952525	-3.0042593333	 0.095407
H	 2.6751536837	 1.8633745749	-2.117122373	 0.098575
H	 2.5187234083	-0.6432760355	-1.0179881031	 0.07388
