15
gdb 26542	2.409	1.84913	1.05299	3.3332	72.74	-0.2256	-0.0414	0.1842	1067.7797	0.113032	-457.825402	-457.817624	-457.81668	-457.857736	29.197	
C	 0.0860355552	 1.5274799114	 0.039259021	-0.483091
C	-0.0369046482	 0.0431799795	 0.025865841	 0.26782
C	-1.1793434631	-0.6733990318	-0.0858882718	 0.146789
O	-2.3949967499	-0.1066443231	-0.2034466204	-0.434502
C	-1.1818133931	-2.1392558279	-0.0876176038	 0.324975
O	-2.261261262	-2.7283131031	-0.1930934645	-0.421392
C	 0.128056871	-2.735145608	 0.0390576577	-0.282037
C	 1.2135381661	-1.9408170475	 0.1453662557	 0.070487
O	 1.1664463579	-0.602162892	 0.1421584178	-0.217323
H	 0.7154235734	 1.8764117581	-0.7870170614	 0.143906
H	-0.9030273638	 1.9764511509	-0.0564611273	 0.161697
H	 0.5444249122	 1.8746934271	 0.971960756	 0.143906
H	-2.9922162923	-0.8812484826	-0.2623497014	 0.305468
H	 0.2341653373	-3.8122959906	 0.0482723041	 0.127353
H	 2.2316018392	-2.2970568201	 0.2439442274	 0.145945
