21
gdb 69556	2.65458	1.54662	1.34573	1.7449	82.05	-0.2428	0.0811	0.324	1088.3198	0.181328	-387.046698	-387.038138	-387.037193	-387.079156	34.06	
C	-0.1309319666	 1.5351858169	 0.0679268599	-0.504918
C	 0.142474911	 0.0682909447	-0.0061756646	 0.414896
O	-0.7477120526	-0.8166726819	 0.6951582414	-0.282585
C	 0.6572690675	-0.9161298575	 0.967531771	-0.106771
C	 1.3222410185	-1.7638113411	-0.1497831437	 0.34223
C	 2.8045859744	-2.0076147512	 0.0178908326	-0.495298
C	 0.4196359577	-2.8770194641	-0.7695041385	-0.27499
C	-0.1366018832	-1.8547648703	-1.8096694911	-0.22437
C	 0.7486613705	-0.7364800891	-1.1889212693	-0.153598
H	 0.7468599162	 2.1106397552	-0.2435446307	 0.122716
H	-0.9625030525	 1.8089341697	-0.591959382	 0.129818
H	-0.3973669436	 1.8231995717	 1.0885636431	 0.132464
H	 0.9600143709	-0.8148819699	 2.0064648955	 0.089541
H	 2.9969664939	-2.7430296911	 0.8091872651	 0.117621
H	 3.2512179761	-2.3892603982	-0.9064115927	 0.116852
H	 3.3334753985	-1.0857244266	 0.2881517334	 0.113582
H	 0.997697467	-3.6903227716	-1.2169744828	 0.091406
H	-0.3228534356	-3.3010727907	-0.091363733	 0.106583
H	 0.1327164234	-2.089440347	-2.8421159815	 0.092965
H	-1.211631242	-1.6755949463	-1.7551749647	 0.108105
H	 1.4153688406	-0.1680084116	-1.8398652974	 0.063751
