20
gdb 10988	2.73921	2.33069	1.67923	1.8068	74.13	-0.2315	0.0778	0.3093	877.3245	0.177839	-348.990248	-348.98266	-348.981716	-349.021434	30.322	
C	-0.1716106343	 1.5468930749	-0.020840683	-0.439673
C	 0.010967482	 0.0352470928	-0.00599753	 0.006421
C	 1.1577712929	-0.5989755841	-0.8405191362	 0.096626
C	 2.129954653	-0.2412394715	 0.3062224263	-0.286287
C	 0.8657908892	-0.59910875	 1.1611902464	 0.286212
C	 0.7021663211	-0.229241369	 2.6157097708	-0.5073
C	 0.7278308517	-2.0794769038	 0.7709716451	-0.109726
O	 0.9434008763	-2.0084363031	-0.6569086954	-0.282625
H	 0.7607390942	 2.09994571	 0.1220659374	 0.117342
H	-0.6012506021	 1.8704560871	-0.9752070215	 0.119671
H	-0.8630427758	 1.8597525907	 0.7695210102	 0.119117
H	-0.9560379158	-0.452602264	-0.1740889817	 0.068091
H	 1.3397418429	-0.3872435358	-1.8938206388	 0.073027
H	 3.0169481867	-0.8713521031	 0.4130598431	 0.096078
H	 2.4036469844	 0.812098953	 0.3563758473	 0.099893
H	 0.7916785213	 0.8512419755	 2.7661853508	 0.119638
H	-0.2789349258	-0.5388324275	 2.9947949447	 0.117328
H	 1.4646417309	-0.7152889325	 3.2352416443	 0.119247
H	 1.4845653155	-2.7238710633	 1.2366153148	 0.093298
H	-0.2669737883	-2.4910593563	 0.9843687154	 0.093621
