18
gdb 81996	2.47331	1.45381	1.30135	4.2053	76.12	-0.2455	0.0234	0.2689	1068.8233	0.148212	-398.091308	-398.082659	-398.081715	-398.124165	33.128	
C	-0.1319197613	 1.556087702	-0.0750306823	-0.408343
C	 0.0237246244	 0.0451390223	-0.0543751952	-0.023187
C	 0.7451833472	-0.6477390961	-1.2153782268	-0.045788
N	 2.1525945727	-0.1763346063	-1.1828716077	-0.352542
C	 1.7285825508	-1.2942803059	-0.3134296255	-0.097777
C	 1.1192338061	-0.590590163	 0.9352382169	 0.145721
N	 1.9257306409	 0.3660645971	 1.6688737193	-0.555448
C	 0.5177430248	-1.5514583767	 1.8564740202	 0.249738
N	 0.0513390367	-2.3353074151	 2.5666412277	-0.339898
H	 0.7978025045	 2.0446146339	-0.375440924	 0.131571
H	-0.9131038947	 1.8439056029	-0.7867969656	 0.114956
H	-0.4133585368	 1.9312784237	 0.9123301153	 0.136582
H	-0.9365003528	-0.4416212785	 0.1339664722	 0.103729
H	 0.3074913654	-1.020122687	-2.1326934955	 0.102448
H	 2.638079494	-0.5768872326	-1.9835732465	 0.23893
H	 2.2052292219	-2.2659069218	-0.3554406818	 0.109179
H	 2.5377619823	-0.1112478699	 2.3239384134	 0.237755
H	 2.5129208737	 0.849609241	 0.993441516	 0.252374
