19
gdb 47893	2.46658	1.50291	1.0815	2.0404	76.87	-0.2432	-0.039	0.2042	1136.9646	0.160221	-423.030828	-423.022552	-423.021608	-423.063943	31.529	
O	 0.0004238761	-0.0751378732	-0.4314648039	-0.29948
C	-0.0129864286	 1.0938495353	-0.1139016465	 0.337219
C	-1.3263336829	 1.866133872	 0.0005918309	-0.286535
C	-1.6902227737	 2.5724161065	 1.3266016987	-0.241028
C	-0.7853548152	 3.7374989357	 1.7751026286	-0.055772
O	 0.1924461656	 3.4149660748	 2.7542605499	-0.247969
C	 0.9882214144	 2.2726856946	 2.476959253	-0.128029
C	 1.7407708497	 2.3637844545	 1.17387221	-0.065845
C	 1.2829492	 1.8483550146	 0.0346081222	-0.139984
H	-1.2975299591	 2.6299527844	-0.7908809449	 0.119463
H	-2.115799437	 1.1560673964	-0.2626037127	 0.122891
H	-2.698502859	 2.976316149	 1.1831112167	 0.112696
H	-1.7777473413	 1.8466230896	 2.1425847148	 0.124566
H	-0.3157587907	 4.1998730292	 0.8939620734	 0.091916
H	-1.3941756259	 4.5059803496	 2.2599812975	 0.111529
H	 1.6841544186	 2.1996406257	 3.3174938015	 0.116112
H	 0.3740718209	 1.3605268157	 2.4867438385	 0.102252
H	 2.6925115112	 2.8890751275	 1.1836255098	 0.10446
H	 1.872783247	 1.9039098181	-0.8780497876	 0.121539
