14
gdb 48869	2.75135	1.71889	1.26883	2.948	66.79	-0.2538	-0.0521	0.2017	954.9577	0.10011	-436.631775	-436.624583	-436.623639	-436.663877	26.64	
O	-0.5952639708	 0.6096977498	 0.7491878761	-0.243874
C	 0.0939854865	 0.8885227632	-0.2012463313	 0.041568
C	 1.245738569	 1.8222817639	-0.1219394677	 0.061278
C	 1.5019473096	 2.8025636037	 1.0307615481	-0.192388
N	 2.2901648909	 3.6766107373	 0.077447844	-0.130691
C	 3.1116878507	 2.7368387312	-0.7530982012	-0.178064
C	 1.6609947295	 3.0247018834	-1.0710525943	-0.094755
C	 2.7083434923	 1.3331538275	-0.428628822	 0.418204
O	 3.2002570588	 0.2545219383	-0.5660275009	-0.312209
H	-0.091255157	 0.4461834138	-1.2039868222	 0.090661
H	 0.6130834934	 3.3514177294	 1.3450286173	 0.139437
H	 2.058442863	 2.4444589351	 1.901684026	 0.129475
H	 4.0140903715	 3.1193884656	-1.2088617045	 0.134735
H	 1.2185189227	 3.4992271777	-1.9355895173	 0.136623
