16
gdb 128005	3.95453	1.1432	0.89667	2.5678	80.91	-0.2432	-0.0884	0.1548	1276.4804	0.121575	-434.0291	-434.02012	-434.019176	-434.063448	31.61	
C	-0.0201212538	 1.440642135	-0.1093493472	-0.32264
N	 0.0356026134	-0.0126596846	-0.0667742293	-0.315793
C	-1.0331424461	-0.6532640485	 0.1692786961	 0.453816
O	-2.2364760889	-0.0147656979	 0.3852143345	-0.307806
N	-3.4652558013	-0.7738304425	 0.6562460756	 0.04236
N	-3.4079952738	-1.9941906011	 0.6895272799	-0.148279
C	-2.2229972587	-2.742117164	 0.482228222	 0.343497
C	-2.4131834753	-4.2212689935	 0.5745687857	-0.462348
C	-1.0735673169	-2.0992319532	 0.2305684171	-0.243404
H	 0.9781188393	 1.8275361129	-0.3251575333	 0.120614
H	-0.7103138616	 1.8017820893	-0.8832696361	 0.128351
H	-0.3611998778	 1.8653413011	 0.8441000248	 0.12837
H	-2.8027773653	-4.4972718461	 1.5603916289	 0.153105
H	-3.1476717571	-4.5605402851	-0.1637943772	 0.153105
H	-1.4723654786	-4.7483124281	 0.4058052091	 0.137693
H	-0.1381104173	-2.6189519636	 0.0640436295	 0.139357
