17
gdb 65682	4.02682	0.98311	0.95357	2.9267	68.48	-0.2364	-0.0233	0.2131	1257.8868	0.133699	-458.915105	-458.906605	-458.905661	-458.949051	31.265	
O	-0.3458448627	 1.4940997403	 0.1691841983	-0.48001
C	-0.1467725234	 0.1110336313	 0.1573170097	 0.401951
C	 0.9648670469	-0.2994540433	 1.0993634608	-0.349261
C	 2.3155632894	 0.2398643912	 0.6625024055	 0.159926
O	 3.3368159826	-0.3974970575	 0.6913605564	-0.242962
C	-1.31066508	-0.8617263659	 0.0134052371	-0.201149
C	-2.3279004986	-0.2524273154	-0.9397180959	-0.114494
O	-1.2896707082	 0.0362492647	-1.9289718957	-0.305181
C	-0.3167829387	-0.6439167586	-1.123864287	 0.005316
H	-0.6303368767	 1.7310769843	-0.7253769624	 0.297764
H	 0.7404317111	 0.1174025874	 2.0916011947	 0.14024
H	 1.0363630547	-1.3855917704	 1.2001073714	 0.124879
H	 2.2952115081	 1.2926507825	 0.3095672185	 0.09595
H	-1.4710782641	-1.7093023013	 0.6664257574	 0.106243
H	-3.0424326231	-0.9728251184	-1.3488188109	 0.123512
H	-2.8481871488	 0.6530800178	-0.6098716497	 0.118943
H	 0.4079148314	-1.2760346387	-1.6259685681	 0.118333
