17
gdb 78902	2.91788	2.11745	1.70761	2.7278	68.64	-0.2365	0.0606	0.297	834.7585	0.139093	-421.776362	-421.770393	-421.769449	-421.806377	25.952	
O	 0.0514442525	 1.4115489276	 0.0048891589	-0.44256
C	 0.0255207182	 0.0034445178	 0.0066820201	 0.148323
C	-1.3636070008	-0.6246938996	-0.0847677044	-0.109568
C	-1.9578828626	-0.8456926382	-1.4728535371	-0.098783
C	-1.301825222	-1.9897055609	-0.6906230254	-0.105376
C	-0.0659490017	-1.8704645983	-1.6231675281	-0.106709
C	-0.8268359238	-0.8779733863	-2.5218573619	 0.108685
O	 0.1819351036	 0.1531306092	-2.3819220561	-0.325237
C	 0.7215401385	-0.5800413123	-1.2353803982	 0.032364
H	-0.1226722426	 1.6603800135	-0.9149607943	 0.284503
H	 0.518455808	-0.3233230371	 0.9300245835	 0.083384
H	-2.0812098147	-0.4246776878	 0.7028849979	 0.09466
H	-3.0072056183	-0.6590014845	-1.6646842032	 0.089736
H	-1.7338603622	-2.8925860698	-0.2822107457	 0.094215
H	 0.4611847843	-2.7413533467	-2.0015535229	 0.082936
H	-1.1142142949	-1.0602485238	-3.5582067121	 0.085585
H	 1.8122412683	-0.5586967627	-1.2217923009	 0.083844
