20
gdb 8498	3.76813	2.00668	1.59433	0.0608	79.89	-0.2718	0.1012	0.373	894.5913	0.176607	-311.810583	-311.803002	-311.802058	-311.841635	30.488	
C	-0.001515014	 1.4657424374	-0.0246706993	-0.519427
C	 0.0270900845	-0.0380477409	-0.0572964089	 0.362479
C	 0.5642519743	-0.9623905477	-1.1698654728	-0.351047
C	 0.058959801	-1.9412194712	-0.0894326338	 0.362474
C	 0.0806776983	-3.4453692638	-0.1076031335	-0.519427
C	 0.5404827039	-1.0007272076	 1.0772157573	-0.109707
C	-0.8345100595	-1.0354763053	 1.7727033024	-0.277867
C	-1.1631626291	-1.0155836836	 0.2670107965	-0.109699
H	 1.0101986962	 1.8803939189	-0.0995515764	 0.117143
H	-0.5867966883	 1.8665059296	-0.8600994285	 0.117143
H	-0.4472212379	 1.8380485549	 0.9044138413	 0.118172
H	 0.0207995132	-0.9553866275	-2.1225403864	 0.080934
H	 1.6460184401	-0.9412552785	-1.3496267482	 0.080933
H	 1.1055230696	-3.8231608636	-0.1974490491	 0.117143
H	-0.3503547369	-3.8635059752	 0.8088228651	 0.118172
H	-0.492653732	-3.8370992276	-0.9555101252	 0.117143
H	 1.5399174963	-0.9914351465	 1.5188808241	 0.059446
H	-1.0888105329	-1.9463856159	 2.3241200457	 0.088273
H	-1.1188294416	-0.1526974865	 2.3543834141	 0.088276
H	-2.1365138551	-1.0235158395	-0.2295266845	 0.059444
