21
gdb 96573	2.51274	1.4292	1.04913	0.9037	80.51	-0.2359	-0.0031	0.2328	1206.6595	0.183296	-424.208401	-424.199755	-424.198811	-424.241265	33.745	
C	 0.217436007	 1.6717826685	-0.0760480926	-0.405913
C	-0.0036321425	 0.1683446608	 0.032792108	 0.110193
O	 0.549518518	-0.3968120948	-1.1617755792	-0.272482
C	 0.6501456618	-1.8093871442	-1.2556392181	-0.070109
C	-0.62161287	-2.6302664442	-0.9662387205	-0.096594
O	-0.7028275178	-3.2149590016	 0.3228189373	-0.243982
C	-1.0221605844	-2.338942573	 1.3992817086	-0.126753
C	 0.160570807	-1.522395543	 1.8781106852	-0.081815
C	 0.6101797743	-0.4201111592	 1.2781944136	-0.055383
H	 1.2879275929	 1.8996468555	-0.0767725319	 0.123093
H	-0.2136772877	 2.049934715	-1.0064904693	 0.123984
H	-0.2509929759	 2.1901368956	 0.7659105925	 0.116457
H	-1.0866453046	-0.0249417253	 0.0441034143	 0.066671
H	 0.9403229266	-1.9759926992	-2.2984801959	 0.105661
H	 1.4530961215	-2.2037784262	-0.6179106043	 0.103142
H	-1.5165135968	-2.0270013202	-1.1883185956	 0.096718
H	-0.6292110783	-3.4875517319	-1.6476055592	 0.110892
H	-1.8631456982	-1.6889469697	 1.1159334098	 0.100203
H	-1.3717895306	-2.9918391302	 2.2039153324	 0.108783
H	 0.6991313024	-1.9161274424	 2.7369583998	 0.097202
H	 1.5102100254	 0.0670049095	 1.6496142951	 0.090031
