15
gdb 133774	3.16635	0.99684	0.92575	2.4836	54.52	-0.2657	0.0541	0.3198	1239.8119	0.109005	-585.416908	-585.408223	-585.407279	-585.451667	30.925	
O	-0.086458267	 1.4736329368	-0.5103365204	-0.418747
C	 0.068294326	 0.2292974986	 0.1521764549	-0.085334
C	-1.2659647724	-0.4754176266	 0.2619502502	-0.027263
N	-1.7664361158	-1.1114858613	-0.9706635846	-0.333793
C	-1.4897862263	-1.9440832361	 0.1987735215	-0.206523
C	-0.405897253	-2.986802168	 0.0667186173	 0.308119
F	 0.5584538748	-2.6499722219	-0.7935296371	-0.065664
F	 0.1686396821	-3.2165023807	 1.2598038045	-0.07929
F	-0.9311736577	-4.1497617226	-0.3514857306	-0.078206
H	-0.3766803209	 1.2722034296	-1.4071461945	 0.290848
H	 0.7998537213	-0.409826808	-0.3517419164	 0.112164
H	 0.4472956396	 0.4587460621	 1.153381249	 0.116906
H	-1.9939309699	 0.0696158114	 0.8614157888	 0.103067
H	-2.767245373	-0.9790367549	-1.0823743158	 0.246438
H	-2.3238299276	-2.3386884183	 0.7748246331	 0.117277
