17
gdb 50819	2.52046	1.36887	0.95765	2.1043	71.46	-0.2534	-0.0273	0.2262	1194.4974	0.136709	-455.148356	-455.139725	-455.138781	-455.182866	30.394	
N	-0.0687855097	 0.566332067	-2.2523333525	-0.503563
C	-0.1117590865	 0.1298018075	-1.0570163117	 0.346036
N	-1.350701392	 0.30210421	-0.4111782425	-0.303525
C	-1.7633423754	-0.0912243268	 0.8355810264	 0.162969
O	-1.0987630915	-0.663618031	 1.6691335994	-0.30553
C	 0.9803838742	-0.5481663182	-0.2707003702	-0.111234
C	 2.4201018607	-0.5229517891	-0.8298233285	-0.107126
O	 2.9224699664	 0.1050037184	 0.3604655845	-0.269195
C	 1.6023357106	 0.2074909596	 0.9335825411	-0.071953
H	 0.846810074	 0.4120974706	-2.6684655412	 0.227981
H	-2.0313227294	 0.7632635221	-1.0010967855	 0.264163
H	-2.8216099114	 0.1867341288	 1.0012592573	 0.099425
H	 0.6415208664	-1.5442321274	 0.017245156	 0.125695
H	 2.8757993453	-1.5036133144	-1.0083509953	 0.110211
H	 2.581158714	 0.1052680425	-1.7166688395	 0.098614
H	 1.2821613602	 1.2507884513	 1.0438855981	 0.105459
H	 1.5193177541	-0.3019561611	 1.8954525141	 0.131574
