16
gdb 31833	5.0759	1.02389	0.85871	3.9513	76.78	-0.2036	-0.0344	0.1692	1295.5391	0.126613	-434.12309	-434.115153	-434.114209	-434.155665	29.828	
C	 0.0107378778	 1.4513445497	-0.0718118898	-0.326952
N	-0.020027643	 0.0275058553	 0.2026081114	-0.379796
C	-1.2074132557	-0.6857192973	 0.082735116	 0.265694
C	-2.4759955719	-0.0986222426	 0.0365018605	-0.057171
N	-3.5992364413	-0.8191285217	-0.0250431712	-0.347568
C	-3.459831919	-2.1404706775	-0.0513909863	 0.438799
O	-4.5814767432	-2.8845635854	-0.1124494924	-0.400838
N	-2.3150854237	-2.8209785522	-0.0279048619	-0.283655
C	-1.2118733876	-2.0896768197	 0.0406298957	-0.049667
H	 1.0437480168	 1.7995222141	-0.0092976405	 0.13022
H	-0.3886251282	 1.7173841335	-1.0637115701	 0.117865
H	-0.5668236942	 1.9987042682	 0.6813708873	 0.138452
H	 0.7868319782	-0.47392216	-0.1371374827	 0.239696
H	-2.5998347599	 0.9800521265	 0.0519512196	 0.108594
H	-5.3156532867	-2.2567283149	-0.1237630037	 0.301289
H	-0.2683164782	-2.635440106	 0.0632612081	 0.105038
