17
gdb 94135	1.93755	1.56333	1.22611	1.02	80.41	-0.2569	0.0191	0.2759	1123.2878	0.132267	-384.598615	-384.589198	-384.588254	-384.632755	34.864	
C	-0.443829174	 1.3990812107	 0.0111970317	-0.411799
C	 0.19452665	 0.034533263	-0.0753173345	 0.14121
O	 1.488593141	 0.052810991	-0.7095552106	-0.285142
C	 2.0767975811	-0.7557586827	 0.3148526447	-0.091573
C	 0.80450113	-0.6385273156	 1.225670249	-0.131114
C	 0.9814260337	 0.2577982155	 2.3599677643	 0.297061
C	 1.1468772208	 1.0048326243	 3.2864694156	-0.458586
C	 0.18406118	-1.8930214492	 1.6240318285	 0.263637
C	-0.3322427411	-2.9378540433	 1.9164576588	-0.437973
H	 0.1958611211	 2.0978121784	 0.5542835412	 0.135949
H	-0.6107454947	 1.7847657706	-0.9994577858	 0.130415
H	-1.4109107865	 1.3352819671	 0.5201325505	 0.126991
H	-0.4717095067	-0.6806273643	-0.5752969906	 0.084784
H	 2.2690191298	-1.7836041854	-0.0145709239	 0.112449
H	 2.987217905	-0.3127817032	 0.7280614012	 0.121994
H	 1.286658334	 1.6570607809	 4.113000429	 0.2015
H	-0.7873796435	-3.8577486777	 2.1895486808	 0.200198
