14
gdb 131529	3.77766	1.32779	1.0414	3.7883	64.12	-0.2221	0.0062	0.2283	1073.6317	0.102353	-469.994933	-469.987198	-469.986254	-470.028081	27.714	
O	-0.1372960529	 1.5154712755	-0.1123809699	-0.403099
C	 0.0602219264	 0.1331983863	-0.041835471	-0.042153
C	-1.304251154	-0.6402161282	 0.1595390873	-0.176206
N	-1.0040933921	-1.3414376645	-1.1050034679	-0.133388
C	 0.1444159146	-0.6596592023	-1.3502712759	 0.392287
N	 0.7198871094	-0.9436373958	-2.4721719615	-0.337884
N	-0.1589408329	-1.9043711321	-2.9724886044	-0.318693
C	-1.2833480434	-2.1860885848	-2.1876435814	 0.446882
O	-2.1970710662	-2.9465366176	-2.4034365403	-0.417626
H	 0.698457286	 1.9350399845	-0.3429978765	 0.30221
H	 0.8296513848	-0.1442878301	 0.6892986333	 0.109722
H	-1.3668261301	-1.2955379572	 1.0295856629	 0.142413
H	-2.1702871051	 0.0211239487	 0.1015164732	 0.154131
H	-0.0035782145	-2.2869156323	-3.889012448	 0.281406
