16
gdb 28722	5.58519	0.93514	0.80505	6.5856	77.02	-0.1994	0.0004	0.1998	1368.7567	0.125035	-434.13251	-434.123751	-434.122807	-434.166912	30.995	
C	-0.0079927848	 1.5151827056	 0.125488908	-0.499942
C	-0.0045220236	 0.0326707362	-0.0338531599	 0.34871
N	-0.0570722813	-0.6305366773	-1.1624657252	-0.284037
C	-0.0299128829	-1.9718184293	-0.8372070522	-0.162821
C	 0.0408177052	-2.1145581203	 0.5241024653	 0.404398
N	 0.0928454512	-3.2231265619	 1.3720873732	-0.422221
C	 0.0814371847	-4.5279074231	 0.953913165	 0.142577
O	 0.0254249179	-4.8885570984	-0.1985970139	-0.294911
N	 0.056830671	-0.8321290204	 1.0361571157	-0.38051
H	 0.9003049761	 1.8791339088	 0.6206422819	 0.128782
H	-0.0621144601	 1.9661122016	-0.8660504303	 0.161559
H	-0.8667443797	 1.8652834369	 0.710817502	 0.12881
H	-0.0616164615	-2.7529822649	-1.5752167095	 0.140267
H	 0.1419209106	-3.0624857712	 2.3660386794	 0.250556
H	 0.1306574669	-5.221885973	 1.8147142858	 0.082957
H	 0.1055076303	-0.5732305494	 2.0074259847	 0.255826
