18
gdb 10216	2.29524	1.6746	1.13507	3.0129	65.28	-0.2434	-0.0301	0.2133	1101.3185	0.149968	-422.053244	-422.043452	-422.042508	-422.088716	32.656	
C	 0.0110886814	 0.8264426168	-0.5330929001	-0.235503
O	-0.3720388689	 0.1669241788	 0.6614839454	-0.241115
C	-1.4583506565	-0.7211347756	 0.5336025696	-0.100328
C	-1.0643762464	-2.1217348128	 0.0391317391	 0.024527
O	-0.7216198268	-2.0539221853	-1.3297856221	-0.243033
C	-0.6689516915	-3.3179698627	-1.9627477919	-0.244151
C	 0.1053563573	-2.6444939245	 0.8779982956	 0.149372
O	-0.0231376594	-3.1533910793	 1.9594389549	-0.244464
H	 0.7721691218	 1.5595582562	-0.2546422995	 0.125347
H	 0.4221786814	 0.1336158972	-1.2752086847	 0.127024
H	-0.8418481106	 1.3551571154	-0.9847802423	 0.105219
H	-1.8863416584	-0.8345790172	 1.5349722615	 0.127035
H	-2.2300301408	-0.3185493126	-0.1398068842	 0.101043
H	-1.9254378029	-2.7911969372	 0.1996848489	 0.090394
H	-0.4032153346	-3.1449094939	-3.0076909689	 0.135777
H	 0.0848450322	-3.9798892719	-1.5113980856	 0.116802
H	-1.643617239	-3.8264985604	-1.9183066614	 0.115594
H	 1.1004458518	-2.494928121	 0.4024013956	 0.090462
