27
gdb 60338	2.89965	0.72733	0.68241	1.313	92.8	-0.2597	0.0654	0.3251	1868.9351	0.248393	-390.713043	-390.700969	-390.700024	-390.750166	45.132	
C	-0.0022805491	 1.5680634634	-0.0677926785	-0.387923
C	 0.0375654127	 0.0360844057	 0.0140961489	 0.03819
C	 0.9730891699	-0.4185305168	 1.1437395762	-0.378836
C	-1.3858551776	-0.5320581274	 0.1611282561	-0.172847
C	-1.4734079253	-2.0614169782	 0.0892956205	-0.215501
C	-2.9022976959	-2.6234230879	-0.09346849	 0.342787
C	-2.8476889784	-4.1534373224	-0.2129706753	-0.416112
C	-3.8351778769	-2.214141096	 1.0497913401	-0.389206
O	-3.5022115242	-2.0738477134	-1.2758636104	-0.455663
H	 0.9990687704	 1.984972415	-0.2197465774	 0.106115
H	-0.637463237	 1.9073386786	-0.8927801392	 0.109362
H	-0.4027236493	 1.9989043768	 0.8578936815	 0.11014
H	 0.4490277573	-0.3398571447	-0.9348154487	 0.065044
H	 1.9726728914	 0.0120953577	 1.0222556229	 0.107597
H	 0.5902444197	-0.0948567182	 2.1196186696	 0.108913
H	 1.0845794366	-1.5065534058	 1.1742137362	 0.111321
H	-1.8077545734	-0.1767306951	 1.1108847489	 0.089312
H	-2.0196703104	-0.1187002798	-0.6316593228	 0.103697
H	-0.8676857568	-2.414247838	-0.7596769699	 0.075029
H	-1.0314050997	-2.5178397824	 0.9831056404	 0.094385
H	-2.4535831824	-4.6125309472	 0.6995231689	 0.112927
H	-3.8483154301	-4.5540642527	-0.3992270686	 0.11902
H	-2.1976853514	-4.4566399906	-1.0429057353	 0.099512
H	-3.9599315698	-1.1294757962	 1.0812760874	 0.125013
H	-4.8225906301	-2.6618217836	 0.9061318226	 0.11677
H	-3.4387518651	-2.5483050994	 2.0132811399	 0.108302
H	-2.9802798455	-2.3671173114	-2.030753074	 0.272651
