14
gdb 21662	3.45694	2.36341	1.40453	3.006	71.08	-0.1864	-0.0106	0.1758	823.0823	0.110708	-374.922028	-374.915278	-374.914334	-374.952526	26.633	
N	 0.0152251972	 1.298053485	 0.1085252736	-0.543662
C	-0.0072256148	-0.0566500796	 0.039190493	 0.396474
N	-1.1535061218	-0.6826890586	 0.017716263	-0.321127
N	-1.0940406795	-2.0425824426	-0.0016993626	-0.231805
C	 0.0454058911	-2.7603789454	-0.0063233515	 0.036739
C	 1.2603122473	-2.1436226246	-0.0013484192	-0.240169
C	 1.3283268992	-0.7088182803	 0.0095626558	 0.258441
N	 2.3584241328	 0.0740956831	-0.0121331208	-0.58473
H	 0.919777361	 1.7091189818	-0.0736788357	 0.275713
H	-0.8255701703	 1.8089717878	-0.0975943574	 0.254526
H	-1.9961608845	-2.4852537335	-0.0112316911	 0.273515
H	-0.079735027	-3.8371463645	-0.0169415782	 0.126661
H	 2.1693532007	-2.7323000833	-0.0126642235	 0.0967
H	 3.2240642084	-0.4655674752	-0.0418132054	 0.202726
