21
gdb 64131	2.91463	1.1919	1.08712	3.6075	81.94	-0.2391	0.0265	0.2656	1221.1042	0.183352	-383.294454	-383.285057	-383.284113	-383.328798	35.452	
C	-0.3865316332	 1.5474083866	 0.1731700709	-0.442127
C	 0.0907070418	 0.105089574	-0.0236604521	 0.295346
C	-1.1162918266	-0.8314863858	-0.2086746943	-0.431574
C	 1.0753052065	-0.0336546888	-1.2091101524	-0.190289
N	 1.9152403865	-1.2139696391	-0.948070639	-0.31521
C	 1.9091120903	-1.4676948284	 0.5124699645	-0.096383
C	 0.9910363234	-0.3729664572	 1.1384256278	-0.260626
C	 1.4563272682	-2.8291094234	 0.8219373909	 0.263304
N	 1.1046638839	-3.9079272269	 1.0456314131	-0.332503
H	 0.4583896767	 2.2331012362	 0.2990181555	 0.112864
H	-0.9702229133	 1.8891220936	-0.6886915733	 0.116948
H	-1.0257879472	 1.6360040276	 1.0580227645	 0.118227
H	-1.7225711004	-0.5156544298	-1.0646664444	 0.11381
H	-0.8108337383	-1.8680939486	-0.3793467762	 0.12866
H	-1.7593378091	-0.8215499627	 0.6775713783	 0.118847
H	 0.5715926923	-0.135235461	-2.1748211276	 0.105945
H	 1.7120203544	 0.8600458161	-1.2662394803	 0.099426
H	 1.5718503549	-2.0238268492	-1.4467414326	 0.238809
H	 2.9249362257	-1.3752548025	 0.916723946	 0.125955
H	 1.6219691895	 0.4505978865	 1.4868434585	 0.108129
H	 0.4282176639	-0.7462419073	 1.9966095221	 0.122442
