19
gdb 16668	3.3118	2.02875	1.53498	2.21	70.21	-0.2249	0.0599	0.2848	886.6369	0.166852	-365.039245	-365.031684	-365.03074	-365.070719	29.732	
C	-0.0703693146	 1.5687785137	-0.0228441777	-0.4366
C	 0.0842705903	 0.050369378	 0.0093754924	 0.032533
C	 0.8549924501	-0.5571854524	-1.1805150603	-0.181193
N	 1.2799518637	-1.9091050708	-0.744868004	-0.101628
C	 2.5677903723	-1.9232868603	-0.0407865116	-0.232082
C	 1.309706314	-1.8782078215	 0.7405330476	-0.032289
C	 0.833748643	-0.5200865472	 1.2443905153	 0.070588
O	 1.9561961495	 0.266917663	 1.6346636348	-0.430169
H	 0.9065667911	 2.0629414218	-0.0252772212	 0.122292
H	-0.6048405284	 1.8909428605	-0.9219512923	 0.122973
H	-0.639328923	 1.9343289393	 0.8404344	 0.109739
H	-0.9120857527	-0.4109142533	 0.0203692667	 0.080786
H	 0.2260898372	-0.6489515931	-2.0709777458	 0.103405
H	 1.7183237608	 0.0660394004	-1.4482364432	 0.099819
H	 3.1221639756	-2.8551343062	-0.1152669016	 0.108626
H	 3.1750662138	-1.0229152539	-0.0539927217	 0.127815
H	 0.9430398722	-2.76720132	 1.2449818061	 0.087251
H	 0.1518520789	-0.6425212432	 2.0971983091	 0.064029
H	 1.6253051062	 1.1051037152	 1.9729760974	 0.284106
