14
gdb 12216	4.23842	1.49649	1.17053	4.5813	61.27	-0.2426	-0.0418	0.2009	974.1948	0.107324	-415.886553	-415.878711	-415.877767	-415.919197	27.158	
N	 0.0188610155	 1.5128980919	 0.2183927665	-0.507881
C	-0.0067195094	 0.0856953046	 0.0007306811	-0.112912
C	-1.4098245862	-0.5859797426	-0.1047420733	-0.187517
N	-0.9902695467	-1.1619354628	-1.3981287633	-0.129968
C	-1.6540283982	-2.0105814894	-2.2658278833	 0.152577
O	-1.2193292273	-2.405449069	-3.3152179072	-0.266631
C	 0.2675718408	-0.5084001348	-1.4125508749	 0.4009
O	 1.1323224904	-0.4390330604	-2.2307741359	-0.31251
H	 0.9777060089	 1.8361266508	 0.2983067643	 0.249955
H	-0.3861095716	 2.0057640754	-0.5729120995	 0.239491
H	 0.6224703657	-0.4014421839	 0.7511741581	 0.123614
H	-1.6452530916	-1.3283562017	 0.6610959895	 0.132102
H	-2.2286685121	 0.1332874216	-0.1938484951	 0.130509
H	-2.6509496082	-2.2896077994	-1.8677301869	 0.088271
