21
gdb 98433	3.06409	1.05734	0.95812	3.1584	78.93	-0.2589	-0.0235	0.2355	1330.4186	0.181105	-424.234709	-424.225083	-424.224139	-424.269624	35.86	
C	-0.0513775974	 1.5600773302	-0.0257738014	-0.475367
C	-0.03871349	 0.0293089684	-0.0004167952	 0.243567
C	 1.1023710846	-0.5761989036	-0.9086645777	-0.253696
C	 1.9632268493	-0.7911377201	 0.3634512973	-0.210784
C	 0.6991402987	-0.5674090668	 1.2342885263	-0.261176
C	-1.3886246968	-0.5858843851	-0.3083214217	 0.293724
O	-1.7916870965	-1.5927953815	 0.2412612621	-0.336412
C	-2.2594891878	 0.0264695712	-1.4038929486	-0.140156
O	-3.3692425127	-0.7761559087	-1.6725746091	-0.42251
H	 0.9497910504	 1.9469435046	 0.1882807291	 0.124066
H	-0.3504582712	 1.9533446605	-1.0024329779	 0.126306
H	-0.7311610767	 1.9667289792	 0.7308971105	 0.126385
H	 0.8032801671	-1.5195153444	-1.3725975344	 0.11698
H	 1.4940987739	 0.0884433666	-1.6829740967	 0.104031
H	 2.4614274731	-1.7580038845	 0.4569565533	 0.106767
H	 2.7126137742	-0.0066283277	 0.4949475592	 0.105824
H	 0.7957407677	 0.0950347585	 2.0980552908	 0.098092
H	 0.2313060811	-1.500813096	 1.550264286	 0.129352
H	-2.5639983173	 1.0347341073	-1.0765102336	 0.116827
H	-1.6447802986	 0.1705840323	-2.3074378253	 0.115775
H	-3.3181971248	-1.4925636103	-1.0182777729	 0.292403
