13
gdb 130818	3.22542	1.38773	0.97027	0.2403	69.27	-0.2677	-0.114	0.1536	1102.9006	0.090447	-452.784603	-452.77725	-452.776306	-452.81701	26.242	
O	-0.8621541196	 1.3896607612	 0.1954025953	-0.251687
C	 0.2437062647	 0.9933562269	-0.0776063425	 0.098848
C	 1.4901217802	 1.8773569648	-0.2288591798	 0.201621
O	 2.533016654	 1.3161826637	-0.5085253866	-0.299038
C	 1.3678361277	 3.3154745911	-0.0345507611	 0.299388
C	 2.3401527585	 4.3090022555	-0.1168370643	-0.276955
C	 1.6568704428	 5.4965420104	 0.1630619798	-0.003427
N	 0.3551393683	 5.2740494354	 0.4035509598	-0.198869
N	 0.2046852125	 3.9609682855	 0.2795825476	-0.264069
H	 0.4773170391	-0.0761706913	-0.2514877302	 0.12891
H	 3.3816893316	 4.1600824902	-0.3477581658	 0.138105
H	 2.0398692041	 6.5048022137	 0.2033716453	 0.128677
H	-0.693421294	 3.5186481328	 0.4114040024	 0.298496
