18
gdb 52124	4.27738	0.88859	0.85773	4.7193	73.48	-0.2673	0.0117	0.279	1380.7149	0.147687	-439.062946	-439.054444	-439.0535	-439.097357	30.708	
O	 0.3373036303	 0.2774047691	-0.7258965793	-0.27763
C	 0.4161989705	 1.4635920108	-0.610544127	 0.173347
O	 0.6501820365	 2.0604629149	 0.5769578993	-0.181097
C	 0.8191431835	 3.4893919401	 0.5690050915	-0.20581
C	 2.2592062317	 3.8532128751	 0.4018987529	 0.351257
C	 3.3801436829	 3.7233580424	 1.4475372616	-0.294949
C	 4.0470512694	 5.0055867988	 0.8446884686	-0.236807
C	 2.9058564682	 5.0826326196	-0.1805172534	-0.09
N	 2.8029457454	 3.8497327882	-0.9543534667	-0.354269
H	 0.2988289745	 2.1858864824	-1.4393924301	 0.092301
H	 0.2269894609	 3.9369209421	-0.2374886345	 0.122531
H	 0.426228357	 3.8343023437	 1.5289180528	 0.123017
H	 3.0333482872	 3.8804561893	 2.471691818	 0.114224
H	 3.9503069783	 2.7903073804	 1.4123601504	 0.111166
H	 4.0528222022	 5.8400411291	 1.5493716544	 0.11441
H	 5.0508311914	 4.8985481387	 0.4212935374	 0.105957
H	 2.4614886404	 5.9803806108	-0.5958599415	 0.100752
H	 3.6889871795	 3.3521082646	-1.0269415445	 0.2316
