23
gdb 87821	2.67754	1.34482	1.15019	0.2662	90.24	-0.2303	0.0926	0.3229	1221.4727	0.205131	-351.12273	-351.113542	-351.112598	-351.156013	36.27	
C	-0.1294276501	 1.4960399157	 0.0100704124	-0.405814
C	 0.0111105152	-0.0098849732	 0.0462058608	-0.056242
C	 1.3650520509	-0.65890388	-0.1618764274	-0.372998
C	 0.7064185828	-0.7022909187	 1.1863254965	 0.326058
C	 1.2773410947	-0.0971888563	 2.4884933678	-0.319631
C	 0.8043665079	-1.3558102304	 3.2297461218	-0.09649
C	-0.6757429676	-1.5538101081	 3.0315668067	-0.32492
C	 0.2660967983	-1.9607620913	 1.9266356609	 0.294457
C	 0.3561180222	-3.3602070415	 1.3903127182	-0.502676
H	 0.738988293	 1.9848592654	 0.4638961355	 0.115022
H	-0.2137090681	 1.8628240182	-1.0192649768	 0.114112
H	-1.0189184865	 1.8307180942	 0.5560594623	 0.113905
H	-0.8322956601	-0.550120019	-0.3801043791	 0.077018
H	 1.4154169904	-1.5730614625	-0.7456126189	 0.106154
H	 2.2259836946	-0.007252888	-0.286167978	 0.10328
H	 2.3661280932	 0.0005675133	 2.4598358938	 0.100758
H	 0.8476386463	 0.8510986687	 2.8316121422	 0.092672
H	 1.3425687978	-1.8482137798	 4.0312229015	 0.08111
H	-1.1120305795	-2.3749946482	 3.5929699425	 0.102887
H	-1.334953482	-0.6962464121	 2.9131363317	 0.100701
H	-0.3905785852	-3.5409504425	 0.6065958584	 0.116358
H	 1.3436551179	-3.5625341014	 0.9607009779	 0.118139
H	 0.1787628138	-4.0948536625	 2.1826389293	 0.11614
