13
gdb 132123	3.07889	1.43088	0.9789	4.8387	66.68	-0.2132	-0.0586	0.1546	1087.9808	0.088892	-497.899164	-497.891619	-497.890674	-497.931241	28.255	
N	 0.0426456233	 1.4844599064	 0.1469811321	-0.60142
C	 0.031208102	 0.0757420366	 0.039574136	-0.01125
C	-1.1018994376	-0.6666887224	 0.0117234784	 0.373253
F	-2.3063865296	-0.1218594062	 0.0219068801	-0.050087
O	-1.1566698819	-1.9854131416	 0.0045712581	-0.240271
C	 0.0207496555	-2.8049324558	-0.0292911412	 0.434776
O	-0.1454334732	-3.9900771132	-0.0611600011	-0.333097
C	 1.2437372402	-2.0420154309	-0.0114486176	-0.276258
C	 1.2398367708	-0.6845552851	 0.0346212053	-0.056825
H	 0.5956760637	 1.9198671457	-0.5829476166	 0.251026
H	-0.8937749139	 1.8681956277	 0.1149832936	 0.252518
H	 2.1602050795	-2.6164612397	-0.0231831013	 0.130916
H	 2.1787759411	-0.1398129115	 0.0715099241	 0.126718
