18
gdb 60735	3.63512	1.10637	0.90089	2.4348	77.73	-0.2459	-0.0058	0.2401	1288.4287	0.147764	-435.275139	-435.265852	-435.264908	-435.309925	32.714	
C	 0.4125738546	 1.5271098409	 0.1031250519	-0.338338
N	 0.1299219077	 0.0991016501	-0.0234567166	-0.132615
C	-0.2300627666	-0.6244100968	 1.1097236559	 0.09969
N	-0.3461420901	-0.0636726779	 2.2455278997	-0.481219
C	 0.2033546081	-0.5790645309	-1.2374254333	 0.465777
O	 0.0520097942	-1.7793616507	-1.3421931838	-0.377757
N	 0.5340009847	 0.2564256639	-2.3200333216	-0.145655
C	-0.5049679385	 1.0403804725	-2.9974952963	-0.236307
C	 0.1152544693	-0.1521185518	-3.645648016	-0.214911
H	 1.2179714031	 1.7999331772	-0.5775631005	 0.148731
H	-0.4716442286	 2.1331019363	-0.1230785009	 0.127241
H	 0.7000793261	 1.7162110688	 1.1367520471	 0.168744
H	-0.3839893522	-1.6782359871	 0.8782426651	 0.142662
H	-0.6041216242	-0.7550662147	 2.9467877684	 0.229995
H	-1.5254828222	 0.938947803	-2.6366820796	 0.136797
H	-0.217341172	 2.0457260825	-3.2906515259	 0.130568
H	 0.8571817983	-0.0150305932	-4.426088589	 0.128867
H	-0.4712275116	-1.0635454622	-3.7087796147	 0.147729
