23
gdb 63935	2.26204	1.60787	1.39109	1.6386	84.86	-0.2342	0.0761	0.3103	1114.3512	0.20419	-388.276165	-388.266722	-388.265778	-388.309726	37.127	
C	 0.2017375872	 1.4580518044	-0.172785452	-0.43753
C	 0.0243396101	-0.0389133793	 0.0432266083	 0.379801
C	-1.4259801177	-0.4488055006	-0.2122863068	-0.428407
O	 0.8962156834	-0.8136492362	-0.8406665032	-0.349624
C	 1.4149050185	-1.5995024787	 0.2481643247	 0.082532
C	 2.7868802975	-1.0914039377	 0.7317523339	-0.22911
C	 2.0620718826	-0.1264469028	 1.7191281396	-0.29183
C	 0.6744154651	-0.7145022662	 1.298614144	 0.254161
C	-0.1961656684	-1.2132979023	 2.4327745309	-0.502908
H	 1.2510767923	 1.753913642	-0.126084456	 0.12135
H	-0.1778921566	 1.738715986	-1.1607428983	 0.120911
H	-0.3574299763	 2.0283680022	 0.5772143678	 0.113155
H	-1.7034743018	-0.1723747783	-1.2342736424	 0.1202
H	-1.5583981139	-1.5288786375	-0.1119568432	 0.118069
H	-2.1133467107	 0.0526557858	 0.4775425255	 0.110616
H	 1.2610694791	-2.6734293729	 0.1005838311	 0.065162
H	 3.3864426988	-1.8550440589	 1.2353079206	 0.096311
H	 3.3862913335	-0.6310611847	-0.05659068	 0.107296
H	 2.292172981	-0.3280032493	 2.7684478534	 0.098594
H	 2.2083749866	 0.9409446111	 1.5471389667	 0.100012
H	-0.567548512	-0.3756667752	 3.0364567682	 0.117654
H	-1.0618855817	-1.7825458165	 2.0844142912	 0.118849
H	 0.3790790033	-1.8623425045	 3.1022444259	 0.114734
