20
gdb 112687	2.97707	1.14304	0.94123	3.6398	77.22	-0.2346	0.0372	0.2718	1316.2694	0.170736	-440.323773	-440.314284	-440.31334	-440.358622	33.836	
C	-0.0124917309	 1.382455548	 0.1166523662	-0.240174
O	 0.001885922	-0.0083688577	-0.111438984	-0.247177
C	-1.275797937	-0.6185426524	-0.0486535354	 0.113526
C	-1.1175971339	-2.0478250309	-0.6053616401	-0.18472
N	-0.9536976031	-2.8741287927	 0.573358049	-0.068772
C	-0.5665945621	-4.2617850727	 0.5034969821	-0.343793
C	-1.3055735903	-2.2611976175	 1.7465374927	 0.418003
O	-1.2836505689	-2.7702391683	 2.8482119788	-0.397367
C	-1.7544535994	-0.841856691	 1.3966048663	-0.367604
H	 1.0129580146	 1.7377802531	-0.0080520968	 0.132868
H	-0.6608673299	 1.9029431361	-0.6059081017	 0.105345
H	-0.3504629279	 1.6430343619	 1.130184023	 0.1108
H	-1.9916142824	-0.0351836945	-0.6442747786	 0.070708
H	-1.9964232625	-2.3538474804	-1.1923711361	 0.101162
H	-0.2383787304	-2.094669633	-1.256548604	 0.124031
H	 0.4221848773	-4.3729376992	 0.0422308585	 0.125091
H	-0.5355871787	-4.6457713635	 1.5247023496	 0.165264
H	-1.2865757717	-4.8497980361	-0.0810442248	 0.119481
H	-1.3423181056	-0.1231558278	 2.1065621321	 0.136135
H	-2.8461595993	-0.7945669416	 1.4767306533	 0.127191
