16
gdb 19594	4.18173	2.01813	1.88048	1.4456	62.57	-0.2473	0.0747	0.322	754.0512	0.132237	-383.680112	-383.674071	-383.673127	-383.709827	25.204	
O	-0.0348887904	 1.4175153788	-0.0557819271	-0.455555
C	 0.0480442741	 0.0082326294	-0.0326431647	 0.165917
C	 0.1385619495	-0.6231043184	 1.3975133948	-0.13158
C	-1.3843325556	-0.2557110364	 1.523695483	-0.225557
C	-1.3706878192	-0.6171725699	-0.0069750421	-0.095707
C	-1.0581831195	-2.1247632196	 0.0925586709	 0.036668
O	 0.2771942675	-2.5214107044	-0.2694763713	-0.256796
C	 0.0131528927	-2.1285976559	 1.0910149508	 0.038823
H	 0.856100674	 1.7638811756	 0.053064475	 0.283753
H	 0.745343518	-0.364997284	-0.7837730899	 0.091287
H	 0.8849454277	-0.3003251785	 2.1240663158	 0.060051
H	-1.9978603379	-0.8769611746	 2.1822687189	 0.089217
H	-1.5565221404	 0.8033247829	 1.7100683732	 0.120233
H	-2.1450130324	-0.2862946946	-0.6978583897	 0.071979
H	-1.8265049131	-2.8830933527	-0.0119493452	 0.103883
H	 0.1693171251	-2.8922065576	 1.8455873776	 0.103385
