14
gdb 5206	8.77427	1.01743	0.91693	0.6215	80.08	-0.2057	-0.0113	0.1944	1229.2443	0.107193	-345.414833	-345.407236	-345.406292	-345.448811	26.457	
C	-0.1018579545	 1.4475589785	-0.0016292066	-0.510577
C	-0.0145216322	-0.003088433	-0.0073682869	 0.224652
C	 0.0556107975	-1.2081825491	-0.0126773809	-0.090234
C	 0.1508048542	-2.609761367	-0.0159877315	 0.217925
C	 1.1972559789	-3.4695386583	 0.1889128206	-0.301618
C	 0.6741930408	-4.7901718062	 0.0574373419	-0.157866
C	-0.6499145776	-4.6428968858	-0.2174417692	-0.030409
O	-0.9897135477	-3.3329890223	-0.2668681686	-0.171777
H	 0.5755136122	 1.8922669561	-0.7395273261	 0.152353
H	-1.1182654489	 1.7766828127	-0.2436146955	 0.156146
H	 0.1561406115	 1.8609766447	 0.980053612	 0.152245
H	 2.2130567648	-3.1811546916	 0.4064601462	 0.11272
H	 1.2108234924	-5.7207014129	 0.1543877391	 0.113774
H	-1.4524047517	-5.3394160658	-0.3970710643	 0.132666
