19
gdb 67597	2.82621	1.87059	1.82486	0.4022	76.9	-0.2084	0.0921	0.3005	894.1919	0.162625	-382.047661	-382.040959	-382.040015	-382.078282	28.088	
C	 0.0048883697	 1.4689064744	 0.082713811	-0.507614
C	 0.0052157443	-0.027660062	-0.0639324912	 0.339219
C	 0.9955762698	-0.8479082915	-0.8264580406	-0.098143
C	 0.2615585056	-2.0056193342	-1.4740150554	-0.185834
N	-1.0661577243	-2.0842489351	-0.8347314123	-0.121728
C	-1.0116526711	-2.1071175155	 0.63621801	-0.044928
C	 0.3656802496	-1.997777301	 1.263783813	-0.189722
N	 1.0270038126	-0.8339529132	 0.6483612488	-0.15974
C	-1.284642535	-0.8293379176	-0.083125581	-0.11792
H	 1.029015633	 1.8481037895	 0.116872892	 0.132221
H	-0.5131181308	 1.9462149414	-0.7563086968	 0.120422
H	-0.4975430422	 1.7755491754	 1.0069469461	 0.122758
H	 1.8712040475	-0.4217438753	-1.3116875863	 0.087212
H	 0.1256500872	-1.8256461468	-2.5463633492	 0.111438
H	 0.7834235369	-2.9637792164	-1.3655763699	 0.111157
H	-1.7848492021	-2.7001774746	 1.1190104621	 0.090387
H	 0.2851677953	-1.8290101469	 2.3435559199	 0.111046
H	 0.9767930827	-2.8965086522	 1.1178062295	 0.110811
H	-2.2523029088	-0.3456065284	-0.1550963697	 0.088958
