19
gdb 36138	3.88157	1.06064	0.96201	0.7937	79.84	-0.2298	0.0509	0.2807	1259.3327	0.158989	-385.843788	-385.835355	-385.834411	-385.877042	32.572	
C	 0.0122495548	-1.2290986948	 0.4705419781	-0.460482
C	-0.0276080678	-0.0505662801	 0.2379034896	 0.325963
C	-0.0488150335	 1.3819795458	-0.0512443795	-0.464738
C	 1.3376208949	 1.9807828746	-0.2145016525	 0.323459
C	 2.117873741	 2.4503101373	 1.0028250189	-0.365773
C	 1.6266499212	 3.4431809704	-0.0240398797	 0.068276
O	 2.516536331	 3.9082194185	-1.0019018595	-0.259156
C	 3.1466781706	 2.7697792779	-1.5942271741	-0.094389
C	 2.1726192209	 1.5828278613	-1.4259385127	-0.293024
H	 0.0373622974	-2.2700888478	 0.6781163423	 0.195558
H	-0.6324607041	 1.5574074947	-0.9657077866	 0.130223
H	-0.5808822248	 1.9044504298	 0.7539820737	 0.127847
H	 1.5979019128	 2.4282247627	 1.9551804146	 0.114531
H	 3.17946495	 2.2390659071	 1.0740042505	 0.116394
H	 0.8758518235	 4.1834142631	 0.2289974824	 0.100601
H	 3.3631345766	 3.012237255	-2.6379505402	 0.11217
H	 4.1021260657	 2.5649423844	-1.0918518173	 0.101268
H	 2.7011744179	 0.6334253648	-1.3036998923	 0.115228
H	 1.5145388919	 1.4886766152	-2.2974442457	 0.106043
