17
gdb 30793	2.34062	1.36073	0.90972	2.1364	73.06	-0.2041	0.0231	0.2272	1267.355	0.135945	-455.184059	-455.174814	-455.173869	-455.218353	33.411	
C	-0.1464363931	 1.5747949817	 0.198152803	-0.494309
C	-0.0477038392	 0.0972275854	 0.0284006596	 0.178745
C	 0.0228500796	-0.6377330409	-1.1069355332	 0.225918
C	 0.063245287	-0.3716554329	-2.5649022974	-0.187449
O	 1.3425742769	-0.5847186683	-3.1617987239	-0.411683
O	 0.1044427312	-1.9809657903	-0.7214757402	-0.229219
C	 0.0768002853	-1.9371055892	 0.6253208589	 0.442878
N	 0.0802219483	-3.1408437964	 1.282412507	-0.588601
N	-0.0131663642	-0.7508956265	 1.1406354525	-0.383739
H	 0.6923666238	 1.9502542221	 0.7938650585	 0.138961
H	-0.1407829368	 2.0907123125	-0.7648690443	 0.124593
H	-1.0651272746	 1.8441392272	 0.7304577023	 0.137387
H	-0.7040713923	-0.972638433	-3.0778276729	 0.102063
H	-0.1783039968	 0.6805665472	-2.736470785	 0.125374
H	 1.5889968391	-1.4981876087	-2.9839489543	 0.284265
H	 0.5624090664	-3.8873161035	 0.8042355253	 0.263043
H	 0.3266450495	-3.0562775364	 2.2572435742	 0.271773
