18
gdb 79373	3.19777	1.387	1.10059	1.2428	83.81	-0.2411	0.0323	0.2734	1132.8533	0.146787	-364.68312	-364.675198	-364.674254	-364.715278	31.336	
C	-0.1123611749	 1.5887768958	-0.0162558348	-0.427923
C	-0.0420811574	 0.070633798	-0.0106536645	-0.007158
C	 1.1809623622	-0.6236099669	-0.6292697309	-0.057884
N	 2.0806974177	-0.2555438017	 0.5813093818	-0.181581
C	 2.5161123797	-1.7079042786	 0.6898633447	-0.234042
C	 1.0540054898	-1.8997005048	 0.2782690127	 0.252213
C	 0.2878091955	-3.0922538315	 0.0524398204	 0.051053
C	-0.3471313671	-4.0974236878	-0.1348651125	-0.366548
C	 0.6846580683	-0.6400542201	 1.1414181331	-0.057885
H	 0.8519722701	 2.0236828671	 0.2580980075	 0.142392
H	-0.3896754103	 1.962109197	-1.0079553851	 0.11623
H	-0.8665052694	 1.9463136523	 0.693097335	 0.11623
H	-0.995587485	-0.3943168282	-0.2822286842	 0.083598
H	 1.5786909718	-0.5883633835	-1.6457833038	 0.086752
H	 3.2888475235	-1.9905271777	-0.0319484195	 0.106928
H	 2.8025202748	-2.0066415069	 1.7031422289	 0.106928
H	-0.9081445788	-4.9838401522	-0.3003644761	 0.183946
H	 0.4959931494	-0.6242376603	 2.2170042976	 0.086752
