17
gdb 128504	2.23909	1.42348	0.92765	3.4383	72.44	-0.2119	0.0397	0.2516	1249.4293	0.136293	-455.138241	-455.129046	-455.128102	-455.173472	32.168	
C	-0.2693568801	 1.3011925351	-0.1379833587	-0.265506
O	-0.0839023195	-0.1034095254	-0.0661895282	-0.255365
C	 0.6542484289	-0.6761691985	-1.0328068936	 0.438856
C	 0.967099295	-2.0173452364	-1.1692332291	 0.06135
C	 0.5214744574	-3.1398207618	-0.2985275569	-0.212392
O	-0.6504717644	-3.7396859336	-0.8565542669	-0.419399
C	 1.7596030602	-2.0486802097	-2.3407138659	-0.051111
N	 1.9371952325	-0.8535947347	-2.8853782324	-0.257835
N	 1.243755046	-0.016748662	-2.0617290348	-0.29487
H	 0.6873521479	 1.8359886132	-0.0686108133	 0.127731
H	-0.7846044643	 1.5889923477	-1.0637653089	 0.131152
H	-0.891491273	 1.5728567345	 0.715059981	 0.1512
H	 1.3306231646	-3.8817720072	-0.2135968997	 0.088715
H	 0.3195795041	-2.7578178579	 0.7132891351	 0.092944
H	-0.9099159874	-4.4621405845	-0.2750306185	 0.280149
H	 2.2092189041	-2.9165814909	-2.8028381674	 0.112554
H	 1.2352418078	 0.9667448321	-2.2641930619	 0.271828
