17
gdb 15141	9.2115	0.72088	0.69567	3.0799	66.61	-0.2539	-0.0305	0.2233	1560.5219	0.139952	-400.958374	-400.949519	-400.948574	-400.993527	29.663	
O	-0.0476222717	 0.0587940065	 0.3345820474	-0.236451
C	 0.2276828252	 0.9781697302	-0.3887063097	 0.138946
C	 1.3637357351	 1.9500859709	-0.1170151037	-0.141313
O	 1.4191566261	 2.8675012502	-1.1771335689	-0.246591
C	 2.4304599463	 3.8471876459	-1.0276251209	-0.080356
C	 2.3547584238	 4.8043240656	-2.1838899071	 0.01587
C	 3.6015951004	 5.4266699311	-2.6951991232	-0.246198
N	 2.8872025618	 4.4236313139	-3.4988412714	-0.302265
H	-0.3312455619	 1.1982339846	-1.3245323414	 0.101117
H	 1.1799683162	 2.4456074428	 0.8521765011	 0.122245
H	 2.3016240187	 1.3784265495	-0.0100058177	 0.120872
H	 2.2967657776	 4.386754342	-0.0744712806	 0.09854
H	 3.4251702772	 3.368362544	-0.9949570559	 0.083636
H	 1.4260855632	 5.3679894615	-2.2377764107	 0.102816
H	 3.5789753093	 6.436770734	-3.0931014874	 0.124918
H	 4.5408034567	 5.1502387134	-2.2215804825	 0.111888
H	 3.3543994158	 3.521909294	-3.4343752774	 0.232325
