19
gdb 97652	2.58996	0.71007	0.58129	2.6402	77.36	-0.254	0.022	0.276	1868.9254	0.156821	-460.112533	-460.101527	-460.100583	-460.150593	37.763	
O	 0.0324019806	 1.4573774512	-0.1737340167	-0.400039
C	-0.0074687168	 0.0749619289	 0.1505564982	-0.195592
C	-1.3607184764	-0.4836333471	 0.1513347309	 0.07342
C	-2.4855872861	-0.9166011869	 0.0965321335	 0.010289
C	-3.8473488	-1.4448264142	 0.1010510224	-0.202991
C	-3.8424726023	-2.986873335	-0.0014520439	-0.072665
O	-5.1493477598	-3.5287900495	-0.0493603393	-0.40986
C	-4.6091558351	-0.962729765	 1.3565871862	-0.045155
O	-4.7024007962	 0.443061677	 1.4238082656	-0.423047
H	-0.4260743581	 1.5705032002	-1.012981278	 0.288543
H	 0.6283608211	-0.5166584102	-0.5273898361	 0.120402
H	 0.4361304648	-0.007935525	 1.1488751251	 0.142503
H	-4.3789754272	-1.0448351159	-0.7753749722	 0.101172
H	-3.2388676504	-3.2940542998	-0.8667937565	 0.102498
H	-3.3718298676	-3.4091664633	 0.8923588318	 0.124212
H	-5.5428835251	-3.2878135315	-0.894260705	 0.286792
H	-5.6299613985	-1.3489981598	 1.3186498697	 0.122037
H	-4.1207919009	-1.3854526804	 2.2491644272	 0.090701
H	-3.801628816	 0.7883246364	 1.4299411572	 0.286779
