15
gdb 46157	4.86241	1.03714	0.882	3.5025	68.39	-0.2601	-0.0001	0.26	1233.6663	0.111699	-457.748224	-457.74013	-457.739186	-457.781247	29.673	
O	 0.0202885758	 0.1508460165	 0.6975405422	-0.317691
C	-0.0085925791	 1.1810159785	 0.0851076254	 0.388844
C	-1.3199946232	 1.9148396313	-0.1847777515	-0.217468
O	-1.261699869	 2.969902199	-1.1230382476	-0.248874
C	-0.1203707303	 3.7864115336	-0.8924114206	-0.099065
C	 1.1244650419	 2.9373425008	-1.14754164	-0.068306
O	 1.1423343582	 1.7602383369	-0.3257869935	-0.227135
C	-0.1555724641	 4.9421100266	-1.7770467956	 0.289849
C	-0.1373560565	 5.8943378226	-2.5076683318	-0.390272
H	-2.0415682511	 1.1854870279	-0.5574062734	 0.158371
H	-1.6816886257	 2.2721993517	 0.793710027	 0.135645
H	-0.1136710198	 4.1286608236	 0.1573446379	 0.111707
H	 1.1453521759	 2.6385855666	-2.2005210015	 0.137404
H	 2.0378669885	 3.4879667138	-0.9117910065	 0.137809
H	-0.1369815615	 6.7404568307	-3.1503632704	 0.209181
