18
gdb 124685	3.87154	0.93305	0.91613	2.2913	74.38	-0.2532	-0.0082	0.2451	1336.3111	0.147292	-439.080295	-439.071299	-439.070355	-439.114781	32.267	
C	-0.0060109815	 1.5709878885	-0.0174850374	-0.395726
C	 0.000698528	 0.0317979108	 0.0154618033	-0.099602
C	 0.722263115	-0.5012645814	 1.2644576126	-0.0779
O	 2.0699574061	-0.0656095087	 1.1955094127	-0.420789
C	-1.3800271052	-0.5355613248	-0.0683585239	 0.447161
C	-2.0166064379	-1.3336473701	-0.969698757	-0.360303
C	-3.3201669791	-1.4805300201	-0.4267577448	 0.034636
N	-3.4647863987	-0.8335871063	 0.7025912397	-0.141726
O	-2.2290867334	-0.2301906458	 0.933816314	-0.220842
H	 1.0161699084	 1.9431777874	 0.0714479572	 0.1385
H	-0.4382004525	 1.9399314527	-0.9517180461	 0.118811
H	-0.5979496373	 1.970741659	 0.8112611863	 0.131842
H	 0.5526275054	-0.3401408347	-0.8551149139	 0.101641
H	 0.2176405044	-0.1222671078	 2.1654041844	 0.107581
H	 0.6572981758	-1.5999945297	 1.2825423397	 0.094216
H	 2.5094847722	-0.3124350875	 2.0140704843	 0.291278
H	-1.617535441	-1.7501362535	-1.8792556227	 0.119247
H	-4.1593059487	-2.036467438	-0.8211435587	 0.131976
