22
gdb 64146	3.463	1.01762	0.97023	4.2764	83.51	-0.2353	0.0311	0.2664	1336.3535	0.194554	-404.398702	-404.389234	-404.38829	-404.43298	35.612	
C	 0.346074242	 1.3231029369	 0.2442842847	-0.422345
C	-0.088683393	-0.1307222461	-0.0113124178	 0.281147
C	-1.6138148617	-0.2180201479	-0.1078217644	-0.441747
C	 0.6195475876	-0.700708011	-1.267756748	-0.253469
C	 2.0257006834	-1.100174606	-0.78821951	-0.166425
N	 1.8470028458	-1.3192050743	 0.6502278505	-0.033143
C	 0.4795548141	-1.0582398175	 1.087799748	-0.195625
C	 2.8891245102	-1.6236967363	 1.4583498973	 0.133754
O	 4.0300661314	-1.7976082995	 1.0758863465	-0.343984
H	 1.4305804136	 1.4078749436	 0.3633295702	 0.127246
H	 0.0477638102	 1.9696299412	-0.5876202742	 0.116082
H	-0.1199603601	 1.7150204303	 1.1548261833	 0.114662
H	-1.98879339	 0.4026219316	-0.9284623445	 0.118482
H	-1.9436367159	-1.24675902	-0.2878579217	 0.113881
H	-2.09122443	 0.132661295	 0.8139272068	 0.115874
H	 0.0788133785	-1.5852668648	-1.6220785714	 0.103031
H	 0.6502443147	 0.0160483666	-2.0925259542	 0.105783
H	 2.4045472503	-2.0029192515	-1.2769431916	 0.123738
H	 2.7704481034	-0.3136228616	-0.9519562764	 0.124023
H	 0.467929818	-0.5991770225	 2.0812973375	 0.113619
H	-0.1066863236	-1.9875542927	 1.1397390608	 0.100578
H	 2.5888461412	-1.6970171732	 2.5235347386	 0.064837
