12
gdb 132391	2.03547	1.98635	1.00531	2.0604	59.34	-0.2635	-0.0147	0.2488	1042.7446	0.079613	-510.185998	-510.178817	-510.177873	-510.217825	26.527	
N	-0.0468071381	 1.3261041276	 0.0553532092	-0.551516
C	 0.0005049662	-0.0163878862	 0.0105986507	 0.464844
N	-1.1800750142	-0.6717768318	 0.0231298831	-0.378681
C	-1.0390213968	-1.9764920568	-0.0231357435	 0.343026
F	-2.1531469918	-2.6746674355	-0.0137171846	-0.046328
N	 0.0750116252	-2.6840787961	-0.0777865355	-0.423402
C	 1.1722970567	-1.9103663963	-0.0840986453	 0.453569
O	 2.3461143082	-2.5364254458	-0.137868102	-0.379733
N	 1.2141398736	-0.5900489314	-0.0426134683	-0.348989
H	 0.8095188799	 1.850644962	 0.0479555512	 0.27747
H	-0.9371202973	 1.7887044274	 0.0958572008	 0.277386
H	 2.1495832085	-3.4836379971	-0.1628762259	 0.312354
