21
gdb 75880	2.28717	1.56313	1.19344	2.5858	77.76	-0.2518	-0.0258	0.226	1133.341	0.18108	-424.26947	-424.260073	-424.259129	-424.302972	36.303	
C	 0.3302789411	 1.4551320183	 0.0443994695	-0.42564
C	-0.0281662901	-0.0396303251	-0.0110214381	 0.242288
C	-1.5476197131	-0.2185058735	 0.0077226107	-0.4438
C	 0.6347554589	-0.7302540427	-1.2412690909	-0.245402
C	 2.1093553514	-0.9862266181	-0.8498062748	-0.33555
C	 2.108012077	-0.9060686141	 0.6714202757	 0.367175
O	 3.0543502598	-0.8395999576	 1.4184998039	-0.336335
C	 0.6654257556	-0.7958503748	 1.1485394179	 0.051318
O	 0.566870851	-0.2181956451	 2.4178891192	-0.448411
H	 1.4106895066	 1.6251094578	-0.0224327863	 0.113646
H	-0.1424689306	 1.9925583926	-0.7838929392	 0.110643
H	-0.0108912404	 1.8928608508	 0.9853538359	 0.137347
H	-2.011038396	 0.2656067428	-0.8591951888	 0.110539
H	-1.821839605	-1.279110436	-0.012857706	 0.108657
H	-1.9801497833	 0.2237388228	 0.9107636823	 0.131091
H	 0.1281549875	-1.6805226041	-1.4416795776	 0.102909
H	 0.5391547382	-0.120796116	-2.1435839902	 0.106858
H	 2.4935467494	-1.9539382267	-1.1865954451	 0.135332
H	 2.7983268947	-0.2278200357	-1.2343259443	 0.141091
H	 0.2589963575	-1.827009992	 1.1581751429	 0.084674
H	 1.4669307397	-0.2312483336	 2.7792120332	 0.29157
