22
gdb 13501	2.93873	1.61664	1.19601	1.6707	78.04	-0.2395	0.0785	0.318	1107.7361	0.199096	-350.198553	-350.189172	-350.188228	-350.232458	34.547	
C	 0.9445144606	 1.4451398079	 0.2572867056	-0.391463
C	 0.3248776458	 0.047633017	 0.1112370979	 0.01066
C	-1.2083540055	 0.1110071597	 0.1508959087	-0.39758
C	 0.8027327254	-0.5972520827	-1.1844014516	 0.163061
O	 2.2466338472	-0.6197846991	-1.3095116319	-0.297769
C	 2.2224314679	-1.9741045295	-1.7985252649	-0.077904
C	 0.7323082052	-2.1362832154	-1.4270998815	-0.051984
C	 0.4721128841	-3.0507020663	-0.2351293429	-0.408779
H	 2.0345617722	 1.3926282555	 0.2079013003	 0.136642
H	 0.6008893947	 2.1109472259	-0.5436507741	 0.108501
H	 0.6599272758	 1.8987036577	 1.2122483324	 0.105435
H	 0.6757731593	-0.5660817025	 0.9503151952	 0.071874
H	-1.5940537367	 0.7336458817	-0.665090654	 0.114327
H	-1.665666793	-0.8790211023	 0.0579041808	 0.114244
H	-1.5533103815	 0.5501107204	 1.0922371924	 0.115003
H	 0.3668368872	-0.0421515585	-2.0324817631	 0.059862
H	 2.4392591551	-2.0246970296	-2.8744692388	 0.09275
H	 2.9313297725	-2.6171156792	-1.2622393094	 0.097715
H	 0.0850165384	-2.4174265245	-2.2618719126	 0.07304
H	 1.1326617011	-2.8150449572	 0.6052219429	 0.126839
H	-0.5617304807	-2.9848577147	 0.1176594875	 0.120162
H	 0.6577009348	-4.0933249945	-0.516028549	 0.115365
