14
gdb 21143	5.03941	1.68719	1.27398	2.7609	70.87	-0.2322	-0.0735	0.1587	912.5971	0.107177	-378.698244	-378.691111	-378.690167	-378.729974	25.673	
C	 0.1329048398	 1.4300296092	 0.073204207	-0.321454
N	 0.1439656211	-0.0234279541	 0.0946916432	-0.309456
C	 0.3993622304	-0.6487608741	-0.9778085548	 0.427481
O	 0.6650265184	 0.0480348063	-2.1577541008	-0.297443
N	 0.9529429592	-0.5783178498	-3.3703096414	-0.058419
C	 0.9669811457	-1.8643239317	-3.3694911997	 0.028732
C	 0.7099041131	-2.6991483909	-2.2202589581	-0.117547
C	 0.4328914394	-2.094828587	-1.0535974871	-0.133443
H	 1.1037356601	 1.842454997	-0.2326267501	 0.127968
H	-0.6132550652	 1.8234827155	-0.6300615531	 0.127969
H	-0.1028458549	 1.7981467044	 1.0740614035	 0.119051
H	 1.1962316699	-2.2985953632	-4.3380489784	 0.140004
H	 0.7455965858	-3.777122972	-2.322891473	 0.125837
H	 0.2255219673	-2.6264188197	-0.1333066871	 0.14072
