18
gdb 68444	2.53401	1.70319	1.31928	2.8188	71.25	-0.2354	-0.0285	0.2069	1000.1309	0.148477	-439.053269	-439.045477	-439.044533	-439.085611	30.346	
O	 0.0764554857	 1.4103552993	 0.1403202978	-0.487716
C	 0.0859130616	 0.0231222178	 0.0657674231	 0.369131
C	 0.9402414654	-0.8385736752	-0.9089168728	-0.237253
N	 0.6183899778	-1.9804347674	 0.0280708553	-0.122852
C	 0.6560377106	-0.9513761924	 1.138219297	-0.249814
C	-0.861258838	-2.0781400423	-0.1793281622	-0.194106
C	-1.3233318726	-0.586322251	-0.1827918942	-0.116097
C	-2.3072004049	-0.1970769019	 0.8958430955	 0.135345
O	-2.4668848424	-0.8085446336	 1.9247043687	-0.249371
H	 0.9694329361	 1.7156604303	 0.3316889448	 0.287471
H	 0.6104039126	-0.9694582223	-1.9435935653	 0.103989
H	 2.0086631144	-0.6073247843	-0.8726114665	 0.102769
H	 1.6914225145	-0.7313921992	 1.4123314506	 0.100291
H	 0.0592297077	-1.189096254	 2.0200311907	 0.135835
H	-1.0688174239	-2.5847075709	-1.1242569253	 0.109384
H	-1.3153349568	-2.6374432537	 0.6399995882	 0.135133
H	-1.7060942081	-0.2389407739	-1.1480840254	 0.086367
H	-2.8824650997	 0.7323144048	 0.6949733301	 0.091493
