23
gdb 110068	1.6058	1.38928	0.94429	3.5036	88.44	-0.2392	-0.0157	0.2235	1410.9989	0.2029	-388.302926	-388.292169	-388.291225	-388.338632	39.362	
C	 2.3504926407	 2.3111693455	-0.6205663777	-0.375545
C	 1.1246444053	 1.3962828475	-0.5118370059	-0.216741
C	 1.2198852604	 0.1846542616	-1.4211313404	-0.043014
C	 2.0454291813	-1.0659005173	-1.0700422531	-0.154165
C	 2.7331322554	-1.2128011893	 0.2281051248	 0.155467
O	 3.7913426201	-1.782733168	 0.3655756134	-0.280137
C	 0.5110616401	-1.1167571808	-1.2044954111	 0.273984
C	-0.3600964243	-1.3440479617	 0.0198053766	-0.45734
C	-0.0022389944	-1.8458571863	-2.4344753358	-0.444502
H	 3.2630298439	 1.7881437029	-0.3165100003	 0.129425
H	 2.4953519396	 2.656165295	-1.6500322889	 0.117187
H	 2.2399461295	 3.1945801815	 0.015467648	 0.114868
H	 0.9847822257	 1.1000135121	 0.5317598852	 0.101035
H	 0.2231802468	 1.9599997054	-0.7857531382	 0.102824
H	 1.3331932951	 0.464693517	-2.4674025917	 0.089661
H	 2.6095873521	-1.5171190603	-1.8805535684	 0.097425
H	 2.2229570632	-0.7628266806	 1.1073796444	 0.063482
H	-0.0159182625	-0.8126647348	 0.9082103675	 0.121206
H	-1.3843091827	-1.011941472	-0.1856865722	 0.12032
H	-0.4038958484	-2.4101425628	 0.2683080061	 0.125238
H	-0.0444922101	-2.927220181	-2.2622423125	 0.122693
H	-1.014663293	-1.5090819946	-2.6874693904	 0.118374
H	 0.6373371763	-1.668663949	-3.3041599796	 0.118255
