20
gdb 70390	2.37013	1.51311	1.3201	1.5275	85.04	-0.227	0.0529	0.2799	1098.0081	0.168935	-365.944014	-365.934736	-365.933792	-365.977197	36.171	
C	-0.1184661371	 1.5435502341	 0.0928403145	-0.516763
C	 0.0965292031	 0.0636223713	 0.0436517425	 0.314459
N	-0.782285544	-0.8865283761	 0.7665118593	-0.378595
C	 0.684586646	-0.8999878684	 1.0109198017	-0.090658
C	 1.2825195618	-1.7606591004	-0.0991359802	-0.269975
C	 0.6727178823	-0.7503597889	-1.1648186945	 0.095898
C	-0.3555389159	-1.3234061942	-2.1457721128	-0.459388
C	 1.7188362559	-0.0142980616	-1.8587832938	 0.279141
C	 2.5787360021	 0.5958115251	-2.4388353166	-0.462151
H	 0.7472708035	 2.0738886998	-0.313865625	 0.141213
H	-0.9980933036	 1.8358060132	-0.4930386377	 0.127707
H	-0.2750795292	 1.880662824	 1.1234638188	 0.114532
H	-1.2122348152	-0.3624515467	 1.5287892089	 0.22359
H	 1.0796428463	-0.7313779889	 2.0056701714	 0.090405
H	 2.3725810459	-1.7653156351	-0.1194948094	 0.115866
H	 0.8985436258	-2.7823431972	-0.1552048778	 0.107296
H	-1.150824663	-1.8229931108	-1.5893037948	 0.140361
H	-0.7940022452	-0.5290450731	-2.7578909603	 0.11743
H	 0.1176939601	-2.0434412077	-2.820243454	 0.119695
H	 3.3388997703	 1.1285021719	-2.9544856902	 0.189938
