20
gdb 106351	3.0806	1.34334	1.14884	3.2371	80.58	-0.2521	0.0343	0.2864	1152.473	0.172168	-403.155302	-403.147209	-403.146265	-403.187875	32.011	
C	-0.0791583423	 1.5449916018	 0.0569475605	-0.384354
C	 0.123273816	 0.0276857042	-0.0260728334	-0.293581
C	 0.6980759167	-0.5685145228	 1.2304337605	 0.44968
C	 0.0611473086	-0.5079052263	 2.6458199884	-0.274793
C	 1.1969448007	-1.548745218	 2.9359368792	-0.137423
C	 0.9331258039	-2.0798196077	 1.4845226211	-0.283603
C	 2.3954217407	-0.6778948875	 2.6565468602	 0.454408
N	 3.470849599	-0.5579093447	 3.3002679511	-0.579756
O	 2.0404779264	-0.021768879	 1.4967965451	-0.302263
H	 0.8674769196	 2.0506375855	 0.2635511841	 0.139197
H	-0.4787456603	 1.9350908483	-0.883293919	 0.115485
H	-0.7825021336	 1.8083207525	 0.8537763662	 0.118447
H	-0.830700137	-0.4729142391	-0.2304114079	 0.102856
H	 0.7917453183	-0.2177067085	-0.8602751541	 0.113155
H	 0.0909617921	 0.4473570247	 3.1737753856	 0.11502
H	-0.9356384925	-0.951200466	 2.686138049	 0.10787
H	 1.2334060142	-2.179922893	 3.8186256368	 0.097543
H	 0.0199241287	-2.6737120993	 1.4134511044	 0.10754
H	 1.7577755897	-2.555958607	 0.9495395211	 0.113799
H	 4.0874487609	 0.1179641719	 2.8447043514	 0.220774
