18
gdb 36196	3.41676	1.18634	1.05096	0.4712	76.86	-0.2254	0.0413	0.2667	1176.5527	0.147065	-401.862347	-401.853968	-401.853024	-401.895728	31.746	
C	 0.1249483305	-1.2366612355	 0.0114459863	-0.452451
C	 0.0101453123	-0.0405531054	 0.048157762	 0.298268
C	-0.0726029294	 1.4161361764	 0.0963685175	-0.428525
C	 1.3008848408	 2.0563469164	-0.0617814747	 0.306963
C	 2.3242289448	 1.869376429	 1.0840961539	-0.117217
O	 2.5924099338	 3.2920680913	 1.1371288546	-0.289643
C	 1.6630281658	 3.56257175	 0.0760278813	 0.033306
C	 2.3109887264	 3.4660710751	-1.3222494961	-0.18444
N	 1.8430706679	 2.0549277647	-1.4335059046	-0.358186
H	 0.2062815022	-2.2947612062	-0.0235823004	 0.197781
H	-0.7269411693	 1.780020494	-0.7036038695	 0.138013
H	-0.5154198885	 1.7304321755	 1.050279036	 0.131405
H	 1.9051204452	 1.507798908	 2.0317036016	 0.106761
H	 3.2147605823	 1.2783058466	 0.8368785536	 0.099441
H	 0.9798007901	 4.3831709117	 0.3051808692	 0.083002
H	 1.8828352882	 4.107499609	-2.1010851312	 0.105431
H	 3.3949607159	 3.6191465149	-1.284077072	 0.109065
H	 2.5549678807	 1.3578199945	-1.6244740875	 0.221027
