16
gdb 24320	3.90582	1.61043	1.14028	2.6893	87.37	-0.1769	-0.0154	0.1615	1012.3447	0.129333	-363.699057	-363.692794	-363.69185	-363.729327	26.5	
N	-0.011017098	 1.3483888445	 0.0098016976	-0.219294
C	 1.2537198521	 1.8648413338	 0.0005680104	-0.215428
C	 2.1333011381	 0.7868545388	-0.0139868844	 0.245017
C	 3.5491856709	 0.6852484901	-0.0281791654	-0.230135
C	 4.1233639971	-0.5579348842	-0.0407227207	-0.118522
C	 3.3294846015	-1.7448798363	-0.0397902173	-0.118519
C	 1.9612643403	-1.6888900308	-0.0263143278	-0.230136
C	 1.3267241638	-0.4190719628	-0.013039808	 0.245014
C	-0.0054263421	-0.0177299672	 0.002046751	-0.215428
H	-0.8474756372	 1.9078551202	 0.0209993112	 0.266114
H	 1.4247761855	 2.9285972865	 0.0049263751	 0.124317
H	 4.1616591973	 1.5814992496	-0.029008423	 0.08583
H	 5.2043625901	-0.6531152018	-0.0516559964	 0.085511
H	 3.8302078111	-2.707640701	-0.0500416549	 0.085511
H	 1.3667958097	-2.5971835777	-0.0257250971	 0.08583
H	-0.9232663402	-0.5819938414	 0.0076928198	 0.124317
