17
gdb 72079	2.9116	1.62864	1.46607	2.3478	71.28	-0.2321	-0.0059	0.2263	944.326	0.13805	-421.850092	-421.843238	-421.842294	-421.881004	28.393	
O	-0.0969315678	 1.3451186593	 0.0625616521	-0.472521
C	 0.0329776987	-0.0287988729	 0.0408804935	 0.421278
C	 1.1008075905	-0.7711314733	 0.8464471804	-0.303061
C	 0.6563645772	-2.2074425886	 0.4574123807	-0.164997
C	-0.8611471724	-2.1722248443	 0.7720162361	-0.235248
C	-1.1794773224	-0.8932195254	-0.0061855176	-0.098704
C	-0.2444101843	-0.8639946985	-1.2296979124	-0.267961
C	 0.6292269295	-2.0673003259	-1.0842220245	 0.447782
O	 1.1879589801	-2.733054645	-1.9155642214	-0.348474
H	 0.6897149527	 1.7318013491	-0.3387599002	 0.289122
H	 2.1213610472	-0.5454485395	 0.5173275257	 0.10409
H	 1.0203692552	-0.5695839493	 1.9199442345	 0.109057
H	 1.240494458	-3.0399887245	 0.8408696362	 0.08772
H	-1.3894761954	-3.0502517423	 0.387147927	 0.112949
H	-1.0710965366	-2.0760489152	 1.842233627	 0.106573
H	-2.1680290225	-0.4601241412	-0.0780487285	 0.105781
H	-0.5239194577	-0.4130917725	-2.1705323187	 0.106616
