16
gdb 55986	3.3672	1.09134	0.85618	2.584	65.09	-0.2469	-0.0114	0.2354	1270.7549	0.124772	-475.084298	-475.075866	-475.074922	-475.118252	30.495	
N	 0.6014087185	 0.1644948542	-0.8087070668	-0.520973
C	-0.0196793926	 0.1055923409	 0.3988375324	 0.371032
O	 0.2875317898	 0.8065609468	 1.3437572912	-0.357724
C	-1.170349793	-0.907733676	 0.5091159975	-0.320678
C	-0.8938700447	-2.2845524398	-0.1002431811	-0.204271
C	-2.0131735319	-3.3477022287	-0.0823253949	-0.105967
O	-1.995584386	-3.4000742064	-1.5506888123	-0.228047
C	-1.0447419191	-2.4295065839	-1.6173824758	 0.476253
O	-0.5883982965	-1.9185296071	-2.5967475589	-0.335679
H	 1.3306404181	 0.8507841549	-0.9167465596	 0.259429
H	 0.314980279	-0.3823583084	-1.6105530419	 0.286412
H	-1.3740959742	-1.0091344261	 1.5771798199	 0.141313
H	-2.0643962936	-0.4685827205	 0.0481978863	 0.132175
H	 0.0682620591	-2.6751652024	 0.2432553811	 0.132728
H	-1.7629825778	-4.3214307949	 0.340789221	 0.1372
H	-2.9880669551	-3.0070988526	 0.2721744118	 0.136795
