15
gdb 49105	2.36031	1.35212	0.86896	0.604	74.35	-0.2609	-0.1129	0.148	1235.3452	0.11087	-457.781542	-457.772965	-457.772021	-457.815992	29.056	
O	 0.0368009994	-0.0565975012	-0.0116150775	-0.249236
C	 0.012097255	 1.1540882592	-0.0042382576	 0.07412
C	 1.238734942	 1.9631256624	 0.029737259	 0.100294
C	 1.3646698351	 3.3052562871	 0.0398613262	 0.100293
C	 2.8253062767	 3.6664103287	 0.0762880797	-0.148417
O	 3.5215708702	 2.4254856434	 0.0892443732	-0.268503
C	 2.6066462756	 1.3360702182	 0.0586844579	-0.148417
C	 0.3099855461	 4.3287632771	 0.0196026105	 0.07412
O	 0.5594557434	 5.5136932361	 0.0310177925	-0.249236
H	-0.9475460344	 1.7079200586	-0.0238566008	 0.090948
H	 3.1152837302	 4.2657183173	-0.7988665636	 0.133175
H	 3.0732588069	 4.259819023	 0.9681002342	 0.133367
H	 2.7386382374	 0.6936061219	 0.9411576695	 0.13336
H	 2.7813085279	 0.7064582627	-0.8257568917	 0.133183
H	-0.7359211714	 3.9634575555	-0.0060999714	 0.090948
