20
gdb 85336	1.86369	1.6663	0.90961	4.5212	83.87	-0.2341	-0.0248	0.2092	1302.3204	0.171658	-403.215583	-403.206611	-403.205667	-403.248997	34.163	
C	 0.0367890086	 1.576303993	-0.0036657842	-0.408568
C	 0.0630822834	 0.0497455779	 0.0047382596	 0.048308
C	 0.6226360616	-0.5317697763	-1.2978869378	-0.285222
C	 0.8939995538	-2.0149034823	-1.1904641049	 0.290713
C	 0.9032402669	-2.8059852907	-2.4652017324	-0.480538
C	 1.1571148224	-2.5532030708	 0.0067705994	-0.243148
C	 1.2327277602	-1.754739769	 1.252790073	 0.394668
O	 1.620979775	-2.2194790223	 2.3118666895	-0.384061
N	 0.8738679497	-0.4304929954	 1.1199148574	-0.34639
H	 1.0478812992	 1.9803911677	-0.1157815808	 0.127929
H	-0.5800344245	 1.9446169204	-0.8288374021	 0.122498
H	-0.3865828734	 1.9670452323	 0.927923932	 0.118761
H	-0.9734241293	-0.3143411537	 0.1114333795	 0.079987
H	-0.0809969699	-0.331075366	-2.1139781611	 0.106999
H	 1.5587983879	-0.016902193	-1.5626758684	 0.119612
H	 1.6218329204	-2.3828998508	-3.1791770067	 0.133087
H	 1.16557856	-3.852272274	-2.2923528725	 0.132378
H	-0.0776455847	-2.7695890718	-2.9559744236	 0.131344
H	 1.3881550975	-3.6057856107	 0.1287667764	 0.10353
H	 0.7883813352	 0.0521861355	 2.0039198975	 0.238113
