16
gdb 19775	3.07357	2.5535	1.70264	3.2919	67.47	-0.2326	-0.0184	0.2142	782.1326	0.132603	-346.600269	-346.594096	-346.593152	-346.630359	25.16	
O	 0.0018181579	 0.0145878885	 0.0028207578	-0.330615
C	-0.0146028813	 1.2214128288	 0.0191528248	 0.400314
C	-1.264002248	 2.0727878818	-0.0515439178	-0.143273
C	-1.5274076769	 3.1304176943	 1.00916555	-0.301737
C	-0.8161815049	 3.5062326903	-0.2557415044	-0.04229
C	 0.7151670825	 3.5273743031	-0.2782983819	-0.04229
C	 1.4734343057	 3.1718498994	 0.9649643484	-0.301737
C	 1.2081983465	 2.1069189607	-0.0879555744	-0.143273
H	-2.1154399896	 1.6249779931	-0.5495069899	 0.108414
H	-2.563564079	 3.4374493565	 1.1040196777	 0.12301
H	-1.0011451944	 3.0953571405	 1.954321023	 0.125126
H	-1.3228628152	 4.1532117801	-0.9615577407	 0.095901
H	 1.18279318	 4.1878020669	-0.9984688345	 0.095901
H	 2.5030662098	 3.5073994161	 1.029388742	 0.12301
H	 0.9764003468	 3.1226664145	 1.9251926822	 0.125126
H	 2.05663914	 1.6825766953	-0.6109556524	 0.108414
