13
gdb 162	9.13872	6.09542	4.76786	0.2527	48.92	-0.2519	0.0987	0.3506	350.7167	0.116089	-195.179738	-195.175335	-195.174391	-195.206606	16.868	
C	 0.0215080532	 1.4593903554	 0.1004361686	-0.262799
C	 1.3350302405	 0.7482139411	-0.0678021377	-0.028182
C	 1.7535998485	 0.0937892949	 1.2547147082	-0.218531
C	 0.4080673965	-0.7075485212	 1.2635029318	-0.21852
C	 0.0191846257	-0.035262609	-0.059132725	-0.028197
H	-0.2415235003	 1.911713019	 1.0552152991	 0.100034
H	-0.3183015344	 2.0206072355	-0.764309309	 0.107019
H	 1.9956795599	 0.9658954263	-0.8985259138	 0.080626
H	 2.6202376771	-0.5636163336	 1.1550256604	 0.101245
H	 1.9315567353	 0.7772691336	 2.0920260646	 0.092716
H	 0.5723066708	-1.7832606181	 1.1683458396	 0.101254
H	-0.2695006781	-0.533645395	 2.1064468344	 0.092709
H	-0.4950666348	-0.517116149	-0.8821197614	 0.080627
