17
gdb 106757	2.19893	1.65689	1.14354	4.0048	69.56	-0.2565	0.0012	0.2576	1112.1393	0.13336	-458.951135	-458.942155	-458.941211	-458.985031	32.38	
C	 0.0776900207	 1.3336049226	-0.2812376541	-0.263809
O	 0.0358761766	-0.0267110424	 0.1493445423	-0.275034
C	-1.2154289279	-0.5645410025	 0.1351248775	 0.183931
C	-1.923370833	-1.059945368	-1.1468617137	-0.393709
C	-1.6660670916	-1.9953702817	-0.012109575	 0.370991
C	-0.958274649	-3.304833821	 0.0144364664	-0.48803
O	-2.729846568	-1.7744089101	 0.9763436383	-0.299821
C	-2.2598840926	-0.4905767561	 1.2299104401	 0.408672
O	-2.6171974111	 0.2622266588	 2.0754714085	-0.33521
H	 1.1234634115	 1.6416007423	-0.2350029756	 0.136485
H	-0.2881511882	 1.4317637686	-1.3116970304	 0.117628
H	-0.5215085614	 1.9733656259	 0.376647057	 0.14325
H	-2.9372970434	-0.758645783	-1.3898063723	 0.133616
H	-1.2382129187	-1.1437745741	-1.9864716105	 0.13253
H	-0.0910393557	-3.2714750159	-0.6505982047	 0.140465
H	-0.61496888	-3.5352191112	 1.0267679493	 0.14565
H	-1.6184333982	-4.1110494722	-0.3209778931	 0.142394
