19
gdb 114051	2.98875	1.24443	1.0505	1.7891	71.68	-0.2304	0.0691	0.2995	1193.1285	0.157582	-460.111866	-460.102711	-460.101767	-460.145411	34.547	
C	 0.1081449899	 1.2182863364	-0.1640433677	-0.242155
O	-0.0036930164	-0.087448975	 0.3664033679	-0.25415
C	-1.2812526136	-0.6719196292	 0.1642425188	 0.124668
C	-1.6228547207	-1.2173139056	-1.2670634648	-0.341535
C	-1.7490107369	-2.6158568613	-0.6547723479	 0.338759
O	-2.7586102425	-3.5071698294	-0.9662922713	-0.458352
C	-0.4683343665	-3.0082676579	 0.0157337232	 0.056237
O	 0.8034372979	-2.6639055385	-0.4453494064	-0.442351
C	-1.39062281	-2.0701377694	 0.7519598072	-0.219728
H	 1.1119931671	 1.5799443977	 0.0690402203	 0.133103
H	-0.0332309786	 1.2322299928	-1.2539996993	 0.116825
H	-0.630199694	 1.8943782077	 0.2919193602	 0.113129
H	-2.0580319713	 0.0100666766	 0.5339879981	 0.082358
H	-2.5738430131	-0.8358350169	-1.6429257963	 0.110324
H	-0.8443617034	-1.0992002746	-2.0267403237	 0.104349
H	-2.4158972805	-4.1402825233	-1.6067891436	 0.290313
H	-0.4981622325	-4.0223111324	 0.4113280869	 0.099809
H	 0.9617751482	-1.7485158868	-0.1756100885	 0.295183
H	-1.7950120632	-2.3043283808	 1.7291849568	 0.093213
