19
gdb 73475	2.77005	1.80339	1.54948	1.4933	73.59	-0.2326	0.0707	0.3033	934.6476	0.161915	-423.02862	-423.021553	-423.020609	-423.059592	29.54	
O	-0.0108672564	 1.3442731541	 0.0227340206	-0.475082
C	 0.0300554043	-0.0530434954	 0.0410210325	 0.371369
C	 1.1566270918	-0.6534410712	-0.7861158208	-0.135902
O	 1.1487869002	-2.0805034699	-0.7955643093	-0.278683
C	 0.0734450618	-2.6682618213	-0.0641376635	 0.092656
C	-1.2748964337	-2.1300487487	-0.5844517156	-0.239112
C	-1.3027247864	-0.7399702991	 0.0336124478	-0.096397
C	-0.4212833287	-0.7830782882	 1.2842457902	-0.136755
C	 0.1231125498	-2.199115813	 1.4044940953	-0.237094
H	 0.7161932467	 1.6707555983	 0.5652725425	 0.281808
H	 1.0801781492	-0.2832206226	-1.8181795207	 0.107055
H	 2.1266743411	-0.3119822934	-0.3908424626	 0.08623
H	 0.1970662026	-3.7453978	-0.1879285289	 0.078867
H	-1.30170834	-2.1362879902	-1.6782951952	 0.106979
H	-2.1100327003	-2.7372593058	-0.2164181058	 0.0993
H	-2.1913414589	-0.1215978482	 0.001016844	 0.091703
H	-0.6776995377	-0.1980502618	 2.1599908751	 0.082265
H	-0.5252745318	-2.8153873551	 2.0386600736	 0.098608
H	 1.1431937065	-2.2597536787	 1.7962829806	 0.102186
