19
gdb 68149	3.45016	1.27293	1.09822	2.965	76.07	-0.2508	-0.0331	0.2177	1146.6546	0.158212	-423.018848	-423.010418	-423.009474	-423.052886	31.984	
C	-0.0112353325	 1.5277321703	 0.0106169808	-0.50132
C	 0.0321026085	 0.0196798736	 0.0429940861	 0.263779
C	 1.0496244328	-0.8346549348	-0.7857108424	-0.297097
C	 0.5700944656	-1.9289732578	 0.2084374648	 0.3506
C	 0.5195426536	-0.8055185798	 1.2813162282	-0.297096
O	-0.8074525842	-2.1193826474	-0.1421607991	-0.324551
C	-1.2608039295	-0.7532532873	-0.2776750639	-0.107353
C	 1.2749902705	-3.2348986948	 0.4075700222	 0.061967
O	 2.4399082702	-3.3145713067	 0.7077149023	-0.262293
H	 0.9653197694	 1.956768487	 0.2550598911	 0.123973
H	-0.2988212357	 1.8936102468	-0.9817347762	 0.122342
H	-0.7384071204	 1.9177687121	 0.7320232926	 0.122342
H	 0.8438899709	-1.0122756618	-1.8442614609	 0.103526
H	 2.0878778025	-0.5436827149	-0.6236899813	 0.119877
H	 1.509617327	-0.5119031197	 1.6312116435	 0.119879
H	-0.1713365508	-0.9564629948	 2.1145669216	 0.103525
H	-2.0713747687	-0.5531573237	 0.43337759	 0.102206
H	-1.6278779386	-0.577528482	-1.2960253068	 0.102205
H	 0.6381204995	-4.1332649245	 0.2565689774	 0.093489
