17
gdb 98499	2.38395	1.44062	0.97106	0.8723	76.46	-0.2491	0.0082	0.2573	1218.1789	0.133391	-421.813758	-421.804334	-421.803389	-421.848353	33.98	
C	 0.2135284882	 1.3698851887	 0.1023100541	-0.245256
O	 0.3614069151	-0.0558897789	 0.0786080539	-0.238341
C	 0.4812834332	-0.5972444051	-1.1413683743	 0.436136
O	 0.4694086163	 0.0410891378	-2.167795945	-0.38805
C	 0.6318719188	-2.0899384229	-1.0911382879	-0.008265
C	 0.0235002488	-2.8224037889	-2.2980343408	-0.278819
C	 1.4979884141	-2.671017677	-2.220487106	-0.278826
C	 0.6333645499	-2.7556368069	 0.1800422216	 0.237337
C	 0.6397021047	-3.3519117042	 1.22397267	-0.411807
H	 1.08173704	 1.8540367245	-0.3514898757	 0.142194
H	-0.6833478318	 1.6724942524	-0.4437412282	 0.142185
H	 0.1308085907	 1.6390615849	 1.155007861	 0.136961
H	-0.4166828401	-3.7887917188	-2.0864720901	 0.136398
H	-0.5126112484	-2.1920698629	-2.9968128021	 0.146244
H	 1.9648285172	-1.9377136837	-2.8665156364	 0.146235
H	 2.1004826477	-3.5303488946	-1.9540741977	 0.136397
H	 0.6430903855	-3.8613983544	 2.1552845935	 0.189278
