21
gdb 61638	3.51534	0.83268	0.74594	2.7016	80.11	-0.2494	-0.0277	0.2218	1578.6194	0.178652	-424.214707	-424.204297	-424.203352	-424.251226	37.002	
C	-0.0067864279	 1.3373625802	 0.4891442117	-0.400391
C	 0.0514011454	-0.0974278944	-0.0319428007	 0.042589
O	 0.7014954984	-1.0161821604	 0.8303051616	-0.265192
C	 2.0972381857	-0.9764500174	 0.8025711081	 0.130958
C	 2.8541076679	-0.1298370502	 1.7994394523	-0.320314
C	 2.818373273	-1.6412896989	 1.9363624185	-0.039337
C	 2.0513460957	-2.2879530315	 3.0689962475	-0.396932
C	-1.3401936095	-0.6772559824	-0.2724391694	 0.145517
O	-2.2810312092	-0.0386517659	-0.6634402155	-0.245433
H	 0.9848692118	 1.7935801101	 0.5052534117	 0.126133
H	-0.6619511341	 1.9247665131	-0.1587726917	 0.141926
H	-0.4191737679	 1.3528204069	 1.5021855044	 0.127316
H	 0.5507115797	-0.106058975	-1.019160747	 0.096072
H	 2.5119946044	-1.0765248221	-0.2017875386	 0.084255
H	 3.7713244099	 0.3582610749	 1.4872792509	 0.110252
H	 2.2563633484	 0.4335484105	 2.5078232121	 0.118788
H	 3.7302332038	-2.160832315	 1.6537262872	 0.088004
H	 1.1193620267	-1.753334731	 3.2652263742	 0.127451
H	 1.7934358554	-3.3249681322	 2.8289177948	 0.118883
H	 2.6460892886	-2.2934551238	 3.9884435983	 0.115659
H	-1.4012812161	-1.7679776753	-0.0652627804	 0.093796
