20
gdb 88166	2.65328	1.32836	1.15664	0.641	74.74	-0.2387	0.073	0.3117	1162.9766	0.17138	-440.258869	-440.250041	-440.249097	-440.292505	33.548	
C	-0.0468243536	 1.4558141492	-0.2096786095	-0.400085
C	 0.0604453591	-0.0373673429	-0.0180752556	-0.047495
N	 1.4212124273	-0.6097180329	 0.0178068869	-0.387364
C	 0.5782093338	-0.6642160406	 1.2222405027	 0.259917
C	 1.0624059006	 0.0835042156	 2.4703406386	-0.142958
O	 0.6147361226	-0.6958211713	 3.5802302024	-0.263686
C	 0.6297169421	-2.0500171189	 3.1364701334	-0.123952
C	-0.0163858368	-1.9789926566	 1.7504077354	 0.04492
O	-1.4340614538	-1.9526552878	 1.8300774487	-0.429882
H	 0.7716954032	 1.9753705829	 0.2953917149	 0.126846
H	 0.0029842384	 1.7115405173	-1.2732752535	 0.123325
H	-0.9970503054	 1.8343451548	 0.1827352792	 0.117887
H	-0.703645527	-0.6173717202	-0.5339827546	 0.095935
H	 1.4395862785	-1.5150469046	-0.4467405685	 0.228285
H	 2.159660658	 0.1568021977	 2.4560426374	 0.107252
H	 0.6450026106	 1.0877971289	 2.5805131047	 0.11226
H	 1.6606656007	-2.4359604003	 3.0743284233	 0.093625
H	 0.056990455	-2.6539738856	 3.8433352263	 0.116212
H	 0.2305540199	-2.8325631772	 1.1121536738	 0.083589
H	-1.6639471931	-1.2675315976	 2.4694359441	 0.285368
