19
gdb 47057	3.38199	1.35424	1.05665	2.6056	74.92	-0.2299	-0.017	0.2129	1137.2586	0.16052	-423.03877	-423.031027	-423.030083	-423.071585	30.03	
O	-0.0139135734	 0.3163609143	-1.0334780066	-0.303736
C	-0.0888651495	 1.1683452952	-0.1820132993	 0.360253
C	-1.366780984	 1.9935438214	 0.0186264797	-0.18211
O	-1.3141559453	 2.7946645311	 1.1814090793	-0.252237
C	-0.2426362744	 3.7177895778	 1.136781549	 0.136124
C	 0.2760115709	 4.1128719239	 2.5361915734	-0.245784
C	 1.7181977678	 3.718251858	 2.1005134931	-0.246972
C	 1.1450255074	 3.0825015048	 0.800361181	-0.040331
C	 1.0367237478	 1.551512122	 0.7644327985	-0.318895
H	-1.5409365483	 2.5929949918	-0.8914419363	 0.117512
H	-2.2154127404	 1.3121019132	 0.1275294845	 0.141442
H	-0.5019083301	 4.5698229218	 0.4914988463	 0.067411
H	 0.1186467136	 5.1489619514	 2.8412784944	 0.105924
H	-0.1424149243	 3.4541526751	 3.3000996088	 0.118019
H	 2.3583427852	 4.5806223419	 1.9014394764	 0.107836
H	 2.2572883414	 3.0389212365	 2.7653755094	 0.104857
H	 1.6004387977	 3.4402635791	-0.1269727707	 0.080399
H	 0.770901042	 1.1778785081	 1.7623196745	 0.128179
H	 1.9628380561	 1.0630775224	 0.4536504345	 0.12211
