16
gdb 96952	5.4325	1.17834	1.08846	0.9734	71.88	-0.245	0.0097	0.2547	1108.5894	0.124461	-437.8191	-437.811928	-437.810984	-437.851163	27.365	
C	-0.0659524412	 1.4485965313	 0.1035311572	-0.339693
N	-0.0174214651	-0.0051853677	 0.1379048986	-0.33726
C	-1.0791235029	-0.6654412043	 0.0464076507	 0.460391
O	-2.3723544138	-0.1568491925	-0.0917317307	-0.266119
C	-3.162602719	-1.3341252414	-0.1458889206	 0.056743
C	-2.6143940618	-2.409823635	 0.8336819448	 0.045705
O	-3.0101042567	-3.4764971881	-0.0872601028	-0.315431
C	-2.4376199381	-2.4461936052	-0.955160171	 0.045705
C	-1.2776472911	-2.1493733707	 0.0569588643	-0.185094
H	 0.5558237691	 1.8030411596	-0.7259724202	 0.130171
H	-1.0730111975	 1.8656275465	-0.0044615858	 0.128123
H	 0.3829516462	 1.838663266	 1.0236632669	 0.13017
H	-4.2230664766	-1.1249912203	-0.2549368976	 0.11481
H	-2.7773908313	-2.5536839463	 1.9009208854	 0.111291
H	-2.3892346347	-2.6335445798	-2.0269910229	 0.111291
H	-0.4231249154	-2.8106694821	 0.1548486236	 0.109196
