19
gdb 127124	3.94443	1.10398	0.88035	1.9097	80.45	-0.189	0.028	0.2171	1343.2911	0.15979	-415.420589	-415.410847	-415.409903	-415.456047	33.963	
C	 0.0323208138	 1.4078724305	-0.0004047875	-0.334304
N	-0.2064584594	-0.0233788489	-0.0322066909	-0.153797
C	 0.1012201918	-0.7585794674	 1.1789318805	-0.323824
C	-0.0542257161	-0.6823934974	-1.2280802677	 0.456001
N	 0.148643183	-1.9969262771	-1.3051485137	-0.336073
N	 0.1576739269	-2.1857454075	-2.6599233898	-0.245984
C	-0.0101155455	-1.0221165755	-3.3114866851	 0.374419
C	-0.0359055756	-0.8925607594	-4.7966854669	-0.493406
N	-0.1466723229	-0.0408480256	-2.4351058431	-0.394311
H	 1.0995592154	 1.6567172653	 0.1226926299	 0.104119
H	-0.3191720624	 1.8533708442	-0.930271245	 0.159152
H	-0.5175784083	 1.8461983658	 0.8387207228	 0.114629
H	-0.3386202109	-0.2356473751	 2.0334519095	 0.11375
H	-0.3233851464	-1.7616337846	 1.1172767982	 0.150773
H	 1.1849725986	-0.8585260797	 1.35336122	 0.107364
H	 0.2997955442	-3.1093103819	-3.0318933778	 0.270286
H	-0.9976859908	-0.4922348389	-5.1307873931	 0.15442
H	 0.7421046119	-0.2014321765	-5.1336463544	 0.154156
H	 0.1241460027	-1.8582452902	-5.2835644059	 0.122631
