12
gdb 8749	3.99113	1.28478	1.22394	1.2004	55.38	-0.3183	-0.0195	0.2988	970.6262	0.082016	-414.658883	-414.650346	-414.649402	-414.692631	28.521	
O	 0.2530969816	 1.5964805427	-0.1261563122	-0.411088
C	 0.1396814164	 0.1970365005	-0.0179780166	-0.018013
C	 0.6512536394	-0.4904239848	-1.2171758325	 0.253196
N	 1.0667855305	-1.018033344	-2.156758703	-0.296447
C	 0.894147927	-0.320430623	 1.2486051038	-0.018013
O	 2.2025763368	 0.1982336424	 1.2934811763	-0.411089
C	 0.1256947159	 0.0204879419	 2.459239859	 0.253195
N	-0.4701402734	 0.3048608188	 3.4068510808	-0.296447
H	 1.1369721708	 1.7980878239	-0.4564908588	 0.30537
H	-0.9270620585	-0.0270863704	 0.084081508	 0.166983
H	 0.9873242255	-1.40967787	 1.1898886273	 0.166983
H	 2.1483395081	 1.1158175419	 1.586908518	 0.305371
