16
gdb 75078	2.28291	1.79508	1.01762	3.319	74.21	-0.2529	-0.0302	0.2227	1115.516	0.124673	-434.115499	-434.107279	-434.106335	-434.148498	30.074	
C	-0.0258500155	 1.4716935595	 0.019523799	-0.498615
C	-0.010125369	-0.0222523029	-0.0130244446	 0.393288
N	-0.0318969792	-0.7011955759	-1.0922917579	-0.285085
C	-0.0061063477	-2.1129114909	-0.7220150792	-0.276686
C	 0.036714168	-2.1646477286	 0.8029230815	 0.342337
N	 0.0707633116	-3.1267381428	 1.6206070305	-0.484565
N	 0.0311099012	-0.7920032043	 1.1797001252	-0.167162
C	 0.0578024635	-0.2669995716	 2.4729491087	 0.160329
O	 0.0903312815	-0.9051581911	 3.4884014685	-0.263318
H	 0.8668605609	 1.8723734437	 0.5107199972	 0.151064
H	-0.0567513637	 1.8287329596	-1.0097747392	 0.163032
H	-0.9003868554	 1.8527863951	 0.5568542954	 0.151087
H	-0.8927376326	-2.627821855	-1.1105240914	 0.145823
H	 0.8686844669	-2.6085186099	-1.1593278959	 0.145805
H	 0.0670124743	-4.0126289367	 1.1125534417	 0.228413
H	 0.0453087654	 0.8372284619	 2.4543730206	 0.094255
