15
gdb 8742	3.81541	1.30393	1.1948	5.4406	67.36	-0.2586	0.0188	0.2774	1025.0949	0.118201	-358.799705	-358.790655	-358.789711	-358.833329	32.141	
N	 0.0664967349	 1.5753795614	-0.0137755289	-0.497454
C	 0.048394303	 0.1073931466	-0.0071028624	-0.182554
C	 0.6179814397	-0.5007299937	-1.2138279534	 0.295117
C	 1.1400820808	-0.9729570247	-2.1895313886	-0.4321
C	 0.8282290653	-0.4130684119	 1.2516797065	-0.111819
N	 2.1982887034	 0.0676714361	 1.3758935915	-0.508831
C	 0.0703401188	-0.0642116018	 2.4634033764	 0.310023
N	-0.5520506886	 0.1905790522	 3.4021336856	-0.321024
H	 0.8891085659	 1.9063492635	-0.5072477449	 0.235626
H	-0.7343978089	 1.9312677597	-0.5237137888	 0.247943
H	-0.99379245	-0.2138922121	 0.1008660562	 0.131081
H	 1.5726271404	-1.3939883441	-3.0639434773	 0.20692
H	 0.8586192961	-1.5073316779	 1.1904829588	 0.139647
H	 2.7216664631	-0.2016546365	 0.5476016545	 0.241408
H	 2.1969102259	 1.0821690432	 1.4319070649	 0.246017
