17
gdb 38305	3.0327	2.00566	1.98621	2.8162	69.39	-0.2218	-0.0013	0.2204	805.5587	0.139448	-421.767767	-421.762062	-421.761118	-421.797423	25.307	
C	-0.0699109597	 1.5988498405	 0.0860873175	-0.239603
C	 1.4619856485	 1.398788998	 0.0308137389	 0.061048
O	 1.2689851006	 0.1474753199	 0.7558599973	-0.263081
C	 0.0018128333	 0.0553516565	 0.0385635295	 0.061047
C	 0.3656861658	-0.4856087119	-1.4230006809	 0.00511
O	 1.7904468752	-0.4322192631	-1.4844942364	-0.210498
C	 1.9624120472	 0.9834764323	-1.4314776338	 0.005114
C	 0.971390219	 1.4357761637	-2.5141951796	-0.085402
C	-0.0088998652	 0.5338321984	-2.5090022793	-0.085397
H	-0.3727948777	 1.9337880846	 1.0798883363	 0.107832
H	-0.5902199968	 2.1599208489	-0.6854118808	 0.103028
H	 2.1362477407	 2.0900257332	 0.5403387385	 0.07945
H	-0.7401319754	-0.5563977006	 0.5556069308	 0.07945
H	 0.0323693566	-1.5118105219	-1.5825821207	 0.082357
H	 3.0118291828	 1.2294755895	-1.5984047532	 0.082357
H	 1.0438258547	 2.3474421288	-3.091577051	 0.108594
H	-0.9267321095	 0.534379193	-3.081134473	 0.108594
