20
gdb 86725	3.07697	1.09852	0.84514	4.1979	87.32	-0.2034	0.0026	0.206	1384.2268	0.17073	-403.198085	-403.188704	-403.18776	-403.232672	34.162	
C	-0.1969434126	 1.5375707002	 0.0190524551	-0.40096
C	 0.0634704695	 0.0262699221	 0.0123857837	-0.084232
C	 0.9526823739	-0.4250292982	-1.1823842214	-0.19306
N	 1.9314624341	-1.3438988503	-0.5828848422	-0.056578
C	 2.8261616929	-2.1090904567	-1.2656561018	 0.140746
O	 3.6551771337	-2.8347364872	-0.7540728696	-0.336236
C	 1.8414659584	-1.2675482798	 0.8156367374	-0.103332
C	 0.828343349	-0.4987034129	 1.2225733932	 0.238337
C	 0.4177370333	-0.2203016121	 2.6307238857	-0.49227
H	 0.742685579	 2.0956648486	 0.0941385048	 0.12093
H	-0.7054543986	 1.8511186849	-0.8988122404	 0.118552
H	-0.8312343525	 1.8263716514	 0.8623690945	 0.122191
H	-0.9120157116	-0.4809312114	-0.036358023	 0.085939
H	 0.3856047504	-0.9211536638	-1.9741453055	 0.123096
H	 1.4668742967	 0.4386177597	-1.6231865888	 0.116512
H	 2.7087090553	-1.9971275391	-2.3616041665	 0.068183
H	 2.5608513417	-1.827735944	 1.3943708438	 0.14975
H	 1.0648437662	-0.7393467005	 3.3428097068	 0.130216
H	 0.4546630512	 0.8511405504	 2.8645961922	 0.128016
H	-0.6155084999	-0.5439669211	 2.8165469719	 0.124198
