20
gdb 71803	3.8452	1.5412	1.35733	1.5821	81.98	-0.2229	0.0935	0.3164	1011.3438	0.17329	-365.967175	-365.960129	-365.959185	-365.998057	29.762	
C	 0.0449351457	 1.535218801	 0.1296460514	-0.501297
C	 0.0016520762	 0.0367864835	 0.0479628052	 0.328845
C	-1.2811518825	-0.7981197271	-0.0738002217	-0.274408
C	-0.5149927909	-1.9998910057	 0.5533575952	-0.014159
C	 0.6141408505	-1.0084097766	 0.9765201394	-0.153654
C	 1.2175961651	-0.78394589	-0.3811205563	-0.087908
C	 1.0278546282	-2.0380738455	-1.1968779679	-0.05603
C	 1.339516247	-3.3065522473	-0.476566609	-0.249341
N	-0.045511255	-2.8325161733	-0.5711320682	-0.085926
H	 1.0431687245	 1.8929118247	 0.4037466999	 0.115872
H	-0.2184157792	 1.9929816608	-0.831688128	 0.120768
H	-0.6618665054	 1.911042798	 0.8787105026	 0.116589
H	-2.0523890395	-0.411012811	 0.599128569	 0.094934
H	-1.7119394283	-0.9699411193	-1.0658056218	 0.095889
H	-1.0220661241	-2.5931722902	 1.314003708	 0.072015
H	 1.1227426664	-0.9087870238	 1.9262225744	 0.08115
H	 2.1504216953	-0.2338412608	-0.4523644945	 0.083999
H	 1.0409225997	-1.9947294374	-2.2819989746	 0.088475
H	 1.5363431307	-4.2169326823	-1.0342448004	 0.113897
H	 1.8598949655	-3.2254027577	 0.4753147173	 0.110291
