14
gdb 48672	3.81727	1.22079	1.09013	0.6236	65.21	-0.2752	-0.0613	0.2139	1079.1686	0.100487	-473.819998	-473.812546	-473.811602	-473.852301	27.311	
N	-0.1159384668	 1.2255608135	 0.3715732487	-0.539318
C	-0.0233384651	 0.0170916333	 0.0269525039	 0.459552
O	 1.1287198105	-0.6526718581	-0.273868783	-0.252695
C	 0.8561151382	-1.9220143791	-0.8967660867	-0.153192
C	-0.6296692244	-2.1499260404	-0.7281461229	 0.291768
O	-1.0467165339	-2.1066496265	 0.6398132923	-0.271632
C	-1.1840846434	-0.9122743107	-0.1294519611	-0.144441
C	-1.4148892386	-3.0268641668	-1.6386446157	 0.087493
O	-0.9769355033	-3.4706727031	-2.6693125514	-0.24814
H	 0.8011109033	 1.6758827997	 0.37925598	 0.234572
H	 1.1211369948	-1.8812533696	-1.9573489505	 0.147921
H	 1.4575715259	-2.6860011549	-0.3978826004	 0.142757
H	-2.1871806086	-0.5290725419	-0.2761927125	 0.140003
H	-2.4423931584	-3.2389252752	-1.2757627506	 0.105353
