25
gdb 123147	5.72785	0.45527	0.43565	1.571	88.23	-0.2452	0.0721	0.3173	2599.8237	0.225708	-426.627996	-426.616027	-426.615083	-426.666592	41.79	
C	 0.002087948	 1.5319046226	-0.0486425498	-0.383898
C	-0.0074432069	 0.0123185644	-0.0348442196	-0.025349
O	 0.6835284621	-0.4539545735	-1.1731040951	-0.242833
C	 0.7341019463	-1.8613816734	-1.2600103463	-0.052316
C	 1.4819810336	-2.2489338948	-2.527985284	-0.199384
C	 1.6029003898	-3.7661854473	-2.6956479381	-0.168874
C	 2.3095959683	-4.1782079148	-3.9868527024	 0.129862
C	 2.4906964114	-5.6930097636	-4.0916926329	-0.402234
O	 1.5158269875	-3.6815595039	-5.0634662834	-0.432466
H	 1.0287674064	 1.9087680345	-0.0328420156	 0.124711
H	-0.4864285776	 1.9098796655	-0.9512756208	 0.125917
H	-0.5267771026	 1.9259897605	 0.824451089	 0.111422
H	 0.4699721939	-0.3684136677	 0.8850551899	 0.080537
H	-1.0440658986	-0.367354139	-0.0352297786	 0.081865
H	 1.2370025574	-2.2814246614	-0.3700079353	 0.076107
H	-0.2873683419	-2.2816149495	-1.2744608404	 0.0811
H	 0.9654321962	-1.8249375711	-3.3936166709	 0.126187
H	 2.4794806789	-1.7929545969	-2.4979165054	 0.097072
H	 2.1507669321	-4.1969903157	-1.8479805969	 0.090226
H	 0.6047076088	-4.2242552853	-2.6946569596	 0.100463
H	 3.3041321155	-3.6994230581	-4.0062563156	 0.062167
H	 2.9864352269	-5.9630413296	-5.0315313945	 0.102186
H	 3.1064762977	-6.0759713979	-3.271123411	 0.113826
H	 1.5187338109	-6.1959882201	-4.0638341721	 0.12324
H	 1.9572153658	-3.9071682934	-5.8880153205	 0.280466
