14
gdb 49142	4.19764	0.95551	0.87016	3.2806	70.99	-0.2791	-0.0888	0.1903	1274.7664	0.100375	-436.701587	-436.693522	-436.692578	-436.735151	28.107	
O	-0.0813494228	-0.0353251961	 0.0846166135	-0.249751
C	-0.0240107767	 1.1698815327	 0.0031149116	 0.078484
C	 1.242789903	 1.9138548095	 0.0083668699	 0.213668
C	 1.3877539361	 3.2362189351	-0.0904383917	-0.201924
C	 2.861366867	 3.5746855498	-0.0652516099	-0.041431
O	 3.5245455282	 2.3458414807	 0.1782311641	-0.262124
C	 2.5927797022	 1.2571366267	 0.110405738	-0.165002
C	 3.2972949572	 4.1826033047	-1.3446459481	 0.268656
N	 3.6236762883	 4.6679556846	-2.3407397319	-0.308808
H	-0.9379906907	 1.7947672166	-0.0814784396	 0.088993
H	 0.6101977288	 3.9811896966	-0.1981684054	 0.14929
H	 3.1112831567	 4.2850213847	 0.7363926722	 0.148019
H	 2.6980218655	 0.6426063213	 1.01129641	 0.141506
H	 2.8040816873	 0.619523923	-0.7583693827	 0.140425
