18
gdb 34602	3.64014	1.17921	0.99006	4.6744	83.7	-0.2583	-0.035	0.2233	1199.5935	0.150213	-364.839666	-364.832	-364.831056	-364.871951	29.801	
N	 0.2005190427	-0.9530238909	 0.7738052063	-0.338704
C	 0.0843837549	 0.1316339949	 0.3833894167	 0.215681
C	-0.016883923	 1.4678423365	-0.1166800186	 0.155293
C	-1.1475820582	 2.1647857961	 0.07152068	-0.126742
C	-1.3708940546	 3.5575832404	-0.434897227	-0.277815
C	-0.1006529425	 4.2854921062	-0.8355437909	-0.027874
C	 1.0355363985	 4.4095057923	 0.1508325302	-0.288344
C	 1.1739545578	 3.5044990765	-1.0485202943	-0.026722
C	 1.1844621218	 1.9967390389	-0.8733135789	-0.318081
H	-1.9693138772	 1.6963313564	 0.6052362741	 0.115212
H	-2.049020437	 3.4992066128	-1.3000860783	 0.127381
H	-1.9226567294	 4.1322178422	 0.3216837567	 0.12007
H	-0.2640389626	 5.1366934181	-1.488919123	 0.088414
H	 1.6055414636	 5.331499662	 0.1682203743	 0.115123
H	 0.9115284597	 3.9428077877	 1.1232868014	 0.119519
H	 1.8307213814	 3.8549233739	-1.8386172027	 0.089167
H	 2.1021960078	 1.6756605362	-0.3652102345	 0.128346
H	 1.2089230962	 1.5131866198	-1.8594789015	 0.130076
