17
gdb 98921	4.18168	0.81485	0.68772	4.9181	79.91	-0.2558	-0.054	0.2018	1596.9257	0.134087	-418.012996	-418.003157	-418.002213	-418.048602	34.674	
C	 0.0925020094	 1.6365627049	 0.0489471941	-0.367463
C	-0.1116996715	 0.1242066176	 0.0376158188	-0.282301
C	-1.568187881	-0.2923353819	-0.0032196374	 0.401295
N	-2.511536101	 0.5521998154	-0.0249488449	-0.497224
N	-1.713242795	-1.7033796552	-0.0124898123	-0.388883
C	-2.8916431984	-2.4156332616	-0.046787259	 0.303959
O	-4.0019537856	-1.9207454669	-0.0745608552	-0.343382
C	-2.679328308	-3.8560418425	-0.0467899219	 0.204306
C	-2.5310347508	-5.0490880898	-0.0475266415	-0.379341
H	 1.1596603597	 1.8744513457	 0.0785758125	 0.106134
H	-0.3458109485	 2.0940109897	-0.8405538348	 0.138048
H	-0.3931040729	 2.0872239383	 0.9170934032	 0.138061
H	 0.3988496211	-0.3251058424	-0.8263221999	 0.116587
H	 0.3517025813	-0.3318420128	 0.9243106423	 0.116613
H	-3.4190328788	 0.0872698549	-0.0508903318	 0.253245
H	-0.866631249	-2.252500425	 0.007963547	 0.262195
H	-2.4157601311	-6.106010288	-0.0485761691	 0.218152
