18
gdb 108293	2.79767	1.33941	1.06002	2.2948	72.11	-0.2471	0.0203	0.2673	1149.9323	0.148014	-439.086919	-439.078498	-439.077553	-439.120266	31.772	
O	 0.0451556018	 1.4733164823	-0.1234784415	-0.416909
C	 0.0620353597	 0.0633410695	 0.0557361944	-0.158017
C	-1.3314385334	-0.5219940868	 0.0656732032	 0.365118
C	-2.263186104	-0.2982215813	 1.2940297072	-0.270988
C	-2.5765826429	-1.8236866324	 1.3327847926	-0.227305
C	-1.653189496	-2.0587422234	 0.0958963221	-0.270725
C	-2.4082842939	-1.810039316	-1.2214685856	 0.431876
O	-3.1120459157	-2.451634724	-1.9521853591	-0.357084
N	-2.0295726455	-0.4719470049	-1.2331281043	-0.386413
H	-0.1889885544	 1.6430348345	-1.0417942594	 0.286087
H	 0.6625255474	-0.4348125813	-0.7196984072	 0.096807
H	 0.5458853471	-0.1143111967	 1.0219220368	 0.112525
H	-1.7291194648	 0.0591680301	 2.1772343826	 0.114216
H	-3.1088477526	 0.367630491	 1.1108504837	 0.104762
H	-2.1984568591	-2.3130803063	 2.2320102613	 0.11518
H	-3.6181068487	-2.1197523607	 1.1930184966	 0.123078
H	-0.9073966029	-2.8509773231	 0.1302856997	 0.096705
H	-2.5540416623	 0.2959065092	-1.6346880231	 0.241086
