19
gdb 33161	3.1354	1.05313	0.84486	3.5114	77.78	-0.2122	0.0339	0.2461	1366.5569	0.159808	-419.243534	-419.234183	-419.233239	-419.278511	33.319	
C	 0.0505874271	 1.5004799149	-0.0314664588	-0.504859
C	 0.0135317451	 0.0079958499	-0.0354661087	 0.333903
N	-0.0117627147	-0.7437465783	-1.1169947852	-0.307664
C	-0.0303696409	-2.0436068109	-0.6684602904	-0.10261
C	-0.0152752839	-2.0781556012	 0.6974824597	-0.138031
N	 0.017153225	-0.7572660773	 1.1049598306	-0.022618
C	-0.0144515521	-0.2954195322	 2.4792154013	-0.175892
C	-1.4383693041	-0.201092225	 3.0312645578	-0.071876
O	-1.3238024896	 0.2466659532	 4.3687362274	-0.413012
H	 0.9519636008	 1.8920076597	 0.4550056127	 0.132619
H	 0.0469539706	 1.8398776811	-1.0678894522	 0.156182
H	-0.8145457211	 1.9407305279	 0.4779742812	 0.128421
H	-0.0467508235	-2.876495505	-1.3549651294	 0.103331
H	-0.0121555303	-2.8859812187	 1.4111826426	 0.120353
H	 0.5679098352	-0.9799570173	 3.1025411597	 0.131853
H	 0.4617604154	 0.6860826275	 2.5422515518	 0.133644
H	-2.0261898816	 0.4941268408	 2.4121745288	 0.100689
H	-1.9198428507	-1.188787803	 2.9653301155	 0.100891
H	-2.2058023666	 0.3152205141	 4.7448519453	 0.294676
