14
gdb 3166	6.10433	2.45847	2.06811	1.7383	57.52	-0.2361	0.0237	0.2598	643.9615	0.114788	-324.573338	-324.567462	-324.566518	-324.603184	22.122	
C	 0.0761538993	 1.5494674428	 0.0307110591	-0.324983
C	 1.3006904282	 0.653379639	-0.0917853272	-0.324988
C	-0.0632092404	 0.0630270321	 0.0518427224	 0.420173
C	-0.5647156762	-0.7830572975	 1.2278883221	-0.254612
N	-1.3929931219	-1.8292272619	 0.6016276708	-0.263822
C	-1.3486853441	-1.5984244413	-0.6433986887	 0.112544
O	-0.6301963373	-0.5520171084	-1.1167811545	-0.2446
H	-0.0871941882	 2.0884912671	 0.9586451972	 0.120545
H	-0.2511989211	 2.0683591361	-0.8632025531	 0.12998
H	 1.7726148922	 0.5873772684	-1.0656543742	 0.12998
H	 1.9792950282	 0.576286407	 0.7519230008	 0.120546
H	 0.2530537521	-1.2442838903	 1.7935364844	 0.119778
H	-1.1686701931	-0.2038227626	 1.9358140272	 0.119779
H	-1.8498141477	-2.1784096204	-1.4102120162	 0.139681
