17
gdb 50818	3.65174	0.99752	0.86273	5.8086	72.15	-0.2419	-0.0201	0.2218	1330.9471	0.136325	-455.14639	-455.137647	-455.136703	-455.18163	30.532	
N	-0.8418560212	-0.4148753367	-1.0773818714	-0.464907
C	-0.0971575879	-0.1465827247	-0.0829995515	 0.325071
N	-0.3560849406	 0.8738898496	 0.8243601606	-0.322009
C	-1.3945947068	 1.7893547647	 0.8506846887	 0.16202
O	-2.2766277958	 1.9096314328	 0.0444889634	-0.259755
C	 1.2019547133	-0.8809692824	 0.2347379847	 0.047153
C	 2.4610994971	-0.4434354219	-0.5583360524	-0.282953
C	 3.0620058734	-0.1520871999	 0.8299238595	-0.070868
O	 1.8143412627	-0.4940587698	 1.4879936329	-0.300719
H	-0.4575071287	-1.2087003768	-1.5936785189	 0.216218
H	 0.3061318636	 0.9039033214	 1.5899924208	 0.264505
H	-1.3009852596	 2.4321951759	 1.7509122663	 0.077222
H	 1.0043660694	-1.9593100937	 0.2097958641	 0.110078
H	 2.948396648	-1.2282519687	-1.1367167426	 0.12576
H	 2.3079777963	 0.4320825708	-1.1901336848	 0.135446
H	 3.8693855643	-0.8226478812	 1.1426915283	 0.119485
H	 3.3558005824	 0.8833793806	 1.0302111424	 0.118254
