17
gdb 17021	4.08484	1.63935	1.36253	1.7068	75.75	-0.2296	0.0267	0.2562	943.4314	0.141916	-326.608684	-326.601284	-326.600339	-326.640017	28.883	
C	-0.0677614708	 1.6649783094	 0.0510872045	-0.446996
C	 0.0259302777	 0.1554646632	-0.0444234183	 0.09128
C	 0.8032373373	-0.5973394745	-1.1567605061	-0.085497
C	 2.0747940774	-0.1633615359	-0.4044537826	-0.180585
N	 1.1467699058	-0.5696463009	 0.7578403273	-0.166031
C	 0.815491533	-1.7891850679	-0.1566527906	-0.158602
C	-0.3801638362	-2.5511295498	 0.1361859984	 0.339148
C	-1.3457123308	-3.2326906725	 0.3595194683	-0.436205
H	 0.8353561822	 2.1957615159	-0.2568754561	 0.120398
H	-0.8910840599	 2.0179104854	-0.5793352862	 0.123185
H	-0.2937901751	 1.9543905421	 1.0826776226	 0.135175
H	-0.9475694658	-0.2791077953	 0.1968953776	 0.090774
H	 0.6098515617	-0.63432224	-2.2347596914	 0.069344
H	 2.9617321775	-0.7971790897	-0.4904083226	 0.101488
H	 2.3549391557	 0.888368878	-0.4005179306	 0.105752
H	 1.6768187425	-2.4589568197	-0.2383442683	 0.100521
H	-2.2024249021	-3.8262053782	 0.5638441541	 0.19685
