16
gdb 42737	2.68099	1.63479	1.25251	5.4475	73.07	-0.2585	-0.0326	0.2259	1004.5606	0.12637	-400.768827	-400.761711	-400.760767	-400.800581	27.578	
O	-0.0260379957	 0.0545679803	-0.003899872	-0.31131
C	-0.0777311535	 1.2476426153	 0.0248841622	 0.442
C	-1.2631902501	 2.1897885097	 0.0422064885	-0.125913
C	-0.7883386596	 3.2595284405	-0.9999048071	-0.251573
C	 0.2928146413	 3.5619209911	 0.0743985714	-0.023608
C	-0.7959270172	 3.217796911	 1.1300098679	-0.245805
C	 1.1348302781	 2.2610192186	 0.0350342874	-0.271846
C	 2.0310938427	 2.071864471	 1.163453467	 0.283067
N	 2.7312949503	 1.9363836195	 2.0735077976	-0.32544
H	-2.2484700472	 1.7308623216	 0.0285899839	 0.097891
H	-0.4676019608	 2.9176120563	-1.98787361	 0.113592
H	-1.5129565504	 4.0696495634	-1.0964857744	 0.122575
H	 0.8463957852	 4.4984746762	 0.0955543511	 0.09662
H	-1.5226844992	 4.0224299031	 1.2531836016	 0.121645
H	-0.4774578648	 2.8392892594	 2.1039907493	 0.133915
H	 1.7010593509	 2.154064113	-0.8964626044	 0.14419
