13
gdb 10447	2.89297	1.73718	1.27785	6.2562	62.57	-0.2952	-0.0068	0.2884	930.5842	0.095674	-357.633729	-357.626136	-357.625192	-357.66628	26.657	
N	-0.1803837135	-1.0516602735	 0.5377509255	-0.284695
C	-0.0739361119	 0.032224397	 0.1540263359	 0.279993
C	 0.0520640753	 1.415614343	-0.3088628179	-0.429936
C	 1.4579416818	 1.9855632572	-0.1109252196	 0.145798
C	 1.5924838916	 3.407136861	 0.3365590312	-0.265353
N	 1.9347375328	 2.3110971117	 1.2417140723	-0.307337
C	 2.4608521276	 1.4273119687	-0.996901907	 0.296768
N	 3.2341252253	 0.995752368	-1.738958013	-0.319127
H	-0.2254017417	 1.4641437693	-1.3674312849	 0.180633
H	-0.667409393	 2.0330681514	 0.239911657	 0.159442
H	 2.4358210601	 3.9949304301	-0.0105768022	 0.157204
H	 0.6708514679	 3.9636501291	 0.4873554218	 0.132739
H	 1.1983495679	 2.136744447	 1.922057461	 0.253871
