16
gdb 46753	2.89272	1.8148	1.41176	4.2787	67.17	-0.2343	0.0315	0.2658	919.5452	0.126658	-437.881934	-437.875113	-437.874169	-437.913304	26.751	
O	-0.0167533783	-0.0450594746	 0.0554021088	-0.38768
C	 0.0019595123	 1.1663447014	 0.0292114596	 0.416351
N	-1.0934353894	 1.9878458485	 0.0219541896	-0.299847
C	-0.8611674962	 3.4243050662	 0.0653125012	-0.18327
C	 0.6794333654	 3.5402922723	 0.0170897676	-0.068574
C	 1.4183573127	 3.7387083584	 1.3611640956	 0.010837
O	 0.9068814765	 2.761950522	 2.2725767387	-0.232839
C	 1.9183951465	 2.3550837921	 1.3449308801	 0.027884
C	 1.2242970303	 2.0781396697	-0.010214949	-0.183261
H	-2.0124788032	 1.5847870778	 0.118968767	 0.250756
H	-1.3349292213	 3.9243477445	-0.7878192449	 0.108075
H	-1.2648277041	 3.8645899565	 0.984906369	 0.120459
H	 1.0450301973	 4.1861210159	-0.7809968062	 0.090329
H	 1.8339114968	 4.6457621989	 1.784786953	 0.110037
H	 2.8158009485	 1.9061259963	 1.7518900722	 0.115559
H	 1.910328926	 1.820633304	-0.8171189823	 0.105181
