17
gdb 84587	2.45146	1.89933	1.23528	1.4484	72.99	-0.2431	-0.0379	0.2052	1005.6209	0.136848	-418.013313	-418.00563	-418.004686	-418.045787	29.043	
C	 0.1176939006	 1.5761130298	-0.2421308308	-0.385928
C	 0.0259479578	 0.0676787984	-0.021306211	 0.018557
N	 0.6066446059	-0.6811144147	-1.1531443269	-0.223699
C	 1.4353425408	-1.5269384214	-0.6899663432	 0.027845
N	 1.5814404235	-1.6436225865	 0.707735386	-0.108537
C	 2.8685669938	-1.1186603487	 1.2741024229	-0.309367
C	 2.0941759621	 0.1388133357	 1.7360521558	 0.396925
O	 2.4001312341	 1.1629030823	 2.2654406358	-0.280679
C	 0.7792576339	-0.485799694	 1.2286390815	-0.147878
H	 1.1581503976	 1.8954678896	-0.3470401421	 0.126869
H	-0.4189834559	 1.8496126447	-1.1539696509	 0.131369
H	-0.3206138805	 2.1200816723	 0.5999040292	 0.12471
H	-1.0312082978	-0.2125041368	 0.0593327539	 0.098913
H	 2.028995405	-2.1821158466	-1.3226172121	 0.129651
H	 3.2589605325	-1.7258754167	 2.0963097349	 0.144459
H	 3.6632225605	-0.945101652	 0.5404878171	 0.14076
H	 0.1041098562	-0.7520325654	 2.0467447896	 0.116032
