18
gdb 16560	3.14174	2.5512	2.0468	1.4144	70.81	-0.2375	0.021	0.2586	758.6356	0.157803	-347.825305	-347.819185	-347.818241	-347.855227	25.382	
C	 0.0014558794	 1.5774361634	 0.046699151	-0.231828
C	 1.5020396879	 1.9568909477	-0.0888727198	-0.2086
C	 2.1808007241	 0.585136179	 0.1209756248	 0.038108
O	 1.2895322443	-0.3097379725	-0.546551654	-0.259827
C	 0.0161264033	 0.0216129046	 0.0165455342	 0.091797
C	-0.0724544176	-0.60574466	 1.4188466002	-0.259373
C	 1.1971328472	-0.3254508699	 2.1870685459	-0.058192
C	 2.2503385999	 0.2336747389	 1.5930033229	-0.059289
H	-0.4362670537	 1.956620738	 0.9732888586	 0.103511
H	-0.5845402045	 1.9795022711	-0.7826622807	 0.104958
H	 1.7254999896	 2.3332264228	-1.0911081618	 0.101771
H	 1.819412398	 2.7073306845	 0.6389289434	 0.100013
H	 3.1572457802	 0.499951298	-0.3623633403	 0.077651
H	-0.7485432546	-0.3934472498	-0.6446119108	 0.074033
H	-0.9433674903	-0.2055412453	 1.9549853007	 0.101275
H	-0.2343568686	-1.6896392541	 1.3398183427	 0.110077
H	 1.2277124909	-0.6019315854	 3.2378503111	 0.08765
H	 3.1598689345	 0.4683671689	 2.1385085817	 0.086266
