20
gdb 117244	3.08173	0.87964	0.80582	3.6795	78.37	-0.2392	-0.022	0.2172	1538.0957	0.168518	-440.259546	-440.249289	-440.248345	-440.296423	35.676	
C	 0.883172989	 1.1462332158	 0.2303158993	-0.229302
O	 0.9493699936	-0.0701489893	-0.4790793784	-0.230961
C	-0.0858666992	-0.9597428779	-0.1414915062	-0.144731
C	-0.0024196646	-2.2719967115	-0.9275707725	 0.349035
O	-0.8163087077	-3.13671113	-0.6938710568	-0.313943
C	 1.0677441247	-2.3875884982	-1.9653156689	-0.15042
N	 1.4566071056	-3.7531476206	-2.3770255738	-0.314214
C	 0.7702949909	-2.9168686846	-3.3500418224	 0.014162
C	-0.600155068	-3.3569748284	-3.7997273047	-0.404367
H	-0.0555330311	 1.6840820136	 0.0262068385	 0.110823
H	 0.9590351867	 0.9865601839	 1.3168962578	 0.111644
H	 1.7237723988	 1.7616720186	-0.0979642315	 0.131511
H	-0.0659250769	-1.2168459853	 0.9303840427	 0.121315
H	-1.0766790188	-0.517710298	-0.3415526436	 0.118972
H	 1.8372994873	-1.627335428	-1.9042001875	 0.109876
H	 2.4580317299	-3.7701374791	-2.5523902206	 0.235902
H	 1.3797764929	-2.4554065864	-4.1276409854	 0.089396
H	-1.157413559	-3.7852537843	-2.9660476317	 0.165057
H	-1.1626218004	-2.5129803625	-4.2133381343	 0.111312
H	-0.5062913539	-4.1156784577	-4.5841647801	 0.118934
