18
gdb 33903	3.79863	1.27074	1.15306	4.5342	80.82	-0.2548	0.015	0.2698	1098.3419	0.149523	-364.778666	-364.771372	-364.770427	-364.810275	29.31	
N	 0.0831939231	-1.1665255862	-0.0501976709	-0.35545
C	 0.0488880182	-0.0087207946	-0.0267612489	 0.173147
C	-0.0019899974	 1.413378152	 0.0316183745	 0.219455
C	 0.2884845184	 2.2729436287	-1.1799519735	-0.336695
C	 1.1683935815	 2.4380363846	 0.0151138153	-0.103799
C	 0.4980275597	 3.2302906057	 1.1590765325	-0.013406
C	-0.495937804	 4.3774356358	 0.8049944775	-0.246406
C	-1.6785318283	 3.3506630402	 0.8162685697	-0.247256
C	-0.6791226819	 2.213952456	 1.178701297	-0.076856
H	 0.736654175	 1.7348682794	-2.0082050211	 0.140203
H	-0.4191086986	 3.0371499284	-1.4823874538	 0.127761
H	 2.2261551013	 2.2113689492	-0.0382830482	 0.112749
H	 1.1328740228	 3.3647357924	 2.0338541178	 0.081679
H	-0.5727386322	 5.1315898267	 1.5910852835	 0.108624
H	-0.3115007843	 4.8928686186	-0.1410247199	 0.106367
H	-2.4091588316	 3.5397548666	 1.6055852164	 0.110134
H	-2.2227103463	 3.2262243962	-0.1232874165	 0.109776
H	-0.8886237954	 1.6099045504	 2.0598911484	 0.089973
