20
gdb 84844	2.18734	1.89994	1.26233	1.9702	78.84	-0.2411	0.0267	0.2678	1066.8724	0.171444	-403.154781	-403.146309	-403.145365	-403.187503	33.009	
C	 0.2687477654	 1.5530683355	-0.1512817057	-0.381558
C	 0.0227100399	 0.0523240327	 0.0439248588	-0.022311
N	 0.3003573838	-0.6350181746	-1.216901566	-0.27779
C	 0.9289761181	-1.728719572	-1.2308575399	 0.115566
O	 1.480614195	-2.4290049858	-0.208802589	-0.224322
C	 1.4633561816	-1.8180244805	 1.061704038	 0.067256
C	 2.256619091	-0.5564328151	 1.2691612134	-0.360783
C	 0.7367023794	-0.5216701803	 1.2711707618	 0.281851
C	 0.0335574941	-0.3127675947	 2.5974880045	-0.470935
H	 1.3269081273	 1.7504421478	-0.3479879747	 0.116868
H	-0.3073298661	 1.9126156112	-1.0075355975	 0.125811
H	-0.0274151017	 2.122018891	 0.7353191473	 0.108563
H	-1.0543425168	-0.0832751285	 0.2216058509	 0.088424
H	 1.1026286433	-2.2589016372	-2.1653853194	 0.123238
H	 1.4469257586	-2.5816494007	 1.8311841147	 0.105997
H	 2.7829955612	-0.4238159236	 2.2082835932	 0.115
H	 2.7746185005	-0.1626559517	 0.400725139	 0.127825
H	-0.0494080203	 0.7520803079	 2.8416487118	 0.125023
H	-0.9787540098	-0.7322991068	 2.5785619453	 0.122229
H	 0.5798734254	-0.7935871344	 3.4155318734	 0.114048
