20
gdb 89807	3.14172	1.34924	1.12744	2.2503	78.35	-0.2329	0.0721	0.3051	1136.6183	0.172927	-403.118265	-403.110386	-403.109441	-403.150478	31.989	
O	-0.0012345695	 1.4105077122	-0.0907324129	-0.444176
C	 0.0192359307	-0.0036706897	-0.1035642008	 0.157936
C	 0.7810436841	-0.6294869165	 1.1027980572	-0.350372
C	 0.0641265475	-1.9419567581	 1.4134555563	 0.414458
C	 0.7334089031	-3.2816967789	 1.2203666399	-0.319369
C	 0.3992440637	-2.788679535	 2.6090760174	-0.317392
C	-1.3434705127	-1.7586054257	 0.919192376	-0.12661
N	-1.9448355291	-0.460732821	 1.322821402	-0.362355
C	-1.3674622197	-0.6285967451	-0.034119766	-0.078629
H	-0.5455083887	 1.6569820733	 0.6677962682	 0.285216
H	 0.4971623596	-0.283196768	-1.048700128	 0.087856
H	 1.8453649504	-0.7625408919	 0.89333075	 0.098904
H	 0.6948544368	 0.0581348403	 1.9498883994	 0.110798
H	 0.1458756032	-4.0992672475	 0.8136412825	 0.107488
H	 1.7745452586	-3.2899984165	 0.9145784975	 0.111867
H	 1.2154675051	-2.4650872372	 3.246744972	 0.11254
H	-0.4136197361	-3.2715617169	 3.1417764973	 0.109785
H	-1.9944665404	-2.6209217828	 0.8094847065	 0.083577
H	-2.9574001892	-0.5346846405	 1.2625227919	 0.231973
H	-2.023455897	-0.5939573243	-0.8974666163	 0.086507
