21
gdb 73038	3.19311	1.03358	0.92044	1.0286	88.93	-0.2408	0.0613	0.3021	1366.1859	0.181385	-349.897291	-349.888025	-349.887081	-349.931458	35.611	
C	-0.1851381112	 1.5673690991	 0.112771487	-0.496033
C	-0.0425220768	 0.0729684076	 0.0406698978	 0.31971
C	-1.2329499576	-0.9031780696	 0.0587222829	-0.286332
C	-0.4117937123	-1.882553314	 0.9562624484	-0.229301
C	 0.7653469353	-0.9024854087	 0.9229918487	-0.099066
C	 1.1956727994	-0.6031160963	-0.4880158275	-0.040453
C	 1.2393279279	-1.6150561435	-1.629875396	-0.393952
C	 2.4436551793	-2.4396248589	-1.6010027838	 0.317338
C	 3.4462355177	-3.1015649024	-1.5581882339	-0.459601
H	 0.7784755844	 2.0492729581	 0.3084789504	 0.117574
H	-0.5733525937	 1.9777921268	-0.8280171467	 0.117967
H	-0.876370628	 1.8640474723	 0.9104526101	 0.114763
H	-2.092486763	-0.4865496961	 0.590175494	 0.100299
H	-1.5833685541	-1.2747921799	-0.910385258	 0.092302
H	-0.8461899522	-1.9859793995	 1.9526952849	 0.102574
H	-0.2216509914	-2.886260842	 0.5621459105	 0.101631
H	 1.415430924	-0.6832811812	 1.762741572	 0.080113
H	 2.0468775035	 0.0745564157	-0.5134281184	 0.090266
H	 0.35804265	-2.2648665206	-1.6059689771	 0.130777
H	 1.1894553361	-1.079693245	-2.5874526686	 0.127269
H	 4.3266269528	-3.6938581817	-1.5268489368	 0.192156
