18
gdb 125748	2.0843	1.6121	0.95424	1.9826	75.23	-0.2435	-0.0052	0.2383	1226.9371	0.146345	-439.093566	-439.084097	-439.083153	-439.128234	33.654	
C	-0.0465386762	 1.4639225321	-0.1320375885	-0.504208
C	-0.1299491555	-0.0194452852	-0.0496536443	 0.371481
C	-1.1783319101	-0.8954520482	-0.0299953008	-0.055954
C	-2.6456813469	-0.5895819537	-0.1077805769	-0.186943
O	-2.9734395444	 0.3683791278	-1.1108466151	-0.405323
C	-0.5429155853	-2.1738758077	 0.0712732972	 0.323958
C	-1.1770531084	-3.5271022734	 0.1378574155	-0.499169
N	 0.7635867831	-2.0637237525	 0.1072516951	-0.213502
O	 1.0286098844	-0.6957203366	 0.0262476362	-0.215187
H	 0.7100672437	 1.7689561053	-0.8613289773	 0.14677
H	-1.0160533582	 1.8650221693	-0.4297513571	 0.160634
H	 0.2367183311	 1.8958821335	 0.8345261451	 0.147018
H	-3.2058729281	-1.5251595127	-0.2551327718	 0.099367
H	-3.0104994657	-0.1508277205	 0.8277959425	 0.125306
H	-2.6119585985	 0.0461249709	-1.9436230111	 0.282887
H	-1.8186817999	-3.7076732661	-0.7313544683	 0.133204
H	-0.4038750218	-4.2971193643	 0.1648911104	 0.152053
H	-1.8013861532	-3.630022138	 1.0316260691	 0.137608
