18
gdb 45046	2.55176	1.81207	1.24786	2.2237	76.1	-0.2458	-0.0293	0.2165	1019.8127	0.149282	-401.944014	-401.936555	-401.935611	-401.976015	29.579	
O	 0.0410583167	 0.2096565421	-0.7566847349	-0.331691
C	-0.0146463806	 1.2632896711	-0.1691946468	 0.332728
C	-1.2751814504	 1.9207674068	 0.406511049	-0.351206
C	-0.8217907887	 3.2524605243	 0.982971014	-0.048684
C	 0.1420983635	 3.226561932	 2.1397063792	-0.291833
C	 0.673988488	 3.42013546	 0.7401110465	-0.137402
C	 1.1629349478	 2.1853392925	 0.047456675	 0.256408
C	 2.5106751888	 1.560511892	 0.1997520195	-0.270558
N	 2.1641476846	 2.2654521152	-1.0319802236	-0.359615
H	-1.9919618756	 2.0500726926	-0.4123992137	 0.137888
H	-1.7474663538	 1.2510971087	 1.1337648135	 0.134707
H	-1.4857275961	 4.1032377854	 0.88937478	 0.094845
H	 0.1525643387	 4.0847462958	 2.8023994683	 0.117259
H	 0.3352549242	 2.2790214719	 2.6361897806	 0.112579
H	 1.1032052835	 4.371151199	 0.4508836383	 0.104414
H	 3.2416929061	 2.060880907	 0.8286824292	 0.125235
H	 2.5580725624	 0.4750059865	 0.1797885267	 0.130146
H	 1.9105220608	 1.576338487	-1.7408440708	 0.24478
