18
gdb 100227	2.00617	1.28819	1.18905	4.7031	77.78	-0.2751	0.0185	0.2936	1200.1802	0.143501	-401.917904	-401.907493	-401.906549	-401.95334	37.006	
C	 0.0103752088	 1.3563128544	-0.1445862566	-0.249531
O	 0.0088252079	-0.0469925623	 0.0487631836	-0.252825
C	 0.7063125065	-0.5473830378	 1.1826874081	 0.153748
C	-0.0087378935	-0.1802788637	 2.4975259762	-0.426274
C	 0.658156729	-2.0870933729	 0.9941256857	-0.362768
C	 1.3098856827	-2.5407438055	-0.2317001824	 0.284584
N	 1.8243771294	-2.9290714055	-1.1898752952	-0.310711
C	 2.1043127826	-0.088456541	 1.222464774	 0.3555
C	 3.2450000626	 0.2856461388	 1.2722590657	-0.487228
H	 1.0299543372	 1.757415088	-0.1886399016	 0.128443
H	-0.4843200052	 1.5281896205	-1.102535874	 0.138307
H	-0.548343913	 1.885294037	 0.6392239211	 0.109344
H	-1.0543770157	-0.4972565487	 2.4464151605	 0.128268
H	 0.4747810754	-0.667948619	 3.3479778551	 0.13185
H	 0.0254978899	 0.8971814768	 2.6697113566	 0.136233
H	 1.1290318736	-2.5765467477	 1.8514704354	 0.155482
H	-0.3940259673	-2.3880602412	 0.9662928323	 0.157953
H	 4.2577332088	 0.6063213897	 1.3009017556	 0.209626
