18
gdb 52284	4.08405	0.73832	0.65431	2.6688	76.03	-0.2473	-0.0322	0.2151	1655.2542	0.146322	-439.114775	-439.105377	-439.104433	-439.151253	31.973	
O	-0.8939924977	 0.9204633266	 0.5152410414	-0.22977
C	 0.027572745	 0.9849639473	-0.2559951527	 0.156718
C	 1.2489663995	 1.8579867389	-0.0716535996	-0.278068
C	 1.3803422314	 2.8854832214	-1.2168520146	-0.186448
N	 2.5989814962	 3.649494495	-1.1571804279	-0.068504
C	 3.0709364624	 4.7124862042	-0.2621103426	-0.17519
C	 4.3516209431	 4.7894307253	-1.1422791201	-0.369874
C	 3.6993007929	 3.6694274201	-1.9854395053	 0.404989
O	 3.9722005461	 3.0335585364	-2.9692152308	-0.367791
H	 0.0302630183	 0.3869018615	-1.1973657055	 0.080923
H	 1.1840239846	 2.3512121905	 0.9019626388	 0.124337
H	 2.137404594	 1.2130940888	-0.0850080601	 0.132877
H	 1.3892291688	 2.3734944947	-2.18526914	 0.145946
H	 0.5149933632	 3.5610129719	-1.2061023221	 0.124922
H	 2.4414656813	 5.6091647401	-0.2709597644	 0.115463
H	 3.2309911295	 4.3919756279	 0.7725670718	 0.116229
H	 4.4969624177	 5.7276852364	-1.680078166	 0.137164
H	 5.2817432538	 4.500452673	-0.6502933805	 0.136077
