13
gdb 55627	2.32246	1.15665	0.9053	4.1658	65.84	-0.2911	-0.0195	0.2716	1264.3241	0.086612	-452.749741	-452.740394	-452.73945	-452.785225	32.187	
N	-0.1511388317	 1.2851306548	 0.0661933771	-0.563592
C	 0.0274018783	-0.0514668806	 0.1742096163	 0.531639
O	 1.0045045108	-0.6128032457	 0.6058257041	-0.385779
O	-1.1072668486	-0.6931610265	-0.2700406352	-0.258326
C	-1.0610557309	-2.1234951268	-0.1867402274	-0.19204
C	-2.1362696789	-2.620964858	 0.6653036181	 0.329897
C	-3.0037714405	-3.0428202671	 1.3781438053	-0.416849
C	-1.153230481	-2.6732557271	-1.5526376058	 0.297779
N	-1.2082811895	-3.1133213103	-2.6183282578	-0.316035
H	 0.6408655698	 1.8776828861	 0.2409821271	 0.281425
H	-0.9487027477	 1.6518791174	-0.4229588478	 0.278696
H	-0.0837903767	-2.3979333628	 0.2327676223	 0.194619
H	-3.7744195933	-3.4167367932	 2.0071463536	 0.218565
