12
gdb 120	27.37372	2.3551	2.22921	2.9091	46.78	-0.2481	0.0251	0.2732	567.546	0.10111	-248.395289	-248.388824	-248.38788	-248.425185	20.343	
C	-0.0427161263	 1.3783724852	-0.0413665352	-0.248007
O	-0.0025661799	-0.0075014488	 0.2719883697	-0.190842
C	-1.154189948	-0.6809350117	 0.0756697177	 0.138276
N	-1.2288073421	-1.9113705747	 0.3209418351	-0.201018
C	-2.499611701	-2.5619701314	 0.0842258873	-0.313962
H	 0.9528603339	 1.770341776	 0.1699916785	 0.14614
H	-0.2756936038	 1.5460600857	-1.1002162888	 0.125916
H	-0.7755142755	 1.910931561	 0.5774623226	 0.125913
H	-1.9842728277	-0.0634606521	-0.3055756777	 0.06808
H	-2.8589480343	-3.0176157892	 1.0141188492	 0.127772
H	-3.2859513572	-1.8887179308	-0.2961119369	 0.09396
H	-2.367579278	-3.376583299	-0.6371653015	 0.127772
