21
gdb 104998	2.3507	1.247	1.03382	1.3155	83.85	-0.266	0.0329	0.2989	1278.5918	0.179751	-387.041409	-387.031152	-387.030208	-387.076608	38.487	
C	 0.6243050198	-0.0639601309	 1.374700862	-0.386295
C	-0.0085804222	-0.0612156142	-0.0225822225	-0.247372
C	-1.3798406709	-0.7239111419	-0.0917546379	 0.3433
C	-1.751931861	-1.4436147317	-1.3696492252	-0.32792
C	-1.4297777761	-2.2306552822	-0.1223820874	-0.306977
C	-2.4787432236	 0.0597799575	 0.6349383589	-0.135018
O	-2.6102580115	 1.3757716443	 0.095544538	-0.410949
C	-3.7772086621	-0.6250435614	 0.6631927611	 0.303865
C	-4.8555809872	-1.1572862655	 0.6650285455	-0.446291
H	 1.6302950974	 0.3656993534	 1.3434452735	 0.113081
H	 0.0431021558	 0.5283102691	 2.0886712546	 0.122837
H	 0.7049227069	-1.0813431945	 1.7718679472	 0.116408
H	-0.0959915629	 0.9688697645	-0.3846398044	 0.109683
H	 0.6588896462	-0.5831065733	-0.7182262016	 0.088439
H	-2.7892430562	-1.428488647	-1.6870584086	 0.118026
H	-1.0318124549	-1.4382793164	-2.1808687467	 0.109629
H	-0.4826993542	-2.7585846885	-0.0786367196	 0.108118
H	-2.2503133069	-2.7336714997	 0.3755227729	 0.124077
H	-2.1635088305	 0.2271994147	 1.6717061077	 0.120335
H	-2.892715069	 1.275498771	-0.8212318372	 0.283638
H	-5.8098982467	-1.6236313374	 0.6810180896	 0.199387
