20
gdb 114564	2.62158	1.20032	0.96073	1.209	87.58	-0.2215	0.0313	0.2527	1309.1007	0.169963	-365.941959	-365.932833	-365.931889	-365.975743	34.944	
C	 0.0511186368	 1.526193379	 0.1658128367	-0.382785
C	-0.1348602291	 0.0281253476	-0.0960972389	-0.196602
C	 0.7081389257	-0.4805744161	-1.25820931	-0.038599
C	 2.274131799	-0.5577637591	-1.1038401489	-0.239552
C	 2.2000829327	-2.0564283242	-1.4001075109	-0.120765
N	 1.3496909381	-2.6462352955	-0.3510631845	-0.372306
C	 0.7050464451	-2.001921878	-1.5377987668	 0.215789
C	-0.1727198452	-2.7214693791	-2.3909819597	 0.175763
C	-0.9358275436	-3.3064365126	-3.1161680972	-0.418746
H	 1.0930430394	 1.7631821085	 0.4077650508	 0.116469
H	-0.2280235121	 2.1224533661	-0.7104091905	 0.111027
H	-0.5668527535	 1.8598007906	 1.005109978	 0.113147
H	 0.1202949935	-0.5473828117	 0.7997308997	 0.117205
H	-1.1915115451	-0.1784990673	-0.3109655157	 0.098546
H	 0.4552871411	 0.0548855485	-2.1787437109	 0.078332
H	 2.8031275748	 0.0144049617	-1.8680626913	 0.105094
H	 2.6748027187	-0.3119882531	-0.1170426624	 0.109785
H	 2.9059185752	-2.6652090452	-1.951973949	 0.104897
H	 1.312099048	-3.6523277445	-0.5151750743	 0.235744
H	-1.6040775993	-3.8252589456	-3.7577441543	 0.187557
