20
gdb 18477	3.48261	1.49787	1.3166	1.5052	75.05	-0.2307	0.0873	0.318	1048.4853	0.176497	-348.966834	-348.958506	-348.957561	-348.999508	31.46	
C	-0.3755619772	 1.6933746157	 0.2434511938	-0.381216
C	-0.1603388129	 0.1946668487	-0.0022607542	-0.21016
C	 0.4933839482	-0.479512564	 1.1882437448	-0.000941
C	-0.2605227156	-1.1891241552	 2.2669543181	 0.076839
O	-1.3787652578	-1.909408558	 1.7343299336	-0.305492
C	-0.4729980811	-2.8313363318	 1.051876699	 0.159645
C	-0.8480859487	-3.1556436439	-0.3805505025	-0.413939
C	 0.7322539792	-1.9666367067	 1.4245935695	-0.202854
H	 0.5753627523	 2.2098287159	 0.4168591769	 0.110382
H	-0.8606204412	 2.1690521439	-0.6144388333	 0.110795
H	-1.0085887919	 1.8593764796	 1.1213886918	 0.12115
H	-1.1252049206	-0.2811074204	-0.1958657549	 0.118665
H	 0.4558313276	 0.0531436118	-0.8992366268	 0.092663
H	 1.3309951044	 0.0848055102	 1.6007203982	 0.083298
H	-0.2871933959	-0.9310522631	 3.3198909447	 0.097425
H	-0.4412203351	-3.761371915	 1.6371830209	 0.081397
H	-1.8527146698	-3.5901359576	-0.4149842063	 0.126459
H	-0.827591904	-2.2771616273	-1.0265376742	 0.126539
H	-0.1483282575	-3.8965716721	-0.7826227867	 0.117245
H	 1.7091975977	-2.3544248306	 1.6825156278	 0.0921
