14
gdb 16125	4.43593	1.68699	1.43893	3.7332	62.06	-0.2462	-0.0042	0.242	854.2536	0.108858	-378.702999	-378.696177	-378.695233	-378.734344	25.014	
N	 0.0112253642	-1.1548804811	 0.1933683387	-0.329913
C	 0.0462450113	-0.004815249	 0.0802676505	 0.220263
C	 0.053565081	 1.4238217612	-0.1067402599	 0.282416
C	-0.9441017957	 2.1067051614	-1.0492266497	-0.244481
N	-0.2082961319	 3.1964569606	-1.7188540937	-0.301616
C	 1.0418437426	 3.456836486	-0.9702296442	-0.193138
C	 1.2660068528	 2.2645191039	-0.0492239947	-0.034901
O	 0.3451099872	 2.2283967417	 1.0461311016	-0.271512
H	-1.3610453743	 1.4092420636	-1.7795124815	 0.128452
H	-1.7682146871	 2.5035034996	-0.4454186778	 0.137704
H	 0.037854923	 2.8881962938	-2.6514573995	 0.229831
H	 1.8801012048	 3.5996575754	-1.6576470595	 0.116965
H	 0.9471466283	 4.3633168458	-0.3602771575	 0.133747
H	 2.2547290839	 1.863626417	 0.1566051871	 0.126183
