19
gdb 76393	2.51693	1.18557	1.13389	1.4153	73.24	-0.2108	0.0248	0.2356	1196.7215	0.159966	-452.519871	-452.509474	-452.50853	-452.555275	38.145	
N	 0.6146716668	 0.8937775293	 0.3930128872	-0.515539
C	-0.0214158656	-0.3912318833	 0.3830646999	-0.0146
C	-1.0920809755	-0.695751137	 1.3901708469	-0.054416
N	-1.5772069207	 0.2857970324	 2.3274553251	-0.537941
C	-1.4938707662	-0.5734102898	-0.0824120726	 0.143287
N	-2.1696031683	 0.6495788719	-0.4336915357	-0.564453
C	-1.8311711915	-1.7605511242	-0.94093674	 0.327093
N	-1.3495560576	-2.9845366728	-0.5486368895	-0.542959
O	-2.4434243837	-1.6184608316	-1.9872317406	-0.376258
H	 1.1448070881	 1.0211604397	-0.4639194821	 0.234542
H	-0.099434341	 1.6172511181	 0.3970599265	 0.239297
H	 0.6495942953	-1.2026653277	 0.119253545	 0.09938
H	-1.0958227494	-1.7031789441	 1.8052903099	 0.075786
H	-0.7944928873	 0.6777870159	 2.8444321961	 0.239044
H	-2.0024580487	 1.0541548578	 1.8172901729	 0.23963
H	-2.082699335	 0.7766154225	-1.4392935243	 0.246198
H	-3.1687646565	 0.5333151365	-0.2782280167	 0.242624
H	-1.1079367987	-3.1642369647	 0.4109992514	 0.2592
H	-1.6703270347	-3.7714909092	-1.0908375694	 0.260086
