14
gdb 27222	3.56887	1.62187	1.12183	3.1491	71.05	-0.1905	-0.0065	0.184	996.4943	0.104227	-432.890482	-432.883466	-432.882522	-432.921705	27.161	
N	-0.0110450409	 1.4440037373	 0.0253069641	-0.604874
C	-0.0954846914	 0.0543437483	-0.0033234326	 0.166926
C	-1.1351730443	-0.8217669908	 0.0198728516	 0.279614
N	-2.5074667009	-0.9779885284	 0.0736715001	-0.449399
C	-2.7296986302	-2.3462995041	 0.0512502226	 0.011319
N	-1.657850348	-3.0853775718	-0.0106403414	-0.351506
C	-0.6199863048	-2.1558487174	-0.0325146156	 0.228642
C	 0.7398355665	-2.0378307942	-0.0866404274	-0.13602
O	 1.0614378021	-0.7127453114	-0.0694325357	-0.17637
H	 0.4990362923	 1.7878220286	 0.8335439742	 0.245893
H	 0.431243408	 1.8256870816	-0.8055561765	 0.245894
H	-3.2078264854	-0.259758834	 0.1192716298	 0.269677
H	-3.7399976815	-2.7331713864	 0.0845204785	 0.133102
H	 1.5637314084	-2.7283855471	-0.1370991117	 0.137103
