15
gdb 69758	3.19277	1.56939	1.32415	5.3534	64.28	-0.2648	0.003	0.2678	968.6316	0.111651	-457.735948	-457.728743	-457.727799	-457.767557	27.696	
C	-0.0686621097	 1.5464019322	 0.0787139839	-0.507373
C	 0.1459112311	 0.072595476	-0.0019773546	 0.424995
O	-0.7792243153	-0.8045683668	 0.6427495964	-0.259395
C	 0.6062301848	-0.9507051465	 0.962861154	-0.08099
C	 1.2566795992	-1.779672482	-0.1812584403	 0.094879
O	 0.3970256949	-2.7942861603	-0.772077297	-0.248948
C	-0.0970309932	-1.9009734885	-1.7081728078	 0.475696
O	-0.8812267285	-2.1171600251	-2.5700668644	-0.32108
C	 0.7644322582	-0.7332831635	-1.1950775934	-0.345249
H	 0.842328393	 2.0881426784	-0.1936838395	 0.131939
H	-0.865348517	 1.8560882687	-0.6063196416	 0.14818
H	-0.3595107134	 1.8299313267	 1.0934506119	 0.14388
H	 0.8885237426	-0.8918207966	 2.0075869873	 0.117259
H	 2.2891049511	-2.1043673859	-0.074640467	 0.109006
H	 1.4143847721	-0.2105037467	-1.8924470079	 0.117202
