20
gdb 85933	2.73021	1.32986	1.12484	4.7686	75.97	-0.243	0.0589	0.3019	1190.4536	0.170114	-440.355035	-440.345551	-440.344606	-440.389165	34.842	
C	-0.0393361164	 1.4013794889	 0.1234669183	-0.338388
N	-0.0367685275	-0.0418814558	 0.1140027158	-0.130503
C	-1.205131941	-0.8327406306	-0.1909352427	-0.227569
C	-0.6322743989	-2.2723188687	-0.1268569564	 0.367356
C	-0.8771688513	-2.919961257	 1.2368427474	-0.417372
C	-1.0986279998	-3.155391019	-1.276766559	-0.429203
O	 0.7975113511	-2.070005421	-0.2707026144	-0.276961
C	 1.1219060434	-0.7601121131	-0.0692314072	 0.472934
O	 2.2514935451	-0.3481421589	-0.0555817896	-0.409078
H	 0.9899872665	 1.7334093244	 0.2667189641	 0.168355
H	-0.4182049804	 1.8126031005	-0.8230057369	 0.119193
H	-0.6612999077	 1.7855328543	 0.9396276282	 0.12398
H	-2.0053850016	-0.6802497543	 0.5422436129	 0.113187
H	-1.6096096821	-0.5942287807	-1.1872415854	 0.100942
H	-1.9419891239	-3.1320601338	 1.376961627	 0.116909
H	-0.321564723	-3.8581394034	 1.3137943079	 0.133337
H	-0.5469592486	-2.2568458305	 2.0417213775	 0.130425
H	-0.8408558958	-2.7026524644	-2.2378788305	 0.128408
H	-0.6256296703	-4.1395854119	-1.2211653003	 0.133591
H	-2.1841062079	-3.292451045	-1.2359171564	 0.120457
