19
gdb 78880	2.56787	2.0906	1.4602	1.5814	76.56	-0.2184	0.078	0.2964	942.2816	0.160236	-385.846835	-385.839441	-385.838497	-385.878083	30.653	
C	-0.0274080733	 1.4613417876	 0.0770646891	-0.500443
C	 0.0297166252	-0.0429951759	 0.0650007961	 0.291978
C	-1.2040586256	-0.8919072086	 0.2688707686	-0.133686
C	-0.671440976	-2.3387565143	 0.4707458563	-0.092643
C	-0.0184899094	-2.2892184384	-0.8937886498	-0.104785
C	 0.8299647621	-2.2048152376	 0.3687848724	-0.121092
C	 1.2557260022	-0.7696695661	 0.6079212732	 0.080681
O	 2.4648699361	-0.400754792	-0.0359645747	-0.437614
C	-0.5459015161	-0.845811691	-1.0976856777	-0.139115
H	 0.8646969236	 1.8784445529	-0.4013286666	 0.127809
H	-0.9076950722	 1.8347359789	-0.4555459504	 0.113553
H	-0.0681027566	 1.8491666016	 1.1014350774	 0.118275
H	-2.1644316133	-0.5058884794	 0.5835373075	 0.084527
H	-1.1825335939	-3.15467609	 0.9627819471	 0.087902
H	 0.0705692825	-3.0640533767	-1.6426537769	 0.086892
H	 1.4696652585	-3.0342415576	 0.6445862575	 0.089077
H	 1.4157566942	-0.5558727018	 1.6705480608	 0.085898
H	 2.3636742356	-0.6262952052	-0.9683557715	 0.279367
H	-0.9057199339	-0.4061589865	-2.0182146283	 0.083419
