23
gdb 64419	2.30285	1.61015	1.25807	1.1717	84.41	-0.2564	0.0708	0.3272	1134.3483	0.207131	-388.30084	-388.2921	-388.291156	-388.333381	35.843	
C	-0.0623087249	 1.5466040098	-0.0006440198	-0.426138
C	 0.0281066843	 0.0162357294	-0.0112000782	 0.341581
O	-1.293985714	-0.5386962427	 0.1110695605	-0.470281
C	 0.676413382	-0.4999027605	-1.3130538157	-0.233271
C	 0.8773044917	-2.0173365105	-1.2675791625	-0.19549
C	 1.8961478252	-2.4170904212	-0.1887815983	-0.219948
C	 1.6628636331	-1.7090954162	 1.1473732414	-0.034055
C	 2.2463708665	-0.3356466571	 1.3859521862	-0.308072
C	 0.7588031591	-0.4958940401	 1.2204265823	 0.011572
H	 0.9309079964	 2.0039572725	-0.0315641927	 0.115819
H	-0.6254484151	 1.90819958	-0.8703479861	 0.096491
H	-0.5744451906	 1.8886490907	 0.9035158017	 0.118585
H	-1.8215534536	-0.190636815	-0.6161766756	 0.271581
H	 0.0278599795	-0.2177599056	-2.1528300572	 0.07806
H	 1.6338164302	 0.0093797135	-1.4838969602	 0.091735
H	-0.0910098767	-2.4790318116	-1.0476988325	 0.110422
H	 1.2025496231	-2.3910922786	-2.2444904873	 0.082919
H	 1.8529522346	-3.5003212806	-0.0350774978	 0.096287
H	 2.9112766487	-2.203384656	-0.5481751576	 0.093984
H	 1.6363704497	-2.3627866341	 2.0135260153	 0.081639
H	 2.6279421774	-0.0895466916	 2.3711373956	 0.105561
H	 2.8123500452	 0.1110615914	 0.573396577	 0.104728
H	 0.1580972881	-0.388773446	 2.1186891615	 0.086289
