22
gdb 58640	2.5554	1.30809	1.08181	0.9947	82.02	-0.2216	0.0717	0.2933	1231.9299	0.192563	-404.297205	-404.287539	-404.286595	-404.331423	37.201	
C	 0.1654876812	 1.196042084	-0.1687275007	-0.406476
C	-0.0132373937	-0.3100494677	 0.012857232	 0.078044
O	 0.8960135375	-0.8254189334	 0.9805613979	-0.432865
C	-1.4669733798	-0.6881577889	 0.331929991	 0.343016
C	-1.7164009377	-1.9330173495	 1.1503388708	-0.329336
C	-1.961866968	-0.5591432945	 1.7423061572	-0.308149
N	-2.3301411495	-0.2705570561	-0.756054137	-0.120364
C	-2.6171345562	-1.2360535325	-1.816378846	-0.225528
C	-3.6834178642	-0.7889630998	-0.8789336971	-0.235398
H	 1.1966030148	 1.4245246687	-0.4529403827	 0.114597
H	-0.5151915114	 1.5735044288	-0.933807143	 0.140713
H	-0.062723604	 1.7231432364	 0.7667992815	 0.103864
H	 0.2544464391	-0.8179638009	-0.923033178	 0.086974
H	 0.9428905779	-0.1922022625	 1.7042329317	 0.280674
H	-2.578679214	-2.552938397	 0.9304880773	 0.106112
H	-0.8424047347	-2.4741843548	 1.4905307732	 0.12993
H	-1.2791673503	-0.2041137752	 2.5075602262	 0.095717
H	-2.9896582445	-0.2425958263	 1.885013857	 0.114095
H	-2.5745772823	-0.8541012941	-2.8323660638	 0.115371
H	-2.2472414879	-2.2515479943	-1.6879402726	 0.116906
H	-4.0436057114	-1.5150222546	-0.1539993306	 0.115473
H	-4.428519861	-0.0634653859	-1.1939734844	 0.11663
