14
gdb 27967	3.055	1.30834	0.91604	4.7875	74.04	-0.2547	-0.0695	0.1852	1172.7255	0.102338	-436.75996	-436.752708	-436.751764	-436.791846	27.325	
O	 0.500792147	 1.23559759	-0.2738756104	-0.425581
C	 0.229831584	-0.074388123	-0.081926437	 0.419611
C	 0.2460297847	-0.9221742339	-1.1876338617	-0.253054
C	-0.0336185815	-2.2690932853	-0.983564887	 0.227397
C	-0.0294118014	-3.2199182362	-2.1340206842	 0.110636
O	 0.2063776834	-2.904269584	-3.2750929066	-0.257487
N	-0.3197070501	-2.8144804096	 0.2089121125	-0.32659
C	-0.3303331955	-1.9882186143	 1.2534230048	 0.005712
C	-0.0659699115	-0.6236852563	 1.1682935007	-0.255992
H	 0.4559566046	 1.7039216341	 0.5673934968	 0.305005
H	 0.4685063015	-0.5543781711	-2.1815039212	 0.139042
H	-0.267497889	-4.2617736063	-1.8364618499	 0.093518
H	-0.5621809969	-2.4306274905	 2.2193012465	 0.11779
H	-0.0907068593	-0.0036502036	 2.0597129568	 0.099993
