20
gdb 17376	3.8334	1.54526	1.28012	1.5622	74.32	-0.2322	0.0798	0.3119	1029.8797	0.176202	-348.968027	-348.959773	-348.958828	-349.00054	31.52	
C	-0.0148023736	 1.4478367754	-0.1673574145	-0.392206
C	 0.0825490285	-0.059285832	 0.1038501347	 0.013631
C	 0.7419106838	-0.3571192104	 1.4569825087	-0.394517
C	-1.2991184741	-0.696321304	 0.0460719908	 0.154817
O	-1.9865440687	-0.5127852556	-1.2324880944	-0.31117
C	-2.2775295059	-1.9106392084	-1.2882119292	 0.107875
C	-1.0249484819	-2.7164328002	-1.4044425	-0.299785
C	-1.478526015	-2.2151106843	-0.0448258429	-0.154317
H	 0.9787502807	 1.9072504094	-0.1820990681	 0.107349
H	-0.4984625851	 1.6378763427	-1.1289263391	 0.135325
H	-0.602000779	 1.9488739506	 0.6117470353	 0.108911
H	 0.6929080845	-0.5118155444	-0.687707711	 0.073888
H	 1.7434749996	 0.0812765231	 1.5055976793	 0.114938
H	 0.1565094152	 0.0654806598	 2.282454695	 0.11269
H	 0.8387586001	-1.4339075332	 1.6296850054	 0.117397
H	-1.9330997081	-0.2801093226	 0.8428985855	 0.07514
H	-3.264015388	-2.2120744086	-1.6203998601	 0.102052
H	-1.1669856927	-3.78315062	-1.5493039593	 0.113289
H	-0.1590583109	-2.2960744725	-1.9070171647	 0.117332
H	-1.6928642193	-2.8760291645	 0.7836196684	 0.097363
