19
gdb 56799	3.08907	1.10425	0.86735	1.5019	83.24	-0.239	0.0113	0.2503	1347.3734	0.158492	-385.864556	-385.855392	-385.854448	-385.898812	34.243	
O	 1.5900234293	 1.2295813062	-0.553489407	-0.409066
C	 0.5613087345	 0.3515537253	-0.0769345944	-0.193031
C	 0.0827751113	-0.5378395881	-1.1409991699	 0.331615
C	-0.2798251392	-1.2579381321	-2.0325897196	-0.454058
C	 1.0124550804	-0.3829304399	 1.1611122276	 0.32134
C	 1.0877143239	-1.7005839905	 1.3548386927	-0.17349
C	 1.5660992513	-2.0472485467	 2.743448411	-0.250913
C	 2.1012208113	-0.6930356813	 3.2791631035	-0.212553
C	 1.432002655	 0.3896622295	 2.3963365139	-0.295009
H	 2.3231192473	 0.6699607162	-0.8355581088	 0.283269
H	-0.2535625392	 1.0359872019	 0.1972504228	 0.1196
H	-0.6123668738	-1.8855717505	-2.8222787142	 0.198966
H	 0.7973502265	-2.4460525306	 0.6237061196	 0.101768
H	 0.7327741794	-2.4290656016	 3.3508983827	 0.107839
H	 2.3295036552	-2.8335057771	 2.7483668445	 0.103176
H	 1.9071537047	-0.5511514894	 4.3451100782	 0.09821
H	 3.1864029017	-0.6533403189	 3.141060431	 0.104836
H	 2.0998608701	 1.2227837784	 2.1584798527	 0.115181
H	 0.5495421203	 0.8292759594	 2.8843786537	 0.102319
