19
gdb 98208	2.16689	1.02418	0.72059	4.1715	82.09	-0.2312	0.0283	0.2596	1589.08	0.157504	-419.209458	-419.198233	-419.197289	-419.247658	37.756	
C	 0.3472971655	 1.3786613837	 0.1224481079	-0.334726
N	 0.5861016396	-0.0436424057	-0.0252521765	-0.314815
C	 0.3830230408	-0.7060054833	-1.1874377546	 0.414782
O	-0.0240890068	-0.1897165945	-2.2147152555	-0.387094
C	 0.6250961849	-2.2483957213	-1.1475330401	-0.258603
N	 0.9604644445	-2.7826587462	-2.4712221651	-0.504707
C	 1.5960671239	-2.6602253468	-0.1368825288	 0.07426
C	 2.4051129037	-2.9853338313	 0.6951671307	 0.070493
C	 3.3841557735	-3.4071562651	 1.6874029176	-0.500967
H	 1.2778489711	 1.9225946068	 0.3208998707	 0.127353
H	-0.0800304053	 1.7387513087	-0.8140826922	 0.170289
H	-0.3549833396	 1.5779809521	 0.9390369032	 0.12708
H	 0.9992202266	-0.5622357388	 0.7343410689	 0.250952
H	-0.3565237741	-2.6644826761	-0.8695103746	 0.133948
H	 0.42455974	-2.2276359708	-3.138456807	 0.244522
H	 1.9362042208	-2.568768887	-2.6636483774	 0.227847
H	 3.9162575783	-4.30404982	 1.3523792944	 0.158454
H	 4.1314439469	-2.6279256404	 1.8728739083	 0.149161
H	 2.9048009757	-3.6451996839	 2.64316066	 0.151771
