19
gdb 115319	2.56226	1.37734	1.02493	2.2953	72.23	-0.2364	-0.0385	0.1979	1199.8259	0.158342	-460.176298	-460.167214	-460.166269	-460.21054	33.469	
C	 0.1235149517	 1.3088896638	-0.131009873	-0.244309
O	-0.0672550285	-0.0790947277	 0.0908773035	-0.248123
C	 0.6005337532	-0.5910075066	 1.2323020817	 0.015941
C	 0.0883959055	-2.017430663	 1.4858066549	-0.248038
C	 1.0211208747	-2.93432766	 0.6617391049	-0.248467
C	 2.3983051867	-2.3027351596	 0.9017837099	 0.078401
O	 3.4069746852	-2.6540342012	-0.0007820543	-0.443004
C	 2.0904093918	-0.8079422051	 0.8789717856	 0.363335
O	 2.8824887544	 0.0233642732	 0.5030731125	-0.335638
H	 1.1701299918	 1.5510422297	-0.3427228608	 0.142332
H	-0.494497367	 1.5730798623	-0.9922985978	 0.128431
H	-0.2062311018	 1.8949843312	 0.7406289106	 0.105212
H	 0.4750097615	 0.0856606836	 2.0901551269	 0.083501
H	 0.1722685513	-2.2529976508	 2.5524415612	 0.107148
H	-0.9621027617	-2.1021758705	 1.2030492518	 0.12365
H	 0.9725865896	-3.9821982658	 0.9637073077	 0.109859
H	 0.7807829304	-2.8707531844	-0.4042675901	 0.127788
H	 2.7019882544	-2.5347518361	 1.9428539059	 0.090794
H	 3.8803592869	-1.8327134132	-0.2011496609	 0.291189
