19
gdb 81466	2.31302	1.94429	1.66976	1.8205	73.19	-0.2394	0.0593	0.2987	927.9874	0.161793	-422.992252	-422.984992	-422.984048	-423.023495	29.824	
O	 0.0302556873	 1.4953854022	-0.087495185	-0.419522
C	 0.0257009581	 0.0945537963	 0.0172743169	 0.095354
C	 0.2570046032	-0.6387177906	 1.3567746657	 0.039588
C	-0.410742039	 0.0652533736	 2.5500700217	-0.239857
C	-1.9119312644	 0.2619419926	 2.3152563776	-0.017382
C	-2.4693846002	 1.3168996492	 1.3921076146	-0.309722
C	-2.4097137337	-0.1247188179	 0.9382728041	-0.024754
C	-1.3119362529	-0.6843702067	 0.0560059108	 0.030963
O	-0.5973678322	-1.6993314504	 0.8454447606	-0.296826
H	 0.9225170042	 1.780379465	-0.3046361663	 0.290885
H	 0.6571374944	-0.3612691909	-0.7537294017	 0.088996
H	 1.2613195588	-1.0011889429	 1.5960982412	 0.067317
H	-0.2692330945	-0.5633105336	 3.4351091142	 0.104569
H	 0.1054575179	 1.0136882659	 2.7442703013	 0.100444
H	-2.5404797557	-0.0117072836	 3.1557993257	 0.083671
H	-3.4550949887	 1.7021040044	 1.6326512819	 0.10066
H	-1.7979105635	 2.0346154547	 0.945305365	 0.146547
H	-3.3470240319	-0.6676105895	 0.8681848147	 0.084462
H	-1.6858734171	-1.094408178	-0.8850180632	 0.074607
