18
gdb 95701	3.49421	1.22394	0.95935	4.5344	69.02	-0.253	0.0335	0.2864	1209.2034	0.149173	-476.266856	-476.258547	-476.257603	-476.299919	31.178	
C	 0.1751597684	 1.5882264385	 0.0818455543	-0.404138
C	-0.0219865579	 0.0798055013	 0.0439193745	 0.130005
C	 0.47760557	-0.5320479936	-1.2671293337	-0.171672
N	 0.1585169879	-1.9529134491	-1.4062234	-0.35821
C	 0.8217270136	-2.9684377652	-0.7500005512	 0.419972
O	 0.9815637976	-4.0694576838	-1.2084965202	-0.367481
O	 1.3009740064	-2.6443788267	 0.4872235187	-0.231055
C	 0.5236098314	-1.8194584775	 1.3554805715	 0.01502
O	 0.6891221447	-0.4561976005	 1.1575037523	-0.233964
H	 1.2298375703	 1.8430333061	-0.0603435978	 0.132369
H	-0.4115094057	 2.0761358155	-0.701834161	 0.119398
H	-0.1417074557	 1.9814219976	 1.0505234868	 0.133989
H	-1.0903111528	-0.1681677223	 0.152221303	 0.080269
H	-0.0097949525	-0.0171403823	-2.0994674896	 0.116386
H	 1.5583334856	-0.3528794093	-1.348078669	 0.126872
H	-0.11172642	-2.2500493858	-2.331933175	 0.257151
H	-0.5338408354	-2.1093381186	 1.2700240975	 0.103872
H	 0.9051652543	-2.0382339243	 2.353482659	 0.131217
