19
gdb 41649	3.08192	2.00848	1.63761	1.4567	76.48	-0.2369	0.0962	0.3331	880.6248	0.163458	-385.850446	-385.844342	-385.843397	-385.880493	26.72	
C	-0.0327447687	 1.4054437211	-0.1865001536	-0.070745
C	 1.3677153073	 2.0071791637	-0.0236307785	-0.24332
C	 2.0323964307	 1.4878668596	 1.2514321801	-0.004574
C	 1.2486919861	 1.4705447966	 2.5737380752	-0.086337
C	 0.3015846039	 0.2646564948	 2.5093362543	-0.124131
C	 1.748671387	 0.0922579281	 2.9238186606	-0.102012
C	 2.0687182218	-0.062202647	 1.3915066221	-0.109645
C	 0.5750498954	-0.4330075963	 1.1744153551	 0.154496
O	-0.0459423512	-0.0061904564	-0.0141995334	-0.27563
H	-0.7206935684	 1.8752099141	 0.532524718	 0.094626
H	-0.4256224996	 1.5875198025	-1.1908389994	 0.101892
H	 1.990460048	 1.7364617256	-0.8858729962	 0.100706
H	 1.2888264359	 3.1014129322	-0.0131212755	 0.09374
H	 3.0260237429	 1.9196011141	 1.4033190334	 0.06635
H	 1.0444340347	 2.2961118922	 3.2438136875	 0.081903
H	-0.5802269736	 0.2061861761	 3.1340063948	 0.084381
H	 2.1827357085	-0.3207189075	 3.8211292762	 0.092787
H	 2.8622331023	-0.6518121443	 0.9375455426	 0.065026
H	 0.404709377	-1.5100106792	 1.2433211868	 0.080486
