23
gdb 112715	2.90207	1.157	1.01684	0.7438	81.72	-0.2543	0.0803	0.3345	1318.5498	0.20515	-425.442947	-425.433028	-425.432084	-425.477713	36.962	
C	-0.0764966254	 1.5051670387	-0.4905324619	-0.242331
O	-0.3150263107	 0.1104872419	-0.5224063667	-0.241634
C	 0.7290828901	-0.6231439489	-1.1146888637	 0.228783
C	 0.3793205901	-2.117607505	-1.0158658279	-0.293364
C	 0.4627614763	-2.6239144779	-2.4694144492	 0.036644
C	-0.4474509197	-3.807190859	-2.7916523423	-0.415286
C	 0.2214249584	-1.3269568966	-3.2751523793	 0.095236
C	-1.2413639802	-0.9568517288	-3.5258457685	-0.401716
O	 0.8877270103	-0.3263577475	-2.4911485188	-0.268116
H	 0.834908406	 1.7415956928	 0.0803930145	 0.102516
H	 0.027486396	 1.9182309743	-1.500498015	 0.124191
H	-0.933703277	 1.9663707984	 0.0051640077	 0.122345
H	 1.6793815317	-0.347093483	-0.6332711296	 0.065762
H	 1.0549967089	-2.6523764223	-0.3447793059	 0.105597
H	-0.6333718254	-2.2097546323	-0.6133601133	 0.118117
H	 1.5003918031	-2.91924228	-2.6671229818	 0.077423
H	-1.4964761273	-3.5767095977	-2.5813228853	 0.121501
H	-0.3700151284	-4.0953168134	-3.8457266643	 0.114374
H	-0.1743573413	-4.6809968705	-2.19124089	 0.11648
H	 0.7504850316	-1.357794256	-4.2340869652	 0.074334
H	-1.8124474421	-0.9217671901	-2.5943197761	 0.130341
H	-1.2898280931	 0.0340933671	-3.9861625147	 0.119659
H	-1.7165718919	-1.6712244441	-4.2057918027	 0.109143
