22
gdb 101085	2.04504	1.31816	0.97407	2.8805	82.62	-0.2454	-0.0223	0.2231	1331.4869	0.19242	-404.339229	-404.329034	-404.32809	-404.374476	37.55	
C	 0.2081840628	 1.3924722852	-0.0595234359	-0.394536
C	-0.0317511941	-0.0947777214	-0.3364620453	-0.169199
C	-1.4250920881	-0.6112317508	 0.0946381544	-0.058285
C	-2.557158438	 0.0178692835	-0.7260409333	-0.426803
C	-1.4244085082	-2.138961789	 0.088092953	 0.205498
C	-2.5521278709	-2.9677993633	-0.4559314485	-0.280698
N	-1.2772671066	-2.9265805102	-1.1637336864	-0.345971
C	-0.6848851876	-2.7909497841	 1.2169579989	 0.160352
O	-0.3095156302	-2.2246003238	 2.212934998	-0.276794
H	 1.2324450172	 1.6728692497	-0.3237570034	 0.115491
H	-0.463256225	 2.0380935416	-0.6339261877	 0.11508
H	 0.065654738	 1.6208137005	 1.0023439807	 0.123461
H	 0.1142234097	-0.2988174698	-1.4062878383	 0.08626
H	 0.7308548706	-0.6746355351	 0.1932770955	 0.116513
H	-1.5619181402	-0.327075975	 1.1451458863	 0.100054
H	-2.5178897694	-0.285147872	-1.7804227469	 0.105743
H	-3.5414755033	-0.2502428172	-0.3322089296	 0.121397
H	-2.4871107874	 1.1079561199	-0.7056955174	 0.126588
H	-2.7913788363	-3.9236623951	 0.0036790746	 0.123316
H	-3.405556497	-2.4375192482	-0.8642676328	 0.126552
H	-1.3389638844	-2.2957699133	-1.9600624344	 0.239492
H	-0.5163053316	-3.8791685722	 1.0579115488	 0.086487
