13
gdb 26922	3.07711	1.50711	1.01163	1.6689	70.77	-0.197	-0.0655	0.1315	1066.3061	0.088549	-489.899749	-489.891986	-489.891042	-489.931907	29.221	
O	 0.0843465283	 1.3371238104	 0.0072315197	-0.389505
C	-0.0283965085	 0.0055530299	 0.0010319749	 0.371262
C	-1.1996870409	-0.6776240795	 0.0036422074	 0.246475
O	-2.3959685398	-0.0276087071	 0.0131703334	-0.431851
N	-1.199270757	-2.0376847646	-0.0032786099	-0.283854
C	-0.081807822	-2.6895223816	-0.0124053951	-0.059231
C	 1.2212147805	-2.047401117	-0.01587923	 0.351474
N	 2.3310604593	-2.661333231	-0.024818643	-0.526671
O	 1.1558415598	-0.645998547	-0.0084110001	-0.262059
H	 1.024179383	 1.5608417443	 0.0033506464	 0.313465
H	-3.0692965129	-0.7192946236	 0.0130199974	 0.299692
H	-0.0913633555	-3.7739603137	-0.017895665	 0.145275
H	 3.1209708856	-2.0171758596	-0.025645846	 0.225529
