18
gdb 100522	3.06514	1.00931	0.8656	0.6232	69.98	-0.2402	-0.0647	0.1754	1379.0987	0.144488	-476.257736	-476.247295	-476.246351	-476.293863	36.302	
C	-0.0575199781	 1.3893159263	 0.0522791589	-0.236178
O	 0.1367695485	-0.0038430859	-0.044860038	-0.237231
C	 0.70498286	-0.5894735341	 1.1014522636	 0.051348
C	-0.3166201783	-0.8081747383	 2.2346585339	-0.426591
C	 1.29337935	-1.9294036293	 0.680639199	 0.271997
O	 1.0204595088	-2.5001240379	-0.3467724253	-0.297579
C	 2.2988084542	-2.558606026	 1.6784283422	 0.333294
N	 2.7471419755	-3.757090452	 1.2509404424	-0.518736
O	 2.6224292285	-1.9984796518	 2.7103948035	-0.356049
H	 0.8808885514	 1.9144587208	 0.2893954301	 0.1074
H	-0.4139059562	 1.7275386392	-0.92343601	 0.133289
H	-0.8062257242	 1.6621984695	 0.8099907644	 0.109341
H	 1.5337467575	 0.0221450702	 1.491140017	 0.102377
H	 0.1682492112	-1.2682899607	 3.0975700264	 0.153239
H	-0.7359668261	 0.1506203584	 2.5501492005	 0.12651
H	-1.133758334	-1.4458679162	 1.885323122	 0.132517
H	 2.4192704714	-4.1072641864	 0.3648692939	 0.281208
H	 3.4253121198	-4.2648509058	 1.7928171053	 0.269843
