20
gdb 36365	2.48072	1.18022	0.99787	1.0465	85.23	-0.2238	0.0393	0.2631	1291.4241	0.169518	-365.923838	-365.914581	-365.913637	-365.958309	34.82	
C	-0.9241206639	 0.2646477146	-0.7961295271	-0.46497
C	-0.1049576598	 0.6170007877	 0.0117736238	 0.302955
C	 0.9259144096	 1.010024226	 0.9779675717	-0.283298
N	 1.879992826	 2.0608836689	 0.5984096095	-0.105397
C	 1.9779658082	 2.5188494497	-0.784521631	-0.270918
C	 1.4274001621	 3.4177741246	 0.271146768	 0.012913
C	-0.0088541695	 3.8333359671	 0.2932933581	 0.004382
C	-0.5527645336	 4.5482315377	 1.5117559384	-0.268686
C	-0.3449528663	 5.30447114	 0.2263647911	-0.279418
H	-1.6564863663	-0.0465979136	-1.4995991289	 0.20005
H	 0.4478507237	 1.318457817	 1.9151797308	 0.141672
H	 1.5189323484	 0.1174254383	 1.2145569418	 0.13989
H	 2.9877222318	 2.6516584192	-1.1654986161	 0.110135
H	 1.2668788553	 2.117231677	-1.503511719	 0.12235
H	 2.0947613715	 4.176497039	 0.6832669652	 0.081961
H	-0.6942454891	 3.1636506632	-0.212573773	 0.103421
H	-1.5668818584	 4.3271391812	 1.8254735697	 0.11329
H	 0.1339630631	 4.7444293174	 2.3288242527	 0.113593
H	 0.4785036601	 6.0099171413	 0.1805448601	 0.112998
H	-1.215283753	 5.6023820536	-0.3473033557	 0.113077
