20
gdb 118212	4.29058	0.64238	0.58165	2.1337	72.38	-0.2377	0.033	0.2707	1853.4318	0.169371	-477.451396	-477.440791	-477.439847	-477.488038	37.971	
N	 0.5532445168	 0.1596695621	 0.8427370411	-0.512949
C	-0.0534763845	 0.1606533935	-0.375457323	 0.367873
O	 0.2723745447	 0.9006652967	-1.2843378718	-0.363246
C	-1.224565437	-0.8199848882	-0.522454206	-0.303952
C	-1.0395829556	-2.2093835876	 0.1076385659	 0.085798
O	-0.9457738459	-2.1357838475	 1.5408863405	-0.42486
C	-2.1413658725	-3.1856540577	-0.3143814384	-0.219957
C	-1.9435487126	-4.5997580371	 0.2391032352	-0.062925
O	-3.021911401	-5.4641657314	-0.0759445331	-0.415553
H	 1.3578573972	 0.7515779247	 0.9682315419	 0.254509
H	 0.310994409	-0.5371876982	 1.531815464	 0.266949
H	-2.1227507842	-0.3518374851	-0.0946580033	 0.113341
H	-1.4014184609	-0.9137433752	-1.5964016871	 0.130997
H	-0.0659951488	-2.6132045775	-0.1966619757	 0.10518
H	-1.8027162579	-1.8423878534	 1.8739032687	 0.285818
H	-3.1189753464	-2.8078075377	 0.0166257083	 0.100543
H	-2.1781371067	-3.2220711219	-1.4113563857	 0.098507
H	-0.9822661032	-5.0066093207	-0.1146463812	 0.089639
H	-1.8925187646	-4.5661260372	 1.3304335041	 0.122246
H	-3.0472919659	-5.5720351806	-1.0320520044	 0.282045
