18
gdb 114292	2.33426	1.48078	1.10047	4.589	76.12	-0.258	0.0259	0.284	1154.2297	0.147271	-401.921524	-401.913006	-401.912062	-401.954989	31.595	
C	-0.0891699057	 1.5809203194	-0.0434222823	-0.382554
C	 0.0539038031	 0.0845477829	 0.2566691754	-0.221292
C	-1.274033976	-0.6379499623	 0.1606027946	 0.144603
O	-1.9106485011	-0.5929285594	-1.164495273	-0.292419
C	-2.1822504033	-1.9791206511	-1.0923104668	 0.092057
C	-0.9152424866	-2.8032884938	-1.1190603245	-0.20803
C	 0.2576977291	-2.4253168	-1.8593266774	 0.31243
N	 1.2008429376	-2.1558568716	-2.4726316026	-0.348546
C	-1.4041115607	-2.1637929191	 0.1827072886	-0.188831
H	 0.8771601498	 2.0868748324	 0.0315964817	 0.119639
H	-0.4748048598	 1.7333217944	-1.0552485524	 0.143065
H	-0.7782258169	 2.065996472	 0.6571491996	 0.111792
H	 0.7785129991	-0.3665988692	-0.4249425719	 0.141659
H	 0.4338258446	-0.06453536	 1.2761878529	 0.101693
H	-1.9876190367	-0.2126715456	 0.8796251943	 0.094346
H	-3.1406155792	-2.3425904641	-1.4443821283	 0.123606
H	-1.1033723555	-3.8740006998	-1.1306730555	 0.140518
H	-1.5960130418	-2.7732612351	 1.0550565174	 0.116264
