14
gdb 9138	3.73396	0.92049	0.7942	2.1589	68.63	-0.2561	0.0101	0.2662	1392.2483	0.103509	-382.447249	-382.437832	-382.436888	-382.48283	31.966	
O	 0.2994381847	 0.8545208416	 0.8118378489	-0.407203
C	-0.1621418217	 0.3042619796	-0.4145028279	-0.215984
C	-1.4421100056	-0.3595917878	-0.2042558801	 0.085102
C	-2.5008556017	-0.9122407759	-0.0583569701	 0.103761
C	-3.7726042795	-1.6206184369	 0.140497652	-0.236011
O	-3.5845739217	-2.9843686971	 0.5071374605	-0.38992
C	-4.6263764193	-0.9044807117	 1.1008550782	 0.332034
C	-5.3247583372	-0.3458308522	 1.902499144	-0.451824
H	 1.1410444582	 1.2866705888	 0.6337209151	 0.291788
H	-0.2906928314	 1.0844721815	-1.1824860671	 0.122018
H	 0.5552155222	-0.42705904	-0.8215104693	 0.121713
H	-4.2987912546	-1.6704154611	-0.821783428	 0.149313
H	-3.1104282072	-2.9901138219	 1.347019229	 0.291018
H	-5.9423465953	 0.154145183	 2.6073438148	 0.204194
