17
gdb 37219	3.51752	1.64343	1.29603	2.0684	72.94	-0.2272	-0.0019	0.2253	974.9051	0.138674	-417.944785	-417.937997	-417.937053	-417.975857	27.074	
C	-0.157562661	 1.1597543845	 0.0503438579	-0.232491
C	 1.2980737921	 0.9204348058	 0.0540573661	-0.093393
C	 1.8021816913	 0.1749555932	 1.2922411002	 0.045452
O	 1.8237021126	 0.7198325261	 2.5898993104	-0.264883
C	 1.7453460081	-0.4003994848	 3.4828053462	-0.09764
C	 0.4631438626	-1.2583725969	 3.2990307526	-0.173109
N	-0.0791721547	-1.3500514363	 1.9302979292	-0.27165
C	 0.6114464486	-0.7141832132	 1.0980079047	 0.329376
N	 0.3004554499	-0.2286261785	-0.2378097403	-0.180498
H	-0.6880290305	 1.3401354739	 0.9804837216	 0.14106
H	-0.5730819273	 1.6555983199	-0.8210195565	 0.135262
H	 1.9482525078	 1.2919468276	-0.7287836479	 0.108844
H	 2.7578776802	-0.3177600477	 1.0516896572	 0.094247
H	 2.6405491552	-1.0275328399	 3.3459350088	 0.097893
H	 1.7745555232	 0.010887454	 4.4944369815	 0.11843
H	 0.6570567606	-2.2670165883	 3.6814378748	 0.119942
H	-0.3512439388	-0.8504568695	 3.9098343934	 0.123158
