22
gdb 105542	2.53627	1.37659	1.10674	1.0455	81.89	-0.2234	0.072	0.2954	1198.9919	0.193569	-404.296007	-404.286632	-404.285687	-404.330022	35.706	
O	 0.0654913521	 1.275206828	 0.5528367422	-0.42647
C	-0.0903289019	-0.1298769271	 0.4116831828	-0.119533
C	-1.5434698564	-0.447891026	 0.0592048048	 0.335187
C	-2.5722751015	 0.3090379732	 0.9728226423	-0.27153
C	-2.8455236143	 1.2951218933	-0.1955589282	-0.204925
C	-2.074434343	 0.356467414	-1.1613203418	-0.249173
N	-1.5896535337	-1.8983664445	-0.1099581967	-0.121472
C	-1.9135530422	-2.7360124478	 1.0393229232	-0.231328
C	-2.8615594725	-2.6021381847	-0.1019379212	-0.235777
H	 0.9911939804	 1.4571061939	 0.7343927025	 0.289985
H	 0.5511864386	-0.5295662747	-0.3870765739	 0.097185
H	 0.1712058113	-0.6521392617	 1.3464416555	 0.08342
H	-3.4463988356	-0.2929058217	 1.2346170467	 0.092408
H	-2.1610959731	 0.7413946279	 1.8870769469	 0.102682
H	-3.8951079674	 1.4796470715	-0.436105752	 0.087255
H	-2.3392248729	 2.2500188108	-0.0529148891	 0.117942
H	-1.3166806689	 0.8167840939	-1.79903075	 0.101679
H	-2.7336155943	-0.2567929151	-1.7813158751	 0.097323
H	-1.3124008075	-3.6328249087	 1.1623334674	 0.113609
H	-2.1958110872	-2.2450337145	 1.9693741369	 0.114188
H	-3.7782024673	-2.0438618219	 0.0770052361	 0.113268
H	-2.9567649424	-3.3973102182	-0.8365212591	 0.114075
