16
gdb 12054	3.47219	1.86645	1.54718	0.9217	64.5	-0.256	-0.0332	0.2228	853.55	0.128603	-383.709027	-383.701493	-383.700549	-383.740822	28.07	
C	 0.0548910549	 1.6670162164	 0.3897633416	-0.472828
C	-0.0127970396	 0.1662842257	 0.1212636019	 0.198521
C	 0.9220126482	-0.4375939928	-0.9868077791	-0.314743
C	 1.6170939952	-1.2680077928	 0.0951419172	 0.048036
O	 2.1274771884	-0.3556493521	 1.0846917183	-0.245388
C	 0.7553385004	-0.728157674	 1.1525676942	-0.014249
C	-1.4464238692	-0.3093409083	 0.0083559714	 0.106825
O	-1.8638273705	-1.1083904192	-0.7905975697	-0.246194
H	 1.0807168026	 1.9461091969	 0.6404122171	 0.146626
H	-0.2553146159	 2.2403577337	-0.4900977419	 0.126597
H	-0.5948959666	 1.9536826459	 1.2248496326	 0.118471
H	 0.3467928077	-1.0411856551	-1.6909859904	 0.139378
H	 1.5619580471	 0.2710759782	-1.5166957599	 0.110457
H	 2.1107634654	-2.2286575387	 0.0139967174	 0.111783
H	 0.3917948038	-1.1533151743	 2.0816859434	 0.1084
H	-2.124695322	 0.1364350607	 0.7730680059	 0.078308
