22
gdb 76493	3.07268	1.01794	0.95282	1.9783	83.33	-0.2173	0.0749	0.2922	1367.0942	0.192151	-404.304986	-404.295077	-404.294132	-404.339596	37.324	
C	-0.0063621278	 1.6390485707	-0.1564821639	-0.417519
C	 0.0584221847	 0.1279115578	-0.0876262292	-0.076454
N	 1.3172127048	-0.6317031754	-0.1385530912	-0.141547
C	 2.5871926417	 0.0638190497	-0.2738561646	-0.317877
C	 0.581477762	-0.5709573324	 1.1161919913	 0.337883
C	 1.0780270729	 0.0294211529	 2.4450028905	-0.348747
C	 0.9423768558	-1.3947725395	 3.0642393659	 0.166799
O	 0.4234292534	-1.5390114103	 4.3607804218	-0.433428
C	 0.0947710029	-1.8353989106	 1.8349775199	-0.33794
H	 0.7106108619	 2.1227287106	 0.5108712081	 0.122937
H	 0.1786803231	 2.0000955531	-1.1743761087	 0.123147
H	-1.0064641188	 1.9784035195	 0.1345063674	 0.120671
H	-0.7406765608	-0.3654460634	-0.6428091934	 0.083299
H	 2.6675655001	 1.013465192	 0.2750184704	 0.101668
H	 3.3885878562	-0.5944982055	 0.0781938139	 0.121554
H	 2.7678600942	 0.2701306443	-1.3338102613	 0.122369
H	 2.0661441396	 0.4951334394	 2.4736296216	 0.10608
H	 0.3539997871	 0.7283920954	 2.8811554977	 0.093535
H	 1.9085701155	-1.9065808549	 3.078066748	 0.097469
H	-0.4451653599	-1.1231673214	 4.3821707953	 0.275544
H	-0.979348095	-1.8015503868	 2.0557749415	 0.089106
H	 0.3332766064	-2.7926091052	 1.3663554688	 0.111453
