16
gdb 83106	2.62183	1.79359	1.27887	2.1453	70.16	-0.2227	-0.0102	0.2125	978.2541	0.125474	-437.895657	-437.888072	-437.887127	-437.927985	28.553	
O	 0.2351856569	 1.3300104158	 0.3824692102	-0.423096
C	 0.0760369312	-0.048758043	 0.1602215438	-0.028848
C	-1.3949868403	-0.5171878244	-0.0462272511	 0.005627
C	-2.5330896159	 0.4944114068	-0.299534458	-0.294439
C	-2.912302802	 0.1955766425	-1.7436419511	-0.088815
C	-2.0227896587	-0.6052911101	-2.3315919164	-0.067142
N	-1.0113053417	-1.0078158545	-1.4089022369	-0.113982
C	 0.2770376454	-0.4513706262	-1.3248908097	 0.363546
O	 1.1330460053	-0.2525524073	-2.1399828072	-0.34053
H	 1.017447742	 1.6113618611	-0.1071984613	 0.303368
H	 0.6360108307	-0.6486984038	 0.8896767259	 0.095488
H	-1.7020026584	-1.3330723954	 0.6120835665	 0.091776
H	-3.3621337475	 0.3480814652	 0.3980997743	 0.116268
H	-2.1901369265	 1.530570106	-0.1881126509	 0.137652
H	-3.7765696382	 0.6236198709	-2.233799703	 0.109561
H	-1.9818134023	-0.9481012536	-3.355423095	 0.133567
