15
gdb 80785	2.04349	1.82079	1.17322	3.0047	73.78	-0.2374	-0.004	0.2334	1047.0058	0.110921	-420.550173	-420.542103	-420.541158	-420.582595	30.932	
O	-0.0471214123	 1.4248101919	-0.0629326891	-0.429992
C	 0.0140523511	 0.0299396766	-0.0024770803	 0.113425
C	-0.0191675241	-0.6650692943	 1.415925215	-0.251936
C	-1.500903107	-0.1574064279	 1.5128072241	-0.270273
C	-1.3965665805	-0.6615436363	 0.0143652712	 0.095126
C	-2.3954909376	-0.6528707075	-1.0018148965	 0.041179
C	-3.2366238229	-0.6628238686	-1.8613543187	-0.343265
C	-0.6258793156	-1.8460361057	 0.6643056138	 0.414032
O	-0.5833793143	-3.0331818057	 0.6172223188	-0.310134
H	 0.8379190594	 1.7733656501	 0.0834437555	 0.295356
H	 0.7326848714	-0.3784659205	-0.7217454343	 0.096709
H	 0.7456193254	-0.6561060371	 2.187702977	 0.101295
H	-2.1789422285	-0.7044729979	 2.1674491146	 0.123218
H	-1.6024504938	 0.9212337216	 1.5996157555	 0.140782
H	-3.9797064307	-0.6731327988	-2.6199247166	 0.184478
