18
gdb 77544	2.95813	1.30103	1.06899	4.1056	78.04	-0.2786	0.0257	0.3043	1148.2507	0.147377	-401.920838	-401.912302	-401.911358	-401.953659	32.823	
C	-0.1418523441	 1.5790078827	-0.0325164995	-0.450206
C	 0.0303415696	 0.0711381978	-0.008287868	-0.021535
C	 1.2020628878	-0.6445176092	-0.738646356	 0.369516
O	 1.3659323402	-0.5829172158	-2.1026826521	-0.465925
C	 2.1774108923	-0.1565263162	 0.3830536385	-0.337276
C	 0.883522119	-0.6555584984	 1.1002017612	 0.21668
C	 0.9133733229	-1.8961412856	 0.1537939588	-0.325618
C	 0.6325324994	-0.6597416162	 2.5134835555	 0.164341
N	 0.4233077388	-0.6532811373	 3.6512573735	-0.35865
H	 0.7875878685	 2.1309464468	 0.1231230941	 0.124973
H	-0.5503449651	 1.8855730671	-1.0007601328	 0.135839
H	-0.8503997168	 1.8922100582	 0.7408856142	 0.134811
H	-0.9343216532	-0.4211445407	-0.1703961428	 0.084808
H	 2.1532498803	-1.0805947858	-2.349007909	 0.289597
H	 3.0699435473	-0.7632692462	 0.5545312438	 0.105131
H	 2.4019009451	 0.9072831524	 0.4436318359	 0.116309
H	-0.0391594467	-2.4066822344	-0.002155696	 0.113109
H	 1.7376336046	-2.5946037793	 0.3159783006	 0.104097
