20
gdb 121072	3.08796	0.92302	0.79618	2.6551	76.63	-0.2549	0.0309	0.2858	1475.3702	0.17159	-440.307621	-440.298405	-440.297461	-440.342506	33.626	
O	-0.326282848	 1.3654742989	-0.4281612996	-0.421879
C	-0.0863742045	-0.0176908153	-0.2178112567	-0.076389
C	-1.4392346181	-0.691853471	-0.0237184707	-0.183554
C	-1.3314420315	-2.1841080769	 0.2793546556	 0.096582
C	-2.6883645542	-2.911207159	 0.3643699004	-0.248256
C	-2.885018628	-3.4282294211	-1.0672258852	-0.300506
C	-1.4687826375	-3.5807979177	-1.5776718428	 0.415728
N	-1.1107938626	-4.2612768271	-2.5787737274	-0.541198
O	-0.6179918283	-2.8625191661	-0.7827245651	-0.247731
H	 0.5126827396	 1.7872378978	-0.6346409269	 0.287426
H	 0.4330998281	-0.4741167938	-1.0716138227	 0.106002
H	 0.5403160367	-0.183357065	 0.6748669342	 0.083067
H	-1.9588901061	-0.2029601182	 0.8091214874	 0.111086
H	-2.0493982254	-0.5307794214	-0.9205312124	 0.110623
H	-0.7337183778	-2.3324430827	 1.1850232662	 0.08903
H	-2.619618709	-3.7481331088	 1.0651447505	 0.115291
H	-3.4885257841	-2.2511432936	 0.7051898641	 0.113164
H	-3.4281357916	-4.3706962215	-1.1380722297	 0.137538
H	-3.4114089165	-2.6994922069	-1.6931571525	 0.135329
H	-0.1015852511	-4.1860856306	-2.7188865066	 0.218647
