23
gdb 89727	2.36034	1.40265	1.20184	1.2787	85.59	-0.2484	0.0748	0.3231	1189.8823	0.203786	-388.271307	-388.261401	-388.260457	-388.305208	38.591	
C	-0.0925317465	 1.4883580744	 0.0227235294	-0.419169
C	-0.0329174947	-0.0425418271	-0.007794648	 0.211973
C	-1.4054066175	-0.6366959507	-0.3083599173	-0.458255
C	 1.138609129	-0.5709640856	-0.8948835833	 0.115847
O	 1.5457806494	 0.3158700762	-1.9116371909	-0.435132
C	 2.0275680775	-0.7310084939	 0.3702132598	-0.368448
C	 0.7470662054	-0.6172414449	 1.2049568563	 0.368043
C	 0.6178561474	-0.2685975861	 2.6558869275	-0.330011
C	 0.2567034206	-1.6558685863	 2.172382445	-0.331232
H	 0.8822077024	 1.929696277	 0.2453583032	 0.11583
H	-0.4212156802	 1.8838010788	-0.9426816853	 0.120464
H	-0.7989199604	 1.8238897364	 0.789855103	 0.102255
H	-1.7726166464	-0.2866571911	-1.2797898544	 0.117812
H	-1.3723442558	-1.7305102408	-0.3333398831	 0.109933
H	-2.143530923	-0.3405331224	 0.4466485643	 0.108751
H	 0.8791473507	-1.5548139306	-1.3122396735	 0.061011
H	 2.2828270295	-0.0836740817	-2.3838114556	 0.282825
H	 2.6121711786	-1.651056987	 0.4613029426	 0.091077
H	 2.6915528988	 0.1306292499	 0.4933436694	 0.103089
H	 1.5267478822	-0.1444604072	 3.2366073723	 0.107576
H	-0.1924712616	 0.3879921614	 2.9577543625	 0.109443
H	-0.7938669673	-1.9278817201	 2.1554396529	 0.110173
H	 0.9231551118	-2.4761525286	 2.4217327231	 0.106143
