12
gdb 4417	3.8819	2.10083	1.36313	3.0659	62.28	-0.2261	-0.0534	0.1727	818.0857	0.085329	-414.696069	-414.689769	-414.688824	-414.726735	23.719	
O	 0.0609643741	 1.3117726125	 0.0073603573	-0.387877
C	-0.0359536313	-0.011682689	 0.0009526674	 0.516075
C	-1.2139871218	-0.6890843974	 0.003988479	-0.31916
C	-1.0868227674	-2.1039344294	-0.0041748251	 0.036129
N	 0.0378919754	-2.7598339658	-0.0139183879	-0.323137
C	 1.2172318373	-2.0523513522	-0.0166924325	 0.432391
N	 2.403253124	-2.4854636326	-0.0258083039	-0.524672
O	 1.1402734382	-0.6228318316	-0.0088133486	-0.24176
H	 1.0006375136	 1.5454926387	 0.0033432413	 0.321169
H	-2.1612456955	-0.1737755706	 0.0119898407	 0.124993
H	-1.9939243152	-2.7074778023	-0.0023006463	 0.126929
H	 2.3685226786	-3.5031988202	-0.0311302115	 0.238921
