21
gdb 38677	2.57813	1.86048	1.4268	1.3916	80.7	-0.2263	0.0751	0.3014	998.3859	0.185389	-387.058983	-387.051654	-387.05071	-387.090518	30.549	
C	-0.0357591067	 1.3089147122	 0.7628257662	-0.321044
C	 1.2154022446	 0.7829364765	 0.0834368492	-0.050168
C	 2.4726271946	 0.3440415932	 0.8389784417	-0.242022
C	 2.4767873483	-1.0756329461	 1.4116336984	-0.005171
C	 1.889122266	-2.1267103186	 0.426058132	-0.251776
C	 0.5314359258	-2.0104817964	 1.1717864097	 0.136828
C	 1.2975483082	-1.3905034621	 2.3744167892	-0.254084
O	-0.4441161937	-1.183389218	 0.5715773682	-0.266748
C	-0.1001799922	 0.0302729156	-0.0318292991	 0.111929
H	-0.0915249434	 1.2026198797	 1.8407839803	 0.11764
H	-0.514561135	 2.2031209427	 0.3773426884	 0.105314
H	 1.4576778033	 1.3047845392	-0.8388372426	 0.089434
H	 3.3151890634	 0.4171064903	 0.1404231565	 0.099279
H	 2.6865823074	 1.0589891862	 1.6439014145	 0.100995
H	 3.4733284194	-1.2946006615	 1.8061877884	 0.061313
H	 1.888376593	-1.8802057316	-0.6386266957	 0.102167
H	 2.3283515649	-3.118940658	 0.560287515	 0.098369
H	 0.0007862022	-2.9447142765	 1.3699573616	 0.077138
H	 1.5634592585	-2.1590255641	 3.1063110068	 0.098363
H	 0.8171588413	-0.562287933	 2.9005619149	 0.099026
H	-0.5780758698	 0.0925203502	-1.0066741634	 0.09322
