15
gdb 128070	4.63362	0.99046	0.82368	4.4651	69.34	-0.2607	-0.0368	0.2239	1323.7659	0.112997	-453.967199	-453.958711	-453.957767	-454.001923	29.197	
C	-0.015403623	 1.4764113583	-0.0291270466	-0.336998
N	-0.0556118809	 0.0268032159	-0.0726346274	-0.336539
C	-1.2022250865	-0.6754351599	 0.1677410981	 0.332583
O	-2.2612996121	-0.1499312664	 0.4698512943	-0.380224
C	-1.0940395845	-2.1504157091	 0.0519649049	 0.05222
C	-0.033425822	-3.0021973893	-0.0340111345	-0.025373
O	-0.447495245	-4.2702662269	-0.0915947416	-0.163763
N	-1.8465740854	-4.294076195	-0.0406889862	-0.131075
C	-2.207203098	-3.0429013736	 0.0492000173	-0.007021
H	 0.8225865081	 1.8233144945	 0.5837726988	 0.128701
H	 0.0774729935	 1.9107866806	-1.0315219268	 0.129695
H	-0.9520701557	 1.8151814116	 0.4138134066	 0.176042
H	 0.7413008703	-0.4616100543	-0.4450479429	 0.245271
H	 1.0375093934	-2.8648041336	-0.0458106529	 0.154162
H	-3.252422852	-2.7788797329	 0.1110064888	 0.16232
