12
gdb 123537	4.20147	1.84206	1.2806	3.0137	69.46	-0.2766	-0.0918	0.1848	867.2421	0.081758	-427.845423	-427.839924	-427.83898	-427.875304	21.504	
C	 0.0647941806	 1.2841546678	 0.0088166803	 0.048422
N	 1.3123069939	 1.756205978	-0.000728275	-0.221989
N	 2.0268811918	 0.6192777325	-0.0137873309	 0.028909
N	 3.3702862951	 0.6053802582	-0.0268445137	-0.054322
N	 3.9244350068	-0.5535695269	-0.0385641725	-0.185647
C	 3.180955233	-1.7019886768	-0.0376908242	 0.056488
C	 1.8114935246	-1.7334578171	-0.0246389829	-0.263669
C	 1.1755399685	-0.4848402447	-0.0116379267	 0.493548
N	-0.081942765	-0.0625460045	 0.0028503119	-0.350158
H	-0.7767718599	 1.9615169852	 0.0206373111	 0.148152
H	 3.773800737	-2.6085506659	-0.0483902086	 0.14753
H	 1.2398963336	-2.6526803457	-0.0241599189	 0.152736
