21
gdb 121212	2.33996	1.06389	0.79268	3.8477	80.56	-0.2411	-0.0145	0.2266	1499.1732	0.18035	-424.219441	-424.209489	-424.208545	-424.2556	35.198	
C	 0.053619185	 1.3706317577	 0.4219586541	-0.385957
C	-0.2369070351	-0.0171352923	-0.1225905104	-0.042842
O	 0.9298227016	-0.4990367874	-0.7686858566	-0.251064
C	 0.8029179112	-1.794378999	-1.282198551	 0.161088
C	 0.0305594308	-2.0159345503	-2.6136060193	-0.257845
C	 1.1909279337	-2.9375325968	-3.0733668822	-0.245638
C	 2.1006014826	-2.3400047645	-1.9454015203	-0.150153
C	 3.001922568	-1.2471161311	-2.4642283278	 0.188452
O	 4.1804709108	-1.1718698061	-2.2293960719	-0.259951
H	 0.8852990925	 1.3368392043	 1.1310570902	 0.13183
H	 0.323406927	 2.0524089736	-0.3894387557	 0.128849
H	-0.8264363975	 1.7707185807	 0.9340687439	 0.116252
H	-0.5214196452	-0.7043434255	 0.6917816569	 0.089631
H	-1.0806232194	 0.0133552992	-0.8303145595	 0.092558
H	 0.4501037476	-2.4873013468	-0.5025354159	 0.073334
H	-0.9717750099	-2.4459707971	-2.5610910486	 0.102374
H	-0.0091387088	-1.0887098577	-3.1923170556	 0.114805
H	 0.9887974536	-3.996102892	-2.8991051644	 0.117456
H	 1.545180777	-2.8172615068	-4.0996769236	 0.113796
H	 2.7008759842	-3.0334404285	-1.3548667473	 0.090391
H	 2.5022229303	-0.5017095737	-3.1231865252	 0.072634
