17
gdb 51198	3.74323	1.29185	1.08442	4.0989	75.21	-0.2407	0.0214	0.2621	1113.7303	0.13675	-417.902747	-417.895327	-417.894383	-417.935216	28.494	
N	-0.1863146687	 1.1938734376	-0.1089783624	-0.437726
C	-0.5250605505	 0.0044365872	-0.3550088829	 0.078106
O	-0.2879871239	-0.9469101793	 0.5920507231	-0.248906
C	-0.662612069	-2.2485524087	 0.3138587263	 0.448182
C	-0.4492169697	-3.400958953	 1.2942650703	-0.326496
C	-1.1205090236	-4.0609741391	 0.0699967648	-0.07033
C	-2.0299405819	-2.8186889357	-0.2145042738	-0.084583
N	-1.6146786422	-2.6608215588	-1.6498190868	-0.350865
C	-0.373431086	-3.1381556406	-0.9505720213	-0.084596
H	-0.4247378024	 1.7857029353	-0.9029097168	 0.230123
H	-1.0017062571	-0.3883023641	-1.2575993563	 0.140911
H	 0.5879676885	-3.6800220937	 1.4965711519	 0.110078
H	-1.033731635	-3.3672676037	 2.2171752342	 0.11008
H	-1.3934058276	-5.1013112298	-0.0926337007	 0.088895
H	-3.036819257	-2.6153178246	 0.1511767519	 0.092863
H	-2.0115679377	-3.4164226268	-2.215067437	 0.211403
H	 0.5774934939	-3.3123616721	-1.4548367744	 0.092862
