20
gdb 110410	4.66088	1.09201	1.00136	3.2894	79.01	-0.2332	0.0734	0.3067	1239.801	0.171615	-403.071838	-403.063672	-403.062728	-403.104308	32.191	
C	-0.1030818427	 1.4218748112	 0.0209152792	-0.508326
C	 0.014657108	-0.0704140431	-0.0610140328	 0.30816
C	-0.511013772	-1.01784012	-1.1308914327	-0.221957
N	-0.3276763429	-2.1704681177	-0.1668274759	-0.193632
C	-0.3155829785	-1.1159228334	 0.9654360297	-0.075247
C	 1.13407137	-0.8690234297	 0.6539962429	-0.139214
C	 1.1916954747	-2.2188172375	-0.039399569	 0.012147
C	 1.5612959428	-3.4197850359	 0.8186575535	-0.070339
O	 1.0937902619	-4.6089821578	 0.2152192271	-0.424778
H	 0.540025095	 1.9136384982	-0.7178340891	 0.125615
H	-1.1331932665	 1.7473610226	-0.1628144129	 0.123522
H	 0.1895900326	 1.790251224	 1.0098092507	 0.12326
H	-1.5776415241	-0.8697502067	-1.3253272754	 0.105543
H	 0.0250859728	-1.1297177371	-2.0808752253	 0.099638
H	-0.9142852505	-1.1383638951	 1.8649753956	 0.099583
H	 1.8756626714	-0.3646573534	 1.2620913413	 0.08993
H	 1.6949328789	-2.2932342911	-1.011209754	 0.074752
H	 2.6496709555	-3.5055235779	 0.9107993055	 0.101789
H	 1.1507653406	-3.2883452395	 1.8336860611	 0.081377
H	 0.1785888531	-4.4154923602	-0.0319275597	 0.288177
