19
gdb 87778	4.05229	1.04551	1.03245	0.7497	76.58	-0.2467	0.0782	0.3249	1264.7401	0.156529	-422.976918	-422.968118	-422.967174	-423.010142	33.489	
C	-0.0881993386	 1.5055098768	-0.1124540975	-0.415745
C	-0.0550050185	 0.0123238018	 0.0782926763	-0.024151
O	 1.2339459616	-0.6308391976	-0.0540384901	-0.300332
C	 0.6050634299	-0.6265622439	 1.2147402657	 0.443835
C	 1.3098235537	-0.066632684	 2.4743005382	-0.388741
C	 0.9432274181	-1.394135772	 3.1801871063	 0.419663
C	 1.6542540052	-2.073080135	 4.3035404014	-0.500028
O	-0.4885796253	-1.4942371507	 3.1121869938	-0.283587
C	 0.2769615184	-1.9080527597	 1.9654208083	-0.163824
H	 0.7321461249	 1.9867086177	 0.426034501	 0.127599
H	-0.0003159609	 1.7615767597	-1.1734184979	 0.129852
H	-1.0357791854	 1.9132896884	 0.2555769787	 0.12699
H	-0.8624656624	-0.5399840607	-0.4058631911	 0.092351
H	 2.3823861241	 0.0505432814	 2.2971837988	 0.120842
H	 0.9009162167	 0.8368658315	 2.9331589773	 0.110462
H	 1.5578867989	-1.4951109888	 5.2296151176	 0.132208
H	 1.2309478704	-3.0659781351	 4.4765745959	 0.136406
H	 2.7209161321	-2.1772453278	 4.0812350928	 0.128663
H	 0.1323220672	-2.913934402	 1.5873683142	 0.107538
