19
gdb 110943	2.54502	1.29368	1.07917	2.8555	71.54	-0.2364	0.0595	0.2959	1196.2599	0.157943	-460.091865	-460.082794	-460.08185	-460.126215	33.071	
C	 0.135703894	 1.0114334729	-0.4756359453	-0.24011
O	-0.1936976518	 0.1136248481	 0.5712763316	-0.233665
C	-1.3410890427	-0.6207432765	 0.3082532933	 0.113339
C	-1.4095037031	-1.7092520291	-0.7163636362	 0.035275
O	-0.1599668552	-2.3792156406	-0.8635274094	-0.314719
C	-0.2409906483	-2.8642291997	 0.5155821333	 0.132769
C	 1.0536562951	-2.6557070113	 1.2783784768	-0.097767
O	 2.1006606042	-3.3948223496	 0.6680259981	-0.422473
C	-1.5011090705	-2.0376137308	 0.7804826043	-0.245521
H	 1.0318533906	 1.5510031163	-0.1618904366	 0.130355
H	 0.342299052	 0.4734399268	-1.4097382853	 0.124853
H	-0.6720123398	 1.7365236209	-0.6540371803	 0.106808
H	-2.2703683513	-0.0479947616	 0.3785350588	 0.092667
H	-2.1201048522	-1.7805715922	-1.5328758202	 0.105134
H	-0.475136559	-3.9356787722	 0.481873262	 0.092172
H	 1.2842181954	-1.5873606165	 1.340215929	 0.118856
H	 0.9420625009	-3.0472640376	 2.2960366295	 0.105295
H	 2.1708920212	-3.0678892939	-0.2361153796	 0.292319
H	-2.3336626495	-2.3603344633	 1.3911326763	 0.104413
