15
gdb 34165	3.88692	1.58929	1.39997	3.0803	72.54	-0.2513	0.0094	0.2606	908.0323	0.114785	-379.594952	-379.58875	-379.587806	-379.625466	25.216	
N	 0.0464179948	-1.1190970725	-0.0074065229	-0.341083
C	 0.0214447872	 0.0375461138	 0.0141188075	 0.150925
C	-0.0059366423	 1.4726777124	 0.0493446416	 0.222064
C	-0.4935990127	 2.2981765071	 1.2725366157	-0.281666
C	 0.3274996485	 3.4216174471	 0.625647462	-0.007607
C	 1.292522738	 2.3989505231	-0.0468310028	-0.126951
C	 0.8279186454	 2.9233734493	-1.4256548419	-0.042509
C	-0.4790449036	 2.2686459029	-1.1966260351	-0.101368
N	-0.2717144701	 3.6832356284	-0.7526073615	-0.147634
H	-1.5690848345	 2.43680355	 1.4017339106	 0.125217
H	-0.0330095684	 1.9444165142	 2.1988111137	 0.127817
H	 0.6247318995	 4.3293633126	 1.1455461409	 0.094413
H	 2.2740645623	 2.0857247842	 0.2956179206	 0.100743
H	 1.3324693216	 3.2604643938	-2.3216192433	 0.111539
H	-1.3011111656	 2.0435473735	-1.8626035249	 0.116101
