25
gdb 100946	2.27815	0.99171	0.73998	1.1744	85.62	-0.2439	0.0765	0.3203	1626.3867	0.225823	-426.61758	-426.605666	-426.604722	-426.655036	42.483	
C	 0.2812451494	 0.9881114811	 0.8310547315	-0.391356
C	 0.0315555281	-0.3714845025	 0.1736917116	-0.175613
C	 0.5356928981	-0.4588156835	-1.2731808673	 0.109201
O	 1.9358657259	-0.1551950944	-1.2929720046	-0.254653
C	 2.2901737343	 1.020193076	-1.9871089938	-0.240143
C	 0.3276782167	-1.851259926	-1.9035031417	 0.008388
C	-1.136451981	-2.3109789242	-1.8836728163	-0.406667
C	 0.8759735434	-1.8889661396	-3.3401814296	-0.078178
O	 0.7966787018	-3.1801097568	-3.9316129223	-0.420129
H	 1.3497257974	 1.2171188278	 0.8568975413	 0.129324
H	-0.2277351804	 1.7941524493	 0.2899330747	 0.108316
H	-0.0899845002	 0.9971937999	 1.8603975545	 0.11065
H	 0.5272864888	-1.1581791332	 0.7568984912	 0.099492
H	-1.0402798608	-0.5944387842	 0.1902251818	 0.099931
H	-0.0041801265	 0.2853427242	-1.8819627979	 0.063471
H	 3.3764794205	 1.1223081863	-1.9108615313	 0.123764
H	 2.0186620142	 0.9702958358	-3.0525128802	 0.104812
H	 1.8237891923	 1.9169092241	-1.5545442472	 0.107404
H	 0.9304877611	-2.555523371	-1.3093106089	 0.06708
H	-1.7951314032	-1.5446926385	-2.3113444645	 0.108573
H	-1.2408173536	-3.2136722475	-2.4903371845	 0.130532
H	-1.4905677829	-2.5334947884	-0.8741847369	 0.113436
H	 0.2737877171	-1.2367478538	-3.9851613325	 0.100133
H	 1.9067944704	-1.5149813934	-3.3514215849	 0.101674
H	 1.4069929193	-3.7540644877	-3.4574866123	 0.280558
