23
gdb 101156	2.37898	1.06633	0.87909	2.8421	81.83	-0.2443	0.0633	0.3076	1435.7549	0.203508	-425.406832	-425.395839	-425.394895	-425.442927	40.149	
C	 0.3944598914	 0.9731917214	-0.6813952815	-0.395449
C	-0.1718356388	-0.340022021	-0.1264896657	-0.004864
C	-0.1388135226	-1.4536615057	-1.1879513525	-0.066884
O	-0.8538420598	-1.1190709777	-2.3703646736	-0.423098
C	 0.5788132629	-0.7967511896	 1.112864738	-0.042261
C	 0.2518424488	-0.3148791616	 2.5206551716	-0.071203
C	-0.8722575735	 0.6539512566	 2.8200183752	-0.418788
C	-0.0424562942	-1.7419544741	 2.1055319501	 0.052924
O	-1.3656800959	-2.1254070892	 1.8419692648	-0.417812
H	 1.4671089988	 0.8765012947	-0.8890607912	 0.106955
H	-0.1035449968	 1.2340750444	-1.618551438	 0.123328
H	 0.2656234264	 1.7968687205	 0.0271065918	 0.108496
H	-1.2257143096	-0.1888918043	 0.1355499802	 0.071021
H	 0.8947678411	-1.6298098745	-1.5108992893	 0.099308
H	-0.5139483163	-2.3871459781	-0.7464173833	 0.104331
H	-1.7868573635	-1.0717783736	-2.1383961484	 0.280373
H	 1.6382518811	-0.9653428071	 0.9266417792	 0.080446
H	 1.115863057	-0.1969956231	 3.1704666864	 0.081123
H	-1.7771114223	 0.4117053033	 2.2584429223	 0.128111
H	-1.1286090458	 0.6270361057	 3.88556565	 0.110115
H	-0.5891699464	 1.6838453942	 2.579102319	 0.122235
H	 0.5783476482	-2.5377176005	 2.5171783458	 0.081946
H	-1.8185517302	-2.2363166208	 2.684536379	 0.289644
