14
gdb 465	6.1547	3.46524	2.63178	1.7344	54.16	-0.2491	0.0142	0.2633	528.2233	0.121083	-270.441145	-270.435384	-270.43444	-270.470414	21.367	
O	-0.093836338	 1.4651356746	-0.2323692856	-0.433101
C	 0.0472493738	 0.0739472847	 0.0655342673	 0.107543
C	-1.2968684538	-0.7047768483	 0.1243897755	-0.237358
C	-1.3630293977	-1.5618321457	-1.1662841898	-0.2548
C	 0.0488385497	-1.4978900526	-1.6976158218	-0.053811
C	 0.8180014214	-0.6519665236	-1.0127473919	-0.105077
H	-0.3724508423	 1.5309907194	-1.1526665681	 0.272272
H	 0.5561766875	 0.0649677517	 1.0347872567	 0.085648
H	-1.3056496527	-1.3559821983	 1.0033688115	 0.10529
H	-2.1313703132	-0.0072939339	 0.2284428709	 0.106642
H	-1.6782934188	-2.5911898023	-0.9603223982	 0.109049
H	-2.0784664271	-1.1729337322	-1.9035365613	 0.10633
H	 0.3714928068	-2.0812389801	-2.5540880106	 0.095802
H	 1.8573427345	-0.4251758635	-1.2226912746	 0.095571
