19
gdb 41385	2.57233	1.99321	1.34348	1.3311	81.06	-0.231	0.0054	0.2364	988.8844	0.161051	-385.846595	-385.839451	-385.838507	-385.878026	29.031	
C	 0.1605192408	 1.5941268331	 0.3606531504	-0.225326
C	 1.4416873594	 1.6589587364	-0.5156991194	-0.302853
C	 1.4248097681	 0.1260110525	-0.5946914668	 0.441199
O	 2.0263172676	-0.5058842721	-1.7670703512	-0.336301
C	 3.0842649741	-1.0959036991	-0.942611193	-0.163981
C	 2.223762201	-0.79702555	 0.2605232059	 0.097079
C	 1.5195142097	-1.4174902087	 1.2016308487	-0.170927
C	 0.0810595142	-0.9096306417	 1.2249874579	-0.266076
C	-0.0162632618	 0.0789359075	 0.0246076433	-0.110646
H	 0.3552196364	 1.7632894203	 1.4226557293	 0.103143
H	-0.6566761276	 2.2482397282	 0.0508933673	 0.103075
H	 1.2433133502	 2.0842360191	-1.5040193627	 0.112483
H	 2.3325961752	 2.13751342	-0.0996939838	 0.098254
H	 3.2651536025	-2.1500792032	-1.1745376618	 0.117569
H	 4.0165391441	-0.5269163243	-1.0431351098	 0.10841
H	 1.8294622688	-2.2862347943	 1.7721565915	 0.0971
H	-0.5915162244	-1.7698286394	 1.1114822822	 0.110046
H	-0.2091511473	-0.4228366965	 2.1651385202	 0.107552
H	-0.8534544111	-0.1296326878	-0.6429102783	 0.080201
