19
gdb 70801	2.91285	1.5245	1.2069	3.5367	80.12	-0.23	0.0133	0.2433	1091.6592	0.158076	-385.876917	-385.868492	-385.867548	-385.909417	32.734	
C	 0.0205549705	 1.4682047289	 0.080011368	-0.502953
C	-0.0154219482	-0.029867168	-0.0019033392	 0.339506
C	-1.2474651707	-0.910472559	-0.2496171381	-0.326278
C	-0.3785621988	-2.1114467943	 0.2279356894	 0.174679
C	-0.9605664152	-3.3591858793	 0.82947414	-0.505793
C	 0.595544746	-1.048227242	 0.9037655925	-0.174648
C	 1.2040857965	-0.8260208729	-0.5063485501	-0.24803
C	 0.7121495787	-2.1894772275	-0.8648909973	 0.422
O	 1.1337266492	-3.0925062063	-1.5342743723	-0.352194
H	 0.9991247473	 1.8264942594	 0.4154750391	 0.124164
H	-0.1859664806	 1.921626504	-0.8956962981	 0.128963
H	-0.7313332306	 1.834962099	 0.7873365175	 0.124295
H	-2.0424265429	-0.6780633437	 0.4670503284	 0.099912
H	-1.6642439622	-0.9629739022	-1.2627412423	 0.098904
H	-1.5776555837	-3.8815673696	 0.0906013314	 0.134725
H	-0.1727932471	-4.0501952702	 1.1455097906	 0.131324
H	-1.5903843662	-3.1329017909	 1.6959140906	 0.117137
H	 1.1133137761	-1.0182088722	 1.8509017842	 0.108962
H	 2.1391734218	-0.3415536031	-0.7533859143	 0.105327
