18
gdb 53242	6.75774	0.6362	0.6292	4.4494	87.4	-0.2537	0.023	0.2767	1786.168	0.146942	-364.798138	-364.788548	-364.787604	-364.834992	33.274	
C	 0.5319231695	 1.4530941526	-0.6198152643	-0.498687
C	 0.230505941	 0.0791989789	-0.2445738201	 0.105783
C	-0.0132533375	-1.0608893505	 0.0598941372	 0.029916
C	-0.324015724	-2.4212235143	 0.4444841031	-0.144875
C	-0.229732447	-2.8189811483	 1.9525020223	-0.233436
C	-1.5365568715	-3.6631552361	 1.7869163598	-0.171506
C	-1.8184079568	-2.8768991949	 0.4639643255	-0.23344
C	-1.2941493658	-5.0835621248	 1.5834746449	 0.273462
N	-1.0940892727	-6.2100697354	 1.4138012284	-0.328513
H	 1.3190881567	 1.494508699	-1.380621029	 0.151116
H	-0.3510809385	 1.9563831776	-1.0289999055	 0.149611
H	 0.873974892	 2.0353450623	 0.242970455	 0.14939
H	 0.2614608961	-3.1285366879	-0.1528593364	 0.118405
H	 0.6678708508	-3.3453344115	 2.2775726345	 0.130255
H	-0.4081680921	-1.9611081337	 2.6030657246	 0.123343
H	-2.2810397951	-3.5438515119	 2.5768391367	 0.125576
H	-2.48894039	-2.036956384	 0.6534353752	 0.123351
H	-2.179822315	-3.4491536471	-0.390620362	 0.130249
