16
gdb 25626	3.53929	0.98189	0.77236	2.6075	88.56	-0.1812	0.0116	0.1928	1441.9815	0.124213	-400.767113	-400.758032	-400.757088	-400.802236	32.608	
C	 0.0048020067	 1.4544873511	 0.0190026036	-0.509116
C	 0.0166604552	 0.000237102	 0.0046040265	 0.1643
C	 0.0163621052	-1.2102746585	-0.0090093462	-0.125724
C	 0.0660484316	-2.6120249645	-0.016818257	 0.083922
C	 1.165755068	-3.4494848768	 0.1486584662	 0.228347
O	 2.4498283611	-3.0665242496	 0.3571274067	-0.444145
C	 0.7272182814	-4.7901672661	 0.063899918	-0.221337
C	-0.636332271	-4.7482505261	-0.15244628	-0.087136
N	-1.0308911106	-3.44656789	-0.2005951966	-0.321202
H	 0.6369528351	 1.8751275976	-0.7719748124	 0.147689
H	-1.0113483753	 1.8330913692	-0.1392550389	 0.151577
H	 0.3573372976	 1.8555596757	 0.9766354082	 0.147682
H	 2.4699831392	-2.101639205	 0.3711552066	 0.29557
H	 1.3411609232	-5.6717470903	 0.1516412805	 0.104751
H	-1.3471990316	-5.5495010099	-0.2744596246	 0.120196
H	-1.9684873457	-3.1177462491	-0.3459905405	 0.264625
