17
gdb 14201	3.65732	2.3013	2.10902	1.1294	66.78	-0.2163	0.0678	0.2842	731.0648	0.144454	-363.797131	-363.791006	-363.790061	-363.826881	25.696	
O	-0.1394135565	 1.3742287598	-0.0307088914	-0.486355
C	-0.0327898258	-0.0119785199	 0.0169844012	 0.383626
C	 0.4566145522	-0.8026626911	 1.2661392641	-0.306025
C	-0.3663500268	-1.9182398414	 0.6222906436	 0.013006
C	-1.3625303358	-0.8845456322	 0.0367397713	-0.079602
C	-1.3715009863	-1.7322580127	-1.227804017	-0.188519
N	 0.0558815809	-2.1190592361	-0.8774918367	-0.15218
C	 0.7132457536	-0.7924497433	-1.0872375046	-0.222285
H	 0.7468179068	 1.7489534331	-0.0808103592	 0.281138
H	 1.5317947762	-0.9280413797	 1.428883251	 0.092941
H	-0.0342519255	-0.4637935239	 2.183021441	 0.107292
H	-0.6412952477	-2.8504695633	 1.1097410437	 0.082675
H	-2.2251802581	-0.4766839336	 0.5637271972	 0.075104
H	-2.024896489	-2.6055127666	-1.1444592122	 0.105918
H	-1.4944607993	-1.2727649492	-2.2137323243	 0.100407
H	 0.5303303554	-0.4241411023	-2.0997964791	 0.102227
H	 1.7930111458	-0.8533968475	-0.9186018783	 0.090633
