17
gdb 43690	5.31536	0.68711	0.65837	3.1833	75.26	-0.2763	0.0154	0.2916	1651.1209	0.136072	-418.027798	-418.019108	-418.018164	-418.062334	31.106	
N	 0.0744805894	 1.154810958	 0.8418382919	-0.531652
C	-0.0069670038	 0.0842364904	 0.1994985358	 0.444294
C	-1.1306426469	-0.8623407757	-0.1677118171	-0.387894
C	-0.0119055444	-1.6691409899	-0.8610599483	 0.121809
C	-0.0586774713	-1.8029498385	-2.3700814217	-0.206907
C	 1.2975860266	-2.2698989854	-2.9362555114	-0.339752
C	 1.2810599889	-2.3926120148	-4.3912731358	 0.25756
N	 1.247950236	-2.4865537484	-5.5423973788	-0.299882
O	 0.9716265898	-0.6629693753	-0.4355317767	-0.268205
H	 1.034961935	 1.499743775	 0.8784814873	 0.232528
H	-1.6173246929	-1.3448932263	 0.6807440393	 0.144774
H	-1.8877373825	-0.4388252008	-0.8305313675	 0.142588
H	 0.2228890585	-2.6256816578	-0.3819991085	 0.099059
H	-0.8439143023	-2.5176647109	-2.6406940593	 0.131264
H	-0.3278475688	-0.8393240596	-2.8151549586	 0.132289
H	 2.0772279947	-1.5577492976	-2.6462569313	 0.174803
H	 1.5770928338	-3.2397522922	-2.5078975293	 0.153323
