17
gdb 108958	3.40936	1.27571	1.21259	0.6932	68.58	-0.2118	0.044	0.2558	1088.3963	0.136817	-455.130298	-455.121979	-455.121035	-455.163231	30.991	
C	-0.0480356524	 1.3365832571	-0.0981252669	-0.233098
O	-0.0874156895	-0.0916193823	-0.0234728267	-0.255824
C	-1.303063921	-0.6250001412	 0.0633515251	 0.484338
N	-2.4204231405	 0.0152590994	 0.0930458676	-0.389468
C	-3.4426561509	-1.0086831606	 0.0646454573	-0.085704
C	-3.4845165948	-1.8642279644	-1.1828642905	 0.09292
O	-2.7742160685	-1.4872245664	-2.3183474986	-0.433319
C	-2.7369892678	-2.3726814176	 0.0391815912	-0.087126
N	-1.3507947333	-2.0027348282	 0.1570567093	-0.349122
H	 1.0063125834	 1.5984014778	-0.1894145818	 0.1331
H	-0.6101147533	 1.6919342117	-0.966103553	 0.135565
H	-0.4779266105	 1.7802700763	 0.8033942353	 0.145883
H	-4.3510098028	-0.8074723611	 0.620279426	 0.095042
H	-4.4308288795	-2.3593347308	-1.3901089056	 0.096593
H	-2.6868488589	-0.5258514539	-2.2899032885	 0.292701
H	-3.0583399284	-3.2550217472	 0.5800019991	 0.101526
H	-0.6406902813	-2.5328763788	-0.3267452093	 0.255992
