18
gdb 70234	4.07118	1.08474	0.94814	1.9954	88.71	-0.2218	-0.021	0.2009	1265.0808	0.147175	-364.773457	-364.76511	-364.764166	-364.805991	32.787	
C	-0.07065871	 1.5650494279	 0.0777338492	-0.496998
C	 0.0944355771	 0.07022203	-0.0024149656	 0.313416
N	-0.7664822664	-0.825553965	 0.8323843104	-0.364675
C	 0.6952437098	-0.7885241656	 1.0591394771	-0.107204
C	 1.444046597	-1.9352678004	 0.3965880614	-0.321596
C	 1.1741147768	-1.70823028	-1.0908684591	 0.179364
C	 0.4535118615	-0.5911612877	-1.2926998172	-0.219216
C	 1.634925511	-2.6092942573	-2.0786555282	 0.219265
C	 2.0558376737	-3.4005258109	-2.8849014926	-0.420427
H	 0.8039075361	 2.0814214638	-0.3320912513	 0.129397
H	-0.9487348592	 1.89626844	-0.4886183828	 0.12842
H	-0.1985668659	 1.8913425912	 1.1150858697	 0.115692
H	-1.2114094531	-0.2563008309	 1.5524167055	 0.221935
H	 1.0677440464	-0.363919093	 1.9857837777	 0.086395
H	 2.5190028194	-1.9030135597	 0.6110956635	 0.113948
H	 1.0739005675	-2.9128173328	 0.7234051619	 0.129834
H	 0.1421450963	-0.220786924	-2.2618331377	 0.101804
H	 2.416280372	-4.0903352155	-3.6068901818	 0.190646
