21
gdb 30908	1.93822	1.72323	0.99066	3.6623	86.45	-0.2026	0.038	0.2406	1262.9637	0.182632	-383.325546	-383.315552	-383.314608	-383.360889	35.57	
C	 0.1608215074	 1.7039940147	 0.035834623	-0.369484
C	 0.0294722962	 0.1694127486	-0.0065381598	-0.302771
C	 0.6343191068	-0.466338441	-1.218465627	 0.191679
C	 0.0873430788	-0.8630201664	-2.4196256055	 0.207471
C	-1.3376785854	-0.7902404318	-2.8671727277	-0.489851
N	 1.0635081574	-1.3778821726	-3.2472598517	-0.328762
C	 2.1781310815	-1.2941688006	-2.5630762609	-0.016989
N	 1.9906342309	-0.7491618934	-1.3273020215	-0.036629
C	 3.0122538498	-0.5580329838	-0.3204138499	-0.344826
H	 1.2093239834	 2.0187479151	 0.0322063811	 0.115496
H	-0.3208258983	 2.156246359	-0.8359503433	 0.127465
H	-0.3080434312	 2.111143122	 0.9375802592	 0.112498
H	 0.468500224	-0.2573800247	 0.9047654304	 0.100247
H	-1.0320843736	-0.0970545263	 0.0242278575	 0.117065
H	-2.0003651287	-0.4757223113	-2.0559862305	 0.111166
H	-1.460382484	-0.0802542982	-3.6933003729	 0.129093
H	-1.6804889857	-1.7647946729	-3.2301424215	 0.132153
H	 3.1558877992	-1.6123378998	-2.8967731209	 0.11768
H	 3.1316775514	 0.4995050943	-0.0644517275	 0.141667
H	 2.7773729289	-1.1127368263	 0.5938894671	 0.141904
H	 3.9624626911	-0.9275512247	-0.7109619176	 0.143732
