24
gdb 123067	3.45531	0.53113	0.49252	2.9667	91.25	-0.2407	0.0331	0.2738	2371.2553	0.215096	-405.553509	-405.542115	-405.541171	-405.591763	39.799	
C	-0.8707402838	 1.2965055964	 0.618904392	-0.378083
C	-0.375432814	-0.1325972299	 0.3811206751	-0.168832
C	-1.4566424657	-1.04990405	-0.2007555113	-0.169306
C	-0.9544514934	-2.4720996261	-0.4353815133	-0.093888
O	-1.9405155083	-3.2930712004	-1.0598984154	-0.201206
C	-2.8018617848	-3.9342895033	-0.2387410689	 0.123313
N	-3.776461262	-4.5664119363	-0.7168597613	-0.229447
C	-4.6869938141	-5.2948508018	 0.149708675	-0.108633
C	-4.4550517721	-5.2664367407	 1.6647528157	-0.395636
H	-0.0785583885	 1.9287697255	 1.0313279074	 0.114377
H	-1.2133465977	 1.7561556611	-0.31443148	 0.118876
H	-1.7104585783	 1.3122450443	 1.3222771534	 0.11643
H	 0.4874333509	-0.1130521701	-0.2976981752	 0.100279
H	-0.0075746398	-0.5543129398	 1.3260885687	 0.097018
H	-2.3219773974	-1.0809702987	 0.4746607488	 0.098752
H	-1.8215430307	-0.6486301221	-1.1539168626	 0.113961
H	-0.0990955142	-2.4707986299	-1.1180137476	 0.117654
H	-0.6239232067	-2.92948357	 0.5085269316	 0.10088
H	-2.5402791541	-3.8501534844	 0.8247592357	 0.071627
H	-5.6979548843	-4.9231683473	-0.0652281072	 0.110949
H	-4.689267806	-6.3383179247	-0.1935217036	 0.111526
H	-5.2267189918	-5.860013393	 2.1642406842	 0.114657
H	-3.4826229585	-5.6903320807	 1.9379462709	 0.117991
H	-4.5077621547	-4.248869578	 2.0669959878	 0.11674
