17
gdb 76768	2.34224	1.74378	1.38909	1.015	62.76	-0.2526	0.0384	0.2911	973.1419	0.13522	-496.052354	-496.044152	-496.043207	-496.085135	31.466	
O	 0.4603134699	 1.0913065897	-0.3280783844	-0.440435
C	 0.08074003	-0.2249285133	-0.0098667051	 0.089608
C	 0.1958863263	-0.5366360084	 1.5301353008	 0.003295
O	 0.7851437171	 0.4822719841	 2.2817775815	-0.435677
C	-1.3555516061	-0.7059388182	 1.6054768388	 0.342016
O	-1.8770001527	-1.8518106001	 2.1972928944	-0.483763
C	-2.1211286389	 0.6223073196	 1.7553342677	-0.142858
O	-2.0953005724	 0.8403345751	 0.3092444811	-0.308673
C	-1.4576247305	-0.4349730316	 0.0743514381	-0.000425
H	-0.362826569	 1.6071895148	-0.264215685	 0.300079
H	 0.6174673988	-0.9240720809	-0.6550990292	 0.092024
H	 0.6872917026	-1.4982969291	 1.7310351955	 0.078169
H	 1.0088814069	 1.1695265544	 1.6323087437	 0.291657
H	-1.3983731267	-2.0160765501	 3.0171715085	 0.290276
H	-3.148265685	 0.4849273904	 2.1073752998	 0.118136
H	-1.6219824129	 1.4241932685	 2.3061981401	 0.119166
H	-1.9766727875	-1.0496268149	-0.6622475365	 0.087405
