18
gdb 44956	2.57844	1.76815	1.5564	2.7563	70.42	-0.2228	-0.0173	0.2054	935.9383	0.151158	-439.104022	-439.097101	-439.096157	-439.135252	28.088	
O	-0.0064699266	-0.0007409426	 0.0472514131	-0.324308
C	-0.0363336766	 1.2002375485	 0.0227402599	 0.436987
C	-1.2793219317	 2.1026806686	-0.0203925157	-0.334663
C	-0.6639944361	 3.519013627	 0.0511199763	-0.03194
C	-0.3666670045	 3.9276904917	 1.4991409478	-0.05876
O	 0.3676650777	 2.910899746	 2.1703869084	-0.262729
C	 1.5320441476	 2.5093006355	 1.4579914641	-0.06588
C	 1.1751431509	 2.158968677	 0.0046433056	-0.144554
N	 0.6596505605	 3.3942802791	-0.6148163641	-0.309019
H	-1.8076432322	 1.948887522	-0.9681171273	 0.124156
H	-1.9639440992	 1.8412209578	 0.7905567091	 0.13664
H	-1.2680322524	 4.2872947039	-0.4367115785	 0.080701
H	 0.1935061603	 4.8744316505	 1.4941642892	 0.100469
H	-1.289170825	 4.0614586348	 2.071567019	 0.109655
H	 2.2850673893	 3.3116913843	 1.4520785512	 0.102707
H	 1.9287005688	 1.6385786468	 1.98641522	 0.124895
H	 2.0345713992	 1.743618485	-0.5243613969	 0.093924
H	 0.5234417898	 3.2423792343	-1.6115200512	 0.221719
