17
gdb 51756	2.6865	1.04986	0.81183	3.4357	75.27	-0.2469	-0.0248	0.2222	1373.626	0.13309	-421.776443	-421.767131	-421.766186	-421.812373	32.401	
O	-0.2505854066	 0.0754793876	-0.0139428257	-0.241192
C	-0.0685904181	 1.264049127	-0.0890521224	 0.153331
C	 1.2971185705	 1.9206255535	-0.0878590019	-0.296853
C	 1.4837266764	 2.8278783611	-1.2993407943	 0.12204
O	 0.518864171	 3.9015945791	-1.3407246278	-0.287411
C	 1.5403980529	 4.9132990156	-1.2860344521	-0.074701
C	 2.6730421234	 3.8475206343	-1.2849559897	-0.264724
C	 3.5835623333	 3.8406854174	-0.1611660505	 0.343442
C	 4.331310174	 3.844067274	 0.7806455151	-0.463762
H	-0.9187197203	 1.9753902387	-0.1630269449	 0.098841
H	 1.3871158217	 2.5275285752	 0.8223787238	 0.13055
H	 2.06703165	 1.1440412841	-0.0650039636	 0.127326
H	 1.4446261924	 2.2371720778	-2.2233668033	 0.095875
H	 1.519555568	 5.5693305855	-2.1631005731	 0.113952
H	 1.4789192371	 5.517466062	-0.374790597	 0.118277
H	 3.2329909699	 3.8287928753	-2.223260148	 0.118974
H	 4.9984547444	 3.8452630518	 1.6071489054	 0.206035
