17
gdb 35708	2.4395	1.5731	1.13769	1.5341	73.53	-0.2519	0.0368	0.2886	1090.4758	0.1346	-421.740556	-421.732157	-421.731213	-421.77396	31.002	
C	-0.1666087662	-1.2695838845	-0.1988505993	-0.462699
C	-0.0881130214	-0.0796457952	-0.0478285168	 0.351792
C	-0.0056953085	 1.3529422588	 0.1278465688	-0.248498
C	 0.3254168287	 1.939171718	 1.5263658319	-0.081684
O	 1.3265812208	 2.8111350467	 0.9602115597	-0.283396
C	 1.2863592677	 2.1261765461	-0.3038213475	 0.087994
C	 2.5211034107	 1.2968018985	-0.5520794686	 0.051443
C	 3.7891419611	 1.6281749617	 0.1089406709	-0.17249
O	 2.9932915337	 0.5206389443	 0.5444937197	-0.228615
H	-0.2241030873	-2.3226390095	-0.3229515602	 0.200224
H	-0.8911074977	 1.835225394	-0.2956363005	 0.114541
H	-0.4749354164	 2.4989389055	 2.0198495453	 0.1099
H	 0.7642393508	 1.2105228073	 2.2143406135	 0.127739
H	 1.1430227921	 2.8228588705	-1.1399977152	 0.087577
H	 2.5421184109	 0.787430836	-1.5168126392	 0.09954
H	 4.7296522416	 1.3658724865	-0.3725170251	 0.113551
H	 3.8144005194	 2.4703364153	 0.7954541526	 0.133078
