21
gdb 52142	5.50092	0.6794	0.67053	2.8244	84.83	-0.2479	-0.0191	0.2289	1708.8666	0.18257	-387.046869	-387.038178	-387.037234	-387.081781	32.239	
O	-0.6618592393	 0.9534614475	 1.0336745539	-0.236963
C	-0.0574748168	 1.1379421933	 0.0088953755	 0.157505
C	 1.2661015609	 1.856365168	-0.1050894758	-0.265147
C	 1.1869879626	 3.0565343778	-1.0703157668	-0.268212
C	 2.534249211	 3.7524459031	-1.2215907454	 0.07794
C	 3.6948747454	 3.1536156995	-2.0876276047	-0.04762
C	 2.9236408708	 3.6070164258	-3.3624089154	-0.222381
C	 2.8094769626	 4.7918339212	-2.3573587063	-0.066259
C	 4.3232417	 4.577236462	-2.0665266438	-0.216453
H	-0.4653151043	 0.778255467	-0.9664307584	 0.06768
H	 1.5848585508	 2.1636835503	 0.8953415587	 0.120674
H	 2.0020875269	 1.13656423	-0.4919095141	 0.119751
H	 0.7958596924	 2.717207315	-2.0352995154	 0.103427
H	 0.4586314168	 3.77959921	-0.6809720643	 0.112231
H	 2.8720310352	 4.0963621924	-0.2356919892	 0.063594
H	 4.2155456708	 2.2066191662	-1.9329574494	 0.067636
H	 3.5325670357	 3.7893286389	-4.2520989256	 0.091797
H	 2.0110631273	 3.0712639485	-3.6274087875	 0.091283
H	 2.2977708503	 5.7432673252	-2.5131657915	 0.069319
H	 4.6963800338	 4.9374308801	-1.103676509	 0.08972
H	 5.0129779572	 4.8149990181	-2.8803654857	 0.090478
