18
gdb 55785	3.93939	0.89526	0.87964	3.2115	75.19	-0.235	0.0039	0.2389	1366.8146	0.147471	-439.122474	-439.113322	-439.112378	-439.157714	32.503	
N	 0.6852841981	-0.0256908861	 0.5156343098	-0.507718
C	-0.2327027813	 0.1812066063	-0.4689312161	 0.387314
O	-0.1670014358	 1.1005881366	-1.2582865892	-0.355781
C	-1.4049185877	-0.8201833031	-0.4782691412	-0.412408
C	-1.061358569	-2.2177185211	-0.0691133474	 0.288893
C	-1.4094208986	-2.879480317	 1.0342391281	-0.223463
C	-0.8401402933	-4.2691577922	 1.0077381722	-0.101856
O	-0.0520058843	-4.3257739816	-0.178614035	-0.262528
C	-0.2174709264	-3.129050761	-0.9295713581	-0.147124
H	 1.4596079578	 0.6120783671	 0.5945173764	 0.262838
H	 0.613530071	-0.8039641376	 1.1480486364	 0.259853
H	-2.1774192232	-0.4130523844	 0.1842348644	 0.133464
H	-1.8071877338	-0.7897741443	-1.4953331804	 0.139141
H	-2.0377509531	-2.5092665497	 1.8355807834	 0.105094
H	-0.2057009225	-4.4925036189	 1.879087384	 0.106972
H	-1.6304846772	-5.0379204944	 0.9812500133	 0.107143
H	-0.7118833855	-3.3400071024	-1.8930072192	 0.106518
H	 0.7684181951	-2.6992761461	-1.1615991815	 0.113647
