25
gdb 121101	4.54518	0.67471	0.61824	1.4278	89.42	-0.2608	0.0795	0.3403	1881.8005	0.229569	-389.510548	-389.500181	-389.499237	-389.546533	38.347	
C	-0.2181709512	 1.5320397767	 0.0356688208	-0.408086
C	 0.0582117222	 0.0301393425	 0.0200216271	 0.052107
C	 0.8666536734	-0.4540633904	-1.2066261309	-0.214568
C	 1.6033826961	-1.7460709968	-0.7545208789	-0.217537
C	 1.3123479535	-1.9040848843	 0.7659014429	 0.037214
C	 2.463550889	-2.4921452675	 1.5845879332	-0.192736
C	 2.8014335477	-3.9329796557	 1.2223178044	-0.077257
O	 3.8523343304	-4.3632247667	 2.0763993722	-0.421309
C	 0.8855198777	-0.4924571195	 1.2043560145	-0.220685
H	 0.7192304244	 2.1010656982	 0.0378055148	 0.110387
H	-0.7919423526	 1.8421243477	-0.8445712331	 0.109889
H	-0.7885731425	 1.8258330783	 0.9234369433	 0.109532
H	-0.9048452095	-0.500464786	 0.0285465847	 0.066461
H	 0.2292186887	-0.614252263	-2.0813018687	 0.092065
H	 1.5935887044	 0.3169841841	-1.4885144608	 0.093567
H	 1.2783998795	-2.624541859	-1.3195001227	 0.094511
H	 2.6821918222	-1.6512018168	-0.9226446715	 0.095876
H	 0.4381728237	-2.561465199	 0.8813610222	 0.064395
H	 3.3642973264	-1.878369415	 1.4533096043	 0.098888
H	 2.21754331	-2.4615345325	 2.6532539412	 0.099959
H	 1.9055857085	-4.5647908924	 1.3454576405	 0.080489
H	 3.1007267834	-3.9973004588	 0.1641392563	 0.086388
H	 4.0871866007	-5.2633556895	 1.8334226396	 0.28354
H	 1.7744399445	 0.1406758448	 1.3415805472	 0.088041
H	 0.3358150893	-0.4886431195	 2.1514921673	 0.088871
