16
gdb 23473	3.12071	1.36294	1.04042	0.8509	68.99	-0.2545	-0.0113	0.2433	1112.4893	0.124679	-474.954759	-474.947098	-474.946154	-474.987122	29.173	
O	-0.0492711959	 1.3320228195	 0.0613030366	-0.387793
N	 0.0409309419	-0.0621796708	 0.1027959106	-0.209645
C	-1.1009433463	-0.6278118761	 0.0207103624	 0.396068
C	-2.4543077259	 0.0425849582	-0.0659730941	-0.192954
O	-3.3632692459	-0.5840881683	 0.8263405428	-0.248282
C	-3.6494736832	-1.9328511123	 0.5033868479	-0.101263
C	-2.4092456046	-2.7802874767	 0.264186699	 0.020042
O	-1.8483453048	-2.7090588444	-1.0482307282	-0.255195
C	-1.115543792	-2.1088787853	 0.0381474921	-0.036206
H	 0.8687916792	 1.6002531163	 0.1747908097	 0.312201
H	-2.379621007	 1.0853032415	 0.240100039	 0.146193
H	-2.8244751074	 0.0027963487	-1.1027323978	 0.118506
H	-4.2127583339	-2.3270440009	 1.3541943301	 0.117543
H	-4.2887753727	-1.9936621458	-0.3925908703	 0.108518
H	-2.4121105843	-3.7813386689	 0.6947437763	 0.104386
H	-0.1788295971	-2.5959870448	 0.2964762939	 0.107882
