18
gdb 85187	2.16746	1.70144	1.1323	1.2509	71.18	-0.2516	-0.0405	0.2111	1095.2065	0.146901	-439.053203	-439.044544	-439.0436	-439.087327	32.188	
O	 0.1259522976	 1.355706139	-0.2818562909	-0.427552
C	 0.044009088	-0.0010447184	 0.0658220635	 0.123975
C	 0.0021414333	-0.3496305825	 1.5904010208	-0.385433
C	-1.3500615948	-1.0341145508	 1.3627481107	 0.385163
O	-2.138458858	-1.5837710869	 2.0800262599	-0.298028
C	-1.3515613341	-0.7074560264	-0.1458621468	-0.198392
C	-2.461883025	 0.1862630331	-0.6430936941	-0.009147
C	-3.8680094027	 0.0240511761	-0.2126029837	-0.249202
N	-3.089576826	 1.1955468346	 0.2459921537	-0.344348
H	-0.6976740852	 1.7962557202	-0.0388485385	 0.299278
H	 0.8606869361	-0.497381412	-0.4616585075	 0.100515
H	 0.7910491279	-1.0061129221	 1.9689562065	 0.138401
H	-0.0547920782	 0.5285556337	 2.2431568943	 0.136858
H	-1.2923354319	-1.6107231931	-0.7642734417	 0.109202
H	-2.2811873981	 0.5791634767	-1.6414505558	 0.115302
H	-4.6719723625	 0.2516306883	-0.9061045005	 0.12476
H	-4.0826625619	-0.7517655451	 0.5159445895	 0.145147
H	-2.8209934546	 1.0277132554	 1.2140977706	 0.233502
