18
gdb 41309	3.11696	2.09722	1.75974	1.3725	73.67	-0.2123	0.0655	0.2778	841.95	0.150383	-401.832405	-401.826243	-401.825299	-401.862393	27.006	
C	-0.0088429437	 1.5339192167	-0.2615039535	-0.310407
C	 1.4795544685	 1.6095109809	 0.2635563343	-0.31698
C	 1.3010620929	 0.1692302423	 0.7921616764	 0.346137
O	 0.590869763	 0.0570043865	 2.0504181103	-0.33711
C	-0.3302670203	-0.7872785426	 1.2798478375	 0.007933
C	 0.5647943489	-2.0293237902	 1.0338062516	-0.178459
C	 1.5852583386	-1.2557626953	 0.1612581487	-0.127731
N	 0.6771119536	-0.929128938	-1.006894653	-0.373418
C	 0.0318997975	 0.0046966675	-0.0187228977	 0.222132
H	-0.7177256879	 2.0509497228	 0.3870572852	 0.128373
H	-0.1853700426	 1.8465317078	-1.2932846248	 0.111666
H	 2.2246592473	 1.6990275618	-0.5304386472	 0.112774
H	 1.6922001115	 2.3547884001	 1.0311468182	 0.126386
H	-1.3142682063	-0.9050041226	 1.7341559227	 0.080305
H	 0.9608992149	-2.3958998759	 1.9820463484	 0.108142
H	 0.0977013342	-2.8303433348	 0.4590708364	 0.112616
H	 2.5558088406	-1.7088975568	-0.0409876496	 0.071907
H	 1.1884094591	-0.3540197903	-1.6759461138	 0.215735
