21
gdb 114708	2.62936	1.37119	1.10843	2.9864	82.07	-0.2312	-0.011	0.2202	1197.5623	0.183417	-387.11847	-387.109773	-387.108829	-387.152052	33.33	
C	 0.1479166826	 1.287728461	-0.4468295244	-0.384881
C	 0.2727115733	-0.1998871415	-0.1064788756	-0.191952
C	 0.713715913	-0.4736677339	 1.3492807413	-0.095023
C	 0.6479249149	-1.960599187	 1.7907098863	-0.263566
C	 2.0880987678	-2.4253076144	 2.0187547534	-0.035422
C	 3.0217647428	-2.3068315917	 0.8614778549	-0.288506
C	 3.0079939258	-1.2201998671	 1.9334905617	-0.134094
C	 2.1639223508	-0.0247637986	 1.6355800635	 0.407849
O	 2.538885056	 1.1239744345	 1.6688285177	-0.341799
H	 1.0900120485	 1.8140229615	-0.2791430275	 0.14867
H	-0.1466608258	 1.4220891476	-1.4923787347	 0.10653
H	-0.6121813237	 1.7679213233	 0.1795003563	 0.112726
H	-0.694498618	-0.694464437	-0.2607194329	 0.099023
H	 0.9696433697	-0.6819522881	-0.8039598376	 0.100271
H	 0.0777507503	 0.137954211	 1.99946262	 0.102141
H	 0.0851732408	-2.0513509433	 2.7247699143	 0.107009
H	 0.1371843903	-2.585902633	 1.0499612337	 0.103008
H	 2.271078487	-3.1985024753	 2.756035562	 0.093407
H	 3.9065672195	-2.9335935665	 0.8518296817	 0.124839
H	 2.6277430579	-2.0827917801	-0.1239543336	 0.125338
H	 3.8929829565	-1.0813053415	 2.5412502797	 0.104431
