13
gdb 9032	4.77627	0.88377	0.76814	2.1718	69.59	-0.2812	-0.0781	0.2031	1377.0642	0.093182	-361.449479	-361.440719	-361.439775	-361.484438	28.618	
C	 0.2247924699	 1.4154024294	 0.0923478536	-0.384874
C	-0.079344205	-0.1006657392	-0.0276339554	-0.314136
C	-1.531481628	-0.34673467	-0.0038558191	 0.29359
N	-2.6724695375	-0.5203559214	 0.0320675524	-0.309006
C	 0.5361038509	-0.6844152528	-1.2186020078	 0.164122
C	 1.0834870732	-1.1390894555	-2.1923368441	 0.002028
C	 1.7031290738	-1.700611445	-3.3703292212	 0.028033
O	 2.8813119127	-1.6118585282	-3.6225922011	-0.220064
H	 1.3055442235	 1.5661853646	 0.1208101438	 0.149838
H	-0.1861290378	 1.9549293099	-0.7628187684	 0.156272
H	-0.2202472915	 1.8103348154	 1.0080321085	 0.148659
H	 0.3441462291	-0.6053388193	 0.8519394363	 0.172753
H	 0.9997554367	-2.2315864679	-4.0417101376	 0.112785
