14
gdb 25849	3.9806	1.31655	0.98934	4.8421	70.94	-0.2442	-0.0582	0.186	1109.214	0.103489	-432.951697	-432.944266	-432.943322	-432.984148	27.405	
N	-0.1002004023	 1.3142120592	 0.0104168005	-0.532428
C	 0.0578345817	-0.0344577255	 0.0027579363	 0.349687
O	 1.127515054	-0.6050738093	-0.0089041411	-0.341429
C	-1.2687067525	-0.7895295598	 0.0107917586	 0.268166
N	-2.3884369879	-0.0548096036	 0.0209641152	-0.295043
C	-3.5423819709	-0.7225557477	 0.0274980164	 0.008729
C	-3.5885806645	-2.1109365391	 0.0240612714	-0.129775
C	-2.3632311341	-2.7700577477	 0.0133691568	 0.013263
N	-1.1998931436	-2.1203508869	 0.0066395045	-0.248332
H	 0.719727408	 1.8957759577	 0.002514314	 0.262106
H	-1.0244518739	 1.7114061729	 0.0161718476	 0.270351
H	-4.4516155288	-0.1259504115	 0.0357289731	 0.126022
H	-4.5280983475	-2.6499551692	 0.0294341965	 0.120555
H	-2.3106880578	-3.8566548396	 0.0100699201	 0.128128
