16
gdb 17323	2.7156	2.46528	1.71909	0.7999	63.96	-0.2069	0.0722	0.2791	801.6407	0.129304	-383.647632	-383.640322	-383.639378	-383.678548	28.972	
O	-0.0190581942	 1.4856110444	-0.1523940036	-0.417491
C	-0.1198259087	 0.0960787456	 0.0103056749	 0.006072
C	-0.4849986987	-0.6853657329	 1.2573601032	-0.188401
C	-1.6809320893	-0.1514975734	 2.0907252746	-0.05332
C	-2.3039384742	 1.1312093591	 1.5958619503	-0.305685
C	-2.5693812276	-0.1567164511	 0.8622363136	-0.124021
C	-1.3825533358	-0.6956707751	 0.0101984884	 0.345617
O	-1.5846215618	-1.7545476383	-0.8589083323	-0.45191
H	 0.7440539992	 1.7827619661	 0.3559390114	 0.286473
H	 0.6404634392	-0.4568273901	-0.5488181474	 0.09624
H	 0.1721411353	-1.4621113936	 1.629282245	 0.093989
H	-1.9069123678	-0.5599688188	 3.0669706486	 0.090235
H	-3.1437672057	 1.463668042	 2.2012517787	 0.104953
H	-1.7167334149	 1.9210035224	 1.152024048	 0.138188
H	-3.5526764151	-0.5964748311	 0.7582567029	 0.092233
H	-1.8530731498	-1.3930731951	-1.7121947162	 0.286827
