18
gdb 126660	6.53605	0.69868	0.64015	1.9495	75.06	-0.2284	-0.0076	0.2207	1726.8189	0.148374	-435.27257	-435.263634	-435.26269	-435.307507	31.534	
C	-0.0360889311	 1.5218789592	 0.0681831439	-0.380904
C	-0.0914782878	 0.0008341822	-0.0905646221	-0.195839
C	 0.8305647402	-0.5015366649	-1.1999281595	-0.114168
N	 0.7498065363	-1.9500267271	-1.3227469767	-0.395085
C	 1.3589317964	-2.6006434433	-2.347391361	 0.472488
N	 1.8396811175	-2.0025131373	-3.4192430831	-0.23325
O	 2.3023381738	-3.0941327246	-4.1971812301	-0.163505
C	 2.0540674577	-4.1858459089	-3.4855593232	 0.119442
N	 1.4827188078	-3.9810815671	-2.3438859409	-0.338535
H	 0.9769675058	 1.8603305085	 0.3107147488	 0.120845
H	-0.3427451301	 2.0269973418	-0.8538762892	 0.12349
H	-0.7004692191	 1.857951309	 0.8692343134	 0.11902
H	 0.1912677499	-0.4777325743	 0.8573894523	 0.096428
H	-1.1165532408	-0.3211312465	-0.3078948621	 0.112779
H	 0.5387136332	-0.0689844973	-2.1627782373	 0.136932
H	 1.8653518184	-0.1739214528	-1.0122517254	 0.106381
H	 0.6965151421	-2.4859912056	-0.4700335486	 0.252468
H	 2.3465294498	-5.132573701	-3.9171665391	 0.161014
