18
gdb 47434	2.74448	1.41353	1.09192	2.8053	71.42	-0.2441	-0.0327	0.2114	1132.2343	0.148474	-439.073126	-439.064979	-439.064035	-439.106552	30.138	
O	-0.1316386695	 0.0234669084	 0.4570492479	-0.304581
C	-0.0779005013	 1.1762310466	 0.1242626669	 0.375283
C	-1.2363951088	 2.1052204454	-0.2293316429	-0.33795
C	-0.6028930265	 3.4871574828	-0.0825288857	-0.09616
O	 0.7995584767	 3.3174156019	-0.362042678	-0.275448
C	 1.2097240796	 2.0007584527	-0.0249060875	-0.024983
C	 2.0746156688	 1.9469246388	 1.2290911489	-0.000399
C	 3.1864948795	 2.9070940456	 1.4029651346	-0.248135
N	 1.9743892557	 3.0031783252	 2.2430773448	-0.320379
H	-1.5255503342	 1.9042642743	-1.2678662985	 0.143924
H	-2.1031195421	 1.9238564058	 0.4079651983	 0.142519
H	-0.9833253095	 4.230228745	-0.7863353201	 0.124548
H	-0.7457729156	 3.8729277933	 0.9370314527	 0.108188
H	 1.7809910246	 1.5865817723	-0.8682396504	 0.11922
H	 2.1665632475	 0.9394382415	 1.6283130423	 0.114814
H	 4.0894506459	 2.6076278767	 1.9269022238	 0.120439
H	 3.3264000934	 3.656387426	 0.6285506804	 0.121732
H	 1.403544856	 3.7568788277	 1.8650299524	 0.237369
