21
gdb 87975	3.85862	0.98179	0.88537	1.7917	78.81	-0.2535	0.0687	0.3222	1378.9302	0.181842	-424.227423	-424.218233	-424.217289	-424.261619	34.975	
C	 0.1632468792	 1.4707858819	-0.3398457095	-0.422493
C	 0.0345795774	 0.0077787472	-0.0010305049	-0.003933
O	 1.2483631547	-0.7462283731	 0.1170438546	-0.299623
C	 0.4329261943	-0.5746694104	 1.2881428377	 0.416561
C	 1.0599982508	 0.2091913455	 2.45376352	-0.300881
C	 0.7062521621	-0.6062213789	 3.7142969013	-0.249979
C	 0.4987753039	-2.0431767507	 3.1965707509	 0.124965
O	-0.2867883635	-2.8671505932	 4.0387395937	-0.43709
C	-0.2207950162	-1.8264265972	 1.8628025734	-0.286571
H	 0.9563284761	 1.9457281811	 0.2422135067	 0.126348
H	 0.3988470586	 1.5967339648	-1.4018275902	 0.128617
H	-0.7787200638	 1.9946192482	-0.1423524928	 0.1196
H	-0.7489358366	-0.516809649	-0.5544929549	 0.081288
H	 2.1416481054	 0.2524774227	 2.2932250178	 0.119962
H	 0.701918473	 1.2406431478	 2.5132868466	 0.106606
H	 1.4681431374	-0.5357208967	 4.4966961031	 0.090867
H	-0.2439641117	-0.2686762325	 4.1442428387	 0.106735
H	 1.4801894778	-2.5080885699	 3.0072396951	 0.073003
H	 0.2020515973	-3.014983963	 4.8542803788	 0.281293
H	-1.2813726353	-1.6461306845	 2.0795549699	 0.110107
H	-0.1493316709	-2.6714968302	 1.1755428739	 0.114619
