16
gdb 50846	2.19129	1.2376	0.85678	3.8932	68.31	-0.2771	-0.0276	0.2495	1306.1492	0.122575	-475.018498	-475.009612	-475.008668	-475.05342	30.852	
N	-0.0956755378	 1.7404114064	-1.5183700857	-0.471415
C	-0.0509067614	 0.6560194636	-0.8769737449	 0.391955
C	-1.2843175961	-0.2165433714	-0.7536948516	-0.330803
C	-2.1912150486	 0.205145699	 0.3868988765	 0.095288
C	-3.0213296224	-0.764973252	 1.1083753417	-0.182109
O	-1.831590036	-0.2321336214	 1.7021389769	-0.219534
O	 1.1467475276	 0.2173735719	-0.3324474309	-0.209945
C	 1.2174327284	-0.6256858502	 0.7502707755	 0.133463
O	 2.268379938	-1.0617088783	 1.1023620699	-0.249258
H	 0.8101573872	 2.2126351045	-1.4944995738	 0.23801
H	-1.8377475441	-0.0900044622	-1.6882738786	 0.154903
H	-1.0200280457	-1.2727944657	-0.6535809604	 0.126529
H	-2.5212796563	 1.2421971273	 0.3395975265	 0.125078
H	-3.9522285463	-0.444166687	 1.5713867787	 0.1311
H	-2.9743776878	-1.8182552459	 0.8362947478	 0.125088
H	 0.2499694014	-0.8057523883	 1.2388543722	 0.14165
