21
gdb 40913	3.54059	1.41049	1.35449	1.4122	81.72	-0.2323	0.0903	0.3225	1057.0584	0.184852	-387.064289	-387.057067	-387.056122	-387.095714	30.273	
C	 0.1564001955	 1.3835978165	 0.4780992964	-0.220543
C	 1.459130935	 1.5968439628	-0.3415384247	-0.297945
C	 1.3683318698	 0.1209360532	-0.8007263509	 0.493543
C	-0.1132744121	 0.0978089677	-0.3516054958	-0.297946
O	 1.6321806182	-0.1464800035	-2.1924027233	-0.332573
C	 2.6229388545	-1.1862065236	-2.1205696542	 0.106816
C	 2.0519386229	-2.1433821966	-1.0455373539	-0.244453
C	 2.3275236468	-0.8895441712	-0.1545703379	-0.118633
C	 3.599035322	-0.6684652058	-1.0356263492	-0.244453
H	 0.3589934633	 1.1640269377	 1.5296421809	 0.101135
H	-0.5957875266	 2.1729315265	 0.4289534918	 0.100999
H	 1.3055478445	 2.2663900108	-1.1918948063	 0.111197
H	 2.3631231239	 1.9038125904	 0.1924614197	 0.092385
H	-0.4666129376	-0.793883787	 0.1743445174	 0.092385
H	-0.7690076283	 0.2886348374	-1.2051774104	 0.111197
H	 2.9169422616	-1.4878510533	-3.1246904847	 0.077372
H	 1.0198370954	-2.4774274391	-1.1733613259	 0.101158
H	 2.7103714979	-2.9815849447	-0.8108539887	 0.09787
H	 2.3575122288	-0.9283154266	 0.9340634849	 0.071459
H	 4.4032687135	-1.3676690882	-0.8000070903	 0.09787
H	 3.9828013211	 0.3473004464	-1.1543807149	 0.101158
