14
gdb 130622	4.79704	1.26172	1.01148	1.3672	67.64	-0.2573	-0.0416	0.2157	1074.21	0.102398	-436.703029	-436.69638	-436.695436	-436.734467	25.429	
O	-0.0257517022	 0.0495551935	 0.0049926405	-0.281264
C	-0.0179326864	 1.2465473312	 0.0109864551	 0.404985
C	-1.2987333323	 2.1422802532	 0.033039976	-0.475257
C	-0.6751282695	 3.4889325183	 0.0308951969	 0.393342
C	 0.6816292959	 3.5127862469	 0.0123245872	 0.159014
C	 1.2628041222	 2.1355645513	-0.0022829798	-0.475178
C	 0.9746300206	 4.9006647128	 0.0148465812	-0.120634
N	-0.1206008258	 5.628494523	 0.0333523654	-0.136531
O	-1.1932704807	 4.7143767648	 0.0438097427	-0.225907
H	-1.9221792223	 1.9255493667	-0.841660702	 0.160162
H	-1.8976632299	 1.9170524332	 0.9226051251	 0.160156
H	 1.8810430925	 1.8857796524	 0.867879474	 0.148984
H	 1.8570036112	 1.8942539024	-0.8913721446	 0.148992
H	 1.9267072969	 5.4124104402	 0.0041502623	 0.139135
