17
gdb 112996	3.47955	1.07688	0.87691	4.2131	72.61	-0.2636	-0.0362	0.2273	1285.0641	0.136374	-455.15969	-455.150967	-455.150023	-455.193695	31.216	
O	-0.3618457157	 1.6217434829	-0.0845701424	-0.418527
C	-0.0509617963	 0.2681873621	-0.3122751612	-0.065788
C	-1.2782212612	-0.6109959551	-0.057966307	-0.124514
C	-1.0872039754	-2.1545627961	 0.0987646367	-0.218665
N	-1.5511394496	-2.0075373836	 1.4956448814	-0.105433
C	-1.6639208767	-2.8636893232	 2.5571611082	 0.138773
O	-2.0028573841	-2.5164238135	 3.6661478907	-0.299043
C	-1.6949018175	-0.6065960499	 1.405628859	 0.415546
N	-1.9571374657	 0.3271157697	 2.2106386318	-0.558326
H	-0.7635523375	 1.6789066182	 0.7955289582	 0.30396
H	 0.2766388944	 0.1822580525	-1.3540591733	 0.111708
H	 0.7810649637	-0.079318578	 0.3246161495	 0.087074
H	-2.0866268472	-0.3324797878	-0.7375389698	 0.119579
H	-1.7372270741	-2.778156045	-0.5189505891	 0.132939
H	-0.0523995065	-2.5010675726	 0.0221246006	 0.131386
H	-1.4149460543	-3.9082383227	 2.2878219523	 0.094829
H	-2.1307387363	-0.0263303979	 3.1523334645	 0.254504
