12
gdb 133309	2.39222	1.91582	1.06457	3.4504	65.7	-0.2326	-0.0867	0.1458	1000.1803	0.076033	-510.038355	-510.030743	-510.029799	-510.070492	28.359	
N	 0.0560397643	 1.3820784042	-0.14663488	-0.567079
C	-0.0441175031	 0.0197512289	-0.0599423359	 0.304138
C	-1.1983679531	-0.6842182287	-0.0311949698	 0.112648
F	-2.3666448792	-0.0518060852	-0.0225777412	-0.04986
C	-1.1923255244	-2.1222263241	-0.0041995897	 0.354474
N	-2.2261613201	-2.8505265182	 0.0243377924	-0.534859
O	 0.094847441	-2.6677893056	-0.0110286494	-0.285358
N	 1.2762111957	-1.8837572608	-0.0173211665	 0.052222
N	 1.1806250525	-0.6531231797	-0.0434898845	-0.173463
H	 0.9379118024	 1.7691946735	 0.1522269644	 0.27524
H	-0.762447792	 1.9116061278	 0.1085161701	 0.275831
H	-1.9775064941	-3.8394049321	 0.04236018	 0.236067
