12
gdb 27615	3.511	1.29156	0.94422	3.2333	71.92	-0.2719	-0.0872	0.1847	1115.58	0.079867	-431.733851	-431.72701	-431.726066	-431.765366	25.444	
O	 0.1090477317	 1.3221184674	 0.0813384968	-0.407021
C	 0.0699615465	-0.0162901244	 0.0369897215	 0.405104
N	 0.0788016889	-0.6166966897	-1.1391411297	-0.394904
C	 0.0380555903	-1.960389803	-1.1201184903	 0.197996
C	-0.0107398907	-2.6818021485	 0.0702475946	-0.059632
N	-0.0190834572	-2.0579599196	 1.2550216124	-0.221106
C	 0.0206812907	-0.7367347413	 1.2485631228	-0.054401
C	 0.0463751391	-2.645814637	-2.3828826907	 0.249328
N	 0.0517733543	-3.2277672375	-3.3823865311	-0.315224
H	 0.1393982399	 1.6379120823	-0.8335202038	 0.312307
H	-0.0431673368	-3.7656091049	 0.0679402281	 0.14353
H	 0.0147281636	-0.2113863939	 2.1986883695	 0.144024
