20
gdb 51092	3.39701	1.25812	1.15951	3.4968	79.3	-0.2461	0.0295	0.2756	1135.1238	0.173366	-403.170497	-403.162532	-403.161588	-403.203502	31.199	
O	-0.1798715948	 0.0367523097	-0.2384196603	-0.328176
C	-0.0304179182	 1.2283633362	-0.063395464	 0.134963
N	 1.1673928636	 1.8502131586	 0.0943631215	-0.412598
C	 2.4336277688	 1.1679747192	 0.0199521837	 0.434577
C	 2.959474048	 0.5058827847	-1.2925564882	-0.249969
C	 4.3257791207	 0.663520161	-0.567124571	-0.017223
C	 3.7500955103	 1.9866103811	 0.0211429765	-0.294465
C	 4.1733163372	-0.3088985708	 0.621250356	-0.21159
C	 2.7262080275	 0.0717932765	 1.0709916083	-0.246197
H	-0.8769968772	 1.9432219463	-0.0121149652	 0.072209
H	 1.1707379079	 2.8551268	 0.1698244852	 0.244847
H	 2.6038260381	-0.4984072032	-1.5307337467	 0.10971
H	 2.8562088618	 1.1677966882	-2.1553862542	 0.092706
H	 5.2684960471	 0.652274464	-1.1122854612	 0.064987
H	 3.7388631084	 2.7987517904	-0.7111914965	 0.094688
H	 4.1342679307	 2.3421233174	 0.9825946409	 0.091885
H	 4.2554990248	-1.3542280938	 0.3109300805	 0.101317
H	 4.9183372934	-0.1300191886	 1.4018947012	 0.0952
H	 2.6843403975	 0.4710115344	 2.0886925932	 0.090958
H	 2.0129814544	-0.7487653712	 0.9912250002	 0.13217
