17
gdb 70497	2.69871	1.53502	1.11524	4.8763	80.46	-0.2505	-0.0442	0.2063	1093.7463	0.13702	-380.879506	-380.871543	-380.870598	-380.911828	30.526	
C	-0.0617281386	 1.5452582959	-0.009346384	-0.500499
C	 0.0846209814	 0.0476167064	-0.006896969	 0.196463
N	-0.7642558057	-0.8042062382	 0.8675327124	-0.357694
C	 0.6997628121	-0.7693750695	 1.0776139573	-0.089724
C	 1.4271307055	-1.9552550376	 0.454821376	-0.260634
C	 1.1348578055	-1.8018385998	-1.0184082061	-0.170497
C	 0.4218893874	-0.694715088	-1.2787905312	 0.220247
C	-0.0036368242	-0.2554125748	-2.5601982325	 0.201229
N	-0.3601434764	 0.1458846029	-3.5872418446	-0.348861
H	 0.820123844	 2.0279464391	-0.4428132836	 0.136598
H	-0.932158607	 1.8535535281	-0.5981507836	 0.147538
H	-0.1884179136	 1.9226037078	 1.0100504611	 0.118344
H	-1.2077388816	-0.2105393077	 1.5673326176	 0.229903
H	 1.089286757	-0.3071403924	 1.9783825568	 0.095794
H	 2.50691037	-1.9251810582	 0.6506670924	 0.121492
H	 1.0575383787	-2.9126846009	 0.8410136473	 0.135908
H	 1.4490625456	-2.5221657632	-1.7640191263	 0.124394
