20
gdb 111263	2.85748	1.31291	1.05574	3.4964	80.67	-0.2268	0.0205	0.2473	1224.8831	0.1699	-403.151479	-403.142096	-403.141152	-403.185939	34.421	
C	-0.1120895305	 1.5718998195	-0.3766893383	-0.38557
C	 0.0738399337	 0.0908453489	-0.0282976026	-0.159255
N	 0.6449467583	-0.721864608	-1.0863095527	-0.090691
C	 0.2487634476	-0.8652446096	-2.4910751761	-0.056442
C	 1.0169473103	 0.080349422	-3.3724987748	-0.333508
C	 1.6847776891	-1.1951980876	-2.854447333	 0.164542
C	 2.2748433137	-2.2649605162	-3.7236687353	-0.495197
C	 1.9883296289	-0.9610385603	-1.3671846817	 0.364292
O	 2.9663899007	-0.956151492	-0.6679537275	-0.371268
H	 0.8476062351	 2.0471404433	-0.6015374159	 0.129864
H	-0.7702919735	 1.6981305155	-1.2418331484	 0.123886
H	-0.5636376155	 2.101888611	 0.4679754075	 0.119588
H	 0.7521010309	-0.0165801784	 0.8241057842	 0.138365
H	-0.8874081702	-0.3444735181	 0.2709234898	 0.108253
H	-0.6539603057	-1.3949965565	-2.7679656146	 0.111068
H	 0.776952113	 0.05968231	-4.4332152546	 0.118526
H	 1.3101908305	 1.0558385037	-2.996929114	 0.123231
H	 1.7456555071	-2.3367520998	-4.6790513338	 0.119594
H	 3.3266198275	-2.0500008365	-3.9402330929	 0.139069
H	 2.229839089	-3.2436130208	-3.2350366353	 0.131652
