11
gdb 8789	3.2202	1.70875	1.12431	3.5208	53.87	-0.3035	-0.1285	0.175	960.827	0.069708	-434.56575	-434.557539	-434.556595	-434.599661	26.356	
C	 0.7866121207	 1.2749237603	-0.0377947293	-0.253659
O	 0.9813525927	-0.0678892878	-0.520854537	-0.22777
C	-0.0344733092	-0.5888083225	-1.207915309	 0.399122
O	-1.0793942152	-0.0620488366	-1.4618625521	-0.324609
C	 0.3047425335	-2.0231400995	-1.6637591976	 0.185171
O	-0.4746112045	-2.6763710085	-2.2987475171	-0.219264
C	 1.6248075382	-2.5466428076	-1.2826074278	 0.269802
N	 2.6547654803	-2.9894245869	-0.9998887817	-0.300697
H	 0.6169376812	 1.9530269896	-0.877023369	 0.15799
H	-0.0749837821	 1.3096477697	 0.6325471191	 0.157999
H	 1.7023988843	 1.5319248898	 0.4914766014	 0.155915
