17
gdb 46664	3.05177	1.74591	1.34942	1.5795	73.99	-0.236	0.0137	0.2497	954.9348	0.139044	-417.905444	-417.898861	-417.897917	-417.936313	26.969	
N	-0.0365418374	 1.2917952033	 0.1432599927	-0.548777
C	-0.0394985217	 0.0384112778	 0.0155020737	 0.295405
O	 1.0991298113	-0.7548022231	-0.0221784624	-0.269605
C	 0.8190191229	-2.1704028857	-0.292915473	-0.143976
C	-0.6109482499	-2.1369929676	-0.8261464955	 0.019102
N	-1.9556929002	-2.6989543941	-0.2349910059	-0.177138
C	-1.5724747979	-1.9143130869	 1.0291981568	-0.200007
C	-1.168460538	-0.9263727767	-0.0987185656	 0.227687
C	-2.5267692156	-1.3337707361	-0.7205619016	-0.244073
H	 0.9206273585	 1.6464804919	 0.2014587712	 0.225443
H	 1.5476290814	-2.496004426	-1.0376597052	 0.125987
H	 0.974953137	-2.7424946428	 0.6244721769	 0.130287
H	-0.6431203022	-2.1305290948	-1.9182325497	 0.093336
H	-2.4295662348	-1.6372849379	 1.646038701	 0.113707
H	-0.7992675131	-2.3869683022	 1.6345856883	 0.11502
H	-2.6305390782	-1.2608899789	-1.8050183166	 0.118713
H	-3.442916532	-1.0503705304	-0.1997512451	 0.118889
