15
gdb 26963	3.28959	1.41627	1.05622	1.3107	68.25	-0.1998	0.0151	0.215	1080.5642	0.11395	-453.948692	-453.941101	-453.940157	-453.981132	28.4	
N	-0.5494084259	 0.6932636682	 1.2582870657	-0.608447
C	-0.2586916364	-0.2834503387	 0.3310100069	 0.29072
C	-0.9921805845	-0.9411510781	-0.6144205113	 0.186014
N	-0.1761627489	-1.896256012	-1.2209199029	-0.312323
C	 0.9618769253	-1.7763325263	-0.6336718593	 0.047081
O	 0.9949926564	-0.8096343024	 0.33601879	-0.171926
C	-2.3952220541	-0.7172927164	-1.0030100262	-0.044933
C	-3.5174405831	-0.8125725879	-0.0508488821	-0.177348
O	-3.0098665626	 0.4657207848	-0.4550231512	-0.247625
H	 0.2097188454	 1.3424259087	 1.4207114159	 0.257534
H	-1.4142988047	 1.1630363196	 1.0158327754	 0.273555
H	 1.8788177817	-2.3159862019	-0.8033231995	 0.147318
H	-2.6140772938	-0.8948013704	-2.0553272482	 0.113755
H	-4.5172688912	-1.044570781	-0.4140909986	 0.122783
H	-3.3129317338	-1.0886803864	 0.9816568556	 0.123842
