17
gdb 48198	2.18152	1.40204	1.01314	3.1876	74.28	-0.2498	-0.0344	0.2154	1198.4582	0.133125	-421.774035	-421.764727	-421.763783	-421.809733	32.39	
O	-0.1528878328	 0.1799472928	 0.4836492068	-0.247575
C	-0.0300342329	 1.2563128963	-0.0351838234	 0.165867
C	 1.3173549266	 1.9966848895	-0.0900722604	-0.281694
C	 1.3851084868	 2.8924988948	-1.2353210096	 0.319821
C	 1.4131063959	 3.6217765789	-2.1904680116	-0.458046
C	 1.5142411439	 2.7203165943	 1.2650257212	 0.151506
C	 2.665623367	 3.7390225085	 1.3930787238	-0.31248
C	 1.538503821	 4.7519533641	 1.6823624039	-0.055641
O	 0.5237401192	 3.7404978128	 1.4846270427	-0.292159
H	-0.883440754	 1.8008240836	-0.4867464092	 0.109938
H	 2.0943397785	 1.2242938512	-0.1541382751	 0.131392
H	 1.4426564386	 4.2618301526	-3.0376542537	 0.204718
H	 1.4817771942	 1.9540143652	 2.0499302894	 0.099298
H	 3.3655557425	 3.5516983592	 2.2079774757	 0.116255
H	 3.2145149084	 3.9204011357	 0.4684787655	 0.126709
H	 1.5150388012	 5.1534214551	 2.7021249576	 0.107381
H	 1.4335732958	 5.5733941054	 0.9660209666	 0.11471
