19
gdb 6165	3.47753	1.51169	1.32899	3.1744	73.32	-0.2395	0.0152	0.2547	1029.6492	0.162607	-365.080876	-365.07149	-365.070546	-365.114835	33.644	
C	-0.0759830244	 1.37861536	-0.1707495649	-0.476728
C	-0.0079938853	-0.1340047019	-0.0535762741	 0.373844
O	 0.9540105258	-0.7869949148	-0.3987748775	-0.348251
N	-1.1111610541	-0.7126569321	 0.5595615318	-0.098177
C	-2.5100527622	-0.5780979652	 0.2082491574	-0.297812
C	-1.8111238389	-1.9173628694	 0.1590800517	 0.318167
C	-1.5023294859	-2.5191696939	-1.1980725891	-0.441623
C	-2.0612795778	-2.9194088249	 1.268562917	-0.444461
H	 0.9293241549	 1.7688845271	-0.3299288789	 0.1463
H	-0.6981807832	 1.6597732012	-1.0282185749	 0.136994
H	-0.5213560025	 1.8276680568	 0.7207277704	 0.138106
H	-3.1904480009	-0.3453849321	 1.0245622437	 0.117925
H	-2.7568083735	-0.1037951991	-0.7399362562	 0.118855
H	-1.4152087526	-1.7506979006	-1.9702632645	 0.118833
H	-0.5557311432	-3.0652324306	-1.1687312244	 0.147821
H	-2.2973110431	-3.2132110734	-1.4898132515	 0.115389
H	-2.9258183333	-3.5489792859	 1.0323957571	 0.118134
H	-1.1920183764	-3.5729957075	 1.3960031349	 0.132691
H	-2.2466083334	-2.4118436036	 2.218310492	 0.123995
