16
gdb 52579	2.29858	1.07148	0.73597	6.0071	89.42	-0.1954	-0.0095	0.1859	1497.9594	0.12362	-396.943238	-396.933058	-396.932114	-396.979281	35.787	
C	-0.0361037678	 1.4715583078	 0.0026483981	-0.507804
C	 0.0093003677	 0.0171339315	-0.0185441367	 0.199448
C	 0.0191291877	-1.1916255649	-0.0400848225	-0.144494
C	 0.0504753296	-2.608857257	-0.0691487081	-0.080681
C	-1.1462654339	-3.3589720231	-0.2012296313	 0.171725
N	-2.0921511714	-4.0263331063	-0.3030394662	-0.381853
C	 1.2455188326	-3.3025226344	 0.0211209795	 0.366453
N	 2.4534353764	-2.6577064733	-0.0021774591	-0.575242
N	 1.3075748783	-4.6662190449	 0.1432351281	-0.566837
H	 2.0864382878	-5.1154320251	-0.315956606	 0.261318
H	 0.4278770572	-5.1492629686	 0.0224861822	 0.282703
H	 0.5614701975	 1.9105576057	-0.8047957877	 0.144916
H	-1.0661078681	 1.8227256469	-0.1246545088	 0.158197
H	 0.3333227356	 1.8783006308	 0.951268357	 0.144709
H	 2.3840083004	-1.651331889	 0.065087313	 0.26759
H	 3.1834007104	-3.0627897062	 0.5654203585	 0.25985
