12
gdb 9995	3.46203	1.33108	0.99615	4.1961	58.26	-0.2965	-0.0676	0.2289	1079.8169	0.080813	-414.652829	-414.644441	-414.643496	-414.687322	27.002	
N	-0.2359705167	 1.3585967831	-0.2516332046	-0.417203
C	-0.1024858627	 0.1123000797	-0.1976166728	 0.137214
O	-1.1987149716	-0.6573153139	 0.0669780167	-0.186561
C	-1.0073557418	-2.0576482889	 0.0954252796	-0.134252
C	-2.1570987551	-2.6419396032	 0.9480137071	 0.1547
O	-2.5304625566	-3.7734960147	 0.8673956785	-0.205036
C	-0.9534279195	-2.6502962194	-1.2472539353	 0.300239
N	-0.8928078024	-3.0955748242	-2.3106360423	-0.295576
H	 0.6570740407	 1.8074958938	-0.4431645743	 0.246152
H	 0.8165037576	-0.4713133185	-0.3350132237	 0.11091
H	-0.074258283	-2.3158295039	 0.6231567958	 0.158981
H	-2.5690784088	-1.8951416298	 1.6558734254	 0.130432
