16
gdb 34614	3.28254	1.36862	1.06453	3.4989	76.61	-0.2645	-0.0474	0.2171	1095.0156	0.126301	-400.759979	-400.752728	-400.751784	-400.792009	27.424	
N	 0.017118937	-1.0810654548	 0.3027050059	-0.333334
C	-0.0426703334	 0.068338895	 0.1699283489	 0.198515
C	-0.0671235244	 1.4802608931	 0.0019597228	 0.20716
C	-1.173848591	 2.2384256099	-0.0459870481	-0.14891
C	-0.8681938536	 3.698918898	-0.2480836081	-0.275248
C	 0.663710462	 3.7563577081	-0.1530145506	 0.112601
O	 1.1315690244	 3.9809359458	 1.1946662323	-0.288259
C	 1.8418027546	 2.7235093226	 1.2172634206	-0.077102
C	 1.1986419303	 2.2991091567	-0.1230961137	-0.194785
H	-2.1816335312	 1.8491477432	 0.0402021414	 0.125575
H	-1.24601105	 4.0543194512	-1.2159267386	 0.121731
H	-1.3185378568	 4.3337472773	 0.5238841201	 0.139339
H	 1.1256996282	 4.4533676258	-0.8597066164	 0.082991
H	 2.928185249	 2.8683892605	 1.1644554953	 0.108175
H	 1.5962513012	 2.1223696168	 2.0990543955	 0.119228
H	 1.8745535039	 1.9474390307	-0.9038578574	 0.102325
