17
gdb 62268	3.19282	0.89041	0.73519	3.8341	66.79	-0.241	-0.0546	0.1863	1470.7117	0.131475	-496.092186	-496.082329	-496.081385	-496.128542	33.725	
O	 0.0290391643	 1.0924749883	-1.101282308	-0.429022
C	 0.0975860126	-0.1627070053	-0.4816937519	 0.032906
C	 1.0248441719	-1.1124728654	-1.2639637352	-0.091618
O	 0.5385774361	-1.4156208696	-2.5509566298	-0.244127
C	 0.7735707308	-0.4528851485	-3.5609313314	-0.155729
C	-0.4327436896	 0.4405611805	-3.8341597659	 0.159011
O	-0.4087226393	 1.3453343815	-4.62440587	-0.244123
C	 0.5599787665	-0.019443814	 0.9532579622	 0.133737
O	 0.83092872	 1.0599672295	 1.4212458521	-0.252502
H	 0.2978142579	 1.7406113993	-0.4302375762	 0.301069
H	-0.9005563919	-0.6354247605	-0.4541345256	 0.108553
H	 2.0278293262	-0.6633468704	-1.318611968	 0.10991
H	 1.0992632739	-2.068956281	-0.7333601132	 0.112168
H	 1.6406466343	 0.1813127348	-3.3398773899	 0.131358
H	 0.9896686366	-1.0019041508	-4.486992628	 0.13615
H	-1.3483918759	 0.1550730702	-3.2727983113	 0.085228
H	 0.6359002058	-0.9509601985	 1.54927731	 0.10703
