21
gdb 63034	3.42634	1.23362	1.15684	1.5165	83.57	-0.2208	0.08	0.3008	1187.219	0.180624	-387.036401	-387.027556	-387.026612	-387.069206	35.015	
C	-0.0154604942	 1.5504702201	 0.0370578068	-0.46109
C	 0.0406908962	 0.0374405495	 0.0592004525	 0.292678
C	-1.1594140622	-0.6556560167	-0.5633476753	-0.456915
C	 1.3355360852	-0.7040913404	-0.1247987059	 0.042562
O	 2.4600261649	 0.0169084328	 0.3978591234	-0.314947
C	 1.9020561619	-0.0863122403	 1.7210182183	 0.46036
C	 2.7554825693	-0.4725067569	 2.8819088806	-0.347742
C	 2.1685654373	 0.9314531205	 2.7779537107	-0.332581
C	 0.6433004463	-0.748979635	 1.2240738544	-0.267882
H	 0.9277417519	 1.9882474674	 0.3664821135	 0.139755
H	-0.2144044531	 1.9076576225	-0.9801018272	 0.110352
H	-0.8178884153	 1.9247979012	 0.6828234515	 0.109393
H	-1.2983556447	-0.3353580195	-1.601943549	 0.118809
H	-1.0458598885	-1.7450429171	-0.559952511	 0.113613
H	-2.0772597877	-0.4162227144	-0.0144631321	 0.119538
H	 1.5334899573	-1.461979433	-0.8750832609	 0.098966
H	 2.3451202904	-1.1544106045	 3.6199701193	 0.114048
H	 3.8181056718	-0.5845442695	 2.6964754514	 0.125477
H	 2.8535829045	 1.7341910068	 2.5266479815	 0.12495
H	 1.3632319405	 1.2140252007	 3.4476533742	 0.117175
H	 0.1236395481	-1.5578299343	 1.721998263	 0.093482
