17
gdb 62998	2.21234	1.57489	1.23351	1.9188	68.68	-0.244	-0.0309	0.213	1061.2087	0.132594	-458.925607	-458.916799	-458.915854	-458.959331	32.692	
C	-0.0658292184	 1.5512439509	 0.0179578572	-0.471173
C	 0.0162125685	 0.0355702934	 0.0133570272	 0.364719
O	-1.2353370169	-0.576193156	 0.2082483698	-0.46929
C	 0.6820381458	-0.6385660757	-1.2020453105	 0.010305
O	 2.0370908705	-0.1902233964	-1.2411200132	-0.246712
C	 1.7029502106	-1.2825257783	-0.3694343821	-0.008801
C	 1.1569983129	-0.6626949465	 0.9243252932	-0.174019
C	 2.0780800688	 0.22770435	 1.7099404663	 0.136911
O	 1.9062095999	 0.5076591119	 2.8724549445	-0.263255
H	 0.8901503847	 1.9892716527	-0.2789957414	 0.142982
H	-0.8406076583	 1.8832730616	-0.6798389414	 0.127859
H	-0.3135271943	 1.9253153417	 1.0183016489	 0.128841
H	-1.6488507275	-0.1806684636	 0.9836662674	 0.289135
H	 0.2119840206	-0.9410621807	-2.1301806352	 0.116751
H	 2.2437402919	-2.2108064453	-0.5075865192	 0.116904
H	 0.6615524696	-1.377068898	 1.5839142071	 0.105829
H	 2.9305172317	 0.6493311582	 1.1355317813	 0.093014
