17
gdb 24337	3.60394	1.5252	1.10333	1.0062	82.05	-0.2071	-0.0058	0.2013	1060.9974	0.139651	-384.740024	-384.733313	-384.732368	-384.770985	27.31	
C	-0.0491663923	 1.4966632693	 0.0758787775	-0.265698
C	 1.359611072	 2.1272712463	-0.0154753147	-0.337491
C	 2.1806212897	 1.4285096618	-1.057677343	 0.177157
C	 3.2143661969	 1.8078008043	-1.845963455	-0.137631
O	 3.6715335398	 0.7501304005	-2.5821214458	-0.154081
C	 2.9096700833	-0.3257872501	-2.2464573455	-0.130492
C	 1.9754485751	 0.0238730071	-1.3191090968	 0.199636
C	 0.9068298185	-0.6985725546	-0.6543220667	-0.157885
C	-0.0318351919	-0.0154984461	 0.0164954611	-0.086467
H	-0.5419662121	 1.8336984232	 0.9939509992	 0.103142
H	-0.6707892179	 1.8711042905	-0.7519706647	 0.11686
H	 1.2842155003	 3.2021185442	-0.2069778882	 0.106481
H	 1.853809414	 2.0172310151	 0.9600609301	 0.116486
H	 3.7334869604	 2.7393123301	-2.0017730791	 0.134365
H	 3.1423778	-1.2438479032	-2.7606899166	 0.136206
H	 0.8716087727	-1.7816755906	-0.7208820829	 0.088215
H	-0.8487767984	-0.5445641176	 0.4984164211	 0.091199
