14
gdb 11206	3.58282	1.8079	1.43294	4.5172	59.45	-0.2394	-0.0469	0.1926	860.991	0.108115	-415.881901	-415.8748	-415.873856	-415.913798	25.479	
N	-0.215465922	 1.1479293778	 0.3469631454	-0.580258
C	-0.0704063576	-0.0616689361	 0.0221277869	 0.465022
N	-1.0227005553	-0.8373704077	-0.6360692109	-0.323264
C	-0.6739828002	-2.2329480796	-0.5168722004	-0.097183
C	 0.8544053212	-2.1295190064	-0.311981057	-0.107239
O	 1.0475055527	-0.8293619017	 0.2409253933	-0.240146
C	-1.3889335482	-2.9493597421	 0.626120459	 0.154768
O	-2.2627304788	-2.4497360771	 1.2822001133	-0.230235
H	 0.6282440357	 1.5028901097	 0.7905287002	 0.227355
H	-1.9773094708	-0.5831172006	-0.4224784546	 0.269441
H	-0.8948371684	-2.8020817196	-1.4314754131	 0.116544
H	 1.2532801449	-2.8752410341	 0.3816345315	 0.127868
H	 1.3866871849	-2.2079090684	-1.2658570357	 0.13023
H	-1.0547664181	-3.9992879541	 0.7936751921	 0.087096
