16
gdb 9176	8.65477	0.85196	0.7832	1.9084	68.35	-0.2564	0.0102	0.2667	1445.2163	0.128759	-417.100759	-417.091395	-417.090451	-417.135711	31.003	
C	 0.1469101998	 1.3676389099	 0.0718515702	-0.332899
N	-0.0820921439	-0.0619674072	 0.0417129692	-0.358389
C	-1.3231087819	-0.5974524513	 0.0292652805	 0.536228
O	-2.372519381	 0.0007932782	 0.0411088131	-0.397937
O	-1.2015076194	-1.9746050465	 0.0001451461	-0.250306
C	-2.3615797335	-2.7024445707	-0.0161743933	 0.120558
N	-2.2843387139	-3.9539952217	-0.0427043749	-0.203581
C	-3.5339563539	-4.6894103318	-0.0593771982	-0.317193
H	 0.7041203814	 1.6995263531	-0.8108828478	 0.132944
H	-0.826892806	 1.857956863	 0.0804764054	 0.173306
H	 0.7013900315	 1.6623744068	 0.9693480357	 0.132945
H	 0.6941190751	-0.7027277706	 0.0292009723	 0.26334
H	-3.262755639	-2.0851669798	-0.0038006695	 0.133209
H	-4.4313038463	-4.0514590027	-0.0466012831	 0.104757
H	-3.5699471024	-5.3220769306	-0.9531057289	 0.131511
H	-3.5715049866	-5.3595264782	 0.8065576132	 0.131507
