14
gdb 132068	2.42048	1.86649	1.05489	3.1379	71.9	-0.1902	-0.0237	0.1665	1028.5394	0.103129	-474.196654	-474.189275	-474.188331	-474.228262	28.887	
N	 0.0265288527	 1.4002062361	 0.1514414681	-0.59539
C	-0.0001102125	 0.027070725	 0.0562599994	 0.148347
C	-1.1301672245	-0.7349799339	 0.0259493985	 0.243599
F	-2.3161251605	-0.1139882503	 0.0261135656	-0.082587
N	-1.1877104861	-2.0859602156	-0.004992024	-0.312145
C	-0.0529090579	-2.7015714944	-0.0157407994	 0.074368
N	 1.1497103239	-2.0523044132	-0.0058080129	-0.366932
C	 1.2835551062	-0.6587221688	 0.0152563606	 0.341434
N	 2.3820612129	 0.0086085027	-0.005305315	-0.574235
H	 0.9186415752	 1.7925828675	-0.118890743	 0.271107
H	-0.7883200179	 1.8827577939	-0.1930747204	 0.256065
H	-0.0108421163	-3.7854521011	-0.0335599876	 0.136657
H	 1.9982737232	-2.5989756436	-0.0289088208	 0.25873
H	 3.2068353916	-0.5881139942	-0.0460566092	 0.200983
