20
gdb 116237	2.04949	1.57471	1.01115	1.6065	78.65	-0.2389	0.0196	0.2585	1243.9817	0.170362	-440.291078	-440.281397	-440.280453	-440.326659	33.901	
C	 0.063974396	 1.0207144319	-0.4265302994	-0.240686
O	-0.080671099	-0.2677646354	 0.1457059195	-0.25821
C	 0.6825942501	-0.4626799841	 1.3269409679	 0.019337
C	 0.291932375	-1.8190625008	 1.9108457984	-0.261774
C	 1.2004607006	-2.7725682047	 1.1246632373	-0.077984
O	 2.3962816408	-2.0187288054	 0.8521616714	-0.257106
C	 2.1535375075	-0.6796706209	 0.9934935023	 0.438552
N	 3.0116841474	 0.2334724977	 0.8494801297	-0.328516
C	 4.3726295531	-0.1388023073	 0.4850696498	-0.331396
H	 1.1046694737	 1.2371512862	-0.6929414572	 0.136338
H	-0.55792396	 1.0357905654	-1.3246147134	 0.122639
H	-0.2858566288	 1.802071138	 0.2654159436	 0.105131
H	 0.5559108255	 0.3814119532	 2.0151325426	 0.086412
H	 0.5344035965	-1.8501950104	 2.9770905932	 0.116547
H	-0.7706101424	-2.0268010094	 1.7781828306	 0.122484
H	 1.4894448904	-3.6692139281	 1.6774168209	 0.117284
H	 0.7475035502	-3.0684387926	 0.1724635596	 0.125245
H	 4.4757752526	-0.1764356544	-0.6069798888	 0.125131
H	 5.0608340386	 0.6278194172	 0.8518880943	 0.118618
H	 4.6769970821	-1.1149493358	 0.8810194878	 0.121952
