18
gdb 93155	2.27242	1.72933	1.17706	1.42	72.67	-0.2461	-0.0292	0.2169	1072.1272	0.147571	-439.104356	-439.09575	-439.094806	-439.138186	31.542	
C	-0.255070635	 1.5557217352	 0.0640208878	-0.422151
C	 0.048840915	 0.0545936446	 0.0211529047	 0.037201
O	 0.7019264631	-0.3130523574	-1.2083725374	-0.244073
C	 1.9196592828	 0.2111973451	-1.5441615821	 0.100894
N	 3.0226522485	 0.0640656098	-0.9524830713	-0.218049
C	 3.080639717	-0.7469118406	 0.2565840282	-0.171678
C	 2.2636884332	-0.1849244665	 1.4349036437	-0.310014
C	 0.7662859759	-0.3867451025	 1.3074708754	 0.369955
O	 0.1025669122	-0.8408038023	 2.2112499866	-0.302288
H	 0.663421108	 2.1502508322	 0.0836885702	 0.134486
H	-0.8332087288	 1.8392285542	-0.8193778482	 0.136763
H	-0.8396696647	 1.7908513886	 0.9575969301	 0.144789
H	-0.8864621924	-0.5075474726	-0.0027173308	 0.122015
H	 1.8818580705	 0.7525725918	-2.490155152	 0.12101
H	 2.7495739786	-1.7714819809	 0.0362997223	 0.122052
H	 4.1279393424	-0.8052349237	 0.5640993022	 0.117546
H	 2.5688266337	-0.6516255698	 2.3748864287	 0.129068
H	 2.47082746	 0.8907166849	 1.5140403718	 0.132474
