20
gdb 96222	2.27276	1.59974	1.07441	5.6311	84.26	-0.2088	-0.0222	0.1865	1163.0434	0.173287	-403.184541	-403.175816	-403.174872	-403.218287	33.185	
C	-0.7901650459	 1.1094288032	 0.1813803464	-0.3966
C	-0.0603375353	-0.2191536623	-0.0980876691	-0.069009
C	 0.6942733613	-0.2282393307	-1.4366917994	-0.234691
C	 1.8314547721	 0.784332097	-1.5852417683	-0.163765
N	 3.050490618	 0.3799053753	-0.90406775	-0.287287
C	 3.1368127447	-0.105807904	 0.359112884	 0.021092
C	 2.1887746605	-0.5259109142	 1.2373753225	-0.192803
C	 0.7363647909	-0.6189083841	 1.1554320522	 0.332864
O	 0.0999522522	-1.0206470461	 2.1215637116	-0.370919
H	-0.0927789385	 1.939118452	 0.3366742905	 0.11507
H	-1.4506963249	 1.373893766	-0.6516684681	 0.105553
H	-1.393687639	 1.0100556989	 1.0860815833	 0.14294
H	-0.834893035	-0.9915256593	-0.1674635682	 0.099794
H	 1.0907237477	-1.2298797986	-1.6394569235	 0.112018
H	-0.0343666137	-0.0158395124	-2.2281483624	 0.104207
H	 2.0847535037	 0.8897058483	-2.6447170413	 0.111174
H	 1.504840699	 1.7753018908	-1.2366091863	 0.114092
H	 3.9083949877	 0.7262042909	-1.2982965403	 0.250305
H	 4.1699991302	-0.177595469	 0.6923536172	 0.114464
H	 2.5649037044	-0.8723413817	 2.1940988691	 0.091501
