17
gdb 87293	3.02717	1.22781	1.01343	2.2618	69.73	-0.249	-0.0398	0.2092	1172.2775	0.13386	-458.928066	-458.919584	-458.91864	-458.961376	31.784	
O	 0.3444146685	 0.830985213	 0.3873443056	-0.409459
C	-0.199720875	-0.4256152761	 0.3550886209	 0.122609
C	-1.202799062	-0.9004329731	 1.325458067	-0.363182
C	-1.7000324938	-0.6540921241	-0.1057490308	 0.176104
C	-2.4334155121	 0.5990864432	-0.3316249161	 0.095402
O	-2.2491565529	 1.6256604441	 0.3001367053	-0.321589
C	-2.0567565582	-1.8055227184	-0.987906309	-0.023808
C	-1.5074487985	-3.1600398061	-0.851758587	-0.196976
O	-2.8377911846	-2.8727700123	-0.4266433783	-0.227446
H	-0.3665326858	 1.4509505538	 0.6287864287	 0.310184
H	 0.4950786424	-1.1424990074	-0.0700305581	 0.122584
H	-1.1979760507	-1.9349307438	 1.6503571407	 0.140362
H	-1.5624168363	-0.1864127553	 2.0594794467	 0.143519
H	-3.1660256759	 0.5822293102	-1.1651066093	 0.095646
H	-2.3886222203	-1.5111012115	-1.9854341843	 0.098073
H	-1.4174425448	-3.791368191	-1.7347039594	 0.122806
H	-0.7997981499	-3.3886952752	-0.0557535427	 0.115171
