19
gdb 9352	7.62721	0.79667	0.73453	2.4093	70.25	-0.2475	0.0684	0.3159	1578.1656	0.163924	-402.251177	-402.241039	-402.240095	-402.287717	33.665	
C	-0.1082935208	 1.4449290753	 0.0892328497	-0.382917
C	 0.0881543378	-0.0706908322	-0.0031365252	-0.189343
C	 0.7073723275	-0.482236355	-1.3293164182	-0.03353
O	 0.8500154358	-1.9105712135	-1.320380019	-0.281146
C	 1.3991119729	-2.4428296548	-2.4433059794	 0.516772
O	 1.7565330306	-1.7974593686	-3.4048712238	-0.414468
N	 1.4806200924	-3.7945048583	-2.3144298749	-0.357407
C	 2.0259499363	-4.6404476359	-3.3525700434	-0.328388
H	 0.8447739178	 1.9770725153	-0.0024189393	 0.120241
H	-0.7691550814	 1.8106550047	-0.7041318688	 0.12022
H	-0.5539828745	 1.7241115291	 1.0480730068	 0.118134
H	 0.7318864084	-0.4195068025	 0.8127528312	 0.105669
H	-0.8727432811	-0.5849579369	 0.1149361811	 0.105672
H	 0.079104435	-0.185422146	-2.1764563092	 0.116044
H	 1.689846153	-0.0201345614	-1.4759632499	 0.116334
H	 1.1447064956	-4.1959531476	-1.4556007498	 0.250975
H	 2.3223551341	-3.9932207464	-4.1788658656	 0.169712
H	 2.9059261343	-5.1924627894	-3.0022675541	 0.123701
H	 1.2844171064	-5.3613486858	-3.7161277385	 0.123725
