15
gdb 44034	3.23638	1.74735	1.53783	3.0456	69.82	-0.2354	-0.0419	0.1935	878.7656	0.111403	-420.478974	-420.47238	-420.471435	-420.509876	26.586	
O	 0.0232473467	 0.0234583648	-0.3379780659	-0.268998
C	 0.0131202956	 1.1791906854	-0.0580410099	 0.344885
C	-1.1118848204	 2.1850236822	 0.3937840793	-0.440424
C	 0.0198552543	 3.1391577238	 0.8074192335	 0.34783
O	 0.6530161858	 2.8866341819	 2.1055895667	-0.340823
C	 1.7573041347	 3.0708497185	 1.1869040898	 0.047141
C	 1.054658576	 4.2170611029	 0.3414238721	-0.14887
C	 1.3003317918	 3.4828113897	-0.9954165961	-0.306842
C	 1.0746237916	 2.3187684146	 0.0036610606	 0.038252
H	-1.6913073305	 2.5348786421	-0.4665119446	 0.149009
H	-1.7935048494	 1.8572300706	 1.1810611483	 0.154745
H	 2.7767243978	 3.0225313783	 1.576819491	 0.105441
H	 1.060411577	 5.2872030582	 0.559849891	 0.09229
H	 0.5336878324	 3.6216409825	-1.7626580878	 0.111307
H	 2.2961072666	 3.5625409046	-1.437393148	 0.115057
