17
gdb 14342	5.01628	1.63291	1.36665	3.5269	69.25	-0.2469	0.0194	0.2664	923.0308	0.143644	-363.845196	-363.838316	-363.837372	-363.876088	26.754	
C	-0.186923441	 1.5365778411	 0.0758374973	-0.38295
C	 0.0863034575	 0.0397299583	 0.0301315699	 0.064128
C	 0.7997085675	-0.4344698097	-1.2993649161	-0.2653
C	 1.5143246283	-1.6958826932	-0.7933640555	-0.145186
C	 3.0304109187	-2.0210500568	-0.6356284036	-0.125298
O	 2.9221921741	-1.8410975486	 0.8365771099	-0.274518
C	 1.6911353105	-1.2817784415	 0.6257723772	 0.429663
N	 1.0193427004	-0.3509217313	 1.1443722152	-0.318416
H	 0.7504092911	 2.0988677567	 0.01454954	 0.118988
H	-0.8280989048	 1.8378005644	-0.759760031	 0.10818
H	-0.6839590074	 1.8104983552	 1.0100622088	 0.128453
H	-0.8641898852	-0.5008951256	 0.147122492	 0.080988
H	 0.1028913886	-0.6039641317	-2.1238895346	 0.104257
H	 1.5181133931	 0.3343202692	-1.6067285395	 0.108652
H	 0.9283714334	-2.6078351112	-0.9328823628	 0.108485
H	 3.3478329329	-3.0361346637	-0.8778049551	 0.129112
H	 3.7210843025	-1.2785763316	-1.0435747418	 0.130762
