20
gdb 58939	3.45305	1.3889	1.15166	2.26	77.92	-0.2441	0.0757	0.3198	1116.1359	0.171962	-403.094228	-403.086211	-403.085267	-403.126595	32.011	
C	-0.1939367664	 1.5460414017	-0.0587443131	-0.406388
C	 0.0669497699	 0.0400193533	 0.0252976903	 0.020504
O	-1.1508796266	-0.6919423174	 0.0922483885	-0.434591
C	 0.8862105977	-0.4760018292	-1.138217537	 0.318555
C	 1.9867491679	 0.2117463213	-1.9352237032	-0.307626
C	 1.5675808489	-0.7582110343	-3.0541323861	-0.005852
C	 1.9496558631	-2.1679030657	-2.5635996854	-0.24251
C	 0.8752850811	-1.9238309566	-1.5203832843	-0.074646
N	 0.1589686611	-0.9158026427	-2.3871124648	-0.21843
H	 0.7358725379	 2.1197447938	 0.0150967937	 0.112354
H	-0.6801671748	 1.8004867845	-1.0069593071	 0.120471
H	-0.8527774169	 1.8478276916	 0.7592850099	 0.124104
H	 0.5911141621	-0.1812320135	 0.9641876621	 0.089629
H	-1.5166566058	-0.6821177715	-0.8035144132	 0.292729
H	 1.7129507618	 1.2418844996	-2.1748211917	 0.111995
H	 3.0198971806	 0.1764446706	-1.573507688	 0.096268
H	 1.6314407303	-0.4794926443	-4.1039612248	 0.084856
H	 1.6375309416	-2.9397148907	-3.2717039208	 0.113779
H	 2.9831343191	-2.3465916517	-2.2484554589	 0.097164
H	 0.3158912975	-2.649939979	-0.9439754458	 0.107634
