14
gdb 42999	2.40403	1.71274	1.31261	4.6167	65.82	-0.2674	-0.051	0.2164	969.9997	0.101009	-436.690018	-436.682669	-436.681725	-436.722251	27.354	
O	-0.1239367058	 0.1310189982	-0.7726158096	-0.296311
C	-0.1101070184	 1.2160717834	-0.26552246	 0.402283
C	-1.2325020542	 2.0304820322	 0.2610316563	-0.1965
C	-1.0276528803	 2.5894361135	 1.6833141867	-0.329769
C	-0.645998433	 3.4014926971	 0.5016239475	 0.112327
O	 0.7224553237	 3.4315457663	 0.1415865036	-0.248447
C	 1.1714286261	 2.117262316	-0.136723958	-0.158013
C	 2.0739977067	 1.6114364698	 0.9060902551	 0.301639
N	 2.7682905753	 1.2115229714	 1.7388061503	-0.322589
H	-2.2312445197	 1.8366749414	-0.1053137157	 0.131998
H	-1.9425041204	 2.8480641383	 2.2038191277	 0.144416
H	-0.249676063	 2.1626448829	 2.3062371046	 0.162731
H	-1.1524751427	 4.3208519666	 0.2372759974	 0.13052
H	 1.6978502557	 2.109675413	-1.0972657857	 0.165716
