16
gdb 24284	4.12027	1.52381	1.21223	0.7412	74.18	-0.2197	0.0123	0.2319	985.1987	0.127861	-400.742489	-400.736227	-400.735283	-400.772991	25.735	
C	 0.0577859945	 1.4807866607	-0.0253417174	-0.23983
C	 1.3177541798	 0.6810126928	 0.0125257358	-0.195381
N	-0.0235154123	 0.0193816477	-0.002622642	-0.102315
C	-0.2315340405	-0.6068422959	-1.3413403259	-0.302282
C	 1.0093284229	-0.2859239808	-2.1321877449	 0.195756
C	 1.6197956128	-0.4663525187	-3.327479384	-0.160031
O	 2.8707948993	 0.0852950504	-3.2911444868	-0.153641
C	 3.0499501517	 0.6296314742	-2.049275275	-0.180885
C	 1.9351226855	 0.4303681007	-1.3064767156	 0.275438
H	-0.3050425591	 1.9696684825	 0.8751096168	 0.118253
H	-0.1660102279	 2.0036681925	-0.9535102499	 0.115014
H	 1.8929124662	 0.5968162736	 0.9289557443	 0.102745
H	-0.3594748632	-1.6853005376	-1.1954693255	 0.125565
H	-1.1565304847	-0.2257266021	-1.7876585564	 0.121716
H	 1.3526405444	-0.9426843211	-4.2559236859	 0.139438
H	 4.0023798808	 1.1038360613	-1.8832970376	 0.14044
