23
gdb 114337	3.02749	1.10327	1.04964	1.2594	85.54	-0.2325	0.0823	0.3148	1321.1371	0.206067	-388.290871	-388.281588	-388.280644	-388.324976	35.479	
C	 0.0853748357	 1.5222529967	-0.093176197	-0.382367
C	 0.0379435191	-0.0057866966	-0.0066772659	-0.194954
C	 0.7049860492	-0.5590594894	 1.2440047025	 0.171497
C	 0.712406812	-2.0990415116	 1.3809616271	-0.278308
C	 2.0223076971	-2.3758893511	 2.1171997021	-0.096154
C	 3.3355786009	-2.3175789262	 1.3455690255	-0.032534
C	 3.4352751212	-2.4072323414	-0.1594184397	-0.415306
C	 2.8042512675	-1.0902564273	 2.0460446634	 0.069468
O	 2.0931449398	-0.175246138	 1.2534159903	-0.274909
H	 1.1198497311	 1.8748181432	-0.0860508579	 0.137092
H	-0.394735889	 1.8810731093	-1.0086510818	 0.107846
H	-0.4309213741	 1.9819050782	 0.7569998504	 0.110759
H	-1.0033614306	-0.3525265282	-0.0144495799	 0.094921
H	 0.5222507291	-0.4474029695	-0.8866722897	 0.101523
H	 0.2218488636	-0.1224949148	 2.1351174225	 0.063728
H	-0.1499652202	-2.4545992028	 1.9513974921	 0.101635
H	 0.6741148899	-2.5787096019	 0.3963731387	 0.101549
H	 1.991081599	-2.9665106604	 3.0252517996	 0.08541
H	 4.1549277237	-2.8007845122	 1.874281292	 0.080979
H	 2.7429915219	-1.7168592886	-0.6454103414	 0.131784
H	 4.4448349854	-2.1399384138	-0.4891289082	 0.116858
H	 3.2254815212	-3.4207553148	-0.5187017926	 0.112383
H	 3.3221981766	-0.6484374188	 2.8926801279	 0.087101
