18
gdb 16181	4.04735	1.64617	1.40288	2.4528	67.	-0.2355	0.0818	0.3172	931.3896	0.154856	-384.925027	-384.917515	-384.91657	-384.956817	28.806	
O	 0.0892675253	 1.3964314434	 0.2548289279	-0.418421
C	 0.0922493014	-0.000298752	 0.0118055902	-0.140182
C	-1.2979203033	-0.5584544288	-0.0929808037	 0.436813
C	-2.126668359	-0.9547509835	 1.1017906861	-0.352902
C	-1.7077457044	-1.9940281407	 0.0709415411	-0.122413
C	-2.6760286721	-2.2726263159	-1.0685268002	-0.237914
C	-3.0605300409	-0.8561498324	-1.5527492599	-0.09623
O	-1.9776069327	 0.0040787765	-1.197383931	-0.310606
H	-0.4742842908	 1.7869388849	-0.422562544	 0.292027
H	 0.643985058	-0.2411887983	-0.911055747	 0.089165
H	 0.6180602436	-0.4661711317	 0.8509084939	 0.105016
H	-1.6215266059	-0.9824498259	 2.0612434405	 0.118453
H	-3.1658696985	-0.6476578154	 1.1559335175	 0.114797
H	-0.9985731576	-2.7633426329	 0.3548800608	 0.091483
H	-2.1602813526	-2.8305570491	-1.8571538598	 0.110082
H	-3.5575895736	-2.848939312	-0.7717501793	 0.107447
H	-3.2045607378	-0.7876060515	-2.6344313566	 0.111605
H	-3.985957399	-0.5164855745	-1.0679615264	 0.101782
