17
gdb 127889	2.43717	1.65224	0.99672	4.4429	84.02	-0.2109	-0.0496	0.1613	1165.4957	0.135697	-414.166642	-414.15773	-414.156786	-414.201443	31.826	
C	-0.0180366066	 1.3941205593	 0.0072612257	-0.307444
N	 0.012150304	-0.0602650048	 0.0023181536	-0.305347
C	-1.0956834824	-0.6991334573	 0.0093112011	 0.321069
N	-2.3529436814	-0.0141703	 0.0215020943	-0.270675
N	-3.4564779853	-0.6262153893	 0.028114781	-0.04706
N	-3.459687195	-1.9755197592	 0.023544628	-0.246826
C	-2.3239539922	-2.75185752	 0.0120195604	-0.042295
C	-1.1143022376	-2.1598836147	 0.0044759975	 0.202557
C	 0.1759734987	-2.9124422593	-0.0083256852	-0.478591
H	 1.0098626981	 1.7665223277	-0.0016667317	 0.10755
H	-0.5434491852	 1.8018550211	-0.8660355985	 0.121963
H	-0.5258443782	 1.7959624517	 0.893629396	 0.12192
H	-4.3849267414	-2.3714971943	 0.0295517525	 0.279736
H	-2.4803244349	-3.8244240021	 0.0096860455	 0.135389
H	 0.0126966284	-3.9937331121	-0.0094967131	 0.10882
H	 0.7679707379	-2.633222323	-0.8861317486	 0.149595
H	 0.782878313	-2.6372010437	 0.8604810117	 0.149639
