18
gdb 124838	4.42662	1.01435	0.86294	1.3562	75.	-0.259	-0.0121	0.2469	1332.492	0.149243	-435.275949	-435.267567	-435.266622	-435.309788	30.834	
C	-0.0381873944	 1.5908387043	 0.1025782617	-0.383728
C	-0.0208169931	 0.0711572531	 0.2187280007	 0.131467
O	 0.3747541829	-0.2489452773	 1.5365062062	-0.438978
C	-1.4057817935	-0.5122463284	-0.1074896849	-0.147773
N	-1.3853391605	-1.9694170047	-0.1781453176	 0.138802
N	-1.890025174	-2.6414015447	-1.2031879184	-0.21912
C	-1.6754659363	-3.9210955748	-0.8828685268	-0.069819
C	-1.0296348876	-3.9688761508	 0.3566743364	-0.049696
N	-0.8581032165	-2.7169866868	 0.7885856931	-0.24547
H	 0.937201444	 1.9875397817	 0.3940996413	 0.133375
H	-0.2538580725	 1.9087327847	-0.9217511643	 0.113539
H	-0.7905526924	 2.0184633461	 0.7730039546	 0.124276
H	 0.6936331759	-0.3398914375	-0.5152595246	 0.073927
H	 0.2487941418	-1.2032752896	 1.6488332347	 0.296061
H	-2.1175583967	-0.2032708529	 0.6657801102	 0.135508
H	-1.763426457	-0.1768150897	-1.0816733721	 0.14125
H	-1.985118719	-4.7175321493	-1.5398419694	 0.131596
H	-0.6922529308	-4.8097150933	 0.9409827591	 0.134781
