21
gdb 81376	2.11104	1.69842	1.49952	1.8533	76.71	-0.2375	0.0663	0.3038	1041.4722	0.184002	-424.216096	-424.207572	-424.206627	-424.248964	33.209	
C	-0.1274489564	 1.6948054167	-0.2255354115	-0.434145
C	 0.0525835316	 0.1933001127	-0.0615420221	 0.029202
C	 1.0395743389	-0.6701221066	-0.8866985541	 0.070246
C	 2.4219718806	-0.0517039337	-1.0724859009	-0.212085
C	 2.9069530506	 0.6194251948	 0.2432899211	-0.259359
C	 2.12778241	 0.1529160309	 1.5054104178	 0.130826
O	 1.8519700824	 1.2260407043	 2.399083207	-0.444739
C	 0.7950525584	-0.4831855763	 1.1145350874	 0.05524
O	 1.1290727837	-1.5956675415	 0.2395080374	-0.304098
H	 0.8084424226	 2.2540388782	-0.2033135436	 0.123509
H	-0.6282426054	 1.9137024632	-1.1753430517	 0.112194
H	-0.7585656696	 2.0889213866	 0.5774207814	 0.127733
H	-0.9263146079	-0.292171784	-0.1290666287	 0.086911
H	 0.6730449688	-1.1608981184	-1.7934807053	 0.070566
H	 3.1012537551	-0.8571592168	-1.3701263663	 0.109948
H	 2.4136326443	 0.6766174617	-1.8918684032	 0.096553
H	 3.9802991092	 0.4521856554	 0.3796117499	 0.095671
H	 2.7730284857	 1.7022782483	 0.1762786334	 0.111276
H	 2.6965478966	-0.6358997635	 2.0201611291	 0.075026
H	 2.6903260838	 1.5947118709	 2.6940208564	 0.283362
H	 0.221393697	-0.7826421331	 1.9961074265	 0.076164
