20
gdb 58343	1.94906	1.39759	1.00043	6.1431	77.44	-0.2352	-0.0224	0.2129	1285.8545	0.167776	-440.334593	-440.324058	-440.323114	-440.371442	37.208	
C	-0.0644455249	 1.4997836123	 0.0413815463	-0.388061
C	-0.0866666635	-0.0360680155	 0.0193376494	 0.007401
C	 0.7470240322	-0.6585844002	 1.1480688877	-0.386018
N	-1.4739580218	-0.5715501654	-0.0083034729	-0.14192
C	-2.2798739488	-0.2760511523	 1.1011067035	 0.16529
O	-3.4057886824	-0.6351972402	 1.310468993	-0.27266
C	-1.9642585079	-1.3541687837	-1.0862276026	 0.412638
C	-0.9603620434	-1.7783839268	-2.1528469523	-0.510221
O	-3.120583814	-1.6816161612	-1.1655049612	-0.293362
H	 0.9632894135	 1.8538180348	-0.0848020165	 0.125705
H	-0.6708475174	 1.9082683273	-0.7718240853	 0.131313
H	-0.4395941479	 1.90860584	 0.9837149263	 0.131129
H	 0.3677092162	-0.3401295324	-0.9206852362	 0.108732
H	 0.7279600546	-1.7506357538	 1.0893684534	 0.129197
H	 1.7873433858	-0.3283874693	 1.0688873552	 0.125406
H	 0.3814062598	-0.367046806	 2.1369891122	 0.130491
H	-1.7264673604	 0.3574355831	 1.8191914453	 0.080964
H	-0.0930103568	-2.2962317556	-1.7326501121	 0.142305
H	-1.4920246691	-2.4531085619	-2.8229612559	 0.154411
H	-0.596504644	-0.9254320531	-2.7348867273	 0.147261
