19
gdb 71018	3.71918	1.43296	1.29485	1.9749	75.14	-0.2442	0.0691	0.3132	1015.2429	0.16077	-422.958564	-422.951427	-422.950483	-422.989518	30.128	
O	-0.0889821719	 1.413257959	 0.0294949525	-0.47742
C	-0.0131739112	 0.026932151	 0.0011830078	 0.412945
C	 0.3217034575	-0.7718438769	-1.3548629307	-0.403142
C	-0.3911573192	-1.881613967	-0.5545435554	 0.279027
C	-0.7719234156	-3.349887548	-0.3169037386	-0.218874
O	-0.2409831961	-3.2291610378	 1.0483004322	-0.315939
C	 0.588193926	-2.1240311394	 0.5823505303	 0.160325
C	 0.759690561	-0.7041261738	 1.1564356487	-0.347749
C	-1.3204561765	-0.7838681212	 0.0208353763	-0.274935
H	 0.8053190661	 1.7689787045	 0.0670515752	 0.281845
H	-0.2381240434	-0.3337846496	-2.1835310238	 0.108265
H	 1.3659237197	-0.9406591605	-1.6334668855	 0.091718
H	-1.8335516662	-3.6119460598	-0.3200903878	 0.112415
H	-0.1970758795	-4.0848387673	-0.8957438749	 0.10293
H	 1.5508683341	-2.5366698105	 0.2488163435	 0.069756
H	 1.8122750141	-0.4165299009	 1.2448197333	 0.089102
H	 0.2670163993	-0.5237486412	 2.1148075168	 0.123463
H	-1.8014594369	-0.9616135863	 0.9849679221	 0.105598
H	-2.0424965213	-0.4324862643	-0.7200196416	 0.10067
