18
gdb 18611	2.78348	2.25036	1.76882	1.7873	71.65	-0.2305	0.0061	0.2366	835.5473	0.154944	-347.79449	-347.787112	-347.786168	-347.825595	29.19	
C	-0.081906786	 1.5894131735	-0.0988134352	-0.436936
C	 0.0573256438	 0.0874042121	 0.0376351994	 0.000495
C	 1.3415482619	-0.6919067951	-0.2116945881	-0.107135
C	 2.6219892258	 0.0725801485	-0.0988962611	-0.073922
C	 2.8294536641	 0.5134446254	 1.1426702151	-0.129143
C	 1.7290912215	 0.0715466457	 2.097212058	 0.093278
O	 1.1949046893	 1.1171043796	 2.9024301179	-0.437788
C	 0.7319660469	-0.6483763975	 1.1787649219	-0.099673
H	 0.8507275865	 2.1162362461	 0.1199704233	 0.121283
H	-0.3689981303	 1.8552567382	-1.1222580129	 0.11809
H	-0.8638307948	 1.9740956499	 0.5663067718	 0.120459
H	-0.8244792381	-0.4430983735	-0.315959978	 0.088749
H	 1.2998025072	-1.5773829875	-0.8366798071	 0.08651
H	 3.2666333421	 0.2610158825	-0.9508573912	 0.097217
H	 3.6517603196	 1.1357544344	 1.4774278788	 0.098644
H	 2.1268311001	-0.6409171866	 2.8313931825	 0.093028
H	 0.8186368853	 1.7763872903	 2.3111640067	 0.282333
H	 0.2107681252	-1.5064352361	 1.5862588882	 0.08451
