18
gdb 79167	2.62876	1.92709	1.46466	3.8951	73.88	-0.2386	-0.0091	0.2295	943.9014	0.149167	-401.929168	-401.92191	-401.920965	-401.960754	28.88	
C	 0.0426386469	 1.6094138987	 0.0288849559	-0.39854
C	 0.0594838827	 0.0780371581	-0.0254211231	-0.122425
C	 0.814349135	-0.5918989446	-1.1570711417	-0.060436
C	 2.346468649	-0.6968302971	-1.1458374525	-0.091785
C	 2.9020755282	-0.5395602807	 0.2640106934	-0.200122
N	 1.7927002658	-1.4525160847	 0.7928452078	-0.176008
C	 1.4819551399	-1.8190240262	-0.6245325608	-0.049491
C	 0.7537801223	-0.5266891182	 1.2170156507	 0.380311
O	 0.5582857213	-0.2179371569	 2.3569923133	-0.313734
H	 1.0541992779	 2.0201814335	-0.0452833182	 0.121212
H	-0.5481253353	 2.0222002123	-0.7942549843	 0.116115
H	-0.3940814157	 1.944022116	 0.9735962885	 0.141961
H	-0.9790513942	-0.2819203818	-0.0373819485	 0.105878
H	 0.3720114238	-0.6378750969	-2.1462215791	 0.097268
H	 2.9107533166	-0.6475846887	-2.0689376356	 0.097077
H	 3.8666925458	-1.0346363405	 0.3993303427	 0.128061
H	 2.9407452794	 0.4537992556	 0.7242621093	 0.122046
H	 1.3424832007	-2.8493416681	-0.9226435377	 0.102613
