19
gdb 30056	2.96271	1.38632	1.00902	1.1714	83.51	-0.2006	0.0322	0.2329	1190.0868	0.161504	-382.076133	-382.067672	-382.066728	-382.109783	31.482	
C	-0.5388205171	 1.4475457483	-0.1387919505	-0.348642
N	-0.165841715	 0.0483705064	-0.0708677939	-0.038183
C	-0.1229035276	-0.8124517975	-1.137943077	-0.107089
C	 0.224159957	-2.0617316073	-0.6780293197	-0.16007
C	 0.393659216	-1.9554221259	 0.7266817755	-0.243269
C	 0.1476167473	-0.643615911	 1.0847591186	 0.290345
C	 0.1765906742	 0.032276054	 2.3951052078	-0.131365
C	 1.0170474582	-0.4937354502	 3.4955234183	-0.235694
N	 1.3956590611	 0.7708277393	 2.8425277196	-0.321401
H	 0.0914125159	 2.0398205177	 0.5288704648	 0.160017
H	-0.3989959084	 1.8061810265	-1.1604392704	 0.138283
H	-1.5869340005	 1.6028369289	 0.1435743248	 0.136627
H	-0.3400448627	-0.4581223845	-2.1336154427	 0.112283
H	 0.346207334	-2.947343223	-1.2822619359	 0.093996
H	 0.6542458132	-2.7496643455	 1.4095141036	 0.093057
H	-0.7325187064	 0.5603297307	 2.6789160816	 0.095228
H	 0.6769716845	-0.3958561351	 4.5222849221	 0.117586
H	 1.617665545	-1.3767171679	 3.2987660077	 0.118544
H	 2.1415266912	 0.5742486461	 2.1772843157	 0.229746
