19
gdb 110360	3.11254	1.15701	1.03087	0.9526	71.69	-0.2381	0.0615	0.2996	1224.7087	0.158125	-460.107093	-460.098112	-460.097167	-460.14083	33.719	
C	 0.2783495653	 0.9774489759	 0.3064838042	-0.236914
O	-0.3623870736	-0.094453756	-0.358059008	-0.242917
C	 0.4358616436	-0.6695016822	-1.3482708948	 0.116267
C	 1.4784570991	-1.7052584609	-1.0417587686	-0.174427
C	 0.1664362314	-2.0628653803	-1.7898173144	-0.13709
C	-0.2974281428	-2.9161640881	-0.6123405557	 0.071694
O	-0.3095595211	-4.2809887431	-1.0031704281	-0.438149
C	 1.0311913758	-2.5532982871	 0.1659304818	 0.122307
O	 1.8247295342	-3.6763343986	 0.4374446838	-0.444704
H	 1.2049161945	 0.6532025682	 0.8009131775	 0.115014
H	 0.5247686197	 1.7928806181	-0.3903137099	 0.107822
H	-0.4190536084	 1.3535177886	 1.0583690651	 0.128447
H	 0.7041096741	 0.0208601811	-2.1510590361	 0.091823
H	 2.4974456836	-1.6489239316	-1.4072594572	 0.089582
H	-0.0090198396	-2.3268465436	-2.8260433586	 0.096321
H	-1.2452851577	-2.6307063436	-0.1437385549	 0.08112
H	-0.6391960836	-4.7939738131	-0.2574552226	 0.292927
H	 0.908887624	-2.0070221067	 1.1049291425	 0.082868
H	 1.6199516116	-4.3148035072	-0.2615767159	 0.27801
