20
gdb 102931	2.4455	0.93914	0.77184	3.3713	82.67	-0.2546	0.0254	0.28	1528.3649	0.168688	-403.146703	-403.136096	-403.135152	-403.183459	37.435	
C	 0.7712505777	-0.121856874	 0.9419303766	-0.391992
C	-0.1465088469	-0.0947520486	-0.2813555797	-0.162479
C	-1.5444737426	-0.6965449177	-0.0138626006	-0.164419
C	-2.4987816537	-0.523659288	-1.2257693932	-0.178904
N	-2.8180715489	 0.8627819345	-1.5159492749	-0.273374
C	-2.3224168527	 1.5365794208	-2.5907617747	 0.153119
O	-1.5377159991	 1.087359918	-3.3978693137	-0.321332
C	-1.4707390955	-2.1130622603	 0.3380912439	 0.335473
C	-1.419110245	-3.2874872512	 0.5911102209	-0.469545
H	 1.7472326745	 0.3118814581	 0.704929088	 0.116545
H	 0.344510718	 0.4531568489	 1.7718812839	 0.109336
H	 0.9313459654	-1.1455152262	 1.2931523375	 0.130996
H	-0.2828224038	 0.9365258702	-0.6220713865	 0.1087
H	 0.3136031566	-0.6398782889	-1.1127880893	 0.117278
H	-1.9890433577	-0.1581179414	 0.8373921608	 0.09342
H	-2.0332854843	-0.9368323969	-2.1230446516	 0.157676
H	-3.423997137	-1.0766512027	-1.0360141577	 0.118096
H	-3.4773602678	 1.3429974228	-0.9240257471	 0.247937
H	-2.7258269739	 2.5674106898	-2.6476102941	 0.076014
H	-1.3702808432	-4.3215116571	 0.8280408018	 0.197452
