15
gdb 42445	2.94506	0.95935	0.81437	2.9306	67.06	-0.2722	-0.009	0.2632	1373.8152	0.112116	-453.957948	-453.949189	-453.948245	-453.992945	30.298	
O	 0.1012873232	 0.3842783914	 1.1996150354	-0.370793
C	-0.0165405643	 1.0183566113	 0.1691700321	 0.393589
N	 1.0168832374	 1.3549567788	-0.656208643	-0.321472
C	 2.3812798739	 1.0071536974	-0.330302312	-0.284854
C	 3.2448274688	 2.1889866097	-0.2017694909	 0.258314
N	 3.920846081	 3.1222551165	-0.1238815854	-0.296613
C	-1.3565074332	 1.5227149697	-0.3047956722	-0.023639
C	-1.6010472464	 2.9702140837	-0.4313784837	-0.166772
O	-1.398563414	 2.1543415972	-1.5868218215	-0.235605
H	 0.7923774547	 1.8267252993	-1.5199759083	 0.275995
H	 2.3468760764	 0.4682677842	 0.622242089	 0.197232
H	 2.8159982082	 0.3358832583	-1.080512974	 0.162779
H	-2.1867974992	 0.862620317	-0.066887014	 0.133036
H	-2.6121266232	 3.3489745236	-0.2997829913	 0.140068
H	-0.7976301032	 3.668197292	-0.2051208301	 0.138736
