18
gdb 18961	6.29054	1.39031	1.38068	1.3918	72.16	-0.2142	0.0688	0.2831	966.7197	0.154414	-343.858819	-343.851859	-343.850915	-343.890003	27.256	
C	-0.0016772178	 1.6403429069	-0.1027444892	-0.377506
C	 0.0442041344	 0.1139636849	-0.0969954981	-0.120364
N	-1.3029695491	-0.4481802097	 0.0164944085	-0.123781
C	-1.8666881937	-0.5363744428	 1.3993227742	-0.035816
C	-2.7271147217	-1.7821562756	 1.0190599876	-0.031785
N	-2.2729720927	-2.6492994337	 2.1525330143	-0.348226
C	-1.062744042	-1.8311517859	 1.8189653168	-0.045965
C	-1.369088893	-1.9152179329	 0.2801918285	-0.000402
H	 0.9992930105	 2.0592018347	-0.2443412573	 0.111642
H	-0.6492283481	 1.9998667868	-0.9073635453	 0.126657
H	-0.393686291	 2.0286463554	 0.8435706023	 0.112977
H	 0.4670192849	-0.2453432896	-1.0436261406	 0.099559
H	 0.7201916547	-0.2355762159	 0.7042798071	 0.077901
H	-2.1459040886	 0.3312365785	 2.0011754688	 0.080436
H	-3.7273426513	-1.8059225145	 0.5880308755	 0.090457
H	-2.6853889056	-2.323312298	 3.0308883211	 0.207791
H	-0.1200055111	-1.9381130177	 2.3557215136	 0.086781
H	-1.0584437789	-2.6779787508	-0.4342541379	 0.089646
