19
gdb 11950	3.01543	1.89194	1.43139	1.0361	71.86	-0.2151	0.0562	0.2712	943.5877	0.165228	-365.020297	-365.011866	-365.010922	-365.05281	31.748	
C	-0.3074550009	 1.2861724131	 0.4289688541	-0.511359
C	 0.1363025577	-0.1035971217	 0.0898875073	 0.30063
C	 0.6466335815	-0.6154489259	-1.2661422626	-0.252669
C	 1.5524629546	-1.6406325666	-0.4988947354	-0.275982
C	 0.9896027567	-1.0882759106	 0.8176740642	 0.290673
C	 1.7135541568	-1.017528086	 2.1344538794	-0.215741
O	 0.9482379027	-0.3793035583	 3.1534932457	-0.409103
N	-0.479569687	-1.2990871553	 0.7443895879	-0.420814
H	 0.3939051294	 2.028513568	 0.0320525552	 0.118036
H	-1.2942610658	 1.502274866	 0.00131212	 0.121586
H	-0.3615516335	 1.4198497985	 1.5132167647	 0.136311
H	-0.1177093071	-1.0376480387	-1.9233192192	 0.102273
H	 1.2299311881	 0.1293671656	-1.8134492233	 0.096286
H	 1.3576624097	-2.7007519657	-0.6800953392	 0.101962
H	 2.6184393157	-1.4368783556	-0.6313005526	 0.096991
H	 2.020667343	-2.0280086018	 2.4458228617	 0.101348
H	 2.6317598919	-0.4289294294	 2.0191262379	 0.116783
H	 0.4142081299	-1.0505123301	 3.5876749048	 0.292234
H	-0.8475444935	-0.9489947859	 1.6313285794	 0.210554
