19
gdb 62779	3.00932	1.29765	1.11491	1.7338	81.6	-0.2347	0.0194	0.2541	1164.8299	0.156636	-385.811985	-385.802986	-385.802041	-385.845111	34.739	
C	-0.0903695196	 1.5301015378	-0.1559775117	-0.464379
C	 0.0048911917	 0.0252011312	-0.0135712203	 0.296785
C	-1.1999727863	-0.7359443018	-0.5451837259	-0.45533
C	 1.3032062026	-0.7058620531	-0.1854413867	 0.04896
O	 2.4234398892	 0.0678775801	 0.2627523897	-0.294605
C	 1.9386313721	-0.0063249611	 1.63956535	-0.079572
C	 1.9229063846	 1.253991547	 2.3647343862	 0.320512
C	 1.9331690396	 2.268543091	 3.0095748593	-0.428476
C	 0.6427509219	-0.68288223	 1.178940268	-0.187361
H	 0.8533218703	 2.0186208387	 0.0863827358	 0.145742
H	-0.3508273345	 1.7896246378	-1.1887986189	 0.108631
H	-0.8681352806	 1.9401491813	 0.4972531209	 0.114388
H	-1.3776699268	-0.491043805	-1.5979777135	 0.120651
H	-1.0636001583	-1.8200654995	-0.470469008	 0.113832
H	-2.1040381411	-0.4752513358	 0.01629767	 0.12264
H	 1.499961416	-1.5035440053	-0.8936992743	 0.101842
H	 2.5648950336	-0.7243881523	 2.1855872413	 0.114593
H	 1.9319755919	 3.1723482438	 3.5676268829	 0.201304
H	 0.1358536038	-1.4601883148	 1.735493825	 0.099844
