18
gdb 131822	5.44345	0.69724	0.67944	1.6977	74.75	-0.2567	0.0002	0.2569	1658.3102	0.149117	-435.264728	-435.255811	-435.254867	-435.300681	30.831	
O	-0.0864368047	 1.4361002319	 0.0099346266	-0.417792
C	 0.0082250855	 0.0216739727	 0.0021155654	-0.071809
C	-1.4108367761	-0.5329064381	 0.0126635191	-0.177209
C	-1.4264401452	-2.0637460317	 0.0048249776	-0.147378
N	-2.7776915343	-2.6007129729	 0.014780329	 0.150645
N	-3.4385137952	-2.8252372769	 1.1448931868	-0.230944
C	-4.640599482	-3.2312778113	 0.729172397	-0.060268
C	-4.652340821	-3.2279151702	-0.6713024238	-0.060315
N	-3.4573791575	-2.8198425529	-1.1051741019	-0.230881
H	 0.8041984212	 1.7987435089	 0.003372827	 0.288225
H	 0.5438998188	-0.3389475886	-0.8918996102	 0.088598
H	 0.5605080718	-0.3476332118	 0.8823763748	 0.088614
H	-1.9331239722	-0.1664710198	 0.9023128095	 0.129316
H	-1.9497420763	-0.1572154378	-0.863134976	 0.12921
H	-0.9395805215	-2.4581358134	-0.8905264605	 0.137027
H	-0.9225297167	-2.4673722974	 0.8865704723	 0.136944
H	-5.4093787047	-3.5039161657	 1.434182129	 0.12401
H	-5.43280916	-3.4972620949	-1.3646357117	 0.12401
