19
gdb 54426	2.51291	1.47007	1.179	3.0147	76.69	-0.2374	0.0192	0.2566	1121.4094	0.159466	-419.217174	-419.208225	-419.207281	-419.250637	34.105	
C	 0.475953411	 1.3665382886	-0.1294403974	-0.478509
C	 0.0722650752	-0.062709837	 0.0684682245	 0.292842
C	-1.3576693176	-0.6273455982	-0.0108274405	-0.288123
C	-1.0062848878	-1.6265465407	 1.1393686405	-0.300631
C	 0.4140933252	-1.0587463714	 1.1699386139	 0.2166
N	 1.0540686312	-1.11841408	-0.147475269	-0.418764
C	 1.2418406623	-0.8888396081	 2.4025700358	 0.308574
N	 2.5505799018	-0.5946609634	 2.1604364569	-0.541922
O	 0.7534780293	-0.9739606673	 3.5157189735	-0.372113
H	 1.4970431424	 1.5304120953	 0.2239496957	 0.132797
H	 0.4349680663	 1.6378347777	-1.1911320117	 0.123588
H	-0.1934175356	 2.0393259443	 0.415940286	 0.125959
H	-2.1208674044	 0.0966326733	 0.2833889992	 0.11457
H	-1.6375867876	-1.0538361476	-0.9802318507	 0.097079
H	-1.5438814074	-1.4158747774	 2.0640448785	 0.137612
H	-1.0826170575	-2.6961966595	 0.9180806711	 0.096826
H	 0.7072994357	-1.8916807953	-0.7133206295	 0.227472
H	 2.9104528429	-0.7172653638	 1.2277348057	 0.268832
H	 3.1790952144	-0.5429574194	 2.9446308477	 0.257312
