16
gdb 34441	3.05864	1.74293	1.28981	3.0292	72.67	-0.2617	0.0163	0.2781	953.3404	0.126627	-400.717058	-400.710425	-400.709481	-400.748018	26.564	
N	-0.0015118846	-1.1314657575	 0.0310448819	-0.339678
C	-0.0020973398	 0.0251019558	 0.0325712255	 0.184204
C	-0.0092563413	 1.4677318972	 0.0412762388	 0.178397
C	-0.8939476169	 2.1943499016	 1.0608242113	-0.147301
O	-0.6077351664	 3.5592083337	 0.7314800358	-0.276096
C	 0.3125236725	 3.4371883994	-0.3288570701	 0.126947
C	 1.333912551	 2.2930067311	-0.0557349249	-0.119099
C	 1.3924095667	 2.0108235931	-1.5735267407	-0.268422
C	-0.1019611002	 2.2934034692	-1.3019628832	-0.119088
H	-1.9603186727	 1.9817069878	 0.9269789934	 0.124013
H	-0.6114352283	 1.9813427494	 2.0976920171	 0.12401
H	 0.6305260325	 4.4112719811	-0.6949372779	 0.104177
H	 2.1382303154	 2.2744541854	 0.6791178116	 0.095717
H	 1.9225009889	 2.745623967	-2.1840517051	 0.106861
H	 1.6491528267	 0.9926286873	-1.8696623492	 0.129637
H	-0.9426887135	 2.2752944985	-1.9948760143	 0.095721
