17
gdb 33469	2.86669	1.28884	1.01565	2.7142	72.6	-0.2536	0.0081	0.2617	1164.6637	0.136772	-417.962671	-417.95434	-417.953395	-417.996448	30.069	
N	-0.3039683492	-1.1169638156	 0.694567504	-0.331904
C	-0.1923709433	 0.0012767639	 0.4195466051	 0.239698
C	-0.0630637036	 1.3936071937	 0.0429328604	 0.148648
C	 0.7504777643	 2.2518534757	 0.9611587932	-0.266299
N	 1.2829969006	 1.8629211224	-0.3451893539	-0.327696
C	-1.236774458	 1.9343474761	-0.7489036981	-0.111296
C	-1.125757613	 3.3491223529	-1.3611589451	-0.098645
O	-1.409194382	 2.8440865226	-2.6802399511	-0.26886
C	-1.3765175984	 1.4794562132	-2.2213980925	-0.074787
H	 0.4856466577	 3.3013508152	 1.0544158052	 0.138806
H	 1.1565506218	 1.7952360421	 1.8584268425	 0.14338
H	 1.9654323603	 1.115212183	-0.2518822874	 0.256664
H	-2.1520882493	 1.7882430191	-0.170826561	 0.102895
H	-1.8749315315	 4.0759777643	-1.0279586684	 0.104813
H	-0.1253260564	 3.7927144898	-1.3032906202	 0.122307
H	-0.5058550738	 0.9357914159	-2.6099580855	 0.109375
H	-2.2899257262	 0.9327209456	-2.4787619871	 0.112901
