21
gdb 79846	2.90281	1.67742	1.24672	1.3412	82.38	-0.2536	0.081	0.3346	1059.1618	0.183988	-387.058548	-387.050655	-387.049711	-387.090236	32.457	
C	 0.0797829682	 1.5561515528	-0.2121734323	-0.505655
C	 0.0651872248	 0.0467262721	-0.0666158844	 0.377661
C	 0.3522276303	-0.7271747834	-1.3644693416	-0.269724
C	 0.2592652574	-2.1892011752	-0.8692139026	-0.252275
C	-0.059953612	-1.9317652465	 0.5987617199	-0.000576
C	 0.7864102506	-0.7186477073	 1.1122543824	-0.131332
C	-0.3760517661	-0.4076416472	 2.0698051056	 0.139029
O	-0.4180520972	 0.8840624725	 2.6312213406	-0.438687
C	-1.0608983292	-0.7356723015	 0.7146791228	-0.164185
H	 1.0565140901	 1.8900477295	-0.5834508684	 0.10702
H	-0.6666052231	 1.8702859984	-0.952546639	 0.103617
H	-0.1244999152	 2.0652150707	 0.7274836493	 0.141619
H	-0.3844615473	-0.4912865507	-2.1405061486	 0.092004
H	 1.3385025564	-0.4748737903	-1.7696322878	 0.093067
H	-0.5302969689	-2.7608975623	-1.3675884413	 0.094674
H	 1.194439592	-2.7444223313	-0.9952281567	 0.095562
H	-0.1931157517	-2.7885054575	 1.2627462131	 0.05861
H	 1.8543845399	-0.7185436554	 1.3423696722	 0.062641
H	-0.5375403244	-1.164161037	 2.8511900356	 0.05928
H	-1.2520799795	 0.9757722065	 3.1020896803	 0.28188
H	-2.1295349152	-0.7572229069	 0.483925641	 0.055771
