15
gdb 1477	7.59045	1.32755	1.19194	2.0606	59.11	-0.2614	0.0396	0.3009	957.6244	0.122878	-345.614442	-345.606301	-345.605357	-345.646736	29.243	
O	 0.1167749772	 1.4084986642	-0.1042274137	-0.427705
C	 0.1072565522	 0.001070231	-0.0144877561	-0.046877
C	-1.3174899498	-0.5350963419	 0.0889741532	 0.10197
O	-1.9826405429	-0.063529154	-1.0743459384	-0.446174
C	-1.3600832844	-2.0754745103	 0.1722769714	-0.360135
C	-2.7334885694	-2.5635752882	 0.1574244387	 0.260164
C	-3.88927981	-2.8953665874	 0.123951204	-0.422189
H	-0.5298890595	 1.6304165271	-0.7853019845	 0.293115
H	 0.5963521742	-0.4653923071	-0.8863387852	 0.089065
H	 0.6774355834	-0.2717161482	 0.8797762556	 0.105934
H	-1.7865979839	-0.1168285247	 0.9924951965	 0.085502
H	-2.8944783568	-0.3755866945	-1.0408699289	 0.29308
H	-0.8090664838	-2.4940392772	-0.6791283365	 0.138635
H	-0.8497580949	-2.4076444874	 1.0849207062	 0.133862
H	-4.8988338316	-3.2247807013	 0.1072200379	 0.201754
