16
gdb 9182	6.05879	0.89575	0.85266	3.9603	67.12	-0.2677	0.0056	0.2733	1343.8565	0.12948	-379.971098	-379.961963	-379.961019	-380.00677	30.792	
C	 0.0552162252	 1.4928238115	 0.1520511064	-0.370174
C	-0.0563096465	-0.0228554573	-0.0079816238	-0.305731
C	-1.4928862515	-0.5159791027	 0.1204044789	 0.435504
O	-2.3691553809	 0.109292736	 0.6852244811	-0.360433
N	-1.7273590129	-1.7456217969	-0.4503454896	-0.324452
C	-3.0059709998	-2.4074231897	-0.2984328405	-0.280641
C	-2.9038747	-3.6670320657	 0.4505298314	 0.252871
N	-2.8057933586	-4.6691875027	 1.0167511368	-0.298378
H	 1.1034304816	 1.8031521219	 0.1483010439	 0.113812
H	-0.4597042933	 2.013287261	-0.6603117917	 0.127483
H	-0.4046498668	 1.8098055268	 1.089971758	 0.146724
H	 0.3642707585	-0.3530535776	-0.9653587107	 0.110247
H	 0.5264739311	-0.5311425208	 0.7721607033	 0.13822
H	-0.9634476728	-2.2585177414	-0.8596831052	 0.258854
H	-3.6514101967	-1.7059533325	 0.239745735	 0.198055
H	-3.4697923265	-2.61607512	-1.2699450635	 0.158039
