19
gdb 33919	3.31567	1.31742	1.12524	0.7023	87.8	-0.2246	0.0129	0.2375	1135.5848	0.160344	-348.727493	-348.719516	-348.718572	-348.75952	32.293	
C	 0.0175369655	-1.1545953167	 0.0701797226	-0.412556
C	 0.0127128729	 0.046995061	 0.0028826721	 0.219908
C	-0.0176377559	 1.482985178	-0.0606203947	 0.142299
C	 0.5481344082	 2.1312321093	-1.3076271511	-0.319539
C	 1.3307996128	 2.2150926907	-0.0126146303	-0.103309
C	 1.379245242	 3.4930955659	 0.7374395277	-0.039679
C	 0.2837291148	 4.1672504133	 1.0918307379	-0.081395
C	-1.1020775688	 3.667745307	 0.7732082324	-0.286327
C	-1.1705166245	 2.1296999546	 0.7075930464	-0.269035
H	 0.0280372492	-2.214562223	 0.1261559036	 0.186273
H	 0.9171987185	 1.4708251799	-2.0833559617	 0.123928
H	 0.0826537595	 3.0421452218	-1.666500358	 0.121083
H	 2.211896894	 1.5865701157	 0.0508070414	 0.098489
H	 2.3645417381	 3.8778139899	 0.9857201569	 0.089152
H	 0.3741521617	 5.1126037714	 1.6188285301	 0.088554
H	-1.8149861387	 4.0207641403	 1.5265978557	 0.104592
H	-1.447586883	 4.1001704075	-0.1763749001	 0.113808
H	-2.124796571	 1.8148470723	 0.2725415739	 0.108535
H	-1.1436241956	 1.7313068011	 1.7282957153	 0.115221
