20
gdb 121901	3.80197	0.6409	0.58258	4.5723	72.67	-0.26	0.0176	0.2776	1874.9565	0.168806	-477.451602	-477.4407	-477.439756	-477.488692	38.26	
N	 0.0470173432	 1.2573165834	-0.0870674033	-0.517786
C	 0.0506482548	-0.0965285072	-0.0238104173	 0.382301
O	 1.073889715	-0.7592186503	 0.0380767315	-0.376495
C	-1.3187866993	-0.795636688	-0.0079820412	 0.028656
O	-1.1092982546	-2.1712091502	-0.1840777921	-0.433429
C	-2.0723969583	-0.5109253536	 1.3063283082	-0.200107
C	-3.4353725615	-1.2050405858	 1.3476372121	-0.163481
C	-4.1563513766	-1.0066071575	 2.6740525118	-0.076814
O	-5.4168549639	-1.6532166797	 2.5869771593	-0.419975
H	 0.9287544385	 1.7418035491	-0.1293491022	 0.26849
H	-0.7994754237	 1.7809014592	-0.2248204462	 0.266471
H	-1.9184330572	-0.4105923275	-0.8495176375	 0.080467
H	-0.1460331437	-2.2830506097	-0.1024344755	 0.292551
H	-1.4443737719	-0.8591507277	 2.1365530864	 0.107605
H	-2.1953204921	 0.5731552783	 1.4336202521	 0.08054
H	-4.0768031781	-0.8241029711	 0.5427200589	 0.099307
H	-3.3020352516	-2.2755363661	 1.1672340135	 0.134274
H	-3.5478321896	-1.424899566	 3.4927445327	 0.086068
H	-4.2760134562	 0.0711796355	 2.8789452689	 0.076544
H	-5.8610656732	-1.5623324151	 3.4348136199	 0.284814
