15
gdb 180	6.7828	2.18539	1.85356	0.6759	56.46	-0.239	0.0173	0.2562	699.8479	0.129195	-287.662612	-287.654946	-287.654001	-287.694375	26.442	
C	-0.02713464	 1.5221203086	 0.0521305946	-0.37803
C	 0.0323693578	-0.0124749555	-0.0304120233	-0.253906
C	 0.7282693006	-0.509286915	-1.2711077622	 0.370339
C	 0.1197239999	-0.2618318564	-2.6264349659	-0.468449
N	 1.8326439706	-1.1282801584	-1.0913424504	-0.1664
O	 2.4056288198	-1.5311268206	-2.3124791001	-0.402568
H	 0.9803323016	 1.9481482522	 0.0827491978	 0.12724
H	-0.5483940531	 1.9540764861	-0.8082238646	 0.118685
H	-0.5580317568	 1.8383921734	 0.9549880432	 0.117972
H	 0.5562345897	-0.4149043749	 0.8407760193	 0.116839
H	-0.9901253601	-0.4139258185	-0.0136576368	 0.103785
H	 0.734038341	 0.4356263481	-3.2064085046	 0.145524
H	 0.0848704736	-1.1928804821	-3.1995737774	 0.148151
H	-0.8885473976	 0.149081638	-2.5428579112	 0.116651
H	 3.1970636931	-1.9934940451	-2.0182152584	 0.304169
