16
gdb 129823	5.84859	0.95015	0.86852	4.2077	73.56	-0.2203	0.005	0.2253	1305.6453	0.126106	-434.035585	-434.027681	-434.026737	-434.068469	29.697	
N	 0.0467957206	 1.3670606265	-0.1288624271	-0.59404
C	-0.0825332416	 0.0028319927	-0.0563611851	 0.499825
C	-1.1595788608	-0.8401168323	-0.0253130741	-0.465425
C	-0.5628247398	-2.1292991	-0.0365907362	 0.442811
N	 0.7504017481	-2.0724693068	-0.0586970023	-0.251731
O	 1.0590432113	-0.6958285755	-0.07674499	-0.215706
C	-1.2430337432	-3.4432035645	-0.0306504734	-0.11745
C	-0.8928421579	-4.4529606185	-1.0752348932	-0.224313
N	-0.4823023671	-4.6536412291	 0.3156511015	-0.315367
H	 0.9434945414	 1.7162518234	 0.1784529708	 0.269064
H	-0.7294501164	 1.889126462	 0.2478191059	 0.267359
H	-2.2056260563	-0.5861937738	-0.010038022	 0.109272
H	-2.2595427405	-3.4239617805	 0.3530535216	 0.095193
H	-1.6570387962	-5.1363313943	-1.4358816955	 0.118687
H	-0.1433263846	-4.1606015582	-1.8048510294	 0.128464
H	 0.496000603	-4.3907286312	 0.4223319587	 0.253357
