21
gdb 93703	2.74975	1.22249	1.0981	1.3069	83.7	-0.2559	0.0588	0.3147	1217.1782	0.181622	-387.073634	-387.064192	-387.063247	-387.108007	36.688	
C	 0.1279738769	 1.4467059735	 0.1628865791	-0.446956
C	-0.0127888141	-0.0824429702	 0.0432058869	 0.129276
C	 0.8963810208	-0.6728291546	-1.0783317051	-0.222058
C	 1.1635460604	-2.1075996564	-0.6133019528	-0.240071
C	 1.4538125268	-1.9311469812	 0.8858763401	 0.12611
O	 2.7713672571	-1.422477006	 1.1049105862	-0.44184
C	 0.4753153591	-0.8299583789	 1.3399404701	-0.246995
C	-1.4108340564	-0.425333599	-0.2333886767	 0.346572
C	-2.5585898604	-0.7042023646	-0.4624306814	-0.524131
H	 1.1673113511	 1.7086498188	 0.3840975651	 0.120748
H	-0.165712899	 1.9406308744	-0.7681465951	 0.1206
H	-0.5058396169	 1.836447	 0.9647297526	 0.122415
H	 0.4329709459	-0.6029040305	-2.0645626951	 0.101
H	 1.8376342543	-0.1144952476	-1.0971543185	 0.104806
H	 0.265850954	-2.7227820944	-0.7463361062	 0.109602
H	 1.9860085071	-2.5992494417	-1.1438925479	 0.083305
H	 1.3126559947	-2.862410398	 1.4513851532	 0.060313
H	 3.3972117672	-2.0693539056	 0.7630696213	 0.27907
H	 1.0005385541	-0.1474204884	 2.012107954	 0.115796
H	-0.3721732874	-1.2502346819	 1.8837743123	 0.110484
H	-3.5722548853	-0.948372338	-0.6630545423	 0.191955
