25
gdb 81961	2.24154	1.57756	1.1654	0.3147	91.09	-0.2588	0.0756	0.3345	1214.3498	0.230039	-352.364242	-352.354832	-352.353888	-352.397564	37.727	
C	-0.3700793939	 1.5737541555	 0.055741815	-0.402962
C	-0.1080903122	 0.0653948303	 0.0913985273	 0.022891
C	 0.611298285	-0.4793626254	-1.1389796373	-0.037574
C	 2.110826618	-0.326741825	-1.2428662746	-0.298832
C	 1.51208815	-1.6058755679	-0.7062091562	-0.037574
C	 1.3720190632	-1.785607614	 0.8024944008	 0.02289
C	 2.6596668889	-2.215212524	 1.5113395667	-0.402963
C	 0.6939009596	-0.4723839837	 1.3272750066	-0.034523
C	 1.6359188753	 0.5394897831	 2.0004290784	-0.403074
H	 0.5601947697	 2.1455641397	-0.015087619	 0.115599
H	-0.9815647669	 1.8334710673	-0.8151387003	 0.107452
H	-0.9083484	 1.9127930484	 0.9476183751	 0.108151
H	-1.0873103188	-0.433646176	 0.1133153966	 0.068869
H	 0.0454578466	-0.5360323294	-2.0638172528	 0.073157
H	 2.5346962199	-0.3712002683	-2.2408532689	 0.104825
H	 2.6392343725	 0.3495980844	-0.5821925244	 0.108314
H	 1.6184268318	-2.5031604957	-1.3081089063	 0.073157
H	 0.6393996996	-2.5930440737	 0.9428834249	 0.068869
H	 3.4603123794	-1.4812896477	 1.3782345152	 0.115598
H	 2.5033759806	-2.3538771379	 2.5867324379	 0.108151
H	 3.0176165911	-3.1678620901	 1.1062088057	 0.107452
H	-0.0292415848	-0.7530325899	 2.1019144544	 0.068735
H	 2.4248970412	 0.9189868132	 1.3460787498	 0.118774
H	 1.0720228254	 1.40391435	 2.3634342535	 0.112309
H	 2.1243529187	 0.0878822267	 2.869027672	 0.112308
