21
gdb 112725	2.18614	1.25373	1.03173	3.6162	74.68	-0.2447	0.0587	0.3034	1280.2705	0.179728	-461.345108	-461.334828	-461.333884	-461.380407	38.07	
C	 0.2157427727	 1.4479554808	-0.3125359655	-0.417122
C	 0.1337401497	-0.0232598225	 0.0349425517	 0.1347
O	 1.0286646543	-0.8350602257	-0.7657228236	-0.33898
C	 1.4517584677	-1.5969101542	 0.3930672302	 0.118684
C	 2.9569521267	-1.7868169899	 0.3725958912	-0.084165
O	 3.3407615961	-2.4817367693	-0.8005953712	-0.421744
C	 0.74328069	-0.6085959873	 1.3516260932	 0.268301
C	 1.6181212262	 0.3223904127	 2.1799705763	-0.465495
O	-0.1732820704	-1.3040134701	 2.1746006839	-0.471539
H	 1.2343234267	 1.8315151961	-0.2111953386	 0.119794
H	-0.1011569783	 1.6019446437	-1.3489726841	 0.13224
H	-0.448403211	 2.0354206232	 0.3310088686	 0.115356
H	-0.8995453384	-0.3840673706	-0.0684792656	 0.077729
H	 0.9552258205	-2.5757486099	 0.4176827656	 0.091341
H	 3.4645206366	-0.8125790968	 0.4380126815	 0.080434
H	 3.2770119353	-2.3954329331	 1.2253862416	 0.111513
H	 2.9441945433	-2.0008692455	-1.5370811062	 0.295069
H	 2.3649722412	 0.8416839752	 1.5755026929	 0.133438
H	 1.0023116812	 1.0886325571	 2.6672644506	 0.110924
H	 2.1366549467	-0.2425230125	 2.9603319607	 0.131805
H	-0.5478185668	-0.6819144914	 2.8074542668	 0.277717
