17
gdb 126387	3.46332	1.13666	0.91095	2.934	72.24	-0.2332	0.0051	0.2383	1297.4985	0.135768	-455.20077	-455.191774	-455.19083	-455.235212	31.453	
C	 0.4345203501	 0.7830987296	-0.7825174057	-0.384063
C	-0.2893141382	 0.4290860478	 0.5278060468	-0.292
C	-1.63374961	-0.1626564872	 0.3056428827	 0.424128
N	-2.7682357647	 0.307059552	 0.6904909606	-0.299057
N	-3.6873962035	-0.6162244614	 0.2250825645	-0.086002
C	-5.1035007036	-0.4613293207	 0.4509084742	-0.329365
C	-3.0910504491	-1.6451684416	-0.4465044213	 0.472323
O	-3.5509971916	-2.6142516915	-0.9834138622	-0.404355
O	-1.7286787754	-1.3327695714	-0.3858636351	-0.236129
H	 1.426266674	 1.1891610679	-0.5670916867	 0.125468
H	 0.5559791092	-0.1015532189	-1.4128132578	 0.143352
H	-0.1262821744	 1.5319107791	-1.3492310242	 0.131932
H	 0.3163577025	-0.2844103624	 1.0999875942	 0.13263
H	-0.4283813852	 1.3156283278	 1.1517323824	 0.138694
H	-5.3234576358	-0.4416192896	 1.5222121983	 0.146048
H	-5.4690820518	 0.462554835	-0.0066840516	 0.14561
H	-5.5968925926	-1.3187222244	-0.0091831291	 0.170786
