18
gdb 69095	2.55896	1.60038	1.16532	4.3086	76.47	-0.2792	0.0069	0.2861	1086.5128	0.1478	-401.9731	-401.964794	-401.96385	-402.00568	31.745	
C	-0.0102186417	 1.517138356	-0.0487867721	-0.484694
C	-0.086802645	 0.0228734686	 0.0830024528	 0.343943
C	-1.3332076878	-0.7431303981	-0.3349516251	-0.277655
C	-1.1005400165	-2.1845071378	 0.1731024821	-0.226435
C	-0.1954106077	-2.0436221125	 1.4199545804	-0.296707
C	 0.5901742918	-0.7731017545	 1.1385577286	 0.237417
O	 1.122514848	-0.7077721308	-0.1944073036	-0.318062
C	 1.3965273166	-0.1739363537	 2.1740862281	 0.229332
N	 2.0227779799	 0.2932087314	 3.0263714338	-0.343391
H	 0.9171091969	 1.900818362	 0.3819439417	 0.151468
H	-0.0452806365	 1.8041706273	-1.1048863122	 0.135679
H	-0.8565992517	 1.9916647921	 0.4576109504	 0.131565
H	-2.2031392748	-0.2811554851	 0.1470962132	 0.112195
H	-1.4965163756	-0.6985578519	-1.4162370495	 0.11708
H	-2.0338624158	-2.7041389933	 0.3990616745	 0.108968
H	-0.5768121047	-2.7614479049	-0.5911913295	 0.12857
H	-0.7789965595	-1.9011873127	 2.3365425102	 0.123488
H	 0.4567948741	-2.9076531222	 1.5726089063	 0.127239
