23
gdb 115826	4.13469	0.92195	0.83457	1.0933	86.51	-0.2462	0.0818	0.328	1479.5074	0.206279	-388.283572	-388.274332	-388.273388	-388.318489	35.206	
C	-0.0726028694	 1.3990220075	-0.1076364064	-0.238071
O	-0.0399548421	 0.0346958821	 0.2388594948	-0.244506
C	-1.2762785873	-0.6305307772	 0.0886674724	 0.156978
C	-1.7072010599	-0.9138815076	-1.364757558	-0.240894
C	-2.7388399497	-2.0404991012	-1.1992415783	-0.291402
C	-2.1808284874	-2.8962329808	-0.0528075893	 0.389399
C	-3.0512452477	-3.9138254699	 0.6356980465	-0.320325
C	-1.9157068985	-4.3681113443	-0.2494328893	-0.307895
C	-1.1807803037	-2.0282063771	 0.7244699611	-0.320473
H	 0.9111136164	 1.8155199905	 0.1238299974	 0.124508
H	-0.2759186656	 1.5566114958	-1.1772229412	 0.105532
H	-0.8334620017	 1.9479506851	 0.4703045603	 0.100891
H	-2.0683400216	-0.0429720467	 0.5855905416	 0.059284
H	-2.1068914048	-0.0391124754	-1.884793712	 0.091032
H	-0.8296690506	-1.2678848172	-1.9195642188	 0.105301
H	-3.7099027636	-1.6142676492	-0.9152068391	 0.097595
H	-2.8976987636	-2.6129454991	-2.117896095	 0.096331
H	-2.9440700065	-4.0385177692	 1.7088415727	 0.107505
H	-4.0662756801	-4.0464696501	 0.2730389193	 0.105429
H	-2.1610081542	-4.8109801631	-1.2099409341	 0.10609
H	-1.0384597882	-4.7958367307	 0.2261903237	 0.108006
H	-0.1533130034	-2.3833597227	 0.5877946526	 0.111429
H	-1.3777066764	-2.0036479195	 1.7999964992	 0.098256
