21
gdb 111883	2.55726	1.30393	1.18974	0.9605	77.94	-0.2276	0.0693	0.2968	1168.0106	0.184241	-424.201912	-424.193227	-424.192283	-424.235723	33.016	
O	 0.1756761134	 0.4509970972	-1.4446888863	-0.419275
C	-0.1504363306	 0.3475769865	-0.0595688256	-0.110967
C	-1.4359758615	-0.4208223177	 0.0743252489	-0.052826
C	-1.5154336961	-1.916505337	-0.1998769404	-0.071017
C	-0.2899822099	-2.7682957425	-0.50882015	-0.235481
C	 0.1261928594	-3.5250984487	 0.7595449589	-0.211384
C	 0.4033008326	-2.5396265066	 1.8882691374	-0.050526
O	-0.6688115758	-1.6369743483	 2.1725719596	-0.268062
C	-1.6543232154	-1.400661251	 1.2080694609	 0.078471
H	 0.9538835694	 1.0115304275	-1.5234482111	 0.283491
H	 0.6569614636	-0.1444517048	 0.4988659995	 0.094337
H	-0.2816584751	 1.3448953009	 0.387782246	 0.092771
H	-2.3134549141	 0.1429585021	-0.2303985413	 0.084282
H	-2.4349825775	-2.2500175854	-0.6705533661	 0.086245
H	-0.5243376292	-3.4704063415	-1.3137787933	 0.098941
H	 0.538172686	-2.1508357869	-0.8724724939	 0.116828
H	-0.6716935297	-4.2170884763	 1.0557634037	 0.102861
H	 1.0301829465	-4.1212251246	 0.5922239799	 0.095871
H	 0.607545562	-3.0647860237	 2.8278148837	 0.103188
H	 1.3046269013	-1.9565863968	 1.6388929809	 0.089203
H	-2.6366317093	-1.4107468026	 1.6725799485	 0.09305
