19
gdb 111018	2.59106	1.23309	0.98224	4.5376	81.33	-0.258	0.0083	0.2662	1264.2104	0.160355	-382.01611	-382.007648	-382.006703	-382.049594	31.977	
C	 0.0001922562	 1.616952331	 0.0294235224	-0.377475
C	 0.0576140153	 0.0935346056	 0.2029372406	-0.241593
C	-1.3179336558	-0.546562746	 0.0790587436	 0.011995
C	-2.0374910987	-0.8306067195	-1.2813076175	-0.059333
C	-1.0719260934	-2.0149434328	-1.5413901286	-0.239812
C	-1.5399231871	-2.0944853356	-0.060294251	 0.215063
N	-2.9440429663	-1.8453531916	-0.5937487278	-0.337608
C	-1.2475962729	-3.1157491483	 0.917564979	 0.157849
N	-0.9909418815	-3.9109249654	 1.716712958	-0.347976
H	 0.9906634492	 2.0632366746	 0.1556540025	 0.12227
H	-0.3650783727	 1.8914181243	-0.9659296615	 0.120056
H	-0.6682656537	 2.0755777434	 0.7660230417	 0.120778
H	 0.7611427817	-0.3300092091	-0.5204957096	 0.106171
H	 0.4590750116	-0.147424919	 1.1953493882	 0.11804
H	-2.0003466368	-0.1125410601	 0.8214452197	 0.076866
H	-2.4351916311	-0.11939853	-2.0038836444	 0.096991
H	-1.4667460428	-2.8036195775	-2.1803493223	 0.128222
H	-0.0220102689	-1.7996905258	-1.7272877956	 0.115061
H	-3.4899926125	-1.3698822681	 0.1335299726	 0.214436
