17
gdb 7843	3.88969	1.32913	1.25917	2.1541	65.73	-0.2464	0.0233	0.2696	1041.9939	0.140102	-400.980272	-400.971583	-400.970639	-401.01391	31.342	
C	-0.1559475095	 1.3382206283	-0.1730065482	-0.442656
C	 0.1276595849	-0.1332718298	-0.0960815245	 0.395254
N	 0.8518961383	-0.6445622592	 0.8050293742	-0.503251
O	-0.5211898502	-0.7829185107	-1.1264275792	-0.261971
C	-0.484512141	-2.1902409149	-1.1226595315	 0.050855
C	-0.8220303479	-2.8283457596	-2.4444303558	-0.36722
C	 0.6064999684	-2.8306246531	-1.9471927381	 0.124728
O	 1.571756104	-2.0276790307	-2.5460740322	-0.42428
H	 0.3732002015	 1.8528017051	 0.627495373	 0.152028
H	 0.1616946416	 1.7380601455	-1.1412990368	 0.136061
H	-1.2312429169	 1.5217983104	-0.085653615	 0.142711
H	 0.9607823032	-1.6520059595	 0.6934602832	 0.225706
H	-0.8309790054	-2.6399715089	-0.1958059045	 0.111292
H	-1.393552427	-3.7497290954	-2.4384115752	 0.123708
H	-1.0522476932	-2.148616854	-3.2581110022	 0.13098
H	 1.0368475924	-3.766843902	-1.606722468	 0.113343
H	 1.2531850067	-1.1176065116	-2.514976549	 0.292712
