16
gdb 49259	2.72255	1.35172	0.92445	4.5009	75.86	-0.2381	-0.0705	0.1676	1200.0845	0.125464	-437.957084	-437.949246	-437.948302	-437.989768	29.291	
O	 0.0374826493	-0.0331830035	-0.0546141232	-0.285174
C	 0.0166888548	 1.1769332145	-0.0116945914	 0.099021
C	 1.2347909517	 2.0000044697	 0.0491830524	 0.300761
C	 1.1917579601	 3.3427266958	 0.0422280625	-0.165805
C	 2.4705574766	 4.1272591287	 0.0250597495	-0.277384
C	 3.6070248559	 3.3418354199	 0.7043595815	-0.326114
C	 3.6656397118	 1.8608043135	 0.3341801447	 0.404632
O	 4.6876366319	 1.2110374465	 0.3269666337	-0.352977
N	 2.4348308022	 1.2952180035	 0.0713681502	-0.403615
H	-0.9300359911	 1.753372733	-0.0264368353	 0.092103
H	 0.2310980548	 3.8439516367	 0.0098976143	 0.111967
H	 2.7378944121	 4.3458900231	-1.020480069	 0.134845
H	 2.3433849952	 5.1005135801	 0.5093543639	 0.123166
H	 4.5864829793	 3.7735527909	 0.4932243852	 0.13785
H	 3.4713649303	 3.373401724	 1.7938128458	 0.137844
H	 2.3809995751	 0.2903648537	-0.0365020346	 0.26888
