16
gdb 26432	4.26448	1.16049	0.91746	2.1425	77.08	-0.2108	-0.0053	0.2055	1217.5809	0.125802	-434.099567	-434.091237	-434.090292	-434.133487	29.55	
C	 0.0008330939	 1.4714276945	 0.0161703457	-0.340126
N	 0.0274799779	 0.0094049514	-0.0229288132	-0.181935
C	 0.0773109903	-0.6909982859	 1.1690623903	 0.073745
N	 0.0995830859	-0.0713560541	 2.2817167347	-0.477254
C	 0.0022419495	-0.6249088134	-1.2409647435	 0.557903
N	-0.0442456923	-0.0733927068	-2.4159304517	-0.373585
C	-0.0503785508	-1.1576723369	-3.2898647705	-0.102651
C	-0.0070689144	-2.3086616084	-2.5910403506	-0.05647
O	 0.0277899162	-1.9772340379	-1.2470160373	-0.197947
H	 0.8938978916	 1.8424046028	 0.5245900272	 0.147914
H	-0.0374274773	 1.8379039789	-1.0070289078	 0.169435
H	-0.8729841008	 1.8087645018	 0.5786016261	 0.14791
H	 0.0936531675	-1.7725655353	 1.0303865032	 0.129043
H	 0.1357914964	-0.7377923382	 3.0498643082	 0.228908
H	-0.0857849317	-1.0172810995	-4.3583971521	 0.128079
H	 0.0058938981	-3.3588209529	-2.8207176688	 0.14703
