21
gdb 83617	2.35578	1.84979	1.22713	1.3151	82.15	-0.2437	0.0735	0.3172	1075.3774	0.183657	-387.0456	-387.03759	-387.036646	-387.07799	32.24	
O	-0.0383896177	 1.4082040811	-0.1547043868	-0.433338
C	 0.0125441317	 0.0059648629	 0.0085147069	 0.123612
C	 0.2492108161	-0.5460813537	 1.4473792329	-0.128719
C	 0.9223833323	-1.9503360075	 1.5121891428	-0.229005
C	-0.4740678114	-2.6256736997	 1.6887989742	-0.333564
C	-1.1430994341	-1.2715509456	 1.4255613922	 0.404561
C	-2.4339179276	-0.6470906119	 1.9570307251	-0.328739
C	-2.5258766543	 0.1994873244	 0.6494158884	-0.222976
C	-1.3875844477	-0.650144705	 0.00219951	-0.09794
H	 0.8491102896	 1.7551977071	-0.0193899486	 0.280794
H	 0.7012995681	-0.4425211693	-0.7246299556	 0.056679
H	 0.5317753453	 0.1783009554	 2.2151738871	 0.056663
H	 1.4492112808	-2.2272060139	 0.5933089323	 0.095189
H	 1.6073458305	-2.0930109775	 2.3507796882	 0.100077
H	-0.7284326596	-3.4456308623	 1.0097335901	 0.093113
H	-0.6340538096	-2.9725410064	 2.7151456003	 0.100304
H	-3.2456554916	-1.3794414147	 2.0298063866	 0.096114
H	-2.3729771784	-0.109600061	 2.9088455915	 0.091192
H	-3.4834694646	 0.1456026684	 0.1283255494	 0.096615
H	-2.2520575595	 1.2479610576	 0.7682323737	 0.123995
H	-1.6719781785	-1.2403556684	-0.8712808906	 0.055372
