17
gdb 42825	2.58867	1.84859	1.6732	2.9704	70.87	-0.2312	-0.026	0.2052	896.7745	0.137474	-421.801722	-421.794927	-421.793983	-421.832684	27.741	
O	-0.0297975734	 0.0149681537	 0.1483425297	-0.31887
C	-0.0339384188	 1.2027750837	 0.0179139801	 0.404919
C	-1.1150399819	 2.3172057662	 0.0475382256	 0.013394
C	-0.0154657364	 3.1609658505	 0.7662466476	-0.265115
C	 1.0453413959	 2.3035193675	-0.0084834947	-0.163418
C	 1.1156131288	 2.8864925949	-1.4201275308	-0.065737
C	 0.6641819663	 2.0687547292	-2.6168604507	-0.33394
C	-0.241731194	 3.1228686332	-2.0250658953	 0.107245
O	-1.3834078267	 2.7799704371	-1.2735718264	-0.269262
H	-2.0788024412	 2.1374728994	 0.5228842154	 0.099937
H	-0.0181668813	 4.2326113302	 0.5612050685	 0.115975
H	-0.0156827736	 2.9737823386	 1.8426185624	 0.118793
H	 2.0208839265	 2.0834484009	 0.4259549011	 0.091154
H	 1.884400663	 3.6392080893	-1.5666876468	 0.099723
H	 1.1102403569	 2.2850777827	-3.5815282678	 0.115347
H	 0.4168478418	 1.0244666036	-2.4603282506	 0.144275
H	-0.4257135819	 4.0215320192	-2.6039806573	 0.105583
