21
gdb 39243	2.57166	2.09434	1.47912	0.5763	86.75	-0.219	0.0138	0.2328	965.0028	0.186821	-349.94912	-349.942328	-349.941384	-349.979982	29.037	
C	-0.1358481082	 1.3317541769	 0.2626862368	-0.325842
C	 1.4210111374	 1.4405839103	-0.0049455462	-0.024179
C	 2.4026592296	 1.0068830207	 1.1058993294	-0.215916
C	 2.5943005822	-0.5354482513	 1.018144567	-0.218469
C	 2.1457697716	-1.0064455984	-0.4042662352	-0.014935
C	 1.0687371979	-2.1374576916	-0.3252918146	-0.255741
C	-0.1747009172	-1.3440028085	 0.0891038259	-0.20577
C	-0.0157601538	-0.0759948976	-0.2836347908	 0.265237
C	 1.3257015326	 0.1839719487	-0.930405695	-0.066416
H	-0.5015590063	 1.4371672525	 1.2883189874	 0.103017
H	-0.6823651394	 2.0295888878	-0.3808264586	 0.105358
H	 1.7177820891	 2.3874525847	-0.462216389	 0.06548
H	 3.3596601376	 1.5071755838	 0.9213496488	 0.098991
H	 2.0796737763	 1.3188865031	 2.1046815571	 0.096148
H	 3.6331987062	-0.8130744507	 1.2188831281	 0.092984
H	 1.9891466079	-1.0341513905	 1.7801274779	 0.10219
H	 3.003646454	-1.2812341356	-1.0261438221	 0.053356
H	 0.9544300661	-2.6586543148	-1.2862911198	 0.097916
H	 1.3256190436	-2.9025010373	 0.4167365848	 0.097752
H	-0.9436362471	-1.7435129927	 0.7408880212	 0.086607
H	 1.33999407	 0.3613485103	-2.0090967031	 0.062234
