17
gdb 62536	2.70472	1.30465	1.08906	1.237	75.52	-0.2379	-0.0328	0.2051	1150.4359	0.131779	-421.796178	-421.786603	-421.785658	-421.830505	35.282	
C	-0.4534294664	 1.3793087534	-0.1809911298	-0.462616
C	 0.0748347463	-0.0158602454	 0.088169566	 0.301966
O	-0.9385373657	-0.9121297994	 0.5167030105	-0.455481
C	 0.9331030685	-0.723381082	-1.0310517216	-0.254279
C	 2.0004965093	-1.1376440845	 0.0430425132	-0.363842
C	 1.3075726145	-0.1828393141	 1.0208073369	 0.349054
O	 1.584361787	 0.2793948869	 2.0895251974	-0.299041
C	 0.3140996195	-1.7660750111	-1.8180131107	 0.348904
C	-0.1828623655	-2.6330789542	-2.4856574339	-0.443642
H	 0.3348100955	 2.0412423574	-0.5529248765	 0.123779
H	-1.2595323451	 1.3384790231	-0.9197159675	 0.138542
H	-0.8467738018	 1.819382635	 0.7421317183	 0.128032
H	-1.2681832992	-0.5915957311	 1.3646973399	 0.29136
H	 1.3489897467	 0.045912735	-1.6898231724	 0.111483
H	 1.8969393239	-2.1805649677	 0.3549456073	 0.153085
H	 3.0488495505	-0.9330759773	-0.1825942243	 0.136398
H	-0.6320252781	-3.4007643239	-3.0655029628	 0.196296
