19
gdb 39425	2.41031	1.92281	1.34395	3.0351	73.41	-0.2588	0.0672	0.326	993.598	0.161512	-422.992371	-422.985065	-422.98412	-423.023884	29.317	
C	-0.0132675332	 1.5107031765	-0.0877622592	-0.194585
C	 1.3638207777	 2.2134673149	-0.1068208115	-0.253756
C	 2.3165088502	 1.9024377524	 1.0422729358	 0.054254
O	 1.8587211235	 1.0550157771	 2.100801758	-0.23977
C	 2.8706590513	 0.5469252066	 1.2331824852	 0.005711
C	 2.5289503529	-0.5340780499	 0.2524557044	 0.051792
O	 1.7937525577	-1.6805564244	 0.6779384659	-0.25706
C	 1.1687359208	-0.7789156502	-0.2521400261	 0.035384
C	-0.0285032503	 0.0010354661	 0.2521394889	-0.228554
H	-0.6626374944	 2.0178083682	 0.633500987	 0.11187
H	-0.4674659852	 1.6795541078	-1.071121924	 0.098437
H	 1.883946848	 1.9764670612	-1.0438351993	 0.109851
H	 1.1891579832	 3.2945778773	-0.1315130963	 0.105606
H	 2.921723768	 2.7403437162	 1.3899722182	 0.09456
H	 3.8458487662	 0.4414387729	 1.7103941873	 0.096842
H	 3.3688727885	-0.766067114	-0.4077316665	 0.086311
H	 1.0925518599	-1.1878677627	-1.261164627	 0.088336
H	-0.0500713503	-0.1229575722	 1.3339346409	 0.142451
H	-0.9450521546	-0.4463527938	-0.1486627516	 0.092319
