17
gdb 133805	3.92517	0.69775	0.67966	2.8297	58.69	-0.2341	0.0651	0.2993	1616.3345	0.131903	-586.63714	-586.627552	-586.626607	-586.672957	33.635	
O	-0.1339827356	 0.9188768474	 0.7540877383	-0.422745
C	 0.0111676474	 0.1021905041	-0.4043205798	-0.090355
C	-1.3392203678	-0.5355484503	-0.6801235708	-0.12409
N	-2.3259173634	 0.5086328571	-0.9415756724	-0.294755
C	-3.699610145	 0.0627656041	-1.0263639157	-0.295259
C	-4.071531051	-0.3731928944	-2.4376852187	 0.297303
F	-3.3053370109	-1.3924724042	-2.8688083958	-0.085811
F	-5.3481584279	-0.7941923121	-2.4697292859	-0.082282
F	-3.9492203454	 0.6197589155	-3.3227867386	-0.070819
H	 0.6449885855	 1.4759613679	 0.8343858872	 0.292744
H	 0.3135141202	 0.7019714295	-1.2744217312	 0.103235
H	 0.7639879533	-0.6842075106	-0.2460216531	 0.092677
H	-1.2539889595	-1.1910244228	-1.5515186908	 0.117657
H	-1.6168112011	-1.1692858522	 0.1825632791	 0.089025
H	-2.2304410028	 1.212248589	-0.2196067075	 0.237097
H	-3.9454041307	-0.7806406839	-0.3581698056	 0.107656
H	-4.3715182453	 0.8890522659	-0.7776572088	 0.128724
