19
gdb 79994	2.21282	2.03771	1.61797	1.2954	78.27	-0.2232	-0.0055	0.2177	946.691	0.159345	-385.876235	-385.868376	-385.867432	-385.907792	32.421	
C	-0.1198108848	 1.5305200336	 0.0289755624	-0.431095
C	 0.0754242965	 0.0211912778	 0.02140274	 0.035223
C	 1.1440033854	-0.5990251223	-0.9535933221	-0.139291
C	 2.4272676764	-0.0593071699	-0.2938973988	-0.074695
C	 2.2242597142	-0.0718375132	 1.0215053341	-0.149968
C	 0.797669926	-0.6151438355	 1.2558398037	 0.348639
O	 0.1861313613	-0.3256549464	 2.4853504369	-0.515834
C	 0.7918238952	-2.0867274129	 0.782960196	-0.143031
C	 0.9930535137	-2.0747827231	-0.5332504266	-0.084985
H	 0.8229915805	 2.0710500424	 0.1361195871	 0.118126
H	-0.6014722236	 1.8570960195	-0.8991711061	 0.106674
H	-0.7723451291	 1.8137961163	 0.8608017467	 0.128314
H	-0.8923107754	-0.4681221606	-0.1236361249	 0.076845
H	 1.0300637878	-0.3925108051	-2.017688612	 0.059758
H	 3.3230667443	 0.2209553816	-0.8320213062	 0.099286
H	 2.9062661225	 0.1976105755	 1.8182058329	 0.093138
H	 0.7340590032	-0.6800481074	 3.1925126541	 0.278491
H	 0.665336192	-2.9302764676	 1.449391589	 0.094958
H	 1.0786868137	-2.9154174429	-1.2089115362	 0.099446
