23
gdb 87989	2.54278	1.26151	1.22325	1.6431	85.83	-0.2215	0.0803	0.3018	1229.5974	0.20333	-388.270195	-388.260134	-388.25919	-388.304969	38.059	
C	 0.1292103595	 1.6263212044	 0.2510186391	-0.406325
C	-0.0501705779	 0.1279913004	 0.1459896491	-0.0817
C	 1.083113237	-0.7495401801	-0.3796402912	-0.37207
C	 0.7018486427	-0.7851524588	 1.0643116362	 0.440631
O	 1.5763940339	-0.2660731468	 2.0685091423	-0.313279
C	 1.1144448494	-1.2495796576	 3.0202150435	-0.106189
C	 0.2108867268	-1.9364171837	 1.9606834041	 0.175542
C	-1.2810768294	-1.9369874903	 2.2806477147	-0.450831
C	 0.7003745756	-3.3185789129	 1.5317956176	-0.4433
H	 1.1252781844	 1.8707914304	 0.6296213141	 0.133038
H	 0.0011603567	 2.1118454577	-0.7224251278	 0.11279
H	-0.5997852426	 2.0625645618	 0.9427724424	 0.11406
H	-1.0526405175	-0.1979769861	-0.12467535	 0.080716
H	 0.8413790546	-1.5970797648	-1.0137614101	 0.107575
H	 2.0218333645	-0.2584414018	-0.6185640365	 0.117389
H	 1.9406944836	-1.8552734508	 3.4107212056	 0.098001
H	 0.5783863855	-0.7849468549	 3.8574435861	 0.095788
H	-1.6247751566	-0.9424031395	 2.5803126905	 0.120272
H	-1.8723378527	-2.2497222259	 1.4125162372	 0.115101
H	-1.5036253736	-2.6340406117	 3.0966349835	 0.113543
H	 0.530195752	-4.0556253493	 2.3248697571	 0.111939
H	 0.1689131087	-3.6653989049	 0.6385269173	 0.113551
H	 1.7699298557	-3.3056513348	 1.3018531354	 0.123759
