16
gdb 26870	3.06729	1.4209	0.9775	5.49	79.25	-0.1991	-0.0343	0.1649	1156.3095	0.124328	-437.961551	-437.953196	-437.952251	-437.994312	31.624	
C	 0.004406929	 1.5658892006	 0.0346702356	-0.521444
C	 0.0243078683	 0.0600140921	 0.0129749318	 0.118276
C	-1.1402892099	-0.6708275575	 0.0515083761	 0.396985
N	-2.3959134763	-0.1385548628	 0.1460708569	-0.559554
O	-1.1604439275	-2.0036810584	 0.0433972914	-0.261076
C	 0.0248165149	-2.8213138909	 0.0063448547	 0.418682
O	-0.158626151	-4.0073601247	 0.0109903307	-0.349449
C	 1.2382780043	-2.0645918856	-0.0361857497	-0.306842
C	 1.2175234594	-0.6987508804	-0.0334485835	-0.084486
H	 1.0234719175	 1.9607887568	 0.027542906	 0.133495
H	-0.5083930869	 1.9938193341	-0.8383200024	 0.121263
H	-0.4923094484	 1.9620286952	 0.9294999213	 0.132657
H	-2.5195858112	 0.8144221475	-0.1541660241	 0.268392
H	-3.154623017	-0.7673235814	-0.068089929	 0.272478
H	 2.1584579803	-2.6315226886	-0.0716253628	 0.114162
H	 2.1609389345	-0.158988466	-0.066892783	 0.10646
