14
gdb 369	6.77272	2.23073	1.78456	1.3163	55.08	-0.2613	0.0553	0.3166	682.8459	0.117465	-270.3961	-270.388643	-270.387698	-270.426967	26.225	
C	 0.0016288297	 1.5659393041	-0.0028102589	-0.384715
C	-0.004025536	 0.0258611527	 0.0425011735	-0.133853
C	 0.756854506	-0.5090218521	 1.2677250941	-0.071175
O	 2.1023657853	-0.0744464847	 1.1575651295	-0.419683
C	-1.3622344326	-0.5113023258	 0.026258537	 0.312597
C	-2.4835394831	-0.9449101846	 0.0359526531	-0.473974
H	 1.0302634794	 1.9303201836	 0.0273020275	 0.135696
H	-0.480259868	 1.928212321	-0.9142403386	 0.121715
H	-0.5415645105	 1.9765146028	 0.8542334913	 0.119656
H	 0.530056401	-0.3467416288	-0.8422231912	 0.115409
H	 0.2797469469	-0.1271333842	 2.1835273863	 0.09561
H	 0.6877280824	-1.6062725131	 1.2862673688	 0.098422
H	 2.5757883701	-0.3542342652	 1.9459207266	 0.290362
H	-3.4727655506	-1.3305939057	 0.0310575309	 0.193933
