17
gdb 127121	4.06503	1.10392	0.88768	4.2947	71.89	-0.1975	0.0449	0.2424	1275.2456	0.136672	-451.361319	-451.352063	-451.351119	-451.39599	32.665	
C	-0.1212384614	 1.4198215064	-0.053921269	-0.324086
N	-0.2534713286	-0.0304569979	 0.0067280258	-0.166795
C	 0.2670675529	-0.6475312217	 1.2183612235	-0.342255
C	-0.0647454116	-0.6861701243	-1.1882909844	 0.533943
N	 0.1276023109	-0.0999411061	-2.3365602085	-0.326589
N	 0.1530325123	-1.1540194233	-3.243953806	-0.308791
C	 0.0139383337	-2.3928893599	-2.6778139819	 0.459715
O	 0.0014175677	-3.4962576374	-3.1795220977	-0.425844
N	-0.1166866375	-2.0572263307	-1.3166705767	-0.440337
H	 0.9248736734	 1.7440814697	-0.1574287908	 0.12121
H	-0.6776654932	 1.7953985955	-0.9130523598	 0.159326
H	-0.535821999	 1.8465316425	 0.8630430731	 0.121165
H	-0.0442389468	-1.6922881311	 1.2919027934	 0.124563
H	 1.3658808289	-0.6076845912	 1.2842822322	 0.125805
H	-0.1488722732	-0.1239776458	 2.0827896198	 0.138107
H	 0.302566656	-0.9714789758	-4.2193192438	 0.276982
H	-0.3315385846	-2.7414060991	-0.6144235593	 0.27388
