17
gdb 5609	3.33917	1.97806	1.26212	1.3971	71.71	-0.1776	0.0607	0.2383	959.0704	0.142476	-363.885041	-363.876753	-363.875809	-363.918384	29.483	
C	-0.249522059	 0.6269639983	-0.7631162067	-0.243403
O	 0.2193084764	 0.9118610052	 0.5422580507	-0.266481
C	 0.7886977441	-0.1364738003	 1.1820590472	 0.406592
C	 1.0405875443	-1.4422794105	 0.8251740511	-0.310706
C	 1.6783797566	-2.0445510229	 1.953498996	-0.157111
C	 1.7858592249	-1.0940328963	 2.9336573067	-0.111068
N	 1.2306232451	 0.0824658524	 2.4594078994	-0.07204
C	 1.1853355599	 1.3534713594	 3.1495669825	-0.3372
H	 0.572622771	 0.3075537364	-1.416364706	 0.125925
H	-1.0139524148	-0.1603545838	-0.745017129	 0.125739
H	-0.6838829272	 1.5511393951	-1.1472827772	 0.132345
H	 0.7975933874	-1.9109416004	-0.1140177599	 0.092171
H	 2.0101881747	-3.0687009043	 2.0274281181	 0.089569
H	 2.1964103725	-1.134990815	 3.9294854272	 0.109113
H	 1.9840645103	 2.0265227496	 2.8166416138	 0.134839
H	 0.2262675879	 1.844409987	 2.9700180549	 0.147077
H	 1.297837716	 1.1784234703	 4.2212872713	 0.13464
