18
gdb 71846	2.82836	1.95573	1.66423	1.3045	74.99	-0.2228	0.	0.2229	893.8878	0.149322	-401.891882	-401.885052	-401.884107	-401.922533	28.791	
C	 0.0368901542	 1.547793538	-0.0489582231	-0.517093
C	-0.0740475438	 0.0466789775	-0.0614297035	 0.300656
N	 0.329552965	-0.6902227211	-1.2822076624	-0.349291
C	-0.5508963854	-1.8327771441	-0.7970412194	-0.142036
C	 0.3747032361	-2.7096722395	-0.001966018	-0.015031
C	 0.9506851381	-2.0748291199	 1.0223667691	-0.06362
C	 0.3563868129	-0.7205962832	 1.2809916555	 0.001645
O	-1.0722655511	-0.9711432009	 1.5646796923	-0.294373
C	-1.3264627329	-0.8038625233	 0.1805103796	 0.064316
H	 1.0842405364	 1.8570448956	-0.1369801703	 0.133222
H	-0.5177019876	 1.9934162819	-0.882343403	 0.11516
H	-0.3656806516	 1.956472903	 0.8828182393	 0.134614
H	-0.1496408229	-0.2363980254	-2.0612502765	 0.210481
H	-1.1215884315	-2.3400358411	-1.5747244809	 0.066764
H	 0.5782265296	-3.7350609311	-0.2879365397	 0.101687
H	 1.6998877945	-2.5022709815	 1.6782063711	 0.09969
H	 0.8244498501	-0.1321264955	 2.0714195602	 0.074052
H	-2.36598814	-0.5654695695	-0.0599538703	 0.079157
