23
gdb 116502	2.79252	1.21088	0.92156	1.9504	82.29	-0.2486	0.0806	0.3293	1359.022	0.206548	-425.438504	-425.429126	-425.428182	-425.472867	35.359	
C	-0.1379762905	 1.5207969599	-0.0578970777	-0.385872
C	-0.0271150895	-0.0026691809	 0.0053096192	-0.19576
C	 0.7771431809	-0.4938979573	 1.2027525767	 0.212947
O	 0.1039811615	-0.0978963554	 2.3753683828	-0.247634
C	 0.8811159635	 0.1764170104	 3.5330966054	-0.064485
C	 1.9783456552	-0.8531387047	 3.8530426684	-0.227616
C	 1.6350050158	-2.2903912455	 3.4353416533	-0.194818
C	 1.8045742013	-2.5318494002	 1.9302604311	-0.070623
O	 0.8480399341	-1.8953811267	 1.1029803599	-0.240959
H	 0.8484005303	 1.9911991924	-0.145293411	 0.107022
H	-0.7296000862	 1.8328698888	-0.923467488	 0.112099
H	-0.6180060756	 1.9098990307	 0.8436215311	 0.130298
H	-1.0205690815	-0.4591400102	 0.07393516	 0.114586
H	 0.4466964238	-0.3983182992	-0.8987099778	 0.101546
H	 1.7962819718	-0.0640322171	 1.1897211977	 0.049262
H	 1.3269036649	 1.1808697693	 3.4635224906	 0.09137
H	 0.1491234376	 0.2042256352	 4.3469786754	 0.10999
H	 2.9201502509	-0.5657696301	 3.3690712117	 0.10053
H	 2.170798627	-0.8049221462	 4.9313004474	 0.100233
H	 2.309360852	-2.9840473059	 3.9527168726	 0.095666
H	 0.613030016	-2.5502388745	 3.7331891847	 0.114027
H	 2.8227596017	-2.2247736689	 1.6324301146	 0.082523
H	 1.706188505	-3.599117124	 1.7091190518	 0.105667
