21
gdb 84014	2.06647	1.738	1.42551	0.7606	78.56	-0.2228	0.0788	0.3016	1074.3197	0.181962	-424.206607	-424.197498	-424.196554	-424.240494	34.285	
C	-0.3509638044	 1.4802025538	-0.1698278352	-0.41205
C	-0.0612592149	-0.001234659	-0.0727580248	-0.102253
C	 1.3305155403	-0.5545156952	-0.3490465262	-0.001223
O	 2.3680151561	 0.3471970485	-0.6073442253	-0.251648
C	 3.244180245	 0.4407523158	 0.5088745107	-0.096983
C	 2.4933436522	 1.0072796904	 1.701379153	-0.068971
O	 1.3268002996	 0.2567876743	 2.0276875606	-0.308474
C	 0.772445885	-0.5925686162	 1.0509273027	 0.373515
C	 0.3637784161	-1.9042636941	 1.6754978964	-0.437502
H	 0.5680777765	 2.0687175907	-0.154397919	 0.127725
H	-0.866910299	 1.7075282152	-1.1081509278	 0.115767
H	-0.9872980929	 1.8153124084	 0.6554457551	 0.120274
H	-0.8712196845	-0.6438991961	-0.4094178985	 0.080469
H	 1.4269003703	-1.4881401902	-0.9034763676	 0.085271
H	 3.6702764589	-0.5458490675	 0.7458137649	 0.098224
H	 4.0582116728	 1.1124401223	 0.2220370044	 0.112619
H	 3.1321312885	 1.0099030115	 2.5925370888	 0.104971
H	 2.2109499343	 2.0470555642	 1.4832997392	 0.104221
H	-0.3700289205	-1.7351903908	 2.4706825828	 0.126478
H	-0.0855955104	-2.5687528588	 0.9320256601	 0.113467
H	 1.229913801	-2.4100130172	 2.1151896156	 0.116103
