16
gdb 55723	2.56427	1.21002	1.03409	4.6663	70.35	-0.2625	0.0189	0.2814	1199.5883	0.124073	-434.102647	-434.0935	-434.092556	-434.137236	33.246	
N	-0.1095701975	 1.3715264234	-0.0624885239	-0.566343
C	-0.0882976967	 0.050303418	 0.3496757566	 0.453083
O	 0.6667586007	-0.367341244	 1.2020495526	-0.376255
N	-1.0787114451	-0.7314955446	-0.2381346308	-0.405842
C	-1.0670263057	-2.1555875834	-0.1300309712	 0.212041
C	-1.2148555973	-2.767658868	 1.2493368864	-0.258419
C	-2.3638401331	-2.8394584382	 0.2971776619	-0.308097
C	-0.2417105587	-2.8501804704	-1.097991491	 0.251337
N	 0.402337056	-3.3846085793	-1.8967124489	-0.346909
H	 0.6980500258	 1.8902083579	 0.2463711235	 0.268344
H	-0.4159723875	 1.5915759928	-0.9975288306	 0.250708
H	-1.6017348822	-0.3458331938	-1.0094730811	 0.245409
H	-0.643262454	-3.6661401815	 1.4451924321	 0.147311
H	-1.2471665617	-2.0571507873	 2.0637289411	 0.157542
H	-3.2064804746	-2.1768557475	 0.4558009889	 0.133566
H	-2.5986062485	-3.7876926742	-0.1710005057	 0.142525
