20
gdb 58958	2.71277	1.34699	1.10365	1.9592	74.92	-0.211	0.0568	0.2678	1177.4587	0.169331	-440.212013	-440.202769	-440.201825	-440.245746	34.788	
C	 0.093854099	 1.3785565883	-0.2371437066	-0.337336
N	 0.0070220502	-0.029902829	 0.1274025629	-0.14386
C	 0.7795908163	-0.3628695487	 1.3146714757	-0.333257
C	-1.3045453526	-0.5522502523	 0.0996794166	 0.260924
C	-2.4129618296	-0.4888476881	 1.1672798351	-0.158272
O	-2.8755275044	-1.8257184081	 0.8045671182	-0.306281
C	-1.7944069168	-1.9830606241	-0.1267823176	-0.051432
C	-1.968540834	-0.9677344743	-1.2080608189	 0.076268
O	-3.2328787803	-0.543695247	-1.6021373464	-0.440532
H	 1.1419090108	 1.6502664901	-0.401615795	 0.117344
H	-0.4575186307	 1.5504999245	-1.1651784884	 0.133889
H	-0.3117767101	 2.0573117855	 0.5347073066	 0.098239
H	 0.4500072864	 0.1720230982	 2.2235481458	 0.097913
H	 0.7111406857	-1.4373390437	 1.5070437374	 0.124231
H	 1.8320602251	-0.1107423261	 1.1470078955	 0.119964
H	-2.0499868191	-0.4866318978	 2.1999368397	 0.114427
H	-3.1943696623	 0.2677472455	 1.0386259944	 0.111801
H	-1.3111306751	-2.9517674832	-0.1856850309	 0.106897
H	-1.264706053	-1.0322831609	-2.0327616481	 0.113033
H	-3.8571065757	-0.9942197989	-1.0163441461	 0.29604
