17
gdb 51639	4.79834	1.00994	0.98484	4.5029	69.61	-0.2683	0.0044	0.2727	1220.3404	0.136768	-458.96529	-458.957847	-458.956902	-458.998122	28.012	
O	-0.0673871087	 0.0668579604	 0.0698522689	-0.271569
C	-0.014464391	 1.2579639129	 0.0283677133	 0.16924
O	 1.1551748147	 1.9341430011	 0.0517980447	-0.197357
C	 1.0791919968	 3.3559849685	 0.0712905079	 0.240987
O	 0.8293968543	 3.8371188485	 1.3840158279	-0.289217
C	 2.0459636369	 4.5779453851	 1.6646770829	 0.104076
C	 2.22998716	 5.3986951864	 0.3652511559	-0.235023
C	 2.4539977042	 3.9627602643	-0.2095898684	-0.106658
C	 3.1590298231	 3.639197368	 1.1498581531	-0.232045
H	-0.8958369195	 1.9226140559	-0.0436868685	 0.086892
H	 0.2782486068	 3.6793234389	-0.6043049537	 0.091509
H	 1.9917491806	 4.995017286	 2.6676020975	 0.092037
H	 1.3711855503	 5.9767482217	 0.0157066838	 0.106716
H	 3.140793165	 5.9988261903	 0.3476135423	 0.112345
H	 2.897514089	 3.7619845051	-1.1823696393	 0.090648
H	 4.1542034995	 4.0811839592	 1.210269181	 0.108533
H	 3.155446158	 2.607524308	 1.5009867509	 0.128888
