17
gdb 34252	4.25661	1.2983	1.17965	0.905	79.18	-0.2391	0.0342	0.2733	1056.6205	0.136801	-384.628929	-384.621752	-384.620808	-384.660286	29.097	
C	 0.0610626019	-1.1741100955	-0.0392869205	-0.384386
C	 0.0204518115	 0.0286615543	-0.0040155867	 0.122318
C	-0.0474051355	 1.4491740012	 0.0534186443	 0.20316
C	-1.2252262404	 2.2760966581	 0.5972200135	-0.31088
C	-0.7393911043	 3.4610577986	-0.2967574951	 0.077307
O	 0.0974021049	 4.354923197	 0.4191196202	-0.264587
C	 1.2256824728	 3.5916794726	 0.8625068808	-0.107296
C	 1.2134004201	 2.3259065154	 0.0132073235	-0.118714
C	 0.1885955855	 2.4835253693	-1.0604641842	-0.131081
H	 0.0988243585	-2.2345076044	-0.0719725338	 0.181717
H	-2.1772157385	 1.8663799279	 0.2511928938	 0.113619
H	-1.2760433776	 2.4649286213	 1.6739401134	 0.104172
H	-1.4898185307	 4.0379417934	-0.833623206	 0.091437
H	 2.1345051092	 4.1810813747	 0.6957029934	 0.110711
H	 1.1467195715	 3.3791366198	 1.9370468637	 0.10394
H	 2.1402082786	 1.8086301356	-0.2002809535	 0.105919
H	 0.3342852825	 2.3481283708	-2.1229127569	 0.102643
