14
gdb 77853	2.1576	1.67942	1.59273	3.3309	67.16	-0.2524	-0.0327	0.2198	935.7569	0.099198	-436.615496	-436.607596	-436.606652	-436.647852	29.801	
O	 0.142685881	 1.4273258509	 0.2703954384	-0.413519
C	 0.0408997624	 0.0624708569	 0.0367057687	 0.002318
C	-1.3100784985	-0.668328403	 0.0103737936	-0.074282
C	-2.0899964183	-0.3766135678	-1.2122867085	-0.221759
C	-2.024620829	 0.8820119285	-1.9083688938	 0.335114
C	-1.985836462	 1.9292819335	-2.5001393236	-0.425357
N	-0.9684963878	-1.3849081196	-1.294743482	-0.193174
C	 0.2509209489	-0.56686719	-1.3736983127	 0.34703
O	 1.0769030011	-0.5356998423	-2.2241212934	-0.275701
H	-0.3711504076	 1.885575198	-0.4069736826	 0.295902
H	 0.7206562394	-0.4361208352	 0.7367977099	 0.136851
H	-1.7432444052	-1.2217450827	 0.8349687429	 0.121234
H	-3.0513477708	-0.8775117644	-1.2887563296	 0.14435
H	-1.9557138937	 2.8457319173	-3.0376706174	 0.220993
