17
gdb 5087	3.24968	1.95672	1.24216	1.5625	71.88	-0.1768	0.0464	0.2232	971.8014	0.141646	-363.901287	-363.892609	-363.891665	-363.934296	31.301	
C	-0.016365929	 1.5096166847	-0.0158219087	-0.503517
C	 0.0156106238	 0.0139561233	 0.0027497733	 0.201069
C	 0.0048215712	-0.8194433676	-1.0648613882	-0.141292
O	 0.0429745594	-2.1313999631	-0.6514492807	-0.179618
C	 0.0707622881	-2.109189636	 0.7016390121	 0.282372
N	 0.1878318074	-3.3559086027	 1.3094647928	-0.594558
C	 0.0529536373	-0.8308236611	 1.1792859857	 0.090408
C	 0.0717269189	-0.3858839916	 2.6087325447	-0.512604
H	 0.8716115391	 1.9392861515	 0.4632115932	 0.125722
H	-0.0593756574	 1.8909768775	-1.0398232728	 0.12282
H	-0.8879419758	 1.9022883525	 0.5219595133	 0.124208
H	-0.0297951458	-0.668210685	-2.1303559588	 0.124456
H	-0.3574765321	-4.0661632719	 0.8351948591	 0.25211
H	-0.056547238	-3.327093282	 2.2903292092	 0.249845
H	 1.0456748755	 0.0206963463	 2.9107197041	 0.127664
H	-0.6725542414	 0.39661903	 2.7973053526	 0.124545
H	-0.1535315811	-1.2116994747	 3.292852879	 0.106371
