12
gdb 19492	3.82339	2.0856	1.92838	4.3502	57.61	-0.2686	-0.0118	0.2568	712.3769	0.085793	-377.522049	-377.516079	-377.515135	-377.552313	22.13	
N	-0.0098839896	-1.1674563678	 0.0038522929	-0.336699
C	 0.0148183931	-0.0112900594	 0.0148828365	 0.327038
C	 0.0400484447	 1.4211810765	 0.0412409138	-0.257147
C	 0.4976903207	 2.1845843575	 1.273985301	 0.051958
O	 1.2450456814	 1.4557141767	 2.2218898771	-0.193378
C	 2.3827261772	 1.0845611766	 1.5693944315	 0.108645
N	 2.5517639143	 1.478593517	 0.3715691964	-0.239599
C	 1.3600677053	 2.2109043376	 0.0325729034	-0.0376
H	-0.7713033435	 1.9005647315	-0.4967032885	 0.147193
H	-0.1034341237	 2.9730872517	 1.7058706074	 0.137154
H	 3.0616879015	 0.4736118318	 2.1490838364	 0.165182
H	 1.4579217687	 3.0361124902	-0.6608431678	 0.127253
