20
gdb 9690	3.27112	1.34198	1.12113	1.5842	72.29	-0.2416	0.0688	0.3105	1145.436	0.174701	-386.111048	-386.1015	-386.100555	-386.145018	34.625	
C	-0.2803692115	 1.1020724506	-0.6496173429	-0.231345
O	-0.3129020437	 0.1846273112	 0.4242816932	-0.241095
C	-1.3632799376	-0.7238748274	 0.327141711	 0.122488
C	-1.2078468866	-1.9660896039	-0.5262387491	-0.377919
C	-1.2000242778	-2.056006119	 0.9921136642	 0.2497
C	 0.1115433381	-2.3765459799	 1.6810332339	-0.455947
C	-2.4118480985	-2.6448553297	 1.7043322759	-0.141766
O	-3.6550754184	-2.3757642692	 1.0741549348	-0.412971
H	 0.5672615238	 1.769975158	-0.4784003232	 0.124724
H	-0.1500997265	 0.5929231404	-1.6156147045	 0.107188
H	-1.2021741335	 1.7014266793	-0.6974512828	 0.106732
H	-2.3568628485	-0.2755381081	 0.3542887045	 0.09704
H	-2.0708557679	-2.311285271	-1.0869636808	 0.09204
H	-0.2563204773	-2.1094815516	-1.0275508139	 0.113496
H	 0.9417305339	-1.8512205008	 1.2065985213	 0.132778
H	 0.0855420027	-2.0678902268	 2.7328481652	 0.117141
H	 0.3162002765	-3.453036449	 1.6534445513	 0.109859
H	-2.2639077032	-3.7285836694	 1.8375043323	 0.088409
H	-2.4854672978	-2.2053606383	 2.7063570661	 0.113467
H	-3.7277611662	-2.9514828953	 0.3073381434	 0.285982
