17
gdb 29184	3.05685	1.35313	0.945	5.241	81.06	-0.1885	-0.0281	0.1604	1197.4375	0.137884	-418.081087	-418.072806	-418.071862	-418.113558	32.043	
C	 0.0058895292	 1.523749951	 0.009701131	-0.503332
C	 0.0062857157	 0.0185998414	-0.0053287626	 0.327347
C	-0.0349683818	-0.6802617255	-1.1762466546	-0.349763
C	-0.0127725561	-2.128619284	-1.2473316737	 0.427585
O	-0.0412358287	-2.8156141172	-2.2594415463	-0.414442
N	 0.0510182722	-2.7227472284	 0.0186541897	-0.375887
C	 0.0682691104	-2.0502469206	 1.211249725	-0.033653
C	 0.0586968089	-0.6889003101	 1.2497572421	 0.139936
N	 0.1878893905	 0.0401048023	 2.4551011042	-0.591719
H	 0.8507078051	 1.9053325015	 0.5929096752	 0.149101
H	 0.0619208	 1.9274809064	-1.0028978772	 0.134515
H	-0.9062537397	 1.919973502	 0.4756354381	 0.126856
H	-0.0761189205	-0.1660285046	-2.1294953301	 0.106869
H	 0.0694227185	-3.7323629749	 0.0077805288	 0.256969
H	 0.1046763293	-2.6628239395	 2.104599378	 0.115811
H	 0.1187375549	-0.5531824686	 3.2726378905	 0.239335
H	-0.492684288	 0.7863179386	 2.539026052	 0.244472
