25
gdb 60093	3.39399	0.95112	0.8787	0.1469	93.59	-0.2825	0.0823	0.3649	1489.6894	0.229152	-352.319079	-352.309574	-352.30863	-352.353944	37.054	
C	 0.1817285546	 1.4583433932	-0.518490801	-0.38813
C	 0.0884541997	 0.050898596	 0.0876862849	 0.045201
C	 0.8759974556	-0.0135144055	 1.4042687548	-0.383194
C	-1.3873804578	-0.3641613363	 0.2631362086	-0.33904
C	-1.6521001739	-1.8424794278	 0.4369488887	 0.370661
C	-1.2128424522	-2.8203094128	 1.5801191428	-0.243156
C	-2.0604389888	-3.6803082563	 0.6046427641	-0.050568
C	-3.0661123601	-2.4993569638	 0.547645029	-0.256493
C	-1.2948666974	-2.9946889897	-0.5601815722	-0.243713
H	 1.2246723329	 1.7602413642	-0.6621897276	 0.106893
H	-0.3206880358	 1.5101972936	-1.4901642151	 0.107968
H	-0.2892582438	 2.1994017941	 0.1389517421	 0.110639
H	 0.5501713587	-0.6499729328	-0.6221735282	 0.073273
H	 0.4562514198	 0.6841258649	 2.1393220893	 0.109197
H	 0.85936106	-1.0119006381	 1.8477169296	 0.118881
H	 1.9238404126	 0.2641311364	 1.2472732433	 0.107334
H	-1.8180780617	 0.1832069266	 1.114296177	 0.089757
H	-1.9514975332	-0.0358185869	-0.6208927303	 0.08978
H	-0.1490512271	-3.0664507795	 1.6423897893	 0.087064
H	-1.6369608996	-2.6348187984	 2.571777711	 0.084788
H	-2.2943867334	-4.7410082947	 0.7007345563	 0.067645
H	-3.6319529605	-2.2884004161	 1.4603647754	 0.083438
H	-3.7030834361	-2.4352014539	-0.3401377414	 0.083324
H	-1.7971025049	-2.9708629392	-1.5323742757	 0.083659
H	-0.2350292678	-3.2452467372	-0.6659817446	 0.084793
