17
gdb 14184	2.78182	2.30101	2.17916	1.4917	68.64	-0.2403	0.0743	0.3146	775.5972	0.141649	-363.773962	-363.766769	-363.765825	-363.804744	28.445	
C	-0.0077743382	 1.4862029918	-0.0278225701	-0.52037
C	-0.0333828917	-0.0107477019	-0.0984850957	 0.338554
C	 0.5588835671	-0.9452169888	-1.166024295	-0.308957
C	 0.0582881615	-1.8675150948	-0.0538241383	-0.068998
N	 0.5542315574	-0.9027101289	 1.0446247177	-0.181167
C	-0.8100771187	-0.9480253489	 1.7259935061	-0.256212
C	-1.1982035649	-0.9830254753	 0.2510499148	 0.313079
O	-2.4359709722	-0.9544995327	-0.3683608126	-0.469435
H	 1.0212498425	 1.8557647729	-0.0782384815	 0.130496
H	-0.5689591669	 1.9142270854	-0.8649497448	 0.131546
H	-0.4569919528	 1.8522872816	 0.9010839102	 0.125108
H	 0.0303361852	-0.9921918873	-2.1205519317	 0.105926
H	 1.6428937262	-0.8944968353	-1.3006234315	 0.102984
H	 0.1730109527	-2.9449692757	 0.0771488588	 0.076846
H	-0.9614390546	-1.8520688284	 2.3256439655	 0.094556
H	-1.0442202129	-0.0531891185	 2.3105667981	 0.10299
H	-2.9355977395	-1.7336918153	-0.0999407399	 0.283055
