23
gdb 118428	2.25866	0.94333	0.78136	2.3066	82.7	-0.2362	-0.0057	0.2305	1604.5098	0.202418	-425.452372	-425.440821	-425.439877	-425.489897	40.399	
C	 0.0353669876	 1.5509303964	-0.101323507	-0.380344
C	 0.0494568946	 0.0209221396	-0.0540833437	-0.179592
C	 0.7005582129	-0.5276626334	 1.2211312848	-0.175722
C	 0.7365446212	-2.0622873208	 1.2840485427	-0.088789
C	 1.5925470819	-2.5403553856	 2.4633216902	-0.088796
O	 1.6507474585	-3.9611981472	 2.4243524034	-0.42883
C	-0.6776075321	-2.6440205974	 1.4589655106	 0.420051
C	-1.0244031029	-3.8629727679	 0.6349638024	-0.486438
O	-1.4509393521	-2.1494972502	 2.2486999631	-0.331024
H	 1.0517920309	 1.9586175921	-0.0602577051	 0.111912
H	-0.4329930039	 1.9173910442	-1.02006331	 0.111618
H	-0.5217193126	 1.9661619472	 0.745505913	 0.119801
H	-0.9794769815	-0.3530714802	-0.1254273221	 0.107144
H	 0.582173194	-0.3687701717	-0.931932071	 0.091167
H	 1.7254581983	-0.1416195781	 1.2982487346	 0.085486
H	 0.1515911839	-0.1623965291	 2.0964083332	 0.119175
H	 1.1847226007	-2.4677277231	 0.3685314152	 0.078679
H	 2.5988223586	-2.1011897452	 2.3845222317	 0.08923
H	 1.1361523473	-2.1840610566	 3.3983663134	 0.10838
H	 2.0638144673	-4.2712299649	 3.2351743862	 0.291071
H	-0.293028147	-4.648929265	 0.8505200501	 0.160836
H	-2.0341381273	-4.2052339283	 0.8659772902	 0.132291
H	-0.9437967486	-3.6324015947	-0.4338822459	 0.132693
