21
gdb 88477	3.00364	1.17907	1.12235	3.0341	78.49	-0.2213	0.0578	0.2791	1209.7275	0.181942	-424.195346	-424.186436	-424.185492	-424.228782	35.346	
O	 0.3145393892	 1.2438777471	 0.0769109676	-0.436471
C	-0.023003444	-0.0985237603	-0.0797564416	 0.13266
C	-0.5288877466	-0.9471445035	 1.0618224427	-0.354414
C	-1.4531137667	-0.5852988098	-0.091272758	-0.075464
C	-2.6202398935	 0.3589583187	 0.1056340874	 0.381906
O	-2.2447054777	 1.3124878108	 1.0961977705	-0.490491
C	-3.1804108962	 0.916897342	-1.2395858949	-0.269225
C	-4.2841058837	-0.1747986815	-1.1904621104	-0.214764
C	-3.9801956106	-0.3723232679	 0.3197846971	-0.26533
H	-0.4133112716	 1.6580222429	 0.5621096582	 0.288675
H	 0.659426888	-0.5688706882	-0.7815056171	 0.097005
H	-0.1884913025	-1.9727578134	 1.159456998	 0.103827
H	-0.7085157232	-0.4337537509	 1.9999546246	 0.125751
H	-1.6819972373	-1.3783500248	-0.7985671256	 0.083215
H	-2.9517380223	 1.9605049955	 1.1743814838	 0.282286
H	-3.5991145909	 1.920132689	-1.1025994174	 0.088659
H	-2.499389327	 0.9379567047	-2.0929855174	 0.113108
H	-5.2972919793	 0.1309768117	-1.4570487079	 0.102217
H	-4.024274105	-1.0542337383	-1.7846149548	 0.110945
H	-3.9436060909	-1.3881917307	 0.7198875285	 0.106283
H	-4.6476109083	 0.2266330868	 0.9489874769	 0.089622
