21
gdb 26088	3.0885	1.2028	1.0709	3.7068	84.06	-0.2144	0.0361	0.2505	1233.2086	0.183093	-383.322322	-383.313053	-383.312109	-383.356112	35.572	
C	-0.0111815515	 1.5415224726	 0.007726969	-0.398254
C	-0.0066310902	-0.0042637433	 0.006996513	 0.120182
C	 0.7561234294	-0.5153660661	 1.2505668257	-0.398238
C	-1.4586381174	-0.5109251624	 0.0649097576	-0.404793
C	 0.6501711228	-0.5188839621	-1.250137062	 0.339595
C	 0.2109394787	-1.3084009056	-2.2849062391	-0.195173
N	 1.2001498608	-1.506447832	-3.2238740529	-0.260118
C	 2.2369546634	-0.8455698015	-2.7703958639	 0.007481
N	 1.9629037283	-0.2303181056	-1.5835780895	-0.319951
H	 1.0045801316	 1.9509036634	-0.0202499994	 0.097202
H	-0.5514443128	 1.9310133169	-0.8601206731	 0.124195
H	-0.4941257306	 1.9237106696	 0.9135120018	 0.113102
H	 0.2807037362	-0.1531028706	 2.1684397825	 0.113095
H	 0.7689920245	-1.6088849172	 1.2788396491	 0.124192
H	 1.7954081775	-0.1690563433	 1.260562182	 0.097206
H	-2.0355525368	-0.1596693294	-0.7958041804	 0.121486
H	-1.496656643	-1.6042901467	 0.077147585	 0.121486
H	-1.9485967107	-0.145138722	 0.9727291809	 0.108866
H	-0.7663441348	-1.7482207222	-2.4089707301	 0.103197
H	 3.2038429519	-0.7722403072	-3.2462160743	 0.125024
H	 2.600616453	 0.3324021447	-1.0463811119	 0.260219
