17
gdb 24444	3.46954	1.62124	1.14364	1.6076	74.52	-0.1671	0.0616	0.2286	1031.5682	0.140108	-418.029576	-418.022468	-418.021524	-418.060827	28.703	
C	-0.0088525939	 1.4307200605	 0.075832936	-0.185064
C	 1.4417787879	 1.9489974149	 0.0199924247	-0.088049
O	 2.217804487	 1.4514901317	 1.1193819268	-0.281426
C	 1.9646660384	 0.1303458782	 1.2976920879	 0.376778
C	 0.9297871508	-0.6157922852	 0.7896045862	 0.168373
N	-0.1099346032	-0.0288855201	 0.0170468807	-0.402051
C	 1.1018430176	-1.9443357129	 1.2857980489	-0.267825
C	 2.2311911316	-1.9466145494	 2.0687750069	-0.082956
N	 2.7544775101	-0.6649097028	 2.0780515905	-0.366223
H	-0.4577896331	 1.7732215049	 1.0165412461	 0.122151
H	-0.5818488691	 1.8707070162	-0.7457740334	 0.104376
H	 1.9152037934	 1.638974454	-0.9225907962	 0.100344
H	 1.4787000948	 3.0386135482	 0.0947953322	 0.112759
H	-0.0950913011	-0.3547386619	-0.9441222285	 0.22302
H	 0.4647100089	-2.7923576533	 1.0873870241	 0.089886
H	 2.7092672858	-2.7387232179	 2.619989289	 0.114387
H	 3.5649725342	-0.3527684152	 2.5823321183	 0.261521
