15
gdb 37836	3.0668	1.96847	1.69859	1.0465	63.77	-0.2437	0.0427	0.2865	824.949	0.112086	-457.615325	-457.608872	-457.607928	-457.646267	25.61	
C	 0.0430548573	 1.456894878	-0.2443877685	-0.192898
O	 1.376603714	 1.8748373701	 0.1089406125	-0.276906
C	 2.0259424729	 0.9392983627	 0.9985345942	-0.181662
C	 1.1229884648	-0.2629685676	 1.0419399772	 0.319998
O	 0.152586493	-0.5125392859	 2.1112139302	-0.343119
C	-0.4794134975	-1.1142335453	 0.9496807429	-0.031531
C	 0.8681328044	-1.6148353417	 0.3037111983	-0.026311
O	 0.6363081955	-0.9815300291	-0.9830152323	-0.341905
C	 0.053319706	-0.0272331755	-0.0384081198	 0.340447
H	-0.7027871436	 1.9201693705	 0.4159714732	 0.120259
H	-0.1403269643	 1.7676693944	-1.2754065256	 0.134897
H	 3.0175040994	 0.719812594	 0.592319893	 0.129815
H	 2.134805482	 1.3729370915	 1.9998373548	 0.126897
H	-1.4525372908	-1.5910870386	 1.0655542802	 0.111097
H	 1.3747247768	-2.5795627276	 0.3348638396	 0.11092
