17
gdb 83982	2.64599	1.59359	1.22317	1.8549	67.32	-0.2556	-0.0398	0.2158	1026.3318	0.136336	-458.959954	-458.951923	-458.950979	-458.992997	29.563	
O	 0.6292486685	 0.5837567829	 1.081599762	-0.432986
C	 0.0882065402	-0.3740829536	 0.2183589798	 0.046256
C	-1.4600113698	-0.4578426947	-0.0143783614	-0.093742
C	-2.2175287705	 0.8793789854	 0.0083554291	-0.089741
O	-2.9609440771	 0.9337326574	-1.2031059178	-0.249561
C	-2.1863545159	 0.3469854389	-2.2425910201	-0.095235
C	-1.2254313094	-0.6404543013	-1.5497304931	-0.161335
C	 0.2012851282	-0.12373973	-1.2874048433	 0.328917
O	 0.9827588861	 0.5263824592	-1.9238957646	-0.305845
H	 1.151576956	 1.1897850017	 0.5414448172	 0.301003
H	 0.46727706	-1.3760077628	 0.469319934	 0.107534
H	-1.9777491049	-1.2533503277	 0.5191128345	 0.086322
H	-2.9256499342	 0.9606116815	 0.8355113756	 0.120833
H	-1.51197209	 1.7216690937	 0.0814960376	 0.098229
H	-2.8737341257	-0.1453063775	-2.9359519529	 0.114148
H	-1.619250109	 1.1090864918	-2.7970307993	 0.114434
H	-1.2691576626	-1.6603860349	-1.9337780374	 0.110768
