10
gdb 23807	3.42891	2.36438	1.39942	4.7386	52.55	-0.2772	-0.0916	0.1857	762.171	0.05984	-458.556856	-458.550897	-458.549953	-458.587195	21.752	
F	 0.028515006	 0.0736922024	 0.1728595713	-0.027626
C	-0.0345594407	 1.3821755522	 0.0564775411	 0.174349
C	-1.1943652287	 2.0558627271	-0.0091559512	-0.251539
C	-1.1130640819	 3.4821703202	-0.1353831465	 0.045989
N	-0.0222630651	 4.1677328586	-0.1908780913	-0.049209
O	 1.1656737263	 3.4515075096	-0.1213115732	-0.256005
C	 1.2575004758	 2.0746717387	 0.0016904715	 0.373316
O	 2.3362493707	 1.557358653	 0.0524389535	-0.314221
H	-2.1507423461	 1.5487681269	 0.0310221279	 0.149816
H	-2.0146195265	 4.0836562212	-0.1933275033	 0.15513
