20
gdb 107541	1.92398	1.57228	1.02104	1.5306	79.25	-0.2363	-0.0319	0.2044	1229.0438	0.169856	-403.11467	-403.105506	-403.104562	-403.149606	33.541	
C	 0.1044052108	 1.5136149838	 0.1921851431	-0.386678
C	-0.0366407599	 0.0192625401	-0.12925529	-0.287472
C	-1.4599898955	-0.4530854841	-0.0339380178	 0.335564
C	-2.0659357656	-1.003401082	 1.1999308329	-0.292079
N	-1.858264257	-1.9180656916	 0.0608760452	-0.169347
C	-2.9953179841	-1.6210995016	-0.877541885	-0.190749
C	-2.5318377309	-0.1502131972	-1.1025845746	-0.14574
C	-3.489832593	 0.9841265618	-0.8513825554	 0.150621
O	-3.6938903318	 1.887303052	-1.6232265118	-0.251701
H	 1.1456218606	 1.835654042	 0.1012452378	 0.120341
H	-0.4935556046	 2.1254628666	-0.4916117692	 0.133338
H	-0.228843576	 1.7312525281	 1.2121547631	 0.119682
H	 0.3428471742	-0.1817472243	-1.1390540654	 0.106194
H	 0.5749545405	-0.577789846	 0.5570104805	 0.11187
H	-1.3912456611	-1.1995657339	 2.0277460327	 0.125218
H	-3.0820029182	-0.7586833195	 1.5007595221	 0.112125
H	-2.9241810178	-2.2321642023	-1.7780196912	 0.126018
H	-3.9838001466	-1.7619188197	-0.4260464553	 0.110826
H	-2.0871906841	-0.0085313061	-2.0898057279	 0.100318
H	-4.0191451298	 0.9440445439	 0.1284258662	 0.071654
