15
gdb 29141	3.20255	1.38052	0.97048	3.5556	73.43	-0.2188	-0.048	0.1707	1152.5131	0.112988	-457.835069	-457.827336	-457.826392	-457.867226	29.369	
C	-0.016400442	 1.5333438869	 0.0052712625	-0.488245
C	-0.0009094633	 0.0289310158	 0.0119909597	 0.210013
C	-0.033757947	-0.6805576484	-1.1337587027	-0.024687
O	-0.0211086519	-2.0423770462	-1.1674125019	-0.204451
C	 0.026230515	-2.787886154	-0.0296924586	 0.375918
O	 0.0367653465	-4.0004918412	-0.0803334633	-0.389634
C	 0.0628830549	-2.0531854907	 1.2325545111	 0.210796
O	 0.1090332363	-2.8289571639	 2.3287069519	-0.416393
C	 0.0497943379	-0.698517478	 1.2513667597	-0.246948
H	 0.8787778376	 1.9395582479	 0.489523903	 0.138311
H	-0.0561764615	 1.9265807611	-1.0136214549	 0.13018
H	-0.8834420028	 1.9216851464	 0.5514232807	 0.138308
H	-0.0728446927	-0.2632431839	-2.1306738307	 0.136123
H	 0.106554763	-3.7432490094	 1.9928903726	 0.312131
H	 0.0774673799	-0.1682571523	 2.1974478609	 0.118579
