19
gdb 100818	4.27422	0.73015	0.70763	6.6814	72.64	-0.2498	0.0416	0.2914	1597.836	0.158194	-456.343609	-456.333194	-456.33225	-456.379406	37.182	
N	-0.1178783509	 1.5726662891	 0.0417236874	-0.498013
C	-0.006623915	 0.1182015129	 0.0012626965	 0.002035
C	-1.4222337491	-0.4927128612	 0.141587129	-0.336135
C	-2.0505528195	-0.165534954	 1.4179999548	 0.274918
N	-2.5428147801	 0.061615195	 2.438265058	-0.314589
C	 0.6488452578	-0.4371823003	-1.279052143	 0.135906
O	-0.097616524	 0.0548993986	-2.3800012383	-0.450146
C	 2.1138398103	-0.0345517944	-1.4262134188	-0.11762
O	 2.5195372759	-0.4962753943	-2.7117349938	-0.430292
H	 0.762396125	 2.0050887171	 0.2959698217	 0.232346
H	-0.3715067765	 1.9095935849	-0.8830232429	 0.239867
H	 0.5905763109	-0.2055330828	 0.8611802249	 0.096789
H	-2.0483526216	-0.1260938791	-0.6779662964	 0.165582
H	-1.3776285999	-1.583439488	 0.0456563728	 0.142703
H	 0.6096081642	-1.5396345104	-1.2549337819	 0.075192
H	 0.4599724469	-0.0823845514	-3.156688521	 0.296157
H	 2.2041963666	 1.0581867863	-1.3555052506	 0.08805
H	 2.716451913	-0.4903903701	-0.6266101731	 0.098647
H	 3.3446042761	-0.0658784278	-2.9519286351	 0.298602
