20
gdb 80583	3.4874	1.07391	0.96056	3.3606	79.53	-0.2422	0.0322	0.2744	1294.2231	0.170979	-403.157031	-403.147812	-403.146868	-403.191652	34.415	
C	 0.1140396525	 1.6404357374	 0.1031431803	-0.417422
C	 0.0901887002	 0.1368422142	 0.2792389261	-0.009742
C	 1.141831415	-0.8241680615	-0.2077366657	-0.056312
C	 2.5600748091	-0.2645586523	-0.0434400721	-0.258745
C	 2.3067244801	-0.0629487949	 1.4793507452	-0.117986
C	 0.8861270363	-0.6445941118	 1.2935172316	-0.069191
C	 3.1807756464	-0.9492280357	 2.3609827262	 0.392071
N	 3.1614595296	-0.6068734386	 3.6847876194	-0.527294
O	 3.8299471613	-1.8901993133	 1.9468163541	-0.357224
H	 1.1196536141	 2.0582661493	 0.197952886	 0.120957
H	-0.262119716	 1.9190159099	-0.8873082718	 0.118424
H	-0.5204621886	 2.1323315288	 0.8490308121	 0.113588
H	-0.9087123346	-0.2837873522	 0.169359566	 0.085335
H	 0.8880394184	-1.669898907	-0.835533461	 0.084986
H	 3.3248566982	-1.0297379536	-0.1819739932	 0.139261
H	 2.8167473745	 0.6256062836	-0.6255783532	 0.088904
H	 2.3359701804	 0.9672667938	 1.8527028216	 0.068565
H	 0.4137947387	-1.3256148561	 1.9927137101	 0.085954
H	 2.5469176039	 0.1044317737	 4.0400947527	 0.257072
H	 3.6162350207	-1.2214069937	 4.3401997355	 0.2588
