13
gdb 132396	1.9585	1.80169	0.93841	2.4859	63.97	-0.2382	-0.0061	0.2321	1113.1993	0.090037	-497.929148	-497.922132	-497.921188	-497.960567	27.5	
O	 0.0369242176	 1.3661962849	-0.130922728	-0.429684
C	 0.0529296696	 0.0181209724	-0.0379447134	 0.468906
C	 0.0126729836	-0.7110243667	-1.2309097082	-0.390557
C	 0.0302008475	-2.0871493419	-1.1058950961	 0.359572
F	-0.0064987263	-2.8235733447	-2.2106399998	-0.070139
N	 0.0809530197	-2.7649587079	 0.0260147248	-0.43183
C	 0.1183728816	-2.0443035139	 1.1449222728	 0.465659
O	 0.1703507397	-2.7203495069	 2.308376265	-0.417349
C	 0.1070886668	-0.6514976529	 1.1825695096	-0.388939
H	 0.0681229604	 1.7486286275	 0.7528715191	 0.30571
H	-0.0296822973	-0.222015158	-2.1934746189	 0.122611
H	 0.1697538528	-3.6586621941	 2.0743387257	 0.303189
H	 0.1396637242	-0.1300559479	 2.1317237773	 0.102852
