18
gdb 122798	2.8258	0.81481	0.65966	3.0205	72.26	-0.2485	-0.0727	0.1758	1672.2035	0.145493	-476.246721	-476.236589	-476.235645	-476.283636	34.105	
C	 0.0652479305	 1.1793556796	 0.4560108025	-0.229483
O	 0.1109591754	-0.1902638749	 0.1251624033	-0.238329
C	-1.1673350028	-0.7687104921	-0.034856987	-0.061656
C	-0.9643352175	-2.2522817362	-0.3031824669	-0.171787
N	-0.2501918309	-2.8801845748	 0.7899331398	-0.303144
C	-0.6546006381	-4.0140018931	 1.3962391161	 0.305422
O	-1.6368024989	-4.6825500872	 1.1203725089	-0.365514
C	 0.2662808665	-4.4409457729	 2.5436986533	 0.102863
O	 1.2468860247	-3.8283776763	 2.879323399	-0.246313
H	 1.0963660941	 1.5243041499	 0.56013307	 0.133732
H	-0.4307407493	 1.7695317082	-0.3297272622	 0.109633
H	-0.4670043972	 1.3510729745	 1.4042009402	 0.110885
H	-1.773516652	-0.6249440935	 0.8745285049	 0.098948
H	-1.7070137484	-0.3056638807	-0.8771839044	 0.096152
H	-1.9232735717	-2.7647218817	-0.4079215955	 0.146596
H	-0.4056746239	-2.3733822667	-1.2399907695	 0.124658
H	 0.5815598706	-2.4306978863	 1.1473727579	 0.272051
H	-0.0705510411	-5.3761419157	 3.0333997396	 0.115287
