17
gdb 97099	2.65182	1.21377	1.03504	4.226	73.65	-0.2331	-0.0441	0.189	1217.812	0.133482	-455.13312	-455.123534	-455.122589	-455.168015	33.646	
C	-0.1929781571	 1.3775159533	-0.0725631433	-0.341609
N	-0.2080029397	-0.0741612119	-0.1768594703	-0.311406
C	 0.6136370954	-0.6173699561	-0.9601335759	 0.354719
N	 1.6129382314	-0.1969049527	-1.8342912363	-0.350272
C	 1.9453208404	-1.5419395648	-2.3140681803	-0.214575
C	 0.8682163863	-2.1069050764	-1.313388205	 0.222458
O	 1.3233472048	-2.9529550293	-0.3211558243	-0.466288
C	-0.336599844	-2.6992088023	-2.0147871864	 0.128369
O	-0.8092083935	-3.7527066878	-1.6673701787	-0.273776
H	 0.8012303019	 1.8196479232	-0.2392733053	 0.1037
H	-0.8879402172	 1.8264962955	-0.7954575619	 0.119818
H	-0.5324176496	 1.6713849839	 0.9246233758	 0.132039
H	 1.6624840349	 0.665056094	-2.3537031878	 0.251004
H	 1.7471656978	-1.7192840477	-3.3776669757	 0.110779
H	 2.9552773985	-1.8746768965	-2.06087607	 0.13398
H	 0.6872020201	-3.6865483815	-0.2863051715	 0.297994
H	-0.7576641504	-2.1101917029	-2.853054963	 0.103068
