19
gdb 94339	2.62512	1.40715	1.10288	4.0975	81.73	-0.215	0.0278	0.2429	1150.9556	0.15907	-382.044276	-382.035491	-382.034547	-382.077662	32.959	
C	-0.1276712884	 1.44824244	-0.2611172711	-0.338965
N	-0.0645154108	 0.0432602509	 0.0788192482	-0.106378
C	-1.2784448826	-0.6682362884	 0.5180987209	-0.162404
C	-0.3896807584	-1.5501745487	 1.432893483	-0.313587
C	 0.695971371	-0.4975397518	 1.1860871399	 0.368513
C	 2.1674651351	-0.6086207713	 1.3153794605	-0.351687
C	 1.4017750259	 0.2397191671	 2.3425087331	-0.254428
C	 1.6103220999	 1.6564399138	 2.3720333309	 0.295667
N	 1.7886816423	 2.8001633133	 2.411408407	-0.353456
H	 0.8735872126	 1.8345181237	-0.4706258989	 0.136661
H	-0.7268459256	 1.5622073644	-1.1706505365	 0.121123
H	-0.5752888029	 2.0712494414	 0.5295836908	 0.119772
H	-1.9728113678	-0.0349707999	 1.0920225094	 0.0954
H	-1.8294397382	-1.1634953427	-0.2874973452	 0.107079
H	-0.7214201931	-1.6800329566	 2.4632798124	 0.115323
H	-0.1466109813	-2.5219089556	 0.9979249652	 0.120806
H	 2.6035650181	-1.538878284	 1.6642299779	 0.128737
H	 2.7776098169	-0.0576611089	 0.6072697989	 0.14144
H	 1.2610002173	-0.1971514764	 3.3266986933	 0.130384
