17
gdb 32935	5.2798	0.82134	0.74413	2.5331	71.82	-0.1954	0.055	0.2504	1514.9187	0.135993	-455.17651	-455.167571	-455.166627	-455.21131	32.243	
C	-0.112597975	 1.5492778445	 0.1970569054	-0.386947
C	-0.3046515299	 0.1665217268	-0.3948502984	-0.057236
O	-1.0524704779	-0.6207701842	 0.5510816561	-0.28326
C	-1.3416034973	-1.8778176633	 0.1549955024	 0.345306
C	-2.3752081347	-2.4292158112	-0.5396785985	-0.200643
N	-2.21264229	-3.8084276426	-0.6369127874	-0.358978
C	-1.1013736791	-4.0591428209	-0.0058124119	 0.447864
O	-0.5314285047	-5.2637707284	 0.1806130639	-0.426889
N	-0.5036958788	-2.9472591206	 0.4944092602	-0.366114
H	 0.4506797349	 2.1801967218	-0.4967867202	 0.121315
H	-1.0795202687	 2.0216108979	 0.3907981029	 0.133825
H	 0.4377075031	 1.4936209983	 1.1405523514	 0.128159
H	-0.8570444379	 0.2075394671	-1.3420434579	 0.110641
H	 0.661577746	-0.3186704315	-0.5921173639	 0.097631
H	-3.2259250954	-1.9272285305	-0.9717826347	 0.110661
H	-1.1207694983	-5.9029297671	-0.2399952739	 0.312148
H	 0.3204716236	-2.905872076	 1.0693935446	 0.272516
