16
gdb 15062	2.45383	1.86819	1.19206	1.0811	65.97	-0.2573	0.0478	0.3051	1005.8903	0.127967	-383.670148	-383.661415	-383.660471	-383.703674	30.999	
O	-0.0045662082	 1.3621453575	 0.1138367748	-0.423203
C	 0.0112023373	-0.056096326	 0.148705004	-0.081014
C	-1.4433692586	-0.5306018694	-0.0403528984	-0.214703
C	-1.4851305949	-1.977827181	-0.2212356209	 0.318897
C	-1.4938770173	-3.1686619731	-0.3823822461	-0.454413
C	-2.3065823339	-0.0356520665	 1.1166981885	 0.10149
C	-3.4266178228	-0.7946301317	 1.6784064637	-0.192394
O	-2.1690948073	-0.7201576988	 2.3602551275	-0.236528
H	 0.8472756265	 1.6830226146	 0.42233125	 0.293507
H	 0.6351402651	-0.4729567776	-0.6542443945	 0.101383
H	 0.3839519171	-0.4397189255	 1.1082179622	 0.11814
H	-1.8168310938	-0.0447509792	-0.9532544637	 0.119917
H	-1.5064314479	-4.2212773774	-0.522445984	 0.197778
H	-2.313088897	 1.0496337572	 1.200447846	 0.112052
H	-4.2482267346	-0.2623869346	 2.1556903791	 0.112945
H	-3.6687156596	-1.7717451685	 1.2667581218	 0.126148
