13
gdb 130766	3.55671	1.68577	1.26831	6.2563	63.57	-0.2555	-0.02	0.2355	921.8962	0.090423	-452.689949	-452.683647	-452.682703	-452.720851	24.399	
O	-0.184990254	-0.100261731	 0.1346727514	-0.37671
C	-0.0535680535	 1.0858084318	 0.1418973254	 0.499421
O	-1.0997629182	 2.0048020557	 0.0571457589	-0.252241
N	-0.6441959611	 3.3597734673	 0.25842405	-0.226466
C	 0.6296775053	 3.1998759093	 0.3051390144	 0.400317
C	 1.9660626531	 3.6948888164	 0.7905378454	-0.201382
C	 2.3092366735	 2.8594372157	 2.0230607411	-0.276292
C	 2.4119478481	 2.2245489713	 0.6708079002	-0.005384
N	 1.0658968724	 1.91231521	 0.1464324933	-0.151416
H	 2.4851077866	 4.5986319014	 0.5118013102	 0.142648
H	 3.2562358811	 3.1174318434	 2.4881534794	 0.145506
H	 1.5283610625	 2.5561704382	 2.7125101965	 0.15487
H	 3.2950209242	 1.7932650205	 0.2232621439	 0.147129
