15
gdb 17421	3.05491	2.66025	1.81804	2.412	64.39	-0.2328	-0.0068	0.2261	752.5419	0.118797	-362.614712	-362.608035	-362.607091	-362.645325	25.654	
C	 0.0122378224	 1.5965149303	 0.0234473768	-0.509916
C	 0.013281604	 0.0966890252	 0.0817648881	 0.148079
C	-1.2367240322	-0.7880202653	 0.2369564098	-0.188704
N	-0.3801126606	-1.8814677964	 0.83362225	-0.135754
C	 0.8808665935	-1.8911275097	 0.0199296892	-0.176439
C	 0.6647911612	-0.8987392093	 1.139297948	-0.092531
C	 0.8315362	-0.7361950146	-0.935715421	 0.41888
O	 1.4003270682	-0.4568654988	-1.9529069905	-0.33788
H	 1.0318786691	 1.9912918976	-0.0230324489	 0.13597
H	-0.5103900842	 1.9358538161	-0.8772086094	 0.139764
H	-0.4904937988	 2.0342182744	 0.8916254088	 0.123269
H	-1.9280113116	-0.4465449805	 1.0117592705	 0.118239
H	-1.7901069789	-1.0670346003	-0.667205571	 0.113158
H	 1.4630830427	-2.8018506109	 0.0070519965	 0.12287
H	 1.2005396152	-0.7878712077	 2.071985493	 0.120996
