19
gdb 122279	2.71275	0.84942	0.71932	3.0637	73.11	-0.2585	-0.0377	0.2208	1585.5192	0.156097	-460.143359	-460.133306	-460.132361	-460.179488	35.056	
O	 0.0130448977	 1.3218564798	 0.3288755748	-0.420397
C	-0.0032693473	-0.0169113656	-0.1395051058	-0.075822
C	-1.3934522079	-0.582897074	 0.1170038556	-0.171469
C	-1.5187386002	-2.0443119905	-0.3341758257	-0.297818
C	-2.8884181488	-2.6197834095	-0.0606680925	 0.309526
C	-3.0708758101	-3.9726731641	 0.5165496574	-0.223586
O	-3.2598172975	-2.8196819232	 1.3168749162	-0.261597
C	-4.0374196341	-2.1269295653	-0.8905062787	 0.127137
O	-3.9187607113	-1.5029143859	-1.9135554138	-0.255513
H	 0.8815304589	 1.6934811218	 0.1498335283	 0.285773
H	 0.2245437025	-0.0669094372	-1.2171833173	 0.087162
H	 0.7513663491	-0.6311812937	 0.3804539709	 0.08146
H	-1.613887387	-0.5074982646	 1.1873464152	 0.120888
H	-2.1252017175	 0.0369009218	-0.4107508326	 0.127229
H	-1.3318301134	-2.1221808641	-1.4115020135	 0.122755
H	-0.768644434	-2.6595509241	 0.1750182207	 0.10224
H	-3.97010515	-4.5492308903	 0.3005391338	 0.123445
H	-2.1774987409	-4.5597975334	 0.7242056875	 0.128891
H	-5.0302253283	-2.3984942879	-0.4671686104	 0.089697
