16
gdb 32779	3.27074	0.98921	0.79814	1.5185	67.9	-0.2139	0.0028	0.2167	1375.9972	0.124263	-475.048309	-475.039562	-475.038617	-475.082721	31.066	
O	-0.0300844271	 1.4819974527	-0.1487093823	-0.41749
C	 0.0860940351	 0.0734563114	-0.0382212285	-0.067223
C	-1.334169067	-0.4903807121	 0.0738022309	-0.307285
C	-1.3785523993	-1.9689051351	 0.1722996125	 0.22678
C	-1.7080201519	-2.8633329735	 1.1418069981	 0.242724
O	-2.1253990871	-2.5999922949	 2.3963722332	-0.430088
N	-1.5649391427	-4.1567327057	 0.6813063755	-0.337266
C	-1.1547331375	-4.0046395621	-0.5392069592	 0.070841
O	-1.0138919667	-2.7288052661	-0.9294139246	-0.179465
H	 0.8537693202	 1.853404588	-0.2207800085	 0.287949
H	 0.584408931	-0.3615926753	-0.9180791912	 0.096626
H	 0.6666015209	-0.2192417	 0.8502930189	 0.09397
H	-1.8116650725	-0.0753145948	 0.9664854267	 0.136437
H	-1.9107418369	-0.1401172157	-0.7912048694	 0.125737
H	-2.292903048	-3.451170507	 2.8179541418	 0.3065
H	-0.9199882506	-4.7705152598	-1.2613738441	 0.151253
