21
gdb 61458	2.93127	0.95335	0.84228	1.9797	79.8	-0.2629	0.0214	0.2843	1480.2899	0.179924	-424.261379	-424.251017	-424.250073	-424.298172	36.646	
C	-0.2545224165	 1.4088491503	 0.0098994604	-0.408614
C	-0.0316635654	-0.0999073508	-0.0120221733	 0.11852
O	 0.6417079674	-0.4660768956	-1.2496334154	-0.256016
C	-0.1354924956	-0.6916619814	-2.3272542992	 0.428867
C	 0.711287891	-1.064084413	-3.5221563202	-0.47696
O	-1.339229153	-0.6078916515	-2.3271395718	-0.360198
C	 0.8349134682	-0.5949383598	 1.1150772202	 0.024287
C	 0.1924540509	-0.97355406	 2.426718908	-0.269838
C	 0.7735369735	-2.0401245541	 1.5339377936	-0.273224
H	 0.6990625117	 1.9397846117	-0.0739936487	 0.119033
H	-0.9027661419	 1.7112091212	-0.815706397	 0.137656
H	-0.7305954799	 1.7022743672	 0.9501693419	 0.122925
H	-0.9971374918	-0.6147251172	-0.0001466329	 0.103618
H	 0.0661484998	-1.2627889429	-4.3770724493	 0.145587
H	 1.4025865056	-0.2499457217	-3.7581771298	 0.147593
H	 1.3156873599	-1.9463945351	-3.2941347166	 0.148044
H	 1.8073415106	-0.1130586398	 1.1726130628	 0.086854
H	 0.7139236226	-0.7216128076	 3.3431029759	 0.11441
H	-0.8883456779	-0.9087293634	 2.5005794016	 0.116025
H	 0.0835048972	-2.6893140009	 1.005128157	 0.117459
H	 1.6942757439	-2.5245172654	 1.8384656327	 0.113971
