15
gdb 47215	2.07668	1.78436	1.31633	4.1598	72.42	-0.2288	-0.0328	0.1961	1007.358	0.112572	-416.788099	-416.779769	-416.778825	-416.821595	30.297	
O	-0.2717636779	 0.675694747	-1.3934912754	-0.303449
C	-0.0251970351	 1.3285285658	-0.412928271	 0.381917
C	-1.0422383263	 1.4940180967	 0.7137996229	-0.257433
N	-0.7996040487	 2.7031807089	 1.4857786251	-0.296739
C	 0.1367004362	 3.6185176564	 1.0918041819	 0.10097
N	 1.120278932	 3.4376864508	 0.2962917891	-0.255704
C	 1.3079194591	 2.0612162333	-0.1935101476	-0.250486
C	 2.1126487746	 1.2701243508	 0.7401718013	 0.352208
C	 2.7395575944	 0.6015646171	 1.5181396905	-0.479299
H	-2.0372213416	 1.4988223034	 0.256390261	 0.144273
H	-0.9748349031	 0.6028560965	 1.3531232563	 0.153191
H	-1.5401729411	 3.0236374346	 2.0879140772	 0.252648
H	 0.0108077601	 4.6038216146	 1.5426288256	 0.120446
H	 1.812462177	 2.0994416431	-1.1641342722	 0.134142
H	 3.3148528904	 0.0217479711	 2.1969890553	 0.203314
