15
gdb 29456	3.3344	1.66659	1.11887	2.4673	72.58	-0.2006	0.0218	0.2224	1025.9906	0.115225	-416.84391	-416.836743	-416.835799	-416.875407	27.488	
C	-0.0143002754	 1.5094778598	 0.0270991865	-0.501457
C	-0.0061601423	 0.0148178977	 0.0502414925	 0.121138
C	-0.0337811407	-0.8198991119	-1.0281993326	-0.125339
O	-0.0166108948	-2.1770395082	-0.6748875125	-0.222162
C	 0.022891965	-2.1322567794	 0.6618039534	 0.423833
C	 0.032159162	-0.8726838508	 1.189636819	 0.135951
N	 0.073209838	-0.9382507086	 2.5699676523	-0.347097
C	 0.0878776823	-2.2256816904	 2.8291870017	-0.013787
N	 0.0577111689	-3.0268763361	 1.6892304037	-0.408997
H	 0.8800500596	 1.9160996481	 0.5117953492	 0.138069
H	-0.0499594327	 1.8914165028	-0.9967701948	 0.121515
H	-0.8787049508	 1.9073165961	 0.5698735183	 0.138112
H	-0.0662292536	-0.6407861766	-2.0896311389	 0.133623
H	 0.1194132607	-2.6710152885	 3.8121897339	 0.130895
H	 0.0617038339	-4.0314508239	 1.6544533684	 0.275703
