14
gdb 131584	4.50165	1.02664	0.84034	1.2828	66.88	-0.2678	-0.0748	0.1929	1269.3503	0.099903	-473.817796	-473.809646	-473.808702	-473.851426	28.454	
O	 0.0583082298	 1.3449896362	 0.0086689088	-0.395901
C	-0.020923107	-0.0534671507	 0.0018748594	-0.180696
C	-1.485463037	-0.4669234361	 0.0117736053	 0.278572
O	-2.4053915766	 0.3154773267	 0.0229937286	-0.280316
C	-1.7496051346	-1.9272204573	 0.005997993	 0.341016
C	-2.9192795684	-2.6274554129	 0.0116159224	-0.305297
C	-2.4915300592	-3.9774959015	 0.0010848816	 0.030257
N	-1.1820598086	-4.0835002071	-0.0105665719	-0.12372
O	-0.7060287078	-2.7831018655	-0.0071960965	-0.212047
H	 0.988165398	 1.5896234601	-0.0008021545	 0.297257
H	 0.448303042	-0.5113288471	-0.885697646	 0.126473
H	 0.4628177614	-0.520649447	 0.8767359184	 0.126427
H	-3.9178356918	-2.2259453429	 0.0218751342	 0.151749
H	-3.0878167501	-4.878702065	 0.0011270673	 0.146223
