18
gdb 17080	5.86053	1.13751	1.02817	2.1332	68.22	-0.2454	0.0746	0.32	1154.0329	0.153135	-384.885082	-384.877158	-384.876214	-384.918537	28.563	
C	 0.3264421805	 1.4515459436	 0.0765103697	-0.290165
C	 1.1725182049	 0.2025693661	-0.0863242393	-0.289694
C	-0.3342222265	 0.1242152908	-0.0872548539	 0.137907
O	-1.0094072675	-0.3777928348	 1.0281731459	-0.251683
C	-1.1782461581	-1.7703658507	 1.0122632365	 0.096019
C	-0.0761119997	-2.6698502694	 1.6254117118	-0.093396
O	-1.0356595185	-3.2743502239	 2.5176322774	-0.27351
C	-2.0427308576	-2.3023633149	 2.1645963096	-0.102681
H	 0.2834130844	 1.8904743774	 1.0666190319	 0.128725
H	 0.272085047	 2.161777951	-0.7404515935	 0.116889
H	 1.7013050071	 0.0442704429	-1.0199222051	 0.114827
H	 1.6878829076	-0.1572041234	 0.7964657937	 0.122292
H	-0.8292498976	-0.0942085353	-1.0344067711	 0.087788
H	-1.5053543565	-2.1104895462	 0.0209545509	 0.078331
H	 0.4039127135	-3.4087493192	 0.9744244794	 0.102825
H	 0.6896570186	-2.0987314423	 2.1665421312	 0.099934
H	-2.1942589094	-1.5509979278	 2.9505684401	 0.109789
H	-2.9999210824	-2.7695365039	 1.9102185048	 0.105802
