13
gdb 269	9.29932	1.99725	1.69178	4.2922	47.53	-0.2464	0.0274	0.2738	706.1403	0.10636	-323.641347	-323.63393	-323.632986	-323.673408	24.375	
C	-0.0555881245	 1.3857958948	 0.0738822553	-0.224564
O	-0.0126668948	-0.0201004258	 0.1301905374	-0.204869
C	-1.2602039309	-0.6072727505	-0.0821606737	-0.151793
C	-1.0981375495	-2.1318713966	-0.1257171955	 0.372536
N	-2.2748264053	-2.8068840509	 0.0682106926	-0.524009
O	-0.0509209182	-2.6838718663	-0.3714046056	-0.327062
H	 0.9619716292	 1.7462400126	 0.2396239537	 0.134812
H	-0.4067360572	 1.7445473103	-0.9068486153	 0.105501
H	-0.7142229757	 1.8093853913	 0.8493245852	 0.101923
H	-1.9814645988	-0.321398255	 0.7053511442	 0.08634
H	-1.7006887888	-0.287110208	-1.0440734036	 0.112712
H	-3.0789572574	-2.3607960958	 0.475156592	 0.255888
H	-2.2279199982	-3.8126120302	 0.1030276434	 0.262587
