15
gdb 256	6.05601	2.21302	1.97997	3.6603	54.8	-0.2484	0.0348	0.2832	684.3066	0.130467	-287.72789	-287.72048	-287.719536	-287.760264	25.451	
C	-0.0319707825	 1.3937983561	-0.1777662111	-0.381931
C	 0.0625537681	-0.0951037745	 0.1737436435	 0.054526
C	 0.8046692938	-0.3314976984	 1.4938784411	-0.3819
N	-1.2671971379	-0.701241677	 0.2135887741	-0.274215
C	-1.6680579382	-1.7007622736	-0.6156115707	 0.154919
O	-0.9911052544	-2.213815221	-1.4821638606	-0.325451
H	 0.9659695768	 1.8374982782	-0.2482828705	 0.121247
H	-0.5409757312	 1.5363392052	-1.1347629611	 0.128552
H	-0.5868520616	 1.9458561941	 0.5905926574	 0.107648
H	 0.5811797173	-0.6231881491	-0.630813066	 0.128361
H	 0.8829936366	-1.4002363368	 1.7104620839	 0.128579
H	 1.81516875	 0.0863049694	 1.4484222979	 0.121231
H	 0.2839961647	 0.1500317858	 2.3305769255	 0.107641
H	-1.9281793691	-0.360420757	 0.8951926323	 0.240741
H	-2.7135521427	-2.0072725915	-0.4088348258	 0.070052
