21
gdb 41373	2.33742	1.83439	1.76561	1.3499	80.25	-0.2357	0.0773	0.313	961.9795	0.184637	-387.067356	-387.059907	-387.058963	-387.099016	30.761	
C	 0.1159562465	 1.4407299843	-0.3826913196	-0.297895
C	 1.5300989078	 1.4867092939	 0.2944523713	-0.295496
C	 1.3780558167	-0.0195199147	 0.6519323357	 0.413804
C	 0.7837159763	-0.4053511588	 2.0271731835	-0.292991
C	-0.6461449568	-0.3881924762	 1.3793723787	-0.304301
C	-0.0136920646	-0.065428868	-0.0095451719	 0.301651
C	 0.1143924943	-1.1325692954	-1.0927658713	-0.334299
C	 1.657566044	-1.2435414387	-1.2512180822	-0.094526
O	 2.2266406807	-0.9544525128	 0.0325907676	-0.307362
H	-0.6396481832	 2.0919606497	 0.0644371898	 0.098947
H	 0.1332233959	 1.631536299	-1.4597300508	 0.097861
H	 2.3534870779	 1.6745486816	-0.3987001429	 0.107402
H	 1.6314488784	 2.166650003	 1.1445459725	 0.096671
H	 1.1114764577	-1.3970440463	 2.3448137128	 0.110117
H	 0.952210941	 0.3021819319	 2.8429474802	 0.094961
H	-1.176378678	-1.3427705443	 1.4250117637	 0.100854
H	-1.3124771339	 0.3890358039	 1.7626176906	 0.098895
H	-0.2963362603	-2.0879826961	-0.7509347225	 0.103775
H	-0.3714625615	-0.8775956181	-2.0395596641	 0.100138
H	 1.9990612166	-2.2381369712	-1.5507198476	 0.109074
H	 2.0180577945	-0.5215455167	-2.0006166534	 0.092719
