15
gdb 129412	5.14712	1.0837	0.89583	10.4545	72.91	-0.1942	-0.0101	0.1841	1214.5861	0.114126	-446.328308	-446.320322	-446.319377	-446.360966	29.682	
N	-0.0114369117	 1.3315565943	-0.0327993592	-0.52853
C	 0.0049851104	 0.0113000802	 0.0355662648	 0.53137
N	 1.1755602136	-0.6937674661	 0.095299208	-0.571352
H	 1.1335115824	-1.6825947343	-0.0954862381	 0.276172
H	 1.9937248978	-0.2423484562	-0.2820871934	 0.276703
N	-1.1558633708	-0.6412404175	 0.0914697457	-0.402357
C	-2.4168517246	-0.0014644785	 0.134156112	 0.42728
N	-3.5524106996	-0.6826809142	 0.2204746529	-0.387576
C	-4.4264754589	 0.3604673081	 0.2275726053	 0.003838
N	-3.8727088017	 1.5685850661	 0.1512679681	-0.253068
N	-2.5287641145	 1.3272288599	 0.0871959061	-0.332
H	 0.8485002639	 1.8502933535	 0.0204348529	 0.262867
H	-1.0099918252	 1.7576535451	 0.0063470316	 0.326089
H	-1.18092076	-1.6480275425	 0.1366529902	 0.277253
H	-5.4968512811	 0.222197092	 0.2899622632	 0.093312
