18
gdb 85288	2.58076	1.61216	1.18964	3.6481	73.86	-0.2604	0.0069	0.2672	1083.0868	0.146914	-439.096605	-439.088149	-439.087205	-439.129386	32.093	
C	 0.1736601819	 1.501812466	-0.0908694161	-0.406753
C	-0.0713169037	 0.0101090268	 0.0645250135	 0.065005
O	 0.4267388264	-0.6766338558	-1.1100025746	-0.267796
C	 1.1535453524	-1.7859570322	-0.778864106	 0.440203
N	 1.5247837571	-2.6899441055	-1.5776218941	-0.548791
C	 1.4216187816	-1.7585085001	 0.6860376992	-0.142485
O	 2.0682213189	-0.5311969548	 1.0863794316	-0.28825
C	 0.6501687816	-0.6398960019	 1.243470101	 0.396473
C	 0.0927104468	-0.5542362427	 2.6351862581	-0.497255
H	 1.2475387475	 1.7008354544	-0.1078792452	 0.147238
H	-0.2710099851	 1.8637221906	-1.0210312735	 0.133142
H	-0.2779988522	 2.0512423823	 0.7411480308	 0.120122
H	-1.1467463535	-0.2010606248	 0.1363990809	 0.091411
H	 1.1845038916	-2.4968117981	-2.5217966529	 0.224991
H	 1.7082166989	-2.6595672296	 1.2151367243	 0.120846
H	 0.0387520972	 0.4875902992	 2.96874529	 0.137012
H	-0.9163930424	-0.9762354526	 2.6774461717	 0.132091
H	 0.731985755	-1.1000714612	 3.332586481	 0.142797
