12
gdb 21671	7.68219	1.30267	1.11524	3.2172	68.3	-0.234	-0.0385	0.1955	982.305	0.083986	-377.483613	-377.476681	-377.475737	-377.514525	26.087	
N	-0.0358332773	 1.4019956331	 0.1479905646	-0.600906
C	 0.0272852393	 0.0246419047	 0.0403819214	 0.413023
N	-1.0691716492	-0.7063722244	 0.0006735814	-0.205412
O	-0.6412146242	-2.032414955	-0.0187987852	-0.22039
C	 0.7097897863	-2.0570748689	-0.0069146874	 0.326901
C	 1.1993723613	-0.7848075894	 0.0314021686	-0.429092
C	 1.3472398278	-3.3132352869	-0.0280618221	 0.240319
C	 1.8973402245	-4.3831609345	-0.0470703845	-0.374106
H	 0.6918104155	 1.8934720124	-0.3503880668	 0.256704
H	-0.9530137297	 1.7713251705	-0.0648271146	 0.262564
H	 2.2307109471	-0.4770157191	 0.0628451394	 0.125805
H	 2.3808644787	-5.3289593526	-0.0628252847	 0.204591
