19
gdb 77461	2.46381	1.42554	1.17384	2.4049	71.97	-0.2361	0.0534	0.2896	1119.0749	0.156775	-460.121022	-460.111532	-460.110588	-460.154603	36.139	
C	-0.038147206	 1.5918264918	 0.0713919329	-0.49366
C	-0.0536449365	 0.0926607439	 0.0961731208	 0.177292
C	 1.102050387	-0.7450330491	-0.4429130158	 0.023067
O	 2.3329104572	-0.0992922002	-0.5706422048	-0.444707
C	 0.6410139826	-0.9628579473	 0.9704697589	 0.279334
O	 1.5370203772	-0.740419817	 2.0139877021	-0.471141
C	-0.6147270155	-1.8256162893	 1.0215302526	-0.351376
C	-1.3189010648	-0.7863478121	 0.0806699761	 0.110928
O	-2.487067481	-0.1939156932	 0.5990889985	-0.432873
H	-0.5563673347	 2.029495228	 0.9309972777	 0.108947
H	 0.9906293827	 1.9595935494	 0.0647686014	 0.132355
H	-0.5328684572	 1.9608090192	-0.8342619263	 0.128592
H	 0.9429787851	-1.4856925154	-1.2283555891	 0.086704
H	 2.7027422002	-0.0363231022	 0.3211944628	 0.28502
H	 2.0101177227	-1.5649761794	 2.1850200273	 0.291103
H	-0.5291331909	-2.8612663265	 0.673770228	 0.095813
H	-1.0919040465	-1.8142038654	 2.0059748355	 0.106037
H	-1.6009215183	-1.1695984035	-0.9058141776	 0.087753
H	-2.2722036631	 0.1964267882	 1.4535883491	 0.280812
