18
gdb 9397	5.58237	0.77586	0.70654	2.6366	70.75	-0.2646	0.0325	0.297	1545.1008	0.150644	-384.894075	-384.884171	-384.883227	-384.929352	34.688	
O	-0.0509270888	 1.4622271789	-0.0384019232	-0.420098
C	 0.0381982906	 0.0459371902	-0.0087378433	-0.080757
C	-1.3786875585	-0.5116984819	 0.0016489363	-0.165584
C	-1.409715585	-2.0405978166	 0.042957526	-0.199989
C	-2.8446946686	-2.6020593263	-0.0050383255	-0.061585
O	-3.5517060173	-2.1722831114	-1.1663156168	-0.413782
C	-2.8446182681	-4.0636884669	 0.1119335837	 0.29394
C	-2.8173235575	-5.2646306141	 0.1632823039	-0.438169
H	 0.8415815638	 1.8198230327	-0.0439271185	 0.28515
H	 0.5824891419	-0.3382778887	-0.8876945095	 0.082497
H	 0.5834510785	-0.3003363415	 0.885204735	 0.082397
H	-1.907195263	-0.1008937503	 0.87095629	 0.104938
H	-1.910789162	-0.1562285636	-0.8857181319	 0.122827
H	-0.8479956492	-2.4605586168	-0.8025132001	 0.096253
H	-0.9243984294	-2.4143181335	 0.9528988681	 0.108552
H	-3.4118523004	-2.1779158297	 0.8333081718	 0.119516
H	-3.2085744413	-2.6734836768	-1.9147166083	 0.284827
H	-2.8110733057	-6.3250512635	 0.2234650124	 0.199067
