14
gdb 80212	2.23837	1.60507	1.21221	4.5905	68.95	-0.2647	-0.0357	0.229	1030.9582	0.100191	-436.68253	-436.674635	-436.673691	-436.715105	29.26	
O	-0.1490353923	 1.3920773859	 0.0181798048	-0.401976
C	-0.0879991319	 0.010333625	-0.0297956726	 0.074643
C	-1.3373419002	-0.7636654914	 0.0235953525	-0.146467
C	-2.4685559856	-0.0094277987	-0.6925587166	-0.350264
C	-1.628176027	-0.0609149084	-1.9858734127	 0.369293
O	-1.8474581595	 0.2072792843	-3.1265984715	-0.284162
C	-0.47448352	-0.7779371167	-1.3044173543	 0.011854
C	 0.3828239917	-1.7657210924	-1.8608901013	 0.195996
N	 1.0820970833	-2.5697971236	-2.3139612457	-0.341628
H	 0.6321351936	 1.7549603081	-0.4140368998	 0.306388
H	 0.7680513232	-0.4414367154	 0.4710723392	 0.129864
H	-1.4734505594	-1.6081059981	 0.6856724445	 0.136928
H	-3.3767358832	-0.6052005172	-0.8152654331	 0.147062
H	-2.7181986927	 0.9777699486	-0.3024179934	 0.152469
