16
gdb 28607	5.35698	1.01339	0.90618	1.6627	72.84	-0.1887	0.0466	0.2354	1255.9044	0.125728	-434.067018	-434.059011	-434.058067	-434.100333	29.863	
O	 0.7210742645	 1.2366722525	 0.1855558425	-0.437701
C	 0.2033768298	-0.0001166428	-0.0125112433	 0.362107
C	-0.3998451212	-0.6480603994	-1.0539992228	-0.241766
N	-0.7353562628	-1.9385698422	-0.666093632	-0.302645
C	-0.3432477151	-2.0518680947	 0.5751509344	 0.415158
N	 0.2403325749	-0.8949133817	 1.0288167459	-0.354784
N	-0.4553228107	-3.145666934	 1.4456611984	-0.202316
C	-1.1681515573	-4.3112557998	 0.9184397647	-0.213841
C	 0.3047599287	-4.3650991052	 1.0797408236	-0.227819
H	 0.6161169598	 1.7420426582	-0.6264523487	 0.309884
H	-0.6165957446	-0.274464785	-2.0427136766	 0.097569
H	 0.5857180342	-0.7225425412	 1.9579901875	 0.27237
H	-1.8124745654	-4.8077048446	 1.6377679381	 0.117614
H	-1.5560170391	-4.2239529864	-0.0911247848	 0.154625
H	 0.9051358941	-4.3126627915	 0.1761487468	 0.132553
H	 0.7518972003	-4.8927378122	 1.9166999364	 0.118993
