17
gdb 25926	2.61962	1.63271	1.01849	1.6527	76.23	-0.2313	-0.0416	0.1897	1134.2067	0.136322	-418.081072	-418.072594	-418.07165	-418.114376	31.081	
C	-0.0507271545	 1.5279485441	-0.0248242203	-0.502065
C	 0.0813218238	 0.018767046	-0.0192044198	 0.419328
O	 1.1476459382	-0.5454308775	-0.0365763529	-0.314488
N	-1.1287968117	-0.7057528757	 0.0075950338	-0.148093
C	-2.4157360915	-0.1794499552	 0.0275974607	 0.020748
N	-3.3277742208	-1.1032203531	 0.0495104883	-0.272069
C	-2.628993327	-2.3009247791	 0.0442098849	-0.158681
C	-1.2805778952	-2.1044968414	 0.0187161343	 0.289557
C	-0.1632344033	-3.0903004601	 0.0046702378	-0.471829
H	 0.9539509822	 1.9480967548	-0.0426396382	 0.15758
H	-0.6049414044	 1.872737052	-0.9028538259	 0.156512
H	-0.5781171895	 1.8825157598	 0.8656505518	 0.156375
H	-2.5974740138	 0.8832134855	 0.0242679857	 0.136775
H	-3.1467980691	-3.2483261151	 0.0593433389	 0.116314
H	 0.4653044175	-2.9870177832	-0.884187266	 0.144989
H	 0.4971115478	-2.9759223488	 0.868782094	 0.14492
H	-0.5882924787	-4.097439293	 0.0188024829	 0.124127
