19
gdb 62497	2.10545	1.42154	1.17763	3.2348	78.19	-0.232	0.0325	0.2645	1155.399	0.156898	-419.2092	-419.199079	-419.198135	-419.243253	38.092	
C	-0.0746313824	 1.5548905706	-0.0485005693	-0.439442
C	-0.004745145	 0.0448813079	 0.0391234135	 0.261852
N	-1.1877030993	-0.5852292378	-0.4607602521	-0.5603
C	 1.3899412008	-0.6455414235	-0.1944430303	-0.335897
C	 2.578940138	 0.1095400022	-0.425156536	 0.294685
N	 3.535272056	 0.7409084252	-0.6012825824	-0.361526
C	 0.6858396649	-0.6343104882	 1.1798282331	 0.364771
C	 1.282744028	 0.1149841975	 2.3474421017	-0.46128
O	 0.0904475818	-1.8518788683	 1.5367123745	-0.460605
H	 0.8641628944	 2.0395366995	 0.2222777956	 0.140086
H	-0.3091157703	 1.8500564729	-1.0770361652	 0.124551
H	-0.8747035774	 1.9287602346	 0.5963434474	 0.134077
H	-1.257396522	-0.500046981	-1.4690379075	 0.233678
H	-1.2202623003	-1.5638890078	-0.2019671108	 0.24891
H	 1.3361973451	-1.595884625	-0.7148071415	 0.120601
H	 1.7787226745	 1.0367603671	 2.0413439815	 0.148298
H	 0.5020975898	 0.3555944848	 3.074978748	 0.137285
H	 2.0348827317	-0.508311909	 2.8456493998	 0.120111
H	 0.7670241019	-2.4147084618	 1.9295431999	 0.290145
