13
gdb 124380	5.08006	1.04591	0.99987	2.871	60.23	-0.2918	-0.0306	0.2612	1171.3322	0.088074	-489.908859	-489.900899	-489.899955	-489.943259	26.82	
C	-0.110543684	 1.4505733744	-0.0969848964	-0.486732
C	 0.3372448979	 0.0201262309	-0.0680295312	 0.420365
O	 1.2274747651	-0.4701401389	 0.5509995634	-0.289259
O	-0.4757648321	-0.7324110911	-0.9316711444	-0.281917
C	-0.2412780949	-2.0496273221	-1.0082763948	 0.553423
N	 0.283836052	-2.6933857909	-1.999565037	-0.3394
C	 0.1830161254	-3.9860290204	-1.545910513	 0.063402
N	-0.3620352981	-4.1322639422	-0.3688158248	-0.108882
O	-0.6583616468	-2.8099094383	 0.0032347633	-0.190219
H	 0.5305384322	 2.0416323536	 0.554955727	 0.16391
H	-0.0667805366	 1.8318597377	-1.1207725067	 0.169939
H	-1.1509395695	 1.5183065207	 0.2332219728	 0.16848
H	 0.5261165895	-4.8405457533	-2.1107606084	 0.156891
