17
gdb 15561	3.20872	1.78572	1.23869	3.0306	71.21	-0.2146	-0.0287	0.1859	974.39	0.141243	-363.863508	-363.855485	-363.854541	-363.896603	28.668	
C	-0.1658410941	 1.5127105983	 0.0079611108	-0.328492
N	-0.0732733021	 0.0750318211	 0.1536455629	-0.073122
C	-1.3378293833	-0.6620045093	 0.0713004678	-0.199305
C	-1.0945606765	-1.8567493665	 0.9495685583	-0.079548
C	 0.0347967284	-1.717433018	 1.6369943894	-0.086821
C	 0.7106577563	-0.4101839775	 1.2871548205	-0.091401
C	 2.1657153971	-0.6423801688	 0.874084058	 0.159462
O	 3.1171034199	-0.4611497585	 1.5867544892	-0.248278
H	 0.835145502	 1.9553076032	 0.0025568491	 0.127892
H	-0.6409664212	 1.7597645962	-0.9468960882	 0.123407
H	-0.7481879102	 1.9984675346	 0.8132533726	 0.098337
H	-2.1981091049	-0.0734479229	 0.44580055	 0.09358
H	-1.5747340598	-0.9308378134	-0.9683574755	 0.110953
H	-1.7875204233	-2.6859219247	 1.0205560072	 0.11004
H	 0.4480335404	-2.403893141	 2.3645936022	 0.118376
H	 0.7218614775	 0.2733336639	 2.1552952357	 0.084656
H	 2.2588297038	-1.0154004066	-0.17098726	 0.080263
