13
gdb 1971	7.00548	1.68055	1.47742	2.8699	50.3	-0.2796	0.0025	0.2821	788.3577	0.10167	-381.612648	-381.606056	-381.605112	-381.643529	23.492	
O	 0.0053200879	 1.5114480981	 0.0130931479	-0.414452
C	 0.0391613164	 0.1418390737	-0.3230912408	-0.067929
C	-1.2832681367	-0.5342066561	-0.0230168316	 0.11738
C	-1.3210107626	-2.0701369934	 0.0392783123	-0.441267
C	-1.5893746788	-1.8433355545	 1.5284250881	 0.4539
O	-1.7760113373	-2.4936058085	 2.5031719133	-0.307135
O	-1.5591314218	-0.4711692606	 1.4275237899	-0.264014
H	-0.2149164051	 1.5654170666	 0.9506310324	 0.298129
H	 0.2462001501	 0.0810444236	-1.3972943394	 0.121502
H	 0.8454974172	-0.3924500893	 0.2057030353	 0.095497
H	-2.104188394	-0.0572650264	-0.5632951103	 0.110983
H	-2.1364470244	-2.5608237639	-0.49340713	 0.150826
H	-0.3811013909	-2.5845673191	-0.1726365272	 0.146581
