20
gdb 121502	4.43664	0.64712	0.58182	1.9786	80.57	-0.2433	0.0237	0.267	1932.1816	0.168476	-440.252879	-440.242629	-440.241685	-440.290271	35.029	
C	-0.0621974807	 1.1364086727	 0.1346249085	-0.384217
C	-0.3107147631	-0.1704727255	-0.594827963	-0.055836
O	 0.9532940317	-0.6687200284	-1.0448649175	-0.205234
C	 0.9164156108	-1.8335287978	-1.7213772356	 0.131541
N	 1.9887701765	-2.3454113032	-2.1418362142	-0.251043
C	 1.9451179705	-3.609921097	-2.8596413983	-0.153371
C	 0.6317638445	-4.0005487077	-3.4986125646	 0.060473
C	 0.2060468343	-5.4002780475	-3.6137524291	-0.178534
O	-0.3829001682	-4.5400209988	-2.6378044674	-0.236829
H	 0.596563797	 0.9783086761	 0.99268679	 0.135702
H	 0.4094453309	 1.8643915931	-0.5309094882	 0.134645
H	-1.0084025218	 1.5523720431	 0.4928195938	 0.119926
H	-0.7839063758	-0.9056414735	 0.0699576538	 0.111683
H	-0.9767568817	-0.0170736255	-1.4550658308	 0.106903
H	-0.0903279524	-2.2511962477	-1.8455793767	 0.107701
H	 2.7059366133	-3.5654386558	-3.6507501571	 0.112692
H	 2.2623551183	-4.4106444216	-2.1779368329	 0.114784
H	 0.2458727016	-3.293635417	-4.2359071324	 0.096134
H	-0.44954687	-5.700695379	-4.4297506422	 0.11567
H	 0.8421255344	-6.1903355489	-3.2163860258	 0.117211
