16
gdb 55495	5.43521	0.55654	0.5283	3.3288	79.61	-0.2448	0.0256	0.2704	2017.5911	0.120815	-400.715678	-400.705162	-400.704218	-400.754812	35.744	
N	-0.2232709258	 1.3214908131	 0.4332319418	-0.526275
C	 0.0988756557	 0.0266764168	 0.1346665679	 0.424638
O	 1.20644896	-0.4313883155	 0.2981290197	-0.335581
C	-1.0680763224	-0.7635851236	-0.4941351427	-0.491717
C	-0.9021287083	-2.2048685814	-0.4173575765	 0.091134
C	-0.7787852817	-3.3982041552	-0.3533115019	 0.117593
C	-0.6035729654	-4.8489857816	-0.270383865	-0.491405
C	-1.7916089312	-5.5583070473	 0.2095526194	 0.317171
C	-2.7595038793	-6.1512046587	 0.6006658511	-0.447657
H	 0.4794715775	 1.8858042699	 0.8824709268	 0.263922
H	-1.1721976216	 1.6520051588	 0.4346769881	 0.258838
H	-2.0145679893	-0.464615297	-0.0253049293	 0.134539
H	-1.1389659291	-0.4433322391	-1.5431012855	 0.159155
H	-0.3211117411	-5.2433851743	-1.256297828	 0.160186
H	 0.244642346	-5.0739684604	 0.3908132641	 0.166758
H	-3.616767694	-6.6723292046	 0.9481137298	 0.198702
