20
gdb 105811	2.56324	1.45848	1.25738	1.5563	78.74	-0.213	0.0498	0.2628	1121.7949	0.168692	-403.046042	-403.03712	-403.036176	-403.079536	33.917	
C	 0.6865736913	 1.5205028608	 0.5995325145	-0.379339
C	 0.1541057812	 0.1341855274	 0.2101928789	-0.285701
C	 0.6576909667	-0.316869698	-1.131761135	 0.309843
C	 0.0376265726	 0.2106844327	-2.4987727124	-0.049424
O	 0.9592002458	-0.0244846455	-3.5685070613	-0.235011
C	 0.1630363192	-1.1142531197	-3.0908131421	-0.001082
C	 0.8012008373	-1.6809743454	-1.7628899217	-0.180743
N	 1.9366788949	-0.9402933454	-1.2936461714	-0.106691
C	 3.1110954931	-0.4887786371	-2.044458218	-0.300322
H	 1.7791381029	 1.5113502395	 0.6622332447	 0.127287
H	 0.4007355712	 2.2794997834	-0.1368819711	 0.115789
H	 0.2937227219	 1.8346011328	 1.5711739744	 0.113512
H	 0.4559280818	-0.6062890687	 0.958284124	 0.111058
H	-0.9439051937	 0.1480691604	 0.1974888549	 0.095659
H	-0.7114225076	 0.9830439472	-2.6287715176	 0.106538
H	-0.4622193592	-1.6414880402	-3.8009648211	 0.109388
H	 0.5819107232	-2.6666110823	-1.3636390311	 0.093421
H	 3.052147908	 0.5745774225	-2.2875829514	 0.125042
H	 4.0020270354	-0.6587722694	-1.4277019042	 0.104609
H	 3.225185334	-1.0401037751	-2.980156853	 0.126167
