15
gdb 69222	2.73425	1.67587	1.19176	3.7139	67.48	-0.2669	-0.0314	0.2355	1013.3249	0.113165	-453.971164	-453.963563	-453.962619	-454.003197	28.783	
C	-0.0524658801	 1.5436842684	 0.0078588782	-0.489522
C	 0.0941006406	 0.0495338838	 0.0134448708	 0.238015
N	-0.7640712747	-0.8255122306	 0.8497808562	-0.353223
C	 0.704255915	-0.7798857046	 1.0858173787	-0.277959
C	 1.3659337289	-1.9404764464	 0.4079964002	 0.493198
O	 2.0701335913	-2.7922636826	 0.8486841172	-0.317415
O	 1.0481483689	-1.8736392342	-0.9450790226	-0.233146
C	 0.4207800189	-0.6746818992	-1.2567044923	 0.426686
N	 0.2029194988	-0.2622104668	-2.4221467089	-0.530987
H	 0.846543799	 2.021090668	-0.3912274476	 0.146696
H	-0.8933696673	 1.837240407	-0.626072942	 0.159366
H	-0.2256781833	 1.91988897	 1.0207512367	 0.119973
H	-1.2083234059	-0.2420107798	 1.5585716547	 0.246244
H	 1.1108025707	-0.3977817493	 2.012796657	 0.130338
H	 0.5297895391	-0.9306075636	-3.1216648362	 0.241734
