19
gdb 41243	2.89813	2.08007	1.67302	1.5957	77.84	-0.2333	0.0739	0.3072	880.161	0.162148	-385.809807	-385.803638	-385.802694	-385.839847	27.314	
C	 0.0012987494	 1.5315164508	-0.2239511745	-0.278476
C	 1.5479996467	 1.525658279	 0.0999064784	-0.355889
C	 1.2496449192	 0.2730834087	 0.9206600523	 0.439812
O	 1.8662932312	-1.0307106068	 1.0957399729	-0.333804
C	 0.7415828157	-1.2373469707	 1.9726555387	 0.078913
C	-0.7001821049	-0.7916887151	 1.2578017021	-0.136412
C	-0.8332939318	 0.2325265918	 2.4062427996	-0.255851
C	 0.7015429988	 0.2318695597	 2.4046496107	-0.11705
C	-0.0253858372	 0.0019771266	 0.1377527957	 0.011536
H	-0.5583758548	 2.170243528	 0.4611517289	 0.112833
H	-0.2778961394	 1.784644245	-1.2475364644	 0.106708
H	 2.1384355674	 1.3019862078	-0.7928451435	 0.12043
H	 1.9795797321	 2.3881647462	 0.613269854	 0.103396
H	 0.7972519133	-2.1199112812	 2.6070729683	 0.087766
H	-1.4874390637	-1.5100870043	 1.0355179058	 0.062784
H	-1.3844047615	 1.1549870478	 2.2099086002	 0.098903
H	-1.2120390352	-0.2221193467	 3.3268341479	 0.100432
H	 1.3396491436	 0.6402382513	 3.1875077404	 0.074377
H	 0.1865552812	-0.5988296079	-0.7490598835	 0.079594
