18
gdb 85158	2.01207	1.71296	1.02053	2.7824	73.91	-0.2472	-0.0191	0.2281	1174.858	0.145565	-439.133688	-439.124213	-439.123268	-439.168708	33.972	
C	 0.0969967076	 1.638262546	-0.4229957891	-0.379597
C	 0.0651345678	 0.158551676	-0.0725234018	 0.036758
N	 1.0782015426	-0.6639013652	-0.763977926	-0.328868
C	 1.704939225	-1.1309174615	 0.3527404488	 0.43536
O	 2.6544425063	-1.8445223894	 0.5417262112	-0.363138
C	 0.6917231513	-0.3646945709	 1.264051863	-0.281635
C	 1.3086380159	 0.5487058233	 2.309690786	 0.366644
C	 2.1006376716	-0.1857991534	 3.372104625	-0.483479
O	 1.187131983	 1.7517373826	 2.2940353206	-0.300778
H	 1.0948981054	 2.0597593609	-0.2966295138	 0.136588
H	-0.2153809261	 1.7723787543	-1.4651172307	 0.105427
H	-0.5876600408	 2.1997967529	 0.2160663383	 0.138061
H	-0.9464436488	-0.2381383786	-0.2208522362	 0.090192
H	 1.2669313711	-0.8229482953	-1.7429719778	 0.253602
H	 0.049279013	-1.0897982027	 1.7756426531	 0.12239
H	 2.8051739153	-0.878046789	 2.8978114408	 0.175273
H	 2.6222048532	 0.5306913122	 4.0075562368	 0.139034
H	 1.4250962563	-0.7924378522	 3.9871253318	 0.138165
