14
gdb 24094	7.71708	0.79289	0.72223	0.4192	70.29	-0.2223	-0.0027	0.2196	1454.7797	0.100108	-436.660776	-436.652706	-436.651762	-436.694742	28.622	
C	-0.0027920396	-1.1602145242	-0.0045685778	-0.408411
C	 0.0221746577	 0.0399312681	 0.0022403671	 0.298095
C	 0.0067556849	 1.4938245008	 0.0110268286	-0.244126
O	 1.3621061774	 1.9660247971	-0.0023324839	-0.274452
C	 1.5095458217	 3.3005535801	 0.0038067231	 0.361527
C	 2.6816145079	 3.9900017984	-0.0062341223	-0.156301
O	 2.3552782005	 5.3259278875	 0.0056516562	-0.135956
C	 1.0149562995	 5.352176934	 0.0219814573	 0.085175
N	 0.4480595156	 4.1850746732	 0.0218619777	-0.335637
H	-0.0208197028	-2.2220757886	-0.0106429547	 0.203607
H	-0.5315221176	 1.8831013793	-0.861578956	 0.148662
H	-0.5105206837	 1.8726760019	 0.9007533312	 0.14867
H	 3.7234787849	 3.7314512821	-0.0203370869	 0.152549
H	 0.5403149236	 6.3203515603	 0.0334627205	 0.156597
