20
gdb 71643	3.0765	1.885	1.62263	1.4481	80.53	-0.2301	0.0827	0.3127	921.0423	0.173637	-365.964873	-365.95814	-365.957196	-365.995401	28.969	
C	-0.0188986454	 1.5630131067	-0.0297578154	-0.49167
C	 0.0001629589	 0.0467097094	 0.0226773273	 0.316977
C	-1.3211922095	-0.7047574748	 0.3764288894	-0.283141
C	-0.4579215603	-1.7172906507	 1.1507305356	-0.038492
C	 0.4700863253	-2.630875328	 0.3027716732	-0.065002
C	 1.6699022599	-1.7734028083	 0.5967143438	-0.066816
C	 0.7255966557	-0.7086128076	 1.2175998554	-0.101667
N	 1.1883157171	-1.9194055095	-0.7660347565	-0.103403
C	 0.6196525664	-0.6396024451	-1.2103569576	-0.197968
H	 0.9920688362	 1.9693436464	-0.150653205	 0.114309
H	-0.6234817207	 1.9222267828	-0.871213671	 0.117062
H	-0.4457486301	 1.9870172242	 0.8853328433	 0.112766
H	-1.9509486477	-0.1241077949	 1.0586987241	 0.091254
H	-1.9342721689	-1.0608070936	-0.4585383631	 0.089624
H	-0.8433622403	-2.2104929235	 2.0442898151	 0.067938
H	 0.3783881325	-3.7065151881	 0.197559311	 0.089856
H	 2.6942951041	-2.0180496453	 0.853062604	 0.087044
H	 0.9869081942	-0.1579277856	 2.1182472532	 0.063362
H	-0.1125583351	-0.8029782734	-2.0081989916	 0.102102
H	 1.4442194176	-0.0450426912	-1.622853685	 0.095866
