17
gdb 35175	3.67572	1.26743	1.12204	3.441	78.25	-0.2533	0.026	0.2793	1099.4731	0.137233	-380.78377	-380.776435	-380.77549	-380.815696	28.71	
N	-0.0947109859	-1.1583902671	-0.0036842686	-0.339051
C	-0.0588295393	-0.0015868025	 0.0028974599	 0.291138
C	 0.0119641856	 1.4313804499	 0.0094644574	-0.315928
C	 0.5089664403	 2.1612537918	 1.278803198	-0.399413
C	 1.3484667608	 2.1162201453	 0.067782552	 0.466373
C	 2.7789285429	 1.7100995312	-0.2755245108	-0.150882
C	 2.3992411954	 2.1969416658	-1.6942219968	-0.168326
N	 1.7522068361	 3.2858303398	-0.8043145001	-0.188883
C	 3.0760997453	 3.2061211715	-0.0065139724	-0.169697
H	-0.7676970398	 1.9333631991	-0.5548107407	 0.145538
H	-0.0056405161	 3.0853148885	 1.5192340116	 0.142341
H	 0.7760993087	 1.5423070041	 2.1283061522	 0.145293
H	 3.3326961015	 0.8197800601	 0.0333081496	 0.091503
H	 3.1984463678	 2.5853621788	-2.329555207	 0.109343
H	 1.6744121354	 1.6120240521	-2.2636408601	 0.118204
H	 2.9902776163	 3.575864562	 1.0173920864	 0.112343
H	 3.9185807651	 3.6589936695	-0.5342603905	 0.110103
