18
gdb 78714	4.36911	1.16256	1.04679	4.6441	81.84	-0.2676	0.0216	0.2891	1169.1909	0.148812	-364.784993	-364.777376	-364.776432	-364.816871	30.054	
C	-0.1317288537	 1.4597131662	 0.027352486	-0.411755
C	 0.0483922323	-0.0534455737	 0.0246009186	 0.011895
C	 0.8732211695	-0.5665945449	-1.1579670022	-0.097418
C	 2.1505896249	-0.5085185874	-0.3737851277	-0.112731
C	 1.2280907647	-0.5595343359	 0.9126623531	-0.081984
C	 1.1701973188	-2.1021028257	 0.7772799376	-0.297468
C	 1.5571447295	-1.878095777	-0.6887497125	 0.213185
C	 2.0344881698	-2.8410253576	-1.6221471491	 0.167827
N	 2.4211659946	-3.6349620266	-2.3713060364	-0.353578
H	 0.822929892	 1.97254931	-0.1327510083	 0.12056
H	-0.8192361081	 1.7775902719	-0.7634595707	 0.120908
H	-0.5433847872	 1.7992750754	 0.9835927218	 0.118681
H	-0.9120339083	-0.5521188488	 0.2045902492	 0.072345
H	 0.7314185549	-0.3872190344	-2.216334799	 0.10748
H	 3.1336894186	-0.1198496993	-0.5935155701	 0.113678
H	 1.4403549782	-0.0897705371	 1.870365387	 0.083067
H	 1.9800872002	-2.5978817191	 1.3171508698	 0.1186
H	 0.2172533393	-2.5952936759	 0.9949599627	 0.106709
