21
gdb 58949	2.5938	1.36047	1.13353	1.7388	77.86	-0.232	0.059	0.2909	1189.1701	0.180941	-424.186543	-424.177112	-424.176168	-424.220548	35.79	
C	-0.0670505502	 1.4468974751	-0.1722801942	-0.393032
C	 0.0137375188	-0.0664866635	 0.0937919655	-0.087109
C	 0.6580422642	-0.3684654654	 1.4549028436	-0.391194
C	-1.3516854537	-0.6822913805	-0.017086595	 0.42541
O	-2.3497858356	-0.2677209591	 0.9464773779	-0.347146
C	-2.8392901981	-1.6385624237	 1.0557013418	-0.104639
C	-1.9145175577	-2.1065345484	-0.0541948549	-0.252067
C	-2.0819206417	-1.1529518282	-1.2305194098	 0.071682
O	-3.308494831	-0.6126947575	-1.6068820533	-0.441312
H	 0.9249327631	 1.9048094349	-0.1107829458	 0.110938
H	-0.4783231619	 1.6538789793	-1.1650539046	 0.120042
H	-0.7105401486	 1.9321877892	 0.5684028282	 0.132939
H	 0.6254873803	-0.5256592146	-0.6947074589	 0.079655
H	 1.6537789787	 0.0805043275	 1.5223081633	 0.109759
H	 0.0448756755	 0.0365856486	 2.265452421	 0.130999
H	 0.760269718	-1.4466557902	 1.6141395157	 0.110984
H	-2.6007288258	-2.0465675732	 2.0428303177	 0.114607
H	-3.9173466374	-1.7051276307	 0.8713136475	 0.112368
H	-1.4225994185	-3.068212044	-0.1213675979	 0.097531
H	-1.4625237401	-1.3985298304	-2.0891202583	 0.104548
H	-3.5471286086	 0.0102889947	-0.9065473795	 0.295038
