19
gdb 72667	2.28103	1.50757	1.45879	3.4869	80.04	-0.2411	0.0097	0.2508	1052.067	0.159881	-382.055032	-382.046497	-382.045553	-382.087963	32.67	
C	 0.072815043	 1.553613351	-0.1056075364	-0.494436
C	 0.0056050713	 0.0498089898	-0.0078281455	 0.283113
C	-1.3424810251	-0.5899180903	 0.4576279854	-0.279232
C	-0.6457156564	-1.2125017067	 1.7044551599	-0.253355
C	 0.7265103445	-0.8069713675	 1.1150430008	 0.193741
N	 1.1763257505	-1.7521643659	 0.0540938524	-0.365402
C	 0.785708956	-0.8087955529	-1.0280876786	-0.212645
C	 1.7589213478	-0.2792533941	 1.979581345	 0.190287
N	 2.5930236096	 0.1509049007	 2.6574829297	-0.348351
H	 1.1047391481	 1.9042653699	-0.2084283828	 0.131156
H	-0.4920726698	 1.9045052545	-0.9778618187	 0.125508
H	-0.3578880183	 2.0315266287	 0.7805928784	 0.127132
H	-2.1233395374	 0.1372465184	 0.6900653613	 0.108314
H	-1.7465107665	-1.3210027167	-0.2459933927	 0.113947
H	-0.8754528433	-0.6738290482	 2.6269892916	 0.117997
H	-0.7657076209	-2.2847532584	 1.8647702076	 0.118596
H	 2.1629658341	-1.9794637308	 0.0908453293	 0.234661
H	 0.2070304219	-1.2743321573	-1.8339348724	 0.105991
H	 1.6271960109	-0.2580794842	-1.4688269741	 0.102978
