22
gdb 59275	2.96206	1.31005	1.01806	1.3862	86.9	-0.2299	0.0143	0.2442	1248.0411	0.194961	-367.19859	-367.189734	-367.18879	-367.23216	34.62	
C	 0.054409379	 1.560047956	 0.0210149015	-0.397275
C	 0.0381440077	 0.025699071	 0.0557456009	 0.046982
C	 0.7583939247	-0.4862034586	 1.3114901779	-0.392917
C	-1.4008957639	-0.5396641801	-0.0248896906	-0.020346
C	-2.1729503612	-0.1538390184	-1.2794252224	-0.095641
C	-2.659691023	-1.2085951007	-1.9364799034	-0.061609
C	-2.2641979136	-2.4761319044	-1.2567843433	-0.092334
N	-0.783125491	-2.6727879712	-1.2358009821	-0.332565
C	-1.4696730502	-2.0718213779	-0.0686853215	-0.067007
H	 1.0789979006	 1.9376507473	 0.1041977329	 0.10918
H	-0.3663207611	 1.9568740806	-0.9072666881	 0.113053
H	-0.5196705074	 1.9807701856	 0.8561477898	 0.107019
H	 0.5736182668	-0.3517159123	-0.8230003039	 0.096095
H	 0.831569025	-1.577586826	 1.3195079262	 0.113893
H	 1.7761059476	-0.0858994286	 1.3671816136	 0.108249
H	 0.2319936167	-0.1763595316	 2.2231918714	 0.105177
H	-1.9449622586	-0.1838381098	 0.8650539161	 0.07121
H	-2.2808919811	 0.8763745741	-1.5978228751	 0.097092
H	-3.2357597225	-1.1754255669	-2.8535304822	 0.095573
H	-2.9027128442	-3.3530647074	-1.2697818773	 0.085942
H	-0.5912787538	-3.6499374557	-1.0188108898	 0.224762
H	-1.5029511767	-2.6352809349	 0.8571735094	 0.085467
