14
gdb 127815	2.55575	1.88933	1.09372	1.3021	70.58	-0.2631	-0.0621	0.201	1023.2765	0.100576	-466.120911	-466.112894	-466.11195	-466.153929	28.815	
C	-0.4028226545	 1.3539286797	-0.0165766579	-0.316733
N	-0.0206068982	-0.0537809227	 0.010569547	-0.047
N	 0.020395198	-0.6775624649	-1.1767062609	-0.025012
N	 0.3232889816	-1.8635471625	-1.3310044045	 0.002066
O	 0.6618346567	-2.6515321154	-0.1492620735	-0.292412
C	 0.6507835396	-2.1125014151	 1.0983727508	 0.377902
N	 0.9406908609	-2.7753177225	 2.1341525771	-0.504764
C	 0.27610854	-0.6744151721	 1.2187771403	 0.329026
N	 0.2136545515	-0.0127548431	 2.3001597027	-0.507188
H	 0.3990518681	 1.9647623231	 0.4042736634	 0.161293
H	-0.5856688983	 1.6212064731	-1.0558570074	 0.157781
H	-1.3013710222	 1.5065929964	 0.5855560717	 0.161265
H	 1.1762820787	-3.7413283851	 1.9040302627	 0.244243
H	 0.4633616682	-0.6317865689	 3.0730982984	 0.259535
