14
gdb 55668	2.56313	1.17885	0.95733	2.0755	65.6	-0.2597	-0.0362	0.2235	1222.8464	0.097278	-473.828896	-473.819454	-473.81851	-473.864212	32.805	
N	-0.0927713505	 1.2949874769	 0.0135894676	-0.564194
C	 0.0781607494	-0.0538158832	-0.0084477725	 0.527098
O	 1.1345543487	-0.638689339	-0.0055100234	-0.398786
O	-1.1433969854	-0.665524618	-0.0941750553	-0.253585
C	-1.0955677481	-2.0832016092	-0.0239346477	-0.14553
C	-1.0839513425	-2.547885608	 1.4461664298	 0.153962
O	-0.9948908213	-1.7957391807	 2.3731589922	-0.22535
C	-2.235979291	-2.6594734703	-0.7205272443	 0.28268
C	-3.1802037569	-3.1876512171	-1.2415687616	-0.399959
H	 0.7145636472	 1.840996152	 0.2606892054	 0.274661
H	-1.0014211365	 1.662499568	 0.240290899	 0.27275
H	-0.1515226151	-2.4351454891	-0.4645231393	 0.161739
H	-1.1575023379	-3.6495676053	 1.5626924173	 0.103919
H	-4.01018731	-3.6432744871	-1.7236292574	 0.210596
