15
gdb 2848	6.16322	1.45115	1.28818	2.6878	58.99	-0.2597	-0.0404	0.2193	929.9151	0.122872	-345.64389	-345.636275	-345.635331	-345.67615	26.343	
C	 0.5408480774	 1.5052231134	 0.1586503923	-0.379103
C	 0.0407413601	 0.0559312524	 0.1158652173	-0.21861
C	 0.2695419689	-0.5677215005	-1.2413082201	 0.089582
O	 1.5788972799	-1.0197229655	-1.5597364851	-0.244044
C	 0.5406010579	-2.0060608263	-1.4955880624	-0.056634
C	 0.6455399601	-2.9986876541	-0.3846353899	 0.139765
O	 0.1045248474	-4.0748788979	-0.4107135599	-0.244655
H	 1.6158689591	 1.5495223505	-0.0394463729	 0.136685
H	 0.0348583974	 2.1211644722	-0.5926363318	 0.120365
H	 0.3556824077	 1.9534015694	 1.1386784544	 0.121335
H	 0.5418669208	-0.5336316112	 0.8886323315	 0.110343
H	-1.0341553697	 0.021838073	 0.3332371818	 0.113886
H	-0.2192010625	-0.0419071093	-2.0658571841	 0.102835
H	 0.2256908149	-2.4307945682	-2.4479838866	 0.116294
H	 1.2784857806	-2.6721223377	 0.4680604554	 0.091957
