22
gdb 83952	2.28459	1.65909	1.43561	0.2496	81.16	-0.2054	0.0847	0.2901	1076.5469	0.195795	-404.313723	-404.305248	-404.304304	-404.346124	33.669	
C	-0.0538127105	 1.6284263772	-0.0072688841	-0.436304
C	 0.0493883795	 0.1162790219	-0.0360287482	 0.048941
C	 0.6524610108	-0.6108835835	-1.2583513738	 0.096753
O	 1.7628770029	 0.1303518159	-1.7509689055	-0.278414
C	 2.8384404955	 0.2593204152	-0.8141265106	-0.085489
C	 2.3778337637	 0.1362306242	 0.6696428918	-0.190526
N	 1.1045115949	-0.5926310145	 0.81177121	-0.147319
C	 1.1065245251	-1.6876560282	-0.2424839879	 0.040739
C	 0.1464321526	-2.8273425174	 0.0622108173	-0.425003
H	 0.8063337328	 2.1153786632	-0.4715187758	 0.129658
H	-0.9459444567	 1.942840597	-0.5591139514	 0.118644
H	-0.155310506	 1.9914677846	 1.0210042511	 0.124389
H	-0.9176745129	-0.3109056202	 0.2445223648	 0.078055
H	 0.0386754789	-0.8695600787	-2.1269195885	 0.067617
H	 3.5949660071	-0.5052836025	-1.0369085319	 0.100752
H	 3.302342198	 1.2329695938	-1.0027250988	 0.106261
H	 3.147535514	-0.3948424961	 1.2414329913	 0.103064
H	 2.2612226615	 1.1207856655	 1.1305332588	 0.110586
H	 2.1021976053	-2.1032004127	-0.4250225309	 0.073574
H	-0.8811366716	-2.4861213416	 0.2128087305	 0.121241
H	 0.1430343988	-3.5496917584	-0.7611072826	 0.116111
H	 0.4609369862	-3.3467356749	 0.9723620845	 0.126673
