14
gdb 42765	2.70677	1.62912	1.30877	5.5339	67.39	-0.254	-0.0488	0.2052	966.0185	0.101241	-436.674581	-436.667414	-436.66647	-436.70629	27.103	
O	-0.0589490797	-0.0197700708	 0.0250208705	-0.282198
C	-0.0546932318	 1.1649600945	-0.0158155379	 0.415826
C	-1.0751072437	 2.32539373	 0.0306170556	-0.21125
C	-0.0480144998	 2.9789138254	 1.0198715031	-0.288457
C	 0.9967333243	 2.3325227286	 0.0618509711	 0.21828
O	 0.7703287397	 3.0080015553	-1.1837792675	-0.312188
C	-0.6846320579	 3.0364886865	-1.273773841	-0.08469
C	 2.3943963754	 2.1757798736	 0.3698195417	 0.209806
N	 3.5010891054	 2.0124604517	 0.6582223	-0.327546
H	-2.1268412993	 2.1794374853	 0.2592404516	 0.117527
H	-0.0221666812	 4.0690822561	 1.0514308845	 0.138972
H	-0.0553576353	 2.5399364267	 2.0180527095	 0.14709
H	-1.0105189151	 2.5033476526	-2.1723524912	 0.133248
H	-1.023875001	 4.0761624444	-1.32184369	 0.125581
