17
gdb 64057	2.34104	1.80687	1.31535	2.5494	69.27	-0.2569	-0.0306	0.2263	994.7284	0.136647	-455.197128	-455.188853	-455.187909	-455.229566	31.797	
C	 0.7107106191	 1.3073800112	-0.0957042989	-0.419642
C	-0.1295256529	 0.0187189771	 0.0008678377	 0.234165
O	-1.5025195048	 0.3319394612	 0.0786400307	-0.469419
C	 0.1053083688	-0.8992681454	-1.2122749275	-0.197733
N	 1.4132003739	-1.5515924767	-1.2382112141	-0.230777
C	 1.9290314029	-1.8345935847	-0.1169780643	 0.088077
N	 1.3742445162	-1.5361697873	 1.134034644	-0.34434
C	 0.2738682369	-0.7236145753	 1.2783817986	 0.395128
O	-0.3086347122	-0.5692516729	 2.3326363028	-0.378994
H	 1.7727120278	 1.0940518474	-0.248702755	 0.126589
H	 0.3456310437	 1.8920008462	-0.9445257174	 0.133689
H	 0.5952959755	 1.9051714183	 0.8127178433	 0.127731
H	-1.7151032623	 0.3459374371	 1.0240015159	 0.292316
H	-0.6724407391	-1.6754696786	-1.2175319589	 0.128254
H	-0.0211130031	-0.3231060735	-2.1336893957	 0.122127
H	 2.8787831723	-2.3646956076	-0.0624846082	 0.129547
H	 1.7460785474	-1.9627720863	 1.971538287	 0.263282
