19
gdb 76096	2.44797	1.24779	1.02471	3.1774	81.17	-0.2431	0.015	0.2581	1243.4673	0.158781	-382.036606	-382.027464	-382.02652	-382.071007	33.405	
C	-0.6574213307	 1.1906978258	 0.434608962	-0.323635
N	 0.0136352781	-0.0853109767	 0.2050164826	-0.104883
C	 1.254041831	-0.1210255469	-0.5841182867	-0.19254
C	 1.8589334871	 1.0983744099	-1.0601029	 0.302359
N	 2.3278884908	 2.0801527728	-1.4548058025	-0.350704
C	 1.2513206856	-0.4020179785	 0.9010087931	-0.013236
C	 1.9156519724	 0.5090926964	 1.8816999185	 0.001358
C	 1.693227123	 0.2804434923	 3.360748686	-0.274037
C	 3.0275863611	-0.0402494707	 2.7447258272	-0.273969
H	 0.009452226	 2.0584115993	 0.5143705264	 0.129279
H	-1.3508550863	 1.3692661493	-0.3918342681	 0.135954
H	-1.2366589354	 1.1085442265	 1.3582649799	 0.133619
H	 1.3245627734	-0.9441535039	-1.2908091189	 0.133388
H	 1.319971774	-1.4559557081	 1.1732532895	 0.101522
H	 2.0309610407	 1.5391250365	 1.5648497374	 0.112941
H	 1.61180538	 1.1511123273	 4.0013196621	 0.121316
H	 1.057855613	-0.5488309293	 3.6536537853	 0.119155
H	 3.2925133405	-1.0855536643	 2.6235984635	 0.117711
H	 3.8690256956	 0.6089614523	 2.9565422326	 0.124404
