18
gdb 69058	3.05396	1.18175	1.05512	2.9098	73.98	-0.2383	0.0285	0.2669	1188.6552	0.146876	-439.075164	-439.066294	-439.06535	-439.109295	32.886	
O	-0.2075031059	 1.3590342868	-0.039932851	-0.460254
C	-0.0489063325	-0.0103833094	 0.0569249786	 0.31722
C	-0.3692057684	-0.9547931706	-1.0652237925	-0.353907
C	-1.1452959296	-1.0697969849	 0.2249388831	 0.353525
C	-0.3003450301	-1.7973747894	 1.2795224801	-0.273622
C	 0.8102941355	-0.7017258893	 1.1204498111	-0.28187
N	-2.5522760099	-0.9091969075	 0.2481529461	-0.389566
C	-3.4278285136	-1.6014692144	-0.5412210222	 0.133295
O	-3.1281960974	-2.4323185265	-1.3677939909	-0.312945
H	 0.3029914874	 1.6775562795	-0.7916134188	 0.29077
H	-0.9427329144	-0.5132043759	-1.8729041083	 0.127747
H	 0.3146607945	-1.7443190063	-1.3682412501	 0.111527
H	-0.7561817723	-1.784677136	 2.2725071593	 0.102408
H	-0.0169480208	-2.8247968715	 1.0322176725	 0.108042
H	 1.8006299151	-1.0415949768	 0.8009881607	 0.096913
H	 0.9149606376	-0.0895377768	 2.0188966524	 0.109866
H	-2.9449394362	-0.2591038366	 0.9128145187	 0.249359
H	-4.475289699	-1.2989514443	-0.3357298487	 0.071492
