20
gdb 74431	2.74186	1.51382	1.14063	1.5502	81.18	-0.225	0.0261	0.2511	1146.71	0.170934	-403.166414	-403.157724	-403.15678	-403.199351	33.416	
C	 0.007338243	 1.4595620844	 0.0550612782	-0.455179
C	-0.0578401059	-0.0289121191	-0.110858153	 0.376013
N	-0.9999658245	-0.7243301926	 0.3772415717	-0.340528
C	-1.0408080218	-2.1379418654	 0.1182189356	 0.342835
C	-1.8382266	-2.9002334361	 1.1508378984	-0.449193
C	-1.1053853048	-2.5677316743	-1.3385424548	-0.325157
C	 0.160066768	-2.7688685128	-0.5441861864	-0.087498
C	 1.3482544284	-1.8630100649	-0.7513988413	-0.104213
O	 0.9883901669	-0.4785062381	-0.8657912758	-0.266375
H	 0.9165845331	 1.7446161261	 0.594695895	 0.134012
H	 0.0493126071	 1.9471843847	-0.9244774386	 0.137171
H	-0.8697298515	 1.8057975251	 0.6004235083	 0.142832
H	-2.8585404931	-2.5079428307	 1.2068641233	 0.125812
H	-1.8874125302	-3.9654746664	 0.9047618317	 0.104491
H	-1.386761607	-2.7978645427	 2.1433310154	 0.117567
H	-1.6963033078	-3.4434955115	-1.5855141374	 0.111363
H	-1.1232964463	-1.7825883537	-2.0872236532	 0.122121
H	 0.423810346	-3.7845775661	-0.2617331134	 0.088479
H	 2.0437429893	-1.9694142944	 0.0929667503	 0.109221
H	 1.8957825708	-2.0949412015	-1.6706228439	 0.116227
