20
gdb 94594	3.28611	0.95739	0.79499	4.2858	75.3	-0.2371	0.027	0.2641	1449.2657	0.169699	-440.305664	-440.295617	-440.294673	-440.342133	35.514	
C	-0.4047129829	 1.4599703771	-0.0706743167	-0.402181
C	 0.1225428544	 0.0380954882	-0.0660296816	 0.132559
O	 1.3730918586	-0.0902277153	-0.7803673515	-0.296316
C	 1.9641199491	-0.8493363948	 0.2985007494	-0.06913
C	 0.7491181758	-0.5919913861	 1.2114912899	-0.031662
C	 1.0038651917	 0.3139671975	 2.4084844195	-0.346207
C	 1.8227474694	-0.4020191066	 3.4835130298	 0.414809
N	 1.8652543562	 0.2347448711	 4.6907517878	-0.525978
O	 2.3933920659	-1.4578315116	 3.2850885198	-0.353087
H	 0.3154319588	 2.1607306345	 0.3604985421	 0.114779
H	-0.6020408341	 1.7736017959	-1.1006463603	 0.128274
H	-1.3442116859	 1.5286772196	 0.4888920107	 0.11156
H	-0.6355992143	-0.6276828795	-0.5064149194	 0.068609
H	 2.1217538249	-1.8999441896	 0.0280951408	 0.103554
H	 2.9179439293	-0.4229850608	 0.6270075344	 0.102698
H	 0.2472846351	-1.5010314976	 1.5470229329	 0.085941
H	 1.5604449075	 1.2107079917	 2.1057277447	 0.12969
H	 0.0621893348	 0.6705295896	 2.8448471799	 0.112857
H	 1.4641541597	 1.1453603344	 4.8304629324	 0.257934
H	 2.4631753559	-0.1441683277	 5.4068140354	 0.261298
