15
gdb 32368	4.86578	1.03542	0.85832	5.8473	73.62	-0.2258	-0.0639	0.162	1269.2144	0.113216	-453.95841	-453.950267	-453.949323	-453.992221	29.137	
O	-0.0222310425	 1.4461229178	 0.0070638132	-0.416397
C	 0.0127281605	 0.0327100152	 0.0022676278	-0.169433
C	-1.3990317829	-0.4825204234	 0.0126901521	 0.122298
C	-2.4793661904	 0.3240514171	 0.0241152032	 0.043746
O	-3.7323694035	-0.1408315886	 0.0333221742	-0.193701
C	-3.9770739837	-1.5214026568	 0.0316073646	 0.429515
N	-5.198873012	-1.848759967	 0.0408903639	-0.522565
N	-2.8879413743	-2.3872494411	 0.0196204038	-0.307482
C	-1.695356336	-1.8891274848	 0.0109936457	-0.019852
H	 0.880952829	 1.7744803462	 0.0013337911	 0.298901
H	 0.5384599534	-0.3531368965	-0.8879062325	 0.108692
H	 0.5535939917	-0.3588169051	 0.8808068504	 0.108686
H	-2.435698446	 1.4052809973	 0.0268910036	 0.165826
H	-5.2530187425	-2.8658820371	 0.0382030799	 0.234154
H	-0.8696127007	-2.6040805131	 0.0018350789	 0.117611
