17
gdb 49025	2.69687	1.71647	1.32945	2.7162	71.89	-0.245	-0.0401	0.2049	983.7282	0.13563	-421.769059	-421.761683	-421.760739	-421.800947	28.702	
O	-0.4220473417	 0.5062961901	 0.7346402332	-0.255015
C	 0.0609326311	 1.1672257482	-0.151072089	 0.084475
C	 1.3392567697	 1.9355112407	-0.0182181897	 0.340699
O	 1.504860051	 2.9569898792	-1.0313926078	-0.341001
C	 2.749065099	 2.3690521882	-1.5016695051	-0.115168
C	 2.7152091092	 1.3034799018	-0.3891782842	-0.122783
C	 3.2307867548	 1.6655650734	 1.0189481635	-0.062278
C	 3.0591100413	 3.1222073109	 1.350979806	-0.30602
C	 1.8550380041	 2.2353986546	 1.4048185297	-0.085973
H	-0.4011368919	 1.2401204475	-1.1602001694	 0.087279
H	 2.6330996796	 1.9679914296	-2.5153003131	 0.1103
H	 3.5790371314	 3.0834861677	-1.4858635021	 0.111197
H	 2.8015503792	 0.2546347949	-0.6670743997	 0.098087
H	 3.8798745054	 1.0241256252	 1.6012029036	 0.09703
H	 3.4543528691	 3.4061226325	 2.3208402518	 0.119485
H	 3.1295187859	 3.8987122768	 0.5973162573	 0.131949
H	 1.2636044528	 2.0683840587	 2.2952200552	 0.107738
