17
gdb 26469	3.48788	1.36256	1.22593	2.5855	74.79	-0.2192	0.0347	0.2538	1060.9629	0.136635	-418.008476	-418.000339	-417.999395	-418.041372	30.51	
C	-0.2354942584	 1.5504977154	 0.0577488085	-0.446382
C	-0.0363424964	 0.0413586269	 0.0163739437	 0.217401
O	-1.2444562546	-0.6556301544	 0.2443717907	-0.453765
C	 0.6623687098	-0.5413158806	-1.2838987341	-0.19537
N	 1.7531445254	-0.9901919636	-0.39613216	 0.008769
C	 2.982172728	-1.5124045415	-0.0791577534	-0.174248
C	 3.0674539319	-1.3057944934	 1.2879566407	-0.094076
N	 1.9513734173	-0.6621467487	 1.8019433773	-0.38527
C	 1.2046421997	-0.5061574466	 0.734214238	 0.340111
H	 0.6853089222	 2.081344857	-0.2003464258	 0.128962
H	-1.0282513579	 1.8449607409	-0.6363257987	 0.128226
H	-0.5264208131	 1.8628109434	 1.066513191	 0.12897
H	-1.5230509384	-0.4789140005	 1.1496680559	 0.28966
H	 0.1048461223	-1.3559919485	-1.7495613425	 0.139807
H	 0.9716088491	 0.1981080746	-2.0268325062	 0.127993
H	 3.6507473958	-1.9728822217	-0.7859097319	 0.132154
H	 3.8833220574	-1.5939472287	 1.934498067	 0.107059
