15
gdb 42464	7.89338	0.59297	0.55716	2.3671	71.21	-0.2935	-0.0564	0.2372	1819.9348	0.110291	-416.85362	-416.84398	-416.843036	-416.89092	31.85	
O	 0.0072844114	-0.1393782352	-0.0019084314	-0.257307
C	-0.002380792	 1.0633005368	 0.0037370857	 0.37728
C	 1.2701602641	 1.896874601	-0.0022141651	-0.304278
C	 2.5273024241	 1.0129554049	-0.016656996	-0.342074
C	 3.7495773275	 1.8118581785	-0.0221027017	 0.256042
N	 4.7047672373	 2.4617330208	-0.0261729181	-0.295931
C	-1.3082328693	 1.8791444917	 0.017730228	-0.457009
C	-2.5096712062	 1.0547036333	 0.0222800824	 0.29128
N	-3.4733924067	 0.4197106445	 0.0260333192	-0.285467
H	 1.2546291388	 2.5651337966	-0.8721098837	 0.153879
H	 1.2684863093	 2.5561987197	 0.8746264588	 0.153905
H	 2.5302822721	 0.3508897654	 0.8544484884	 0.174575
H	 2.5166014681	 0.3599763825	-0.8945347254	 0.174552
H	-1.3069841206	 2.5362585147	 0.8964453749	 0.180295
H	-1.3200704078	 2.5457399447	-0.8537152961	 0.180258
