20
gdb 77956	3.2255	1.18669	0.97769	4.3646	84.92	-0.3006	0.0285	0.3291	1255.7771	0.171078	-365.97424	-365.96524	-365.964296	-366.008382	33.497	
C	-0.0102001782	 1.5367585922	-0.4442920262	-0.457784
C	 0.1074043678	 0.0193986714	-0.3181134842	 0.049915
C	 1.3275076421	-0.8505330635	-0.7941301743	-0.088255
C	 2.1362125389	-0.432250177	 0.4760222104	 0.05569
C	 2.8928950625	 0.8894505426	 0.5765403283	-0.456796
C	 0.663079243	-0.6854451588	 0.961843586	-0.087923
C	 0.7424794369	-1.9978500346	 0.103928934	-0.137
C	-0.482382847	-2.6733316738	-0.2916098522	 0.262435
N	-1.4398198451	-3.2460989004	-0.5971549627	-0.342604
H	 0.2171013084	 1.8685264115	-1.4636025229	 0.123143
H	-1.0433636215	 1.8323948686	-0.2352310461	 0.123461
H	 0.6241604258	 2.0952105718	 0.242816686	 0.127043
H	-0.8373083357	-0.4155392954	-0.6573126369	 0.101992
H	 1.7003654973	-0.9764863772	-1.8121945978	 0.083998
H	 2.8047188291	-1.2275342911	 0.8263646513	 0.072453
H	 2.85459531	 1.2915528429	 1.5951970505	 0.123216
H	 3.9478068762	 0.7149449048	 0.3406911213	 0.120344
H	 2.5388422531	 1.6606923438	-0.1054099061	 0.130322
H	 0.2768363851	-0.622349709	 1.9807605581	 0.083979
H	 1.4729705014	-2.7346243891	 0.4460196434	 0.112371
