17
gdb 77799	2.34197	1.41819	1.06207	3.4784	75.72	-0.2546	-0.0481	0.2065	1154.0318	0.134067	-421.83299	-421.824483	-421.823539	-421.86633	31.466	
C	-0.0190944231	 1.5689463059	 0.027778519	-0.422164
C	 0.083788016	 0.058873745	 0.0997801625	-0.073817
C	 1.3196194531	-0.7413614011	-0.2286416367	-0.238239
C	 2.5597969598	-0.1026744937	 0.3469794676	 0.427458
O	 3.6501371484	 0.0949224888	-0.1052718223	-0.306346
C	 1.9696527673	-0.0045330806	 1.7725030495	-0.434065
C	 0.7112085551	-0.6972944906	 1.2375537168	 0.243997
C	 0.0576993574	-1.8449533427	 1.8834583501	 0.064835
O	 0.3469549309	-2.2669788602	 2.9772068155	-0.259538
H	 0.8871551801	 2.0689556365	 0.3756603599	 0.13784
H	-0.1918883631	 1.8818481828	-1.0065495263	 0.136206
H	-0.8582277657	 1.9261563639	 0.6330990274	 0.132224
H	-0.8050741266	-0.4459177806	-0.2795281011	 0.108708
H	 1.2976643187	-1.5505084015	-0.9494602825	 0.123523
H	 2.5268135148	-0.6459354121	 2.460832903	 0.158795
H	 1.8567118797	 0.985687006	 2.2195440577	 0.128813
H	-0.7418877528	-2.3204426559	 1.26944975	 0.071768
