20
gdb 62052	4.12922	0.68245	0.61004	3.2474	81.23	-0.2401	0.0276	0.2676	1797.4243	0.171089	-399.301401	-399.291591	-399.290647	-399.33711	35.176	
N	-0.0227694162	 1.5465655042	-0.1729472464	-0.493294
C	-0.0193182133	 0.0904190656	-0.0062477154	-0.134931
C	-1.4457420191	-0.4381466385	 0.230465092	-0.175393
C	-2.0717954744	 0.1175016773	 1.5108762186	-0.147477
N	-3.4320453471	-0.3830831567	 1.6580719725	-0.062482
C	-3.5887782755	-1.6382543538	 2.3875808052	-0.221645
C	-3.9944508359	-0.3437751442	 3.0020161668	-0.22062
C	 0.6056530184	-0.6188633918	-1.1454759149	 0.255585
N	 1.0994197859	-1.1330494514	-2.0560747212	-0.322031
H	 0.9266247228	 1.8898031776	-0.2832758466	 0.245382
H	-0.5189799219	 1.7911876886	-1.0259638913	 0.242622
H	 0.5877344512	-0.1338968523	 0.8801299254	 0.130734
H	-2.0777584572	-0.1780050969	-0.6262202365	 0.122714
H	-1.4142179404	-1.5319734325	 0.2753169206	 0.120705
H	-1.435517503	-0.1451652015	 2.3782197007	 0.074972
H	-2.1076516961	 1.2093216238	 1.4599068325	 0.127849
H	-4.3344173446	-2.3253049416	 1.998471667	 0.119977
H	-2.6921930588	-2.113884167	 2.7838286718	 0.107781
H	-3.3688774482	 0.040079653	 3.8065988802	 0.110257
H	-5.0424962567	-0.0664512017	 3.0688179792	 0.119296
