19
gdb 53825	2.88855	1.06069	0.88373	0.4193	76.61	-0.2361	-0.082	0.154	1372.6589	0.156562	-423.046957	-423.037116	-423.036172	-423.083126	34.675	
C	 0.8100632768	 1.180524259	-0.3467171373	-0.472646
C	 0.4402412062	-0.2776580252	-0.4539214932	 0.303981
O	 0.8371561125	-1.1340350786	 0.302911745	-0.278306
C	-0.5228194411	-0.6473765017	-1.6133926129	 0.285016
O	-0.956581262	 0.2332130646	-2.3206290908	-0.285823
C	-0.8357907215	-2.1167295805	-1.8066355781	-0.31544
C	 0.1668891221	-2.7408880203	-2.7701678936	 0.017624
C	 1.5059210606	-3.2314842692	-2.2743169183	-0.259447
C	 0.4521033602	-4.2199146921	-2.7049846942	-0.276203
H	 1.3067275922	 1.507204836	-1.2662592989	 0.155955
H	-0.0933493321	 1.7915477163	-0.2583830392	 0.157896
H	 1.463216945	 1.3337723809	 0.5123763936	 0.139948
H	-0.7883294015	-2.6315720763	-0.8439667523	 0.12627
H	-1.8485377172	-2.1932130659	-2.2141044445	 0.121723
H	 0.1516860537	-2.2949943745	-3.7606898186	 0.097991
H	 2.3710923748	-3.0917898766	-2.9130054952	 0.112725
H	 1.7095791108	-3.1355022729	-1.2138620119	 0.138014
H	-0.0479358219	-4.7968525828	-1.934105936	 0.115762
H	 0.5924068524	-4.7537029303	-3.6384173637	 0.114961
