19
gdb 52176	6.69549	0.5798	0.55732	0.226	77.88	-0.2479	-0.0286	0.2192	1894.0821	0.156348	-423.045812	-423.036309	-423.035365	-423.082067	33.445	
O	-0.6829027683	 0.7147699662	 0.6194530349	-0.233474
C	 0.0495857439	 0.9941972462	-0.2934150857	 0.1602
C	 1.3214144028	 1.8023891235	-0.171539917	-0.274237
C	 1.3026660021	 3.0424567064	-1.0831606536	-0.220174
C	 2.617038945	 3.8149085864	-1.0643791191	 0.02924
C	 3.8581476751	 3.1424605794	-1.7392898702	-0.358228
C	 4.0825617745	 4.4530133216	-2.5125649761	 0.406743
O	 4.9848261788	 4.8824573546	-3.168891547	-0.28444
C	 2.7380265963	 5.0291183095	-2.0407681512	-0.372555
H	-0.1819054767	 0.6636098919	-1.3343362342	 0.070558
H	 1.4618173699	 2.0772680133	 0.8780138821	 0.123878
H	 2.156562895	 1.1512461866	-0.4690297144	 0.122371
H	 1.0793744066	 2.7359659848	-2.1149906381	 0.10092
H	 0.4853647811	 3.7062174675	-0.7744871752	 0.118007
H	 2.8542879755	 4.1186722464	-0.0402922439	 0.087625
H	 4.6838719052	 2.813940695	-1.1033834855	 0.132828
H	 3.5926479828	 2.3196280571	-2.4142997493	 0.127401
H	 1.989365078	 5.0171173732	-2.8417557685	 0.130367
H	 2.7694799623	 6.0345428503	-1.6136152079	 0.13297
