15
gdb 5763	6.0519	1.55012	1.36537	0.8894	68.88	-0.2099	0.0186	0.2285	900.2022	0.120237	-362.654322	-362.647717	-362.646773	-362.68574	24.959	
C	 0.250089061	 1.5870101837	 0.1058310499	-0.224806
C	 1.2670047939	 0.547741342	-0.1958208067	-0.224793
N	-0.1272597308	 0.164395341	 0.0795631802	-0.189406
C	-0.4180300352	-0.4697172806	 1.2842958289	 0.411809
C	-1.325134315	-1.4395083964	 1.5737881905	-0.263965
C	-1.1906628663	-1.715436921	 2.9752256149	-0.17168
C	-0.2129979702	-0.8937887361	 3.4322151065	-0.020872
O	 0.2742912209	-0.1231463774	 2.4180260712	-0.182582
H	 0.3059511105	 2.0714157813	 1.0759434818	 0.133779
H	-0.178984733	 2.1841406765	-0.693264554	 0.123362
H	 1.5903802088	 0.3759098054	-1.2181373362	 0.123354
H	 2.0047223294	 0.3353843652	 0.5720031522	 0.133808
H	-2.0010095174	-1.8944830961	 0.868476731	 0.111686
H	-1.7500306915	-2.4308094196	 3.5574999521	 0.109894
H	 0.237511755	-0.7347288881	 4.3979343377	 0.130413
