13
gdb 708	7.5551	4.04959	3.93446	1.6601	52.06	-0.2059	0.0799	0.2857	426.3704	0.109564	-249.25941	-249.254832	-249.253888	-249.286862	18.749	
C	 0.0073009843	 1.4804791739	-0.1505472338	-0.284255
C	 1.3209822016	 0.7660802738	 0.0309075071	-0.054091
C	 0.012994959	-0.0137950332	 0.0396454935	-0.054097
C	 0.4848976872	-0.7715372322	-1.2384240567	-0.050587
N	 0.7461570469	 0.2168952189	-2.3174542063	-0.334999
C	 1.7506221313	-0.016776468	-1.2469329488	-0.050599
H	-0.3201433223	 2.0394411238	 0.7206502331	 0.104199
H	-0.25634771	 1.9119542653	-1.1073293954	 0.141696
H	 1.9923320585	 0.9625649892	 0.8562411084	 0.086883
H	-0.4708973834	-0.5061013136	 0.8726969521	 0.086881
H	 0.2834133978	-1.8099474693	-1.4665485891	 0.090576
H	 1.055264567	-0.3107073462	-3.1332920315	 0.227816
H	 2.7576741521	-0.3345278424	-1.4831819527	 0.090577
