14
gdb 21013	5.68056	1.58971	1.25213	5.7605	69.31	-0.2233	-0.0383	0.185	916.5183	0.108806	-378.746833	-378.739833	-378.738889	-378.778792	25.185	
C	 0.0032614335	 1.4835229776	 0.0348803722	-0.318977
N	-0.0269902202	 0.0284776933	-0.0243495562	 0.010585
C	-1.1854652461	-0.679112533	-0.1237899224	 0.057153
C	-1.2020605836	-2.0364697398	-0.1130229254	-0.272301
C	 0.0432159031	-2.7713776876	 0.0151272427	 0.339898
O	 0.1586648207	-3.9913211735	 0.0369966953	-0.390347
C	 1.2033085123	-1.8662981503	 0.1180939428	-0.083218
N	 1.1734301959	-0.5683710937	 0.1036411724	-0.19252
H	 0.8363088351	 1.8450725744	-0.5692931439	 0.162279
H	-0.9328988481	 1.8807943995	-0.3600318787	 0.142481
H	 0.1363542365	 1.829845522	 1.0650050009	 0.151315
H	-2.0840792328	-0.0793180401	-0.2158062171	 0.135771
H	-2.1360682858	-2.5767209811	-0.2029478425	 0.120874
H	 2.1881142096	-2.3147786877	 0.21506576	 0.137008
