17
gdb 82667	3.07717	1.66257	1.34763	2.152	71.73	-0.2351	-0.006	0.2292	956.8824	0.137866	-421.803061	-421.796217	-421.795273	-421.834079	27.976	
O	-0.0669410381	 1.3766892205	-0.0097682623	-0.442676
C	 0.0271442636	-0.0281258744	-0.1014403829	 0.142438
C	-1.362051407	-0.6435803606	-0.3586587895	-0.064523
C	-1.7751794853	 0.0399799255	-1.6880219711	-0.234779
C	-0.6287549569	-0.7997647688	-2.2732722431	-0.035858
C	-0.9294977244	-1.9275050539	-1.1925479198	-0.172281
C	 0.575250765	-2.0865851704	-1.0828695647	 0.431489
O	 1.3394660538	-3.0042413307	-0.9980587136	-0.333561
C	 0.6820830871	-0.5876545156	-1.4010055934	-0.218515
H	 0.8111056615	 1.7262933509	 0.169892042	 0.287634
H	 0.5066642774	-0.4413338953	 0.7969536707	 0.080149
H	-2.0413627444	-0.7184703418	 0.4891750713	 0.078215
H	-2.7431637509	-0.3208756821	-2.0450227369	 0.102274
H	-1.7290724544	 1.1279484233	-1.7391433638	 0.121372
H	-0.4933379129	-1.0211954627	-3.3296295506	 0.087522
H	-1.6406982655	-2.7393781852	-1.325403994	 0.091709
H	 1.5919019715	-0.1215293888	-1.7730907884	 0.079392
