23
gdb 72546	2.42771	1.56643	1.56324	1.4438	82.94	-0.2503	0.0647	0.315	1046.4225	0.209654	-388.327906	-388.319803	-388.318859	-388.360415	33.34	
O	-0.075975131	 1.4429721481	 0.0105401032	-0.500781
C	 0.0126057153	 0.0231175455	 0.0020641067	 0.39599
C	 0.7528825144	-0.5029753761	 1.2461690737	-0.240315
C	 0.7689341761	-2.0597436371	 1.2391962232	-0.212535
C	 0.034080861	-2.5762224911	-0.0121034413	 0.009583
C	-1.4177851194	-2.0628808469	 0.0045630808	-0.21547
C	-1.4271001033	-0.5079942155	 0.0129353236	-0.211018
C	 0.7448819479	-2.0462557309	-1.2716301501	-0.212535
C	 0.7289764315	-0.4895024769	-1.2615070276	-0.240322
H	 0.8215404534	 1.7935179415	 0.0038073912	 0.267404
H	 1.7747672459	-0.1024054539	 1.2500258401	 0.077746
H	 0.2581901387	-0.1089816287	 2.1394514152	 0.099369
H	 1.7971956591	-2.4369567323	 1.2465184578	 0.091153
H	 0.2873994039	-2.4537864136	 2.1405172348	 0.093505
H	 0.0396809369	-3.6716421984	-0.0180423283	 0.054636
H	-1.9546095313	-2.4473913611	-0.8693203849	 0.092247
H	-1.9377744088	-2.4567350992	 0.8844447667	 0.092246
H	-1.9373849004	-0.1137152364	 0.8972633019	 0.098661
H	-1.9540785685	-0.1043700543	-0.8572740827	 0.098658
H	 1.7727459695	-2.4233380075	-1.3027564185	 0.091155
H	 0.246065591	-2.4305678612	-2.1677396063	 0.093505
H	 0.2174465729	-0.0859106813	-2.1409130445	 0.09937
H	 1.7506764051	-0.0888901229	-1.2804856745	 0.077746
