18
gdb 10052	3.34271	1.248	0.9754	2.6576	74.24	-0.2489	-0.0236	0.2254	1207.7251	0.150112	-347.785125	-347.77548	-347.774535	-347.820256	33.566	
C	-0.0127029327	 1.5648295988	 0.0554105357	-0.394829
C	-0.0276075833	 0.0387442199	-0.065705526	-0.194574
C	 0.7506922303	-0.4958708297	-1.2908967079	-0.050548
C	 0.9209538218	-2.0304165135	-1.2075665786	-0.386345
C	 1.6650441973	-2.5856358263	-2.3317952425	 0.283504
C	 2.2784437674	-3.0096354356	-3.2742681248	-0.420266
C	-0.004567763	-0.1187861215	-2.5533510936	 0.1767
O	 0.2395205148	 0.8318474392	-3.2486948921	-0.249819
H	 1.0090934028	 1.937717955	 0.1804869039	 0.123079
H	-0.4294876064	 2.0444148575	-0.834753224	 0.139544
H	-0.5971535961	 1.8894030802	 0.9213769907	 0.116496
H	 0.4079089435	-0.4093149114	 0.8358740477	 0.104993
H	-1.0635632174	-0.3250075836	-0.1125610789	 0.102992
H	 1.7332166531	-0.0155394503	-1.3383771844	 0.106222
H	 1.4250544882	-2.2804340907	-0.2664049064	 0.136812
H	-0.0705622164	-2.5012706748	-1.154335132	 0.133281
H	 2.8189807585	-3.3925410236	-4.1042098729	 0.200226
H	-0.8709532525	-0.7875814697	-2.7777930339	 0.072532
