22
gdb 111290	2.73357	1.24071	1.01112	0.7174	82.79	-0.199	0.0746	0.2737	1282.3728	0.192495	-404.300573	-404.290907	-404.289962	-404.334638	37.083	
C	-0.1119229138	 1.1789186089	-1.4269553439	-0.376378
C	-0.1906020384	 0.5982533606	-0.015353079	-0.124007
N	-1.3505681231	-0.271988638	 0.1163075495	-0.088601
C	-1.3322362575	-1.5707720642	-0.5522945056	-0.10646
C	-0.3638572354	-2.5540314829	 0.0892447811	-0.336308
C	-1.677915069	-2.2778370112	 0.7495206931	 0.372831
O	-2.5410479085	-3.3170096769	 1.0346982943	-0.461776
C	-1.6894779686	-0.9083254705	 1.4396736815	-0.024923
C	-0.7945117713	-0.6803215802	 2.6500939641	-0.414045
H	 0.7374092762	 1.8632561507	-1.516783665	 0.108926
H	 0.0202250251	 0.3860085839	-2.1706803846	 0.119484
H	-1.0297037392	 1.7217029381	-1.6710446866	 0.120725
H	 0.7635742127	 0.0917044986	 0.2173969941	 0.075353
H	-0.298930345	 1.4133799234	 0.7093769055	 0.097616
H	-1.7177672776	-1.6989646267	-1.5575763329	 0.094247
H	-0.3307311551	-3.5239785021	-0.3974133202	 0.119393
H	 0.5805970444	-2.2304480901	 0.5174214916	 0.106826
H	-3.4439069411	-2.9870563869	 0.9601561388	 0.284749
H	-2.7193939049	-0.6256925636	 1.7053852485	 0.068114
H	 0.2399439309	-0.9839187736	 2.4683170159	 0.120484
H	-0.7929731749	 0.3710793994	 2.9555563677	 0.119542
H	-1.173719486	-1.2684999269	 3.4924005819	 0.124211
