16
gdb 27114	3.21395	1.18688	0.90966	2.1245	74.6	-0.1845	0.0173	0.2018	1242.0124	0.12512	-434.083207	-434.074413	-434.073469	-434.1174	31.919	
N	-0.4730294319	 1.251613776	 0.3456756357	-0.620038
C	-0.1644831045	-0.0990459144	 0.0909502783	 0.178561
C	-1.0427224025	-1.0701107917	-0.3295978391	 0.269346
N	-0.3808675863	-2.2782164103	-0.3910420961	-0.296312
C	 0.9232904379	-2.0857179675	-0.0229734301	-0.081676
C	 1.0873613433	-0.7555407625	 0.2916616201	-0.219501
O	-2.3542978908	-0.9736817996	-0.7158738236	-0.223048
C	-3.2821013612	-0.9222751621	 0.2872988487	 0.105108
N	-4.4993795217	-0.8079223214	-0.007639411	-0.431045
H	 0.3258491342	 1.8535049767	 0.1890039589	 0.243424
H	-1.2368281538	 1.5764232247	-0.2363823711	 0.247841
H	-0.7873928485	-3.1273483411	-0.7417727734	 0.268619
H	 1.6255768736	-2.902718432	-0.013077821	 0.121594
H	 2.000136452	-0.292675027	 0.6348385835	 0.091726
H	-2.8243286198	-0.9847849889	 1.2814736781	 0.109939
H	-5.0613486801	-0.7815754189	 0.8407256121	 0.235462
