18
gdb 89789	1.94984	1.68807	1.01324	3.6598	73.86	-0.2307	-0.0307	0.2001	1188.6329	0.144916	-439.036472	-439.027474	-439.02653	-439.070771	32.323	
C	-0.2710566223	 1.5345906781	-0.0842291549	-0.329454
N	-0.1926521352	 0.0940258674	 0.0296456716	-0.088208
C	-1.3607150321	-0.640686457	 0.5667004317	-0.251702
C	-0.3873326238	-1.5048531148	 1.364381201	 0.409574
C	-0.5383839337	-2.4199643722	 2.487482719	-0.258682
O	-0.2349513703	-2.8944517128	 1.163200303	-0.255506
C	 0.7243650486	-0.4874729105	 1.0286728157	-0.151944
C	 2.0047456637	-1.0821090558	 0.4758745076	 0.164733
O	 2.9894308217	-1.2770098234	 1.1393201342	-0.246438
H	 0.6920432177	 1.9334956201	-0.4180362425	 0.129736
H	-1.0222204903	 1.8042227106	-0.8333753044	 0.128947
H	-0.5391449176	 2.03334386	 0.8660728167	 0.097435
H	-2.0147800883	-0.029676054	 1.2091617527	 0.097065
H	-1.9673497681	-1.1551324416	-0.1858111497	 0.123482
H	 0.2676895255	-2.5201355165	 3.2125556625	 0.132645
H	-1.5338927584	-2.6688716801	 2.8523045933	 0.12319
H	 0.9619421708	 0.1640931128	 1.8839239496	 0.085448
H	 1.943782552	-1.3486898704	-0.6015577673	 0.08968
