18
gdb 28293	4.94975	1.22706	0.99538	1.2828	87.9	-0.1928	0.0022	0.195	1190.399	0.149611	-364.863747	-364.85612	-364.855175	-364.895762	29.87	
C	-0.0167756913	 1.509334872	 0.0120560836	-0.493054
C	 0.0025952215	 0.0101372361	 0.0085336559	 0.301551
C	-0.0303752433	-0.8012951106	-1.1079278509	-0.242245
N	 0.0053165602	-2.1024654623	-0.6696248944	-0.002667
C	 0.0025070999	-3.4000180476	-1.1998808795	-0.013667
C	 0.053731968	-4.2995623415	-0.2095071068	-0.140463
C	 0.0964763687	-3.5833246866	 1.132769127	-0.414147
C	 0.0599083291	-2.1394366772	 0.7099465857	 0.389724
C	 0.0593807427	-0.8436525343	 1.1621432044	-0.451072
H	 0.8833396016	 1.9276476585	 0.4785197014	 0.122065
H	-0.0736474944	 1.9051206418	-1.0063008713	 0.116027
H	-0.8757189418	 1.9042035278	 0.5678258618	 0.121974
H	-0.0753504151	-0.555384497	-2.1568263216	 0.114454
H	-0.0374440432	-3.5470189529	-2.2693240543	 0.129182
H	 0.0637839205	-5.3721251648	-0.3303091448	 0.10738
H	-0.7539224252	-3.8624236467	 1.7688666189	 0.132107
H	 1.0014351456	-3.8381480977	 1.7000533075	 0.1321
H	 0.0950433765	-0.5182766169	 2.1912435573	 0.09075
