16
gdb 110169	2.55627	1.22027	0.90185	2.3602	73.32	-0.2371	0.0166	0.2537	1273.6271	0.121873	-437.850778	-437.841494	-437.84055	-437.885411	32.847	
C	-0.2978230031	 1.334875129	-0.059771498	-0.249424
O	 0.3133454892	 0.0609827614	 0.0980626308	-0.242725
C	 0.7618697094	-0.4759190195	-1.1041697087	-0.036993
C	 1.3403195754	-1.9252836734	-0.9482484714	-0.178116
N	 0.3136280834	-2.3505443372	-1.9151917502	-0.325258
C	-0.3116373891	-1.1345693413	-2.029113292	 0.416298
O	-1.3052033998	-0.7679660212	-2.5970488026	-0.362865
C	 2.7202770454	-2.1578472813	-1.3381318606	 0.316811
C	 3.8633158368	-2.3526944788	-1.6536528795	-0.427445
H	 0.4143232068	 2.0659144659	-0.4709588912	 0.111443
H	-1.1715757971	 1.2808558544	-0.7190542695	 0.147084
H	-0.6080267499	 1.6590952553	 0.9353685143	 0.132526
H	 1.4353024095	 0.2043107193	-1.6444093183	 0.105379
H	 1.1512987264	-2.296154293	 0.064808116	 0.128236
H	 0.0946751626	-3.2642397774	-2.2850921677	 0.259188
H	 4.8740708343	-2.5232346622	-1.9326899712	 0.205862
