15
gdb 102266	2.38559	1.08693	0.92749	4.5955	62.95	-0.2881	0.0069	0.2951	1284.7623	0.111206	-491.125822	-491.116232	-491.115288	-491.161879	33.1	
N	-0.308200645	 1.2593770017	 0.0259863295	-0.562637
C	-0.1092550139	-0.0664681691	 0.2389411982	 0.519195
O	 0.7846459988	-0.5604061805	 0.8806915524	-0.383483
O	-1.118528056	-0.7780422657	-0.3639411822	-0.278614
C	-1.0321409611	-2.207154799	-0.2296459427	-0.067812
C	-2.1285933565	-2.6726373942	 0.7384681697	-0.07581
O	-3.415373968	-2.3094137604	 0.3063563738	-0.405246
C	-1.183128981	-2.7875583756	-1.5696187913	 0.297969
N	-1.2851118539	-3.2735351868	-2.6119198738	-0.313064
H	 0.4428738129	 1.8761874514	 0.2834049659	 0.28036
H	-0.9505037275	 1.5551490022	-0.6891902371	 0.275366
H	-0.0464905575	-2.4606911694	 0.1734219695	 0.167251
H	-2.1068566148	-3.7640328871	 0.8093856523	 0.136585
H	-1.8831669243	-2.2585576362	 1.7280231174	 0.115749
H	-3.4238724822	-1.3515107413	 0.2001660684	 0.29419
