21
gdb 97449	3.76397	0.71232	0.66517	3.4453	84.28	-0.2373	0.034	0.2714	1785.0846	0.18092	-420.375403	-420.365038	-420.364093	-420.412154	36.357	
C	-0.9364683971	 0.5298245126	-0.3634516974	-0.312999
N	 0.331476028	-0.1277166199	-0.125796679	-0.209404
C	 0.7753180756	-0.8651948581	-1.0428210197	 0.12748
O	 1.9725287527	-1.4786591976	-0.9052812688	-0.208604
C	 2.3278089692	-2.4061640748	-1.9323459139	-0.103413
C	 1.6927794215	-3.7536984084	-1.696266366	-0.017891
N	 0.324525746	-3.9340208158	-2.2145254897	-0.338466
C	 1.4172888591	-4.7492763271	-2.7700345718	-0.000346
C	 1.7554988518	-4.5653529503	-4.2312941999	-0.395813
H	-0.8064778978	 1.6166448405	-0.3000421343	 0.124016
H	-1.389541487	 0.2939895972	-1.3405754702	 0.095752
H	-1.6495996149	 0.2507551108	 0.4210245336	 0.123044
H	 0.2688426291	-1.0668158447	-1.9975855505	 0.091703
H	 2.0466675798	-2.0111777886	-2.9146557728	 0.110928
H	 3.4181981426	-2.4806888982	-1.8872037046	 0.11931
H	 1.9101876995	-4.1572603164	-0.7085009281	 0.097608
H	-0.2390609424	-4.470698047	-1.5615507622	 0.236403
H	 1.4627129549	-5.7865662228	-2.4389320936	 0.08817
H	 1.6393949428	-3.5257594148	-4.5441613716	 0.127192
H	 2.7846156436	-4.8792697346	-4.4363461028	 0.120183
H	 1.0892881829	-5.1731460521	-4.8525702169	 0.125148
