21
gdb 119534	2.99596	1.05751	0.86811	2.9659	84.05	-0.2364	-0.0052	0.2311	1416.4801	0.181669	-387.094343	-387.08506	-387.084116	-387.128965	34.569	
C	 0.0096556468	 1.5987892074	-0.1144268099	-0.383844
C	-0.023925899	 0.0696451868	-0.1600564432	-0.162008
C	-1.412282089	-0.5053497187	 0.1663088385	-0.313325
C	-1.4333100586	-2.0095525005	 0.1484831832	 0.257056
C	-1.6074372791	-2.8307770829	-1.127803722	-0.317486
C	-2.5744285884	-3.0592880037	-0.0218590158	-0.124972
C	-1.9371185397	-3.9941641163	 1.0165554318	-0.353409
C	-0.8537703485	-2.8986148353	 1.2094946356	 0.361991
O	-0.0130568623	-2.7213624568	 2.0481554782	-0.322458
H	 1.0080262189	 1.9813028971	-0.347725019	 0.113555
H	-0.6911088889	 2.0345738563	-0.8358781274	 0.109808
H	-0.2650462445	 1.9711056794	 0.878753316	 0.116913
H	 0.2848397865	-0.2800413424	-1.1533571986	 0.094472
H	 0.6989005017	-0.3431609355	 0.5523363012	 0.12691
H	-1.7227291958	-0.1511695205	 1.1580385931	 0.106068
H	-2.152273294	-0.1207749358	-0.5481605764	 0.094367
H	-1.9594732046	-2.2404801581	-1.9686771372	 0.122859
H	-0.8917426633	-3.603051294	-1.3985090753	 0.118839
H	-3.6317844751	-2.8446784906	-0.1043798672	 0.105626
H	-2.512733949	-4.1143270669	 1.9388533306	 0.130598
H	-1.616216574	-4.978592099	 0.662708704	 0.118441
