27
gdb 59982	2.50862	0.92802	0.78703	0.9438	93.21	-0.2426	0.0795	0.3221	1660.6538	0.24814	-390.707835	-390.695699	-390.694755	-390.745379	44.599	
C	-0.1932458075	 1.4898778419	-0.0375277298	-0.38605
C	 0.0267061987	-0.026112166	-0.0311064761	 0.150367
C	 0.9318770952	-0.4783694793	-1.1729878218	-0.387201
O	 0.6509975242	-0.4528886033	 1.1764650416	-0.27732
C	-0.2045746652	-0.6591080192	 2.2996942083	 0.150401
C	-0.8393483899	-2.0516562322	 2.2200416258	-0.406551
C	 0.6573406514	-0.4475007671	 3.5593940652	 0.037182
C	 1.2599259754	 0.9635430467	 3.5841068477	-0.393581
C	-0.1230082756	-0.7235210883	 4.8524108625	-0.399778
H	 0.7666205061	 2.0122967237	 0.0275534425	 0.120605
H	-0.6958088651	 1.8030191927	-0.9587694201	 0.109749
H	-0.8130210375	 1.8092817298	 0.8055018646	 0.114957
H	-0.9494703093	-0.5247034921	-0.1373446767	 0.064403
H	 1.9230050887	-0.0253090993	-1.0683925426	 0.12155
H	 1.0515030021	-1.5649188007	-1.1594848016	 0.117648
H	 0.5167254332	-0.1821914696	-2.1411460304	 0.109001
H	-1.0045765883	 0.1001285575	 2.3017581438	 0.060045
H	-1.5856744555	-2.2013854636	 3.0049189998	 0.11503
H	-1.3429589736	-2.1932651216	 1.2591842783	 0.113549
H	-0.0706988372	-2.8258138274	 2.3150834253	 0.118848
H	 1.4833095464	-1.1694016784	 3.4912525859	 0.077476
H	 1.933450267	 1.0833172928	 4.43895484	 0.104012
H	 1.8206445652	 1.1629935582	 2.6695755697	 0.127307
H	 0.4735942041	 1.7234331586	 3.6752279309	 0.1024
H	-0.4507509602	-1.7635193707	 4.9295360375	 0.114592
H	 0.5012809603	-0.5094252111	 5.7257375024	 0.111757
H	-1.0118899528	-0.084145212	 4.9216589674	 0.109604
