18
gdb 99790	2.42202	0.96216	0.84556	4.4509	82.46	-0.242	0.0078	0.2498	1473.0557	0.146283	-398.100554	-398.089706	-398.088762	-398.137846	37.644	
C	 0.044452839	 1.4836072931	 0.0127469865	-0.501373
C	 0.0331729168	 0.0285434232	 0.0077291614	 0.084036
C	 0.0301898609	-1.175936146	 0.0229482052	 0.089112
C	-0.0065862578	-2.6427608055	-0.03676641	-0.148153
N	-1.3689280383	-3.2152856211	 0.0094485184	-0.52113
C	 0.6659769359	-3.1451036914	-1.3717488331	-0.148541
N	 0.7476622684	-4.578903402	-1.5265394301	-0.505743
C	 0.7554988006	-3.2048281791	 1.0981007089	 0.306928
N	 1.3751657896	-3.6577327533	 1.9615929527	-0.343496
H	 0.6729566348	 1.8665582628	 0.8237713788	 0.161053
H	 0.4361897218	 1.8806072062	-0.9297727863	 0.155879
H	-0.9638853687	 1.8877079847	 0.1529259701	 0.154075
H	-1.7942898999	-3.0111753994	 0.9096925827	 0.248259
H	-1.9302296895	-2.7283780865	-0.6857408554	 0.240409
H	 0.0653124061	-2.7182749184	-2.1839373462	 0.11403
H	 1.6636317601	-2.7040036981	-1.439208376	 0.129107
H	 1.4017253108	-4.9698538914	-0.854624791	 0.243277
H	-0.1597282407	-4.9894164779	-1.3234585368	 0.242272
