16
gdb 84266	3.33172	1.49887	1.10301	3.9788	73.81	-0.217	-0.0312	0.1857	1069.6216	0.12497	-437.865555	-437.857798	-437.856854	-437.89799	28.563	
C	 0.22990499	 1.4103945952	-0.0460267355	-0.351212
N	-0.0179713806	-0.0146509187	-0.0260144158	-0.079142
C	-0.1156691754	-0.8486886704	-1.1485854018	-0.055995
C	-0.5619370741	-2.065455486	-0.7995930804	-0.020949
C	 0.059466525	-3.443622364	-0.8460623454	-0.122383
O	 0.3733762376	-3.2889706738	 0.5772641262	-0.290944
C	-0.5475847703	-2.1598567934	 0.6992503041	-0.011173
C	-0.0936488518	-0.7557294046	 1.1618565414	 0.381654
O	 0.0265723553	-0.3036965212	 2.2743083739	-0.361448
H	 1.1367961151	 1.6470282088	-0.6138819561	 0.133444
H	-0.6135676602	 1.9528679538	-0.4864614457	 0.137234
H	 0.3620351341	 1.7300803763	 0.9890841174	 0.171093
H	 0.2838142348	-0.5025023074	-2.0939023953	 0.128261
H	-0.6291379414	-4.2837083244	-0.9968130733	 0.112949
H	 0.9552890208	-3.5785816213	-1.4596116819	 0.119669
H	-1.4440830189	-2.4509648889	 1.2584549181	 0.108943
