19
gdb 77729	2.74515	1.58427	1.49937	0.613	73.9	-0.2165	0.0664	0.2829	989.3941	0.160283	-422.976135	-422.968413	-422.967469	-423.00789	30.949	
O	-0.2010260991	 1.3881216339	 0.1339198256	-0.422996
C	-0.157969709	 0.0001496592	 0.0062204483	 0.013274
C	-1.4516622511	-0.7641295271	 0.0142892815	 0.16858
C	-2.5653364103	-0.0076970117	-0.7430682506	-0.276292
C	-1.6901317222	-0.0206984966	-2.0413247912	-0.28635
C	-0.5779119559	-0.720333362	-1.2429792563	 0.261439
O	-0.022938267	-1.9717544347	-1.492965869	-0.285564
C	-0.8286429109	-2.94372802	-0.7920528709	-0.081354
C	-1.4411424836	-2.2192186273	 0.4492832125	-0.326756
H	 0.5169327888	 1.7556187131	-0.3928947059	 0.290375
H	 0.6584630475	-0.4965565982	 0.5316994744	 0.092053
H	-3.4802082271	-0.5962641486	-0.840755855	 0.099703
H	-2.8143179622	 0.9749401967	-0.3384411986	 0.117792
H	-2.0989251839	-0.6748634581	-2.8138953439	 0.109915
H	-1.4376235576	 0.9440159142	-2.4900630819	 0.096223
H	-1.6255137117	-3.3116712501	-1.4548502704	 0.097866
H	-0.1798905422	-3.7862803091	-0.5361729734	 0.110738
H	-0.8214310158	-2.3789337648	 1.337227526	 0.111768
H	-2.4431021768	-2.5964487989	 0.6727545488	 0.109585
