19
gdb 50465	4.01701	0.93734	0.81405	0.2599	76.55	-0.2457	-0.0299	0.2158	1376.9786	0.159341	-423.07569	-423.067032	-423.066088	-423.109942	31.802	
O	-0.1731586599	-0.014426899	 0.0053790628	-0.245382
C	-0.0445352574	 1.1817270378	 0.0079412481	 0.147811
C	 1.2790473408	 1.918887182	-0.0002893323	-0.057271
C	 1.3812184978	 2.7965043171	-1.2644775889	-0.227383
C	 2.6872233625	 3.6147307095	-1.2884137459	-0.305603
C	 2.8854020856	 4.4111345654	-0.0055968026	 0.396195
O	 3.1666396535	 5.5861020408	-0.0043511657	-0.301797
C	 2.7074051931	 3.6071814124	 1.2754689153	-0.305603
C	 1.4011479655	 2.7890482458	 1.2672766295	-0.227386
H	-0.9357497481	 1.8551645188	 0.017051131	 0.072456
H	 2.0703183055	 1.1600985426	-0.0087573995	 0.09405
H	 1.3192338909	 2.1743188392	-2.1633021322	 0.119294
H	 0.52392544	 3.4822447432	-1.2970608995	 0.113593
H	 3.5381287274	 2.925851038	-1.3865164606	 0.122316
H	 2.7166276994	 4.3029334831	-2.1362922284	 0.124753
H	 3.5597179689	 2.9177759977	 1.3561068652	 0.122316
H	 2.7501843771	 4.2903806171	 2.1268173871	 0.124754
H	 0.5445058667	 3.4745452232	 1.3173888805	 0.113594
H	 1.3532919506	 2.1615809752	 2.163288786	 0.119293
