17
gdb 2469	4.20324	2.60118	2.41753	1.4434	62.94	-0.2569	0.0748	0.3318	658.3646	0.150618	-309.718089	-309.711866	-309.710922	-309.747687	25.05	
O	-0.5872501824	 1.1474119441	 0.7800718204	-0.426203
C	-0.0376617958	 0.0428823669	 0.0584532802	 0.095429
C	 0.8679576082	-0.8543787902	 0.9393622076	-0.236963
C	-0.0473674516	-1.9181206886	 1.5274623415	-0.023696
C	-1.3437275207	-1.4652714376	 2.1564392732	-0.283588
C	-1.3283036925	-1.9276745013	 0.7194350223	-0.026056
C	-1.2115604627	-0.8647517057	-0.3644869491	-0.210189
H	 0.1463986921	 1.6595667385	 1.1351915437	 0.27872
H	 0.5103980851	 0.4193912683	-0.8165611941	 0.064453
H	 1.6323282495	-1.3319299451	 0.3137810585	 0.096506
H	 1.398027683	-0.2590111502	 1.6936018754	 0.085565
H	 0.4008526679	-2.841090713	 1.8789977264	 0.075489
H	-1.7944912669	-2.1337434094	 2.8826152398	 0.10014
H	-1.4846884896	-0.4097173944	 2.3562457789	 0.129156
H	-1.8264862121	-2.8585747704	 0.4716820686	 0.075148
H	-2.1160962874	-0.2640602635	-0.5001692033	 0.111359
H	-0.9819340741	-1.3414888584	-1.3243055602	 0.09473
