16
gdb 5398	5.06018	1.56809	1.2063	1.2422	75.11	-0.2155	0.0034	0.219	976.7483	0.132764	-346.664711	-346.657855	-346.656911	-346.695744	26.352	
C	-0.0650180655	 1.3966738599	-0.0695983566	-0.24539
O	 0.0066002278	-0.0132182741	 0.0045879089	-0.264719
C	 0.6434559445	-0.5693212886	 1.0716459636	 0.410521
C	 1.2360481156	 0.1562017925	 2.1077597022	-0.257977
C	 1.8624371621	-0.5255704702	 3.1526649532	-0.089142
C	 1.9051013098	-1.9140408448	 3.1772546682	-0.127381
C	 1.3100704165	-2.6311940939	 2.1372855921	-0.085956
C	 0.683998333	-1.968750233	 1.0922330222	-0.194301
H	 0.9325744589	 1.8524629468	-0.1182181199	 0.123856
H	-0.6078799467	 1.625686944	-0.9882387944	 0.134315
H	-0.6081773568	 1.8217158313	 0.78458089	 0.123852
H	 1.2165798609	 1.2383331826	 2.112144532	 0.094167
H	 2.3201040553	 0.0468026023	 3.9532842091	 0.093346
H	 2.393956453	-2.4343923471	 3.9931382226	 0.090744
H	 1.3340992858	-3.7161844605	 2.1406129948	 0.094601
H	 0.2167470158	-2.5086068073	 0.2763854221	 0.099465
