19
gdb 72447	2.49416	2.17469	1.5641	1.4677	73.32	-0.2465	0.0891	0.3356	920.8806	0.161113	-423.026995	-423.01996	-423.019016	-423.057901	29.442	
C	 0.0539379261	 1.4753335869	 0.0115681359	-0.475961
C	-0.0347363479	-0.0262722827	 0.0247089686	 0.481909
O	 0.6505813986	-0.5821120916	-1.11372425	-0.30717
C	 1.0454747613	-1.8990006404	-0.6985219813	-0.082313
C	 0.4630514602	-1.9689438286	 0.7339438831	 0.005071
O	 0.6459767296	-0.60291264	 1.1331570636	-0.280355
C	-1.0548962027	-2.0848583097	 0.5876019326	-0.042074
C	-1.8943103934	-1.1582597258	 1.4274729198	-0.32059
C	-1.4120563399	-0.7019289122	 0.0745769195	-0.086798
H	 1.1003688613	 1.7871132586	 0.0362081933	 0.134983
H	-0.4081474031	 1.8639465956	-0.8992465288	 0.131142
H	-0.4694571253	 1.8908697554	 0.8759555754	 0.129849
H	 0.6238942978	-2.6565265261	-1.3686463055	 0.099587
H	 2.1389418519	-1.9739867606	-0.7053933324	 0.103417
H	 0.9661255382	-2.6389087019	 1.4306052587	 0.08703
H	-1.4778547036	-2.9860901089	 0.1606887469	 0.092157
H	-2.9472738212	-1.407512194	 1.5009135356	 0.110888
H	-1.4637439775	-0.7154691544	 2.3180592131	 0.124745
H	-2.0969110806	-0.5433173497	-0.748492928	 0.094484
