16
gdb 45756	3.10344	1.34569	0.98489	2.9298	70.26	-0.2233	-0.0104	0.2129	1145.5641	0.124754	-437.900409	-437.892524	-437.89158	-437.93367	29.144	
O	-0.2317719564	 0.0011319944	 0.1953505585	-0.368069
C	-0.1474371727	 1.203432585	 0.1047246568	 0.400058
N	-1.1974755592	 2.0949132301	-0.0089132209	-0.322858
C	-0.7419005336	 3.4221867846	-0.0602948176	-0.029488
C	 0.5916481765	 3.4805940244	-0.0022376797	-0.158499
C	 1.1329998768	 2.0745906208	 0.1013630919	-0.188898
C	 1.986382811	 1.7972878413	 1.3233528651	 0.098495
C	 2.9636143632	 0.706563476	 1.3378034727	-0.169154
O	 3.3813345215	 2.0704239412	 1.2007003313	-0.245581
H	-2.1600620152	 1.8015661665	-0.0172652295	 0.264394
H	-1.4618328986	 4.2238295411	-0.1438173991	 0.133553
H	 1.1967828838	 4.3733295679	-0.0268069908	 0.121053
H	 1.7245830589	 1.7994108786	-0.7811814808	 0.123281
H	 1.549184056	 2.1149130267	 2.270490402	 0.099361
H	 3.2263232263	 0.2292640461	 2.2798245045	 0.118679
H	 3.0827654317	 0.0867916055	 0.4513400957	 0.123673
