21
gdb 103745	2.51851	1.16756	0.92409	1.074	74.77	-0.2628	0.0706	0.3334	1333.2387	0.179152	-461.340837	-461.330076	-461.329132	-461.376757	39.102	
C	-0.0810278692	 1.5641604122	-0.0095248669	-0.468321
C	-0.2089651491	 0.0668923593	 0.2011501135	 0.293297
C	-1.4062242659	-0.5179027874	-0.5378400798	-0.127193
O	-1.219661941	-0.4025690915	-1.9403805399	-0.416236
O	 1.0022977825	-0.7010728321	-0.0068968728	-0.347677
C	 0.460795652	-0.6174523982	 1.3347420623	 0.293296
C	 1.3052213079	 0.1477254093	 2.3367456322	-0.46832
C	 0.0175059212	-1.9726335049	 1.8718644862	-0.127192
O	 1.1432717871	-2.8169566585	 2.0589368219	-0.416236
H	 0.9075404828	 1.9343098842	 0.2590661428	 0.128134
H	-0.26275181	 1.7905054836	-1.0635238015	 0.144082
H	-0.8298117852	 2.0981140419	 0.5859780935	 0.121222
H	-1.587398362	-1.5604297348	-0.2565179186	 0.093673
H	-2.3084312262	 0.0557028991	-0.2998816453	 0.112589
H	-0.3900794555	-0.8525424483	-2.1402116179	 0.29259
H	 1.8598690084	 0.9612422443	 1.8709395385	 0.128134
H	 0.6731537492	 0.5624071893	 3.1298012697	 0.121222
H	 2.0186256667	-0.540534605	 2.7977467001	 0.144082
H	-0.4423907897	-1.8509594744	 2.858432026	 0.112589
H	-0.7178793052	-2.4488868733	 1.2151909396	 0.093673
H	 1.5853167513	-2.8709510948	 1.2031935362	 0.29259
