20
gdb 6771	7.02246	0.70961	0.65759	1.9997	73.14	-0.2646	0.0203	0.2849	1737.1595	0.174494	-386.191656	-386.18146	-386.180516	-386.228541	34.198	
C	-0.0761551825	 1.552396738	 0.1032749558	-0.380725
C	-0.0414476678	 0.0266035683	-0.0170903374	-0.166654
C	-1.4351436722	-0.6070666104	 0.0573298628	-0.185855
C	-1.3863116757	-2.1211374141	-0.063385633	-0.059923
O	-2.7374009466	-2.6142313693	 0.0180791237	-0.241865
C	-2.8816924426	-3.9525924953	-0.0720689919	 0.425479
C	-4.3384682979	-4.339566736	 0.0269624027	-0.477714
O	-1.9602064685	-4.7166088545	-0.2122433977	-0.350556
H	 0.9299725495	 1.9788320261	 0.0471659199	 0.114455
H	-0.6732184485	 1.9990277928	-0.6993572527	 0.116248
H	-0.5181308788	 1.8640803826	 1.0560042583	 0.116247
H	 0.4371337717	-0.2556683418	-0.9639697913	 0.100431
H	 0.5910332477	-0.3895809003	 0.77792964	 0.10043
H	-1.9178257451	-0.3396991166	 1.0055280966	 0.104823
H	-2.0720924676	-0.2054647512	-0.7405169123	 0.104823
H	-0.9466259273	-2.4400768323	-1.0146322456	 0.118548
H	-0.7918534967	-2.5747490853	 0.7370969281	 0.118546
H	-4.9099717337	-3.8582074461	-0.7716964739	 0.148167
H	-4.4321730495	-5.4221256285	-0.0486330983	 0.146914
H	-4.754992418	-3.993770256	 0.9772862561	 0.148182
