21
gdb 84128	2.62798	1.34201	1.00462	2.0205	85.19	-0.2388	0.0191	0.2579	1256.2747	0.182381	-387.096022	-387.087043	-387.086099	-387.129881	34.859	
C	-0.176974618	 1.4736925934	 0.0155413196	-0.48593
C	-0.0130580091	-0.0126913686	-0.0277005819	 0.322741
C	-0.1891868738	-0.8156334905	-1.0798865016	-0.217996
C	 0.0672370681	-2.2687117718	-0.7776069005	 0.014466
O	 1.0220062553	-2.8671595625	-1.6540019026	-0.425995
C	 0.4777668239	-2.2419400804	 0.7148841465	 0.32159
C	 0.1529242941	-3.4053290071	 1.6149197367	-0.311646
C	 1.5777027091	-3.1562781656	 1.1953268984	-0.306595
C	 0.3730564077	-0.7946029098	 1.2090696262	-0.388085
H	 0.7509403869	 1.9631764739	 0.3381695657	 0.125699
H	-0.4568205386	 1.8794030149	-0.9602109506	 0.125378
H	-0.9477888659	 1.7648212481	 0.7404350707	 0.127632
H	-0.4784538889	-0.4902520405	-2.073902329	 0.089179
H	-0.8306748334	-2.8812762286	-0.9281054943	 0.087616
H	 1.8188588936	-2.3260115183	-1.6099776432	 0.271251
H	-0.1266946051	-3.1934024553	 2.642418017	 0.104359
H	-0.3631513883	-4.2550119236	 1.1780520468	 0.112266
H	 2.0144826938	-3.8280613461	 0.4650490776	 0.122721
H	 2.2715258479	-2.7705485405	 1.9358519035	 0.104318
H	 1.3102159953	-0.419619064	 1.6444220281	 0.100447
H	-0.3898060347	-0.6817621268	 1.992525937	 0.106583
