16
gdb 53746	5.05568	0.63587	0.58997	3.7573	76.78	-0.2559	-0.0242	0.2317	1808.5963	0.123187	-437.860705	-437.851035	-437.850091	-437.898812	32.081	
N	 0.899749444	 0.2691242579	-0.4948521466	-0.520518
C	-0.3649104003	 0.5778519458	-0.0850535171	 0.264874
O	-0.7117178181	 1.6991734358	 0.2315448697	-0.333221
C	-1.2721503259	-0.5618455189	-0.0652700894	 0.045879
C	-2.0749643346	-1.4613692185	-0.0211901465	 0.066103
C	-3.0507390295	-2.5259544416	 0.0166183545	-0.226181
C	-4.5331686969	-2.1983133673	-0.3253497578	-0.073446
O	-4.5876535822	-3.2739803371	-1.2803146279	-0.264681
C	-3.1682261146	-3.4862889149	-1.2024003971	-0.07383
H	 1.5890705557	 1.0027007406	-0.511015449	 0.267036
H	 1.1680407433	-0.6727105674	-0.71888811	 0.265611
H	-2.9681688904	-3.0788673204	 0.95655439	 0.121629
H	-5.257500709	-2.3243975575	 0.4855222445	 0.116503
H	-4.669796847	-1.2167615644	-0.7944857978	 0.11956
H	-2.6435475648	-3.1282240782	-2.0969413431	 0.110932
H	-2.9126932098	-4.5354675237	-1.0209659665	 0.11375
