11
gdb 131988	4.74925	1.1624	0.93438	4.4807	58.18	-0.2719	-0.1165	0.1553	1119.0153	0.065662	-521.901921	-521.894655	-521.893711	-521.934524	25.767	
N	 0.0128421114	 1.3254049749	 0.1390586429	-0.586616
C	-0.0042862431	-0.0294807056	 0.0421506063	 0.457581
N	-1.1137618926	-0.7487442104	-0.0058103116	-0.187156
O	-0.6300240317	-2.0720157393	-0.0303663878	-0.168054
C	 0.6831399121	-1.9622713885	-0.0052699	 0.559107
N	 1.1625370849	-0.7672467883	 0.0377481704	-0.338377
N	 1.4601719453	-3.2064867592	-0.0312296686	 0.341885
O	 0.8160066309	-4.2417790276	-0.0513189352	-0.323994
O	 2.6705436416	-3.0834692782	-0.0304314574	-0.317438
H	 0.8676537777	 1.7732600711	-0.1495106779	 0.282476
H	-0.8395022564	 1.8061275811	-0.1015319312	 0.280586
