18
gdb 123421	4.97684	0.92704	0.84146	6.2668	76.45	-0.246	0.0196	0.2656	1367.8438	0.149891	-398.127136	-398.119178	-398.118234	-398.161372	29.16	
C	-0.0368687265	 1.4799622312	-0.273769983	-0.210213
C	-0.0940018589	-0.02544188	-0.1411115615	 0.026658
C	-0.3044903724	-0.6680122258	 1.2068960413	-0.255854
C	-1.4086134954	-0.6887698444	 0.1802499262	-0.271045
N	 1.3053597685	 2.0230746144	-0.0890845564	 0.001093
C	 2.0124257456	 2.1670946301	 1.0717909186	 0.020701
N	 3.2050673678	 2.6529924533	 0.8395251541	-0.223179
N	 3.3088239361	 2.8393598772	-0.5255183625	-0.225139
C	 2.1733294211	 2.4580581021	-1.0509300173	 0.015496
H	-0.3744034105	 1.7936586272	-1.266554454	 0.131371
H	-0.7072785309	 1.9488091532	 0.455007591	 0.126056
H	 0.5609561271	-0.5514395567	-0.8297731077	 0.102522
H	 0.2228528423	-1.5901458936	 1.4214995991	 0.127228
H	-0.4319259586	-0.0205174115	 2.0687225499	 0.115759
H	-2.2706007469	-0.0521198214	 0.3519845909	 0.117806
H	-1.6421992035	-1.6247603761	-0.3135829747	 0.124456
H	 1.6122441438	 1.9093974667	 2.0398782738	 0.138224
H	 1.9206915414	 2.478452264	-2.1002397778	 0.138059
