23
gdb 79197	2.26051	1.86448	1.35445	0.0773	89.06	-0.2379	0.0885	0.3264	1083.788	0.207973	-351.115938	-351.107781	-351.106837	-351.148005	33.677	
C	-0.1115193056	 1.5949950517	 0.0016682773	-0.436037
C	 0.0883384702	 0.0789974308	 0.033480497	-0.078542
C	 1.2645243371	-0.7666727652	-0.4258752569	-0.096722
C	 2.7319136961	-0.3305294649	-0.2532199641	-0.039132
C	 3.1532654706	-1.2694444832	 0.9332850719	-0.209309
C	 2.1327180744	-0.3555625285	 1.7071571211	-0.083737
C	 2.6976774642	 0.7871433257	 0.8235332356	-0.239869
C	 0.8141472538	-0.8064226522	 1.033129521	 0.340778
C	 0.0857527721	-1.9615609416	 1.6805341584	-0.476236
H	 0.5317563976	 2.089723535	-0.7317629005	 0.126391
H	-1.145328862	 1.8191697781	-0.2793897415	 0.108489
H	 0.0617370129	 2.0649967254	 0.9738129651	 0.125183
H	-0.8313872051	-0.4251712503	-0.2615989587	 0.078953
H	 1.0699505148	-1.5906876369	-1.1063822816	 0.075327
H	 3.3355378904	-0.2337178829	-1.1565677307	 0.055616
H	 2.9193928311	-2.3340036934	 0.8443564671	 0.087843
H	 4.1903219011	-1.1327022249	 1.2537250252	 0.086767
H	 2.131005575	-0.2893192713	 2.7965452348	 0.053003
H	 3.7090670875	 1.0576803849	 1.1369907354	 0.091354
H	 2.1220906551	 1.6912810228	 0.6582735977	 0.093834
H	-0.4390669548	-1.6431779471	 2.5900780656	 0.112554
H	-0.6606977896	-2.3926083023	 1.0053478565	 0.110982
H	 0.7766227233	-2.7635994396	 1.9662932342	 0.112509
