23
gdb 120967	3.50599	0.92321	0.89086	0.7843	85.65	-0.2504	0.0846	0.335	1455.346	0.207032	-388.280315	-388.271214	-388.27027	-388.314543	34.474	
C	-0.3644759958	 1.2863706781	 0.5293388261	-0.227508
O	-0.1660701327	-0.0653239256	 0.196407293	-0.22934
C	-1.3726438574	-0.7909121796	 0.0877124286	-0.067199
C	-1.0379925061	-2.2414922662	-0.2565854235	-0.007934
C	-0.2217379925	-2.9700669982	 0.8523684858	-0.229569
C	-1.1670751888	-3.9625336113	 1.5137811694	-0.018617
C	-2.4698684235	-3.445638177	 2.0731479817	-0.290235
C	-2.432895145	-4.0509023203	 0.691493085	-0.016289
C	-2.3078088919	-3.1111501791	-0.4998878806	-0.252647
H	 0.6194260666	 1.7584877422	 0.5887396875	 0.125492
H	-0.9647419647	 1.8120887305	-0.2307121108	 0.101614
H	-0.871665222	 1.3997481786	 1.5010475377	 0.102072
H	-1.9426500137	-0.718074768	 1.0297549406	 0.084902
H	-2.0080302289	-0.3558263661	-0.7035453932	 0.082205
H	-0.4414092618	-2.1922652975	-1.1726526064	 0.08276
H	 0.614586588	-3.5163956832	 0.4030039427	 0.0948
H	 0.2157316438	-2.2510876368	 1.5523513249	 0.108001
H	-0.7372496641	-4.846811505	 1.9721978667	 0.076278
H	-2.9389338024	-4.0318152344	 2.8566121301	 0.105835
H	-2.616927241	-2.3761485247	 2.1837443239	 0.107063
H	-2.9385204252	-4.9983899093	 0.5391483441	 0.076593
H	-3.2020430563	-2.492019165	-0.6446623487	 0.093373
H	-2.1880348845	-3.702376002	-1.4140651747	 0.098349
