20
gdb 83397	2.58436	1.33085	1.13137	3.3007	80.32	-0.2387	0.0267	0.2654	1183.0698	0.171279	-403.163952	-403.154865	-403.153921	-403.197595	34.668	
C	-0.0349232163	 1.4968300186	-0.1739262415	-0.42396
C	 0.1195357462	-0.0000693927	-0.0143349267	-0.038117
C	 1.396656862	-0.7639931653	-0.1238827987	-0.102813
C	 2.5883632578	-0.0047286799	 0.4732081978	-0.230282
C	 1.8392529029	 0.0930814189	 1.8409817233	-0.331298
C	 0.6533923422	-0.6770280269	 1.2349254218	 0.239619
C	-0.1410366867	-1.7726861718	 1.8521156495	 0.293468
N	 0.0278712517	-1.9281789717	 3.2047939953	-0.539682
O	-0.8691482438	-2.5042623966	 1.2024105345	-0.376353
H	 0.8056545274	 2.0575988176	 0.2426865312	 0.11768
H	-0.112728329	 1.7609406564	-1.2342280889	 0.122215
H	-0.9459585821	 1.8473133088	 0.3225863692	 0.120865
H	-0.7160512081	-0.5764206249	-0.4038424394	 0.118283
H	 1.4700018762	-1.6466239392	-0.7478046906	 0.102688
H	 3.4864625669	-0.6211289138	 0.5423300792	 0.109123
H	 2.8549827168	 0.9385184426	-0.0131275531	 0.10195
H	 2.3538818506	-0.4739315451	 2.6205905099	 0.10566
H	 1.6280285885	 1.0970993072	 2.2235486036	 0.097223
H	 0.444278729	-1.2011339457	 3.7607894634	 0.256265
H	-0.5953456424	-2.5718457767	 3.6659742702	 0.257466
