15
gdb 51405	4.34566	0.97753	0.88199	3.7962	69.2	-0.2497	-0.0166	0.233	1263.4396	0.11334	-453.905174	-453.897517	-453.896572	-453.938261	28.121	
O	-0.166813179	-0.0139848579	 0.315953653	-0.321484
C	-0.0530602457	 1.167745393	 0.0717191014	 0.152692
N	 1.1232456139	 1.812673683	-0.1666656671	-0.302023
C	 2.3875644904	 1.1423546886	-0.1549649854	 0.105166
C	 3.3896189548	 1.4991446233	-1.299544316	-0.192648
N	 3.5222455434	 2.8622202237	-0.6084102124	-0.342277
C	 3.5692559115	 1.8712188353	 0.561593598	-0.192834
C	 4.5163601621	 1.0511095708	-0.3423374129	 0.456072
O	 5.6028531746	 0.5658956901	-0.3501879362	-0.313947
H	-0.9143137906	 1.8614121826	 0.016150032	 0.081772
H	 1.1264987982	 2.8013884061	-0.3638973684	 0.264573
H	 2.2304460748	 0.0899441385	 0.0704678695	 0.140455
H	 3.2638118345	 1.4051038811	-2.3758961634	 0.111946
H	 4.4398163616	 3.2809428973	-0.780678967	 0.240611
H	 3.6472318654	 2.1991254245	 1.5958127648	 0.111927
