18
gdb 22919	2.08623	1.66997	1.03543	1.9368	70.45	-0.2562	-0.0145	0.2417	1147.8664	0.147157	-476.186564	-476.177626	-476.176681	-476.220089	33.85	
O	-0.0418715719	 1.2733100859	-0.1075743233	-0.405898
N	 0.0142416195	-0.137438395	-0.0532223102	-0.244579
C	-1.1418506677	-0.6490352177	 0.0585757328	 0.350562
C	-2.500032656	 0.0417198678	 0.0335553768	 0.04183
O	-2.6446809891	 0.8030649153	-1.1575995416	-0.438972
C	-3.4891188105	-1.1395245239	-0.0070156735	-0.235276
C	-2.6878980147	-2.3125828699	-0.6057462831	-0.237927
C	-1.3045118661	-2.1551088067	 0.0491460251	 0.084321
O	-0.2782904341	-2.8550556946	-0.6087791639	-0.443719
H	 0.8802953136	 1.5170924865	-0.2414339865	 0.313442
H	-2.6412047581	 0.6760086601	 0.9198707882	 0.086118
H	-1.8960018044	 1.4121665859	-1.1834295289	 0.297073
H	-3.8141430955	-1.3807744392	 1.0109616684	 0.103646
H	-4.3741251841	-0.8732853203	-0.587660423	 0.122439
H	-3.1345832715	-3.2908123032	-0.4161727394	 0.105541
H	-2.5729155962	-2.1889556513	-1.6873052351	 0.124764
H	-1.3786274725	-2.4933594264	 1.0999519769	 0.085086
H	 0.4999289393	-2.2843777132	-0.6023836297	 0.29155
