18
gdb 77136	2.64636	1.25638	0.94868	0.5868	74.04	-0.2534	-0.0302	0.2233	1255.3602	0.145162	-439.109324	-439.099821	-439.098877	-439.144667	33.676	
C	-0.5827499132	 0.9038972575	 0.9431378406	-0.409939
C	 0.1029743795	-0.3176157149	 0.347924176	-0.137975
C	 0.3348256113	-0.3640469498	-1.1918093194	 0.023662
O	 1.7762981795	-0.4658495909	-0.9720965206	-0.266445
C	 1.6186866593	-0.3707145266	 0.4006789182	 0.431893
N	 2.4679865313	-0.3261581794	 1.3187781785	-0.538394
C	-0.286038517	-1.5398700484	-1.9309424354	 0.351448
C	 0.5474834875	-2.7900388696	-2.0887457989	-0.48311
O	-1.4207876514	-1.4336775377	-2.3351046411	-0.299058
H	-0.1413307991	 1.829647799	 0.5620213763	 0.128773
H	-1.6493915731	 0.9036841372	 0.7010165593	 0.13602
H	-0.4741605845	 0.9009272836	 2.0310767198	 0.145715
H	-0.3490710983	-1.2379639979	 0.7306086043	 0.117223
H	 0.0826598358	 0.5658266877	-1.7083318093	 0.11915
H	 3.4217359544	-0.3698361133	 0.9561064593	 0.231976
H	 1.4546774693	-2.5645406207	-2.6589615631	 0.157506
H	 0.8845283631	-3.1554059071	-1.1122285904	 0.147683
H	-0.0384826843	-3.5577324687	-2.5944901441	 0.143873
