17
gdb 53036	5.38916	0.912	0.87004	1.7737	84.22	-0.2182	0.0256	0.2438	1384.2659	0.134984	-384.597599	-384.589452	-384.588508	-384.631989	30.177	
C	 0.0362501668	 1.378982087	 0.0048470895	-0.515522
C	 0.0259687106	-0.074860618	-0.0145066348	 0.344657
C	 0.0238962147	-1.2801967944	-0.0250263271	-0.27993
C	 0.0211018063	-2.6970467872	-0.0389026029	 0.397895
O	 1.1182661137	-3.4489576729	 0.5037239778	-0.340141
C	 0.5415612068	-4.6132270935	-0.1475709521	 0.039346
C	-0.7399684066	-4.8967581317	 0.6797918418	-0.234761
C	-1.250454992	-3.5865819743	 0.0832614855	-0.167499
C	-0.3098736009	-3.7011717968	-1.1055948984	-0.21032
H	 0.6894177675	 1.7503438029	 0.8022769533	 0.156688
H	 0.399350918	 1.7937783987	-0.942082683	 0.150164
H	-0.9663985692	 1.7819714681	 0.1858423136	 0.150569
H	 1.2740491288	-5.3741527821	-0.4055216505	 0.090231
H	-1.295784638	-5.752417464	 0.2872040465	 0.105645
H	-0.6103251304	-4.9790176701	 1.7628461508	 0.105783
H	-2.2396495125	-3.1498841505	 0.1184825181	 0.100444
H	-0.4413678435	-3.6170115712	-2.1750611982	 0.106749
