18
gdb 109615	2.68253	1.08534	0.97705	4.6963	74.29	-0.2568	0.0103	0.2671	1291.7127	0.145394	-439.075293	-439.065503	-439.064559	-439.109993	35.632	
C	-0.3270346654	 1.4007837892	 0.0899197563	-0.381317
C	 0.2954755662	 0.0161575542	-0.1265838657	-0.196378
C	 0.8913234383	-0.549770051	 1.1463242411	-0.108946
C	 0.049873956	-1.1917487315	 2.2079431413	 0.00701
O	-1.3121202657	-1.3566970278	 1.9300251946	-0.418221
C	 0.9766625558	-2.0674838735	 1.3552546809	 0.208824
O	 0.3565629238	-2.9072868004	 0.4350875028	-0.455985
C	 2.1605808761	-2.6242750125	 1.9584027245	 0.267988
N	 3.1155042159	-3.0323745341	 2.4687459461	-0.345901
H	 0.4107426318	 2.115920879	 0.4694589036	 0.115905
H	-0.7237848333	 1.7984135417	-0.8489701669	 0.117875
H	-1.1483876815	 1.3490165568	 0.8107569326	 0.12958
H	-0.4542840936	-0.6736111667	-0.5200514354	 0.11304
H	 1.0876364755	 0.0723474561	-0.8819288316	 0.112252
H	 1.7392015696	 0.0044160814	 1.5409232347	 0.114286
H	 0.2989164488	-1.0257331448	 3.2522204775	 0.120812
H	-1.7005276561	-1.8885065767	 2.6332907356	 0.30671
H	-0.5908279222	-2.8674226995	 0.6341729679	 0.292466
