21
gdb 61165	3.11854	0.98047	0.88699	1.691	81.05	-0.2579	0.0404	0.2983	1399.683	0.178555	-424.201646	-424.190999	-424.190054	-424.236595	40.538	
C	-0.1494074778	 1.5333099184	 0.1820394465	-0.418861
C	-0.0351756221	 0.0138289343	 0.0640112781	 0.36743
C	 0.6880554221	-0.564483569	 1.292019514	-0.426462
O	-1.3682433274	-0.4905179779	-0.0019427035	-0.474065
C	 0.7090632847	-0.4202020802	-1.2243820326	 0.110267
O	 0.609215662	-1.8391153213	-1.2554508624	-0.455493
C	 0.0921961618	 0.1904379486	-2.5056486685	-0.387037
C	 0.6141374026	-0.4560472218	-3.7029977961	 0.244568
C	 1.0716083062	-1.0479136608	-4.6458822823	-0.406887
H	 0.836369769	 2.0067804044	 0.1343356848	 0.112062
H	-0.7805692871	 1.9466834396	-0.607851576	 0.124527
H	-0.606455049	 1.7924886628	 1.1408822945	 0.124135
H	 0.1081520712	-0.3437292294	 2.1921678173	 0.117454
H	 0.7979688716	-1.6473001715	 1.1999739421	 0.130229
H	 1.6867578144	-0.1292356256	 1.4062464516	 0.106169
H	-1.2778990193	-1.4215800411	-0.2451088087	 0.284052
H	 1.7643870706	-0.1139387682	-1.1573789052	 0.072695
H	 0.8555723253	-2.130457256	-2.1425827126	 0.29044
H	-0.9955125265	 0.0685225628	-2.4511035484	 0.14874
H	 0.3011976759	 1.2645356365	-2.5446019063	 0.13555
H	 1.4617058018	-1.5371588845	-5.5040776962	 0.200488
