21
gdb 73124	2.36675	1.78958	1.54652	1.4179	80.35	-0.2266	0.0834	0.31	1005.6189	0.183696	-387.071393	-387.06362	-387.062676	-387.103147	32.003	
C	 0.1840918087	 1.5432689884	-0.1698467775	-0.482944
C	-0.0690765004	 0.0494324869	-0.0061676478	 0.326752
C	-1.4257266697	-0.3564709344	 0.6572754623	-0.283392
C	-0.6624839916	-1.2223165788	 1.702018795	-0.250705
C	 0.6893883454	-0.6900003399	 1.1484141051	 0.080631
O	 1.5966122787	-1.633664368	 0.5951145968	-0.268607
C	 1.4168578077	-1.7055972547	-0.7960169042	 0.111355
C	 0.1103923546	-2.2283919091	-1.3272185779	-0.347382
C	 0.3620434466	-0.7306094661	-1.2457438093	-0.12472
H	 1.2176344416	 1.7370471234	-0.4783020418	 0.12007
H	-0.4791303988	 1.9757770465	-0.9279366385	 0.116748
H	 0.0075119665	 2.0790329736	 0.7687257437	 0.111427
H	-1.9486483794	 0.4947587063	 1.1011510617	 0.096852
H	-2.1264958893	-0.8864655372	 0.008599865	 0.101354
H	-0.8598456405	-0.9811023732	 2.7492635327	 0.097931
H	-0.7703487423	-2.301326404	 1.5737993796	 0.110176
H	 1.2437535695	-0.0608944299	 1.8527315979	 0.074255
H	 2.3468194807	-1.8836237208	-1.3246690785	 0.096124
H	 0.1139329553	-2.667627782	-2.3197677494	 0.111489
H	-0.5835896718	-2.6958288967	-0.6381672734	 0.117849
H	 0.4637703583	-0.1802155904	-2.1745667314	 0.084735
