25
gdb 86334	1.90896	1.52331	0.94817	0.0648	92.79	-0.2584	0.0826	0.3409	1361.2207	0.229007	-352.340425	-352.330596	-352.329652	-352.374938	38.022	
C	-1.0286963696	 0.5496481337	-1.3461083456	-0.408715
C	 0.1532331124	-0.3292786062	-0.964454446	 0.040139
C	 1.5592774478	-0.0049438085	-1.5359729419	-0.24647
C	 2.1780080174	-0.4577600951	-0.1865596459	 0.040138
C	 3.4002005077	 0.2686123074	 0.3554346042	-0.408715
C	 0.768599015	-0.2687726918	 0.4784993129	-0.040036
C	 0.5656409974	 1.0303010306	 1.2213391406	 0.050017
C	-0.5983469866	 1.1861453392	 2.1702381252	-0.279092
C	 0.8071316782	 1.0969505682	 2.710233167	-0.279093
H	-0.8306512472	 1.6066166601	-1.1422425662	 0.110554
H	-1.2498267804	 0.4549171802	-2.4154642053	 0.108132
H	-1.9328865968	 0.2701905307	-0.7943359828	 0.112547
H	-0.0898894488	-1.3743595424	-1.1893117813	 0.066475
H	 1.8764609096	-0.5206656033	-2.4467468528	 0.08765
H	 1.6869599019	 1.0731666821	-1.690250157	 0.089839
H	 2.3919689159	-1.53184502	-0.2358110701	 0.066475
H	 3.2347698813	 1.3486477894	 0.4196342589	 0.110553
H	 3.6673224764	-0.0851591602	 1.3572334447	 0.112548
H	 4.2661604367	 0.1048850052	-0.2962563351	 0.108132
H	 0.46328808	-1.089910903	 1.1375684617	 0.04928
H	 0.8339748593	 1.9287393155	 0.6713383313	 0.077603
H	-1.1078494295	 2.1425165986	 2.2135602393	 0.107596
H	-1.2508369596	 0.3306930237	 2.3130348586	 0.108424
H	 1.0982319217	 0.1816189257	 3.2155659278	 0.108424
H	 1.2589517496	 1.9923169801	 3.1228993678	 0.107596
