14
gdb 23737	3.32962	2.2086	1.33876	2.3412	66.28	-0.2538	-0.0257	0.2281	855.2033	0.108144	-386.752809	-386.746076	-386.745132	-386.783901	24.968	
C	-0.02815501	 1.5293044015	 0.0286513421	-0.498276
C	-0.0061017223	 0.0269046614	-0.015077642	 0.167489
C	-0.0354813796	-0.7141902891	-1.1958433558	-0.185608
C	-0.0117432939	-2.1057024263	-1.1443479815	 0.004922
N	 0.0387547868	-2.8033904952	-0.0074609047	-0.267868
C	 0.0673881953	-2.1084975609	 1.1314245509	-0.08888
C	 0.0464728138	-0.7222703776	 1.1575241121	 0.186711
F	 0.0773642613	-0.0853297746	 2.3352502131	-0.076093
H	 0.8631765182	 1.9210934667	 0.5296491898	 0.147006
H	-0.0717786301	 1.9496363646	-0.9782881337	 0.129596
H	-0.892065188	 1.893475827	 0.59429881	 0.146994
H	-0.0768409599	-0.2048023768	-2.1534062257	 0.102562
H	-0.034558297	-2.6859151783	-2.0631528637	 0.110399
H	 0.1085724355	-2.6610986024	 2.0665103291	 0.121045
