11
gdb 130615	3.09457	1.4984	1.00957	3.8522	66.62	-0.2827	-0.0981	0.1846	1037.432	0.06633	-451.542333	-451.535384	-451.534439	-451.574159	25.028	
O	-0.0265541988	-0.0150803477	-0.2277913061	-0.317179
C	 0.0062496028	 1.1834337552	-0.043421786	 0.293464
C	-1.224872127	 1.9800957094	 0.181724342	-0.023292
N	-1.32077468	 3.243427814	 0.3858036534	-0.044518
O	-0.1207989187	 3.9662030084	 0.3985998048	-0.217979
C	 1.0448925539	 3.3557601929	 0.2070874929	 0.086155
C	 1.2040231057	 2.0249647709	-0.0126787377	-0.065986
C	 2.5024570404	 1.4755048836	-0.2059797961	 0.23908
N	 3.5605173249	 1.0343608288	-0.3624654119	-0.312577
H	-2.174104971	 1.4503611004	 0.1780247889	 0.176781
H	 1.8655745579	 4.0639187542	 0.2487845957	 0.186051
