25
gdb 114119	3.75826	0.86048	0.78914	0.2713	93.51	-0.2403	0.0871	0.3274	1617.4612	0.22861	-352.342268	-352.332243	-352.331299	-352.377194	38.242	
C	 0.0571008055	 1.5547822763	 0.058512396	-0.377154
C	 0.0546365213	 0.0284176611	 0.1923098342	-0.191701
C	-1.3360339952	-0.5803144707	 0.0294893031	 0.051484
C	-2.0324323005	-0.5566055009	-1.3779089617	-0.317268
C	-2.2332965602	-2.0809484969	-1.2910049273	 0.402866
C	-3.4732650807	-2.8065470749	-1.7374706847	-0.297066
C	-3.6108029598	-2.8728310202	-3.2650902111	-0.37128
C	-0.8871647655	-2.7415673959	-1.1744346898	-0.327929
C	-1.4949333315	-2.1078204648	 0.0516696975	-0.151481
H	 1.0645598091	 1.9656523575	 0.1773464184	 0.109489
H	-0.3156838433	 1.867751334	-0.9229989009	 0.116858
H	-0.5835740236	 2.0192682353	 0.8167543996	 0.111104
H	 0.7382839968	-0.4052043251	-0.5480455026	 0.092343
H	 0.4527070763	-0.2554977272	 1.1757221841	 0.092255
H	-2.0078939497	-0.1286843211	 0.7684488915	 0.066482
H	-2.9700746541	 0.0056744935	-1.376344134	 0.096152
H	-1.4208147084	-0.2053195259	-2.216893448	 0.088506
H	-3.4642184572	-3.8238787153	-1.3255486711	 0.092997
H	-4.3588514563	-2.3126342067	-1.3142241465	 0.091698
H	-3.643418895	-1.8690286288	-3.7022344022	 0.117093
H	-2.7622219526	-3.4009487546	-3.7122089751	 0.117106
H	-4.5274788183	-3.3937902343	-3.5589159386	 0.108229
H	-0.9039104185	-3.8277455985	-1.1776615194	 0.104007
H	-0.0077264152	-2.3164278528	-1.6529638254	 0.099844
H	-1.7151757838	-2.6984095031	 0.934751024	 0.075365
