17
gdb 93083	2.24735	1.58846	0.9706	2.041	71.76	-0.2438	-0.0244	0.2194	1160.2135	0.137755	-455.181531	-455.173289	-455.172345	-455.214849	30.718	
O	-0.1126736541	 1.4288035144	 0.0328369311	-0.425358
C	 0.0104786681	 0.0130513368	-0.0301488014	 0.071839
C	 0.9203389247	-0.4720073599	 1.10606487	-0.174802
N	 1.223259685	-1.8802309069	 1.2260546163	-0.237828
C	 0.542535417	-2.8327526659	 0.7513585413	 0.101973
N	-0.6456869744	-2.8964874827	 0.0133977604	-0.330238
C	-1.605481246	-1.9590460799	-0.3588463283	 0.38576
O	-2.5661116603	-2.3290340104	-0.9995203246	-0.341233
C	-1.4157459792	-0.5242019689	 0.0763356668	-0.303738
H	 0.7689802028	 1.8103573439	-0.0342874918	 0.287333
H	 0.4401607349	-0.2911412334	-0.9987441843	 0.081974
H	 1.8839103397	 0.049873133	 1.0170827961	 0.10013
H	 0.487217623	-0.124884699	 2.0551915586	 0.125034
H	 0.9178237325	-3.8441423275	 0.9243564268	 0.118577
H	-0.9082898143	-3.8244820635	-0.2929549079	 0.257312
H	-1.765636108	-0.424300854	 1.1120969367	 0.134679
H	-2.0787086713	 0.076790684	-0.547593316	 0.148586
