15
gdb 24226	3.9631	1.67242	1.28498	2.9539	69.79	-0.217	-0.0018	0.2153	932.0687	0.116254	-416.796959	-416.790863	-416.789919	-416.827357	24.54	
C	 0.0266427352	 1.4525818503	 0.007517817	-0.243688
C	 1.2740782367	 0.6499221168	 0.0621269905	-0.017695
C	 1.9676676113	 0.3615288795	 1.4241243013	-0.384247
C	 0.8491433503	-0.3859809899	 2.0654797562	 0.284547
C	-0.2136654253	-0.562794543	 1.2614479795	 0.271629
N	-1.2138086378	-1.2458565725	 1.9186634287	-0.335124
C	-0.6919807445	-1.4440530992	 3.0926358817	 0.037933
O	 0.5715399379	-0.9479983554	 3.2739099003	-0.195108
N	-0.0700682359	-0.0273927006	-0.0465336006	-0.185791
H	-0.3188066295	 1.936932995	 0.9173381641	 0.124056
H	-0.2389531948	 1.9587970947	-0.9158166587	 0.125847
H	 1.8885454633	 0.5836485815	-0.828796968	 0.107803
H	 2.8733355606	-0.2394347282	 1.2777660061	 0.128723
H	 2.2645097645	 1.2777204165	 1.9474387071	 0.130497
H	-1.126094002	-1.9541252855	 3.9376511149	 0.150616
