16
gdb 124983	3.03036	1.1372	0.88233	3.2261	72.61	-0.2504	-0.0446	0.2057	1272.697	0.12368	-434.08186	-434.072962	-434.072017	-434.118034	30.207	
C	-0.2267989338	 1.5340797638	 0.2441129347	-0.495935
C	-0.0475715555	 0.0653003812	 0.0415277404	 0.219527
C	 0.0682715234	-0.663726037	-1.1250321972	 0.240483
C	 0.078401617	-0.2975348247	-2.5749547511	-0.387483
C	 1.4602383512	-0.5384276222	-3.1755213544	 0.156876
O	 1.6927116957	-1.3704047664	-4.0116016822	-0.229849
N	 0.218667154	-1.9429154434	-0.684916179	-0.223
N	 0.1880006902	-2.0153137965	 0.6554581094	-0.114362
N	 0.0274291405	-0.8017126012	 1.0961743839	-0.242937
H	 0.7202492758	 2.0260182405	 0.4926391024	 0.141956
H	-0.6291633608	 2.0176797182	-0.6506327925	 0.122338
H	-0.916179595	 1.7169055863	 1.0721995014	 0.152707
H	-0.6507944778	-0.8758517336	-3.1512476214	 0.138991
H	-0.1654656462	 0.766247191	-2.6710132609	 0.139325
H	 2.2625607866	 0.1037041716	-2.7503165554	 0.094487
H	 0.3306705645	-2.7867879278	-1.2259668782	 0.286876
