13
gdb 132833	3.04518	1.5308	1.0187	2.8461	77.78	-0.246	-0.0524	0.1936	1064.2831	0.089602	-423.60756	-423.600465	-423.599521	-423.639195	27.055	
F	-0.007969899	 0.0588360065	 0.0040653723	-0.047444
C	-0.0221007909	 1.3844605385	 0.0108972941	 0.277378
N	-1.2009511595	 1.9529318667	 0.0289048393	-0.314851
C	-1.2387662787	 3.2913264636	 0.0361291232	 0.002335
C	-0.0973747678	 4.0838655062	 0.0254558308	-0.119101
C	 1.1428594474	 3.4563562259	 0.0063743889	-0.153542
C	 1.2133696744	 2.0586110221	-0.0015649336	-0.041724
C	 2.446475818	 1.3548488748	-0.0209303348	 0.238297
C	 3.5011114676	 0.7751692923	-0.037348558	-0.404126
H	-2.2283445892	 3.7393206316	 0.0510977175	 0.124578
H	-0.1774823917	 5.1641169152	 0.0319208099	 0.112224
H	 2.0632303774	 4.0287437331	-0.002564097	 0.124904
H	 4.4258445121	 0.2527919734	-0.0517445025	 0.201072
