17
gdb 30950	2.40712	1.31772	0.89964	3.7758	72.13	-0.1852	0.044	0.2291	1274.7091	0.135573	-455.205937	-455.196555	-455.195611	-455.240278	33.908	
C	-0.2772883078	 1.556024781	-0.0626642873	-0.36904
C	 0.1280701117	 0.0748831577	 0.0451874929	-0.305935
C	 0.8297757453	-0.44868213	-1.1607418016	 0.241475
C	 2.0893353194	-0.9046067309	-1.3145707094	 0.234993
O	 3.1081566316	-0.9607685396	-0.417848682	-0.426593
N	 2.2583931181	-1.3087915847	-2.6439083604	-0.397303
C	 1.1011232042	-1.0595166263	-3.381013424	 0.435222
O	 0.9094547025	-1.2398801504	-4.5670993749	-0.430692
N	 0.2278675053	-0.5584743186	-2.4284618766	-0.408482
H	 0.6020497159	 2.1893693874	-0.2106551381	 0.129226
H	-0.9557289944	 1.7273669724	-0.9050989429	 0.113739
H	-0.7896588289	 1.8836260735	 0.8468847122	 0.117589
H	 0.7987479185	-0.0621193798	 0.8989480786	 0.122529
H	-0.7667308725	-0.5297244637	 0.2502302563	 0.107981
H	 3.2711548051	-1.8791203814	-0.1683279835	 0.305123
H	 3.1359559983	-1.5263060209	-3.0831095232	 0.266596
H	-0.6994292722	-0.2589157557	-2.6724876262	 0.263571
