14
gdb 27601	3.41854	1.20742	0.89227	3.6732	79.53	-0.2455	-0.0515	0.1941	1197.87	0.103272	-399.636129	-399.628911	-399.627966	-399.667819	27.788	
O	 0.1006371718	 1.3582260439	 0.1176828328	-0.43469
C	 0.0683611798	 0.0027194142	 0.035764672	 0.421241
C	 0.0702791583	-0.6777643208	-1.1793408433	-0.363266
C	 0.0357839216	-2.0784678152	-1.189969831	 0.218185
C	-0.000543284	-2.7980947768	 0.0094111828	-0.219859
C	-0.0019099949	-2.1015487195	 1.214167556	-0.080458
C	 0.032107949	-0.7132591762	 1.2362080837	-0.190281
C	 0.0379844703	-2.7710105668	-2.4421944708	 0.208543
N	 0.0398445088	-3.3289876198	-3.4566064604	-0.333821
H	 0.1237441103	 1.7351046099	-0.7684053684	 0.304114
H	 0.0982191415	-0.1339639797	-2.1181884349	 0.112869
H	-0.0269903463	-3.8801350915	-0.011681539	 0.123224
H	-0.0299077589	-2.649048582	 2.1498179448	 0.114564
H	 0.0313192028	-0.1627666997	 2.1698377857	 0.119637
