23
gdb 106975	3.81355	1.04622	0.93478	0.2257	91.83	-0.2152	0.0317	0.2469	1385.1842	0.205803	-351.171495	-351.162209	-351.161265	-351.205179	36.105	
C	 0.0541915043	 1.4819372626	 0.3439996308	-0.373995
C	-0.0268154101	 0.0193985719	-0.1130029484	-0.277827
C	-1.4407914004	-0.5199412832	-0.1488435602	 0.382411
C	-2.0518689205	-1.0697655187	 1.1168387804	-0.322993
C	-1.7498704672	-2.0052774141	-0.0416211303	-0.199373
C	-2.9015444785	-2.2643677747	-0.9620222169	 0.346845
C	-3.5058344534	-3.6252529523	-1.1109982446	-0.49596
C	-3.2887642959	-1.1305044806	-1.5575697635	-0.191189
C	-2.4223874257	 0.0512756501	-1.1831695592	-0.330527
H	 1.0906546906	 1.833168813	 0.3644519402	 0.107995
H	-0.5059883085	 2.1403288997	-0.3283929856	 0.117616
H	-0.3636382522	 1.6022461634	 1.3490803734	 0.116312
H	 0.4225515883	-0.0758532656	-1.1109376244	 0.093294
H	 0.5795473109	-0.6041762109	 0.5558537669	 0.090591
H	-1.4037867124	-1.1259025818	 1.9867862636	 0.102308
H	-3.0946631043	-0.8660675498	 1.3406458048	 0.105038
H	-0.9690410358	-2.7507887248	 0.0779944716	 0.075742
H	-3.8719137376	-4.0055381606	-0.1488773749	 0.125789
H	-4.3402966104	-3.6206611534	-1.8175769655	 0.120877
H	-2.7633412678	-4.3503256298	-1.4685095705	 0.122905
H	-4.139804678	-1.0412484545	-2.2247022523	 0.080965
H	-3.0095692335	 0.8888549312	-0.7842361212	 0.10472
H	-1.8836805019	 0.4467637329	-2.057346404	 0.098456
