21
gdb 91156	2.20286	1.8376	1.28565	1.6677	82.47	-0.2384	0.0126	0.251	1068.6747	0.184215	-387.086063	-387.077877	-387.076933	-387.118509	32.966	
C	 0.5171504976	 1.4831522792	-0.5384655505	-0.432831
C	 0.0931337697	 0.1086767611	-0.0245136477	 0.037426
C	 0.4487244145	-1.0846620931	-0.9669630523	-0.246816
C	 1.3842736812	-1.6634766567	 0.1323969694	-0.05667
C	 2.8466466236	-1.3264740629	-0.0051274059	-0.077914
C	 3.2481028774	-0.4190781526	 0.8852156554	-0.125849
C	 2.1313856492	 0.0282517581	 1.8086546827	 0.093426
O	 2.0950181194	 1.4259009083	 2.0671772351	-0.436383
C	 0.8725744052	-0.598249694	 1.1517868061	-0.069899
H	 1.5793590043	 1.508738041	-0.8074846606	 0.114376
H	-0.0434126186	 1.7243932558	-1.4491726799	 0.113525
H	 0.3133994943	 2.2726300061	 0.1916225215	 0.125894
H	-0.9762656063	 0.149743916	 0.2018912127	 0.075383
H	-0.4032444032	-1.7284122444	-1.2003371062	 0.096337
H	 0.9398210368	-0.8094637287	-1.9057578725	 0.092179
H	 1.2265903397	-2.7193156488	 0.3754485461	 0.072863
H	 3.4807495373	-1.7926760243	-0.7533225532	 0.094102
H	 4.2565904233	-0.033251409	 0.9933991335	 0.096158
H	 2.2733162946	-0.4100148556	 2.8060973736	 0.09034
H	 2.1399173173	 1.8824188341	 1.222349792	 0.278589
H	 0.1787386526	-0.9717858296	 1.9065797205	 0.065765
