23
gdb 121151	3.1796	0.90228	0.77903	1.5843	86.74	-0.2387	0.0771	0.3158	1584.852	0.204827	-388.264074	-388.25432	-388.253375	-388.299317	36.154	
C	 0.0748957458	 1.5247981426	 0.278186881	-0.382474
C	-0.00566978	 0.0065882555	 0.1017981948	-0.164573
C	-1.438087619	-0.4977821918	-0.11123669	-0.184504
C	-1.5095968108	-2.0092637298	-0.2433059932	 0.069637
O	-1.0751365214	-2.692571287	 0.9648758049	-0.300816
C	-2.3239242041	-3.4068537702	 1.0841396835	-0.134698
C	-2.8729177641	-2.7003841601	-0.1490489049	 0.292049
C	-4.2388800531	-2.1255179693	-0.3649211868	-0.323208
C	-3.7320085719	-3.2493556983	-1.2428639306	-0.325969
H	 1.107323449	 1.853769778	 0.4326490797	 0.111577
H	-0.3133983469	 2.0497462478	-0.60217551	 0.109788
H	-0.5117644278	 1.854308792	 1.1429934711	 0.114017
H	 0.6160088135	-0.2990068308	-0.7503659592	 0.091575
H	 0.4111978743	-0.4956320747	 0.9818434645	 0.119497
H	-2.0735559377	-0.1848099219	 0.7268385786	 0.095463
H	-1.8629409887	-0.0456648335	-1.0191402201	 0.087924
H	-0.9063031442	-2.3419558072	-1.1025045673	 0.068161
H	-2.1859406493	-4.492597966	 0.988606973	 0.097952
H	-2.8309979999	-3.1933780182	 2.0345269235	 0.099701
H	-5.0079012653	-2.3533294614	 0.3668340539	 0.113969
H	-4.3190242727	-1.1339454017	-0.7985412189	 0.117007
H	-3.4643979883	-3.0143957992	-2.2686515433	 0.114259
H	-4.1596497971	-4.2384661048	-1.1106854245	 0.113664
