16
gdb 1061	6.64589	1.81588	1.56812	1.7799	66.7	-0.1989	0.0515	0.2504	816.0269	0.138594	-288.683173	-288.676268	-288.675324	-288.714329	25.695	
C	 0.0469113446	 1.5541695764	-0.1450236529	-0.359979
C	-0.0155319492	 0.0396252139	 0.1162155493	-0.296529
C	-1.4099390007	-0.5177737989	 0.0711596059	 0.290852
C	-2.1427101489	-0.9816084082	 1.1415301974	-0.184898
N	-3.3730046064	-1.3829869819	 0.6814756063	-0.231584
C	-3.4443917768	-1.1864131677	-0.6734786342	-0.074862
C	-2.245627102	-0.6513124872	-1.0804264279	-0.238274
H	 1.0793216951	 1.9184115088	-0.1145328598	 0.103607
H	-0.3690324106	 1.8010683809	-1.1270416239	 0.116258
H	-0.5320821412	 2.102471726	 0.6048626959	 0.114648
H	 0.6140911979	-0.4740103398	-0.6221449459	 0.099637
H	 0.4283303392	-0.1768726737	 1.095152573	 0.093298
H	-1.8859898334	-1.0593199618	 2.1864571173	 0.109852
H	-4.1039906587	-1.7722560556	 1.2494769942	 0.258569
H	-4.3324938938	-1.4457562327	-1.2272233648	 0.11349
H	-1.9860280951	-0.3851297686	-2.0944408299	 0.085915
