23
gdb 72405	2.82044	1.41845	1.3179	1.3327	83.9	-0.2508	0.0727	0.3235	1116.3795	0.207744	-388.324175	-388.31574	-388.314795	-388.356248	35.067	
C	-0.0018283037	 1.4811674004	 0.0216913465	-0.478735
C	-0.0068561633	-0.0386304749	 0.0026327957	 0.329797
C	 0.6354320536	-0.6627311297	-1.2680241193	-0.236533
C	 0.0891800197	-2.1214362869	-1.2808816848	-0.270909
C	-0.7956949202	-2.1715665332	-0.0116263078	 0.422379
O	-1.7804934508	-3.1800182952	-0.0086832979	-0.502783
C	 0.1289673315	-2.1529517383	 1.229809964	-0.270924
C	 0.675156122	-0.6941837622	 1.2362214323	-0.236526
C	-1.3791395149	-0.7490753805	 0.0154801039	-0.275032
H	 1.0224347424	 1.8726715131	 0.010920356	 0.110201
H	-0.5212820421	 1.8927788926	-0.8508317094	 0.109901
H	-0.4941204394	 1.8704498538	 0.9198354499	 0.109906
H	 0.3161946962	-0.1166403257	-2.1617028995	 0.093292
H	 1.728382027	-0.6138689106	-1.2353680284	 0.090835
H	-0.5319165711	-2.3148288585	-2.1603924276	 0.100038
H	 0.881153378	-2.8779675889	-1.261129495	 0.083242
H	-1.3336335877	-4.0328453093	-0.0262640731	 0.272385
H	-0.4640372904	-2.3685579287	 2.1234335171	 0.100035
H	 0.9195955683	-2.9084584639	 1.1660194246	 0.083244
H	 1.7665385143	-0.6441063865	 1.1701085502	 0.090838
H	 0.3846915056	-0.1708003992	 2.1530032914	 0.093293
H	-1.9653420407	-0.5509719844	 0.9184237715	 0.091027
H	-1.9936190944	-0.5286195231	-0.8631550502	 0.09103
