18
gdb 83082	2.36795	1.74084	1.50985	2.0196	77.56	-0.2281	-0.0081	0.22	985.7897	0.148472	-401.936609	-401.928939	-401.927994	-401.968474	30.144	
C	-0.0162933089	 1.4475003641	-0.1072191026	-0.336644
N	 0.0275573231	-0.0102894348	 0.01820022	-0.090465
C	-0.9542621149	-0.5417226918	 1.038150411	-0.117908
C	-1.16304499	-2.0396718466	 0.7692786498	-0.26436
C	 0.1855411436	-2.7094010178	 0.6254839974	-0.066853
C	 1.3017849012	-1.9842573112	 0.7047635754	-0.050392
C	 1.1532622228	-0.4908840523	 0.9075234303	-0.164124
C	 0.1629160338	-0.2902397043	 2.0762683625	 0.429366
O	 0.211406219	 0.1593507181	 3.1820897637	-0.322124
H	 0.818954563	 1.7754317719	-0.7328091681	 0.127167
H	-0.945853704	 1.7303987265	-0.610123569	 0.126477
H	 0.0358041843	 1.9915127481	 0.8516597728	 0.115804
H	-1.887257954	 0.0184238677	 1.1381499374	 0.088835
H	-1.7291220782	-2.4884640726	 1.5967032019	 0.119124
H	-1.7683266161	-2.1781690451	-0.136353874	 0.118347
H	 0.2143249989	-3.7829991976	 0.464928442	 0.099187
H	 2.2926796026	-2.4207770104	 0.6484820936	 0.102766
H	 2.0810925737	 0.0803984183	 0.8642142258	 0.085799
