11
gdb 131449	3.66159	1.77239	1.19429	5.8253	57.	-0.2597	-0.034	0.2257	897.8636	0.067946	-484.827534	-484.82148	-484.820536	-484.858018	23.108	
O	-0.0257844911	 1.3251261314	 0.0096741694	-0.39707
C	 0.0175461057	 0.0017056934	 0.0023011843	 0.499126
N	 1.088494816	-0.7317780292	-0.0065833975	-0.239415
O	 0.6393550469	-2.0892353798	-0.0118974251	-0.249188
C	-0.7034210344	-2.0531612659	-0.0055584028	 0.557673
N	-1.6751990931	-2.9129607295	-0.0057925456	-0.346848
N	-2.8304463977	-2.125326029	 0.0037660183	-0.201394
C	-2.5092339198	-0.8590768356	 0.0091271445	-0.001777
N	-1.1286436416	-0.7511997539	 0.0034568316	-0.130947
H	 0.8823238125	 1.6609093322	 0.0073375128	 0.338061
H	-3.1838903833	-0.0204567142	 0.0167481102	 0.171779
