15
gdb 43892	2.82141	1.51055	1.15075	3.4439	74.26	-0.2419	0.0031	0.245	1053.6051	0.112134	-416.73009	-416.722354	-416.72141	-416.76236	29.695	
N	 0.0202690575	 1.036238953	-0.6229204627	-0.546637
C	-0.041760036	-0.0998455182	-0.106154798	 0.471694
O	 0.9546733868	-0.8980722877	 0.446766334	-0.296505
C	 0.0260223504	-2.0152920834	 0.661501642	 0.249727
C	-0.6526979859	-1.960467422	 2.0532412546	-0.225159
N	-1.6490033703	-0.9715558298	 1.5510764312	-0.318716
C	-1.1453078737	-1.104429866	 0.1600518177	-0.211048
C	 0.4834247461	-3.2570612336	 0.1103386583	 0.242805
C	 0.8383339408	-4.3142145761	-0.3385442515	-0.399649
H	 0.9697454554	 1.4123203489	-0.6002608042	 0.233055
H	-1.0790072886	-2.9289038929	 2.3340492262	 0.120119
H	-0.0160438993	-1.5889726782	 2.8611361997	 0.128697
H	-2.6056912765	-1.2871931069	 1.6490679264	 0.234965
H	-1.855762128	-1.343016046	-0.6293085074	 0.112293
H	 1.1608549315	-5.2436107311	-0.7398614561	 0.204357
