18
gdb 38742	2.87464	2.07897	1.97338	0.5147	74.7	-0.2078	0.0004	0.2082	823.134	0.152055	-401.918199	-401.91231	-401.911366	-401.94793	26.096	
C	-0.0095685855	 1.4955844747	 0.0701465224	-0.187321
C	 1.5150465234	 1.415477224	-0.0086672484	 0.108478
O	 2.0441136753	 1.1254974433	 1.2759267126	-0.282608
C	 1.7435769069	-0.2410521717	 1.6674761283	 0.038763
C	 0.2430627	-0.5124579894	 1.3600760798	-0.180654
N	-0.0602478627	-0.0122291806	 0.0024976454	-0.136528
C	 1.2793094327	 0.063206114	-0.7790234446	-0.066682
C	 2.2783594683	-0.997183985	-0.5060635478	-0.065648
C	 2.5428872374	-1.163027119	 0.7930861505	-0.076283
H	-0.4397471787	 1.9347918963	 0.9738988662	 0.103116
H	-0.4820673404	 1.9246967074	-0.819580839	 0.100746
H	 2.1182874137	 2.2143108326	-0.4489310917	 0.07519
H	 1.9866208296	-0.3126860571	 2.7282022614	 0.079223
H	 0.0394773614	-1.5855705774	 1.4256815172	 0.105754
H	-0.4120662124	 0.0025446777	 2.0699207203	 0.105653
H	 1.0485124165	 0.2138021155	-1.833929185	 0.080016
H	 2.7574226442	-1.5442646188	-1.3102258674	 0.099484
H	 3.2463823703	-1.8797483467	 1.20026972	 0.0993
