20
gdb 38360	2.5374	1.96163	1.43548	1.4273	79.94	-0.2205	0.0031	0.2236	967.8979	0.17376	-403.112091	-403.104996	-403.104051	-403.143025	29.76	
C	-0.1256077296	 1.564122409	 0.1173448636	-0.207843
C	 1.4348757334	 1.6384443486	 0.0260209998	-0.01112
C	 1.4528643224	 0.1236286965	 0.4327777572	-0.222706
C	-0.0668338393	 0.0030063065	 0.0927714881	 0.013279
C	-0.3298462499	-0.5661011216	-1.3281650562	-0.184299
N	 0.4529567095	 0.3111800198	-2.1540700151	-0.19744
C	 1.6750631556	 0.0875606425	-2.3555585679	 0.065864
O	 2.5715881627	 1.0767827543	-2.2122089082	-0.205322
C	 2.0875568372	 2.1136012327	-1.3116268155	-0.081837
H	-0.4763107225	 1.9389513557	 1.0837112627	 0.086046
H	-0.6919503759	 2.0443491592	-0.6821250655	 0.108395
H	 1.8684148494	 2.2807063776	 0.7991671529	 0.0719
H	 2.1487377774	-0.5460859566	-0.0802331045	 0.102147
H	 1.627373673	 0.019001782	 1.5068208759	 0.096577
H	-0.6794669408	-0.5209335978	 0.8329562094	 0.058385
H	-0.0381631429	-1.6307853522	-1.374799608	 0.081462
H	-1.3944853117	-0.4882248854	-1.5744037187	 0.101428
H	 2.1658231851	-0.8767251462	-2.5540832243	 0.09438
H	 1.3853210233	 2.7594562736	-1.8464082621	 0.123932
H	 2.9962108635	 2.6842920618	-1.1044331936	 0.106771
