17
gdb 97726	5.24697	0.67744	0.65591	1.7093	81.27	-0.2419	0.0068	0.2487	1719.6129	0.134454	-421.749254	-421.740321	-421.739376	-421.784497	32.08	
O	 0.0995215158	 1.4252886931	-0.1831492969	-0.399649
C	 0.0651008598	 0.0239364905	 0.0449753118	-0.209077
C	-1.2878219283	-0.5229072057	 0.1268701402	 0.289984
C	-2.4155024957	-0.951044157	 0.141909047	-0.204742
C	-3.7517637996	-1.4259440758	 0.2232795615	 0.281421
C	-4.8239242899	-1.1060683034	 1.2860550664	-0.31428
C	-5.4361631814	-2.5283161211	 1.0393745582	-0.242015
C	-4.3507886201	-2.7653361825	-0.017333337	-0.051089
O	-4.4686311026	-1.7343692002	-0.9924902581	-0.283424
H	-0.452365136	 1.6060198375	-0.9514521387	 0.290128
H	 0.6269738118	-0.5248674298	-0.7278979564	 0.123192
H	 0.5930805891	-0.1367754415	 0.9916745684	 0.142567
H	-4.4061760855	-0.9945166978	 2.2881195579	 0.12021
H	-5.4511109302	-0.2449485551	 1.047723462	 0.116226
H	-5.3401406637	-3.1808185742	 1.9099043951	 0.11179
H	-6.4595605676	-2.5692385247	 0.6603361296	 0.116991
H	-3.880429916	-3.6915854224	-0.3280267311	 0.111766
