19
gdb 18159	3.08984	1.73674	1.46203	2.683	70.83	-0.2325	0.0686	0.3011	946.8955	0.166014	-365.005394	-364.997349	-364.996405	-365.037769	30.596	
C	-0.0467548444	 1.370558435	 0.3593812629	-0.428865
C	 0.1764032999	-0.1183349224	 0.2032359824	 0.035142
C	 0.5544135024	-0.8213532438	-1.0356096791	-0.040771
C	 1.5738245912	-0.0355784799	-1.8637724063	-0.309827
C	 2.511780201	-0.1521097949	-0.6366423345	 0.068955
C	 3.2085779421	 1.02300239	 0.0295895555	-0.079362
O	 3.7947648549	 0.6098624929	 1.2531769195	-0.425586
N	 1.4633899474	-0.8649216057	 0.1969877834	-0.198574
H	 0.4459218755	 1.9714261685	-0.4062842265	 0.127524
H	-1.1215064651	 1.5728143694	 0.2934099349	 0.122552
H	 0.2935597521	 1.7216124894	 1.3393124627	 0.130813
H	-0.51422139	-0.6937037685	 0.818911427	 0.099423
H	 0.0378400147	-1.7101754164	-1.385344875	 0.096013
H	 1.943516462	-0.5697372494	-2.7398743024	 0.113374
H	 1.2627546635	 0.9662636313	-2.1757003537	 0.105588
H	 3.2771473431	-0.910899786	-0.8278193586	 0.098296
H	 4.0251580456	 1.3757249371	-0.6122231251	 0.104794
H	 2.5283852147	 1.8711060019	 0.1831146475	 0.086474
H	 3.1450538092	 0.0480540317	 1.6930951953	 0.294039
