15
gdb 45039	2.46024	1.79584	1.1586	1.9407	67.06	-0.2538	-0.0365	0.2174	1009.2959	0.114788	-453.990322	-453.983181	-453.982237	-454.022151	27.316	
O	-0.0570218725	-0.0301562326	 0.2702610858	-0.332883
C	-0.0748798164	 1.1685542952	 0.1234976732	 0.386949
C	-1.3598731285	 1.9582441654	-0.118360065	-0.273316
N	-1.3454488067	 3.3944024177	 0.1369020574	-0.098651
C	-0.8149217439	 3.8577315913	 1.4031345382	-0.246773
C	-0.0448654739	 4.0696562757	 0.1302291512	-0.133178
C	 1.2218003657	 3.2993595036	-0.0433141056	 0.433585
O	 2.2920261673	 3.8169218362	-0.2615927843	-0.342706
N	 1.0958005216	 1.9161523891	 0.0921321007	-0.374604
H	-1.6219329204	 1.8022133339	-1.172373763	 0.153289
H	-2.1495144143	 1.4929691081	 0.4764936886	 0.153942
H	-1.3320576919	 4.7022620187	 1.8483794603	 0.139964
H	-0.4187784873	 3.1323941947	 2.1116365122	 0.134457
H	-0.0136538314	 5.0542647036	-0.3237989584	 0.131231
H	 1.9619218324	 1.3895627691	 0.0984280887	 0.268694
