17
gdb 70652	2.43392	1.58673	1.18561	3.4257	71.47	-0.248	0.0281	0.2762	1059.1415	0.137193	-417.995901	-417.987714	-417.98677	-418.028643	31.027	
N	 0.3470063733	 1.3110271439	-0.2680404938	-0.59173
C	 0.0056334296	-0.0648869845	-0.0459456127	 0.271808
C	-0.6594279345	-0.9743542993	-1.0776555915	-0.376166
C	-1.3892617836	-0.5603796416	 0.1818150752	 0.073431
O	-1.4459463099	-1.4472480578	 1.2664866179	-0.248795
C	-0.1296739347	-1.9199133968	 1.5134683334	-0.114904
C	 0.828132106	-0.7905338668	 1.0292377239	-0.184703
C	 2.1158107163	-1.300290869	 0.5700151649	 0.266256
N	 3.1303442962	-1.7094252242	 0.1961821596	-0.327925
H	 1.0603707099	 1.3962932526	-0.9866753619	 0.242767
H	-0.4570501916	 1.8424353155	-0.583044839	 0.236257
H	-0.9775397833	-0.4954762083	-1.9979005683	 0.117286
H	-0.328210722	-2.0003854002	-1.1982656116	 0.130666
H	-2.263606598	 0.0792396687	 0.1331247983	 0.111412
H	-0.0325219469	-2.1267430475	 2.5811714373	 0.133142
H	 0.0668077688	-2.8477509844	 0.96185331	 0.122036
H	 1.0064185846	-0.0647069204	 1.8290863683	 0.139163
