18
gdb 17380	3.92149	1.54919	1.28325	1.5649	67.27	-0.2492	0.0712	0.3204	984.7986	0.15254	-384.897511	-384.889453	-384.888509	-384.929925	30.287	
C	 0.0206561119	 1.4985880286	 0.1519746253	-0.407397
C	-0.0675822326	-0.020779888	 0.0031608161	 0.117972
O	-1.4193260871	-0.4445467303	-0.1807802068	-0.444761
C	 0.6874805258	-0.5387440934	-1.2106606139	 0.01214
C	 2.2593626932	-0.4561094614	-1.2306879025	-0.28879
C	 2.2872413145	-1.9846443051	-1.368496175	 0.034175
O	 1.6081846033	-2.519424092	-0.225595154	-0.247612
C	 0.8188648887	-2.0678754029	-1.333489007	 0.017389
H	 1.057503283	 1.8286221912	 0.2730415948	 0.11854
H	-0.403633803	 1.993837736	-0.7275596191	 0.120593
H	-0.5374674064	 1.8348893647	 1.0334640098	 0.104508
H	 0.3615502791	-0.5022447083	 0.8947696967	 0.080803
H	-1.9166805399	-0.2011846625	 0.6061648328	 0.280818
H	 0.2592864119	-0.106358501	-2.120670465	 0.080818
H	 2.6409891941	 0.0745730667	-2.1057654711	 0.106658
H	 2.746573089	-0.072110461	-0.3304108218	 0.107823
H	 3.0255422723	-2.6182543849	-1.8458225278	 0.102713
H	 0.1295733121	-2.7784860963	-1.7725321013	 0.103611
