19
gdb 64136	3.36879	1.10143	1.05144	0.5925	77.66	-0.2547	0.0298	0.2845	1239.346	0.156334	-423.002673	-422.993248	-422.992304	-423.037261	35.271	
C	-0.0978462938	 1.5606448882	 0.4724838982	-0.414702
C	-0.0182949347	 0.1333946713	-0.0527985826	 0.457046
C	-1.3617458391	-0.3927777812	-0.5579699017	-0.409947
O	 0.9681817952	 0.0962260064	-1.0813338082	-0.281671
C	 1.657137961	-1.1292701852	-0.9568499611	-0.126965
C	 1.678953765	-1.3394095955	 0.5702155778	-0.058385
O	 0.4520163806	-0.7416772968	 0.9854382346	-0.309803
C	 1.7560068034	-2.7345988716	 0.9799935338	 0.307673
C	 1.8523359564	-3.8893912351	 1.2963703844	-0.443187
H	 0.8821759006	 1.8756458353	 0.8375700007	 0.122394
H	-0.4124564811	 2.2402417245	-0.3241542929	 0.124726
H	-0.8185520511	 1.6203016945	 1.2918221238	 0.125785
H	-1.7558819168	 0.2620553993	-1.3398352911	 0.120947
H	-1.2478672964	-1.400962191	-0.9640191932	 0.120646
H	-2.0808231717	-0.436029504	 0.2642550865	 0.127253
H	 1.1311043047	-1.9577170847	-1.4511193925	 0.107158
H	 2.6518626688	-1.0210326663	-1.3935306799	 0.123293
H	 2.5235169231	-0.7846825659	 1.0060535069	 0.105615
H	 1.9313144758	-4.9086695021	 1.5843643064	 0.202124
