14
gdb 35312	5.89448	0.96077	0.90456	2.2724	72.93	-0.2767	-0.0195	0.2572	1215.0862	0.102124	-395.706908	-395.699279	-395.698335	-395.73937	28.01	
N	 0.0494445707	-1.1893854018	-0.1849784758	-0.317322
C	 0.0360748022	-0.0394468042	-0.0732499162	 0.293778
C	 0.0043162235	 1.40973783	 0.0547928294	-0.15113
C	-0.2637985284	 2.032796408	 1.4810641712	-0.294774
C	 1.0718672634	 2.7816211486	 1.3519267641	 0.242993
N	 2.1111874572	 1.7290970559	 1.1986153215	-0.33637
C	 1.3546931742	 2.1523628607	 0.0186689677	-0.113161
C	 1.3835520186	 4.091380754	 1.8161136128	 0.173094
N	 1.6265217703	 5.1562726174	 2.1990048733	-0.330469
H	-0.6907117295	 1.8241420945	-0.6788213376	 0.142758
H	-1.1365669636	 2.6849746012	 1.4823625864	 0.143838
H	-0.3060185579	 1.3290468275	 2.3119090809	 0.150201
H	 3.024839179	 2.1814665269	 1.1685001503	 0.259947
H	 1.8386620705	 2.5710479613	-0.8539648278	 0.136619
