21
gdb 123065	4.78324	0.61727	0.60709	1.2104	76.02	-0.2491	0.0739	0.323	1877.9226	0.181623	-461.320445	-461.310495	-461.30955	-461.357492	34.468	
O	 0.0351518032	 1.304444216	-0.1902602561	-0.420572
C	-0.0090388303	-0.1033512608	-0.07211342	-0.058594
C	-1.4413180692	-0.6062706841	 0.0140896601	-0.070205
O	-2.0902824485	-0.1939147536	-1.1765531626	-0.264867
C	-3.4781029315	-0.4578820235	-1.1975359386	-0.066996
C	-4.0316963701	 0.0022376119	-2.5310201928	-0.047503
C	-3.6650161858	-0.8793177773	-3.7440661602	-0.071044
O	-5.0266722731	-1.343133323	-3.873705983	-0.27077
C	-5.476229431	-0.4516021694	-2.8348206572	-0.089817
H	-0.581459367	 1.5244025292	-0.8984986493	 0.287522
H	 0.4928190757	-0.5959875163	-0.9203223113	 0.093743
H	 0.5326687803	-0.3713755008	 0.8408066709	 0.109401
H	-1.4682265568	-1.7034619784	 0.1159484684	 0.090002
H	-1.9415858272	-0.1661868503	 0.891407885	 0.096698
H	-3.6639868813	-1.5373991213	-1.0644628918	 0.095716
H	-3.983295402	 0.0651828904	-0.3677528085	 0.092605
H	-3.8398708194	 1.0692842847	-2.6624285194	 0.084931
H	-3.3321016078	-0.334240736	-4.6361132053	 0.101083
H	-2.9633529408	-1.697727572	-3.5438065819	 0.106823
H	-5.9947048339	-0.9855606645	-2.0273818105	 0.100197
H	-6.1396153134	 0.332251739	-3.2218737061	 0.101649
