22
gdb 73358	2.40951	1.89504	1.54669	1.585	83.49	-0.2193	0.08	0.2993	1000.2956	0.197586	-367.215016	-367.207487	-367.206543	-367.246562	31.452	
C	-0.0478546719	 1.5068289126	 0.0261179926	-0.469512
C	 0.0000906384	-0.0192437261	-0.0153758403	 0.290478
C	-1.4156792122	-0.6612741033	 0.0179747851	-0.230375
C	-1.261080042	-2.0521819062	 0.681241605	-0.253785
C	 0.050453828	-1.9741697893	 1.4525819251	-0.018979
C	 0.7209460252	-0.6743798444	 1.186055499	-0.088648
N	 1.340380287	-1.9243059871	 0.7264770821	-0.107643
C	 1.2836030851	-1.9639266498	-0.750946154	-0.176981
C	 0.8230872788	-0.5655902681	-1.2101419994	-0.233551
H	 0.9598415785	 1.9360867939	 0.0340173037	 0.113913
H	-0.5723875836	 1.9095864487	-0.8474175467	 0.113916
H	-0.5732496842	 1.8631267234	 0.9188773988	 0.113327
H	-2.0684218413	-0.0386263265	 0.6402169136	 0.096356
H	-1.8728408999	-0.7070722976	-0.9763765085	 0.091149
H	-2.0856303955	-2.2642885835	 1.3682818707	 0.099619
H	-1.256519486	-2.8673744898	-0.0517039114	 0.104903
H	 0.1185948914	-2.4825765883	 2.4108810487	 0.085003
H	 1.2493302612	-0.0762133013	 1.923723595	 0.076439
H	 2.2822946669	-2.2096519411	-1.1236304518	 0.103964
H	 0.6115681496	-2.7573353749	-1.096969794	 0.100321
H	 0.2543438527	-0.5828579386	-2.1453530598	 0.093497
H	 1.6975934235	 0.0752180976	-1.3715792036	 0.096591
