17
gdb 124526	4.09708	0.97907	0.9554	3.3832	70.27	-0.2599	-0.0143	0.2456	1298.8453	0.135608	-455.164485	-455.155719	-455.154774	-455.198819	31.808	
C	-0.0600849033	 1.5132794596	 0.0689440146	-0.394148
C	 0.0439737229	-0.0228779895	 0.0207899413	-0.090006
C	 0.7637785217	-0.5030257444	-1.253956459	-0.394055
C	 0.7257822215	-0.5486364152	 1.2441171565	 0.449347
N	 0.2522391876	-1.354420922	 2.1513644215	-0.404557
C	 1.3214404438	-1.4738972212	 3.0049853446	 0.43031
O	 1.2740552559	-2.2275625443	 4.1028562552	-0.400275
N	 2.395067827	-0.8019886903	 2.6783576234	-0.20237
O	 1.9861579906	-0.1741026733	 1.4810028282	-0.212311
H	 0.9334403444	 1.9703788839	 0.0773792828	 0.140182
H	-0.59766145	 1.8769165097	-0.811470752	 0.122549
H	-0.59773072	 1.8483093033	 0.960453113	 0.129868
H	-0.9629258921	-0.4503243805	 0.0443471755	 0.11369
H	 1.7867305697	-0.1179406308	-1.2912627364	 0.140016
H	 0.8079756094	-1.5948589428	-1.2987123057	 0.130012
H	 0.2297760084	-0.1455843806	-2.1390695135	 0.12263
H	 0.3936308827	-2.6214151716	 4.1356594301	 0.319119
