23
gdb 114338	3.15246	1.01556	1.00095	1.2684	84.76	-0.2463	0.0718	0.3181	1360.5018	0.206888	-388.291209	-388.28208	-388.281136	-388.325236	35.532	
C	-0.0390040629	 1.4683307544	 0.1552068076	-0.384545
C	-0.0363855513	-0.0553548689	-0.0066930331	-0.187953
C	 0.7068100133	-0.5490359298	-1.2504803047	 0.07658
C	 2.2265218078	-0.2330983378	-1.2763937799	-0.235896
C	 2.8578616963	-1.3119568934	-2.1548600768	-0.107912
C	 3.1369227604	-2.6513974401	-1.51034757	 0.093364
O	 3.0474379154	-2.816146531	-0.1244002643	-0.411369
C	 1.8594297362	-2.4600296347	-2.2731995604	-0.084203
C	 0.6156685092	-2.0817321299	-1.4696121489	-0.254036
H	 0.9772102777	 1.8636613025	 0.2565520547	 0.115665
H	-0.4980577722	 1.9572952522	-0.7117605871	 0.110811
H	-0.6015346487	 1.7725307653	 1.0435955578	 0.109043
H	 0.4143596196	-0.5211790949	 0.8803643837	 0.097185
H	-1.0728856912	-0.4154647703	-0.0446513361	 0.090482
H	 0.2630998196	-0.0658006969	-2.1330711605	 0.063443
H	 2.4326769227	 0.7654371665	-1.6706452886	 0.095056
H	 2.6333768899	-0.2660347803	-0.257165106	 0.083124
H	 3.477274469	-1.012529914	-2.993502776	 0.07827
H	 3.8986554373	-3.2708546593	-1.9847023187	 0.078191
H	 3.8137846059	-2.3927130761	 0.2766748909	 0.287987
H	 1.7385667553	-3.0082477417	-3.2008431494	 0.081641
H	 0.6040443204	-2.6040254771	-0.5070374274	 0.114549
H	-0.2988767497	-2.3580174147	-2.0021381066	 0.090525
