18
gdb 71685	2.89806	2.20122	1.69335	1.2145	72.99	-0.2265	0.0638	0.2903	854.7893	0.149703	-401.875054	-401.868672	-401.867728	-401.9054	27.059	
C	-0.0098183818	 1.448361246	-0.0256888162	-0.507873
C	-0.0329853335	-0.0502822054	 0.0456015647	 0.449395
O	 0.2962598268	-0.7159293457	-1.2124342733	-0.338179
C	-0.4358315506	-1.8315676457	-0.6982960454	 0.078575
C	 0.196141091	-2.2047693221	 0.6801533318	-0.032233
C	 0.7665118849	-0.8149051905	 1.1269198162	-0.112882
C	-0.2185792808	-0.9176746351	 2.3113114366	-0.186183
N	-1.0719457447	-1.7983542466	 1.4382694029	-0.158362
C	-1.3245167953	-0.9650367214	 0.2132929386	-0.114797
H	 0.9856912569	 1.7997456675	-0.3176126858	 0.133323
H	-0.7292843011	 1.8157334626	-0.7628502086	 0.130809
H	-0.2562955926	 1.8866040834	 0.9463446396	 0.12474
H	-0.7302398523	-2.5799148505	-1.4305339885	 0.090806
H	 0.685793344	-3.1425237906	 0.9356675949	 0.079859
H	 1.8270536165	-0.5823172766	 1.2258779236	 0.07198
H	 0.1617447651	-1.4950925485	 3.1583454927	 0.111916
H	-0.701898948	-0.0053631707	 2.6788240234	 0.100866
H	-2.3244642843	-0.5846822201	 0.0119509128	 0.07824
