17
gdb 44657	2.68064	1.78428	1.75642	2.8221	75.87	-0.2255	-0.0113	0.2142	888.7733	0.138786	-384.722647	-384.716142	-384.715197	-384.753239	27.487	
O	 0.0351751688	-0.012193754	 0.0040912686	-0.3282
C	 0.0015666682	 1.1903590533	 0.0104712758	 0.432358
C	-1.279858564	 2.0328800088	 0.0317145358	-0.311489
C	-0.8691021737	 3.536055695	 0.0335646503	-0.120546
C	 0.0241603498	 3.7114119956	 1.256815463	-0.070884
C	 1.1161911299	 2.9487185829	 1.2467465408	-0.082593
C	 1.269263258	 2.0928470832	-0.0020315146	-0.197251
C	 1.0830035247	 2.9608405637	-1.237879492	-0.082596
C	-0.0088136603	 3.7234435391	-1.2113456635	-0.070881
H	-1.8823557242	 1.7780547187	-0.8448462294	 0.128942
H	-1.8587429081	 1.7694316727	 0.9215383172	 0.12894
H	-1.7418556391	 4.1891216324	 0.0484070715	 0.071863
H	-0.2547949984	 4.3786840185	 2.0633052057	 0.101893
H	 1.8414621573	 2.8849584733	 2.0483095895	 0.108336
H	 2.1648970767	 1.4754826327	-0.0170111061	 0.081878
H	 1.7865942475	 2.9049847693	-2.0591141414	 0.108336
H	-0.309128943	 4.3985050549	-2.0035555712	 0.101893
