19
gdb 122615	4.32327	0.65716	0.5964	1.3364	73.54	-0.257	-0.0323	0.2246	1816.7468	0.156848	-460.150692	-460.140902	-460.139957	-460.186764	34.053	
O	-0.0971337465	 1.4649554218	-0.2104868038	-0.419839
C	 0.0114203806	 0.083196665	 0.0916466168	-0.076153
C	-1.3687006671	-0.5395156943	-0.0740678699	-0.169054
C	-1.3801140321	-2.0391707584	 0.2385878732	-0.211191
C	-2.7526508344	-2.6618878336	 0.0304617494	 0.007668
O	-3.1966100871	-2.6600753617	-1.3533298848	-0.290818
C	-3.3348449731	-4.0929626781	-1.4228779358	-0.188829
C	-2.8429140973	-4.1960208132	 0.026180595	 0.33506
O	-2.6067996628	-5.071237572	 0.8006894232	-0.273415
H	 0.7728752315	 1.8634933529	-0.1169428362	 0.286443
H	 0.7278281939	-0.4184872985	-0.5798291459	 0.085992
H	 0.3697247083	-0.0735597392	 1.122912794	 0.084041
H	-2.0710856883	-0.0121971888	 0.5829949349	 0.107135
H	-1.7111014596	-0.3756337735	-1.101132737	 0.129351
H	-0.6527264465	-2.5629524923	-0.3944398373	 0.103419
H	-1.0860672047	-2.2213158543	 1.2804440598	 0.11587
H	-3.4997348399	-2.1863653523	 0.6833673883	 0.106497
H	-4.3705241017	-4.4189466842	-1.584733385	 0.133306
H	-2.6875549634	-4.5535064451	-2.1798388489	 0.134518
