18
gdb 66577	3.25786	1.91732	1.58985	0.6165	81.94	-0.206	-0.0446	0.1614	898.8274	0.147864	-364.677553	-364.67062	-364.669676	-364.708266	28.901	
C	 0.0756743755	 1.4685638595	 0.1150603506	-0.507782
C	 0.2072289608	-0.014175854	 0.0197542114	 0.318301
C	 0.0168751925	-0.9581370658	-1.095963827	-0.100545
C	 0.5405971852	-2.1015217683	-0.199303445	-0.118966
C	-0.8465130946	-2.2541798474	 0.4097093102	 0.046001
C	-0.5705084501	-2.4460383317	 1.934151975	-0.263239
C	 0.4909615596	-1.3601756468	 2.1148710958	-0.106849
C	 0.9201280573	-1.0338336478	 0.8782028994	-0.009677
N	-1.1465630873	-0.8274291148	-0.1479313576	-0.222696
H	 1.0204899518	 1.958078954	-0.1428427064	 0.12586
H	-0.6998534558	 1.8232361508	-0.5687697706	 0.137741
H	-0.2010647653	 1.7722249832	 1.1301522735	 0.12796
H	-0.0713193277	-0.8263193402	-2.1673342188	 0.093226
H	 1.2218106891	-2.9114801395	-0.4573072962	 0.071206
H	-1.5799999367	-2.9312503227	-0.0368003443	 0.074827
H	-1.4173632714	-2.2236356176	 2.5935545949	 0.118898
H	-0.2878209762	-3.4924047587	 2.1188100981	 0.11381
H	 0.4205118034	-0.6483437922	 2.9316159472	 0.101924
