20
gdb 78942	3.49951	1.51451	1.33129	1.9106	81.1	-0.2225	0.0756	0.2981	1046.6719	0.171788	-365.939146	-365.931577	-365.930633	-365.970674	30.745	
C	-0.1819159669	 1.5054715394	-0.0486449236	-0.411249
C	-0.0378065004	-0.0123361375	-0.0239092946	-0.004445
C	 1.165369582	-0.5554616618	-0.846990575	-0.073762
C	 1.2753188248	-2.0570320858	-0.5247889976	-0.104008
N	 2.4047250281	-1.9245866599	 0.4641512364	-0.223109
C	 2.0963939034	-0.4244129535	 0.4042283141	 0.01749
C	 0.7559367592	-0.5625597775	 1.1947777451	-0.128125
C	 0.9831616205	-2.0716042646	 0.9392893986	 0.356396
C	 0.5141162329	-3.243612292	 1.738826086	-0.516959
H	 0.7756773063	 2.0030444127	 0.1429293104	 0.117102
H	-0.5457930441	 1.8515469511	-1.0220840819	 0.115266
H	-0.8905706876	 1.8471190183	 0.7134353886	 0.115159
H	-1.0017351652	-0.4975015066	-0.219132643	 0.063764
H	 1.4097786035	-0.199172416	-1.8465446011	 0.068723
H	 1.1891789577	-2.9149784331	-1.1814848052	 0.089485
H	 2.8872384557	 0.3041123456	 0.5655630187	 0.078069
H	 0.5930713019	-0.2160160225	 2.214799808	 0.06567
H	-0.5789567138	-3.3238036351	 1.7151526205	 0.119721
H	 0.9328248206	-4.1714640151	 1.3366805948	 0.130612
H	 0.8261260513	-3.1607829361	 2.7855714607	 0.124199
