17
gdb 34682	4.54472	1.10206	1.09096	1.9218	78.59	-0.2455	0.0393	0.2848	1148.2353	0.135859	-384.58744	-384.580083	-384.579138	-384.61911	29.446	
C	-0.0491345523	-1.0956096026	-0.0620431748	-0.388757
C	 0.0062640334	 0.1048058726	-0.0118178035	 0.262148
C	 0.0638629402	 1.5380749739	 0.0450353428	-0.233007
C	 0.5675085225	 2.1505099502	 1.341442728	-0.083749
C	 1.4362892701	 2.1761490485	 0.0811417298	-0.064773
C	 1.2989500223	 3.7150721723	 0.0429851271	 0.086807
O	 0.180119689	 4.2576785647	-0.7022689494	-0.296495
C	-0.6187612055	 4.3832716583	 0.5069319744	-0.109354
C	 0.4760655563	 3.6942157155	 1.3445011903	-0.086881
H	-0.1013794568	-2.1547865681	-0.1103253942	 0.190417
H	-0.7048937835	 2.0479448454	-0.526557147	 0.132715
H	 0.6689728614	 1.531644525	 2.2235313656	 0.105159
H	 2.3237981771	 1.6069837156	-0.1642488132	 0.100397
H	 2.221262384	 4.2824809632	-0.0994112917	 0.084226
H	-0.7788812239	 5.4377949288	 0.7616196556	 0.105696
H	-1.5886686752	 3.8800097648	 0.421931899	 0.108402
H	 0.816115661	 4.1757588318	 2.2595376212	 0.08705
