21
gdb 98755	3.62399	1.00497	0.97088	2.6172	82.3	-0.2298	-0.007	0.2228	1350.4126	0.181734	-387.085238	-387.076021	-387.075077	-387.120298	34.099	
C	 0.4831109569	 1.516302342	 0.1760351466	-0.376691
C	 0.494593491	 0.0021258233	-0.0162400388	-0.282291
C	 0.3032493232	-0.4352179874	-1.4632453373	 0.380695
O	 0.0440913374	 0.3579272504	-2.343454842	-0.316489
C	 0.5030916035	-1.9114066734	-1.7456749956	-0.092995
C	 0.1330010784	-2.4614617809	-3.15843983	-0.258409
C	 1.5952805296	-2.8807973352	-3.3670068671	-0.037525
C	 2.5010653577	-1.6885079767	-3.2553380826	-0.275606
C	 1.9776965912	-2.3260649763	-1.9955537597	-0.067334
H	 1.3002747207	 1.9864347105	-0.3776637833	 0.128166
H	-0.4493036616	 1.9469439563	-0.1967723849	 0.133281
H	 0.5891493758	 1.7748551107	 1.2333769811	 0.107687
H	 1.4271231791	-0.4441205664	 0.3552880086	 0.121219
H	-0.3013365917	-0.475986412	 0.5733179119	 0.120564
H	 0.0659226397	-2.5102826676	-0.9414470098	 0.080064
H	-0.5572312077	-3.3051642302	-3.0967088106	 0.101283
H	-0.2593725269	-1.7206764194	-3.858690209	 0.119708
H	 1.9199978681	-3.8045874263	-3.8293816457	 0.086022
H	 3.5500534541	-1.8815328403	-3.4559378139	 0.110249
H	 2.1560212328	-0.7048715153	-3.5616157283	 0.132376
H	 2.6357071886	-2.7418271958	-1.2421357496	 0.086024
