15
gdb 26044	3.28906	1.14004	1.06315	3.085	72.35	-0.239	-0.0091	0.2298	1161.2916	0.11419	-416.834888	-416.826817	-416.825873	-416.86828	29.323	
N	-0.1588244517	 1.4295872089	 0.1235711852	-0.498668
C	 0.0148036326	-0.0223896059	-0.0033744019	-0.243415
C	 0.782089869	-0.4113546378	-1.2150635246	 0.259154
N	 1.3659123447	-0.6663698534	-2.1798681614	-0.325134
C	 0.6446248611	-0.5919513688	 1.2277576141	 0.428708
C	 0.2389208635	-1.5010861052	 2.1516658959	-0.285545
C	 1.3025625437	-1.603013366	 3.107265254	-0.165516
C	 2.2685110868	-0.7474063266	 2.686502453	-0.012246
O	 1.8857578849	-0.1237420775	 1.5399766877	-0.185273
H	 0.7497625119	 1.8590611457	 0.2739887294	 0.25172
H	-0.5215679804	 1.8089034692	-0.7467509215	 0.245756
H	-0.9773274377	-0.4782885594	-0.0926946593	 0.146398
H	-0.6997086499	-2.0325939126	 2.1560804596	 0.120515
H	 1.336142723	-2.2291663504	 3.9845403694	 0.120977
H	 3.2400840286	-0.4744415602	 3.0633299404	 0.142567
