20
gdb 82947	2.21873	1.80501	1.54024	1.7474	78.19	-0.2128	0.0706	0.2833	1010.3923	0.170509	-403.104038	-403.095653	-403.094709	-403.136508	32.727	
C	-0.3314358153	 1.509610579	 0.0372166038	-0.311608
N	 0.0869804386	 0.1144338202	 0.0872126245	-0.124303
C	 1.3691073923	-0.4019169785	-0.3452708696	-0.093169
C	 2.6330633151	 0.4698907697	-0.373049247	-0.281494
C	 2.9270580211	 0.8383085301	 1.0780871743	 0.038249
O	 1.941074103	 1.6625354099	 1.7093097811	-0.250744
C	 1.8902506623	 0.2490926826	 1.9406840936	-0.025488
C	 0.9043933714	-0.5451669784	 1.088652741	 0.306898
C	 0.3513703137	-1.8125706431	 1.6988156444	-0.478937
H	 0.4798259667	 2.2377834152	-0.0348034692	 0.123829
H	-0.9965205178	 1.6272371179	-0.8261253436	 0.109174
H	-0.9065859822	 1.7434855985	 0.9374859086	 0.122552
H	 1.3221225038	-1.2201123384	-1.0634770724	 0.08344
H	 3.4642749451	-0.1219060515	-0.7723217787	 0.109336
H	 2.5381895685	 1.3579360396	-1.0082187812	 0.119152
H	 3.9490484978	 1.024809405	 1.4016115731	 0.096355
H	 2.0677682848	-0.0593630598	 2.9680487298	 0.0929
H	-0.3186965369	-1.5857007674	 2.5365348904	 0.120363
H	-0.2195975719	-2.3695234813	 0.9528329211	 0.130032
H	 1.15369182	-2.4561247292	 2.0778771359	 0.113465
