14
gdb 132159	3.18996	1.33333	0.94198	7.6977	69.37	-0.2148	-0.0128	0.202	1132.4644	0.102087	-478.019446	-478.01178	-478.010836	-478.051421	29.468	
N	 0.0995080647	 1.4027872909	 0.1435608298	-0.587778
C	-0.0006601536	 0.0148652784	 0.0367590077	 0.432765
C	-1.1677432983	-0.690670688	 0.0094844738	-0.338179
C	-1.2123895812	-2.1435433985	-0.0071702157	 0.297677
O	-2.2368199066	-2.8155545697	-0.0233898038	-0.40177
C	 0.1312618301	-2.7500486289	-0.0313161526	 0.122616
F	 0.2046546935	-4.0772803088	-0.077129691	-0.064138
C	 1.2628916217	-2.0197729053	-0.0120419118	-0.110868
N	 1.2019401264	-0.6409632407	 0.0128254663	-0.376205
H	 0.7382144061	 1.8227483682	-0.5214968174	 0.253551
H	-0.8008869076	 1.8591259218	 0.0967703855	 0.264466
H	-2.1150782249	-0.1652959583	-0.0163491823	 0.100828
H	 2.2481669097	-2.4659443047	-0.0244639982	 0.141893
H	 2.0374430799	-0.1194149463	 0.2215239897	 0.26514
