19
gdb 60332	3.38792	0.70115	0.62519	1.7403	73.57	-0.2498	-0.0927	0.1571	1778.7203	0.154859	-460.185408	-460.174819	-460.173875	-460.222816	36.551	
C	 0.1262978662	 1.4885591176	-0.1006467109	-0.405689
C	-0.0172446464	-0.0309965075	-0.169133875	 0.131373
O	 0.8277138211	-0.6755567889	 0.7843863531	-0.427603
C	-1.4744264901	-0.4846986859	-0.0113699036	-0.200355
C	-1.6263823906	-1.9995403791	-0.1317174072	-0.3074
C	-2.9832697663	-2.5120799576	 0.2733006491	 0.278504
O	-3.8465441737	-1.8586338805	 0.8149007693	-0.280682
C	-3.2912184402	-3.9895445454	-0.0191486316	 0.093721
O	-2.5437413313	-4.7256633054	-0.6065484151	-0.21735
H	 1.1771073971	 1.775120144	-0.1941416092	 0.126544
H	-0.4410487535	 1.9773126466	-0.8990581064	 0.11965
H	-0.2510036755	 1.8713897198	 0.8561921435	 0.109522
H	 0.3610011588	-0.3809219482	-1.1384058612	 0.090455
H	 0.6088770043	-0.3196582517	 1.6533493935	 0.277835
H	-1.8530389897	-0.1580577966	 0.9656302277	 0.106498
H	-2.099243405	 0.0175717198	-0.7591480344	 0.106426
H	-1.4100859333	-2.3631168525	-1.1440616364	 0.137351
H	-0.8796662107	-2.4998327378	 0.5013267112	 0.154936
H	-4.2871262712	-4.3005847507	 0.3625685835	 0.106266
