21
gdb 73253	2.39298	1.68379	1.42638	1.1467	83.6	-0.2367	0.0228	0.2596	1050.1624	0.183989	-387.091143	-387.083074	-387.08213	-387.123225	32.48	
C	-0.0206434641	 1.5461605618	-0.022979163	-0.468305
C	-0.0302502071	 0.0202020992	 0.0116081945	 0.256136
C	-1.3431566961	-0.6739101481	 0.5224596953	-0.259947
C	-0.4779835203	-1.6776534401	 1.3302822775	-0.274384
C	 0.7081060292	-0.6827173109	 1.1896477624	 0.113523
O	 2.0235086982	-1.1309886549	 0.9776168566	-0.267509
C	 2.2102269452	-1.9180713347	-0.1840773083	-0.127625
C	 1.4287303041	-1.446674684	-1.3768393288	-0.085209
C	 0.4302966498	-0.570283432	-1.2904597364	-0.106667
H	 0.9929067468	 1.9267662824	-0.1886324007	 0.124043
H	-0.6557158558	 1.9290421088	-0.8307988646	 0.112062
H	-0.3919144689	 1.9631315048	 0.9195561208	 0.108799
H	-1.9184839479	-0.0051667923	 1.1695429822	 0.098033
H	-2.0106573606	-1.0862074411	-0.2373449874	 0.098573
H	-0.7980705986	-1.9303480404	 2.3429815609	 0.097997
H	-0.3069047293	-2.6021421848	 0.7744134661	 0.110095
H	 0.7686885859	-0.0245373051	 2.0612671822	 0.079077
H	 3.2856363047	-1.8847114249	-0.3971604705	 0.115733
H	 1.970439154	-2.977339586	 0.0213520021	 0.100038
H	 1.7139383757	-1.8766947802	-2.33384568	 0.091167
H	-0.1057633248	-0.2580115874	-2.185685151	 0.084369
