21
gdb 39288	2.61509	2.02368	1.47837	1.6879	79.92	-0.2418	0.077	0.3188	964.8156	0.187211	-387.109251	-387.102507	-387.101563	-387.140161	28.582	
C	 0.1752119861	 1.5467311951	 0.3499372663	-0.235702
C	 1.475824727	 2.0408675073	-0.3364801335	-0.220197
C	 2.3640465124	 0.7867802903	-0.4737923743	-0.004454
C	 3.088205207	 0.3956321291	 0.8496044649	-0.223634
C	 2.903203242	-1.1257577902	 1.0062259924	-0.224794
C	 1.5521035621	-1.4003204943	 0.3618842498	 0.129817
O	 0.4436406322	-0.8309068026	 1.1098449515	-0.32591
C	 0.0829301723	 0.0488393942	 0.0077842834	 0.13926
C	 1.357931615	-0.3594437381	-0.7580499206	-0.101191
H	 0.2225029962	 1.6490847172	 1.4381681014	 0.117176
H	-0.7011486421	 2.1051871073	 0.0088320127	 0.095035
H	 1.238111853	 2.4343446704	-1.3318114785	 0.094187
H	 1.969181047	 2.8473346742	 0.2152501454	 0.097013
H	 3.0916323286	 0.8958901914	-1.2827906726	 0.063542
H	 4.1406728093	 0.691838988	 0.8416752844	 0.093542
H	 2.6194907004	 0.9081617155	 1.6952349333	 0.108012
H	 3.6715903592	-1.6764399294	 0.4477784312	 0.094294
H	 2.9449704132	-1.4621370459	 2.0467454038	 0.105778
H	 1.3674439576	-2.4545048191	 0.1275117586	 0.064329
H	-0.8819315015	-0.2481376888	-0.4179801648	 0.067934
H	 1.2827775431	-0.6766612417	-1.7975695747	 0.065964
