14
gdb 28135	5.39345	1.32937	1.06875	1.6822	71.17	-0.1777	0.0261	0.2037	1038.914	0.105692	-429.09517	-429.088196	-429.087252	-429.126202	27.225	
N	 0.0428854226	 1.3479786252	 0.1406894455	-0.596511
C	-0.0209355811	-0.0367169342	 0.0326971114	 0.372913
N	-1.1411259792	-0.742442397	 0.0404571954	-0.417705
C	-0.6691483303	-2.0299049655	 0.0246680598	 0.339204
C	 0.6980539481	-2.1164622683	-0.0099399809	 0.327429
N	 1.1331938864	-0.7951290621	-0.01685083	-0.431554
N	 1.1648541887	-3.3918479715	-0.0680189392	-0.358722
C	 0.0472628127	-4.1054718547	-0.0582795428	-0.019921
N	-1.100756329	-3.3353063163	-0.0070533535	-0.390352
H	 0.62382832	 1.7865937187	-0.5643898342	 0.250293
H	-0.8918000835	 1.7354467482	 0.110474109	 0.262699
H	 2.0660850524	-0.4481662497	 0.1233581207	 0.26795
H	 0.0006013845	-5.1829692536	-0.0815367822	 0.125782
H	-2.0459589923	-3.6773367192	 0.0022909611	 0.268496
