15
gdb 44902	4.34893	1.18005	1.11917	3.9881	71.62	-0.2642	-0.0055	0.2588	1078.7828	0.113101	-420.60395	-420.596857	-420.595913	-420.635471	27.906	
O	-0.0147728452	 0.0609195356	 0.0604417052	-0.340475
C	 0.0535429166	 1.2500324663	 0.0221190851	 0.444973
O	-1.0382572639	 2.095074538	 0.0521697435	-0.242098
C	-0.4097470506	 3.4032294452	-0.0204155298	 0.096541
C	 0.6470093978	 3.2130273799	-1.1276651102	-0.258489
C	 1.22406526	 2.2192043743	-0.0612694967	-0.187014
C	 0.7353368591	 3.2601128522	 1.0361248473	-0.215091
C	 1.5878399487	 4.4082412983	 1.247466347	 0.303488
C	 2.2928038478	 5.3631663595	 1.4401494104	-0.41734
H	-1.1663960856	 4.1826654466	 0.006042225	 0.111242
H	 0.3023381376	 2.8022475191	-2.0780090941	 0.12553
H	 1.2848023204	 4.0842505943	-1.2724112202	 0.138429
H	 2.2242460081	 1.7980431415	-0.0823512292	 0.111609
H	 0.4141333162	 2.8259191815	 1.9875026858	 0.125725
H	 2.9154893431	 6.2057788877	 1.6141264109	 0.202971
