20
gdb 18722	3.06094	2.17014	1.48017	1.2363	74.34	-0.2437	0.0832	0.3269	915.1621	0.17915	-349.00521	-348.99781	-348.996866	-349.036506	29.461	
C	-0.0884560992	 1.5170765531	-0.0215998507	-0.397981
C	 0.0566933033	 0.0015165742	 0.0214014698	 0.11529
O	 0.719512267	-0.394760882	-1.1744751266	-0.258586
C	 0.8544131579	-1.8035398213	-1.2631965688	-0.067512
C	 1.8817475086	-2.3415259047	-0.2605501311	-0.229753
C	 1.7179209461	-1.6912944389	 1.1122710881	-0.037576
C	 2.2899379376	-0.3126216252	 1.3500275398	-0.284685
C	 0.7988106745	-0.4942437398	 1.2523593904	-0.020518
H	 0.8946063268	 1.9963227803	-0.0222211744	 0.123766
H	-0.6239112484	 1.8216028592	-0.9251184034	 0.119213
H	-0.6452730246	 1.8716279927	 0.8512664086	 0.110655
H	-0.9507427334	-0.4543623258	 0.0250810741	 0.059027
H	-0.1260246954	-2.278125626	-1.0898679518	 0.08395
H	 1.1548304976	-2.0227557358	-2.2921860374	 0.10124
H	 1.7612059884	-3.427653139	-0.1803518973	 0.096256
H	 2.894204123	-2.1656751201	-0.6421799507	 0.104596
H	 1.7524568865	-2.3719459128	 1.9568904881	 0.081366
H	 2.7232318785	-0.0868588895	 2.3181275028	 0.103865
H	 2.7881845859	 0.1581892599	 0.5083016555	 0.118461
H	 0.2283078593	-0.4142249886	 2.1735904049	 0.078927
