23
gdb 117706	3.79195	0.70632	0.69364	3.2345	83.08	-0.2409	-0.0195	0.2214	1748.2101	0.201417	-425.445866	-425.434499	-425.433555	-425.482819	40.825	
C	-0.054923173	 1.6367354044	 0.0982131863	-0.382955
C	 0.0251115543	 0.1186381507	-0.0876590443	-0.178816
C	-1.3531722869	-0.5519399339	-0.0412302653	-0.196741
C	-1.3381859343	-2.0947878053	-0.0089379521	 0.312385
C	-0.634278888	-2.6951043165	-1.2299762103	-0.400603
O	-0.5930572208	-2.5617333943	 1.1243626832	-0.45607
C	-2.7951310324	-2.6149632314	 0.0839864102	-0.304459
C	-2.8963221207	-4.1225453613	 0.1848231663	 0.152208
O	-3.6688780802	-4.7958995415	-0.4499204083	-0.248616
H	 0.9380724946	 2.094448682	 0.054183243	 0.114877
H	-0.6703744874	 2.1022043211	-0.6798441812	 0.11485
H	-0.4980043885	 1.8960814543	 1.0664302066	 0.111782
H	 0.5127916259	-0.1014996689	-1.044146081	 0.101797
H	 0.6600759006	-0.3218994893	 0.6889100411	 0.107646
H	-1.8881854838	-0.2047006658	 0.8563957876	 0.079524
H	-1.9595994127	-0.2197355461	-0.8937569574	 0.099132
H	 0.4115676797	-2.3838491304	-1.2637528896	 0.130271
H	-0.6551065334	-3.7878042237	-1.1886619267	 0.130361
H	-1.1268404017	-2.3787906198	-2.1540255598	 0.119715
H	-0.9487377912	-2.133333853	 1.9112315905	 0.277027
H	-3.2515785009	-2.1984660977	 0.9954783932	 0.106153
H	-3.397567344	-2.2804938078	-0.7657235288	 0.119193
H	-2.1957123852	-4.5804413157	 0.9150705067	 0.091339
