23
gdb 63931	2.31416	1.5369	1.38544	1.2323	84.81	-0.2356	0.0711	0.3066	1117.7566	0.204659	-388.273843	-388.264464	-388.26352	-388.307336	37.376	
C	 0.1330647879	 1.5273703852	-0.0606225232	-0.457633
C	 0.033890674	 0.0062142024	 0.0227122033	 0.293653
C	-1.4260875497	-0.4380055884	-0.1323826052	-0.425555
C	 0.9660228918	-0.823991133	-0.924548117	-0.277984
C	 1.4437498803	-1.7082112147	 0.2618101061	-0.090742
C	 2.8028454875	-1.2764864763	 0.8569025975	-0.221216
C	 2.0881920917	-0.1887556588	 1.7145839492	-0.307044
C	 0.696274971	-0.7090169912	 1.2385615104	 0.391165
O	-0.2173381694	-1.0531153548	 2.2409059592	-0.482368
H	 1.169232022	 1.8780785794	-0.0384312754	 0.107435
H	-0.3124245908	 1.8904555852	-0.9940198476	 0.110817
H	-0.4031753145	 2.0040805275	 0.7679252827	 0.117246
H	-1.8092786894	-0.116483955	-1.1074861296	 0.100478
H	-1.5266394228	-1.5250873145	-0.0679170971	 0.11429
H	-2.0569057865	-0.0039679761	 0.648321963	 0.120574
H	 0.4353199636	-1.3552700738	-1.7184511925	 0.096321
H	 1.771149553	-0.2413144	-1.3836163605	 0.088262
H	 1.2180664652	-2.773425349	 0.1984290872	 0.061827
H	 3.2732218242	-2.0511785675	 1.4687430088	 0.094623
H	 3.5437203181	-0.9169627135	 0.1372160116	 0.096183
H	 2.2262495481	-0.312594953	 2.7938346236	 0.090708
H	 2.323086222	 0.8503175783	 1.4734543608	 0.103274
H	 0.2600013327	-1.4822564284	 2.9581883047	 0.275686
