16
gdb 32388	6.61985	0.8641	0.76806	2.5618	85.81	-0.1926	0.0001	0.1927	1430.6339	0.123676	-400.742162	-400.733471	-400.732527	-400.77542	32.398	
C	-0.0291646582	 1.4106309893	-0.0047169699	-0.244984
O	-0.0102770406	-0.0027063106	-0.0227231877	-0.266998
C	 0.6174975173	-0.5909134098	 1.0260577721	 0.393968
C	 1.242833755	-0.0009931594	 2.1127973365	-0.232509
N	 1.7254584362	-1.0186828692	 2.8988253892	-0.331587
C	 1.4222865876	-2.2387573717	 2.338728544	 0.226921
C	 0.727215413	-1.9950253036	 1.1629124933	-0.413237
C	 1.8044027427	-3.4503504455	 2.9467188922	 0.263158
C	 2.1386407616	-4.4789150064	 3.4796225604	-0.450651
H	 0.9890548242	 1.8238667274	-0.0204855446	 0.116991
H	-0.562234613	 1.7296541171	-0.9016199337	 0.133311
H	-0.5517113307	 1.7917625313	 0.8838064046	 0.116991
H	 1.3815121825	 1.030488803	 2.3857880454	 0.121679
H	 2.2287550226	-0.9034724224	 3.7605496528	 0.266793
H	 0.3439723508	-2.7382955445	 0.4833041377	 0.110715
H	 2.4279022191	-5.3909118949	 3.9400316575	 0.18944
