19
gdb 22388	2.64846	1.52994	1.14079	1.1395	78.87	-0.2272	0.0167	0.2439	1108.9836	0.160026	-419.134227	-419.126081	-419.125137	-419.166576	32.166	
C	-0.0843056204	 1.5494424758	 0.0247330243	-0.505901
C	-0.0139194387	 0.0441689007	 0.0228569653	 0.22686
C	 0.9224277712	-0.8172408413	-0.8905482881	-0.218681
N	 0.7074303307	-1.9398275723	 0.1062750702	-0.1329
C	 0.6448580249	-0.8327463098	 1.1409426444	-0.218682
C	-0.7524767081	-2.1896213423	-0.0950966522	-0.261575
C	-1.2783176298	-0.7577121307	-0.1560305563	 0.420108
N	-2.4390055394	-0.2748172532	-0.3109386849	-0.289166
O	-3.3947630408	-1.3074786535	-0.4494013793	-0.397698
H	 0.9070906039	 1.9919734492	 0.1634957193	 0.112002
H	-0.4989175571	 1.9187009442	-0.9184571396	 0.131785
H	-0.7373624441	 1.9053742659	 0.8276606524	 0.131782
H	 0.6114578092	-1.0364938951	-1.9158933193	 0.108358
H	 1.9642359561	-0.4878698861	-0.8690888781	 0.110604
H	 1.6535657267	-0.5052297502	 1.4046684945	 0.110604
H	 0.0706889851	-1.0667007621	 2.0418877346	 0.108358
H	-0.930944339	-2.7476310916	-1.0183376566	 0.12976
H	-1.170914427	-2.7610146911	 0.7379819745	 0.12976
H	-4.2133431634	-0.8118287567	-0.557465565	 0.30462
