16
gdb 4568	5.7343	1.52051	1.21995	2.0337	74.17	-0.2398	-0.0329	0.2069	991.6866	0.131169	-342.855663	-342.847735	-342.846791	-342.891086	27.435	
C	-0.0125990692	 1.5276234846	 0.0087542343	-0.501044
C	 0.0050958589	 0.0232863141	 0.0068168491	 0.237422
C	 0.1851596575	-0.7276792723	-1.1575495063	-0.049153
N	 0.2057861478	-2.0563848105	-1.1779443837	-0.280435
C	 0.041897024	-2.6807933121	-0.0010536263	 0.352109
C	 0.0646369199	-4.1839626024	-0.0170897607	-0.459978
N	-0.139274746	-2.0711189227	 1.1747309543	-0.279327
C	-0.1550651573	-0.7365510596	 1.1614189801	-0.056044
H	 0.9411922795	 1.9406174099	-0.337807204	 0.139312
H	-0.7931154614	 1.9206453092	-0.6517164459	 0.138697
H	-0.1982698365	 1.9165441138	 1.0136934064	 0.130985
H	 0.3182794801	-0.2285296516	-2.1174148882	 0.107435
H	 1.0153054642	-4.5448052038	-0.4224409765	 0.13888
H	-0.0742984743	-4.5759888921	 0.9905430031	 0.135159
H	-0.7246013259	-4.5684376295	-0.671054341	 0.13893
H	-0.3038761214	-0.2473522852	 2.1236804452	 0.107052
