21
gdb 94782	2.72656	1.44749	1.07404	2.7136	83.34	-0.234	-0.0117	0.2223	1192.0716	0.183046	-387.126695	-387.117967	-387.117023	-387.160034	33.738	
C	 0.0000997025	 1.5762295834	 0.0350083751	-0.403469
C	 0.0846943375	 0.054549294	-0.0264081977	-0.080068
C	 0.8187193074	-0.5617088516	-1.2323651581	-0.227608
C	 1.2134849743	-1.9820071495	-0.7634136603	-0.321115
C	 1.5299187654	-1.7927361255	 0.7129305818	 0.25723
C	 1.7776309993	-2.9107436018	 1.7001889249	-0.307944
C	 2.9134807635	-2.023577464	 1.3101991183	-0.291629
C	 0.801772688	-0.5673323995	 1.1799206185	 0.351511
O	 0.7940250437	-0.1350117731	 2.3093865965	-0.352819
H	 0.9948979636	 2.0253124953	-0.0567563637	 0.117386
H	-0.6255136738	 1.9732775642	-0.7699357731	 0.111013
H	-0.4195959424	 1.8916627589	 0.9938741636	 0.137302
H	-0.9349258228	-0.3633423446	 0.0061222543	 0.10099
H	 0.2137756933	-0.5696909309	-2.142672737	 0.100334
H	 1.7221161839	 0.0239982833	-1.4440433371	 0.103735
H	 0.364642649	-2.6664852274	-0.8878901794	 0.103065
H	 2.0495464967	-2.3961552688	-1.3336796758	 0.101406
H	 1.351955048	-2.777506408	 2.6892128612	 0.13394
H	 1.752488144	-3.9236340509	 1.3121801308	 0.115907
H	 3.674677773	-2.4127719354	 0.6423568281	 0.116136
H	 3.253761846	-1.2906636482	 2.0334826993	 0.134698
