13
gdb 20451	6.45657	1.49904	1.33252	3.1352	60.35	-0.2695	-0.0285	0.241	883.9266	0.097744	-394.749374	-394.743079	-394.742135	-394.780528	22.578	
C	 0.2070700537	 1.5393695006	 0.1118031275	-0.228587
N	 1.2544516893	 0.5417907521	-0.0942004209	-0.296577
C	-0.1437890493	 0.0889692688	 0.0558758955	-0.153204
C	-0.4715368269	-0.6798422736	 1.2645263138	 0.489523
N	-1.3034666794	-1.6785101661	 1.3566933705	-0.330493
C	-1.2291150793	-1.9763323913	 2.6942947754	 0.036121
N	-0.4193146553	-1.2285020145	 3.3909646259	-0.110307
O	 0.0957497378	-0.3476435511	 2.4292936012	-0.19735
H	 0.2372762903	 2.0350170303	 1.0770623653	 0.146516
H	-0.116734013	 2.1594707661	-0.7197669444	 0.127479
H	 1.5175885445	 0.492908424	-1.0750467759	 0.246656
H	-0.6770761416	-0.273464316	-0.8164225127	 0.122333
H	-1.7923387707	-2.7726681091	 3.1588481989	 0.147891
