21
gdb 102385	1.69157	1.53594	1.07105	2.5907	78.84	-0.2506	0.0248	0.2754	1261.0362	0.181049	-420.407471	-420.396612	-420.395668	-420.443174	38.997	
C	 0.1505241188	 1.5695095453	-0.0575952995	-0.405272
C	 0.0420355318	 0.0481374363	 0.0770682127	-0.183479
C	-1.4076387355	-0.4973282489	 0.0286034386	 0.070913
C	-2.2200474604	-0.0417237304	 1.273401097	-0.093416
O	-1.6444300463	-0.4516774388	 2.4905808627	-0.415045
N	-2.1297037079	-0.0423288749	-1.1554136279	-0.296175
C	-1.5985716555	-0.4672380836	-2.4503162935	-0.339175
C	-1.3407683383	-1.9863492738	 0.0965521261	 0.249824
N	-1.3416324393	-3.1421879381	 0.1553475229	-0.354004
H	 1.2040172637	 1.8618840468	-0.0934742615	 0.118629
H	-0.3384015495	 1.9300200162	-0.9656450867	 0.134157
H	-0.3007400789	 2.0869616699	 0.7936700733	 0.127662
H	 0.6266765755	-0.4388893856	-0.7097389921	 0.111742
H	 0.470163037	-0.2777115441	 1.0291373282	 0.128686
H	-2.2479624266	 1.0494520192	 1.2817071064	 0.133624
H	-3.2548853242	-0.403427191	 1.1680218284	 0.096549
H	-1.7017875837	-1.4130221242	 2.5431690098	 0.299769
H	-3.0999379265	-0.330203763	-1.0810023357	 0.227815
H	-2.2995487419	-0.1567401942	-3.2291981942	 0.128477
H	-0.6451713939	 0.0302062481	-2.6493779394	 0.133233
H	-1.4442099084	-1.5543598112	-2.5356628256	 0.125487
