16
gdb 27907	1.82849	1.82271	0.91355	1.3302	77.09	-0.1972	0.0287	0.2259	1203.4053	0.125425	-437.955904	-437.947778	-437.946834	-437.987929	32.582	
N	-0.0158076327	 1.4128788291	 0.265137856	-0.592695
C	 0.0020842731	 0.0299231411	 0.0905258152	 0.367297
C	-1.2007272684	-0.6850056561	 0.0371407923	-0.307221
C	-1.1713200347	-2.0704099929	-0.0749573943	 0.438586
O	-2.3730649531	-2.7146604654	-0.1230948607	-0.445774
C	 0.0388485585	-2.764256043	-0.1386302811	-0.461408
C	 1.2303242932	-2.0378277431	-0.0869414921	 0.438586
O	 2.4485639023	-2.6492468586	-0.1471545225	-0.445774
C	 1.223254881	-0.6521201835	 0.0250448918	-0.307222
H	 0.8113568738	 1.8921463276	-0.0584769875	 0.246513
H	-0.8588523115	 1.8694865996	-0.0501558056	 0.246513
H	-2.1579077022	-0.1792525199	 0.0889676533	 0.085426
H	-2.2173531562	-3.6612646759	-0.1981806922	 0.294516
H	 0.0530994663	-3.8477571543	-0.2285291488	 0.062714
H	 2.3178475204	-3.5997368573	-0.2208130256	 0.294516
H	 2.1668327704	-0.1205802473	 0.0673863818	 0.085426
