11
gdb 130525	4.20232	1.75914	1.24004	1.9198	64.41	-0.2858	-0.1042	0.1816	871.8091	0.06844	-447.734857	-447.729136	-447.728192	-447.764933	21.889	
O	-0.0735692557	 1.3225425695	 0.009853204	-0.264083
N	 1.3870297205	 1.7562772759	-0.0019825113	 0.022577
N	 2.0995861021	 0.7534004216	-0.0142262657	-0.148918
C	 1.3259348519	-0.412723591	-0.0127354127	 0.320628
C	-0.0063459542	 0.0045975026	 0.0023583754	 0.332384
C	-0.9801678063	-0.9981358853	 0.0065902789	-0.077223
N	-0.5872878163	-2.2661107392	-0.0038210432	-0.233107
C	 0.7314569623	-2.5411735545	-0.0180594613	 0.05694
N	 1.7378293706	-1.6688311904	-0.0232727024	-0.30189
H	-2.0444539836	-0.7846153011	 0.0180269929	 0.152342
H	 0.9983257888	-3.5929055782	-0.0261091146	 0.140351
