22
gdb 62684	2.37262	1.75094	1.2867	1.361	86.32	-0.2091	0.0703	0.2793	1101.9921	0.19267	-367.125797	-367.116728	-367.115784	-367.15857	36.375	
C	-0.0803981283	 1.5915963942	 0.0407420852	-0.498658
C	 0.0171520559	 0.0646846864	 0.0765388588	 0.288476
C	-1.2328663443	-0.5611396839	-0.5339648673	-0.441409
N	 1.1876108428	-0.7878473655	-0.3387739188	-0.23668
C	 2.5387630186	-0.3268607313	 0.1452404194	 0.007319
C	 2.6727529462	 0.9566110577	 0.9026132502	-0.315237
C	 2.0983034762	-0.2583982668	 1.592052283	-0.129803
C	 0.7143214686	-0.7553269152	 1.1034396788	 0.283835
C	 0.1600801128	-1.9589210241	 1.8170500123	-0.483217
H	 0.5187999149	 2.0168272522	-0.7702190471	 0.134757
H	-1.1203860868	 1.8737106588	-0.1480612044	 0.114655
H	 0.2124323767	 2.0621389348	 0.9797534352	 0.134273
H	-1.4147420478	-0.1177959405	-1.5188965746	 0.118833
H	-1.122072625	-1.6366732483	-0.6723256316	 0.129627
H	-2.1115013292	-0.3654098287	 0.0914046432	 0.110237
H	 3.3866652127	-0.8275284682	-0.3057567463	 0.099454
H	 3.70209876	 1.1356160991	 1.2061628607	 0.112382
H	 2.1365032151	 1.8644050452	 0.681663493	 0.114767
H	 2.5661061183	-0.6904244029	 2.4677553997	 0.090304
H	-0.1158220634	-1.6862408776	 2.8434880731	 0.11744
H	-0.7230676822	-2.3720564714	 1.3280036129	 0.124406
H	 0.9171068181	-2.7492487341	 1.8770794245	 0.12424
