21
gdb 119095	2.35462	1.17323	0.94401	3.5554	75.17	-0.2471	0.0641	0.3112	1336.3704	0.18135	-461.320757	-461.31079	-461.309846	-461.356785	35.272	
C	 0.0357815377	 1.4301479737	 0.0854913144	-0.2328
O	-0.023973206	 0.0209977627	 0.0208171793	-0.248963
C	 0.7497996736	-0.526359878	-1.0361970441	-0.132616
C	 0.6369305966	-2.0434084939	-1.0142770988	 0.224904
C	 1.0950790007	-2.6444931345	 0.3189460996	-0.119152
O	 0.1835240924	-2.4038296057	 1.3708627817	-0.42796
C	-0.6992373321	-2.6268120471	-1.5321061039	-0.10569
O	-0.0387959337	-3.2720115546	-2.6445599757	-0.272283
C	 1.2369617076	-2.724505754	-2.2688035459	-0.127781
H	 1.0628495176	 1.783792518	 0.2608320903	 0.113673
H	-0.3354229856	 1.8876217817	-0.8433146113	 0.115791
H	-0.5981168964	 1.747014945	 0.9163307129	 0.136393
H	 0.396445624	-0.1282796628	-2.0014241999	 0.097153
H	 1.8065218346	-0.2266501875	-0.9235580873	 0.09308
H	 1.1707162108	-3.7331938658	 0.2183358604	 0.107385
H	 2.1067633606	-2.2703658777	 0.5583910162	 0.078263
H	-0.0085481674	-1.4568729389	 1.349514846	 0.290749
H	-1.1835302778	-3.3424766048	-0.8598718336	 0.118024
H	-1.438896088	-1.8879946865	-1.86493092	 0.097891
H	 1.6349424006	-2.0409727591	-3.0319299265	 0.092694
H	 1.9848911102	-3.5036251	-2.0720828736	 0.101245
