12
gdb 27143	3.41942	1.18315	0.91822	3.4728	58.52	-0.2354	-0.0209	0.2144	1159.7584	0.076848	-509.795406	-509.78774	-509.786796	-509.828709	26.728	
O	 0.4101693149	 1.1642292991	-0.3733007773	-0.423914
C	 0.1313088179	-0.135345385	-0.1806334401	 0.232225
C	-0.3166692435	-1.0379581132	-1.0905457664	 0.271258
O	-0.6864137928	-0.9821793555	-2.3873566695	-0.210655
C	 0.3265704721	-0.9839789413	-3.327055264	 0.174328
O	 0.0962903345	-0.9113054948	-4.4870092564	-0.236392
O	-0.4593233011	-2.2431453905	-0.4440945561	-0.152282
C	-0.0868257825	-1.9842051532	 0.8216078579	 0.089264
N	 0.2769189785	-0.7587083895	 1.0411967493	-0.32931
H	 0.6958758669	 1.5221347718	 0.4761454246	 0.313966
H	 1.3197629023	-1.0502774677	-2.8498518083	 0.106303
H	-0.1266258371	-2.8026089002	 1.5223304964	 0.165208
