22
gdb 9432	5.9206	0.71329	0.6671	0.3832	76.07	-0.2502	0.0765	0.3267	1716.7557	0.197673	-387.328088	-387.317423	-387.316479	-387.364385	36.772	
C	-0.1219172484	 1.3604007103	 0.0476382256	-0.22673
O	-0.0716303613	-0.0429990855	-0.0135287957	-0.230034
C	 0.6883902662	-0.5188929414	-1.1046712997	-0.059035
C	 0.6905387869	-2.0419893062	-1.0556586771	-0.204338
C	 1.3816022532	-2.7096833696	-2.2552355013	 0.032703
C	 2.8825375209	-2.3968287709	-2.3377826329	-0.391587
C	 1.1466911499	-4.2209690905	-2.208841709	-0.078726
O	 1.6642324071	-4.7962201768	-3.4005326232	-0.424337
H	 0.8806943849	 1.8032011379	 0.1641222666	 0.101063
H	-0.5817740262	 1.794946117	-0.8548810474	 0.101039
H	-0.7284141493	 1.6304675565	 0.9158471751	 0.124625
H	 0.2524974286	-0.1675630064	-2.0572229268	 0.082257
H	 1.713650414	-0.1168674439	-1.0539709406	 0.086865
H	 1.1693902174	-2.3613116901	-0.1208840069	 0.100905
H	-0.3545481458	-2.3704051581	-0.9991578784	 0.102004
H	 0.9029069251	-2.3505444682	-3.17750993	 0.081144
H	 3.3875316275	-2.6701861429	-1.4027545445	 0.106214
H	 3.3415242212	-2.9661855453	-3.1488288587	 0.134212
H	 3.0690456157	-1.3344365582	-2.5187292724	 0.11027
H	 1.6415960923	-4.6421017299	-1.3173902094	 0.082152
H	 0.0678888222	-4.4224084967	-2.1116932565	 0.083013
H	 1.5796432879	-5.7514386512	-3.335263757	 0.286321
