19
gdb 110224	2.1864	1.40306	1.25198	2.8846	72.64	-0.2275	0.0599	0.2874	1150.6825	0.155915	-460.098931	-460.089213	-460.088268	-460.133319	35.172	
C	 0.3179526931	 1.0872643207	 0.3449086284	-0.234412
O	-0.3456763242	 0.0474331153	-0.3442890586	-0.227681
C	 0.4533364628	-0.5703787993	-1.2957476289	-0.016606
C	 1.4779504055	-1.638839278	-0.9708886056	 0.177095
O	 2.7920699515	-1.6361463043	-1.3989892287	-0.447178
C	 0.917464766	-2.5499571109	 0.1195248084	-0.138067
O	-0.3014990322	-2.7626317178	-0.6365096126	-0.310834
C	 0.193504653	-1.9864120228	-1.7303509336	 0.355682
C	-0.1412168129	-2.4443082309	-3.1114941154	-0.491788
H	 1.2089424428	 0.7203256852	 0.8765802845	 0.100455
H	 0.628745556	 1.8940649816	-0.3367714487	 0.105964
H	-0.3866734609	 1.4934527145	 1.0740818619	 0.133802
H	 0.7791380494	 0.0740624483	-2.118161615	 0.088271
H	 3.2382395283	-0.8692427872	-1.0235416512	 0.288819
H	 1.4838263043	-3.4824670025	 0.2176496075	 0.112327
H	 0.7227152462	-2.1138818335	 1.1051683027	 0.106163
H	-1.22090207	-2.3761376118	-3.2848543628	 0.136981
H	 0.3646611874	-1.8229918818	-3.855495782	 0.127995
H	 0.164184124	-3.4845786947	-3.2580014803	 0.133013
