21
gdb 122723	9.01508	0.40137	0.38886	1.4534	103.11	-0.2392	-0.0077	0.2315	2757.9413	0.179545	-349.916426	-349.905422	-349.904478	-349.953775	38.802	
C	-0.0315574136	 1.6050205804	 0.0315014788	-0.38
C	-0.0024238268	 0.0744629593	 0.0078223338	-0.172788
C	 0.702541701	-0.4940221158	-1.2287781476	-0.155281
C	 0.7333917451	-2.0246073031	-1.2555061125	-0.173448
C	 1.4473521061	-2.5776186889	-2.5083050559	-0.399812
C	 1.4873201413	-4.0306531581	-2.5525664814	 0.341134
C	 1.5097388668	-5.2409341699	-2.5698957406	-0.197137
C	 1.5349359647	-6.6013702589	-2.5897315085	 0.28903
C	 1.5572925683	-7.8088321495	-2.6072121196	-0.558677
H	 0.9823684518	 2.0204454147	 0.0259414687	 0.114316
H	-0.5559614579	 2.0046222883	-0.8436972223	 0.114316
H	-0.5402304472	 1.9811211475	 0.9244641054	 0.113293
H	 0.4979054692	-0.2979270258	 0.9113367357	 0.097661
H	-1.0286221418	-0.3136331595	 0.0483115809	 0.097661
H	 0.2025745153	-0.1227527042	-2.1345016846	 0.094243
H	 1.7304678537	-0.1070408119	-1.270694259	 0.094243
H	 1.2400055229	-2.4058728052	-0.3612116932	 0.111407
H	-0.2880114923	-2.4215882311	-1.2250865437	 0.111406
H	 0.9458997109	-2.2005745491	-3.410154419	 0.13538
H	 2.4726347583	-2.1848739045	-2.5470056886	 0.135386
H	 1.576754604	-8.8699809648	-2.6223641368	 0.187667
