21
gdb 59883	3.60605	0.8884	0.79028	2.893	81.39	-0.2413	0.0415	0.2828	1539.8991	0.181327	-420.426017	-420.415739	-420.414795	-420.462934	36.651	
C	-0.2597809838	 1.487729923	-0.0638954584	-0.382709
C	 0.0587833175	-0.0087076303	 0.0583213278	 0.073704
C	 0.8505521893	-0.5344614108	-1.1401678045	-0.400566
N	 0.7859707426	-0.3084629346	 1.2895254766	-0.335806
C	 0.1504263031	-0.4458625577	 2.4880084439	 0.442507
O	-1.0580961753	-0.4498691766	 2.627165603	-0.391427
N	 1.0714416405	-0.5555388548	 3.5669206116	-0.148921
C	 1.6513248817	-1.8713303408	 3.8659658731	-0.23526
C	 0.6209206781	-1.2612902988	 4.7526695359	-0.207982
H	 0.6602343527	 2.0815175736	-0.1153201578	 0.105721
H	-0.8424237876	 1.6871244215	-0.9692764976	 0.113184
H	-0.8410856903	 1.8204615367	 0.7994397695	 0.14076
H	-0.8862542642	-0.5540184633	 0.1375343248	 0.115004
H	 1.8159019034	-0.0209476095	-1.2309784853	 0.110688
H	 1.0422641231	-1.6070818956	-1.0458984994	 0.121054
H	 0.2990032738	-0.3614303733	-2.0685469929	 0.123099
H	 1.7752765476	-0.1147934014	 1.319347487	 0.24306
H	 1.3445747859	-2.7070020046	 3.2418285832	 0.129651
H	 2.700454979	-1.868848233	 4.1483709385	 0.120467
H	 0.9145973076	-0.8128217967	 5.6969336244	 0.120197
H	-0.3850575647	-1.668035913	 4.7173510667	 0.143575
