16
gdb 132559	3.05648	1.35333	0.94442	4.0774	76.33	-0.2085	-0.0194	0.1891	1168.405	0.124813	-442.105813	-442.097826	-442.096881	-442.13807	30.813	
C	-0.0077370559	 1.4987065728	-0.0343574492	-0.500433
C	 0.0054064943	-0.005449276	 0.0019791921	 0.285639
N	-0.0460905389	-0.6482484205	-1.1712457596	-0.365542
C	-0.0235218605	-1.9595595553	-1.1739321001	 0.310932
F	-0.0753739819	-2.5513037127	-2.3706035617	-0.083666
C	 0.0492152315	-2.7518146887	-0.0363055133	-0.269555
C	 0.0963458642	-2.0942630028	 1.1837607849	-0.13
C	 0.075611964	-0.6965846449	 1.2270282912	 0.234602
N	 0.1885331423	-0.002607781	 2.4375220862	-0.595081
H	 0.8601762449	 1.9173361062	 0.4892831352	 0.136455
H	 0.0034050145	 1.8377736482	-1.0704006675	 0.148267
H	-0.9049165091	 1.9100145581	 0.4492913898	 0.121843
H	 0.0635558872	-3.8316650592	-0.1120426079	 0.112632
H	 0.1521340326	-2.662621796	 2.1077085457	 0.098361
H	-0.0683063433	-0.5458704826	 3.2497688288	 0.246116
H	-0.2681754958	 0.8981143746	 2.4509970655	 0.249429
