21
gdb 72388	2.58555	1.90586	1.37249	0.2737	86.2	-0.23	0.0255	0.2555	1019.7449	0.185005	-349.942547	-349.9351	-349.934156	-349.973792	31.324	
C	-0.042462475	 1.4633114445	-0.0584802362	-0.47242
C	-0.0651009014	-0.0553237038	-0.0004684833	 0.355404
C	 1.0205615523	-0.7152732872	-0.8613407566	-0.348814
C	 0.6086148555	-2.0149313419	-1.5060089217	-0.055228
C	-0.4558591988	-2.7045906644	-1.1001054329	-0.065916
C	-1.2701831384	-2.2117595338	 0.0624346461	-0.085868
C	-0.4850890663	-2.1225001785	 1.4284019278	-0.253238
C	-0.5335901558	-0.5980387132	 1.3388201946	-0.097737
C	-1.4304609632	-0.6733157929	 0.1031220091	-0.105047
H	 0.9224614841	 1.8563391192	 0.28352378	 0.11418
H	-0.2021961295	 1.8210840791	-1.0822103295	 0.114729
H	-0.8218748026	 1.9009831076	 0.5733383506	 0.113076
H	 1.3156204483	-0.0127115358	-1.6525633734	 0.100824
H	 1.9331334626	-0.8653385314	-0.2645642621	 0.110468
H	 1.222482569	-2.3694153742	-2.3300367799	 0.083398
H	-0.7277619611	-3.6421580894	-1.5767043237	 0.081427
H	-2.2124443743	-2.7516672963	 0.162366569	 0.068401
H	-1.0853322499	-2.498684127	 2.2612594978	 0.099366
H	 0.4985583941	-2.6018270323	 1.4566144419	 0.09314
H	-0.6113179388	 0.0680789219	 2.1911063318	 0.074883
H	-2.3396454509	-0.1337078904	-0.1361474495	 0.074972
