19
gdb 40070	4.43112	1.23445	1.10828	1.3352	84.87	-0.2076	0.0076	0.2152	1147.7892	0.159821	-385.846483	-385.839021	-385.838077	-385.878311	30.303	
C	-0.1222082381	 1.4395325832	 0.0760199467	-0.323343
C	 1.2844627388	 0.8917632169	-0.0783448092	-0.321938
C	 0.0996851636	-0.0413564055	-0.0309607509	 0.436952
O	-0.0863277077	-0.8081319817	 1.1642335898	-0.318741
C	-0.3515913122	-2.1381961767	 0.763314828	 0.079343
C	-1.7654175459	-2.8264714896	 0.8566725053	-0.253176
C	-1.6101962065	-3.2226174529	-0.6637527487	-0.312055
C	-0.5900004724	-2.1058876855	-0.7111979428	 0.212339
C	-0.4021270639	-0.8725579788	-1.1703539353	-0.311164
H	-0.4076057205	 1.8080076874	 1.0552374197	 0.124984
H	-0.5794000536	 1.9603552303	-0.7591112886	 0.111669
H	 1.7985714341	 1.0287886544	-1.0237180738	 0.112531
H	 1.9230088408	 0.907830268	 0.797540406	 0.124102
H	 0.4361593748	-2.8124670203	 1.1274358948	 0.079814
H	-1.8805371593	-3.6410526014	 1.5758767751	 0.10142
H	-2.5501826538	-2.0806773109	 0.9939390199	 0.120295
H	-1.1792748703	-4.22258055	-0.7734887739	 0.1159
H	-2.4836876395	-3.1371132116	-1.3120840706	 0.115907
H	-0.6899970385	-0.4462200753	-2.1228705416	 0.105158
