19
gdb 84633	2.65926	1.81117	1.51052	1.6442	78.92	-0.2342	-0.0066	0.2277	952.0205	0.16257	-385.899474	-385.892408	-385.891464	-385.930481	29.724	
O	 0.1124782159	 1.4200591307	-0.0948189326	-0.444686
C	 0.0378745957	-0.0027124013	-0.0202030898	 0.106279
C	 0.8322838898	-0.5212038144	 1.1645675286	-0.097252
C	 0.3207587647	-1.3568631457	 2.0708360461	-0.065825
C	-1.1173823318	-1.8382924676	 1.9271066627	-0.098549
C	-1.3972587117	-2.0129906957	 0.4143066352	-0.227492
C	-1.4278565205	-0.5267331786	-0.0103479122	-0.084358
C	-2.2130999346	 0.0773497587	 1.1465489758	-0.091786
C	-2.048669767	-0.6629174078	 2.2438450888	-0.067114
H	-0.1984954771	 1.75991146	 0.7520884397	 0.279477
H	 0.5133344279	-0.344397348	-0.9487397145	 0.092312
H	 1.8453879976	-0.1367431769	 1.2529671177	 0.091732
H	 0.9061078854	-1.6848525716	 2.9254924433	 0.089643
H	-1.3064644539	-2.7321924472	 2.5255994103	 0.0639
H	-0.6264273867	-2.6007038937	-0.0924089093	 0.096635
H	-2.3724622181	-2.4795307062	 0.2448065804	 0.096241
H	-1.8808597443	-0.3460133068	-0.9886226828	 0.067609
H	-2.7669937718	 1.0060081985	 1.0771517351	 0.09669
H	-2.4283779995	-0.4483347365	 3.2359019574	 0.096544
