18
gdb 128841	6.14413	0.69451	0.65184	2.3519	74.41	-0.2581	0.0114	0.2694	1697.7968	0.149197	-435.283151	-435.274242	-435.273298	-435.318584	30.74	
C	-0.0368647051	 1.371797548	-0.0602868438	-0.23102
O	-0.0244881096	-0.0347493328	 0.0093889119	-0.232735
C	 0.6797144456	-0.519974539	 1.1288189873	-0.044125
C	 0.642795714	-2.0475751284	 1.0704821546	-0.337254
C	 1.394333745	-2.6681799629	 2.2014077327	 0.377118
N	 2.6289439092	-2.3813038564	 2.5850314463	-0.313341
C	 2.8284688336	-3.2188484651	 3.6398452306	 0.026319
N	 1.8086043571	-4.0047301912	 3.9395071477	-0.215409
N	 0.8979043304	-3.6333663381	 3.0063457363	-0.243325
H	 0.9808475911	 1.7856584785	-0.1348196565	 0.108992
H	-0.5983593734	 1.6495429042	-0.9554279743	 0.128445
H	-0.5251918559	 1.820118374	 0.8194736947	 0.105293
H	 1.72451121	-0.175345095	 1.1257568885	 0.120164
H	 0.2206463696	-0.1620715292	 2.0659756	 0.09149
H	-0.398724256	-2.3859755903	 1.0751923475	 0.11263
H	 1.0780890227	-2.3657932903	 0.1164258045	 0.143492
H	 3.7500816972	-3.2495686054	 4.2016819144	 0.125437
H	-0.0064009556	-4.0759661507	 2.9852854376	 0.277826
