19
gdb 107080	3.13401	1.11992	0.96102	1.6359	82.16	-0.2385	0.024	0.2625	1296.432	0.15693	-385.816914	-385.807856	-385.806912	-385.850851	34.243	
C	-0.0276085707	 1.5152135103	 0.1246043538	-0.377095
C	-0.007025162	-0.0043570146	-0.0921173558	-0.289308
C	-1.3746358603	-0.6052791575	-0.0147989285	 0.497923
C	-2.1157557115	-1.0438601745	 1.2123331074	-0.348081
C	-1.9215099841	-2.0116714683	 0.059564783	-0.202677
C	-2.8420007069	-1.5870686857	-1.0901685876	-0.090276
O	-2.3237799091	-0.2213742804	-1.0312883203	-0.327715
C	-2.5742678945	-2.2243190118	-2.3685322075	 0.340937
C	-2.3616603822	-2.7731500941	-3.4162936323	-0.434013
H	 0.9779002389	 1.935528563	 0.0314153233	 0.111757
H	-0.6696489321	 1.9998943576	-0.6163630848	 0.139094
H	-0.4114688251	 1.7664319732	 1.1185062168	 0.117944
H	 0.4250267372	-0.2346919441	-1.0731337688	 0.113062
H	 0.6274591102	-0.4875817668	 0.6602927447	 0.101675
H	-1.502667399	-1.2595344244	 2.0823711545	 0.115421
H	-3.0988120267	-0.6348685294	 1.4303746122	 0.113905
H	-1.4260004584	-2.9688674088	 0.1430134686	 0.110279
H	-3.9179251691	-1.605686091	-0.8741191073	 0.10668
H	-2.1759047346	-3.2495892828	-4.3472206614	 0.200489
