22
gdb 60199	3.28043	0.76766	0.67563	3.256	84.62	-0.2474	-0.0256	0.2218	1719.2867	0.192075	-404.340259	-404.329914	-404.32897	-404.376483	37.414	
C	 0.0674139452	 1.5312044436	-0.1243159962	-0.393289
C	 0.0268461737	 0.0025301178	 0.0007675265	 0.036284
C	 0.7212217223	-0.4581436083	 1.2897875701	-0.370568
C	-1.4255325186	-0.5056794501	-0.0946927689	-0.186916
C	-1.5355183278	-2.0122960794	-0.2023287188	-0.014802
N	-1.7164273045	-2.7935027671	 1.0149033047	-0.325693
C	-2.809508643	-2.7859911772	 0.0184261283	-0.139119
C	-4.0727479411	-2.1259387046	 0.4485041202	 0.174833
O	-5.1450678957	-2.3434886258	-0.0586572664	-0.260489
H	 1.09697416	 1.9022355438	-0.0929120779	 0.111679
H	-0.383700898	 1.8699173929	-1.062991566	 0.110764
H	-0.4802861276	 2.005357365	 0.698878376	 0.115172
H	 0.5798281284	-0.4179682924	-0.8528268658	 0.06947
H	 0.7324483571	-1.5471842343	 1.3835520588	 0.115251
H	 1.7573754537	-0.1052632356	 1.3202021904	 0.108256
H	 0.2064864316	-0.0602137182	 2.1719650041	 0.116802
H	-1.9900126319	-0.1589557667	 0.7782798406	 0.104729
H	-1.9001726784	-0.060817318	-0.9791003984	 0.102978
H	-0.9009016207	-2.4453021818	-0.9772096257	 0.093715
H	-1.216806393	-3.677317889	 0.9729026425	 0.242173
H	-2.9640907602	-3.6579236728	-0.6126893884	 0.103704
H	-3.9538337413	-1.4125993518	 1.2922387803	 0.085065
