16
gdb 3325	5.38134	2.11813	1.79228	2.4251	59.69	-0.24	0.0706	0.3106	731.717	0.137909	-325.718957	-325.712366	-325.711421	-325.749432	24.962	
O	 0.8465312212	-0.6367615804	-1.0353200068	-0.422482
C	 0.1530861604	-0.0022885587	 0.0241535707	-0.069407
C	-1.3103235237	-0.4014175083	 0.0231595746	 0.053122
C	-2.354357859	 0.3003354751	 0.9332113388	-0.294109
C	-3.0972298828	 0.6483408045	-0.3561098325	-0.00224
C	-2.2361562291	 1.428243714	-1.2587712585	-0.243752
N	-2.0718679272	-0.0435545092	-1.2424969186	-0.16354
H	 0.3030174749	-0.5308457417	-1.8252774257	 0.295603
H	 0.6258353161	-0.3299540739	 0.9574943629	 0.109165
H	 0.2645265842	 1.0931589659	-0.0230578906	 0.082566
H	-1.3674799263	-1.4891216727	 0.117728337	 0.096642
H	-2.8840874908	-0.3944047322	 1.5862968211	 0.115129
H	-2.017348425	 1.1548330412	 1.5289024987	 0.104851
H	-4.1621854993	 0.5244043389	-0.5232704966	 0.098794
H	-2.663757864	 1.7776510479	-2.193287973	 0.124229
H	-1.4630919094	 2.0738666199	-0.8493248716	 0.115427
