21
gdb 119732	3.37141	1.06345	0.94063	2.1647	78.87	-0.2387	0.0632	0.3018	1346.9704	0.181514	-424.18525	-424.176163	-424.175218	-424.219677	33.681	
C	 0.1389643859	 1.513103358	 0.0053918738	-0.385887
C	 0.0301350626	-0.0017119855	-0.007547156	-0.067606
O	 0.7011631447	-0.4873844901	-1.1628792276	-0.299263
C	 0.6799641232	-1.8700705835	-1.2878137648	 0.392397
C	 1.5630547656	-2.7279538643	-0.3314599421	-0.297619
C	 2.1966485156	-3.4368954486	-1.5730591181	-0.232324
C	 1.3079989391	-2.5870876274	-2.5110439685	 0.046095
O	 0.0543707983	-3.2311786438	-2.8202341047	-0.291371
C	-0.632381199	-2.5502982657	-1.7436949809	-0.129208
H	 1.1879103006	 1.821228364	 0.0345735118	 0.127845
H	-0.3175006051	 1.9377142195	-0.8930861631	 0.129101
H	-0.3694877541	 1.9244889376	 0.8824208276	 0.116025
H	 0.4804340614	-0.4300953024	 0.9013365202	 0.094711
H	-1.0268896978	-0.3122274987	-0.0246996102	 0.092847
H	 2.2798317237	-2.1099184706	 0.2140687407	 0.110051
H	 1.0320773631	-3.3659010146	 0.3795464909	 0.098162
H	 3.2669586325	-3.2458325215	-1.6828823579	 0.105451
H	 2.0134115283	-4.5091142195	-1.6624215838	 0.112911
H	 1.7525291034	-2.08549202	-3.3735233722	 0.080487
H	-1.1136758182	-3.2490634937	-1.0485082532	 0.095787
H	-1.3754820437	-1.8394561992	-2.127765122	 0.101411
