25
gdb 105229	1.84975	1.3219	1.03708	1.2933	88.66	-0.2515	0.0775	0.329	1363.4548	0.22648	-389.482307	-389.471163	-389.470219	-389.518284	41.898	
C	 0.84042485	 0.3453917906	 1.2578540856	-0.376409
C	 0.0134568636	-0.3206586891	 0.1485693307	-0.27669
C	 0.7406911177	-0.5515961633	-1.1771396519	 0.356068
C	 2.0012403583	-1.4057395501	-1.1445040472	-0.388104
C	 0.7322521751	-1.9532905755	-1.7441651548	 0.056394
O	 0.012255449	-2.9430891811	-1.065802224	-0.424052
C	 0.7008165032	 0.55744947	-2.2379837409	-0.023196
C	-0.7231253203	 0.8123483227	-2.7571610113	-0.396658
C	 1.3595219599	 1.867336081	-1.7802160509	-0.397765
H	 1.7276444414	-0.2473208285	 1.5032673195	 0.110592
H	 1.183062738	 1.3458451566	 0.981493608	 0.115368
H	 0.2442697322	 0.4393949291	 2.1717184037	 0.1074
H	-0.34540434	-1.2887321176	 0.5093703932	 0.120872
H	-0.8850934225	 0.2783462573	-0.0394864	 0.094259
H	 2.829205505	-1.1534723111	-1.799996765	 0.10446
H	 2.2963690703	-1.8184047858	-0.1847884389	 0.107886
H	 0.6836564366	-2.0385606424	-2.8305732839	 0.080194
H	 0.5534251866	-3.7385351501	-1.040205268	 0.286984
H	 1.2891027753	 0.1847906516	-3.0887662251	 0.063787
H	-1.3645337219	 1.2458007035	-1.9824297434	 0.116883
H	-0.7072636387	 1.5159973028	-3.5961677908	 0.106956
H	-1.1938141619	-0.114149139	-3.1005559248	 0.117106
H	 2.3684730442	 1.6955930497	-1.3921426365	 0.112589
H	 1.43360841	 2.5717101179	-2.6156842099	 0.10658
H	 0.7735863389	 2.3554345909	-0.9946659233	 0.118496
