19
gdb 102727	2.65169	1.08528	0.84962	4.2748	76.03	-0.2384	0.0285	0.2668	1368.5154	0.158634	-419.180735	-419.171136	-419.170192	-419.215925	34.116	
C	 0.6375810467	 1.4873960828	-0.4592478621	-0.329297
N	 0.4591187574	 0.0978721646	-0.0564597436	-0.289522
C	 0.6943730543	-0.866413854	-1.1225653889	-0.123122
C	 0.6931015325	-2.3080316485	-0.5701156758	-0.255553
C	 1.8740571809	-2.6913760345	 0.2984880952	 0.075363
C	 3.2220323525	-2.1163868897	 0.2055427973	-0.182295
O	 2.3430882099	-1.7567115407	 1.2804812296	-0.226826
C	-0.3607708505	-0.746745449	-2.1490453484	 0.308569
N	-1.1714689224	-0.6642902113	-2.9680239662	-0.32908
H	 1.627654048	 1.7051414504	-0.8988168189	 0.094099
H	-0.1226053247	 1.7604827757	-1.198330231	 0.145321
H	 0.501820493	 2.1310615528	 0.4134726878	 0.128224
H	 1.0809731881	-0.13929416	 0.7100004594	 0.247988
H	 1.6466387078	-0.6913213585	-1.6619487863	 0.096841
H	-0.2291117383	-2.4435987546	 0.0053649113	 0.143183
H	 0.6532982841	-3.0137863889	-1.4071857856	 0.132798
H	 1.8049379161	-3.7111204198	 0.6805720749	 0.109116
H	 4.0818854603	-2.717708775	 0.4949382142	 0.127883
H	 3.4374100842	-1.3209440119	-0.5043272228	 0.126311
