17
gdb 27209	3.2691	1.62655	1.09511	1.4076	86.47	-0.1633	-0.0014	0.1619	1066.9825	0.139159	-380.909137	-380.901695	-380.900751	-380.94077	29.491	
N	 0.0122804788	 1.4416533175	 0.1555575515	-0.607726
C	-0.0082873464	 0.0383250173	 0.0463784731	 0.07762
C	-1.1172045848	-0.7931439051	 0.0306933807	 0.333272
C	-2.5602467475	-0.8418961933	 0.0391342038	-0.220439
C	-2.9683825506	-2.1255035468	 0.0061292271	-0.113476
C	-1.7683112871	-3.0554713794	-0.0271266794	-0.241216
N	-0.664896438	-2.1065442237	-0.0058294894	-0.025166
C	 0.6934819052	-2.1296342585	-0.0123311039	-0.122975
C	 1.1333471714	-0.8162479577	 0.0203433204	-0.211639
H	 0.8355057519	 1.8428391564	-0.2755755196	 0.239764
H	-0.8074258836	 1.8769259477	-0.2481305278	 0.237745
H	-3.2043193266	 0.026545218	 0.0720909616	 0.101549
H	-3.9856978489	-2.4885853344	 0.0044392309	 0.100821
H	-1.7370031928	-3.7306430761	 0.8388928176	 0.127727
H	-1.7466794394	-3.6803982987	-0.9304778435	 0.126362
H	 1.2510160533	-3.0523478372	-0.0415436721	 0.113772
H	 2.1655491949	-0.4980042861	 0.029964729	 0.084004
