18
gdb 32824	3.04694	1.23982	0.92741	1.9871	75.43	-0.1744	0.0421	0.2165	1240.2993	0.148288	-439.107976	-439.099118	-439.098174	-439.142076	33.202	
N	-0.3762281011	 1.3851818006	-0.251913844	-0.603935
C	-0.2731592214	 0.0168726002	-0.0787733655	 0.273049
C	-1.1829606727	-1.0092592978	-0.1038904369	 0.179626
C	-2.6837502015	-0.9396119264	-0.1791202737	-0.325899
C	-3.2642827629	-0.2654758734	-1.4232091888	-0.071487
O	-3.1001079685	 1.1498405007	-1.2926985361	-0.409026
C	-0.3939624517	-2.2080370036	 0.0299496469	-0.26594
C	 0.8990784359	-1.8271813355	 0.1451217127	-0.033472
O	 0.9895235104	-0.4609276989	 0.0676522204	-0.168656
H	 0.0988389264	 1.9282351613	 0.4580905048	 0.243804
H	-1.3398100295	 1.6667036942	-0.3941620148	 0.26082
H	-3.0793894092	-1.960405942	-0.1393705582	 0.104223
H	-3.1038331159	-0.4173495191	 0.69227698	 0.112769
H	-2.7558672927	-0.636724874	-2.3230789517	 0.100838
H	-4.3346854721	-0.50595273	-1.508741838	 0.089149
H	-3.2225443299	 1.5531193966	-2.1568584816	 0.29295
H	-0.7693619343	-3.2204885662	 0.0565532805	 0.09656
H	 1.8304806207	-2.3479880367	 0.2854783039	 0.124625
