19
gdb 62847	2.73461	1.55227	1.36096	3.073	74.72	-0.2309	-0.0179	0.213	1032.6665	0.158532	-423.024479	-423.016302	-423.015357	-423.056699	32.332	
C	-0.1332275598	 1.598668102	 0.0441279048	-0.480964
C	-0.0078004658	 0.0779856456	 0.0086915834	 0.314271
C	-1.3799145211	-0.586681154	 0.1284757974	-0.453718
C	 0.8905079756	-0.6235393023	-1.0658653331	 0.038063
C	 2.2492760798	 0.0932911416	-1.0244598917	-0.352954
C	 2.3598486738	 0.1202473368	 0.5200649679	 0.444728
O	 3.2068191585	 0.5941616446	 1.2232460213	-0.328219
C	 1.0714269072	-0.6331902072	 0.8916771483	-0.077257
O	 1.1343644715	-1.7052205582	-0.1030174634	-0.304365
H	 0.8275780626	 2.118559362	 0.0283720103	 0.131575
H	-0.7226059843	 1.952764853	-0.8088786011	 0.123138
H	-0.6570803368	 1.9114933923	 0.9535725865	 0.128376
H	-2.023324325	-0.2795074929	-0.7039776346	 0.115255
H	-1.2947223129	-1.6744140684	 0.1167600791	 0.141017
H	-1.8766289755	-0.2844797589	 1.0565894407	 0.117161
H	 0.4961615343	-0.9636018746	-2.0239870354	 0.085816
H	 3.036859232	-0.518896831	-1.4705244632	 0.138642
H	 2.2868932949	 1.0942732785	-1.4604651907	 0.126175
H	 0.9207750211	-0.9529230689	 1.9214674435	 0.09326
