25
gdb 122962	5.99549	0.45493	0.43756	2.3937	86.65	-0.2548	0.0621	0.317	2556.4377	0.227023	-426.633594	-426.622003	-426.621059	-426.6714	41.492	
C	-0.137527673	 1.5555250019	 0.0468664241	-0.379734
C	-0.0152022977	 0.0297891776	 0.0173747392	-0.163441
C	 0.6976933179	-0.4953400882	-1.2335613203	-0.162219
C	 0.8137830259	-2.0221532095	-1.2712860281	-0.175658
C	 1.5310564859	-2.547454642	-2.5199060652	-0.217173
C	 1.5902812209	-4.0721370879	-2.5983375517	 0.095652
O	 0.2835516789	-4.6674763379	-2.6178382017	-0.438689
C	 2.3785626318	-4.5865275104	-3.8056551575	-0.060778
O	 2.3441529066	-5.9950813712	-3.8702829729	-0.425508
H	 0.8486315815	 2.0327500086	 0.0225442781	 0.113207
H	-0.7027050626	 1.9245351382	-0.8163986547	 0.112526
H	-0.6502298067	 1.8986335548	 0.9509331788	 0.111623
H	 0.5240955799	-0.3124377661	 0.910548284	 0.095226
H	-1.0149671028	-0.4203326896	 0.078213385	 0.094968
H	 0.1614898849	-0.1480221346	-2.1283227878	 0.088596
H	 1.700689962	-0.0492862462	-1.2933536535	 0.090836
H	 1.3490941637	-2.3703425164	-0.3773521234	 0.095438
H	-0.1844651694	-2.4727843646	-1.2184019233	 0.104214
H	 1.0317769435	-2.1655338189	-3.4240861725	 0.085435
H	 2.5561328738	-2.1547440452	-2.5551594323	 0.101636
H	 2.0519504023	-4.47639171	-1.6890882524	 0.096104
H	-0.2153181347	-4.2460582302	-3.3285021095	 0.280701
H	 1.9644241207	-4.1296304175	-4.7246221694	 0.068206
H	 3.4288223161	-4.2817556191	-3.7358023501	 0.105141
H	 1.4427568807	-6.2354821356	-3.617347243	 0.283693
