20
gdb 81245	2.54004	1.88542	1.6214	1.3213	79.26	-0.2022	0.0809	0.2832	950.0217	0.172046	-403.046069	-403.038481	-403.037537	-403.077835	30.624	
C	 0.0098150765	 1.5201888586	 0.0526766374	-0.339613
N	 0.0536580734	 0.0562810243	 0.0761103954	-0.128108
C	-1.1158275101	-0.6925794907	 0.6491534613	-0.089064
C	-0.1672583106	-1.9482120271	 0.6459413752	-0.299246
C	 0.6126796999	-0.7501432184	 1.2555534133	 0.327433
C	 1.8071797306	-0.2638024708	 2.0305352935	-0.401347
C	 1.1146955849	 0.8338641819	 2.9253042678	-0.072945
O	-0.3241221629	 0.7630847589	 2.7500482575	-0.278192
C	-0.6091011763	-0.4618789502	 2.1226778632	 0.109422
H	 1.0365888648	 1.9008219093	 0.008955192	 0.110624
H	-0.4748609107	 1.8139687795	-0.8857022489	 0.11318
H	-0.5116447836	 2.0044985154	 0.8844117879	 0.128325
H	-2.1199441463	-0.6192754555	 0.2272415413	 0.081948
H	-0.4163109637	-2.7725719273	 1.3162042172	 0.099434
H	 0.1437196376	-2.2675069093	-0.3467162926	 0.114014
H	 2.2358011596	-1.0588147428	 2.6470184205	 0.1181
H	 2.6008736674	 0.1548826761	 1.407028429	 0.119798
H	 1.3521922748	 0.6819976129	 3.9850313645	 0.106003
H	 1.4261669447	 1.8446299986	 2.6462995834	 0.114175
H	-0.93462894	-1.2158401832	 2.8536716312	 0.066059
