16
gdb 12746	3.31702	1.79809	1.49868	2.0096	70.5	-0.2351	0.0202	0.2553	898.2057	0.12854	-346.524936	-346.517223	-346.516279	-346.556674	29.294	
C	-0.0412804699	 1.5531417968	 0.0030832187	-0.497886
C	 0.0203179437	 0.0563748717	 0.0452006947	 0.262884
C	-0.8597760795	-0.8291026867	 0.9065803221	-0.350399
C	 0.6305810753	-0.9384684923	 1.0038337416	 0.062431
O	 1.1415242741	-1.7735181183	-0.0408843693	-0.295183
C	 0.6622008405	-0.8247261196	-1.0438883221	-0.104217
C	-0.1796215848	-1.4107948349	-2.0723174117	 0.339863
C	-0.8828502861	-1.8773891011	-2.9284311334	-0.448759
H	 0.915699605	 1.9863566222	-0.3090508736	 0.121639
H	-0.8109233395	 1.8978705957	-0.6975386344	 0.131198
H	-0.2877802933	 1.9614857519	 0.9880698438	 0.124556
H	-1.3460640442	-0.3039636229	 1.7237702588	 0.112755
H	-1.4300003965	-1.6462641396	 0.4742077175	 0.127005
H	 1.2281765514	-0.8308043082	 1.9015435644	 0.105817
H	 1.5258889435	-0.3230052048	-1.4994644316	 0.106201
H	-1.5016100394	-2.2945353601	-3.6842935156	 0.202094
