19
gdb 70502	2.59283	1.5524	1.13261	3.2701	83.61	-0.2426	-0.0546	0.1879	1116.9036	0.159251	-385.911352	-385.903093	-385.902148	-385.943912	31.965	
C	-0.0281123347	 1.5694685531	 0.0593204225	-0.485921
C	 0.0338318039	 0.0601357528	 0.0150447774	 0.239873
C	-0.8246112469	-0.7830125831	 0.9384102634	-0.315067
C	 0.6744056283	-0.7974000533	 1.1040436243	-0.083683
C	 1.459798103	-1.9226928744	 0.4327432393	-0.280263
C	 1.1418211767	-1.7441183518	-1.0297766918	-0.157693
C	 0.3891164499	-0.6533271381	-1.2596862379	 0.190663
C	-0.0512379782	-0.2664386396	-2.6035464425	 0.069657
O	-0.7657720404	 0.6772513615	-2.8640009797	-0.27796
H	 0.9191727372	 2.0154191544	-0.2643641354	 0.114054
H	-0.8139232817	 1.9462720188	-0.5991863789	 0.14976
H	-0.2291224249	 1.9142416468	 1.0785817163	 0.107359
H	-1.3942385397	-0.2555934016	 1.6969690542	 0.112793
H	-1.3213553632	-1.6585465081	 0.5315674247	 0.109018
H	 1.0894369942	-0.3308407884	 1.9900563979	 0.088443
H	 2.5407878865	-1.832834431	 0.6087262607	 0.120146
H	 1.1761840005	-2.9206124415	 0.7928578844	 0.120774
H	 1.4692710358	-2.4381552597	-1.7976248592	 0.109713
H	 0.3331848737	-0.9303919068	-3.4110522996	 0.068334
