19
gdb 91497	2.58926	1.85828	1.48482	0.9008	75.24	-0.2395	0.044	0.2835	963.3796	0.159949	-422.903605	-422.896356	-422.895412	-422.934794	30.014	
C	 0.0641856172	 1.546792532	 0.0882938573	-0.425535
C	 0.1438458047	 0.0362784517	-0.0394267079	 0.119334
O	 1.0604960433	-0.3883081413	-1.0775606427	-0.272091
C	 1.888822606	-1.2826335594	-0.3654562127	 0.049126
C	 2.2807129659	-0.4526505159	 0.9587581683	-0.340494
C	 0.749814606	-0.7371999403	 1.1676537928	 0.359077
O	-0.2655428318	-1.1743945825	 2.1128587523	-0.359758
C	-0.4581258884	-2.3588091328	 1.2335411696	-0.185071
C	 0.9743305736	-2.113342556	 0.6401712552	-0.063141
H	 1.0259034786	 1.9928375499	 0.3527895023	 0.120986
H	-0.2660106272	 1.9879870868	-0.8568130838	 0.127472
H	-0.6661630702	 1.8093939168	 0.8608849027	 0.129622
H	-0.8515152793	-0.3485721212	-0.2866094534	 0.078206
H	 2.6343699641	-1.7308077871	-1.0211775035	 0.095257
H	 2.9292370502	-0.993820885	 1.6451444732	 0.118606
H	 2.6387291248	 0.5642094928	 0.786458441	 0.108463
H	-0.560586599	-3.2701277526	 1.8263983399	 0.120665
H	-1.3244778944	-2.2283383007	 0.5818662119	 0.123724
H	 1.6584785659	-2.6474725653	 1.3022809972	 0.095555
