17
gdb 2362	4.91263	1.95752	1.82855	1.5499	59.99	-0.2519	0.0719	0.3238	775.8326	0.14811	-346.838279	-346.830803	-346.829859	-346.869919	27.265	
C	 0.0169917582	 1.5439756936	 0.0419949892	-0.40429
C	 0.0130436531	 0.013425164	 0.0743062238	 0.116291
O	 0.6022811103	-0.4820001822	 1.2677943214	-0.439553
C	-1.3987561637	-0.5487491532	-0.074359939	 0.147135
C	-1.5900402928	-2.0749012079	 0.0557424329	-0.292855
C	-2.5191000711	-1.7172960623	 1.2302286998	-0.064652
O	-2.1617791904	-0.3167621635	 1.1440403973	-0.311096
H	 1.0264630485	 1.9191777969	 0.2274447563	 0.123214
H	-0.3242320052	 1.922021477	-0.9277770149	 0.109956
H	-0.6491288743	 1.9419717107	 0.815035161	 0.128625
H	 0.626115035	-0.3768803023	-0.7485490937	 0.086255
H	-0.0439444392	-0.2953595432	 1.9621992814	 0.283542
H	-1.9026631819	-0.1021702179	-0.9424407283	 0.07128
H	-2.0488640195	-2.5822423892	-0.7934279633	 0.106771
H	-0.6769529319	-2.5903159714	 0.3553017982	 0.127436
H	-3.5886214114	-1.8673245592	 1.0373354751	 0.104539
H	-2.2693430237	-2.1426171399	 2.2083136728	 0.107402
