17
gdb 30169	3.95304	1.35531	1.12406	2.6279	74.41	-0.1906	0.0175	0.2081	1084.2237	0.138887	-418.027914	-418.020619	-418.019675	-418.059857	28.345	
C	 0.1259950508	 1.4774024061	 0.0929968743	-0.397889
C	-0.0145232745	-0.0388183963	-0.0247938133	 0.046043
C	 0.7445792271	-0.6066630609	-1.2948922883	-0.366784
C	 1.9328103069	-1.2421615297	-0.6435155215	 0.212968
C	 1.7655760306	-1.2421739432	 0.6902650071	 0.368031
N	 0.578637964	-0.7311156407	 1.1873563749	-0.421827
O	 2.7812509073	-1.8939028609	 1.2900623974	-0.205457
C	 3.5633107799	-2.2728999706	 0.2061173513	 0.018574
N	 3.1009770861	-1.9231594415	-0.9511514962	-0.331187
H	 1.1824257643	 1.7663477386	 0.1203074556	 0.130221
H	-0.3402113772	 1.9728849349	-0.7644629413	 0.126541
H	-0.3610701185	 1.8534150649	 0.9996396302	 0.116522
H	-1.0737808358	-0.3040098143	-0.0702974139	 0.093008
H	 0.11930514	-1.3307491812	-1.8304785426	 0.118187
H	 0.9787765523	 0.1997954602	-1.9990471513	 0.113101
H	 0.6710280838	-0.1056209478	 1.9815826069	 0.235948
H	 4.4729452027	-2.7971094076	 0.4474699607	 0.144001
