22
gdb 86383	2.47209	1.48062	1.12131	2.0159	81.74	-0.2259	0.0682	0.2941	1189.7062	0.193966	-404.340336	-404.33105	-404.330106	-404.373668	36.226	
C	-0.0477836397	 1.5426363821	 0.0035256186	-0.392664
C	 0.0569133335	 0.022281079	 0.0196095827	 0.066891
C	 0.697326884	-0.6050236269	-1.2388810891	-0.299307
C	 1.3279351217	-1.9141102075	-0.719364722	 0.066847
O	 2.5289172274	-2.2991399435	-1.373972759	-0.439261
C	 1.6100598133	-1.6400102211	 0.754329876	 0.358488
C	 1.7353887006	-2.8251984402	 1.6767675295	-0.48952
C	 2.2857770889	-0.34795268	 1.0404882652	-0.295415
N	 0.8243636017	-0.4699668915	 1.1919482022	-0.144935
H	 0.9391866385	 2.0036381513	-0.1107128967	 0.114683
H	-0.6747147029	 1.8790609057	-0.8284833097	 0.112318
H	-0.4879271292	 1.9072837121	 0.9359379955	 0.125659
H	-0.9513481976	-0.3934749822	 0.1451254974	 0.078835
H	-0.0325478635	-0.770744765	-2.0363279723	 0.094424
H	 1.4891447828	 0.0303946199	-1.6491519884	 0.108031
H	 0.5921766588	-2.7327359796	-0.7769150414	 0.063019
H	 2.3045517609	-2.5945397311	-2.2617306676	 0.283356
H	 2.5742653632	-3.4568547983	 1.3660310966	 0.129359
H	 1.9049316064	-2.5031091198	 2.7071676083	 0.122136
H	 0.8255604519	-3.4364534622	 1.6576410904	 0.112246
H	 2.8215478689	-0.2283409817	 1.97787747	 0.110246
H	 2.6969570905	 0.2269346904	 0.2160093639	 0.114564
