18
gdb 33727	3.25421	1.51335	1.28439	1.7363	82.12	-0.2293	0.0459	0.2752	1019.7993	0.149418	-364.724596	-364.717555	-364.71661	-364.755691	29.77	
C	 0.0061986574	-1.1879457099	-0.0419176471	-0.349262
C	 0.0251330633	 0.0149668216	-0.0257106337	 0.031038
C	 0.0420570874	 1.4541287872	 0.0024613838	 0.281872
C	-0.279988029	 2.2857871823	 1.3093702298	-0.252103
C	 0.4541998479	 3.4150569827	 0.5092747783	-0.079057
C	 1.3674762576	 2.2848435705	-0.0351696865	-0.26081
C	-0.5626335252	 3.6235341602	-0.6319426394	-0.034269
N	-0.1410773336	 3.0958833933	-1.9533303922	-0.34117
C	-0.8615914385	 2.2240683652	-1.0003848553	-0.09389
H	-0.0040438095	-2.2493770255	-0.0584532884	 0.177137
H	-1.3356382353	 2.4323391527	 1.5556110247	 0.093745
H	 0.2749534986	 1.9301339425	 2.1802268257	 0.106253
H	 0.8634622532	 4.2970081037	 0.9996277895	 0.068268
H	 2.0687076553	 1.92947127	 0.720622442	 0.100554
H	 1.8506644225	 2.4198941994	-0.999620144	 0.132099
H	-1.3168352764	 4.3995120921	-0.5709078726	 0.091941
H	-0.8031062556	 3.4161529739	-2.6577031994	 0.230577
H	-1.8484042803	 1.8444477181	-1.2360778751	 0.097077
