15
gdb 50897	5.34809	0.64178	0.61383	1.5802	69.11	-0.2651	-0.0405	0.2246	1717.7584	0.110558	-453.991177	-453.981619	-453.980675	-454.027983	31.812	
O	 0.2164167417	-0.1130539876	-0.1526078619	-0.23009
C	 0.1413351488	 1.0822037317	-0.245647687	 0.165662
C	 1.3367096463	 2.0142304779	-0.0750375641	-0.395252
C	 1.2985648806	 3.1339469312	-1.1056446543	 0.415916
O	 0.3047425318	 3.814271886	-1.2760533432	-0.362853
N	 2.4444614896	 3.2936529509	-1.8377100959	-0.32146
C	 2.5599978014	 4.3541877308	-2.8198238493	-0.283705
C	 3.6325904418	 5.302161304	-2.4942348006	 0.256146
N	 4.4956404871	 6.0271179474	-2.2420434021	-0.292206
H	-0.8114681971	 1.6075334624	-0.4570384979	 0.117907
H	 1.2304849733	 2.4928817533	 0.9076582236	 0.169204
H	 2.2571548947	 1.4261447011	-0.0775708171	 0.125984
H	 3.2551699796	 2.7335010963	-1.6308579362	 0.267558
H	 2.7390631247	 3.9509007149	-3.8234234708	 0.165191
H	 1.5953831756	 4.8710326995	-2.8308827333	 0.201996
