17
gdb 88940	3.95367	0.82949	0.72068	4.6363	74.62	-0.2233	-0.0636	0.1597	1515.0734	0.134254	-455.12774	-455.118323	-455.117379	-455.16315	33.649	
O	-0.2087685825	 1.5002933359	 0.1532915523	-0.426636
C	-0.0031249979	 0.1178375174	 0.0498459655	 0.056012
C	-0.4964491152	-0.7906984358	 1.1503467219	-0.332313
C	-1.248926038	-0.6874450404	-0.167413665	 0.058909
N	-2.4683089893	 0.0428859595	-0.2280085568	-0.33323
C	-3.67930009	-0.5569785602	-0.402164557	 0.292053
N	-3.835419566	-1.8257671704	-0.4673000518	-0.524105
C	-4.8256443547	 0.4236940405	-0.5167636483	 0.105004
O	-5.965319304	 0.0761356487	-0.6780346885	-0.236917
H	 0.318139079	 1.833448799	 0.8865491017	 0.297284
H	 0.8933115411	-0.1673293751	-0.4980280806	 0.101492
H	 0.0551783596	-1.6992852818	 1.3645621814	 0.124703
H	-0.9627397231	-0.3141588803	 2.005883434	 0.119649
H	-1.223581885	-1.5419505769	-0.8342496762	 0.130805
H	-2.3906069381	 1.0479305296	-0.2183569237	 0.255775
H	-4.8290385067	-2.0147021912	-0.6105261058	 0.232156
H	-4.5535650493	 1.5016476816	-0.4408742729	 0.079356
