20
gdb 102777	2.56151	1.00878	0.89876	4.8314	75.81	-0.2497	-0.0243	0.2253	1378.0007	0.168263	-440.333839	-440.322991	-440.322047	-440.371145	37.45	
C	 0.6743778421	-0.9005379994	 1.4203665743	-0.3889
C	-0.0222484905	-0.279691105	 0.2043351979	-0.188584
C	 0.7196270769	-0.4708144723	-1.1472089257	-0.121003
C	 2.185074542	 0.0146290047	-1.1137250699	-0.271159
C	 2.2752806604	 1.474423521	-0.7410904646	 0.147347
O	 2.7262692766	 1.896797292	 0.2935583441	-0.238758
C	 0.6862039315	-1.9491901202	-1.5546273512	 0.419893
N	-0.420846175	-2.3222499848	-2.2621579171	-0.525318
O	 1.5630404528	-2.7382523837	-1.2582385632	-0.364342
H	 0.9149771957	-1.9538130564	 1.2514146577	 0.140654
H	 1.6031069802	-0.3724521783	 1.6525409395	 0.141972
H	 0.0272228548	-0.8331679166	 2.2999556062	 0.111399
H	-1.03036824	-0.6989891488	 0.0994618325	 0.093258
H	-0.157375715	 0.7952304849	 0.3733036779	 0.110283
H	 0.1737085142	 0.1071088165	-1.9052343773	 0.075097
H	 2.7664560423	-0.5860641998	-0.4139596464	 0.149379
H	 2.6193573185	-0.1132700208	-2.1135551233	 0.118225
H	 1.8678729399	 2.1755216714	-1.5088439889	 0.068951
H	-1.180548567	-1.6909329274	-2.4456524905	 0.259339
H	-0.5486607605	-3.3012320369	-2.461444422	 0.262268
