18
gdb 45787	2.86065	1.41017	1.06308	3.176	79.44	-0.2336	-0.0156	0.2181	1137.8044	0.148781	-401.956414	-401.948627	-401.947683	-401.989033	30.359	
O	-0.0536207988	-0.1081535259	 0.057488526	-0.306047
C	-0.0528137611	 1.0940379778	-0.0535272209	 0.374372
C	-1.3452428013	 1.9059618853	-0.0806903575	-0.361607
C	-1.2567594088	 3.131683965	-0.9519812561	-0.089752
C	-0.1240741947	 3.5605136581	-1.5106058879	-0.109782
C	 1.1902259677	 2.9098326953	-1.2991474475	 0.306751
C	 2.0862610473	 2.7336762153	-2.4827701944	-0.276741
N	 2.4227102504	 3.7123006313	-1.4421805181	-0.360236
C	 1.2239209968	 1.9149893364	-0.1448742549	-0.368223
H	-2.156936957	 1.2429256994	-0.3988182467	 0.135874
H	-1.5828405714	 2.1903817156	 0.9566468544	 0.137138
H	-2.186125285	 3.6598095453	-1.1463162293	 0.100357
H	-0.134698569	 4.4301076323	-2.1651682001	 0.08681
H	 2.7421499753	 1.8682951537	-2.5298150708	 0.127867
H	 1.733741949	 3.0886039753	-3.4480119996	 0.114887
H	 2.1949545733	 4.6540044509	-1.754424269	 0.230935
H	 1.3089988352	 2.4902126738	 0.788165858	 0.129873
H	 2.0836580623	 1.2459881652	-0.2053751256	 0.127523
