18
gdb 94332	2.58161	1.27935	1.1041	3.4759	77.05	-0.2493	0.0264	0.2757	1172.6551	0.146791	-401.934177	-401.925417	-401.924472	-401.968141	32.203	
C	-0.3108453524	 1.4342088922	 0.0444595201	-0.411454
C	 0.0486145409	-0.0407620483	-0.0578467904	-0.128713
C	 1.3680311884	-0.4028495513	-0.7846988301	-0.08969
O	 1.9299213861	-0.971320946	 0.428983291	-0.307785
C	 0.7439353543	-0.6842762251	 1.1418016884	 0.473153
C	 0.7451508511	-0.3324040069	 2.5816006973	-0.356852
C	 0.1835955399	-1.6918962763	 2.1357580335	-0.273973
C	-1.2282263977	-1.9265195761	 2.1639729578	 0.292395
N	-2.3749461419	-2.0875960858	 2.1516244686	-0.345931
H	 0.5378291765	 2.0264025268	 0.4023473312	 0.124427
H	-0.6109128688	 1.8264890931	-0.9326189537	 0.125909
H	-1.1481673104	 1.5879640227	 0.7326859835	 0.133226
H	-0.8094077403	-0.6219387997	-0.4046859482	 0.110326
H	 1.2924228463	-1.1501187431	-1.5809057027	 0.116225
H	 1.959602006	 0.4506242824	-1.1336256672	 0.111713
H	 1.6934432492	-0.3641979026	 3.1064870294	 0.141112
H	 0.038647871	 0.4086415957	 2.9388605792	 0.142591
H	 0.8080481818	-2.5575921017	 2.3290917524	 0.14332
