22
gdb 110929	2.41416	1.17724	0.97534	2.7197	82.03	-0.232	0.0673	0.2993	1337.4391	0.194376	-404.293631	-404.284178	-404.283234	-404.328293	35.528	
C	-2.611307198	-1.9298200727	-0.6241463894	-0.384655
C	-1.1282021692	-1.6003568476	-0.8434707555	-0.220227
C	-0.3083513211	-1.9752236423	 0.3764958175	 0.038673
C	 0.4243956933	-3.2377630294	 0.5850748929	-0.041229
C	 1.1210666528	-3.7259718044	-0.6877426739	-0.312191
C	 1.9151749698	-2.3966877334	-0.6431452738	 0.069673
C	 2.0365044337	-1.4218517634	-1.8026425708	-0.079617
O	 2.6389992042	-0.2160961318	-1.3611884353	-0.426074
N	 1.1632288796	-1.8948239098	 0.5749583854	-0.212729
H	-3.012545836	-1.3955310019	 0.2437115331	 0.119915
H	-3.208509386	-1.6466369876	-1.4957328909	 0.117047
H	-2.7555221958	-3.0012466231	-0.4501550582	 0.121778
H	-0.7762989028	-2.1184768734	-1.7384790519	 0.107327
H	-1.015602353	-0.5266224426	-1.0395491542	 0.109376
H	-0.7697143867	-1.6013443546	 1.2913438082	 0.094417
H	 0.3372836065	-3.8229380825	 1.4956098787	 0.095469
H	 1.7487926733	-4.6060532345	-0.5427098553	 0.112938
H	 0.4701042489	-3.9047679175	-1.5490271146	 0.106518
H	 2.9304368432	-2.5876341966	-0.2813776316	 0.097811
H	 2.6965328442	-1.8458205192	-2.5692784993	 0.104134
H	 1.0674827964	-1.2280138632	-2.2809436719	 0.087496
H	 2.2286571927	 0.0025246614	-0.515572779	 0.29415
