19
gdb 82744	2.26899	2.18286	1.55152	2.3303	74.12	-0.2258	0.0598	0.2856	930.4576	0.161735	-419.148045	-419.140642	-419.139698	-419.179303	30.509	
C	-0.031358567	 1.4880100108	 0.0437439422	-0.510194
C	 0.0092792657	-0.0153948122	 0.0490503171	 0.294687
N	 0.8759731123	-0.7205852832	-0.9434415406	-0.348701
C	 0.8186649304	-1.8582316679	-0.0191703274	 0.00219
C	-0.6775434135	-2.1395980628	 0.4769137025	-0.101533
N	-0.2296684444	-1.80547542	 1.8537238268	-0.307897
C	 0.7251592899	-0.9112098059	 1.1874951375	-0.045301
C	-1.3131400424	-0.8163946707	-0.0310830404	 0.103193
O	-2.3003569777	-0.269519317	 0.8260709294	-0.442552
H	 0.972199397	 1.9031558906	 0.1725030328	 0.122957
H	-0.4353797397	 1.8696096136	-0.9015969205	 0.113304
H	-0.6741226518	 1.8519615702	 0.8504178197	 0.133701
H	 0.4352391324	-0.8682822067	-1.8521822485	 0.20401
H	 1.5118389118	-2.6904754837	-0.125027208	 0.083811
H	-1.20857308	-3.0809184164	 0.3268864978	 0.059926
H	-0.953898385	-1.3196911991	 2.3835411581	 0.215022
H	 1.5646630726	-0.4874437951	 1.736268776	 0.079088
H	-1.680260422	-0.8727839498	-1.0660185315	 0.057602
H	-3.0890974987	-0.8192451545	 0.7742896071	 0.286685
