17
gdb 64783	4.57428	0.68472	0.66696	2.2149	90.49	-0.2437	-0.0144	0.2293	1697.5647	0.132451	-384.619839	-384.61026	-384.609316	-384.654872	34.865	
C	 0.0304563042	 1.5572345775	-0.4693372394	-0.460244
C	-0.0361014901	 0.0866648544	-0.1289734401	 0.423454
C	-1.3924682793	-0.4416529309	 0.3469566535	-0.457281
C	-1.9172807808	 0.2603969696	 1.5093452334	 0.393113
C	-2.3516247355	 0.8492253017	 2.473199379	-0.249246
C	-2.8416681377	 1.5093742404	 3.5576204523	 0.294271
C	-3.2776712671	 2.0957090057	 4.5190073513	-0.550937
C	 0.8913786246	-0.8674683053	-0.7531654979	-0.229357
O	 1.0828331607	-0.430111161	 0.5955991333	-0.261669
H	 1.0422472027	 1.8293450846	-0.7778611596	 0.129299
H	-0.6621787308	 1.8002869684	-1.2824806397	 0.121388
H	-0.2436103421	 2.1630679033	 0.3992585614	 0.146087
H	-2.1125725158	-0.3656683798	-0.479679208	 0.139125
H	-1.2871938367	-1.5077694156	 0.5790170787	 0.144197
H	-3.6591729825	 2.610108664	 5.3656808967	 0.191047
H	 0.6035368807	-1.91199326	-0.8697836521	 0.11172
H	 1.6275205855	-0.5092224468	-1.4715317128	 0.115032
