23
gdb 120929	3.2151	0.86734	0.79221	1.1272	85.94	-0.2423	0.0805	0.3228	1579.4031	0.204737	-388.265518	-388.255697	-388.254752	-388.300396	37.203	
C	-0.0299597225	 1.591624846	 0.0971232475	-0.380491
C	-0.0829008925	 0.0686701715	-0.0505168346	-0.159476
C	 0.8143060991	-0.4614822166	-1.1759929491	-0.199337
C	 0.7629158252	-1.9783172617	-1.3297055552	-0.039137
C	-0.5292641143	-2.673568404	-1.8947219911	-0.248509
C	 0.3300616601	-3.3915851071	-2.9423620834	-0.103957
C	 1.0159217253	-2.3633480894	-3.8154640338	-0.345197
C	 1.5677957472	-2.6587049476	-2.4478800136	 0.378117
O	 2.8392861834	-3.1795396899	-2.2640794322	-0.463469
H	 0.9879747503	 1.9329293278	 0.3167990758	 0.11231
H	-0.352110841	 2.0901745289	-0.824057701	 0.112363
H	-0.6790325107	 1.9387218524	 0.9072995838	 0.110425
H	 0.2115753577	-0.4024776657	 0.896677583	 0.094149
H	-1.1184998857	-0.2456820902	-0.2346510525	 0.098679
H	 0.528549531	 0.0184262846	-2.1220043716	 0.088319
H	 1.8530386222	-0.1570024623	-0.9819453424	 0.086558
H	 1.0350489921	-2.4528296678	-0.3800518614	 0.076961
H	-1.0070449083	-3.3403358337	-1.1742454935	 0.10307
H	-1.2890253949	-1.9979908337	-2.3038188819	 0.091476
H	 0.224549755	-4.4222261171	-3.2568367123	 0.091141
H	 1.6092552766	-2.7837553063	-4.621714607	 0.109949
H	 0.5256581662	-1.4225202688	-4.057733394	 0.101724
H	 3.4805698883	-2.5307146291	-2.5727759394	 0.284333
