15
gdb 43497	1.97463	1.91436	0.99325	1.2002	71.71	-0.2678	-0.0272	0.2406	1115.2948	0.115745	-450.202179	-450.194558	-450.193614	-450.23479	28.781	
N	-0.0479054652	 1.3455995881	-0.1549110974	-0.505608
C	-0.0037989498	 0.0898001442	 0.0300275509	 0.375616
C	-1.2776781092	-0.6916225426	 0.2489685831	-0.318231
C	-1.1277896038	-1.9587546045	 1.0571976018	 0.375617
N	-2.1079965205	-2.4090673648	 1.7277142736	-0.505608
N	 0.1188758083	-2.5729300601	 0.9281811767	-0.401905
C	 1.2815760149	-2.0053418242	 0.4294152287	 0.467669
O	 2.3367060737	-2.5976056766	 0.4028092048	-0.379099
N	 1.1477738829	-0.6976874899	-0.0120977347	-0.401904
H	 0.8781114767	 1.7407868075	-0.3308762033	 0.212731
H	-2.0284034356	-0.0505430378	 0.7060275974	 0.17448
H	-1.6573158092	-0.9797563358	-0.74109866	 0.163573
H	-1.8828179185	-3.2912098846	 2.192217246	 0.212731
H	 0.2619537235	-3.4861628636	 1.3356657985	 0.264969
H	 2.0252990919	-0.2723364355	-0.2757930863	 0.264969
