21
gdb 107424	2.7	1.45878	1.33322	2.1892	81.28	-0.2185	0.0727	0.2911	1097.0849	0.184391	-383.227174	-383.21908	-383.218136	-383.259619	32.407	
C	-0.2216454843	 1.5563029905	-0.1436386207	-0.379525
C	 0.1687659164	 0.0833952852	 0.0319820538	-0.280761
C	 0.7618139914	-0.5374863401	-1.2160475284	 0.353011
C	 1.9017476898	-1.4909558664	-1.1697003134	-0.29873
N	 2.1248106757	-0.1065431369	-1.6232976773	-0.147867
C	 2.1317807592	 0.108071903	-3.0894349604	-0.171744
C	 0.7307864287	-0.1764354846	-3.6198715598	-0.035995
N	 0.3146427197	-1.5859501471	-3.4747815437	-0.34184
C	-0.1034010948	-0.5897621576	-2.4624418266	-0.107087
H	 0.6509067559	 2.1450151895	-0.4420637012	 0.131624
H	-0.9931193145	 1.6867372944	-0.9100520846	 0.109209
H	-0.6119190135	 1.9725556974	 0.7900345995	 0.111034
H	 0.9032406067	-0.0009960836	 0.8396929051	 0.105053
H	-0.7047270893	-0.5055997254	 0.3426152099	 0.094255
H	 2.3669148223	-1.7237513713	-0.2142423938	 0.100425
H	 1.9144769882	-2.2888313107	-1.9047375154	 0.136468
H	 2.3866548718	 1.1578688563	-3.2735808836	 0.105575
H	 2.8959119493	-0.5131638319	-3.5678899019	 0.113434
H	 0.3371735318	 0.4084388494	-4.4463819896	 0.08794
H	-0.4654531954	-1.7748602633	-4.1002769383	 0.230498
H	-1.1541538052	-0.3331668569	-2.3825762395	 0.085023
