19
gdb 88364	2.26527	1.39011	1.14114	4.2434	76.08	-0.2582	0.0383	0.2965	1163.1399	0.158368	-419.195357	-419.185727	-419.184783	-419.229354	36.437	
C	 0.1336466914	 1.4659734416	 0.0589316744	-0.392801
C	-0.0512484132	-0.0642424464	 0.0403033789	 0.065067
N	 0.5646861173	-0.6171654872	 1.2491985415	-0.533101
C	-1.5101787341	-0.3583430375	-0.0162513805	 0.26447
N	-2.6446347823	-0.5835996445	-0.0244631021	-0.349289
C	 0.5887275226	-0.6369602247	-1.2315306659	-0.003284
C	 2.0381662903	-1.0733400518	-1.2493886656	-0.351639
C	 0.9327346122	-2.0867451313	-1.4139080008	 0.081133
O	 0.6246045731	-2.976388938	-0.3738982114	-0.414994
H	 1.2024545927	 1.6894226966	 0.087755664	 0.135536
H	-0.3113543778	 1.9277641344	-0.8258417256	 0.130332
H	-0.3420132909	 1.8996738035	 0.9436477367	 0.125465
H	 0.1121878532	-0.2252309153	 2.0693621106	 0.234601
H	 0.4316855198	-1.6242787502	 1.2623373182	 0.254394
H	 0.2139810568	-0.1449187927	-2.1239951031	 0.103833
H	 2.6553162178	-0.8190374003	-2.1040759278	 0.115011
H	 2.5388988374	-1.0618605556	-0.2878249646	 0.14063
H	 0.7689790178	-2.5010228258	-2.4078439041	 0.099609
H	 1.338567696	-3.619631135	-0.3102399029	 0.295022
