17
gdb 128842	6.69589	0.69961	0.64102	2.2484	70.71	-0.2644	-0.0243	0.2401	1684.6164	0.135587	-455.136956	-455.128072	-455.127128	-455.173736	29.965	
C	-0.3532352887	 1.3176552484	 0.0532966205	-0.231562
O	 0.2478441686	 0.0479985236	-0.0540015589	-0.233083
C	 0.5411870534	-0.5239692674	 1.1991323856	-0.051121
C	 1.1807711726	-1.8823074962	 0.9297300019	-0.347888
C	 1.5429032596	-2.6002965216	 2.1819931475	 0.452976
N	 1.3765148538	-2.2190509349	 3.4156628026	-0.321223
C	 1.8963333848	-3.2829232041	 4.1117365696	 0.036762
N	 2.3561855054	-4.2583366963	 3.3804791389	-0.113321
O	 2.1200180419	-3.8048155408	 2.0747169163	-0.203214
H	 0.3017582853	 2.0363928785	 0.5700212136	 0.108225
H	-0.5410437539	 1.6758403241	-0.9614630892	 0.13045
H	-1.3090628168	 1.2713869377	 0.5981369836	 0.108237
H	 1.2277341163	 0.1142454242	 1.776929421	 0.107485
H	-0.3703714621	-0.6438425459	 1.8050518207	 0.107723
H	 0.4953185123	-2.5027335387	 0.3411219972	 0.150794
H	 2.0778004916	-1.7525990447	 0.313583618	 0.15072
H	 1.932292506	-3.3269122658	 5.1905576511	 0.148041
