25
gdb 64118	2.50205	1.27417	1.21091	1.264	88.35	-0.2351	0.0713	0.3064	1257.7821	0.22694	-389.52771	-389.517404	-389.51646	-389.562154	40.497	
C	 0.1252201543	 1.5013084595	 0.1219946181	-0.411253
C	-0.032528741	-0.0183095263	-0.0393252349	 0.399031
C	-1.5107350983	-0.4097914105	-0.0055304243	-0.421038
C	 0.7025692381	-0.543717957	-1.2918680668	-0.263399
C	 2.1060673118	-0.8559965836	-0.762700082	-0.263228
C	 1.8349528799	-1.3357840843	 0.6800248392	 0.398969
C	 1.5915920998	-2.8513715073	 0.7433121292	-0.411303
C	 2.934515701	-0.9285965186	 1.662161777	-0.421041
O	 0.6219858755	-0.6635395727	 1.070062243	-0.344607
H	 1.1752545566	 1.8002399942	 0.048926032	 0.108792
H	-0.4381852091	 2.0402134042	-0.647358147	 0.106291
H	-0.2452588209	 1.8117720566	 1.1031970382	 0.119905
H	-2.0528653408	 0.0391784936	-0.8446256808	 0.107943
H	-1.6199063755	-1.4964739081	-0.0625222082	 0.112291
H	-1.9771661137	-0.0689304234	 0.9237929195	 0.118438
H	 0.2167533057	-1.4538705524	-1.6589277831	 0.097649
H	 0.7013333727	 0.1820505137	-2.1092736102	 0.097624
H	 2.6344790611	-1.6055952243	-1.3574943203	 0.097607
H	 2.7235766023	 0.0482288476	-0.7484608829	 0.097645
H	 2.514625559	-3.4075357803	 0.5472496244	 0.106303
H	 1.225189044	-3.1282573763	 1.7360267428	 0.119902
H	 0.8424263927	-3.1630842473	 0.0092469736	 0.1088
H	 3.0676431876	 0.1569008277	 1.6584994155	 0.112294
H	 2.674053238	-1.2363362097	 2.6794338448	 0.118446
H	 3.8881814093	-1.3973794552	 1.396992103	 0.107942
