19
gdb 112052	2.43409	1.41997	1.02675	2.3533	76.13	-0.2467	0.0089	0.2556	1186.1911	0.158987	-423.006961	-422.998417	-422.997473	-423.040561	32.38	
O	 0.0521847466	 1.4989395139	 0.0204427271	-0.420376
C	 0.0605846866	 0.086240357	 0.1358509617	-0.074028
C	-1.3513850437	-0.5277105075	 0.0450954036	-0.128032
C	-2.0195506338	-0.2410312165	-1.281763756	-0.096106
C	-2.1696286457	-1.3343173888	-2.0299615485	-0.07365
C	-1.6606874331	-2.574104038	-1.3383053048	-0.334672
C	-1.347013323	-2.0654587946	 0.0734834458	 0.404081
C	-0.6553498102	-2.873095986	 1.0846702861	-0.247834
O	-2.0711825073	-2.6879076083	 1.1412620053	-0.26926
H	-0.1919150187	 1.7179078823	-0.8842201727	 0.284387
H	 0.7126018342	-0.3745905594	-0.6228989366	 0.08665
H	 0.4962549159	-0.1270245543	 1.1169471986	 0.110531
H	-1.9377656764	-0.1485805489	 0.8901702596	 0.101486
H	-2.3279247038	 0.7575503793	-1.5717699903	 0.096131
H	-2.6051735094	-1.3586015331	-3.022580884	 0.098714
H	-2.3999076319	-3.3815928853	-1.2899415356	 0.126103
H	-0.7728180149	-2.9837760171	-1.8389252552	 0.112903
H	-0.3227607993	-3.8801802501	 0.832410789	 0.109348
H	-0.0893553119	-2.3932083044	 1.8822075369	 0.113623
