19
gdb 104255	2.20878	1.31736	1.10072	5.2266	75.76	-0.2581	0.0003	0.2584	1206.9769	0.158391	-419.193146	-419.18353	-419.182585	-419.227788	34.966	
C	 0.0342541587	 1.5614272448	-0.2102829394	-0.414287
C	-0.045081653	 0.0391273396	-0.0478613612	-0.203729
C	-1.4727945519	-0.5072164434	 0.0344610423	 0.219044
N	-2.1405734579	-0.034631862	 1.2241159505	-0.562454
C	-2.2138608968	-0.5067077225	-1.3422999587	-0.113457
O	-2.0150582645	-1.9296959304	-1.4954608477	-0.278561
C	-1.5679214044	-2.0637409042	-0.1375497685	-0.020854
C	-0.3547337113	-2.8686171813	-0.0032671389	 0.28719
N	 0.6102930286	-3.4926706835	 0.1193302779	-0.331656
H	 1.0729809464	 1.8727950258	-0.3508274516	 0.131045
H	-0.5335793029	 1.9076252925	-1.0808006536	 0.120957
H	-0.340037031	 2.0947539065	 0.6701077627	 0.120929
H	 0.4565243889	-0.4415750267	-0.8942722898	 0.125101
H	 0.4952348996	-0.2693741579	 0.8534767159	 0.126495
H	-2.0385657027	 0.968166439	 1.3314534609	 0.235993
H	-3.1355502059	-0.2342872402	 1.1973205887	 0.231608
H	-3.2799886732	-0.2512918263	-1.2712167403	 0.096027
H	-1.7587142907	 0.0548425272	-2.164833916	 0.114209
H	-2.3449382861	-2.4945448171	 0.5094268967	 0.1164
