21
gdb 114354	2.87562	1.12225	1.08529	0.5432	78.26	-0.2387	0.0757	0.3144	1252.877	0.182257	-424.189532	-424.180508	-424.179564	-424.22357	34.07	
C	 0.4537603581	 1.5656287014	-0.1676578792	-0.411704
C	 0.1717872216	 0.0954085992	 0.0548426551	 0.165561
O	 0.9662263677	-0.7811593647	-0.7948348038	-0.31903
C	 1.2491192362	-1.6704661181	 0.309997221	 0.089121
C	 2.6554750528	-1.4698444404	 0.9202226367	 0.024238
C	 3.7901982282	-1.1255336499	-0.0217516948	-0.095881
O	 4.9189965605	-0.7832385647	 0.7747324473	-0.426139
C	 2.0752183964	-0.3380697304	 1.8282523054	-0.256013
C	 0.6392681509	-0.6566228595	 1.3185043713	-0.106462
H	 1.5026825099	 1.8129066864	 0.0132561705	 0.123775
H	 0.215663779	 1.8370812789	-1.2011746102	 0.127738
H	-0.1691493268	 2.1764058472	 0.49497046	 0.117429
H	-0.8961011507	-0.0996342339	-0.1293383287	 0.071831
H	 0.8879546522	-2.686208929	 0.1227166563	 0.068563
H	 2.9368914427	-2.3416410847	 1.5207443689	 0.076915
H	 4.0077291217	-1.9876328881	-0.6740027476	 0.083186
H	 3.4842896875	-0.2935633466	-0.6704389741	 0.09837
H	 5.6156368684	-0.476113164	 0.1875152397	 0.285591
H	 2.2129318314	-0.5120876881	 2.8967160735	 0.10575
H	 2.4451911163	 0.6646827697	 1.6032495304	 0.10536
H	-0.1150880238	-0.9046300406	 2.0640051424	 0.0718
