19
gdb 52458	11.84365	0.40297	0.39997	0.5736	75.93	-0.2581	-0.0335	0.2247	2559.9752	0.154759	-460.166238	-460.155488	-460.154544	-460.204851	34.835	
O	-0.0655696569	-0.1021274424	-0.1224867195	-0.229649
C	 0.0435869274	 1.0949232608	-0.0728656396	 0.153197
C	 1.3430790473	 1.8525698774	-0.2280019114	-0.280988
C	 1.2658043411	 2.9026457861	-1.3355580881	-0.063973
O	 2.4232210538	 3.7058398609	-1.2582744633	-0.241966
C	 2.4823818538	 4.6950050437	-2.2626472191	-0.063968
C	 3.7524257706	 5.5163766599	-2.0443903351	-0.28101
C	 4.0324538176	 6.446797829	-3.2031237882	 0.153216
O	 4.1874646167	 7.6361055256	-3.1092049507	-0.229653
H	-0.8472338104	 1.7432229614	 0.1040295221	 0.07509
H	 1.5399588437	 2.379525007	 0.7160538557	 0.134655
H	 2.1562677759	 1.1457950504	-0.4071007797	 0.132645
H	 1.1974040929	 2.4154395233	-2.3220596131	 0.104812
H	 0.3595585479	 3.5214673482	-1.2159559835	 0.095191
H	 2.4939689739	 4.2275609048	-3.2625873656	 0.095194
H	 1.5930335635	 5.344945436	-2.2192724657	 0.104807
H	 3.697084569	 6.0946815303	-1.1195156527	 0.132655
H	 4.5934350204	 4.8132722464	-1.9667347173	 0.134664
H	 4.0950244919	 5.9388134812	-4.1946866851	 0.075081
