22
gdb 7544	2.98651	1.23165	1.02949	1.3076	78.79	-0.2502	0.0828	0.333	1263.678	0.198201	-350.197704	-350.187834	-350.18689	-350.232236	36.422	
C	-0.06021852	 1.6005114855	 0.106854491	-0.377844
C	-0.0620692738	 0.0769169651	 0.2611540971	-0.164747
C	-1.3330776192	-0.5712550381	-0.3055331427	-0.239294
C	-1.393520051	-2.0829904506	-0.1425451267	 0.33745
C	-0.4005687599	-2.8769393627	-0.9720386712	-0.460295
C	-1.7545016644	-2.6316975785	 1.2313422423	-0.36535
C	-2.7390739229	-2.7199102281	 0.0897743383	 0.053451
O	-3.8696741736	-1.894864184	 0.0818135434	-0.420401
H	 0.851835932	 2.04423235	 0.5186354031	 0.107595
H	-0.1254660821	 1.8919723837	-0.9475105313	 0.11276
H	-0.9142599194	 2.0514455719	 0.6246870471	 0.112619
H	 0.8243295194	-0.3371886228	-0.2351609852	 0.093562
H	 0.033747774	-0.186305282	 1.3224197505	 0.093595
H	-2.2127405149	-0.1291502735	 0.1724882691	 0.107019
H	-1.4166392691	-0.3265819532	-1.3740644933	 0.088713
H	 0.6330012122	-2.6563049673	-0.6843092469	 0.118728
H	-0.5499538576	-3.9543376562	-0.848126491	 0.109286
H	-0.5073203655	-2.6453037287	-2.038488693	 0.115682
H	-1.2732854997	-3.5382720574	 1.5845420369	 0.103989
H	-1.9805765488	-1.9067391431	 2.007313152	 0.107541
H	-2.8992508944	-3.7003602759	-0.3610959063	 0.079335
H	-4.4525042815	-2.1864285841	 0.790263247	 0.286606
