18
gdb 77987	2.83215	1.31791	1.06626	4.8701	78.58	-0.2573	-0.0014	0.256	1174.0433	0.146672	-401.9253	-401.91656	-401.915616	-401.95842	32.77	
C	-0.7702399962	 1.2351348616	-0.3400208889	-0.426734
C	-0.4035250393	-0.2177273388	-0.5493319343	-0.070585
C	 0.5368384804	-0.8057659239	-1.5842474068	-0.22064
C	 1.8223292913	 0.0036289982	-1.7684679215	 0.1448
C	 1.8659176125	 1.3126878419	-2.5268516736	-0.424069
O	 1.9844206003	 0.1278490305	-0.3162455906	-0.331706
C	 0.9140316716	-0.7941828878	-0.1022037109	 0.322589
C	 1.08850229	-1.8489428115	 0.8444083942	 0.219301
N	 1.2088075634	-2.7060722505	 1.6126521186	-0.348778
H	-1.3626820204	 1.6195096931	-1.17633317	 0.124652
H	-1.3686227609	 1.3383672362	 0.5703486617	 0.129661
H	 0.1215573645	 1.8528362004	-0.2260757239	 0.146187
H	-1.2184939056	-0.9162799019	-0.367666505	 0.116003
H	 0.2515041899	-1.6527133778	-2.1937201995	 0.120685
H	 2.616187236	-0.661308217	-2.1328448261	 0.102329
H	 2.8212212019	 1.815032536	-2.344432716	 0.137885
H	 1.7921042552	 1.1128861855	-3.6011927561	 0.127398
H	 1.0578496553	 1.9884013156	-2.2453119814	 0.13102
