13
gdb 20721	5.7878	1.61859	1.27482	2.2302	63.91	-0.2477	-0.0814	0.1663	893.3568	0.097023	-394.816664	-394.809951	-394.809007	-394.847636	24.641	
C	-0.0192459171	 1.5167921773	 0.0137065767	-0.455612
C	 0.0003601417	 0.0198145406	-0.0324479697	 0.37894
N	-0.0547587366	-0.5690106367	-1.1927961853	-0.221076
N	-0.0336321618	-1.9136120126	-1.1770763719	-0.260547
C	 0.0402658516	-2.7378641979	-0.0630544931	 0.403845
O	 0.0544461191	-3.9515059019	-0.1359852859	-0.378893
C	 0.0956876755	-1.9314415681	 1.1649514674	-0.081627
N	 0.0771827272	-0.6404139417	 1.1818493404	-0.246788
H	 0.8850165972	 1.8928686652	 0.502980316	 0.145045
H	-0.083965149	 1.9280924212	-0.9938942079	 0.142979
H	-0.8712158859	 1.8666236117	 0.6054591251	 0.145043
H	-0.0771516351	-2.3573114089	-2.0860504014	 0.280992
H	 0.1556557332	-2.4772687482	 2.1053072197	 0.147698
