16
gdb 11011	4.22611	1.75775	1.48334	3.9787	64.87	-0.2427	0.0146	0.2573	868.9384	0.132381	-379.945345	-379.938168	-379.937224	-379.976535	27.336	
C	 0.012593552	 1.518255062	-0.0339026632	-0.470893
C	-0.0411442865	 0.0182977486	 0.084409732	 0.333278
C	-1.3620477919	-0.6964982237	-0.2183162602	-0.23478
N	-1.2473479286	-1.944959695	 0.5154815302	-0.336043
C	-0.2291759189	-1.9742751905	 1.4451651142	 0.423614
O	-0.082810321	-2.8007299124	 2.3171372289	-0.377752
C	 0.6516618849	-0.7870982299	 1.1353854779	-0.194519
N	 1.1749465687	-0.7213896729	-0.2482798079	-0.363559
H	 1.0133666986	 1.8792122065	 0.2128878017	 0.140191
H	-0.2154973724	 1.8365943408	-1.0577083311	 0.124737
H	-0.7097274494	 1.9935838645	 0.6377954061	 0.122224
H	-2.2091827021	-0.0910944641	 0.1332014238	 0.115202
H	-1.4964130726	-0.8652563295	-1.2949831221	 0.115673
H	-1.9807859485	-2.6344095104	 0.5497728455	 0.254648
H	 1.2872602471	-0.3896443733	 1.9173110184	 0.110633
H	 0.9644536606	-1.5865629907	-0.7436486041	 0.237345
