17
gdb 51894	4.49813	0.92543	0.80477	3.9811	66.84	-0.2574	-0.0015	0.2559	1368.6802	0.136049	-496.11502	-496.106838	-496.105894	-496.148542	29.555	
O	-0.01738033	 0.0165309995	-0.0094476841	-0.264219
C	 0.0025966321	 1.204704413	 0.0699402847	 0.179609
O	 1.1358571697	 1.9252388112	-0.1268498761	-0.186182
C	 1.0069746508	 3.3256443978	-0.0706797759	 0.196025
C	 2.3998563471	 3.9224012127	 0.1093743765	-0.116995
O	 2.3294482311	 5.3342035054	 0.0323805958	-0.249573
C	 1.7703334451	 5.7569985659	-1.2031888345	-0.079678
C	 0.3766922685	 5.1668358605	-1.3772057794	-0.084142
O	 0.4335914587	 3.7442907568	-1.2866921228	-0.258144
H	-0.868536254	 1.8382032801	 0.3175505601	 0.092922
H	 0.3540745767	 3.6224675343	 0.7697725527	 0.080376
H	 2.8052721426	 3.6692451736	 1.0917773991	 0.124749
H	 3.055919082	 3.507412576	-0.6708801458	 0.115363
H	 1.7326575964	 6.8496275423	-1.1751942918	 0.117467
H	 2.4129984148	 5.4437418898	-2.0410554197	 0.10498
H	-0.2964547026	 5.5692316796	-0.6039973623	 0.104512
H	-0.038453309	 5.3979329415	-2.3615290067	 0.122931
