16
gdb 70239	4.03843	1.08749	0.95585	4.6561	78.08	-0.2509	-0.0449	0.206	1203.7474	0.12477	-400.760626	-400.752798	-400.751854	-400.792816	30.242	
O	-0.0643309715	 1.4403035686	 0.0308744605	-0.461986
C	-0.001961409	 0.0514015964	 0.0473542261	 0.38259
C	-0.3729891552	-0.7584391083	-1.1788975581	-0.339513
C	-1.2603531616	-0.8010004173	 0.0446043524	-0.099106
C	-1.0605444705	-1.9386752582	 1.0387014144	-0.330224
C	 0.3726425759	-1.7339102539	 1.5197019465	 0.187495
C	 0.9244902749	-0.6267198772	 0.996863449	-0.240765
C	 1.0141441621	-2.6429407075	 2.4016630299	 0.205525
N	 1.5074407354	-3.4017134181	 3.1256368632	-0.337073
H	 0.5577489664	 1.7663920762	-0.6281830014	 0.290243
H	-0.7608782265	-0.1907227742	-2.0187416877	 0.122051
H	 0.228949751	-1.6227788528	-1.4410222489	 0.12207
H	-2.2262755466	-0.3169154985	-0.0228031898	 0.109659
H	-1.7630231674	-1.8852069647	 1.8783636564	 0.132978
H	-1.191040095	-2.9249985816	 0.5790106485	 0.133149
H	 1.9211015678	-0.2611695889	 1.2132557789	 0.122908
