20
gdb 8317	5.36917	0.94352	0.93544	1.2168	72.38	-0.2439	0.0799	0.3238	1347.2419	0.17546	-386.116522	-386.107354	-386.10641	-386.151262	32.243	
C	-0.5187922271	 1.3782715101	 0.230369894	-0.223058
O	-0.5788939478	-0.0050250264	 0.4815143346	-0.235316
C	-0.7081364631	-0.7735812121	-0.6925300645	-0.073167
C	-0.7468226569	-2.2353024912	-0.2885428007	 0.137356
C	-2.0471720854	-2.7948245772	 0.3197684245	-0.306493
C	-1.9996360215	-3.7941021362	-0.8579493908	 0.175192
C	-3.1814243348	-3.8779109789	-1.801135158	-0.397389
O	-0.8672746212	-3.0950005954	-1.44219539	-0.317705
H	-0.4179207925	 1.8829017933	 1.194404998	 0.126761
H	 0.3446189386	 1.6409608849	-0.4012323253	 0.105509
H	-1.4304646576	 1.7435315019	-0.2687175219	 0.103783
H	-1.6288462814	-0.511892093	-1.2411969378	 0.083505
H	 0.1408552854	-0.6051708037	-1.3770912646	 0.093849
H	 0.1521720891	-2.4700710946	 0.2974646754	 0.079763
H	-1.9776659492	-3.2144586478	 1.3236310735	 0.109042
H	-2.8875185725	-2.0972171851	 0.2768586669	 0.106317
H	-1.6948229404	-4.8036903676	-0.5470231446	 0.072733
H	-3.5088515093	-2.8792126279	-2.1063204027	 0.116753
H	-2.9143770001	-4.4416331302	-2.7007821079	 0.126909
H	-4.0211232821	-4.3877391528	-1.3156817082	 0.115656
