17
gdb 34760	3.40144	1.48648	1.43523	0.6182	81.59	-0.2251	-0.0127	0.2124	972.5717	0.137088	-347.504211	-347.49722	-347.496276	-347.535186	29.337	
C	-0.0840289135	-1.2132522889	-0.1261142222	-0.44252
C	-0.0055656536	-0.0190243323	-0.0077038187	 0.321507
C	 0.0420363477	 1.4309274512	 0.0799025383	-0.169958
C	-0.2550409971	 2.0704563245	 1.4887478002	-0.116367
C	 0.9891311752	 1.5681311218	 2.2471803679	-0.067172
C	 2.0087079225	 1.5863539265	 1.3917532312	-0.067173
C	 1.4673342801	 2.1012248116	 0.0436650458	-0.116354
C	 1.017009397	 3.5597683289	 0.2504662108	-0.089578
C	-0.0038373181	 3.541533942	 1.1069949662	-0.089565
H	-0.1420206663	-2.2694172048	-0.2175252489	 0.18951
H	-0.6084257484	 1.8639850493	-0.6861561197	 0.101595
H	-1.219922166	 1.8433782245	 1.93945656	 0.07005
H	 0.994731106	 1.3032998182	 3.2953320292	 0.100983
H	 3.0453067933	 1.3399641285	 1.5748987325	 0.100983
H	 2.0833102212	 1.9023827547	-0.8319682793	 0.070049
H	 1.4980474867	 4.4143732202	-0.2052687535	 0.102004
H	-0.5539368266	 4.377721064	 1.5164132602	 0.102007
