23
gdb 101024	2.18338	1.23056	0.95214	0.3937	81.83	-0.2423	0.0673	0.3097	1375.6444	0.202833	-425.402221	-425.391428	-425.390484	-425.438082	39.728	
C	-1.6337548734	 1.3662496983	-1.6264880096	-0.387045
C	-1.7827063062	-0.1346231467	-1.3674233856	-0.187995
C	-1.6028006595	-0.5150413053	 0.1064969547	 0.052775
O	-2.5762939345	 0.1079887173	 0.9401754319	-0.431756
C	-1.5837150751	-2.035075943	 0.300963712	 0.426532
C	-1.9667077058	-2.6398931669	 1.6252153118	-0.328813
C	-2.8689415646	-2.7991058582	 0.4167316247	-0.323072
O	-0.5953988044	-2.6937967807	-0.4487695466	-0.286823
C	 0.7192131097	-2.5828382461	 0.0666431127	-0.25129
H	-1.8235976615	 1.607252995	-2.676713843	 0.110297
H	-2.3312953125	 1.9418789658	-1.0112819735	 0.121526
H	-0.6217151014	 1.7090004138	-1.3837766678	 0.113851
H	-2.7756872551	-0.4793309553	-1.6927446777	 0.085545
H	-1.0603835616	-0.7047027542	-1.9601944689	 0.116975
H	-0.6460927536	-0.1103203606	 0.4625132126	 0.082072
H	-3.437467005	-0.0197881978	 0.5275574319	 0.281567
H	-1.4163950855	-3.5156898748	 1.9502012274	 0.113142
H	-2.287941387	-1.9678497729	 2.4115066227	 0.128372
H	-3.8093384979	-2.2585201108	 0.4054771318	 0.094305
H	-2.8956941348	-3.7673930726	-0.0687295495	 0.122637
H	 1.3477563201	-3.2468753053	-0.5318012236	 0.125922
H	 1.1183992193	-1.562288789	-0.0127641637	 0.110301
H	 0.7694971301	-2.8937677202	 1.1188745454	 0.110973
