16
gdb 64553	2.31733	1.95412	1.23474	3.789	70.31	-0.253	-0.0449	0.2081	996.6653	0.122498	-437.830781	-437.822569	-437.821625	-437.863894	30.33	
C	 0.1074963938	 1.6521744841	-0.2213115178	-0.491506
C	 0.0035819282	 0.1358503868	-0.1065233027	 0.266032
C	-1.343922451	-0.3709924925	-0.5725879136	 0.08499
O	-1.9026035712	-1.3380432703	-0.1208632405	-0.236372
C	 1.2412289343	-0.7057504552	-0.6131394601	-0.196074
N	 1.9775749964	-0.1755809724	 0.6129354039	-0.324813
C	 0.5987983112	-0.5507167612	 1.165476827	-0.185866
C	 0.7842793861	-1.8455742325	 0.3391180778	 0.453695
O	 0.8627949851	-3.0248854832	 0.4643460797	-0.32392
H	 1.0986302742	 1.9955789628	 0.0728756013	 0.159643
H	-0.0842887372	 1.9728895635	-1.2509896218	 0.12471
H	-0.6357226063	 2.1388966331	 0.4193761459	 0.129116
H	-1.8038903772	 0.2261380906	-1.3919319103	 0.086015
H	 1.6948146128	-0.7083636693	-1.6029380725	 0.105954
H	 2.6882981816	-0.8433038372	 0.9242333169	 0.239575
H	 0.3271295694	-0.3889774071	 2.206473377	 0.108822
