17
gdb 86606	3.8425	0.98013	0.8332	0.7201	69.51	-0.2529	-0.0352	0.2177	1341.323	0.133879	-458.934138	-458.92522	-458.924276	-458.968822	31.663	
O	 0.1108960291	 1.4726378434	 0.3155903386	-0.431605
C	 0.0900778706	 0.0986418207	 0.0928668688	 0.07095
C	-1.2518462048	-0.7209557124	 0.0726389347	-0.302087
C	-0.7079572009	-1.5731691439	-1.1237311777	-0.131457
C	-1.6145088168	-1.941189411	-2.2613471827	 0.094599
C	-1.3368005751	-3.0817217027	-3.1422334769	-0.177523
O	-2.3448023921	-3.1641423246	-2.1334338978	-0.23937
C	 0.2679707612	-0.400224509	-1.3417380598	 0.318239
O	 0.6807094145	 0.1582088737	-2.3207238251	-0.308782
H	 0.1212842718	 1.9046128657	-0.5477517376	 0.296243
H	 0.7975218221	-0.3904872752	 0.7749436625	 0.113463
H	-1.5096898807	-1.257383716	 0.9849139543	 0.125267
H	-2.086170824	-0.0864205567	-0.2373986373	 0.123092
H	-0.1833691241	-2.4622966279	-0.7593915209	 0.110748
H	-2.1977092969	-1.1152881418	-2.6712249416	 0.0994
H	-1.6980097837	-3.0687516592	-4.169075923	 0.122749
H	-0.4503832101	-3.6906887131	-2.9693306884	 0.116077
