19
gdb 123418	4.63893	0.97653	0.89432	2.1552	81.69	-0.2361	0.026	0.2621	1341.8655	0.161855	-382.077215	-382.069211	-382.068266	-382.111011	30.068	
C	-0.0821621934	 1.631664771	-0.0374395061	-0.191557
C	-0.231165859	 0.1476251899	-0.2936870885	 0.024222
C	-0.020766127	-0.8271906699	 0.8340611046	-0.2425
C	-1.4090998193	-0.5877402323	 0.2971879935	-0.273463
N	 1.3028268251	 2.077441805	-0.0073673007	 0.072244
C	 2.0530251611	 2.536978485	-1.0395383772	-0.035973
C	 3.3245512549	 2.7520412491	-0.548750273	-0.232247
C	 3.2382985695	 2.3838476662	 0.8086399182	-0.00025
N	 2.0143722947	 1.9731997462	 1.1337140853	-0.264386
H	-0.5993356278	 2.2131123736	-0.807973363	 0.117514
H	-0.5188862979	 1.8928992827	 0.9302708177	 0.128223
H	 0.0964161365	-0.1698320007	-1.2798616015	 0.08717
H	 0.4631213706	-1.7705012456	 0.6081578172	 0.114116
H	 0.2354966015	-0.4155049794	 1.8035329523	 0.135087
H	-2.1026256845	-0.0232338374	 0.912375634	 0.113067
H	-1.8782131571	-1.3633781322	-0.2975598375	 0.11434
H	 1.6284383503	 2.6782138905	-2.0212984881	 0.124738
H	 4.1778782289	 3.1295161648	-1.0881616277	 0.101352
H	 4.0103167529	 2.4100882036	 1.5638807606	 0.108305
