18
gdb 126938	6.31779	0.79826	0.71835	3.6036	76.31	-0.1899	0.0525	0.2424	1570.6213	0.149822	-431.478551	-431.469294	-431.46835	-431.5129	33.663	
C	-0.0383959736	 1.4978364362	-0.0135817875	-0.400163
C	-0.0816057747	-0.0131052758	-0.2142773579	-0.12965
N	-1.3614201948	-0.5504816839	 0.224815187	-0.399215
C	-1.6415728498	-1.8863739581	 0.1010513358	 0.483663
N	-2.8581384287	-2.4107122013	 0.0916285331	-0.410202
C	-2.5999990439	-3.7516134654	 0.0110464172	 0.399292
N	-3.6269288612	-4.6776238187	 0.0413247156	-0.584756
N	-1.3261365499	-4.0982900364	-0.0460690591	-0.316196
N	-0.7117220816	-2.8580866614	 0.0114625281	-0.275053
H	 0.9326269962	 1.8959329018	-0.3189635161	 0.128515
H	-0.8067687781	 1.9952808247	-0.615747022	 0.125178
H	-0.2063100527	 1.7550249026	 1.0359986983	 0.137023
H	 0.1255843541	-0.2608677857	-1.2682068104	 0.105793
H	 0.7127484817	-0.4779058075	 0.3846585499	 0.110588
H	-2.1686896781	 0.0218884165	 0.0227650749	 0.251985
H	-4.4896249605	-4.313897233	-0.3362870492	 0.252613
H	-3.3716422467	-5.5685138771	-0.3597574061	 0.252313
H	 0.2899773725	-2.7987261775	 0.0273684984	 0.268272
