21
gdb 104423	3.02658	1.19802	1.07459	2.033	80.5	-0.241	0.0253	0.2663	1217.3846	0.182384	-424.225213	-424.215997	-424.215053	-424.258713	35.203	
C	-0.0301212735	 1.5645010589	 0.0329006538	-0.41419
C	-0.010617079	 0.0226571585	 0.0281367601	 0.212443
C	-1.44711103	-0.5228077112	 0.0175534644	-0.109738
O	-2.1326567569	-0.0208799751	 1.1556944974	-0.422448
C	 0.7208103946	-0.4981737865	-1.2237789192	-0.124557
O	 2.115405698	-0.2645890045	-1.14512478	-0.252785
C	 2.7327816908	-1.0138607548	-0.1155892596	-0.120549
C	 1.9599318231	-0.9879066804	 1.173393046	-0.099283
C	 0.7237892449	-0.5019967985	 1.2450379574	-0.069629
H	 0.9878314804	 1.9485218561	-0.0667941627	 0.124835
H	-0.6287401746	 1.945405311	-0.8034074845	 0.101805
H	-0.4642820189	 1.9471493837	 0.9589129116	 0.128512
H	-1.9473144385	-0.2076476714	-0.9137614555	 0.083703
H	-1.4210354166	-1.6238442027	 0.0274891799	 0.086534
H	-3.0135416036	-0.4050233033	 1.1714624979	 0.28966
H	 0.5213004502	-1.5757070133	-1.3551950353	 0.080748
H	 0.3772772538	 0.022818607	-2.1232521459	 0.102712
H	 2.8882172426	-2.0604616768	-0.4400721624	 0.094412
H	 3.7292531014	-0.5770666796	 0.0215535478	 0.116207
H	 2.4608186958	-1.3912328155	 2.0500024493	 0.089883
H	 0.1833886559	-0.4710971018	 2.1862206495	 0.101723
