15
gdb 43211	2.37967	1.69185	1.20134	2.2459	71.82	-0.2446	-0.0373	0.2073	1027.7913	0.111001	-420.564017	-420.55616	-420.555216	-420.596953	29.123	
O	-0.0446241305	 0.0070351208	-0.3870176161	-0.282384
C	-0.0676437268	 1.1697106451	-0.1276024323	 0.396923
C	-1.1871535825	 2.1940908315	 0.0939913424	-0.228789
C	-1.5536250242	 2.3163161312	 1.5954249139	-0.082987
O	-0.4691483649	 3.2404089152	 1.8344969561	-0.271935
C	-0.1003159276	 3.2541737085	 0.4521244639	 0.104898
C	 1.0465504794	 2.2491909373	 0.0987710708	-0.340211
C	 2.1208098987	 2.0069672477	 1.0280847801	 0.331627
C	 3.0024355695	 1.7900894949	 1.8153994015	-0.423047
H	-1.9775666362	 2.2836643334	-0.6487543925	 0.111738
H	-2.5262473	 2.7905370469	 1.768135382	 0.119752
H	-1.4785993674	 1.4062112792	 2.1995913482	 0.130079
H	-0.0271019305	 4.2597475439	 0.0353515008	 0.095882
H	 1.4327917015	 2.5019732674	-0.9004075859	 0.136947
H	 3.7804498014	 1.6019031471	 2.5131344772	 0.201507
