19
gdb 89886	3.65352	0.87251	0.80202	2.1143	78.24	-0.2472	-0.0197	0.2275	1444.1103	0.157733	-423.009054	-423.000202	-422.999258	-423.042987	33.364	
O	 0.7449921201	 0.4401484876	-0.9864848612	-0.429889
C	 0.016709619	-0.3243608988	-0.0664258732	 0.175363
C	 0.1966242794	-0.0808737445	 1.4620222062	-0.347937
C	-1.314757069	-0.3200640531	 1.6015521852	 0.349476
C	-1.9594631481	-1.3830589607	 2.4117292713	-0.354434
C	-2.2573587889	 0.0853738096	 2.7217570351	-0.173121
C	-1.6912250395	 0.6639952579	 3.9575290152	 0.168102
O	-2.2011313825	 1.5438856137	 4.6071855003	-0.271253
C	-1.5156301748	-0.0910298624	 0.0991105495	-0.344172
H	 0.5917416242	 1.3715864545	-0.7940140569	 0.279222
H	 0.2240352665	-1.3675349993	-0.3191566582	 0.101841
H	 0.8801698041	-0.7360422527	 2.007174575	 0.110756
H	 0.4714866053	 0.9618528507	 1.6602483456	 0.103585
H	-2.7698997832	-1.9611674297	 1.980618103	 0.128317
H	-1.3508479891	-1.9240358172	 3.1311913961	 0.124118
H	-3.2284586828	 0.4791496289	 2.4392884857	 0.104888
H	-0.7162536336	 0.2140930266	 4.2635389901	 0.062968
H	-1.7787772127	 0.9496087452	-0.124978738	 0.102183
H	-2.1984205844	-0.7531709862	-0.438891461	 0.109985
