17
gdb 54817	3.11797	1.44821	1.32388	3.0335	73.79	-0.2195	0.0092	0.2287	1016.6622	0.137222	-418.01311	-418.00523	-418.004286	-418.045873	30.335	
N	 0.1077839128	 0.9731762789	 1.0310164119	-0.528367
C	 0.1640991384	 0.0310884815	 0.0338770079	 0.41
O	 1.1466052257	-0.0934155896	-0.6734071374	-0.371293
C	-1.0721291184	-0.8247621818	-0.0268913347	-0.123512
C	-2.0128781861	-0.8390633528	-1.2113452637	-0.088241
C	-1.504650845	-0.3619207498	-2.5258619974	-0.08219
C	-0.5184988074	-1.1555830434	-2.9420542034	-0.051733
C	-0.2707703659	-2.2646752076	-1.9486733045	-0.202818
N	-1.2380103009	-2.0354673516	-0.8417955871	-0.128974
H	 0.8472293418	 1.6571436865	 1.0502551861	 0.260041
H	-0.7607868699	 1.2094457367	 1.4797254683	 0.25794
H	-1.5459051615	-0.939035853	 0.9475725144	 0.097556
H	-3.0822849875	-0.8428595459	-1.0088460415	 0.094315
H	-1.8973578932	 0.5088709542	-3.0347020691	 0.097767
H	 0.0669898964	-1.0291137708	-3.8446183292	 0.103784
H	-0.4796151087	-3.2547559001	-2.3744273649	 0.107375
H	 0.7559732695	-2.2614122715	-1.5773006458	 0.148351
