18
gdb 27875	2.01156	1.77585	0.95468	0.7634	84.05	-0.2186	-0.0195	0.1991	1232.9515	0.14827	-398.220695	-398.211547	-398.210603	-398.25547	33.286	
C	-0.0905373505	 1.5034370388	 0.0565014509	-0.469315
C	-0.0040005654	 0.0024998517	-0.0074528832	 0.331374
C	-0.0577050617	-0.6888704102	-1.2176079261	-0.244438
C	 0.0185582323	-2.0807264397	-1.1700096044	 0.331375
C	-0.0425688003	-2.9244718057	-2.4144947951	-0.469314
N	 0.1484921056	-2.7341435019	-0.0129530589	-0.36819
C	 0.2048818106	-1.9750709425	 1.0922810444	 0.406057
N	 0.3916615171	-2.6335719313	 2.2759046949	-0.555805
N	 0.1257814173	-0.6370039095	 1.1573647819	-0.36819
H	 0.8194118234	 1.9138569286	 0.5061224331	 0.142081
H	-0.2246522011	 1.9449094746	-0.9335458229	 0.11874
H	-0.9251357466	 1.8057433603	 0.6968168933	 0.140355
H	-0.1653185679	-0.1646610909	-2.1590442977	 0.087389
H	 0.8781676662	-3.5074632914	-2.5192823164	 0.142081
H	-0.8660829817	-3.6418880626	-2.343192566	 0.140355
H	-0.1785312488	-2.3159216673	-3.3112991655	 0.118739
H	 0.2045691256	-3.6220524824	 2.2746850749	 0.258353
H	 0.1882681058	-2.1167461185	 3.1147258729	 0.258353
