17
gdb 20965	4.61394	1.61273	1.22196	3.7515	71.58	-0.1898	0.0445	0.2344	978.6189	0.143794	-360.049379	-360.041328	-360.040384	-360.08206	29.113	
C	 0.1993727774	 1.3818305484	-0.0074825984	-0.345989
N	-0.2477320965	 0.0001841246	-0.0021539315	-0.161611
C	-0.0875448934	-0.7178910313	 1.2506129737	-0.331678
C	-0.0373626149	-0.7445609993	-1.1515130959	 0.500053
C	 0.017415422	-2.1170879655	-1.3582139525	-0.343961
C	 0.1962753551	-2.2568036341	-2.7515690634	 0.002185
N	 0.2620643418	-1.0927510998	-3.3802300062	-0.245926
N	 0.1205044034	-0.1790241009	-2.3800241266	-0.293723
H	 1.28999769	 1.490239644	-0.1286591149	 0.118968
H	-0.2953054892	 1.943691319	-0.8072953723	 0.125704
H	-0.0900461211	 1.8512620076	 0.9353384766	 0.132842
H	-0.4175834263	-0.0782701598	 2.0729387838	 0.124193
H	-0.7171199863	-1.6113296669	 1.2460626092	 0.140689
H	 0.9521677333	-1.0292244434	 1.4424611793	 0.115543
H	-0.0560912586	-2.8944250287	-0.6175809384	 0.094414
H	 0.283724094	-3.1732289759	-3.3178126754	 0.103844
H	 0.1384266293	 0.7968881321	-2.6136193071	 0.264455
