18
gdb 13767	3.35245	1.50619	1.26547	3.0188	73.12	-0.2489	0.0126	0.2614	1023.9306	0.152832	-343.969135	-343.960531	-343.959586	-344.002308	31.603	
C	 0.4066486613	 1.535544025	-0.1200819799	-0.415933
C	 0.1148326955	 0.0471561628	 0.1094486602	 0.073693
C	 0.5909571071	-0.397527725	 1.4960500728	-0.374443
N	-1.3022194474	-0.375019854	-0.0130513092	-0.08863
C	-2.3888436737	 0.5680594067	-0.1595856801	-0.243359
C	-2.0141781839	-0.3467358078	-1.2900637075	-0.141355
C	-1.4179482572	 0.2052546681	-2.4838194044	 0.28825
N	-0.9319147629	 0.6042921371	-3.455336858	-0.34375
H	 1.4857615293	 1.7025788774	-0.0520811825	 0.124206
H	 0.0860769639	 1.8830711627	-1.1049978556	 0.144692
H	-0.0701939345	 2.1559982332	 0.6466449306	 0.117329
H	 0.6576271443	-0.5328640661	-0.6463297595	 0.102083
H	 0.4161835529	-1.4664664883	 1.6384958977	 0.124096
H	 1.6591789596	-0.1947622135	 1.6210435193	 0.113503
H	 0.049580276	 0.1421817331	 2.2807794702	 0.116994
H	-3.2900046308	 0.3555875241	 0.4100274852	 0.130503
H	-2.1690911386	 1.623512745	-0.297393631	 0.135712
H	-2.6188520712	-1.2285492702	-1.4887039882	 0.13641
