19
gdb 71004	3.07212	1.54665	1.39608	2.3984	75.39	-0.2317	0.059	0.2908	993.0328	0.160214	-422.916174	-422.908917	-422.907972	-422.947205	30.653	
O	-0.069293641	 1.4582748834	 0.0441937157	-0.468703
C	 0.0559932431	 0.081692227	 0.0182413305	 0.36344
C	-1.3019460903	-0.7636137233	-0.1935227099	-0.355064
C	-0.233438023	-1.8157534793	-0.6129341904	 0.426337
C	 0.4638250257	-2.0956544624	 0.7468074052	-0.264682
C	 0.7043643468	-0.6329052873	 1.2094848416	-0.270242
O	 0.1195240854	-2.7857657832	-1.6406355807	-0.35842
C	 1.3051286692	-1.9385412074	-1.9107532725	-0.189891
C	 0.5371949561	-0.7243134134	-1.2825429376	-0.118621
H	 0.7709746199	 1.8371815477	 0.3267787988	 0.283036
H	-1.913963759	-0.9366281818	 0.6973906529	 0.096964
H	-1.8955737063	-0.362149249	-1.0137716577	 0.121966
H	-0.1962027813	-2.6514531664	 1.4182028768	 0.104842
H	 1.3853304722	-2.6683791929	 0.6348876998	 0.105092
H	 1.7665940395	-0.3855610261	 1.3099740101	 0.094242
H	 0.2030702165	-0.377006263	 2.1474241497	 0.105954
H	 2.1858172807	-2.3185461611	-1.3847787025	 0.109963
H	 1.5029027205	-1.8677269693	-2.9826152846	 0.117562
H	-0.0659157747	-0.3219580922	-2.1005975151	 0.096228
