12
gdb 131381	3.59933	1.818	1.2079	2.9553	60.83	-0.2327	-0.001	0.2317	903.7979	0.081246	-464.992745	-464.986185	-464.985241	-465.023792	24.356	
O	-0.0860571847	 1.3080666668	-0.0143887301	-0.397727
C	-0.009744216	-0.0183244629	 0.0087871854	 0.480032
N	 1.0787811536	-0.7391185322	 0.0407559234	-0.317231
N	 0.6403383748	-2.056368035	 0.0538761644	-0.382126
C	-0.7086792588	-2.1093456857	 0.0301447955	 0.529008
N	-1.7300134573	-2.9453547344	 0.0251752937	-0.400432
C	-2.7749515609	-2.0577622427	-0.0086697727	 0.045111
N	-2.495005463	-0.7569111526	-0.024944601	-0.27946
N	-1.1259005542	-0.8084858179	 0.0010445737	-0.030638
H	 0.8162744371	 1.6543828992	-0.0033394271	 0.326244
H	 1.3083978168	-2.8041316801	 0.0799874987	 0.293303
H	-3.8026643373	-2.3917301425	-0.021978934	 0.133916
