18
gdb 62857	2.82189	1.61354	1.39807	4.1529	71.5	-0.2329	0.0225	0.2554	989.0038	0.148185	-439.095514	-439.087554	-439.08661	-439.127392	31.848	
C	-0.1755607579	 1.5146048989	-0.0614353926	-0.472974
C	 0.0266174906	 0.0049675112	-0.0407234564	 0.434752
O	-1.185834022	-0.6458753364	-0.3486557273	-0.474107
C	 1.2267878209	-0.5970753577	-0.8454944255	-0.061187
C	 2.1431908805	-0.1870831762	 0.3344714445	-0.238199
C	 0.8828507638	-0.5891663355	 1.1645113597	-0.236794
C	 0.761355715	-2.0723242665	 0.7867672644	 0.423407
O	 0.4092220192	-3.0189972777	 1.4393464305	-0.371625
N	 1.1220743568	-2.0473629626	-0.5728886908	-0.311521
H	 0.7335581654	 2.0831913124	 0.1397680138	 0.127241
H	-0.5652354916	 1.8168366727	-1.0384860402	 0.133096
H	-0.915430084	 1.8021255565	 0.695718964	 0.116115
H	-1.8600994934	-0.3587339544	 0.2761899002	 0.2851
H	 1.4319217613	-0.3526580287	-1.886869413	 0.080865
H	 3.0377943479	-0.7958779914	 0.4676278484	 0.121398
H	 2.3864952206	 0.8726362027	 0.3811088296	 0.110622
H	 0.7256945793	-0.3285262645	 2.2088631422	 0.081694
H	 0.5540566676	-2.6176896528	-1.1849948416	 0.252116
