21
gdb 63226	2.13492	1.5402	1.15993	2.7978	83.84	-0.238	-0.0191	0.2189	1165.6247	0.181129	-387.117126	-387.107803	-387.106859	-387.151298	35.345	
C	-0.0095904521	 1.5815980522	-0.0099656318	-0.435952
C	 0.020756732	 0.0426246909	 0.0008938713	 0.239165
C	-1.4290089935	-0.486700378	 0.010606581	-0.415691
C	 0.7716243717	-0.5348312662	-1.1850526716	-0.080208
C	 1.606669071	-1.5147675933	-0.8526889354	-0.078822
C	 1.6088644684	-1.7784755289	 0.6328947067	-0.295135
C	 0.8207438044	-0.5712279298	 1.2194896334	-0.110644
C	 1.8021815634	 0.4138646757	 1.8179349492	 0.149922
O	 1.6749240062	 0.9469347427	 2.8906573231	-0.26116
H	 0.9914049243	 2.0125258741	-0.106408138	 0.118824
H	-0.6065007907	 1.9421349423	-0.8545361215	 0.110405
H	-0.4578314935	 1.9740294356	 0.9083880479	 0.130675
H	-1.9547868428	-0.1913730511	-0.904145859	 0.112983
H	-1.451168978	-1.5790113982	 0.0716220572	 0.116598
H	-1.9859932527	-0.0826365403	 0.8631148289	 0.118934
H	 0.5747517866	-0.1918295268	-2.1960314996	 0.092955
H	 2.20434572	-2.0944744851	-1.5475564312	 0.097192
H	 1.1223217449	-2.7319180254	 0.8747257827	 0.117502
H	 2.6236674156	-1.8474544518	 1.0472451026	 0.108915
H	 0.1365314011	-0.858332707	 2.0213273963	 0.087024
H	 2.6987141239	 0.6134678885	 1.1842413279	 0.076519
