17
gdb 28440	3.15346	1.31064	0.93117	2.1632	80.07	-0.202	0.0085	0.2105	1221.2511	0.135981	-421.904389	-421.895728	-421.894784	-421.938341	32.614	
C	-0.0709658061	 1.5344773063	-0.017152847	-0.49204
C	-0.0141613871	 0.0258522084	-0.0091896091	 0.321487
C	-0.1222572952	-0.707819834	-1.188517661	-0.208747
C	-0.0683986772	-2.1037951529	-1.1705343063	-0.234625
C	 0.0942292606	-2.775105542	 0.029734139	 0.238789
O	 0.1601779616	-4.1420498919	 0.1626171677	-0.472468
C	 0.2048413152	-2.0517772059	 1.2277284536	 0.339567
O	 0.3647958478	-2.7040188986	 2.4109658316	-0.448391
C	 0.1499702426	-0.6664356883	 1.1975369514	-0.294332
H	 0.8469711817	 1.9734839115	 0.3904213893	 0.128588
H	-0.2024099677	 1.9203209992	-1.0315814962	 0.119054
H	-0.9015406957	 1.9087175	 0.5923775445	 0.128576
H	-0.2499643122	-0.193268312	-2.1350913403	 0.086593
H	-0.1536424019	-2.668033373	-2.0958104669	 0.083404
H	 0.0763496122	-4.555415378	-0.7015452022	 0.301423
H	 0.3778505815	-3.6502613436	 2.2196561049	 0.306839
H	 0.2380052499	-0.1317319753	 2.137899657	 0.096284
