13
gdb 125392	3.4153	1.66894	1.12894	4.4573	67.34	-0.2474	-0.0571	0.1903	988.5182	0.089633	-452.719885	-452.712939	-452.711994	-452.751296	25.86	
C	-0.0148161991	 1.5435671052	 0.0073030399	-0.502891
C	-0.0064809347	 0.0493600409	 0.040936873	 0.048251
C	-0.0371310132	-0.8116078991	-1.028141868	-0.059683
O	-0.0195108677	-2.1447980816	-0.6864192419	-0.187135
C	 0.0242157367	-2.1135906035	 0.6606677038	 0.321826
C	 0.0343426029	-0.8421085316	 1.1617348277	 0.28974
O	 0.0774263283	-0.9007869566	 2.4776186259	-0.261735
N	 0.0941143001	-2.4025107257	 2.7657282409	-0.039711
N	 0.0612240688	-3.0082312418	 1.665195486	-0.198926
H	 0.8806424421	 1.9557335525	 0.4839250518	 0.148457
H	-0.050038101	 1.9098197085	-1.0216953404	 0.135552
H	-0.8813840091	 1.9471944249	 0.5411961785	 0.148456
H	-0.0726025042	-0.6189425823	-2.0887752273	 0.157799
