14
gdb 25254	3.20111	1.70512	1.12218	4.9777	72.19	-0.2147	-0.041	0.1737	994.7789	0.103779	-436.725206	-436.718637	-436.717693	-436.756203	25.694	
O	-0.0470709189	-0.0490154476	-0.0105716528	-0.358384
C	 0.0141174472	 1.1608893136	-0.0031677219	 0.270898
C	-1.2261163686	 2.1186869726	 0.0188784692	-0.284525
N	-0.7124278112	 3.4981788844	-0.1277541866	-0.4217
C	 0.6610079024	 3.3994302605	-0.0288898505	 0.279521
C	 1.1047511106	 2.0995719196	-0.0168241976	 0.207239
O	 2.4708689284	 2.0560578301	-0.0075464804	-0.189317
C	 2.8650240309	 3.3504426769	 0.0076529812	 0.015816
C	 1.8164390144	 4.2326246635	-0.0057873442	-0.328882
H	-1.907691445	 1.8583807863	-0.7960652037	 0.145919
H	-1.7582447907	 1.9832977312	 0.9670838345	 0.140134
H	-1.1761061236	 4.2194467258	 0.4057217826	 0.248128
H	 3.9323485264	 3.5083502553	 0.0237499696	 0.15013
H	 1.8884256079	 5.3082104776	-0.0030728394	 0.125024
