15
gdb 18073	5.43943	1.30402	1.26249	2.6905	62.74	-0.2399	0.0277	0.2676	968.765	0.119373	-399.769675	-399.762591	-399.761647	-399.801874	25.808	
O	-0.011278899	 0.2557872775	-0.7315589093	-0.324748
C	 0.0600183356	 1.2888082916	-0.1005161082	 0.151965
N	 1.2100106532	 1.8237839613	 0.3884174775	-0.288005
C	 2.4818891494	 1.1906794613	 0.2463687414	 0.039048
C	 3.6148992972	 1.7561805295	-0.599098628	-0.145469
C	 3.6031804253	 3.2736409852	-0.4869105838	-0.098472
O	 3.5444959801	 3.2060903214	 0.9706642959	-0.297992
C	 3.6730663637	 1.7794194503	 0.9194936505	 0.033344
H	-0.8217792281	 1.9101819945	 0.1533795207	 0.075287
H	 1.1828789675	 2.6741332717	 0.9313681067	 0.26126
H	 2.421398444	 0.1080518676	 0.2249875215	 0.134618
H	 4.1555007514	 1.1667775014	-1.3265881797	 0.110769
H	 4.5376728533	 3.7476880882	-0.8019579933	 0.121617
H	 2.7468456217	 3.8073305657	-0.9140224254	 0.112849
H	 4.3038566745	 1.3024358728	 1.6610463635	 0.113929
