15
gdb 130981	4.18227	0.97333	0.8188	2.8672	67.62	-0.2212	-0.0368	0.1843	1312.4451	0.113805	-450.122973	-450.114771	-450.113827	-450.157203	28.793	
O	 0.8145943467	 1.0231865789	 1.2624671656	-0.233306
C	 0.530387752	 1.6899080841	 0.3038476995	 0.172155
C	 1.1563687189	 1.5115838169	-1.07752974	-0.265473
N	 1.2518559788	 2.77095697	-1.7858652114	-0.389081
C	 2.3032218801	 3.6211409587	-1.4870972607	 0.369994
N	 2.6877639961	 4.5815417653	-2.3305135089	-0.311841
N	 3.6756368448	 5.1823145598	-1.6612070193	-0.073005
N	 3.9679654554	 4.6983449013	-0.4713806579	-0.190639
C	 3.1048448559	 3.689831276	-0.3251596244	-0.126116
H	-0.2340713284	 2.4984277374	 0.3422267101	 0.093172
H	 2.1141959225	 0.9837338868	-0.964550667	 0.132058
H	 0.4802771572	 0.8542447833	-1.6381320575	 0.138559
H	 1.0401830117	 2.7402726446	-2.7713264372	 0.254321
H	 4.1731191067	 5.9640359707	-2.0536318458	 0.293369
H	 3.0967130218	 3.0869223762	 0.5678060949	 0.135833
