19
gdb 106338	5.12181	0.94674	0.92412	1.1528	84.53	-0.2469	0.0452	0.2921	1320.1863	0.157844	-385.802648	-385.793899	-385.792954	-385.836047	33.59	
C	-0.0193424717	 1.3405233435	 0.0118408581	-0.265834
O	 0.0389533276	-0.0717351445	-0.0686362039	-0.286717
C	 0.6791933056	-0.5485973909	-1.1844093866	 0.41619
C	 2.1698957866	-0.3451062541	-1.614053802	-0.324721
C	 1.5316213295	-1.3108145531	-2.667875828	 0.251603
C	 0.8546501506	-2.0555584406	-1.4660061342	-0.311982
C	 0.285183264	-0.3639798351	-2.6873739484	-0.324716
C	 2.1814154393	-1.8997288052	-3.7984785866	 0.057659
C	 2.7277465341	-2.3950396777	-4.7490136486	-0.354026
H	 0.9847268068	 1.7856829615	 0.0460755277	 0.115124
H	-0.5660127974	 1.7720878555	-0.8381043127	 0.115105
H	-0.5480227162	 1.5848584285	 0.9352926124	 0.131871
H	 2.4603861528	 0.6395753223	-1.9878899514	 0.097914
H	 2.9334685654	-0.7803955919	-0.9651655682	 0.101952
H	 1.5255442681	-2.6057480083	-0.8024073377	 0.10235
H	-0.0499235093	-2.6215486551	-1.6996088007	 0.102355
H	-0.6557861956	-0.8163240916	-3.0091386268	 0.101953
H	 0.4436096989	 0.6193670931	-3.1364562935	 0.097908
H	 3.2099830408	-2.8316565262	-5.5879959491	 0.176012
