16
gdb 99470	2.01339	1.31993	0.95669	1.7954	73.8	-0.2439	-0.0945	0.1494	1260.8631	0.120362	-437.844227	-437.83414	-437.833196	-437.880245	34.44	
C	-0.5895819782	-1.5706125415	 0.2550718514	-0.322983
N	 0.422401814	-0.5403740518	 0.0326058748	-0.288186
C	 0.822474173	-0.3721911098	-1.3703689242	-0.282573
C	-0.1436526931	 0.3170097681	-2.2219593641	 0.344885
C	-0.9630710173	 0.8936716544	-2.8857874595	-0.434472
C	 2.166961031	 0.354538185	-1.2434112622	 0.299975
O	 2.328664275	 1.5459258243	-1.311729593	-0.272844
C	 3.3723410686	-0.5463584628	-0.9379410687	 0.09902
O	 3.3693816253	-1.7383806342	-1.0919178095	-0.221296
H	-1.5081609323	-1.4204771279	-0.3327282868	 0.118891
H	-0.1707869519	-2.5486010053	-0.0024176353	 0.137712
H	-0.851868016	-1.5868563566	 1.3161760032	 0.12894
H	 0.0990374401	 0.3560079413	 0.3823986874	 0.235828
H	 1.0374128214	-1.3724460151	-1.7636662952	 0.140187
H	-1.6795911378	 1.4023432631	-3.4826224878	 0.203473
H	 4.2650525884	 0.0292249087	-0.6157331805	 0.113444
