23
gdb 75247	3.43747	1.1108	0.99723	0.247	91.53	-0.2244	0.0347	0.259	1324.6908	0.206619	-351.169139	-351.16037	-351.159426	-351.202482	34.59	
C	 0.0622990258	 1.4690255754	 0.2959574505	-0.494098
C	 0.0355041409	-0.0074715293	 0.0578157826	 0.339816
C	-0.0755839262	-0.6418926158	-1.1117458595	-0.162667
C	-0.1210902069	-2.1405130231	-0.9476637498	-0.345908
C	 0.3604177666	-2.3576133115	 0.5037015976	 0.380649
C	-0.0855241393	-3.6212859905	 1.2930918273	-0.279813
C	 1.3587179107	-3.7604367659	 1.8439153076	-0.208329
C	 1.8388004471	-2.8258790109	 0.702814556	-0.254733
C	 0.0769980314	-1.0023060722	 1.2003582612	-0.36331
H	 0.982701368	 1.7726001157	 0.8114276128	 0.121833
H	-0.0043813554	 2.0311814827	-0.639775237	 0.120654
H	-0.769589419	 1.7827631774	 0.9402582627	 0.122235
H	-0.1661252093	-0.1495142812	-2.0748612688	 0.079371
H	-1.1459804639	-2.5198801838	-1.0857848522	 0.098222
H	 0.5025329662	-2.6802660156	-1.6711228558	 0.093936
H	-0.8990435634	-3.4992040906	 2.0144551577	 0.088729
H	-0.3428150416	-4.4446516079	 0.6187145488	 0.094425
H	 1.4661746333	-3.2963395845	 2.8282414608	 0.100729
H	 1.7889594425	-4.7635970435	 1.8884209332	 0.093116
H	 2.1975081522	-3.3949857771	-0.1606819141	 0.092495
H	 2.579356352	-2.0581826449	 0.9442490488	 0.092472
H	 0.8297025791	-0.752492495	 1.9593420331	 0.093569
H	-0.8913060309	-1.0144373779	 1.7250382863	 0.096605
