21
gdb 59266	2.84248	1.26854	1.12705	1.0231	77.92	-0.2453	0.0862	0.3315	1205.0696	0.182151	-424.205862	-424.196899	-424.195955	-424.240082	33.637	
C	 0.0735611317	 1.3676374742	-0.2700377352	-0.391711
C	 0.0945968399	-0.1027133293	 0.1712772036	 0.030034
C	 0.7049298658	-0.268911045	 1.5702052146	-0.39171
C	-1.3021365658	-0.6930624453	 0.1254776418	-0.065933
C	-1.9393204312	-1.2097752639	-1.1508381762	 0.019598
O	-1.0609295694	-1.4750490194	-2.2255117535	-0.25322
C	-0.5615598112	-2.7787627403	-1.9832918772	 0.023516
O	-0.4954617891	-2.9408034441	-0.5772046787	-0.253219
C	-1.5670742456	-2.1746864137	-0.0657608728	 0.019599
H	 1.0821182451	 1.7940667619	-0.2554508647	 0.108464
H	-0.3226708117	 1.4668790173	-1.2850040935	 0.122345
H	-0.5513243496	 1.9728021881	 0.3979267705	 0.106057
H	 0.7156162185	-0.6593210815	-0.5367865134	 0.0888
H	 0.7542140645	-1.3244564256	 1.8537547591	 0.122347
H	 1.7201763007	 0.1401784294	 1.6042982647	 0.108463
H	 0.1104590797	 0.2574027135	 2.3268300006	 0.106057
H	-2.0146192542	-0.2130457754	 0.7967733114	 0.08405
H	-2.9545004323	-0.9600990913	-1.440739054	 0.101486
H	-1.2331434553	-3.5349180747	-2.4253040385	 0.09213
H	 0.4446497391	-2.8623056211	-2.4027711406	 0.121363
H	-2.2730048992	-2.7266286239	 0.5457888719	 0.101485
