19
gdb 72504	2.25821	1.8628	1.66132	2.6544	79.19	-0.2344	0.0004	0.2348	960.8889	0.160587	-385.924264	-385.916472	-385.915528	-385.956113	30.993	
C	-0.0034367505	 1.5328877545	 0.0094913528	-0.489652
C	 0.0415393402	 0.0184880383	 0.0153104501	 0.1695
C	 0.6503442911	-0.6672987805	-1.2566965815	-0.243078
C	 0.1250485084	-2.1380833944	-1.1975641457	-0.222624
C	-0.7378457868	-2.1693532126	 0.1062450679	-0.170783
C	 0.1805383842	-1.9359388614	 1.2841005607	-0.097209
C	 0.6365381636	-0.673808874	 1.2261388178	-0.110538
C	-1.3187835259	-0.7356900811	 0.0340022484	 0.408409
O	-2.4389558075	-0.3235167538	 0.0022448737	-0.328779
H	 1.0038170133	 1.9599632493	-0.0396394604	 0.114055
H	-0.5685789358	 1.9002592605	-0.8524136577	 0.126799
H	-0.4908362841	 1.9150371612	 0.911569461	 0.127846
H	 0.2962042461	-0.1564115913	-2.1580737072	 0.106471
H	 1.7412412532	-0.6107272388	-1.2473385161	 0.105402
H	-0.4942008885	-2.3741912334	-2.067966706	 0.110131
H	 0.9341052308	-2.8699107949	-1.1519102326	 0.1076
H	-1.4504735755	-2.9883856535	 0.1798005684	 0.081228
H	 0.4245360643	-2.6862960919	 2.0253954811	 0.104264
H	 1.3219247494	-0.1924445521	 1.9135283952	 0.100959
