17
gdb 89245	3.04855	1.62216	1.27852	2.1392	66.97	-0.2407	0.0641	0.3048	982.4208	0.136264	-458.897616	-458.890399	-458.889455	-458.928996	29.5	
O	-0.0332708803	 1.4164230092	-0.0443233115	-0.437806
C	 0.0326106409	-0.0004284373	-0.0013653147	 0.092874
C	 0.5967990468	-0.5673863661	 1.3401093707	-0.328635
C	-0.6442025582	-1.2597052147	 1.865599368	 0.458609
O	-0.5489292054	-1.8855062871	 3.0878213178	-0.491972
C	-1.4039621153	-1.9467718122	 0.6753731573	-0.036589
O	-2.6915524028	-1.6870935658	 1.3470735975	-0.344574
C	-1.9235721972	-0.4310824001	 1.4900436527	-0.013932
C	-1.3938646743	-0.5360804218	 0.0394698474	-0.041838
H	 0.8659888283	 1.7590272661	-0.0585022882	 0.285551
H	 0.5858326202	-0.388092668	-0.8684904003	 0.071113
H	 1.4265035592	-1.2671310044	 1.2016548157	 0.107282
H	 0.9289608492	 0.2406522621	 1.9983047929	 0.110938
H	-1.422837804	-2.2695267437	 3.2522141989	 0.288085
H	-1.2593047709	-2.9253837788	 0.2156101585	 0.091389
H	-2.4021154224	 0.4034978739	 2.0011271366	 0.098542
H	-2.072498244	-0.3211762414	-0.7826191994	 0.090963
