16
gdb 28420	3.08954	1.35993	0.94979	2.1824	76.16	-0.2068	-0.0174	0.1894	1175.4603	0.125016	-437.962171	-437.954022	-437.953078	-437.994657	31.087	
C	-0.0185745776	 1.5352074939	-0.0377743053	-0.489511
C	 0.0306358529	 0.0327404502	-0.0365854121	 0.206857
C	 0.0125641311	-0.7292374953	-1.1964132308	-0.301918
C	 0.0608421182	-2.1249001496	-1.1300996632	 0.338189
O	 0.0464507746	-2.9335135652	-2.2308379243	-0.445585
C	 0.1269104922	-2.7173958864	 0.1245061742	-0.072336
N	 0.1453767906	-2.0024742987	 1.2549917442	-0.36114
C	 0.0988911907	-0.684379811	 1.1706564248	 0.35159
O	 0.1192015202	 0.0225683373	 2.330168925	-0.422905
H	 0.8642446103	 1.9586391622	 0.4531413343	 0.141836
H	-0.0696480896	 1.9281976984	-1.0564302471	 0.115848
H	-0.8879398561	 1.9012984634	 0.5188554094	 0.141838
H	-0.0396421413	-0.2330325146	-2.1634722917	 0.088913
H	-0.0006973189	-2.388758763	-3.0227457487	 0.297163
H	 0.1657027878	-3.7987813925	 0.2133229272	 0.116231
H	 0.1669572748	-0.6356416991	 3.0366365141	 0.294929
