16
gdb 51442	3.44355	1.0708	0.89417	3.905	69.12	-0.2566	-0.0325	0.2242	1257.4408	0.122986	-437.866734	-437.858472	-437.857527	-437.900714	29.499	
O	-0.692770794	 0.6312266688	 0.6728462383	-0.235693
C	 0.1201867201	 0.8932963517	-0.1750561271	 0.152133
C	 1.2867104752	 1.8451301945	 0.0376346135	-0.308168
C	 1.3721972377	 2.9023243527	-1.0678252098	-0.150235
C	 2.5805307823	 3.8366857079	-1.1887107852	-0.049927
C	 3.7917660793	 3.132975903	-1.6283898191	-0.246288
N	 2.7772862114	 3.4908198546	-2.6707118436	-0.167703
C	 1.7295894661	 2.4943049929	-2.514211587	 0.391968
O	 1.3062615251	 1.7113567098	-3.3053585819	-0.293209
H	 0.0692357593	 0.4433579917	-1.1894266318	 0.111758
H	 1.1806280831	 2.3089981969	 1.0226595366	 0.131595
H	 2.2037195984	 1.240339722	 0.0452848131	 0.124824
H	 0.4438417153	 3.4848063965	-1.1031301743	 0.13216
H	 2.5880347721	 4.8746672496	-0.8799881053	 0.121557
H	 4.7069965052	 3.7048304721	-1.7378831724	 0.148423
H	 3.9439977031	 2.0828228852	-1.3926618341	 0.136804
