21
gdb 94072	4.23175	0.91727	0.79274	1.2289	84.75	-0.2583	0.058	0.3163	1442.3004	0.182972	-387.080622	-387.071583	-387.070638	-387.113997	35.457	
O	-0.0854135544	 1.4551567411	 0.0252888796	-0.441428
C	 0.0126445272	 0.037136835	 0.0079429128	 0.150764
C	 0.7775375475	-0.5030566819	 1.2222534335	-0.239667
C	 0.7827272785	-2.0369917551	 1.2541540466	-0.202277
C	-0.6576902282	-2.6011138658	 1.2239676609	-0.161457
C	-1.4275429851	-2.0458194368	 0.0017796227	-0.207276
C	-1.4121438031	-0.5127257488	-0.0213162479	-0.205937
C	-0.6609321789	-4.0602577983	 1.2429920398	 0.293484
C	-0.6518986724	-5.2627142354	 1.2391060861	-0.432927
H	 0.8066454472	 1.8145084353	 0.0668078207	 0.278048
H	 0.5325148498	-0.2954116499	-0.9084405079	 0.06023
H	 1.8089010057	-0.1267017677	 1.2125221945	 0.082216
H	 0.3031979955	-0.1058510258	 2.1291857771	 0.103111
H	 1.3298928126	-2.4304249294	 0.3882322527	 0.106247
H	 1.3039934108	-2.4013394504	 2.144579669	 0.10719
H	-1.172219533	-2.2467455235	 2.129775051	 0.101445
H	-0.9651916852	-2.4423676116	-0.9109012841	 0.105804
H	-2.4567545651	-2.4168640097	 0.0161810164	 0.107737
H	-1.9493620187	-0.1148559256	 0.8494635192	 0.102404
H	-1.9285100442	-0.1363125743	-0.9101222286	 0.102784
H	-0.6505147465	-6.3243957613	 1.2452707861	 0.189505
