18
gdb 62967	2.15259	1.87395	1.43467	2.3732	71.36	-0.2415	0.058	0.2995	990.8715	0.145929	-439.008874	-439.000477	-438.999533	-439.041257	32.829	
C	-0.0246073717	 1.561855821	-0.1218170705	-0.463995
C	 0.0256181387	 0.0502936595	 0.0108201513	 0.269508
O	-1.260330859	-0.5422456984	-0.027047314	-0.474909
C	 1.0625635038	-0.688454939	-0.8892933241	-0.030529
O	 2.3525853348	-0.1899240733	-0.5266986437	-0.247585
C	 1.7702833545	-1.2320136544	 0.2797977068	-0.081525
C	 0.7934991641	-0.5625673508	 1.2246713689	 0.349147
C	 0.9143541112	-0.0579469209	 2.6058170357	-0.310238
N	 0.1350762365	-1.27643338	 2.302392802	-0.363546
H	 0.9858859166	 1.9750634137	-0.1108584606	 0.148461
H	-0.503650075	 1.8547871242	-1.0653201056	 0.105973
H	-0.5981005987	 2.002765106	 0.7000068426	 0.121322
H	-1.7694219863	-0.1110466277	-0.7215827744	 0.282635
H	 0.9233668899	-1.0902616356	-1.8869977478	 0.104283
H	 2.3319622617	-2.1482878196	 0.4136912873	 0.113372
H	 1.8235495346	-0.2247321142	 3.1770627501	 0.121474
H	 0.3817316934	 0.8564313367	 2.8578808756	 0.112045
H	-0.8630206692	-1.0784310471	 2.2690878501	 0.244108
