16
gdb 40334	4.52343	1.27197	1.24063	1.156	71.38	-0.2169	0.0535	0.2705	1026.6264	0.124107	-400.589549	-400.582726	-400.581782	-400.621253	26.58	
C	 0.1194173589	 1.4678304793	-0.0387075509	-0.182489
O	 1.1597158893	 0.5022278082	-0.2049666703	-0.235849
C	-0.1761762492	 0.0294250559	 0.025818775	-0.107153
C	-0.4283922996	-0.6708255863	 1.2928076782	 0.400398
C	-0.3460578333	-2.1784199401	 1.616681195	-0.178061
C	-0.0200163077	-1.8138321398	 3.0850966092	-0.041664
C	-0.1033737723	-0.3635405999	 2.7782519789	-0.132137
N	-1.3356728538	-1.0958765636	 3.2481995579	-0.180164
C	-1.6398650191	-1.4300694065	 1.7881828631	-0.08097
H	 0.1623044554	 2.0478803153	 0.8820701885	 0.115605
H	-0.1460193564	 2.034077246	-0.9305933826	 0.117203
H	-0.6406821079	-0.4330071825	-0.8475146028	 0.094071
H	-0.0707308669	-2.9945305471	 0.964407961	 0.103981
H	 0.4527495432	-2.3511743646	 3.8977084636	 0.102495
H	 0.2853453979	 0.5075090609	 3.2915982606	 0.100093
H	-2.6322517785	-1.5651043452	 1.3763802555	 0.104639
