19
gdb 91672	3.25992	1.24354	1.10316	5.6157	79.77	-0.2543	0.0351	0.2894	1159.5517	0.162082	-382.064416	-382.05663	-382.055686	-382.096565	30.571	
C	-0.1027923085	 1.5508622576	 0.0199788639	-0.417826
C	 0.0645610121	 0.0324870263	 0.0150152992	 0.020495
C	 1.0093779332	-0.5518170212	-1.0932670494	-0.259475
C	 1.9605284721	-1.3580609435	-0.1798912499	 0.004409
N	 1.0706724941	-1.9971569249	 0.8382952265	-0.303306
C	 0.7865298918	-0.5867126448	 1.2411640249	-0.008736
C	 2.2942502526	-0.310223116	 0.930572877	-0.155681
C	 3.2260674819	-0.7598902955	 1.9485690418	 0.285509
N	 3.9973054636	-1.063935001	 2.7543131106	-0.332551
H	 0.8587005198	 2.0723193725	 0.0752134618	 0.119993
H	-0.6056647092	 1.8905730153	-0.8910336861	 0.12428
H	-0.7070883128	 1.8772444587	 0.8731703898	 0.122615
H	-0.9298633959	-0.4237983817	-0.054248801	 0.077716
H	 0.4894199006	-1.1997191019	-1.8040934607	 0.105872
H	 1.5243335947	 0.2271120801	-1.6644402417	 0.107185
H	 2.73738359	-1.9717495103	-0.6347097943	 0.092772
H	 0.2627546883	-2.4687740198	 0.4298107924	 0.212424
H	 0.3686858062	-0.4141210407	 2.2331146089	 0.089567
H	 2.5642178253	 0.6934626209	 0.5983879866	 0.114737
