24
gdb 117161	3.35595	0.78034	0.67942	3.2392	88.04	-0.2309	0.0378	0.2687	1791.8871	0.215212	-405.591136	-405.579452	-405.578508	-405.629528	40.464	
C	 0.011040706	 1.5893365857	-0.1110458566	-0.390086
C	 0.0182080314	 0.060097205	-0.0526718615	-0.152272
C	-1.3930970206	-0.5282902212	 0.0144482944	-0.319001
C	-1.3777050007	-2.0575171561	 0.0787672653	 0.420283
O	-0.3240051346	-2.6757678466	 0.1275601732	-0.39021
N	-2.5826193056	-2.7139121275	 0.0717398822	-0.083796
C	-3.8874249185	-2.0822504978	 0.0781314206	-0.34444
C	-2.566689795	-4.1764916917	 0.1119728933	-0.147927
C	-2.562749267	-4.740446696	 1.5355281937	-0.376905
H	 1.029651461	 1.9863311192	-0.1595271832	 0.114153
H	-0.5291621841	 1.9551162418	-0.9919874889	 0.109321
H	-0.4713152497	 2.0226421601	 0.7728991008	 0.109341
H	 0.5338345829	-0.3508937596	-0.926415063	 0.11223
H	 0.5890517811	-0.286130197	 0.8142418487	 0.114571
H	-1.919158416	-0.1331587046	 0.8942226261	 0.116537
H	-1.9781483751	-0.2011877399	-0.8550641167	 0.114719
H	-3.8005960692	-0.9999508963	 0.1437984068	 0.139668
H	-4.4492689671	-2.3258646753	-0.833907422	 0.124934
H	-4.4814959539	-2.4219147529	 0.9361458752	 0.127384
H	-3.443425104	-4.5334431653	-0.4409243639	 0.093922
H	-1.6710887071	-4.5084943199	-0.4157410721	 0.138508
H	-2.5793515438	-5.8348113161	 1.5110673971	 0.115298
H	-1.6582619922	-4.4222548628	 2.0598118831	 0.143254
H	-3.4342969383	-4.4052616352	 2.1078676574	 0.110515
