21
gdb 68078	2.46166	1.77916	1.26479	1.3226	78.16	-0.2301	0.0904	0.3205	1076.7188	0.182174	-424.226567	-424.218041	-424.217097	-424.258881	33.993	
C	-0.0898229016	 1.5276612322	 0.0314622352	-0.477523
C	 0.0670664781	 0.0277911933	-0.0300653851	 0.378527
C	 0.7799467966	-0.6576774258	-1.2173484458	-0.330468
C	-0.3458177265	-1.6975895786	-1.0200136553	 0.378531
C	-1.0196690224	-2.3580822261	-2.1980135242	-0.477525
C	 0.0442007911	-2.6526372376	 0.1118838174	-0.093497
O	 0.8605284018	-1.990516886	 1.072049171	-0.271774
C	 0.5303650746	-0.6210339429	 1.2775287288	-0.093496
O	-1.1728794415	-0.6628293105	-0.3938905257	-0.363008
H	 0.8800172266	 2.0127131728	 0.1830002695	 0.120889
H	-0.525496953	 1.898634746	-0.9001096376	 0.125722
H	-0.7504097791	 1.8171990195	 0.8559526587	 0.126952
H	 0.6549988358	-0.0954943979	-2.1450653617	 0.098626
H	 1.8143170792	-0.9796269171	-1.0876360946	 0.108747
H	-0.3273442783	-3.0328322593	-2.7120447304	 0.12089
H	-1.8888610709	-2.9406810071	-1.8738595081	 0.12695
H	-1.3630091491	-1.6008227526	-2.9078973411	 0.125724
H	-0.879541215	-3.0370214938	 0.571799309	 0.096332
H	 0.6353458901	-3.4993519702	-0.2545689631	 0.101534
H	 1.4375420655	-0.1471094472	 1.6687976148	 0.101534
H	-0.2754690819	-0.5127156011	 2.0201398184	 0.096332
