16
gdb 8143	4.19736	1.8592	1.5091	1.7378	65.45	-0.215	0.0552	0.2701	861.9506	0.131497	-379.934591	-379.927382	-379.926438	-379.965498	28.282	
C	-0.0086424813	 1.4938801685	-0.0782697364	-0.472499
C	 0.0568856161	 0.0011500284	 0.0352778173	 0.398977
C	-0.8264650709	-0.8340001698	 0.924578657	-0.352169
C	 0.6822290382	-0.8580245985	 1.1185014549	-0.05748
N	 1.4068293822	-1.908465566	 0.4466412236	-0.343446
C	 1.1885729782	-1.7219011376	-0.8008816204	 0.443342
N	 1.5710400803	-2.5326921406	-1.8361676095	-0.578825
O	 0.4495308719	-0.6400886115	-1.1829480907	-0.276038
H	 0.9465780049	 1.9036277776	-0.4218418348	 0.126337
H	-0.7889239803	 1.804899455	-0.7815006128	 0.129343
H	-0.2406907635	 1.9323378476	 0.8961159538	 0.125433
H	-1.4111874259	-0.2901180774	 1.6593268596	 0.112558
H	-1.3021311144	-1.7191919029	 0.5150212704	 0.121563
H	 1.1176802582	-0.4667105689	 2.0310949991	 0.093656
H	 2.3104254105	-3.1735186236	-1.5910183492	 0.267884
H	 1.7012375856	-2.0615515303	-2.7190138219	 0.261364
