13
gdb 8969	4.98509	1.02808	0.89863	3.4311	68.81	-0.2616	-0.0314	0.2302	1216.2518	0.092695	-361.413955	-361.405329	-361.404385	-361.448197	30.004	
O	 0.0851147225	 0.1372280143	-0.8834063598	-0.358197
C	 0.0381288518	 1.1884746791	-0.2708818269	 0.298527
N	 1.1092039918	 1.7511751436	 0.3621344835	-0.320945
C	 2.4381224847	 1.15943089	 0.2855448375	-0.294796
C	 3.4591962781	 2.1428090449	-0.0600009132	 0.281768
C	 4.2962686644	 2.9645795817	-0.3184031903	-0.436493
C	-1.1851040957	 1.968329802	-0.1375253389	 0.218206
C	-2.2104716321	 2.588613986	-0.043875356	-0.397648
H	 0.9989538668	 2.6467999687	 0.8097680615	 0.264432
H	 2.6987178793	 0.6740455649	 1.2363215257	 0.144483
H	 2.3774560953	 0.3684385118	-0.4686737606	 0.181194
H	 5.0414411644	 3.6808544534	-0.5623202881	 0.20693
H	-3.1236626914	 3.1271924997	 0.0302894555	 0.21254
