16
gdb 49920	3.69792	1.03329	0.91432	3.8562	75.4	-0.2218	-0.0403	0.1815	1255.5388	0.124236	-437.926073	-437.917838	-437.916894	-437.959998	29.26	
O	-0.6915963783	 1.0806648182	-0.6745281387	-0.233007
C	 0.1246786008	 1.0972909669	 0.2088756878	 0.15984
C	 1.4099076038	 1.9202539173	 0.1950329658	-0.158967
C	 1.5460572474	 2.8131908915	-1.0640767536	-0.200907
N	 1.4319075368	 4.1872948736	-0.5409613497	-0.061752
C	 1.3966724199	 5.3242678618	-1.2984758552	 0.146151
O	 1.3217548679	 6.448390807	-0.8511331681	-0.324199
C	 1.3816598318	 4.1635485407	 0.8536539114	 0.031909
C	 1.3992545112	 2.9212875766	 1.3413458904	-0.199761
H	-0.0185672503	 0.5019958933	 1.1378778363	 0.088225
H	 2.2403340174	 1.2069158916	 0.2902051825	 0.11084
H	 2.5123276133	 2.6727811646	-1.5565663266	 0.125465
H	 0.7446877342	 2.5933709346	-1.7740219415	 0.154107
H	 1.4461775316	 5.0980575454	-2.380581728	 0.080958
H	 1.3428478143	 5.1114194089	 1.3694306186	 0.162855
H	 1.3710055583	 2.6500399384	 2.3860176986	 0.118245
