21
gdb 68248	2.73093	1.77959	1.39939	1.2591	80.82	-0.2512	0.0757	0.3269	1003.4046	0.185318	-387.067561	-387.060355	-387.059411	-387.098576	31.024	
O	-0.0310526269	 1.3756866244	 0.1572482045	-0.491143
C	 0.0792058193	-0.0104012428	 0.0845018232	 0.409335
C	 0.862894571	-0.7762569639	-1.040106478	-0.286557
C	 0.7566741723	-1.9445211481	-0.0121884438	-0.040054
C	 0.9161801768	-0.8583678636	 1.0894385349	-0.305301
C	-0.7635608341	-2.2101192181	-0.0466872363	 0.008006
C	-1.5177785064	-2.5282408042	 1.2778905745	-0.247566
C	-2.0256074733	-1.0540647851	 1.3470439786	-0.246018
C	-1.276355467	-0.7304104381	 0.0241443245	-0.018301
H	 0.8533680594	 1.7477574093	 0.2344021248	 0.276996
H	 0.3804089554	-0.8968340686	-2.0147862084	 0.090114
H	 1.8859392337	-0.4090818176	-1.16263219	 0.084111
H	 1.4283854213	-2.8014352554	-0.0531487354	 0.061383
H	 1.9479994893	-0.5008520506	 1.1554074808	 0.084145
H	 0.5276004668	-1.0427098321	 2.0927758557	 0.098098
H	-1.0565416132	-2.8122356878	-0.909660944	 0.062733
H	-2.3181713881	-3.2621419002	 1.1570646655	 0.09624
H	-0.8863939544	-2.8557927806	 2.1086789373	 0.09657
H	-3.1109485082	-0.960274955	 1.2665658453	 0.09731
H	-1.7023936504	-0.4752088763	 2.2162088029	 0.102484
H	-1.8910664134	-0.3459190055	-0.7920748768	 0.067414
