14
gdb 128008	4.0672	1.22939	0.94961	3.6203	72.94	-0.2391	-0.0925	0.1466	1171.3903	0.099101	-466.144034	-466.135175	-466.134231	-466.178983	30.524	
C	 0.0169511442	 1.4469185795	-0.0450410805	-0.319232
N	-0.0068199583	-0.0049345227	 0.0156430066	-0.3094
C	 0.5207595833	-0.6772547369	-0.9064221408	 0.468917
O	 1.133161135	 0.0002719386	-1.9962193843	-0.269573
N	 1.7345807809	-0.6971019769	-3.0466768636	 0.071425
N	 1.7351617793	-1.9316459277	-3.0311526121	-0.171412
C	 1.1186228319	-2.6101425952	-1.9357626618	 0.479101
N	 1.2065032954	-3.9446403226	-2.073670426	-0.546656
N	 0.5444538247	-2.0508922773	-0.9306108454	-0.346741
H	 1.0403170743	 1.8437405095	-0.0682847848	 0.124467
H	-0.4982361937	 1.8323388977	-0.9346168584	 0.124495
H	-0.4848189982	 1.8430873278	 0.8405897316	 0.122667
H	 1.6659118045	-4.3330634193	-2.8778613562	 0.285934
H	 0.8107499766	-4.5413833545	-1.3679682642	 0.286007
