19
gdb 109267	3.21524	1.32276	1.04581	3.7417	76.24	-0.2288	0.0149	0.2438	1167.875	0.161514	-419.197325	-419.189264	-419.18832	-419.230323	30.409	
O	-0.0741938333	 1.3778890592	-0.4220367069	-0.421391
C	-0.0843730798	 0.0000529671	-0.1620166679	-0.12274
C	-1.474437408	-0.5035101646	 0.113441678	 0.309751
N	-2.4505969818	 0.3091447916	 0.2593367657	-0.310478
C	-3.6699074414	-0.478091218	 0.4999103392	-0.195196
C	-3.2230611353	-1.9536640818	 0.377377947	 0.015078
C	-3.2730044825	-2.6814866355	-0.9925267372	-0.246837
C	-1.7228668392	-2.7400416644	-0.9402323013	-0.186409
N	-1.7258486419	-1.8712912458	 0.2857815859	-0.140594
H	-0.967716061	 1.6853046852	-0.2037238836	 0.293611
H	 0.3443184187	-0.5477287962	-1.0157745641	 0.10602
H	 0.5432227879	-0.2532985263	 0.7088089455	 0.116379
H	-4.0630441328	-0.2549949848	 1.4981270787	 0.116089
H	-4.4484478787	-0.201818686	-0.2220174783	 0.11093
H	-3.5550619627	-2.5708580023	 1.2155925607	 0.087386
H	-3.792413557	-3.6411508993	-1.0142620426	 0.111886
H	-3.6559712073	-2.0508265323	-1.7990707065	 0.117086
H	-1.3134184319	-3.7297161882	-0.7224904952	 0.119365
H	-1.1842980818	-2.3125930375	-1.7903722872	 0.120066
