15
gdb 45721	3.49394	1.19814	0.9167	1.3414	73.63	-0.2576	-0.0286	0.2289	1194.3348	0.113317	-416.818842	-416.810982	-416.810038	-416.8515	29.605	
O	-0.001815115	-0.0818833271	 0.0882535896	-0.339769
C	-0.0450004289	 1.1254238279	 0.0828291092	 0.400288
C	-1.3112491241	 1.9604621768	 0.0499605554	-0.333673
C	-1.1139364027	 3.3277318548	 0.7432531423	-0.183287
N	 0.094340814	 4.0337763959	 0.2852308884	-0.233859
C	 1.0871068489	 3.2943171929	 0.0077758279	 0.095338
N	 1.1071248875	 1.9016928196	 0.0427515585	-0.3316
C	-2.3017519279	 4.1643197023	 0.5818891272	 0.320649
C	-3.3050459782	 4.8096487027	 0.4444675465	-0.412736
H	-1.5685176623	 2.1254344734	-1.0038346141	 0.148909
H	-2.1245262297	 1.3907560834	 0.5013315598	 0.148753
H	-0.9751480247	 3.1443153604	 1.821489772	 0.12642
H	 2.0349762156	 3.7469424668	-0.2803558877	 0.133817
H	 1.9776298119	 1.403237093	-0.0771330096	 0.262775
H	-4.1826212741	 5.3962225771	 0.3276223045	 0.197976
