22
gdb 61232	2.897	0.94435	0.78494	0.888	88.78	-0.2254	0.0526	0.278	1516.8556	0.191469	-367.149381	-367.13893	-367.137986	-367.184957	38.597	
C	 0.3570087293	 1.7496150908	-0.087188626	-0.396754
C	 0.0011005465	 0.2620122862	 0.0379502912	-0.001929
C	 0.4801604719	-0.5405733033	-1.2012012256	-0.362291
C	-0.1546808934	-0.1276467926	-2.4466879157	 0.298786
C	-0.6998722869	 0.2200654192	-3.4604328698	-0.442425
C	 0.6195686197	-0.3201340233	 1.2978865272	 0.026565
C	-0.0443908436	-0.1850902792	 2.6258689798	-0.268915
N	 0.1152538871	-1.4974981992	 2.0107093589	-0.091205
C	-1.0898248599	-2.1790437805	 1.5627484997	-0.317836
H	 1.4442700579	 1.890951487	-0.102971677	 0.113433
H	-0.0495379066	 2.1698435203	-1.0109375005	 0.131073
H	-0.0411419907	 2.3184358809	 0.7579993666	 0.116586
H	-1.0892823626	 0.1755586081	 0.0891923606	 0.085822
H	 1.5702309251	-0.4360756689	-1.2914584864	 0.128206
H	 0.2919853633	-1.6082759995	-1.03727227	 0.135016
H	-1.1715889485	 0.5193463351	-4.3632604753	 0.193609
H	 1.7108545101	-0.2881713869	 1.2821137465	 0.085234
H	 0.5318662489	-0.0003372566	 3.5291117343	 0.11283
H	-1.0433194715	 0.253103621	 2.6301776901	 0.102673
H	-1.8857478036	-1.5176741815	 1.186635707	 0.103574
H	-0.8362619933	-2.8954142453	 0.7743473824	 0.122932
H	-1.4996361294	-2.7435503716	 2.4065642422	 0.125018
