16
gdb 293	4.73128	2.64326	2.42091	0.1664	52.62	-0.2564	0.0643	0.3208	632.2372	0.140737	-308.772292	-308.764288	-308.763343	-308.804403	28.004	
C	 0.103596408	 1.5068547069	 0.1802344113	-0.420542
C	-0.0312533809	-0.0015591731	-0.0096773672	 0.144401
O	-1.4035677644	-0.3974530939	-0.0562140491	-0.445813
C	 0.6899081417	-0.497255685	-1.282470499	 0.144403
C	 0.8393274977	-2.0160141736	-1.3072814528	-0.420534
O	-0.0069799907	-0.0260829643	-2.4376648772	-0.44581
H	 1.1468673796	 1.7906692842	 0.3526837676	 0.116152
H	-0.2407429461	 2.0301727942	-0.7187720192	 0.126474
H	-0.4914164315	 1.8393586573	 1.0351387069	 0.120004
H	 0.3871875237	-0.5233349258	 0.8594786359	 0.082587
H	-1.8396844305	 0.20989871	-0.6644272032	 0.276736
H	 1.6791948059	-0.0266985038	-1.3340642923	 0.082587
H	 1.2690753742	-2.3425046351	-2.2581655198	 0.120004
H	 1.4890018107	-2.3614209562	-0.4965274019	 0.116146
H	-0.1393308663	-2.4911994113	-1.1766295422	 0.126473
H	-0.783359241	-0.5891737207	-2.5333946479	 0.276731
