21
gdb 80174	2.16327	1.62725	1.36773	2.7151	81.33	-0.2367	-0.0133	0.2234	1088.3812	0.182626	-387.11915	-387.110336	-387.109392	-387.152265	34.096	
C	-0.3613440976	 1.434650378	-0.1447639626	-0.431763
C	-0.0205945663	-0.0359059663	-0.0058232109	-0.006926
C	 1.330884016	-0.624484267	-0.3461079821	-0.076708
C	 2.524275197	 0.3107532816	-0.4155015015	-0.329557
C	 2.5790297596	 1.0066164551	 0.9529750452	 0.374499
O	 3.1836141998	 2.017550333	 1.2045184547	-0.324529
C	 1.7281779554	 0.2085639505	 1.9567670271	-0.087538
C	 1.0864901853	 1.0788438471	 3.0387792619	-0.400689
C	 0.8216390144	-0.6531888725	 1.0926584154	-0.079923
H	 0.4534794125	 2.0995950418	 0.1512523915	 0.139247
H	-0.6092987082	 1.6712656606	-1.1857403849	 0.118756
H	-1.2320425723	 1.6928377733	 0.4674470087	 0.121978
H	-0.8457931552	-0.6802810461	-0.3012232261	 0.086329
H	 1.3615393447	-1.5324695566	-0.9375580673	 0.084435
H	 3.4562502637	-0.2539246844	-0.5480494886	 0.128053
H	 2.4911165959	 1.0578704452	-1.2141887108	 0.128195
H	 2.4481785665	-0.468445754	 2.4460325577	 0.103355
H	 0.3051208608	 1.7192017371	 2.6213429269	 0.123695
H	 0.6346990263	 0.4619322756	 3.8209834826	 0.111063
H	 1.8430472749	 1.7235594078	 3.4942077942	 0.135379
H	 0.4670389367	-1.58394404	 1.522246149	 0.082649
