20
gdb 13977	5.06278	1.14265	1.05804	1.4816	75.68	-0.2283	0.0821	0.3104	1204.0732	0.176505	-348.969556	-348.961196	-348.960252	-349.002761	31.138	
C	 0.0240239923	 1.5286742733	 0.0069031992	-0.384865
C	-0.0408706608	 0.0049759932	-0.1177246273	-0.157116
C	-1.4544279779	-0.5532148387	 0.1131982989	-0.295327
C	-1.4981803543	-2.046256293	 0.0343282599	 0.499685
C	-1.6238443585	-2.8893484668	-1.1995991665	-0.328204
C	-2.5960091819	-3.0870224427	-0.0494283331	-0.203757
C	-1.8611223973	-3.7677478809	 1.0961884317	-0.083415
O	-0.7927545122	-2.7841662288	 1.0500827454	-0.327498
H	 1.0408883143	 1.8982245174	-0.1579059394	 0.112333
H	-0.6300365001	 2.0164207296	-0.7249858836	 0.110803
H	-0.2921996717	 1.8589508575	 1.0026973591	 0.114859
H	 0.3073872728	-0.3037893627	-1.111094264	 0.097809
H	 0.6408058145	-0.4583110826	 0.604723543	 0.118732
H	-1.8178928859	-0.2344681723	 1.0987885321	 0.101965
H	-2.1472801036	-0.141209732	-0.6314456956	 0.09733
H	-2.0487450774	-2.3927027901	-2.0667565764	 0.111091
H	-0.8716972057	-3.6422855746	-1.4211037243	 0.110793
H	-3.667675884	-2.9803939686	-0.1517142204	 0.097538
H	-2.3901335982	-3.7154092243	 2.0547937704	 0.105924
H	-1.4939207246	-4.788506983	 0.9327870009	 0.101318
