12
gdb 428	4.87211	4.14032	2.44584	2.1771	46.67	-0.2509	-0.0284	0.2226	517.5463	0.095379	-306.368494	-306.362423	-306.361478	-306.398118	21.28	
O	 0.5751328226	 1.0151116342	 0.6319185424	-0.431286
C	 0.0226034652	-0.1410135529	 0.0851374207	 0.079417
C	-1.5200789031	-0.280389351	-0.1849791104	-0.269751
C	-1.2066647043	-1.0122218541	-1.5278857978	-0.331047
C	 0.1904557663	-0.3859477747	-1.4178999392	 0.340964
O	 0.9728800753	 0.0695667541	-2.2045492558	-0.302735
H	 0.9138683683	 1.5448245653	-0.1004931635	 0.296026
H	 0.3615423878	-1.0137544847	 0.660058331	 0.109717
H	-2.0920659656	-0.8294516461	 0.5626596987	 0.116768
H	-1.9719804897	 0.6993280868	-0.3537115733	 0.12324
H	-1.1832110581	-2.1006662555	-1.4220032595	 0.134129
H	-1.7821186147	-0.7497465716	-2.4167824733	 0.134559
