18
gdb 126636	3.2345	1.07793	0.86523	4.6125	74.37	-0.2314	0.0159	0.2473	1352.879	0.147941	-435.26801	-435.258966	-435.258021	-435.302964	32.299	
C	-0.0191306294	 1.5494515954	-0.0242661559	-0.382531
C	 0.003130083	 0.0216770201	 0.0597439796	-0.179646
C	-1.408233042	-0.57298975	 0.0008345532	-0.145532
N	-1.4127290286	-2.0252778055	 0.0481454541	 0.005812
N	-1.4715020133	-2.7698304434	-1.0921295052	-0.163845
N	-1.4218384286	-4.0201775687	-0.7448516384	-0.18285
C	-1.3252042336	-4.1166055867	 0.610748668	-0.189747
C	-1.316891833	-2.8380646912	 1.1214699967	 0.36349
O	-1.2417567928	-2.298323636	 2.3563712923	-0.43002
H	 0.9939801437	 1.9584037191	 0.0224302873	 0.122396
H	-0.4726368996	 1.8901039962	-0.9614115444	 0.122845
H	-0.5925115241	 1.9863284768	 0.800877964	 0.118977
H	 0.5914159203	-0.3975734371	-0.763830915	 0.123713
H	 0.484817255	-0.2972434391	 0.991091835	 0.114457
H	-2.0166964318	-0.2049779462	 0.8331950574	 0.128867
H	-1.9063435448	-0.3008563688	-0.9330219706	 0.141213
H	-1.2742065405	-5.0642307341	 1.1217011214	 0.114448
H	-1.2198898198	-3.0079495409	 3.0062442904	 0.317953
