20
gdb 82030	2.24007	1.49588	1.35194	2.7652	78.55	-0.242	-0.0238	0.2182	1095.9497	0.169013	-403.115192	-403.105996	-403.105052	-403.148915	34.518	
C	-0.0984897899	 1.5918528515	 0.3686522842	-0.42203
C	 0.0573781621	 0.0861597235	 0.1954293003	-0.049759
C	 0.3696734813	-0.4763880773	-1.1931745628	-0.028729
C	 1.7230933522	-0.1148610794	-1.654293027	-0.246562
N	 1.5941741033	-1.2409669642	-0.7098780162	-0.174821
C	 1.3462666415	-0.6550317838	 0.6687448907	 0.212675
C	 2.510455354	 0.1033398214	 1.2987939028	-0.463284
C	 1.047583436	-1.8626325907	 1.550419342	 0.139078
O	 0.0369367963	-2.037236056	 2.1785170695	-0.251786
H	 0.7361826289	 2.1546675986	-0.0600247072	 0.111307
H	-1.0149786869	 1.9374225721	-0.1214738969	 0.122672
H	-0.1720010937	 1.8569282273	 1.428592903	 0.123902
H	-0.8057132553	-0.4184838989	 0.6360582552	 0.1086
H	-0.3541537197	-0.9468883604	-1.8513199351	 0.09728
H	 2.0196014023	-0.4452703773	-2.6452902766	 0.125953
H	 2.1900694521	 0.8132526896	-1.338508977	 0.112306
H	 2.8310809125	 0.9496436889	 0.6874510041	 0.126659
H	 2.2261574162	 0.4917659286	 2.2823309726	 0.135698
H	 3.3713745492	-0.5615279568	 1.4290300295	 0.131603
H	 1.8793789576	-2.6017190266	 1.5630649049	 0.089237
