13
gdb 43035	2.92543	1.70455	1.23954	5.5789	68.18	-0.2666	-0.0398	0.2268	951.929	0.089787	-415.558878	-415.552096	-415.551152	-415.590222	25.691	
O	-0.0686190701	 0.0511519256	 0.1032210418	-0.297625
C	-0.0681913808	 1.242271048	 0.0957278187	 0.403418
C	-1.1391210667	 2.3357533473	-0.083704898	-0.218979
C	-0.8665274856	 3.2264745286	 1.1414790899	-0.162259
N	 0.48121717	 3.5891980711	 0.5537865431	-0.158486
C	 0.0182834413	 3.1634342742	-0.7664886154	-0.080935
C	 1.01988489	 2.2969592119	-0.0170601832	 0.103441
C	 2.4251604517	 2.1490066012	-0.1879804853	 0.202399
N	 3.5601289481	 1.9866319131	-0.3361273279	-0.334091
H	-2.1238296495	 2.0885437564	-0.4679491674	 0.118918
H	-1.4625104592	 4.1402174961	 1.1691993905	 0.1404
H	-0.8367521955	 2.756866914	 2.1291617213	 0.134311
H	 0.1565661464	 3.6825103326	-1.7044587282	 0.149488
