21
gdb 88169	2.67788	1.31008	1.1143	2.4867	77.79	-0.2442	0.076	0.3203	1206.1182	0.181589	-424.221714	-424.212513	-424.211568	-424.255988	34.531	
C	-0.0280037255	 1.6143476242	-0.0183395764	-0.422545
C	-0.0750347024	 0.1129772507	 0.1075111393	 0.000584
O	 1.1181401832	-0.6112572829	-0.2238441375	-0.295893
C	 0.6574200202	-0.6448648643	 1.1324916167	 0.393737
C	 1.5700630397	-0.0407421886	 2.2009586283	-0.324588
C	 1.4676846254	-1.054715307	 3.3522069837	-0.090246
O	 1.1043352922	-2.2896909979	 2.7471091278	-0.260212
C	 0.1967111899	-2.0037663561	 1.6818590301	 0.040926
C	-1.2536750502	-2.0246342869	 2.1727447898	-0.401684
H	 0.9041054253	 2.017337701	 0.3841196113	 0.128725
H	-0.1008899175	 1.9098402024	-1.0701073707	 0.130836
H	-0.8685249002	 2.0709276448	 0.5161321939	 0.121298
H	-0.9822239904	-0.3429130948	-0.2962284947	 0.084582
H	 2.5864814931	 0.0069386599	 1.8011750682	 0.128143
H	 1.2753623891	 0.9676492044	 2.5019043729	 0.107145
H	 2.4105314476	-1.2097653021	 3.8823091127	 0.113086
H	 0.7122000088	-0.7395844235	 4.0888629556	 0.090778
H	 0.3450172877	-2.7736373732	 0.9184052927	 0.098049
H	-1.4474425361	-1.2215399458	 2.891345717	 0.113525
H	-1.9519447554	-1.9063609877	 1.3387026697	 0.116573
H	-1.4620121046	-2.9795191866	 2.6628695797	 0.12718
