18
gdb 45166	2.96171	1.77099	1.55176	4.2463	74.47	-0.2313	0.0373	0.2686	918.4465	0.152336	-402.005507	-401.998928	-401.997983	-402.036415	27.496	
O	 0.0267112637	-0.065123011	 0.0629394357	-0.397598
C	-0.0072422107	 1.1510902684	 0.0247831219	 0.409759
N	-1.1623113569	 1.8865299473	 0.0041583892	-0.30567
C	-1.0794046014	 3.340768821	-0.0416731521	-0.034398
C	-0.2197644418	 3.7402355566	-1.2668824976	-0.219815
C	 1.1689402105	 3.3328953238	-0.7998392895	-0.063738
C	 1.1722231351	 3.380172398	 0.7056958191	-0.063737
C	-0.2144915952	 3.8161992702	 1.1523072087	-0.219819
C	 1.2084814842	 2.0288402507	-0.0054630351	-0.149939
H	-2.0415238706	 1.3956466528	 0.0215949661	 0.247365
H	-2.0854133874	 3.7596685137	-0.0526367626	 0.080668
H	-0.552520326	 3.2302319592	-2.1751138031	 0.109087
H	-0.2639530641	 4.822046021	-1.4363222701	 0.10333
H	 2.0409590323	 3.5945083567	-1.3865729853	 0.093258
H	 2.0467527848	 3.6779632839	 1.2710569461	 0.093258
H	-0.2580890676	 4.9065154134	 1.2537302912	 0.103331
H	-0.543218407	 3.364230362	 2.0921890646	 0.109085
H	 2.1406241381	 1.4789990023	 0.0097708229	 0.105572
