21
gdb 110642	2.39294	1.54646	1.16395	1.1271	83.11	-0.2009	0.0794	0.2803	1164.893	0.181202	-387.004923	-386.995973	-386.995029	-387.038309	34.46	
C	-0.4043144512	 1.211635927	 0.1147208481	-0.240059
O	 0.4590737823	 0.1453714114	-0.2293056921	-0.239278
C	 0.8789644372	-0.5756654503	 0.8901768593	 0.071927
C	 0.1174029956	-1.6320043273	 1.652208773	-0.174492
C	-0.6230210596	-2.7017658946	 0.8117387845	-0.053774
C	-0.5748222132	-2.5027313986	-0.6822697669	-0.308364
C	 0.6452991197	-3.007721652	 0.0412512344	-0.104729
C	 1.4316758836	-1.9581855388	 0.8818716027	 0.263779
C	 2.7981573203	-2.3024694527	 1.4035901999	-0.49138
H	 0.0864970111	 1.9211258712	 0.7989520212	 0.105497
H	-0.6594492866	 1.7325373419	-0.8108604094	 0.126005
H	-1.3246770257	 0.8492790143	 0.5938326608	 0.115467
H	 1.4353958115	 0.0590628565	 1.5898591373	 0.081259
H	-0.024455187	-1.5517428353	 2.7243676265	 0.079826
H	-1.3025085501	-3.4057671599	 1.2743608652	 0.08588
H	-1.0964325601	-3.2810602609	-1.2339174641	 0.102078
H	-0.59824078	-1.5246694453	-1.1382200901	 0.140022
H	 1.0813949455	-3.9771077992	-0.1655723064	 0.083561
H	 3.5368611454	-2.3142774893	 0.5918966455	 0.123213
H	 3.135221736	-1.5783294278	 2.1518927835	 0.115495
H	 2.8053916353	-3.2951626204	 1.869104637	 0.118067
