18
gdb 126243	2.49803	1.28632	0.907	4.4015	76.86	-0.2096	-0.0272	0.1824	1312.5425	0.146843	-435.24523	-435.235839	-435.234895	-435.2808	32.9	
C	 0.2004418215	 1.6028929029	-0.2658379711	-0.373566
C	-0.0237710441	 0.1027945495	-0.0004833042	-0.305344
C	 0.5862909163	-0.3757904611	 1.2696767024	 0.333556
C	 0.0786337859	-0.792342911	 2.4710617863	 0.220753
N	-1.2346883416	-0.9537565483	 2.8889645946	-0.397039
C	-1.4640305091	-1.2862930973	 4.2909067072	-0.320639
N	 1.1505637012	-1.117751295	 3.2672956457	-0.189538
N	 2.2383657521	-0.9308823455	 2.6437986814	-0.027329
O	 1.9270511042	-0.4434836745	 1.3640135775	-0.21231
H	 1.268653109	 1.8301850819	-0.3143401497	 0.141606
H	-0.2565126267	 1.8962152321	-1.2152636403	 0.121231
H	-0.2374674897	 2.2146006306	 0.5287554412	 0.121305
H	-1.0955205099	-0.1216928957	 0.0336717296	 0.116172
H	 0.387692515	-0.4795519881	-0.8337485467	 0.134526
H	-1.8438177253	-0.221321443	 2.5542121124	 0.240103
H	-1.077888615	-0.5323481251	 4.9916612913	 0.122391
H	-2.5392394542	-1.400347904	 4.446376279	 0.121398
H	-0.9776219697	-2.2359243084	 4.5242219433	 0.152725
