21
gdb 84789	2.60672	1.52133	1.22988	1.6192	82.73	-0.2496	0.0115	0.261	1108.777	0.183827	-387.088204	-387.079921	-387.078977	-387.120976	32.969	
O	 0.0822510694	 1.5016088968	 0.6474170215	-0.429276
C	-0.0632789323	 0.2152232025	 0.038940409	 0.03603
C	 0.7960162006	-0.8166176323	 0.7301247605	-0.110764
C	 0.0631222257	-1.6595410422	 1.4580701072	-0.061414
C	-1.4156495627	-1.390550205	 1.3198714325	-0.359317
C	-1.4962717958	-0.3996174712	 0.1393180833	 0.329602
C	-2.6482837894	 0.6374718736	 0.0550245496	-0.274842
C	-2.7786824144	 0.3378054086	-1.462354347	-0.209757
C	-1.9691228993	-0.966494237	-1.2376213478	-0.261329
H	 0.0581193113	 1.3703589802	 1.601941994	 0.274505
H	 0.2177786425	 0.386295366	-1.0055968659	 0.080725
H	 1.8789147098	-0.7877868276	 0.6847264153	 0.096066
H	 0.4593469675	-2.4447790174	 2.0938162043	 0.096809
H	-1.9955141507	-2.3010175951	 1.1269188356	 0.104219
H	-1.8256710189	-0.9649131532	 2.2479441269	 0.1032
H	-3.5290723543	 0.3086260841	 0.6154458473	 0.090092
H	-2.3936017234	 1.656668369	 0.351889151	 0.108005
H	-3.7858971957	 0.2358824472	-1.8724927018	 0.093134
H	-2.232137796	 1.0641965972	-2.0697812798	 0.106912
H	-1.193835489	-1.2216013657	-1.9664687767	 0.095053
H	-2.6224207047	-1.8353363486	-1.111508139	 0.092347
