19
gdb 7286	2.94362	1.32391	1.11528	3.3825	70.33	-0.2626	0.0186	0.2812	1150.255	0.163033	-402.203177	-402.193529	-402.192585	-402.237904	34.285	
C	 0.0457433465	 1.5205635762	-0.1136054107	-0.413443
C	-0.0018505087	 0.007424751	 0.1052071878	 0.141992
O	 0.6052218952	-0.3652970891	 1.3325623431	-0.437327
C	-1.4327140502	-0.5549458733	 0.0286292468	 0.100146
C	-1.4746331612	-2.0776998229	 0.0719635105	-0.397505
O	-2.1140399858	-0.0092287809	 1.176138729	-0.21107
C	-3.4444371319	 0.1757159697	 1.095086141	 0.130057
N	-4.091909729	 0.5657821248	 2.1055779134	-0.443773
H	 1.0746687497	 1.8744089674	-0.0137690663	 0.127418
H	-0.3184461342	 1.7890534284	-1.1114441231	 0.108614
H	-0.5726892728	 2.0374477598	 0.626554017	 0.132086
H	 0.5880634957	-0.4899177439	-0.6740165354	 0.087653
H	 0.0278800362	-0.0386838593	 2.0340738549	 0.293677
H	-1.9181061054	-0.1815743348	-0.8840135748	 0.080142
H	-2.5056151964	-2.4417764545	 0.105335238	 0.116597
H	-0.9940481782	-2.4943226896	-0.81891611	 0.120495
H	-0.9414691657	-2.4365655205	 0.9549011566	 0.147379
H	-3.8534813182	-0.0314017799	 0.0961590882	 0.086912
H	-5.0753971955	 0.6743771515	 1.8672582437	 0.229952
