19
gdb 81462	3.06584	1.55938	1.43718	0.2066	73.61	-0.2295	0.0711	0.3006	983.0714	0.161271	-422.983264	-422.976122	-422.975178	-423.014251	30.011	
O	-0.1234660052	 1.4463852748	 0.0452141314	-0.442069
C	 0.0459203601	 0.0422234289	-0.0032709249	 0.10114
C	 0.2052653312	-0.6185561984	 1.3993926455	 0.084867
C	-1.3385864997	-0.4995312602	 1.5374272939	-0.24848
C	-1.3541868217	-0.6244165568	-0.0226181357	-0.054558
C	-1.2625593383	-2.1193851176	-0.3056905659	-0.062117
C	-0.0959775787	-2.7651798239	-1.0263278879	-0.334306
C	-0.1734018386	-2.7902038931	 0.4843722153	 0.10765
O	 0.6574220552	-1.9642515923	 1.2657209161	-0.276176
H	 0.7296004555	 1.8393789529	 0.2571820734	 0.284477
H	 0.778746139	-0.2414366362	-0.7669153812	 0.062958
H	 0.8581541386	-0.1491168524	 2.1388843533	 0.069729
H	-1.8575078731	-1.2669133146	 2.115588215	 0.09557
H	-1.6174544558	 0.4974223842	 1.8770178571	 0.116304
H	-2.1249741517	-0.1163865521	-0.6047535158	 0.074298
H	-2.2244614143	-2.6206544389	-0.3660297796	 0.091951
H	-0.288771861	-3.698686351	-1.5447122005	 0.10965
H	 0.6578940338	-2.1459953276	-1.4961928257	 0.122957
H	-0.3526761054	-3.7428538156	 0.9725932563	 0.096156
