21
gdb 36228	3.472	0.9704	0.84515	0.7361	90.79	-0.2353	0.0239	0.2592	1431.6043	0.183188	-349.947826	-349.9389	-349.937956	-349.981716	34.462	
C	-0.1359571395	-1.1933781005	 0.4450641794	-0.473556
C	-0.0870938766	-0.0243706892	 0.1687005995	 0.322874
C	-0.0089611626	 1.3976639994	-0.1647168704	-0.441418
C	 1.407964024	 1.9473754049	-0.1470678635	 0.332508
C	 1.9623427768	 2.4618581222	-1.2463298655	-0.152129
C	 3.3397455086	 3.0712213979	-1.295615019	-0.238692
C	 3.9051381223	 3.3455899565	 0.1051434968	-0.195857
C	 3.6384196155	 2.1586692607	 1.0370920547	-0.199784
C	 2.1321710436	 1.9007509785	 1.1786210203	-0.28574
H	-0.1861452047	-2.2264921066	 0.6844346376	 0.194824
H	-0.4568899834	 1.5664290629	-1.1508721035	 0.130205
H	-0.6272132967	 1.9578746263	 0.553097128	 0.130569
H	 1.400962031	 2.4500965709	-2.1791747374	 0.074898
H	 4.0133325342	 2.399155459	-1.8489729352	 0.107281
H	 3.3107532988	 3.9982316647	-1.88249534	 0.100014
H	 4.9773883368	 3.5601827796	 0.0448846478	 0.090522
H	 3.4261156077	 4.2425345637	 0.5191656524	 0.096139
H	 4.1201226137	 1.2622831053	 0.625470075	 0.10031
H	 4.0838717255	 2.330687057	 2.0227900434	 0.09069
H	 1.6837735043	 2.6427255683	 1.8577807567	 0.100416
H	 1.9554921906	 0.9270908684	 1.6510902328	 0.115926
