20
gdb 9283	6.25282	0.80634	0.75466	4.1233	73.27	-0.2765	0.0097	0.2862	1517.5597	0.17468	-386.173431	-386.163535	-386.162591	-386.209345	33.998	
C	 0.0054336201	 1.5484973625	-0.0759015865	-0.390918
C	-0.0244869035	 0.0202156557	 0.0234036386	-0.17397
C	-1.4396143271	-0.5852162144	 0.0812366767	 0.032205
C	-2.2431468041	-0.3557368947	-1.2046204981	-0.40273
C	-1.331291687	-2.0763704692	 0.4064464126	-0.086585
O	-2.6315359063	-2.6362029068	 0.6386394432	-0.181777
C	-2.9823085567	-3.7514222167	-0.0256083264	 0.17121
O	-4.0343182197	-4.2947693303	 0.1295673063	-0.276132
H	 1.0349466946	 1.9182883788	-0.05232843	 0.117069
H	-0.4504027198	 1.9077066578	-1.003136051	 0.122817
H	-0.5325478987	 2.0085122933	 0.7602645254	 0.118803
H	 0.5172618069	-0.4126910024	-0.8291503644	 0.096321
H	 0.5279959492	-0.2858589493	 0.921510076	 0.096176
H	-1.9786401751	-0.1167402367	 0.9162335929	 0.091159
H	-1.7249753007	-0.7837224428	-2.0720242479	 0.109811
H	-3.2308521641	-0.8188881108	-1.1362277227	 0.135536
H	-2.3919204434	 0.7094305383	-1.3989844432	 0.122973
H	-0.8353173641	-2.6164366756	-0.4126683957	 0.105403
H	-0.7441368964	-2.2298429567	 1.3185172589	 0.117282
H	-2.195326464	-4.09991479	-0.7238149448	 0.075347
