22
gdb 63232	2.47174	1.59869	1.34445	1.2417	87.04	-0.2206	0.0216	0.2423	1094.749	0.194798	-367.201143	-367.192471	-367.191527	-367.233765	34.778	
C	 0.2362952296	 1.4962456297	-0.0537198528	-0.410648
C	-0.051228359	-0.0178889684	-0.0165695547	 0.221145
C	-1.5809486451	-0.2400068251	 0.0554196272	-0.411936
C	 0.4763278159	-0.6805965386	-1.2683256479	-0.085258
C	 1.0475019002	-1.881910224	-1.279226371	-0.081174
C	 1.2537459076	-2.6982403697	-0.0305266903	-0.210361
N	 1.1977050318	-1.9620159383	 1.2362400133	-0.11478
C	 2.0658212728	-0.7884156576	 1.345135369	-0.270378
C	 0.5912736979	-0.6261305155	 1.2319149358	-0.014741
H	 1.308288474	 1.694590714	-0.1428961899	 0.117564
H	-0.2690556446	 1.9654887067	-0.905473738	 0.10856
H	-0.1236516935	 1.9855798826	 0.8579413498	 0.111956
H	-2.0760431347	 0.1619955515	-0.8346372017	 0.110067
H	-1.8198456244	-1.3052948515	 0.1228877535	 0.121621
H	-2.0047562129	 0.2629337865	 0.9323291224	 0.11038
H	 0.3367259371	-0.1316708136	-2.1976259209	 0.082551
H	 1.3788922686	-2.3246280616	-2.2157539814	 0.087854
H	 0.4932952176	-3.4915792466	 0.0170317163	 0.116554
H	 2.2204200561	-3.2165626835	-0.0725280408	 0.110607
H	 2.5656270085	-0.6642238982	 2.3023517988	 0.10883
H	 2.6624324455	-0.5131589296	 0.4777245663	 0.110705
H	 0.0384385809	-0.4091865493	 2.146263757	 0.080883
