17
gdb 92943	2.30595	1.52904	1.30185	4.2754	72.44	-0.2733	-0.0055	0.2678	1057.4935	0.135772	-418.040085	-418.031442	-418.030498	-418.073605	31.847	
C	-0.464634795	 1.4204681244	 0.006906258	-0.415147
C	 0.1274666515	 0.0280889904	-0.0820728854	 0.079003
O	 1.2291881255	 0.0224931752	-1.0312651497	-0.227085
C	 2.1948379556	-0.7296136697	-0.4690505668	 0.121185
N	 2.0695825345	-1.1546992285	 0.7198674882	-0.279874
C	 0.7871392992	-0.5891422687	 1.2135356929	 0.08855
C	 1.0933905973	 0.4075745177	 2.3451687121	-0.418056
C	-0.0670338854	-1.6668560318	 1.7355869458	 0.283133
N	-0.7733639107	-2.485902321	 2.1419249517	-0.340837
H	 0.2696206275	 2.1514992392	 0.3525528851	 0.133865
H	-0.8219604017	 1.7317143719	-0.9780378787	 0.141353
H	-1.3164657986	 1.4242496898	 0.69311002	 0.139598
H	-0.6195279689	-0.6715450554	-0.4705301411	 0.119604
H	 3.0552169801	-0.9116876426	-1.1037605893	 0.154002
H	 1.7313037534	 1.210700366	 1.9691315025	 0.132221
H	 0.1775772569	 0.8372983035	 2.7581523313	 0.134267
H	 1.6295873089	-0.1112975705	 3.1418775133	 0.15422
