23
gdb 40191	2.84576	1.50679	1.21573	0.1506	88.47	-0.2573	0.0789	0.3362	1134.5129	0.208523	-351.15057	-351.14263	-351.141686	-351.183053	32.609	
C	 0.0709129804	 1.5099522092	 0.0019703169	-0.332835
C	 1.2736362406	 0.6105701133	 0.1803376396	-0.325366
C	-0.1020234898	 0.0173160268	-0.0119896085	 0.416826
C	-0.768541833	-0.7382244862	 1.1340616845	-0.29679
C	-0.6100059444	-2.2160070629	 0.7206109248	-0.219431
C	-0.7891694934	-2.2089522007	-0.8067377062	 0.003997
C	-2.2437735167	-2.0091308222	-1.3279613144	-0.223835
C	-1.877057263	-0.5858952145	-1.8357030778	-0.227568
C	-0.4281557748	-0.7535532605	-1.2831222405	-0.08775
H	-0.2867321697	 2.0606667483	 0.8662884256	 0.105851
H	-0.0282207338	 2.0478953347	-0.9356553508	 0.107988
H	 1.9834630424	 0.5418259025	-0.6379622945	 0.106441
H	 1.7247035252	 0.5528688304	 1.1661903825	 0.105533
H	-0.3259128869	-0.512167255	 2.1088841995	 0.091146
H	-1.8325428961	-0.4737447102	 1.1955289309	 0.097451
H	 0.4005747242	-2.5589404658	 0.9717754722	 0.095484
H	-1.3175820502	-2.8820678548	 1.225631619	 0.089386
H	-0.2530554037	-3.0266747465	-1.2928517127	 0.058874
H	-2.5443697196	-2.709198067	-2.1112818152	 0.09481
H	-3.0082777691	-2.0355507438	-0.5452602945	 0.09297
H	-1.9251199711	-0.4748615374	-2.9218572087	 0.093875
H	-2.4428712421	 0.2356505751	-1.3872109443	 0.09632
H	 0.3555404249	-0.6555050328	-2.0379934675	 0.056626
