17
gdb 111025	2.60392	1.27666	1.00925	5.3726	74.94	-0.2389	-0.0063	0.2326	1211.1081	0.135496	-417.929354	-417.920909	-417.919965	-417.96288	31.263	
C	 0.1564643509	 1.5616495956	 0.1184744742	-0.323268
N	-0.2202877796	 0.1764774474	-0.1461373564	-0.306575
C	 0.5227516409	-0.4675274208	-1.1724554206	 0.049573
C	 1.8535361515	-1.3082179508	-0.9979089325	-0.005145
C	 1.0596351954	-2.4333823533	-0.2954609943	-0.272946
C	 0.2665952886	-1.9656707662	-1.5471152904	 0.281472
O	 1.5349696565	-1.9444227523	-2.2992622619	-0.313718
C	-0.8989844396	-2.5616557266	-2.1533729971	 0.174542
N	-1.8560603858	-3.0224554168	-2.6085969442	-0.341378
H	 1.1940188644	 1.6942203022	 0.4666349801	 0.105436
H	 0.032107587	 2.1506119604	-0.7960499073	 0.135854
H	-0.5140884049	 1.9776686621	 0.874929609	 0.130145
H	-0.255243257	-0.3604442726	 0.7111713667	 0.227246
H	 0.5679383825	 0.1615700967	-2.0642499609	 0.111534
H	 2.8834761008	-0.9924044227	-0.8426833059	 0.109578
H	 1.4918632863	-3.4296964918	-0.3868068895	 0.131962
H	 0.6316058322	-2.2530930506	 0.693133951	 0.105689
