16
gdb 31850	5.13924	1.05683	0.88214	1.7322	78.38	-0.2022	-0.0352	0.167	1272.2831	0.125958	-434.118007	-434.109909	-434.108965	-434.15069	30.239	
C	-0.0439988387	 1.3960189821	-0.0087629955	-0.231799
O	 0.0083000593	-0.0268662319	 0.0160972673	-0.267725
C	 0.6515816929	-0.5930948652	 1.0600767241	 0.406475
C	 0.7174285822	-1.9926074752	 1.107973505	-0.09335
N	 1.3266184608	-2.6249707465	 2.1002587001	-0.296467
C	 1.8908857911	-1.8762736763	 3.0599392045	 0.346713
N	 2.5841683873	-2.5465189671	 4.05949924	-0.572574
C	 1.8175441021	-0.4802604209	 3.0031003257	-0.080431
N	 1.1967669201	 0.1544028008	 2.0076939722	-0.32631
H	 0.9605029309	 1.8297116853	-0.0402635973	 0.131572
H	-0.5940038073	 1.6537844072	-0.9149800329	 0.127469
H	-0.5612087252	 1.7898573199	 0.8719040801	 0.130621
H	 0.2589186226	-2.5904876211	 0.3255737728	 0.119895
H	 2.325991106	-3.5206326859	 4.1285905695	 0.254028
H	 2.619126259	-2.0836422748	 4.9553153004	 0.249881
H	 2.269401587	 0.1369602898	 3.7763351841	 0.102004
