19
gdb 76592	3.17284	0.76012	0.71923	4.7144	91.34	-0.2565	-0.0537	0.2029	1644.6504	0.156595	-385.866243	-385.856011	-385.855067	-385.902413	35.558	
C	-0.2044983547	 1.5529410233	-0.0039320216	-0.411299
C	-0.0033479734	 0.0562496113	-0.0668879493	-0.017092
C	 0.7057644508	-0.6371108296	-1.1896633781	-0.017081
C	 1.2952762801	 0.0865008803	-2.3785160827	-0.411286
C	 1.371416734	-0.5837526869	 0.197252024	-0.237452
C	 2.5172175336	 0.2300409864	 0.4182052113	 0.145732
C	 3.5038436201	 0.9023516448	 0.6258908472	-0.000625
C	 4.6581084164	 1.7242634601	 0.8473295888	 0.014065
O	 5.5730938002	 1.4497848014	 1.5929848151	-0.238862
H	 0.6656726342	 2.1035461754	-0.3665209262	 0.130998
H	-1.069765534	 1.8499643434	-0.6061921671	 0.122927
H	-0.3884691288	 1.872556095	 1.0267466512	 0.128737
H	-0.8161197918	-0.5112805939	 0.3789509408	 0.098869
H	 0.3248912137	-1.6269385675	-1.4276442234	 0.098876
H	 1.759066235	 1.0342740961	-2.0984164764	 0.130996
H	 2.0654276845	-0.5263008096	-2.8577220666	 0.12875
H	 0.5206636901	 0.2945301027	-3.1243882544	 0.122926
H	 1.3622494262	-1.5101618519	 0.7634944294	 0.120886
H	 4.6562013138	 2.6691132789	 0.2644028879	 0.089938
