18
gdb 109334	1.95913	1.86606	0.97316	2.2983	78.36	-0.2137	0.0094	0.2231	1200.7029	0.14876	-435.277827	-435.268628	-435.267683	-435.313435	31.535	
C	-0.0124328007	 1.4619047121	 0.0409250103	-0.231454
O	 0.0134827247	 0.03103213	 0.0327650654	-0.227902
C	 0.6205125041	-0.5257310697	 1.0680846668	 0.528473
N	 1.1673966847	 0.0926631283	 2.0423204631	-0.379797
C	 1.7105251583	-0.9195308491	 2.9494548139	-0.174465
C	 1.3795026648	-2.3073206525	 2.3229321659	-0.198178
N	 0.6674327156	-1.9260255866	 1.0978120667	-0.141567
C	 0.1784165631	-2.8647720043	 0.2122247992	 0.076543
N	-0.4461446922	-2.603931976	-0.8648066737	-0.444042
H	 1.0037952452	 1.8647877174	 0.0398074899	 0.139416
H	-0.5420821722	 1.746691729	-0.8681005228	 0.136097
H	-0.5356607446	 1.8318689445	 0.926568934	 0.139464
H	 2.7907471898	-0.7800049985	 3.0681218124	 0.113299
H	 1.2660213242	-0.8122442842	 3.9451052475	 0.113303
H	 2.2783970928	-2.8867243684	 2.0866800574	 0.119807
H	 0.7415366641	-2.9188423935	 2.9699172339	 0.119802
H	 0.4076576537	-3.8757651848	 0.573633035	 0.087849
H	-0.6942779856	-3.4755947138	-1.3288545749	 0.223353
