21
gdb 36394	4.83135	0.79102	0.74104	0.6277	89.49	-0.2549	0.0548	0.3097	1579.1883	0.181328	-349.898385	-349.889216	-349.888272	-349.932766	35.256	
C	-0.0402430169	-1.1717186604	-0.2215121792	-0.449207
C	-0.040277837	 0.0184461879	-0.0514095392	 0.302833
C	-0.0003813557	 1.4623539038	 0.1519041421	-0.376393
C	 1.4224946384	 2.0307554568	 0.1187818019	 0.056093
C	 2.1903727313	 2.0234334993	-1.2364572065	-0.305891
C	 2.6324497972	 3.4619794157	-0.93520797	 0.387558
C	 4.0548321117	 3.9327562761	-0.838875699	-0.31546
C	 3.1227106637	 4.5140312355	-1.8807311176	-0.331091
C	 1.5813204586	 3.5798247946	 0.1766874401	-0.330166
H	-0.0536500108	-2.2226476468	-0.3710356328	 0.193055
H	-0.605195825	 1.9573096345	-0.6202658055	 0.123888
H	-0.4711977815	 1.7109780289	 1.1126796367	 0.127922
H	 2.0206737867	 1.5513556526	 0.8985787238	 0.084427
H	 2.9725423533	 1.2704244552	-1.360753004	 0.102509
H	 1.5083544334	 1.9617644265	-2.0922112814	 0.098658
H	 4.3326792467	 4.5596696147	 0.0030025263	 0.108954
H	 4.840838581	 3.2629003236	-1.1738904663	 0.11025
H	 3.2797049685	 4.2368771947	-2.9186688671	 0.10997
H	 2.7731717365	 5.5324455353	-1.7411248318	 0.108771
H	 0.6738455892	 4.0978823055	-0.1559421289	 0.095041
H	 1.8997964006	 4.0128224359	 1.1291516683	 0.098278
