15
gdb 24205	4.25934	1.59103	1.38706	3.88	70.3	-0.2037	0.022	0.2257	908.6453	0.116508	-416.767728	-416.761622	-416.760677	-416.798499	24.653	
C	-0.0547420666	 1.5862379412	-0.0485036341	-0.210113
C	 1.4868033117	 1.3259250541	 0.0152092362	-0.080415
O	 1.1750729944	 0.1748084031	 0.8823511601	-0.284741
C	-0.0095158954	 0.0231580646	-0.0057545704	-0.073999
C	 0.6793913148	-0.2910738893	-1.3303019108	 0.325051
C	 1.7070568073	 0.6085120909	-1.3118535696	 0.349921
N	 2.4157715293	 0.3815376388	-2.4548020949	-0.422429
C	 1.7618222453	-0.6500517825	-3.1038118487	-0.032606
N	 0.6998922592	-1.0807277562	-2.439930226	-0.367818
H	-0.4347899121	 2.0192034697	 0.8799888799	 0.110621
H	-0.470340665	 2.0749466638	-0.9324155708	 0.103503
H	 2.209327134	 2.0266528871	 0.4284441425	 0.089471
H	-0.8030750005	-0.5979694861	 0.401753024	 0.095173
H	 3.2486507523	 0.8445123714	-2.7783008612	 0.268392
H	 2.1152444012	-1.0350491607	-4.0482622362	 0.12999
