15
gdb 3652	3.59338	3.22394	1.73597	2.6618	63.03	-0.2217	0.0291	0.2508	721.2685	0.12621	-304.733723	-304.726411	-304.725467	-304.76592	25.376	
C	 0.0006231433	 1.5123882563	 0.1087535674	-0.50358
C	 0.0034108619	 0.0262050595	-0.0394439628	 0.28488
C	-0.0025109943	-0.7894563369	-1.1606580446	 0.131118
C	-0.0179192056	-0.3772074317	-2.6012095058	-0.511683
C	 0.0250709813	-2.1022281569	-0.6336289648	-0.073862
N	 0.0455179113	-2.1187649676	 0.6949718821	-0.234158
N	 0.035759988	-0.8141093529	 1.0296669398	-0.244483
H	 1.013720593	 1.9191841694	 0.2157517349	 0.139526
H	-0.4472287328	 1.9826892797	-0.7705376908	 0.140994
H	-0.5762456459	 1.8290150343	 0.9843535903	 0.127976
H	 0.9900274679	-0.1908062304	-2.9923498611	 0.127525
H	-0.4668239235	-1.1558488013	-3.225204736	 0.12786
H	-0.5967675805	 0.5397357728	-2.7559357867	 0.120505
H	 0.0231093641	-3.0349292496	-1.1806442258	 0.102152
H	 0.0311609118	-0.5612071547	 2.0035101639	 0.265229
