23
gdb 105230	1.96355	1.39497	1.01252	1.8012	81.55	-0.2483	0.0695	0.3177	1304.6494	0.203089	-425.410837	-425.400036	-425.399092	-425.44624	40.644	
C	-1.4930195827	 0.006402518	-0.1707711243	-0.388569
C	 0.0242487763	-0.1033777316	 0.0346663732	-0.25226
C	 0.7760525494	-0.667832683	-1.1665489301	 0.318634
C	 2.084427105	-1.3900512443	-0.8775208188	-0.397162
C	 0.8513100695	-2.1635369984	-1.2864904059	 0.072934
O	 0.1495133841	-2.9193245219	-0.3379686226	-0.427273
C	 0.6659374229	 0.1324628944	-2.4722954018	 0.049833
C	 1.1663741674	 1.5719513527	-2.3369372875	-0.415026
O	 1.3212948064	-0.5211339203	-3.5600232142	-0.430692
H	-1.756388563	 0.7068812404	-0.9701051716	 0.112017
H	-1.9168335797	-0.9702197657	-0.4217777808	 0.136354
H	-1.9788566189	 0.3604591725	 0.7439787509	 0.107899
H	 0.4385432216	 0.8769747647	 0.3000673569	 0.08943
H	 0.2095786936	-0.7591848175	 0.8890896628	 0.108279
H	 2.9047872014	-1.3328176236	-1.5858850105	 0.089722
H	 2.3899025106	-1.4492914495	 0.1620149451	 0.108276
H	 0.8473834112	-2.5690555303	-2.295694352	 0.101486
H	 0.649027596	-3.726035597	-0.1762893161	 0.286823
H	-0.3886223045	 0.150447341	-2.7711920691	 0.092415
H	 0.5674140479	 2.1472142458	-1.6259519504	 0.125932
H	 2.2059970554	 1.5894102625	-1.9862855755	 0.110597
H	 1.1185114184	 2.0720832347	-3.3083135238	 0.121426
H	 2.2624776117	-0.3286619337	-3.4928303338	 0.278925
