19
gdb 31009	2.4273	1.24427	0.86264	1.3798	81.55	-0.2008	0.0265	0.2273	1365.8414	0.157669	-423.065661	-423.05586	-423.054916	-423.100913	34.843	
C	 0.1509729854	 1.4617643483	-0.0795169474	-0.490958
C	-0.0594869694	-0.0093821557	-0.0914881918	 0.358347
C	-1.1486961323	-0.8015186574	-0.2512872521	-0.362716
C	-0.6940544542	-2.1634609596	-0.146921758	 0.215668
C	-1.5479654697	-3.380789222	-0.2714240829	-0.211956
O	-2.5996765131	-3.3036799274	 0.6895216061	-0.4158
C	 0.6493285898	-2.096499439	 0.0728758305	 0.241363
C	 1.719072617	-3.1100842218	 0.2710944847	-0.495373
O	 1.0483534744	-0.7892082382	 0.1027402837	-0.219555
H	 0.8542945971	 1.7755976938	-0.8596302636	 0.133859
H	-0.7990737039	 1.972829859	-0.2504636903	 0.134053
H	 0.5556462279	 1.8037073679	 0.8802145148	 0.135575
H	-2.1648014075	-0.4738023399	-0.4065269784	 0.108375
H	-1.9676919189	-3.4401304188	-1.2892351609	 0.092334
H	-0.9391867597	-4.286098934	-0.1238804159	 0.086329
H	-3.2138715897	-4.022060052	 0.5081694539	 0.284183
H	 2.4532270963	-3.0913155743	-0.5433207691	 0.134679
H	 2.2638496306	-2.9312036332	 1.2049132282	 0.138106
H	 1.28964264	-4.1131645157	 0.3148638485	 0.133488
