15
gdb 33274	3.31976	0.8391	0.70681	1.3751	97.18	-0.2313	-0.0198	0.2116	1553.2744	0.109214	-346.25045	-346.241288	-346.240344	-346.284508	34.162	
C	 0.0718265133	-3.7490363986	-0.005843812	-0.578658
C	 0.0447051712	-2.5414262138	-0.0065669012	 0.296257
C	 0.0149421039	-1.1821484117	-0.0068770687	-0.272637
C	-0.0037604748	 0.0286355891	-0.0019138395	 0.403761
C	-0.0261307358	 1.4648776352	 0.0041677414	-0.038214
C	 0.5003359552	 2.1792834239	 1.2625887423	-0.283289
C	 1.328171393	 2.1974099156	 0.0247235401	-0.283292
C	-1.1113447649	 2.0867106136	-0.7124703967	 0.257106
C	-2.0122838787	 2.6149617918	-1.3072548944	-0.455346
H	 0.0949833114	-4.810386399	-0.0056628105	 0.190696
H	-0.0295477093	 3.0800494032	 1.5471826409	 0.141437
H	 0.8028160955	 1.537647707	 2.0811077594	 0.141028
H	 2.2087660662	 1.5684367496	-0.0212094839	 0.141028
H	 1.3765239293	 3.110836139	-0.5553319731	 0.141435
H	-2.8121370855	 3.0717475553	-1.8355013239	 0.198687
