15
gdb 66869	3.77643	1.81483	1.61022	2.9777	68.6	-0.21	-0.0503	0.1597	829.6545	0.112976	-416.659754	-416.653467	-416.652523	-416.6899	26.627	
O	-0.0882923676	 1.4314975268	 0.0347337579	-0.460991
C	 0.0469686753	 0.0655744505	-0.0465333987	 0.377361
C	 0.0128788234	-0.9181206496	 1.1173220094	-0.108714
N	 0.8749778461	-2.0459677332	 1.0068701847	-0.135427
C	 1.2305614993	-2.037654332	-0.2314611324	 0.072244
N	 0.4965943249	-3.0122186986	-1.0630067799	-0.338304
C	-0.3542058026	-1.7102445541	-1.2753610132	 0.004958
C	-1.0383792057	-0.9983034534	-0.0569223401	-0.154075
C	 0.8399543558	-0.7624917575	-1.0498340644	-0.199048
H	 0.6483124282	 1.7823556206	 0.5484425154	 0.294129
H	-0.3580878533	-0.6034428167	 2.0861413718	 0.108905
H	 0.9511310656	-3.1266562541	-1.9750560121	 0.224652
H	-0.9222018806	-1.7126632398	-2.2054733357	 0.11147
H	-2.0959722241	-0.9287460341	 0.1523982274	 0.111035
H	 1.4662279453	-0.3864109848	-1.8533192699	 0.091804
