16
gdb 82352	2.47244	1.68898	1.34488	4.1822	67.46	-0.2613	0.0082	0.2695	980.105	0.124612	-437.869764	-437.861876	-437.860932	-437.902466	29.732	
O	 0.2482609729	 1.1405661794	 0.6089456656	-0.410636
C	-0.0384855666	-0.1639318621	 0.1634581949	 0.079552
C	-1.4927731687	-0.2945317621	-0.2301332474	-0.073492
C	-1.9239531338	 0.489068394	-1.4600993592	-0.327286
C	-1.5089645802	-0.9476510903	-1.5769388182	 0.105156
O	-0.194521484	-1.2476862201	-2.002960283	-0.243399
C	 0.7261172087	-0.5797965269	-1.1580568402	-0.113802
C	 1.3346778831	 0.5843297828	-1.8313647327	 0.302616
N	 1.8521575984	 1.4685996959	-2.3655436613	-0.332773
H	 1.174200766	 1.1939847896	 0.8693859736	 0.293838
H	 0.199545605	-0.9038620461	 0.9400591533	 0.08887
H	-2.2113647573	-0.5339056743	 0.5432489834	 0.103738
H	-2.9821942716	 0.7066725141	-1.5528473755	 0.124299
H	-1.2693638319	 1.2658247325	-1.8378867822	 0.155718
H	-2.2044440009	-1.7231836657	-1.8719719063	 0.113303
H	 1.5383659707	-1.2826150508	-0.9395006147	 0.134299
