17
gdb 128296	2.36577	1.45689	0.91505	0.6951	74.4	-0.1875	0.0145	0.202	1256.2708	0.136451	-451.323883	-451.314545	-451.313601	-451.358311	32.886	
C	-0.063664741	 1.4706471298	-0.0948733437	-0.315639
N	 0.2088908202	 0.0549299876	 0.0974487217	-0.389742
C	 0.6986485002	-0.6631488569	-0.9772108032	 0.317331
N	 1.2236928074	-0.1170944788	-2.0724157685	-0.329314
N	 1.581841351	-1.1694352623	-2.8240126142	 0.129376
C	 2.3991828608	-1.0183328125	-4.0020073857	-0.30532
N	 1.3494022204	-2.3660748468	-2.2707420612	-0.331983
C	 0.7815144382	-2.0674749393	-1.1156235199	 0.296159
O	 0.3225731538	-2.9763963453	-0.2263594812	-0.440392
H	 0.8640367485	 1.9863972285	-0.3558140841	 0.146702
H	-0.7911866137	 1.670833006	-0.8957723562	 0.115272
H	-0.4401623342	 1.8872970683	 0.8421210863	 0.118489
H	-0.509904346	-0.4451398043	 0.6002809185	 0.245532
H	 3.4669433596	-0.9793241687	-3.7534260178	 0.136208
H	 2.2162507452	-1.8677532361	-4.6615094917	 0.149218
H	 2.1146943493	-0.0903759238	-4.4998615473	 0.15121
H	 0.4938497804	-3.8532047852	-0.5902278818	 0.306893
