23
gdb 101257	2.64491	1.07486	0.88335	1.0328	83.17	-0.2405	0.0762	0.3167	1428.6317	0.202228	-425.404919	-425.393986	-425.393042	-425.440892	40.311	
C	-0.1622189708	 1.5071812637	 0.2116994776	-0.237336
O	 0.1632864012	 0.1531112957	-0.0015259563	-0.242736
C	 0.674336301	-0.5264273793	 1.1417395929	 0.101357
C	-0.4451616637	-0.8687559062	 2.133020361	-0.398362
C	 1.3846122221	-1.7907590465	 0.6867878245	-0.040654
C	 1.0774558033	-2.4645252171	-0.6397398282	-0.350731
C	 2.4432081532	-1.8700634607	-0.3751062163	 0.381483
C	 2.9398207632	-0.6718080742	-1.1502130015	-0.461238
O	 3.4651472335	-2.7799367644	-0.0293242691	-0.46864
H	 0.6946391994	 2.0738259422	 0.6083059533	 0.105755
H	-0.4425488474	 1.9260035485	-0.7581855235	 0.126248
H	-1.0084974203	 1.635823607	 0.9013105741	 0.110057
H	 1.4037355296	 0.132935307	 1.644055628	 0.067274
H	-0.9701884368	 0.0273826468	 2.4751956688	 0.111355
H	-1.1705409169	-1.5394321276	 1.662698348	 0.127362
H	-0.032374042	-1.367369045	 3.0154873721	 0.117319
H	 1.5765699143	-2.4753894395	 1.5077329652	 0.093937
H	 0.9930164012	-3.5455790775	-0.6490324195	 0.102834
H	 0.4192554475	-1.9331485651	-1.3171469025	 0.124736
H	 2.1267326416	 0.0214913105	-1.3660578255	 0.13937
H	 3.7161793607	-0.1455721079	-0.58429136	 0.116136
H	 3.3826215494	-0.9926864442	-2.1020477057	 0.098631
H	 3.8059267964	-3.156525176	-0.8486626176	 0.275841
