21
gdb 63951	2.71693	1.67488	1.50635	1.6212	76.38	-0.2455	0.0827	0.3282	1008.4252	0.183781	-424.250744	-424.242735	-424.241791	-424.282654	32.606	
C	-0.1705302992	 1.5850369001	-0.0345025651	-0.439779
C	-0.0119309668	 0.0681332424	 0.0301208951	 0.405263
C	-1.3762186506	-0.6257106553	 0.0601026522	-0.424319
O	 0.7120723234	-0.3912973582	-1.1488531509	-0.325468
C	 1.7924610226	-1.167312861	-0.6416060347	 0.190408
C	 2.9048474336	-0.2201877949	-0.1505609197	-0.236202
C	 2.2708728121	 0.262154026	 1.1903734406	-0.237015
C	 0.92051532	-0.4817374473	 1.1485913455	 0.008231
O	 1.2985211147	-1.7398628675	 0.5562983785	-0.257367
H	 0.7834968213	 2.0863225863	-0.2088559603	 0.121129
H	-0.8412469689	 1.8524186991	-0.8563987839	 0.125052
H	-0.6061048191	 1.9721490462	 0.8931039582	 0.113587
H	-1.9040480998	-0.4409980192	-0.879979745	 0.120355
H	-1.2501170067	-1.7035461711	 0.1799931181	 0.132464
H	-1.9934293589	-0.2449596579	 0.8813345703	 0.104652
H	 2.0655055473	-1.9386583338	-1.3617752818	 0.088145
H	 3.8418021261	-0.7595141843	 0.0095591394	 0.10456
H	 3.0812716624	 0.5842612809	-0.86686347	 0.109455
H	 2.8493036202	-0.0818186538	 2.0504280777	 0.108198
H	 2.1714939985	 1.3456134907	 1.2638246557	 0.106714
H	 0.4317925677	-0.6511411975	 2.1074890002	 0.081937
