18
gdb 22758	3.1333	0.94622	0.76356	2.1479	78.37	-0.2504	-0.03	0.2204	1445.7208	0.144641	-439.044651	-439.035074	-439.03413	-439.079946	34.145	
C	-0.4032096311	 1.2084174896	 0.1243449672	-0.404978
C	 0.0761337142	-0.2360885402	 0.1080963481	-0.08685
C	 0.9689027169	-0.7216282321	-1.1022751579	-0.083636
C	 1.9490675605	-1.39385011	-0.0789076862	-0.353027
C	 1.2173363044	-0.650898386	 1.0162051144	 0.413384
N	 1.4542354897	-0.3201793536	 2.2138144718	-0.23845
O	 2.6727103442	-0.8630368237	 2.6588388285	-0.391033
C	 0.2949890193	-1.6418883263	-2.0785164939	 0.15902
O	 0.2152319702	-1.4627882036	-3.2661775587	-0.250917
H	 0.4353466842	 1.8994371934	-0.0035417998	 0.124508
H	-1.1244560273	 1.3887055434	-0.6790216654	 0.125796
H	-0.8861192955	 1.4403632968	 1.0778954506	 0.137131
H	-0.7760098694	-0.9184087943	 0.2361009087	 0.098912
H	 1.4224721164	 0.1144601653	-1.6374989052	 0.100085
H	 1.8254514042	-2.4813850692	-0.0135847873	 0.130008
H	 3.0119293947	-1.1743639691	-0.1959553356	 0.141843
H	 2.7321943934	-0.5204817053	 3.55720629	 0.309072
H	-0.1565952591	-2.547101205	-1.6025343892	 0.06913
