21
gdb 53375	3.71663	0.77384	0.72186	1.5981	88.16	-0.2366	0.0457	0.2823	1690.0995	0.181569	-387.07776	-387.067629	-387.066684	-387.115543	35.624	
C	-0.2101011921	 1.4455886405	 0.0645675869	-0.49803
C	-0.1177872493	-0.006079736	 0.0106196672	 0.045628
C	-0.0495503866	-1.2074501648	-0.0391771023	 0.106404
C	 0.0423907203	-2.6651823365	-0.0990775052	-0.064385
C	 0.7891671009	-3.2850313628	 1.1144170453	-0.254449
C	-0.060554083	-4.5171457994	 1.4706532166	 0.0274
C	 0.0614442813	-4.9844925547	 2.9186681635	-0.413013
C	-1.4526487644	-4.0189586102	 1.0688813784	-0.079437
O	-1.2623705215	-3.2761605674	-0.1256123341	-0.257145
H	 0.2806627426	 1.8467611246	 0.9582970461	 0.145652
H	 0.2609715239	 1.9081985563	-0.8097793234	 0.147895
H	-1.2559143233	 1.7715747623	 0.0869292165	 0.15143
H	 0.5355113425	-2.9507675869	-1.0376274829	 0.09967
H	 1.8270899786	-3.5251142402	 0.8730111929	 0.108433
H	 0.7935560565	-2.5766773643	 1.9486439796	 0.110543
H	 0.2084561094	-5.3409812508	 0.7972967782	 0.079348
H	-0.2095275988	-4.181740956	 3.6139127393	 0.117761
H	-0.5963573337	-5.8371449342	 3.1182185169	 0.116912
H	 1.0848306328	-5.2955772913	 3.1511796521	 0.118523
H	-2.1641630578	-4.821863821	 0.8527323923	 0.10505
H	-1.8791262985	-3.3870626574	 1.8668333862	 0.085809
