14
gdb 9565	4.46302	1.32312	1.2321	2.6812	70.37	-0.2689	-0.0062	0.2627	987.7715	0.105532	-341.538063	-341.529923	-341.528978	-341.570421	29.468	
C	-0.0653312306	 1.5451909733	-0.1028976945	-0.44966
C	-0.0073497749	 0.0368986212	 0.0110612199	 0.162932
N	 1.309091531	-0.5883224102	-0.200721446	-0.336466
C	 0.7175382492	-0.653070432	 1.1497067025	-0.294787
C	 1.345797463	 0.0947280114	 2.2016127869	 0.368614
C	 1.8486931336	 0.7065824172	 3.1054228887	-0.401197
C	-1.1654999907	-0.6703733238	-0.4942875821	 0.2456
N	-2.0828282063	-1.2359015459	-0.9151467176	-0.334455
H	 0.8355234456	 1.9770264891	 0.3347414231	 0.152784
H	-0.1261014912	 1.8423520438	-1.1533888609	 0.142654
H	-0.9406141112	 1.937851519	 0.4217914462	 0.141355
H	 1.2138339022	-1.4898645211	-0.6630546497	 0.256712
H	 0.2913137045	-1.6045688086	 1.4588867051	 0.136968
H	 2.3008660458	 1.2467867868	 3.9005995885	 0.208947
