11
gdb 23796	3.99766	1.87274	1.27531	2.1188	57.95	-0.2484	-0.0821	0.1663	834.4874	0.071671	-438.658635	-438.652465	-438.651521	-438.689185	22.956	
F	 0.0362188174	 0.0519813369	-0.0218564132	-0.0534
C	-0.0395711554	 1.3745437226	 0.0229255829	 0.298759
C	-1.1905233601	 2.0444536589	-0.1036047617	-0.301715
C	-1.1575053515	 3.4927140164	-0.0391451676	 0.425138
N	-2.1896031101	 4.2183442466	-0.1471837297	-0.52177
O	 0.099282084	 4.084492093	 0.1540579178	-0.28912
N	 1.276760297	 3.3699334383	 0.2823043919	-0.035479
C	 1.1976044729	 2.0889088711	 0.2184586933	-0.071986
H	-2.1478979977	 1.5641921616	-0.2518918351	 0.156504
H	-1.951644606	 5.208063299	-0.0741221328	 0.234293
H	 2.1344297595	 1.5516574856	 0.3217537241	 0.158776
