19
gdb 111537	3.44348	1.14583	1.05504	1.9905	75.62	-0.2321	0.0682	0.3003	1205.6918	0.15842	-422.953625	-422.945208	-422.944264	-422.986935	32.461	
O	 0.0874752273	 1.2985416744	-0.3950173552	-0.419917
C	 0.041113733	 0.0210865669	 0.2267678501	-0.096909
C	-1.3391226931	-0.5907057162	 0.1467670662	-0.066456
C	-1.848375422	-1.3220451853	-1.0607329277	 0.06121
O	-0.8004572034	-2.0429224318	-1.7275586841	-0.316365
C	-0.6433386273	-2.8729034573	-0.5604958949	 0.468887
C	-0.5327261223	-4.3541128628	-0.6880058973	-0.348782
C	 0.6530534754	-3.5206134623	-0.2120600291	-0.33146
C	-1.6501636939	-2.0788590167	 0.2353785061	-0.252646
H	-0.0925069759	 1.1621306041	-1.3311255667	 0.285708
H	 0.7826988067	-0.6608566162	-0.2056884266	 0.109052
H	 0.3151381146	 0.1899139431	 1.2733754203	 0.10732
H	-2.1145140611	 0.012200582	 0.6165412316	 0.097372
H	-2.7326604665	-1.0768566254	-1.6369297582	 0.106706
H	-1.0541167595	-4.9752385899	 0.0333539093	 0.116872
H	-0.4864149524	-4.7597273581	-1.6926420037	 0.128052
H	 1.4734351062	-3.3862396427	-0.9089926804	 0.127571
H	 0.9464121968	-3.5749365933	 0.8309347932	 0.120306
H	-2.3716995427	-2.4964687824	 0.9247493173	 0.103478
