15
gdb 5310	4.62674	1.40818	1.37762	1.8274	62.48	-0.2455	-0.0031	0.2424	941.1805	0.119345	-399.828219	-399.820703	-399.819759	-399.860484	27.124	
C	-0.1749715671	 1.5743659912	-0.0649913274	-0.403537
C	 0.0457234407	 0.0602774144	 0.0353496712	 0.00444
O	-1.1853272459	-0.6328097154	 0.2315748497	-0.423201
C	 0.7985374313	-0.4846311499	-1.1350399043	 0.354136
C	 1.96819412	-1.1421108729	-1.3199523331	-0.206861
N	 2.1450071801	-1.4155088481	-2.6730609429	-0.25583
C	 1.0899021785	-0.9240559068	-3.230163058	 0.07366
O	 0.2193647916	-0.3362388669	-2.3747841494	-0.195237
H	 0.7792585498	 2.1086866208	-0.1019370591	 0.124814
H	-0.7358742349	 1.8221911999	-0.9721689051	 0.12313
H	-0.7427273797	 1.9193521555	 0.8027049852	 0.128503
H	 0.6396800557	-0.1613802897	 0.9280676282	 0.109469
H	-1.7144669605	-0.5127202277	-0.5650901806	 0.286071
H	 2.6955896658	-1.4398227774	-0.5815692241	 0.128963
H	 0.8181217446	-0.9238462971	-4.2740833703	 0.15148
