17
gdb 48505	4.85786	1.27775	1.27618	3.225	77.73	-0.2398	-0.0222	0.2176	1019.1872	0.136831	-384.628519	-384.621731	-384.620787	-384.65989	26.963	
O	-0.2181416273	 0.3946430203	-0.8681708101	-0.281587
C	 0.0791971617	 1.0308673111	 0.1203082655	-0.002115
C	 1.2615314447	 1.8794083444	 0.2199273537	 0.27791
C	 2.671190208	 1.6276143676	-0.3389872541	-0.105319
C	 1.8767649414	 2.7945716328	-0.8510179159	-0.105305
C	 2.2713794175	 3.8851069933	 0.1775929591	-0.053159
C	 3.7832904248	 3.7001296398	 0.4569862209	-0.243052
C	 3.370458417	 2.2705720545	 0.8860247343	-0.05315
C	 1.9347523026	 2.7997366863	 1.2728156559	-0.148442
H	-0.5559299404	 1.0001022871	 1.0351735252	 0.065047
H	 2.9687822905	 0.7869782017	-0.95020736	 0.110934
H	 1.5370946806	 2.8899861943	-1.8729474088	 0.110935
H	 1.7864213722	 4.8576988694	 0.1164779089	 0.074131
H	 4.4883175279	 3.8165031978	-0.3715869413	 0.099266
H	 4.1098525176	 4.2982537506	 1.3135164744	 0.102704
H	 3.9786160677	 1.637380034	 1.5295052006	 0.074133
H	 1.6041112535	 3.018772455	 2.2849669618	 0.077069
