14
gdb 2084	4.93782	2.63898	1.83114	5.2582	53.93	-0.2506	0.0572	0.3078	673.8036	0.116324	-361.764881	-361.758682	-361.757738	-361.795214	22.564	
O	 0.0128803271	-0.0518489363	 0.0755857444	-0.393593
C	-0.0189639919	 1.1514665354	 0.0057168651	 0.464423
N	-1.1848959431	 1.8719865194	-0.007848937	-0.360842
C	-1.3403976523	 3.3179932824	 0.0079387061	-0.146938
C	-0.0167571004	 3.9532359782	 0.4217379151	-0.222942
C	 1.1007117863	 3.262124727	-0.3433962916	-0.063012
O	 1.1407657333	 1.861901578	-0.0465258241	-0.240064
H	-2.004468053	 1.2878459099	 0.0182979422	 0.258298
H	-1.6369806536	 3.6878571877	-0.984912375	 0.110808
H	-2.1401881613	 3.5899419041	 0.7056758539	 0.116772
H	-0.0235290736	 5.0252656645	 0.2047840827	 0.113977
H	 0.1496813414	 3.8243302661	 1.4964505059	 0.125612
H	 0.9725721564	 3.4004115443	-1.4261986941	 0.112497
H	 2.0859420648	 3.6445286595	-0.0673660936	 0.125004
