19
gdb 66384	2.395	1.46551	1.30954	2.4682	71.66	-0.2393	-0.0318	0.2075	1082.4693	0.158027	-460.168376	-460.159607	-460.158663	-460.201697	32.819	
C	 0.0906625432	 1.5268572974	 0.1878211095	-0.434807
C	 0.0006379509	 0.0012862796	 0.0866746392	 0.238676
C	 0.6006205099	-0.507527501	-1.2301829454	-0.105722
O	 0.74522748	-1.9162677256	-1.2320769259	-0.255024
C	 1.5412059187	-2.3477252957	-0.1415063317	-0.077697
C	 0.8881971211	-1.9302629504	 1.1668193183	-0.094352
O	 0.709039293	-0.5169992237	 1.212197239	-0.292249
C	-1.4838693963	-0.3739603012	 0.2060335879	 0.130408
O	-2.2602306422	-0.3864489758	-0.7115019897	-0.250099
H	 1.1408209581	 1.830556525	 0.1837102898	 0.132978
H	-0.4287788918	 1.9965404484	-0.6514074497	 0.138415
H	-0.3610915094	 1.8756070397	 1.1210075313	 0.132791
H	-0.0695230016	-0.2578864925	-2.0556228306	 0.133688
H	 1.5769390832	-0.0219224792	-1.3904802594	 0.089207
H	 1.6165396156	-3.4368832686	-0.2109715662	 0.112975
H	 2.5538188692	-1.9167755773	-0.2095296771	 0.094752
H	-0.0787497436	-2.4476918578	 1.268773039	 0.102274
H	 1.510956182	-2.1885823763	 2.0281835323	 0.113821
H	-1.7989813701	-0.581284165	 1.2549577094	 0.089962
