16
gdb 125255	3.92965	1.05828	0.8381	1.792	76.18	-0.2254	-0.0067	0.2187	1326.8905	0.125172	-434.076118	-434.067687	-434.066743	-434.109805	30.391	
C	 0.2304298077	 1.5533841729	-0.002746009	-0.491168
C	 0.0038192362	 0.0843323434	 0.0495539344	 0.453792
C	-1.1123773741	-0.6874564612	-0.0388719539	-0.431124
C	-0.6013055803	-2.0100994249	 0.0908304053	 0.497477
N	-1.2712266748	-3.2217476676	 0.0773200036	-0.386322
C	-2.6208513382	-3.4351649069	-0.0665261696	 0.086474
N	-3.4757123493	-2.5024832754	-0.2142096522	-0.453759
N	 0.7071682694	-2.0306025826	 0.2437722242	-0.250703
O	 1.0914041093	-0.6906216708	 0.2170428453	-0.212498
H	 0.8967759021	 1.8177298628	-0.8304009697	 0.149742
H	-0.7187213431	 2.0743226598	-0.1396865998	 0.144052
H	 0.6954959708	 1.911226801	 0.921664403	 0.149736
H	-2.1385521413	-0.4014932945	-0.1730249084	 0.154174
H	-0.6789596689	-4.0295042273	 0.1886379102	 0.265901
H	-2.8506985937	-4.5064199596	-0.0362921108	 0.097635
H	-4.4091430918	-2.8961751691	-0.3007251427	 0.226591
