15
gdb 17981	4.14047	1.77255	1.50801	2.5777	66.78	-0.2348	0.0314	0.2661	852.3562	0.118877	-362.565691	-362.558735	-362.557791	-362.597018	26.476	
C	 0.0954514667	-1.1946927466	 0.166419438	-0.434705
C	 0.0655660041	 0.005364935	 0.1107379273	 0.369542
C	 0.0288561399	 1.4524630154	 0.0156958269	-0.223591
N	-0.3149743384	 2.1940486091	 1.2758514	-0.314515
C	 0.8450476944	 3.1035391233	 1.1069054641	-0.06748
C	 2.0787867398	 2.585523493	 1.8662742156	-0.058384
O	 2.4322066136	 1.7185534701	 0.752979843	-0.282722
C	 1.3777872934	 2.2389528031	-0.0587378825	 0.10884
H	 0.1326507381	-2.2540719832	 0.2279575427	 0.196859
H	-0.6048159776	 1.7512891544	-0.8315318695	 0.09618
H	-1.2142716754	 2.657654598	 1.2248742831	 0.224819
H	 0.6433045051	 4.1744865113	 1.0755297725	 0.081459
H	 2.8661978383	 3.3277693161	 2.0480611628	 0.098931
H	 1.8595536372	 2.0251836983	 2.7799465743	 0.118059
H	 1.7159720509	 2.5657957927	-1.0442606683	 0.086709
