20
gdb 81055	2.47535	1.40791	1.28184	1.9908	80.44	-0.2257	-0.0239	0.2018	1123.2105	0.168947	-403.089893	-403.080665	-403.079721	-403.124796	34.051	
C	-0.1942898295	 1.8816256933	 0.7392741621	-0.340298
N	 0.0769896736	 0.5166766347	 0.2907347257	-0.1385
C	-0.9331312824	-0.5682141153	 0.6402907865	-0.022614
C	 0.204798748	-1.5775285768	 0.3516285982	-0.25316
C	 0.7827228362	-0.44247788	 1.2569345833	 0.288221
C	-0.4913209974	-0.5643469637	 2.1330454841	-0.290236
C	 2.2103314833	-0.2534425097	 1.696643152	 0.234346
C	 3.2140618057	 0.0349108988	 0.5993589767	-0.490034
O	 2.5141950663	-0.3479606163	 2.8644391709	-0.292878
H	 0.7261197354	 2.4688252949	 0.6536234993	 0.122681
H	-0.9281347428	 2.3216214338	 0.0558770224	 0.125196
H	-0.5742053057	 1.9981554373	 1.7643607673	 0.106889
H	-1.942933987	-0.5566982812	 0.2270916014	 0.085273
H	 0.1244908769	-2.5656251381	 0.8061610339	 0.104833
H	 0.5718961387	-1.5912435997	-0.6745598473	 0.107362
H	-0.7611290015	 0.2949675964	 2.7441720062	 0.110389
H	-0.6171694658	-1.4927023886	 2.6941913224	 0.105257
H	 2.8520453262	 0.833341165	-0.0553029824	 0.15202
H	 4.1781907582	 0.2965364809	 1.0367703505	 0.139046
H	 3.3306870436	-0.8544273755	-0.0314397931	 0.146209
