18
gdb 17786	6.07138	1.12793	1.09866	1.9455	68.97	-0.2366	0.0772	0.3138	1141.2566	0.152806	-384.859738	-384.851973	-384.851029	-384.89254	28.633	
C	 0.0238837717	 1.5183852057	 0.0331760983	-0.385731
C	-0.146193272	 0.0268159075	-0.1947582674	-0.040899
O	 0.946408541	-0.4362095447	-0.9763635317	-0.25981
C	 0.9463621888	-1.8112084888	-1.1794281898	 0.167687
C	 0.1683776246	-2.4687004471	-2.3710499641	 0.006702
C	 1.1352067773	-1.7826095324	-3.3638719471	-0.223794
C	 1.9582303165	-2.3812817397	-2.1978316515	 0.000196
O	 1.1159824842	-3.5981568709	-2.2554477806	-0.309303
H	 0.9620910787	 1.7212489649	 0.5571464562	 0.129257
H	 0.0413722685	 2.0535422179	-0.9204603794	 0.127764
H	-0.8026883356	 1.907963747	 0.6347350355	 0.117322
H	-0.1725411385	-0.5135926699	 0.7650886211	 0.093803
H	-1.096429639	-0.1818405676	-0.71104487	 0.092819
H	 0.8750595034	-2.3852919654	-0.2469854707	 0.080612
H	-0.88846899	-2.7135283455	-2.4795922765	 0.090694
H	 1.2520599748	-2.2941505267	-4.3198602087	 0.105573
H	 1.0944068584	-0.6960340509	-3.4467565899	 0.112073
H	 3.0352180972	-2.5164138234	-2.0984079839	 0.095034
