16
gdb 128858	6.10925	0.72201	0.70233	4.8003	67.27	-0.2828	-0.0472	0.2356	1585.3322	0.123876	-467.317175	-467.30848	-467.307536	-467.352893	28.796	
C	 0.0184592123	 1.3752546011	 0.0088912424	-0.234376
O	-0.0157532507	-0.0366711531	 0.0025882734	-0.230674
C	-1.3187849293	-0.5544832801	 0.012059741	-0.05817
C	-1.1720845347	-2.0775127202	 0.0024685219	-0.173736
N	-2.4703721446	-2.7345288349	 0.0113037884	 0.162572
N	-3.1370409969	-3.0479659664	 1.1122863837	-0.117495
N	-4.2534803283	-3.5633987153	 0.6974242417	-0.081841
N	-4.2651863647	-3.5584032724	-0.6498307233	-0.081867
N	-3.1558747568	-3.0403372425	-1.0802264815	-0.117446
H	 1.069133492	 1.6718957056	 0.0006866669	 0.138359
H	-0.4802060356	 1.7955914666	-0.8772791166	 0.1156
H	-0.4639104013	 1.7872681593	 0.9078977335	 0.115606
H	-1.8758377569	-0.2388767218	 0.9092195988	 0.115498
H	-1.89254694	-0.2292794721	-0.8710486648	 0.115415
H	-0.6450758328	-2.404052284	-0.8946527633	 0.166294
H	-0.6279263316	-2.4135897998	 0.885743388	 0.166261
