17
gdb 30424	3.32117	1.17009	0.87695	3.3966	75.85	-0.1739	0.0529	0.2268	1299.2463	0.136492	-451.336435	-451.32702	-451.326075	-451.371005	34.264	
C	-0.0405763572	 1.4096577324	-0.0580901502	-0.317405
N	 0.0252185877	-0.0402378156	-0.0073916527	-0.382435
C	 0.6095834041	-0.6377077751	-0.9543764957	 0.497875
N	 0.7576306122	-2.0191264825	-1.0711486005	-0.412707
C	 1.3318992841	-2.3021156451	-2.3118486186	 0.29432
N	 1.4551707715	-3.6154852602	-2.7576977046	-0.606564
C	 1.6453071493	-1.1378701388	-2.8974343683	 0.187586
N	 2.2898845285	-0.8756808234	-4.0972689682	-0.603868
O	 1.2094891306	-0.0787014834	-2.0550118008	-0.255127
H	 0.8921848741	 1.8690492152	 0.2998382906	 0.110489
H	-0.2282091414	 1.8018208156	-1.0675660017	 0.107565
H	-0.8447675271	 1.7534105108	 0.5990445329	 0.112093
H	 0.1031273708	-2.630121847	-0.610486687	 0.2665
H	 1.9625211197	-4.2010326126	-2.1010526753	 0.249614
H	 1.9277240234	-3.6311925754	-3.654463718	 0.259784
H	 1.7044850258	-0.3816575703	-4.7650004442	 0.246494
H	 3.147170054	-0.3429714244	-3.9793183178	 0.245786
