17
gdb 29789	2.51533	1.52439	0.96003	3.2071	72.54	-0.167	0.0437	0.2106	1181.632	0.135571	-455.158712	-455.14907	-455.148126	-455.193016	35.146	
C	-0.0603271437	 1.4797655899	 0.0120409233	-0.339388
N	 0.0715252252	 0.0404011989	-0.0141686944	-0.048636
C	 0.1077466062	-0.7460971913	-1.174154676	-0.239035
C	 0.1394553555	-2.0536668733	-0.7720949207	 0.316714
O	 0.1975689883	-3.1629734344	-1.5528078914	-0.453479
C	 0.1119765954	-2.0935517457	 0.6569581935	-0.083447
N	 0.1457045679	-3.3086750667	 1.3962336129	-0.6427
C	 0.0653916542	-0.7764488124	 1.0708799784	 0.34457
O	 0.0141579844	-0.2290452055	 2.3144060109	-0.445384
H	 0.622984332	 1.9281180375	-0.7151413764	 0.134913
H	-1.0823299382	 1.7999693771	-0.2256363793	 0.13188
H	 0.1967922664	 1.8454296763	 1.0067854343	 0.153159
H	 0.1164767012	-0.2924419284	-2.149464216	 0.110721
H	 0.2060582038	-3.9065170465	-0.9325458948	 0.29048
H	-0.6774837216	-3.4747373538	 1.9642577878	 0.237146
H	 0.9722482749	-3.426264017	 1.9716382362	 0.236649
H	 0.0760138582	-0.9525261146	 2.9471215714	 0.295838
