22
gdb 104317	2.82967	1.32859	1.24376	1.937	81.08	-0.229	0.0814	0.3103	1154.7407	0.19441	-404.321644	-404.312685	-404.311741	-404.354853	34.903	
C	 0.1079281499	 1.3542760809	-0.039133868	-0.247803
O	-0.0269940235	-0.0497775715	-0.0310898168	-0.288507
C	-1.3549683396	-0.5647803954	 0.0343794392	 0.416697
C	-2.0778387132	-0.1218204906	 1.3141308231	-0.4523
C	-2.1906037841	-0.2592062376	-1.2426664524	-0.304697
C	-3.0024023047	-1.5506007009	-1.4800942644	-0.161641
N	-2.2678831009	-2.6785872954	-0.8713236918	-0.100514
C	-0.8520416013	-2.7314489994	-1.2637268734	-0.259663
C	-1.2458295698	-2.0878292265	 0.0117102851	-0.043257
H	 1.1675017804	 1.5643390899	-0.2067543878	 0.12654
H	-0.4713607301	 1.8259320479	-0.8463366753	 0.103594
H	-0.1875300663	 1.8156254881	 0.9135082984	 0.107501
H	-2.2631331816	 0.9559433778	 1.325342801	 0.114751
H	-3.046350468	-0.625318419	 1.3928410636	 0.127913
H	-1.4849169001	-0.382051082	 2.1964288778	 0.123207
H	-2.8362876598	 0.6150379817	-1.1294166028	 0.099368
H	-1.5065280003	-0.0567507096	-2.0714471906	 0.112643
H	-3.9765098885	-1.4934225675	-0.981799451	 0.107517
H	-3.1897299988	-1.7496000669	-2.540138874	 0.10629
H	-0.4196076718	-3.7273323939	-1.2495633084	 0.114518
H	-0.4983748384	-2.0979437245	-2.0724170199	 0.113831
H	-1.0651967391	-2.5896596659	 0.9583302987	 0.084013
