19
gdb 40839	3.63041	1.15905	0.99138	1.6612	71.81	-0.2367	0.0859	0.3226	1217.3882	0.160302	-460.1285	-460.120524	-460.11958	-460.161449	30.238	
C	 0.4416976198	 1.4936253975	 0.1952854538	-0.169994
O	 1.2355622568	 0.3736388521	-0.2098172527	-0.237219
C	-0.1372758028	 0.1490852912	 0.1116874247	 0.05232
C	-0.4295532473	-0.6946642226	 1.3317144173	 0.081852
C	 0.0705197588	-2.1327686693	 1.1487046353	-0.092928
O	-0.1542419921	-2.9007568892	 2.3194032002	-0.25358
C	 0.4814175554	-2.3087142629	 3.4406084197	-0.080333
C	-0.0215416665	-0.8843359885	 3.6414454969	-0.079308
O	 0.1857527469	-0.1100118242	 2.469362643	-0.265986
H	 0.6825406187	 1.8982348335	 1.1738039112	 0.134031
H	 0.224852354	 2.2192516242	-0.5873693104	 0.110896
H	-0.7632134419	-0.095406065	-0.7486425314	 0.095598
H	-1.5242404608	-0.7219337554	 1.4787484856	 0.071598
H	-0.4666235267	-2.6314163629	 0.3363354961	 0.107173
H	 1.1427176881	-2.1006908957	 0.9024671824	 0.113714
H	 0.2451811938	-2.9328631003	 4.3077411637	 0.108486
H	 1.5742816817	-2.2971148307	 3.2984636178	 0.098644
H	-1.0938089163	-0.9058686751	 3.8960668411	 0.095103
H	 0.5211340504	-0.3836266667	 4.4488669559	 0.109932
