17
gdb 22273	3.6261	0.96077	0.85235	2.7561	74.14	-0.2605	-0.0084	0.252	1357.7753	0.134146	-455.105472	-455.096274	-455.09533	-455.140846	32.861	
C	-0.3256294874	 1.4090959799	-0.0758474424	-0.493264
C	-0.0396086977	-0.0613184776	 0.0367085328	 0.348253
N	 0.0007992415	-0.7442993128	 1.1153944813	-0.159455
O	-0.2350803613	 0.0301611505	 2.252257014	-0.388719
C	 0.2535671611	-0.810478366	-1.2319892461	 0.047883
C	 0.145615471	-2.3462644376	-1.2531810566	-0.376025
C	-0.9850916446	-2.0999619785	-2.2278310028	 0.444059
N	-1.7652338433	-2.8257420411	-2.8858072108	-0.538399
O	-0.876241573	-0.719873953	-2.1774489424	-0.271133
H	 0.6111585697	 1.9777730686	-0.1251896267	 0.142141
H	-0.886522405	 1.6096774317	-0.9920603457	 0.151456
H	-0.88872433	 1.762553188	 0.7876505147	 0.157496
H	-0.2097221943	-0.6266556691	 2.9565053054	 0.310943
H	 1.1470612158	-0.4012091633	-1.7173318598	 0.103346
H	 1.0009791575	-2.8801032275	-1.6683409729	 0.135943
H	-0.1506879898	-2.7918062081	-0.3047703335	 0.157522
H	-2.4037231001	-2.266120684	-3.4536841285	 0.227954
