15
gdb 126874	3.95045	1.08291	0.97015	2.3042	75.59	-0.2434	-0.0843	0.1591	1228.4715	0.112257	-446.210836	-446.202836	-446.201892	-446.24448	28.851	
C	 0.3289876284	 1.5415364556	 0.1040664422	-0.36469
C	 0.0595508117	 0.0490691447	-0.1142927036	-0.150253
N	 0.8107809394	-0.4272300794	-1.2672937955	-0.245348
C	 1.6928761289	-1.3198756126	-1.1324413889	 0.430016
N	 2.0087962071	-2.0167960124	 0.0682132575	-0.190417
N	 3.2078296997	-2.3461091696	 0.2291721398	-0.029103
N	 4.062358067	-2.0270987781	-0.8003236566	-0.17482
N	 3.595429319	-2.1013760637	-2.1068553053	-0.026774
N	 2.4043592281	-1.7709205298	-2.2824349856	-0.162569
H	 1.3739448924	 1.712366028	 0.3805506788	 0.120626
H	 0.1209508053	 2.1079617899	-0.8074717562	 0.134316
H	-0.3048091336	 1.9241346292	 0.9093674702	 0.119004
H	 0.2670660269	-0.5169995946	 0.8007144611	 0.124214
H	-1.0003761186	-0.0875203432	-0.3621737359	 0.121993
H	 4.9585957482	-2.4882368341	-0.699695492	 0.293804
