13
gdb 27612	3.62528	1.2798	0.94588	2.6036	77.03	-0.2555	-0.0649	0.1906	1138.1526	0.090693	-415.641266	-415.634131	-415.633187	-415.672948	27.183	
O	 0.1068082822	 1.2988112406	 0.0874247387	-0.390764
C	 0.0700929925	-0.0390616508	 0.054181807	 0.448237
N	 0.0748117628	-0.6087243781	-1.1513278647	-0.402206
C	 0.0375244073	-1.9506905292	-1.1702562849	 0.174176
C	-0.0036792141	-2.6954645418	 0.0122545382	-0.19372
C	-0.0038094518	-1.9715154072	 1.1983138752	 0.016952
N	 0.0327144226	-0.6409656897	 1.2433449442	-0.283246
C	 0.0412654421	-2.5985218416	-2.443742123	 0.223713
C	 0.0433526705	-3.1727180604	-3.5007080839	-0.351623
H	 0.1308269222	 1.592222898	-0.8338903211	 0.30778
H	-0.0336884261	-3.7761334897	-0.0035079384	 0.118194
H	-0.0346290584	-2.4820661652	 2.1581463292	 0.12704
H	 0.0456333182	-3.6685334449	-4.4403202264	 0.205466
