15
gdb 43077	4.01481	1.63338	1.5367	3.0775	68.8	-0.2268	-0.0228	0.204	865.5829	0.114624	-420.60643	-420.600406	-420.599461	-420.636631	25.114	
O	-0.0162409315	-0.001284028	-0.0582053676	-0.322234
C	-0.0307677105	 1.1879507704	 0.0444806302	 0.463703
C	-1.0767709268	 2.3135275697	 0.0437746327	-0.059585
O	-0.8317400407	 2.905150245	 1.3072854083	-0.278112
C	 0.6178278323	 3.2349336955	 1.1879552994	 0.046089
C	 0.6070216793	 4.6297628716	 0.6105681734	-0.084362
C	 0.1679504182	 4.5157306556	-0.6497890194	-0.074486
C	-0.0182846713	 3.0654361079	-0.9499924984	-0.108137
C	 0.9996210929	 2.3197363295	-0.0050761512	-0.207559
H	-2.1382811399	 2.2132675572	-0.163260078	 0.105353
H	 1.0968301561	 3.0614168002	 2.1489919155	 0.095004
H	 0.7409720305	 5.5351360901	 1.1870000683	 0.112729
H	-0.1191123646	 5.3161322951	-1.3196295836	 0.113783
H	-0.0784079388	 2.7310813336	-1.9833875628	 0.096324
H	 2.0506079847	 2.1984104166	-0.2531090967	 0.10149
