19
gdb 115857	2.7497	1.43794	1.23122	3.0277	70.82	-0.2236	0.0668	0.2904	1090.2308	0.159343	-460.123187	-460.114733	-460.113789	-460.156203	32.012	
C	-0.3316509503	 1.1676541218	 0.0566570112	-0.244054
O	 0.0739260004	-0.1843013956	-0.0129079193	-0.25172
C	 0.8018857398	-0.6304878662	 1.1310119919	 0.070866
C	-0.1017789199	-0.8437114483	 2.3835444875	-0.089148
O	 0.1966899428	-2.1233683276	 2.9292352301	-0.253798
C	 0.9322383715	-2.8723049132	 2.0035717719	 0.067969
C	 0.3577191124	-3.0971795949	 0.6278976585	 0.075523
O	-0.9762575424	-2.7900970828	 0.3686868987	-0.427372
C	 1.3851042235	-1.9996215765	 0.8561850136	-0.190534
H	 0.5324859971	 1.8338828982	 0.1991509097	 0.112476
H	-0.8133538124	 1.4102635242	-0.8931654472	 0.13431
H	-1.0477362412	 1.3478861226	 0.871223605	 0.116663
H	 1.6012975141	 0.0948167278	 1.3398500583	 0.079656
H	 0.0723490317	-0.0980914629	 3.1668645257	 0.102302
H	-1.1512934137	-0.7985938567	 2.0714919789	 0.113033
H	 1.5553175707	-3.62072795	 2.4799156341	 0.10404
H	 0.7292946619	-3.973778987	 0.0968554284	 0.091403
H	-0.9829167674	-1.9793184547	-0.1574560818	 0.294533
H	 2.3637645816	-2.0647200483	 0.3970833148	 0.093852
