27
gdb 118089	2.67109	0.83078	0.78211	0.099	96.2	-0.261	0.0835	0.3446	1708.8941	0.250363	-353.560529	-353.549197	-353.548253	-353.597092	42.439	
C	 0.072505428	 1.5116905056	-0.3348764559	-0.379526
C	 0.046744235	 0.0081711873	-0.0440293202	-0.173665
C	-1.3767904063	-0.56024732	 0.0198137787	-0.169408
C	-1.4554006029	-2.0855643191	 0.2314263972	-0.039363
C	-0.9374897557	-2.5137901589	 1.6142164146	-0.404716
C	-2.8647453987	-2.6248940169	-0.0372519556	 0.404006
C	-3.9794528624	-2.1167950171	 0.8613745562	-0.472696
C	-3.2231876052	-2.9152636681	-1.4757374925	-0.312903
C	-2.9662144286	-4.054275111	-0.515424661	-0.315901
H	 1.097365543	 1.8936770276	-0.3796244081	 0.109124
H	-0.4100965383	 1.7382327329	-1.2922377986	 0.112473
H	-0.4581613248	 2.0740973747	 0.4416563902	 0.11257
H	 0.6134342738	-0.5240618705	-0.8200952042	 0.091422
H	 0.5707842017	-0.1839820035	 0.8998069257	 0.097486
H	-1.9285172259	-0.0489554639	 0.8206330931	 0.090654
H	-1.8968796977	-0.3111440283	-0.9148563437	 0.091404
H	-0.8005215031	-2.5497105093	-0.5208252502	 0.061057
H	-1.485504184	-2.0142131581	 2.4207715412	 0.112606
H	-1.0480824233	-3.5938900466	 1.7538177202	 0.112982
H	 0.1213315495	-2.2698241796	 1.7393136038	 0.112387
H	-4.1039053403	-1.0316018749	 0.7797291445	 0.116371
H	-4.9344572338	-2.5764991323	 0.5881208114	 0.109905
H	-3.7927291131	-2.3532495031	 1.9146182642	 0.115263
H	-4.2441038485	-2.7390040565	-1.7986921717	 0.104465
H	-2.4792569948	-2.7202370357	-2.2417634233	 0.104682
H	-2.0483626737	-4.6211243765	-0.6354953808	 0.104936
H	-3.8125204101	-4.649881418	-0.1888168251	 0.104385
