21
gdb 40969	3.32812	1.21907	1.1027	0.6917	77.49	-0.247	0.0692	0.3162	1172.8773	0.184768	-424.212202	-424.204196	-424.203252	-424.245233	31.096	
C	 0.0365412926	 1.5519478706	-0.0638479076	-0.137043
O	 1.3905425263	 1.5997387298	 0.4283594229	-0.271737
C	 1.4750837522	 0.1634022207	 0.4819528387	-0.115612
C	 0.021003048	 0.0060699831	-0.0449796318	 0.30479
C	-0.9640846553	-0.6376898303	 0.9363039345	-0.27909
C	-0.8063633361	-2.160908983	 0.937551113	-0.079935
O	-0.9649042688	-2.7047546493	-0.3609700693	-0.241921
C	-0.0032201032	-2.1958816974	-1.2683141882	-0.079936
C	-0.1092930647	-0.6749108105	-1.4113747619	-0.279087
H	-0.668144631	 2.039526019	 0.6230642696	 0.095256
H	-0.0567121511	 2.0128770309	-1.0563254997	 0.095257
H	 2.2651650343	-0.2258692213	-0.173995161	 0.095296
H	 1.6546110265	-0.1992364096	 1.5028801569	 0.095295
H	-0.8147122412	-0.2450354535	 1.9492242249	 0.099089
H	-1.9902140766	-0.3889145009	 0.6367699052	 0.104314
H	 0.1840909149	-2.4355830933	 1.3424311843	 0.086564
H	-1.5650952372	-2.6355049189	 1.5660157091	 0.109265
H	 1.0128850862	-2.4716805544	-0.9338940228	 0.086564
H	-0.1852335202	-2.6955823649	-2.2238525905	 0.109266
H	-1.0852590042	-0.4283024701	-1.848667512	 0.104314
H	 0.6602573286	-0.3092666666	-2.1017337443	 0.09909
