22
gdb 118298	4.66552	0.60582	0.59206	3.3937	81.33	-0.251	0.0322	0.2832	1936.3705	0.192129	-441.503648	-441.492519	-441.491574	-441.541468	38.202	
C	 0.065452887	 1.3381054131	 0.2446729043	-0.229259
O	 0.0280329346	-0.067358385	 0.1892746612	-0.234268
C	-1.2541368067	-0.5731499206	-0.1096976794	-0.05069
C	-1.1989623622	-2.1012328459	-0.0927848656	-0.007951
C	-0.8250606195	-2.633020327	 1.294621371	-0.383871
C	-2.5398081923	-2.6638272796	-0.5960932683	-0.166936
N	-2.5384878462	-4.1101193266	-0.7426168076	-0.275465
C	-3.3457264825	-4.937213175	-0.0248780331	 0.154305
O	-4.1564356952	-4.5839849295	 0.804885461	-0.322829
H	 1.092542337	 1.6297254323	 0.4771823191	 0.127707
H	-0.2242938422	 1.7934445543	-0.7159278675	 0.103007
H	-0.6025930015	 1.7347557913	 1.0255682533	 0.106023
H	-1.9925306453	-0.2122753432	 0.6288724225	 0.088296
H	-1.5845261411	-0.2101307716	-1.0991447594	 0.080039
H	-0.4137340058	-2.3930702926	-0.8056222288	 0.075384
H	 0.1174174079	-2.1924315704	 1.6261795517	 0.131563
H	-1.5993587058	-2.3816488017	 2.0285914678	 0.121797
H	-0.7180199025	-3.7209525505	 1.2860918078	 0.112216
H	-3.3432337265	-2.435982214	 0.1098345004	 0.149109
H	-2.7994036161	-2.2017922199	-1.5578679756	 0.103695
H	-1.9019420721	-4.5290431187	-1.4023266727	 0.245701
H	-3.1784311528	-6.0002530694	-0.2910000523	 0.072427
