17
gdb 39148	3.05567	2.00604	1.40521	0.2381	73.42	-0.2286	-0.0321	0.1965	904.8127	0.138271	-421.766486	-421.759962	-421.759018	-421.797289	26.327	
C	-0.0793207581	 1.5755021715	 0.0643953786	-0.28115
C	 1.5098655419	 1.7016578357	 0.0276486576	 0.081243
O	 2.2166469836	 2.2243426895	 1.1448916667	-0.279407
C	 2.4141813632	 1.1642537603	 2.1134874633	-0.14098
C	 1.7403707692	-0.0439981995	 1.5014056155	 0.075409
C	 1.4701484406	 0.2197832744	 0.2179514458	 0.012305
C	 0.0117596912	-0.014777857	-0.00970578	 0.081243
O	-0.4343376329	-0.8129918579	 1.0787902383	-0.279407
C	 0.6216065822	-0.8895609232	 2.068792367	-0.14098
H	-0.4844583628	 1.9082794702	 1.0214380033	 0.124181
H	-0.6041678635	 2.0517018474	-0.7679166216	 0.108038
H	 1.8957617489	 2.1731768608	-0.8779040858	 0.093611
H	 3.4910093781	 1.0582555523	 2.2977774441	 0.117565
H	 1.9386131438	 1.4340105778	 3.0678045429	 0.108577
H	-0.383514007	-0.4382739739	-0.9347363571	 0.093611
H	 0.868482093	-1.9464636803	 2.2323954995	 0.117565
H	 0.2694115187	-0.4784436581	 3.0261829118	 0.108576
