21
gdb 118276	2.76504	0.75059	0.6374	4.8348	81.23	-0.2395	0.0281	0.2676	1782.3419	0.180943	-420.397599	-420.386812	-420.385868	-420.43449	37.413	
C	-0.2315516678	 1.3095802543	 0.0200068418	-0.226612
O	-0.080568985	-0.0905039257	-0.0110728643	-0.242753
C	 0.6573429351	-0.5480890736	-1.1268651648	-0.067087
C	 0.6732934251	-2.0757468803	-1.0869792495	 0.037464
C	 1.402414857	-2.5949338124	 0.1650887384	-0.398729
N	-0.7146584832	-2.5231327746	-1.2382498386	-0.295616
C	-0.9050504126	-3.9630386829	-1.2923765888	-0.276025
C	-2.3017321049	-4.2914374277	-1.6011252301	 0.266042
N	-3.4036483634	-4.5585378926	-1.8211148065	-0.301375
H	 0.7415807616	 1.8210915955	 0.0820416294	 0.107054
H	-0.75995646	 1.6814240928	-0.8712272225	 0.11172
H	-0.817693108	 1.5561643414	 0.9084008291	 0.130515
H	 0.1856016218	-0.2100210951	-2.0620758177	 0.100172
H	 1.6870518554	-0.1552835046	-1.0969511143	 0.086314
H	 1.2194402423	-2.412752232	-1.9793975569	 0.081883
H	 0.9055333838	-2.23990443	 1.0719423951	 0.134486
H	 1.437017827	-3.6879346854	 0.1891472564	 0.113394
H	 2.4368749519	-2.2360243691	 0.1822136898	 0.116181
H	-1.2789860768	-2.1102616763	-0.5028672255	 0.238025
H	-0.2752932321	-4.3716529873	-2.0934331526	 0.150758
H	-0.632918017	-4.5126308444	-0.3743079579	 0.13419
