18
gdb 30938	2.26355	1.39862	0.916	5.0598	76.1	-0.2048	0.0316	0.2365	1286.3309	0.14711	-439.161689	-439.152444	-439.1515	-439.19599	33.397	
C	-0.0016392264	 1.6418690076	 0.336920933	-0.372536
C	-0.0115403887	 0.1536516837	-0.054688471	-0.29483
C	-1.3798367752	-0.4119516455	-0.1842941598	 0.282765
C	-2.0816350131	-0.9398801245	-1.20177731	 0.189804
C	-1.7432208506	-1.1760404045	-2.6312007396	-0.503701
N	-3.3327305559	-1.2817518282	-0.6664630185	-0.41654
C	-3.3940802544	-0.9648373719	 0.6700055203	 0.469794
O	-4.2885068048	-1.1071790932	 1.4590508647	-0.405522
O	-2.1620720428	-0.4170146381	 0.9653969341	-0.251512
H	 1.0244209923	 2.0014004529	 0.4573718708	 0.115378
H	-0.4920144755	 2.2511096478	-0.4283666391	 0.119341
H	-0.531384931	 1.7950566582	 1.2806566356	 0.142463
H	 0.5132350255	 0.0090318525	-1.0045474487	 0.110453
H	 0.543802598	-0.4203314101	 0.6989123851	 0.123209
H	-1.8108232248	-2.239646504	-2.8906260443	 0.138205
H	-2.4203727241	-0.6315032502	-3.3005006114	 0.138321
H	-0.7251198057	-0.8442704777	-2.8431607478	 0.144288
H	-4.1021578128	-1.7086481447	-1.1510825933	 0.270621
