18
gdb 81303	2.63505	1.57914	1.23567	3.4544	71.07	-0.2183	-0.0138	0.2045	1038.5535	0.149326	-439.076334	-439.068539	-439.067594	-439.108574	30.538	
O	-0.0304651199	 1.3541255441	-0.1062418428	-0.437968
C	 0.0566782869	-0.0508792115	-0.0014008385	 0.12319
C	 0.1653615612	-0.5976545268	 1.4597940264	-0.045603
C	-1.3716011836	-0.4324264264	 1.553165749	-0.242308
C	-1.388780958	-0.634883493	 0.0026857166	-0.13268
C	-1.3025206228	-2.1196331711	-0.2810803454	 0.398878
O	-1.9112552706	-2.6850856994	-1.1555689289	-0.324706
C	-0.3831083559	-2.8737312068	 0.6970266288	-0.28072
N	 0.5204752433	-2.0158278706	 1.4868717375	-0.295978
H	 0.8336541361	 1.723270074	 0.1053106683	 0.28538
H	 0.768182564	-0.4661925039	-0.7312825486	 0.063133
H	 0.7996728461	-0.0455190594	 2.1601388762	 0.067997
H	-1.9227109957	-1.1365397129	 2.1799901847	 0.109122
H	-1.6451708831	 0.5902824036	 1.8074244829	 0.128345
H	-2.1373462202	-0.144701475	-0.6189787307	 0.092954
H	-1.0478137029	-3.4417453406	 1.3642879054	 0.138594
H	 0.1824988195	-3.6198958069	 0.1332643042	 0.132079
H	 1.4692648955	-2.1234138774	 1.1457675348	 0.220292
