19
gdb 93265	2.21083	1.65518	1.2119	1.3085	70.62	-0.2493	-0.0308	0.2185	1081.3339	0.157623	-460.196573	-460.187318	-460.186374	-460.230213	35.208	
C	 0.24984875	 1.5853683741	 0.0719559012	-0.415582
C	-0.0352431026	 0.0777775646	-0.0529242363	 0.241975
O	-1.4261334142	-0.1590397999	-0.0905609824	-0.4947
C	 0.6875945892	-0.5644140057	-1.256499055	 0.101316
O	 0.6746119111	 0.1919458142	-2.4474009334	-0.435401
C	 2.1371277826	-0.7566068423	-0.7732076749	-0.242102
C	 2.0170544928	-1.1089241351	 0.7260916535	-0.335613
C	 0.6106076434	-0.6666626001	 1.1201338583	 0.364624
O	 0.0211457185	-0.9136904706	 2.1435959981	-0.338206
H	 1.3192209301	 1.8080450212	 0.1346889924	 0.117354
H	-0.1503108545	 2.0984673816	-0.8049320163	 0.131819
H	-0.2398573474	 1.9731811683	 0.9692303342	 0.124472
H	-1.6852046338	-0.3618846055	 0.8207502208	 0.287959
H	 0.2157295388	-1.5473124019	-1.4152059391	 0.079055
H	-0.2357023559	 0.2290876554	-2.7605071491	 0.293417
H	 2.6578923199	-1.5221100604	-1.3513213907	 0.114799
H	 2.676915747	 0.1834429462	-0.9195879548	 0.12271
H	 2.0974226277	-2.1833139731	 0.9225819733	 0.142195
H	 2.7690093974	-0.6226975611	 1.3549357501	 0.139907
