17
gdb 127111	4.0531	1.12572	0.89243	2.8019	73.56	-0.2082	0.0308	0.239	1281.0297	0.136559	-451.333909	-451.324704	-451.32376	-451.368188	32.576	
C	-0.1157426845	 1.4241179287	 0.0043200166	-0.343018
N	 0.0917330436	-0.0127297719	-0.0460134456	-0.18501
C	 0.0222805249	-0.7494362866	 1.2036135397	-0.347839
C	 0.0132318593	-0.6494846125	-1.2331913309	 0.589449
N	-0.0661509188	-0.1027511689	-2.4236986756	-0.438381
C	-0.073829909	-1.2125395187	-3.2291048399	 0.417621
N	-0.2047791564	-1.0931084087	-4.5914872469	-0.587561
N	-0.0021652539	-2.3762076142	-2.6235480525	-0.239305
O	 0.0411600549	-1.9863969851	-1.2417163013	-0.244183
H	 0.5921411572	 1.8717664238	 0.7099536449	 0.127043
H	 0.0472405059	 1.8422472271	-0.9878285555	 0.173835
H	-1.1350325774	 1.6728081588	 0.3314760753	 0.125605
H	-0.9994064389	-0.7708467687	 1.6086453423	 0.128694
H	 0.3591018787	-1.7737405196	 1.0506572043	 0.168864
H	 0.6735270464	-0.2688992172	 1.9407261659	 0.130386
H	 0.1638284063	-0.2283445704	-4.957309958	 0.261486
H	 0.0828764317	-1.9094339458	-5.1105599529	 0.262312
