18
gdb 75401	2.52294	1.61327	1.07824	3.0491	81.45	-0.2209	-0.0259	0.1951	1129.2536	0.149147	-401.99875	-401.990418	-401.989474	-402.031633	31.685	
C	 0.0107711022	 1.5241003423	-0.095518363	-0.461345
C	-0.004513398	 0.0206932185	 0.02550015	 0.210363
C	-1.1443465651	-0.6818689347	-0.0128614704	-0.145326
C	-1.2618249265	-2.1866243086	 0.0196928501	-0.331446
C	-0.5972700799	-2.7760619397	 1.2401400649	-0.0973
C	 0.6939391331	-2.5831658892	 1.5062917671	 0.021962
N	 1.5612829018	-1.7834055469	 0.7569244029	-0.335208
C	 1.3624858475	-0.57666702	 0.0992504501	 0.319966
O	 2.3333727567	 0.0083255059	-0.3554404439	-0.368375
H	 0.5866354713	 1.8281924075	-0.9739158203	 0.150142
H	-1.0044655031	 1.9198360025	-0.1754616496	 0.11089
H	 0.4999981613	 1.9864191027	 0.7690267152	 0.130147
H	-2.0752200533	-0.1234159288	-0.0908601728	 0.095104
H	-2.3152254861	-2.4736671864	-0.0105378373	 0.110224
H	-0.7998250255	-2.6110256568	-0.8845414567	 0.128908
H	-1.1839543269	-3.3772058637	 1.924740841	 0.099695
H	 1.1722292694	-3.0665549165	 2.3527237572	 0.110181
H	 2.5497387309	-1.9825295581	 0.8333157255	 0.251419
