19
gdb 61650	3.58489	0.81304	0.7625	3.3142	73.34	-0.257	-0.0321	0.2249	1520.274	0.156789	-460.14856	-460.138875	-460.137931	-460.183984	35.137	
O	-0.8045310837	 0.8286818461	 0.0771182663	-0.440169
C	 0.190029428	-0.1265607782	-0.1851493846	 0.05399
C	 1.1543311682	 0.347717365	-1.2926592008	-0.235798
C	 0.4162322343	 0.6051970639	-2.587815287	-0.008253
C	 1.1554892079	 0.5675251234	-3.9107976747	-0.349818
C	 0.1749392281	-0.5220995056	-3.5501372698	 0.105081
O	 0.6559368048	-1.7817865227	-3.1689134913	-0.4228
C	 0.9567654281	-0.4458425455	 1.0783400331	 0.132258
O	 0.7151365732	 0.1004836824	 2.1287104309	-0.264205
H	-0.7170427411	 1.0420749275	 1.0195058743	 0.292795
H	-0.2657483693	-1.0721995844	-0.5284504691	 0.11068
H	 1.6520728925	 1.2651770188	-0.9559663521	 0.105492
H	 1.9210308633	-0.4175986158	-1.4492971209	 0.107213
H	-0.3860985415	 1.329886693	-2.4975280861	 0.111045
H	 0.891975324	 1.2803851029	-4.6847108032	 0.113421
H	 2.2073976601	 0.300698816	-3.8777933462	 0.111891
H	-0.7794695844	-0.5425783368	-4.0751836357	 0.088982
H	 0.9848677903	-2.2269422669	-3.9564639639	 0.289932
H	 1.759577907	-1.2060403932	 0.9879484909	 0.098263
