18
gdb 46561	3.14767	1.69922	1.35999	3.1713	77.61	-0.2573	0.0238	0.2811	970.4529	0.150605	-401.890174	-401.883517	-401.882572	-401.92103	27.626	
N	 0.0820791514	 1.3484287184	-0.1769330387	-0.547841
C	-0.0055608049	 0.0997516302	-0.022575113	 0.374647
O	 1.0993327345	-0.7442356457	 0.0390542324	-0.265119
C	 0.7426365632	-2.1306708876	 0.3191341907	-0.20724
C	-0.6684611732	-1.9777712296	 0.8234540746	 0.294173
C	-2.1119548197	-2.5580457543	 0.8509013257	-0.310808
C	-2.2368518362	-1.0277375732	 1.2180723589	-0.071699
C	-1.0182763172	-1.2264247956	 2.1506478358	-0.255696
C	-1.2295530911	-0.7713301867	 0.0489832689	-0.067222
H	 1.0623714653	 1.6329188907	-0.2381772156	 0.221071
H	 0.8125902083	-2.7141923198	-0.6065628949	 0.116289
H	 1.4670973201	-2.5102686664	 1.0441403525	 0.120792
H	-2.5342177398	-2.8690010776	-0.1081114866	 0.10221
H	-2.3500625657	-3.2660911692	 1.6482005843	 0.10107
H	-3.1571568113	-0.4850048165	 1.4316288365	 0.087602
H	-1.1704545044	-1.8543753151	 3.0318476609	 0.092387
H	-0.4346718026	-0.3354562863	 2.3885691128	 0.121767
H	-1.6172765266	-0.9816266156	-0.9536088851	 0.093616
