19
gdb 23383	3.72439	1.10273	0.98103	1.1708	79.58	-0.2306	0.0042	0.2347	1249.3346	0.158905	-419.083368	-419.074737	-419.073793	-419.117319	32.327	
C	-0.1663272964	 1.4817617824	-0.0068996614	-0.484827
C	-0.0236468609	-0.0103483201	 0.1236504064	 0.309197
N	 0.1417115814	-0.6429589159	 1.2222916786	-0.165071
O	 0.1934859522	 0.2257474662	 2.3227357832	-0.394846
C	-0.0199152525	-0.8277219883	-1.1319060293	-0.00256
C	-0.3824850763	-2.3274740898	-1.1794855463	-0.069157
C	-1.8374269276	-1.8579478538	-0.9566194329	-0.167832
N	-1.3250748514	-0.8237806549	-1.9817333438	-0.16506
C	-0.6875389647	-2.0478063982	-2.6673288776	-0.172107
H	 0.8089049433	 1.9730930487	 0.0913199246	 0.141416
H	-0.5928594923	 1.7384899475	-0.9784574634	 0.145061
H	-0.8023252493	 1.8744854683	 0.7897348889	 0.149993
H	 0.2945371561	-0.3867713228	 3.0589430318	 0.306221
H	 0.8320107012	-0.520462347	-1.7533227627	 0.082782
H	 0.1500458891	-3.168712976	-0.7270190547	 0.072492
H	-2.640574418	-2.4843617301	-1.3534280252	 0.097446
H	-2.1027852663	-1.4344457649	 0.0113430078	 0.11612
H	 0.1440119344	-1.7940385754	-3.3312313305	 0.098851
H	-1.419348432	-2.6854442058	-3.1694034834	 0.101883
