18
gdb 58398	1.94785	1.33611	0.8858	4.1	75.97	-0.2562	0.0126	0.2688	1315.1601	0.144512	-439.073334	-439.063038	-439.062094	-439.109305	36.731	
C	 0.3620279422	 1.4980200345	 0.0988737658	-0.38929
C	 0.1690913407	-0.0077489949	 0.0029485898	 0.133631
O	 0.7906385841	-0.5848860269	 1.1337345411	-0.42868
C	-1.3388186789	-0.4065426488	-0.0368704699	-0.170685
N	-2.0173313884	 0.1040751055	-1.2227872102	-0.280321
C	-2.9622416266	 1.0848640135	-1.1605069854	 0.159842
O	-3.2773597767	 1.6854956985	-0.1569364781	-0.316743
C	-1.4723378375	-1.8624719413	 0.0455222929	 0.266966
C	-1.5141842289	-3.0640602073	 0.085990435	-0.41241
H	 1.4302880079	 1.725763328	 0.1350454633	 0.12525
H	-0.0756275041	 2.006660908	-0.7626918279	 0.122565
H	-0.1054757018	 1.8845162243	 1.0088454497	 0.138362
H	 0.6295959039	-0.3806167981	-0.9283392239	 0.062911
H	 0.6342020722	-1.536594418	 1.1033063581	 0.285658
H	-1.8334407427	 0.0637433368	 0.8196011179	 0.156844
H	-1.8826988783	-0.3831294555	-2.0949863192	 0.254921
H	-3.4109261819	 1.282874892	-2.1533849799	 0.083708
H	-1.5882387753	-4.1227935606	 0.1376673211	 0.207471
