20
gdb 82229	2.38046	2.05587	1.49465	2.0161	77.53	-0.2224	0.0679	0.2903	954.2325	0.173999	-403.104796	-403.097646	-403.096702	-403.135852	30.175	
O	-0.1065169518	 1.4683081058	-0.08139149	-0.437557
C	 0.0049161414	 0.0482165643	-0.0363911581	 0.109711
C	-1.3988445469	-0.5524572277	 0.0479486733	-0.022265
C	-2.487964498	-0.1466846512	-0.8836731013	-0.249616
N	-1.8385303422	-1.4461781467	-1.040326401	-0.096964
C	-0.8273109152	-1.6203936354	-2.0930754516	 0.026766
C	-0.073991602	-0.3263054307	-2.5320619062	-0.242958
C	 0.7686152355	-0.5135816337	-1.2481656201	-0.046973
C	 0.4894048528	-2.039727962	-1.3811842513	-0.231305
H	 0.7856773681	 1.8318144967	-0.1018497106	 0.278201
H	 0.5446332139	-0.2537041773	 0.8754211077	 0.064799
H	-1.6881472567	-0.8924569062	 1.0390750368	 0.088438
H	-3.5185731385	-0.1914784545	-0.5418879159	 0.111293
H	-2.2858073981	 0.6494694296	-1.5914361632	 0.126682
H	-1.2433077923	-2.2622261975	-2.8723191823	 0.071279
H	 0.5142991761	-0.5241068103	-3.4320432716	 0.095353
H	-0.6143067932	 0.6121487515	-2.6632903478	 0.106746
H	 1.8076312416	-0.168203454	-1.2435472771	 0.048463
H	 0.3858334435	-2.636540955	-0.4707577472	 0.100736
H	 1.1940433623	-2.5210521358	-2.0629751024	 0.09917
