20
gdb 65318	3.47595	0.97752	0.95315	4.4028	84.76	-0.2656	0.0322	0.2979	1332.1601	0.170612	-366.00733	-365.998201	-365.997257	-366.041389	34.527	
C	 0.0707475524	 1.5766059921	-0.1188315452	-0.488145
C	 0.0245330552	 0.0618525291	-0.0753488062	 0.333967
C	 1.1087916172	-0.685160252	-0.8005877582	-0.32421
C	 1.1151808733	-0.6708587077	 0.7226420449	-0.21081
C	 2.1298397225	 0.0552956176	 1.4293097338	 0.285383
N	 2.9429646587	 0.6481558276	 2.001691808	-0.34836
C	-1.3281137729	-0.5996806601	-0.0179900869	-0.035323
C	-2.4503033217	-0.0936990012	 0.8558673889	-0.276706
C	-2.5618432633	 0.0038219429	-0.6452694123	-0.280799
H	 1.0997992333	 1.939334869	-0.0662715733	 0.143354
H	-0.36829595	 1.9495475045	-1.0491658942	 0.126703
H	-0.4728522612	 2.0227494896	 0.7196517331	 0.132065
H	 0.8691507805	-1.630112974	-1.2758449632	 0.125022
H	 1.8810991792	-0.1109202562	-1.2995676916	 0.134707
H	 0.8073537872	-1.584680947	 1.2201127571	 0.129015
H	-1.2644572023	-1.682852483	-0.0921176529	 0.081563
H	-3.0568252138	-0.8267041243	 1.3758441393	 0.116762
H	-2.2989531249	 0.8255434489	 1.4103069312	 0.121095
H	-2.4857791133	 0.989169045	-1.0902461014	 0.118307
H	-3.2456196264	-0.6609098508	-1.1612226608	 0.116409
