16
gdb 53430	2.83797	1.0697	0.89933	2.2858	74.48	-0.2571	0.0118	0.269	1335.6536	0.123735	-437.866712	-437.857762	-437.856818	-437.902808	30.715	
C	 0.0098928866	 1.4668156137	 0.0830490266	-0.49823
C	-0.0115524759	 0.0141949013	 0.0097822868	 0.017811
C	-0.030820173	-1.1872179495	-0.0607837991	 0.15839
C	-0.046581131	-2.6467360138	-0.1304188588	-0.192237
O	 0.6359667464	-3.2653336969	 0.9679331131	-0.229969
C	-0.3376591054	-3.4439520295	 1.9582355315	 0.016548
O	-1.5697805061	-3.7022227493	 1.2779921029	-0.234891
C	-1.4601463005	-3.2168564383	 0.0090376452	 0.406767
N	-2.3384218656	-3.2416593929	-0.8898283366	-0.531469
H	 0.6907769907	 1.81071742	 0.8691234588	 0.15449
H	 0.3464316093	 1.9035532996	-0.8632473451	 0.156648
H	-0.9852382749	 1.8681510088	 0.3023880026	 0.155432
H	 0.4206622491	-3.0017552665	-1.0518068349	 0.143404
H	-0.0757784978	-4.3108468104	 2.5690930137	 0.133602
H	-0.4631486802	-2.5458127563	 2.58108538	 0.113716
H	-3.2012276717	-3.66826841	-0.5493555568	 0.22999
