14
gdb 43237	4.32044	1.71992	1.54556	3.737	72.8	-0.2241	-0.0813	0.1428	830.1505	0.101737	-399.423194	-399.417402	-399.416458	-399.453128	24.268	
O	-0.0294223696	-0.070611214	 0.000568673	-0.323389
C	-0.0616160571	 1.1303443738	-0.0679760387	 0.382416
C	-1.2318473306	 2.0651848499	 0.1363638349	-0.308698
C	-0.6180673575	 3.2740974669	 0.0801796888	 0.213848
C	 0.6029449997	 3.3673889628	-0.8008574129	-0.138593
C	 1.1853710425	 4.3123942138	 0.2833187945	-0.044896
C	 1.2960035104	 3.1162366328	 1.1528461296	-0.040743
C	 1.162870131	 2.0970792036	-0.0473046616	-0.151571
N	 0.0177358397	 4.0291725637	 1.1504621877	-0.171577
H	-2.0035081062	 1.7720989493	 0.83755884	 0.12952
H	 0.599324148	 3.4492722256	-1.8825498546	 0.109668
H	 1.7213477863	 5.2507399348	 0.2578381685	 0.11769
H	 1.7788540027	 2.9768824615	 2.1110528234	 0.127019
H	 2.1267416207	 1.6722390255	-0.3359583925	 0.099306
