20
gdb 14728	7.15137	0.54834	0.53206	1.2291	81.85	-0.2402	0.0381	0.2782	2114.5684	0.174667	-348.976625	-348.966159	-348.965214	-349.014362	35.315	
C	-0.031646341	 1.5601222164	 0.2758840604	-0.385439
C	-0.0280273479	 0.0543089657	-0.0003045797	-0.161104
C	-1.4309151823	-0.5595849826	 0.0158592461	-0.150681
C	-1.419568314	-2.0759318644	-0.2630987484	-0.357927
C	-2.7467643218	-2.6796556881	-0.2472161895	 0.019894
C	-3.8532466086	-3.1534858553	-0.2209847103	 0.147548
C	-5.1896285069	-3.7330814655	-0.2166182645	-0.216192
O	-5.5201152038	-4.1732188443	 1.0968255704	-0.410062
H	 0.9822862945	 1.9717068858	 0.2586298931	 0.112207
H	-0.6226954886	 2.098373753	-0.4733545072	 0.115068
H	-0.4644894159	 1.781016193	 1.257791811	 0.116289
H	 0.441883071	-0.1393345972	-0.9739762817	 0.09477
H	 0.5988185626	-0.4540598733	 0.7445405804	 0.096167
H	-1.906131016	-0.3808629314	 0.9878098935	 0.108503
H	-2.0636468786	-0.0646426902	-0.730888214	 0.103789
H	-0.9448414057	-2.2638952112	-1.2358617092	 0.124918
H	-0.785096046	-2.5778637479	 0.4799562769	 0.129136
H	-5.9113113213	-2.9803023099	-0.5747770357	 0.112508
H	-5.2230418175	-4.5694255601	-0.9343796051	 0.11305
H	-6.4055963823	-4.5488731924	 1.0570634235	 0.287559
