19
gdb 41096	2.98726	1.86664	1.75807	1.9222	78.04	-0.2178	0.0689	0.2867	888.8978	0.160943	-385.79678	-385.790176	-385.789232	-385.827259	28.186	
C	-0.0199758581	 1.5643678411	 0.1328204098	-0.306302
C	 1.5306927706	 1.6088983436	-0.1487688943	-0.34882
C	 1.5474024944	 0.0722338077	-0.2898045675	 0.249669
C	 1.7100576229	-1.1529266178	 0.6523507219	 0.039193
C	 0.2734985529	-0.9173913239	 1.2053251614	-0.311805
C	 0.0211363529	 0.0168458305	-0.0136959885	 0.273085
C	-0.2034877688	-0.6848483225	-1.3847055405	-0.311806
C	 1.3275465085	-0.9664443009	-1.4246794388	 0.039194
O	 1.6657754812	-2.0290532724	-0.5002641231	-0.302027
H	-0.3145716779	 1.9238604187	 1.1228080112	 0.103241
H	-0.6339466738	 2.0795654567	-0.611295271	 0.103241
H	 1.8222040347	 2.1474185949	-1.0544692699	 0.113213
H	 2.1404879683	 1.9922802322	 0.6736930592	 0.113213
H	 2.5367363682	-1.4133302517	 1.3195756483	 0.071258
H	-0.3544583494	-1.8039234659	 1.33088521	 0.10425
H	 0.2904388655	-0.3536463805	 2.1448760845	 0.097848
H	-0.863086411	-1.5559539459	-1.4309538443	 0.10425
H	-0.5018755479	 0.0326280451	-2.1573915491	 0.097848
H	 1.8562894969	-1.0815979591	-2.3752410593	 0.071258
