15
gdb 77430	1.94619	1.69962	1.68213	0.4141	60.05	-0.2339	0.042	0.2759	943.2977	0.109592	-494.78926	-494.78109	-494.780146	-494.821406	31.704	
O	 0.1313734226	 1.3929027842	-0.0650136113	-0.424471
C	-0.0624378287	 0.023926908	 0.0637911438	-0.014871
C	-0.4469274555	-0.7825737512	 1.2835858127	 0.215739
O	 0.30898315	-1.7979019826	 1.827352853	-0.444082
C	-1.6460243516	-0.1581922578	 2.0683021084	-0.043048
O	-2.0412060441	 1.0984206184	 1.4644652305	-0.271136
C	-2.4837036066	-0.1515239602	 0.8797184029	-0.043055
C	-1.3448095828	-0.7753671018	 0.0096631693	 0.215798
O	-1.6080553225	-1.782418511	-0.8928448828	-0.444097
H	-0.5844769083	 1.8009919216	 0.4417871479	 0.29675
H	 0.7108271517	-0.5163485532	-0.4843495498	 0.115894
H	 1.1622537116	-1.4367306247	 2.0933666453	 0.296372
H	-1.8810248892	-0.3165643194	 3.1139640694	 0.123907
H	-3.5483447259	-0.3031035685	 0.7483183067	 0.123918
H	-1.5687959606	-1.414807442	-1.783119356	 0.296381
