17
gdb 48019	5.4623	0.66788	0.62234	4.0674	86.9	-0.2571	-0.0567	0.2004	1744.5439	0.135507	-384.679983	-384.67114	-384.670196	-384.715884	30.782	
O	-0.0691544096	-0.1063149258	-0.1098963684	-0.231823
C	 0.022083029	 1.050413023	 0.2344754453	 0.019776
C	 1.2214518081	 1.8397816771	 0.1451314943	 0.003585
C	 2.2111792468	 2.5312659863	 0.0828328987	 0.122759
C	 3.4147645037	 3.345348767	-0.002764009	-0.20434
C	 4.2872464263	 3.0528943063	-1.2662380559	-0.217292
C	 4.9021843147	 4.4184512817	-1.6568264369	-0.259674
C	 3.9769704823	 5.4138671237	-0.9982700947	-0.065348
C	 3.1679189997	 4.8451620704	-0.109448863	-0.060843
H	-0.8475186986	 1.595139449	 0.6566528101	 0.095569
H	 3.9993325253	 3.1439794896	 0.9095526146	 0.122476
H	 5.0305852401	 2.2756555164	-1.0792909504	 0.113248
H	 3.6321906069	 2.6993548123	-2.0663931592	 0.12592
H	 5.9250527259	 4.5313461046	-1.2710938793	 0.113244
H	 4.9675261753	 4.548079775	-2.7423913895	 0.112701
H	 4.0137093506	 6.4763999047	-1.2115890163	 0.102568
H	 2.4389270136	 5.3482703388	 0.5138568395	 0.107474
