17
gdb 18741	2.99828	2.21731	1.53125	1.9961	67.76	-0.2329	-0.0307	0.2022	860.3686	0.142019	-363.834025	-363.826677	-363.825733	-363.865875	27.677	
C	 0.2165708654	 1.5894714614	-0.1565701225	-0.412005
C	 0.021573116	 0.0920847615	 0.0336074115	 0.016084
C	 0.7835444611	-0.8990182279	-0.8910315004	-0.192584
N	 1.2876838997	-1.6925164411	 0.2811012674	-0.126075
C	 2.6923618544	-1.3350194743	 0.6490985421	-0.304528
C	 2.1664743781	-0.2042161621	 1.5569753294	 0.392122
O	 2.6604659019	 0.6382410477	 2.2451152032	-0.288011
C	 0.7272881712	-0.6308959489	 1.2149283874	-0.128455
H	 1.2762773719	 1.8623958962	-0.169144134	 0.126848
H	-0.2271447994	 1.9171324001	-1.1029153232	 0.119777
H	-0.2604719523	 2.1561513489	 0.6497059583	 0.128432
H	-1.0466879942	-0.1411146695	 0.0544185	 0.090761
H	 0.1643597527	-1.496347992	-1.5653897217	 0.111802
H	 1.5854068382	-0.4344325223	-1.4790862995	 0.098765
H	 3.1914817603	-2.1354068602	 1.2076449377	 0.137582
H	 3.340747443	-1.0328657908	-0.1810773384	 0.128784
H	 0.1152410921	-0.9456583866	 2.0655259726	 0.100701
