17
gdb 39032	3.22661	1.78922	1.30161	3.3748	73.71	-0.2159	0.0279	0.2439	964.6771	0.138782	-418.00359	-417.996447	-417.995503	-418.035259	27.952	
C	 0.1194406242	 1.3700495107	-0.4050189396	-0.166213
C	 1.3983408049	 2.0013944725	 0.2369192843	-0.363227
C	 2.1260202474	 0.7770164372	 0.7347690508	 0.385947
O	 3.3315845529	 0.2745996831	 0.1392826885	-0.295449
C	 3.2368097111	 0.336002063	 1.5791621019	-0.110676
C	 2.7831468734	-1.0056571261	 2.1767940889	-0.183681
N	 1.4344668869	-1.3074569934	 1.6351409261	-0.375399
C	 1.1104534707	-0.3031533617	 0.9129926296	 0.428075
N	-0.0258083049	 0.0796060009	 0.2742606003	-0.389158
H	-0.7647585604	 1.9949782359	-0.246733297	 0.115514
H	 0.2507290099	 1.2439165733	-1.488435049	 0.11894
H	 1.98234948	 2.5798672224	-0.4799990716	 0.130611
H	 1.1157284282	 2.6555405924	 1.0670965474	 0.125947
H	 3.9481278004	 0.9923825876	 2.0716053589	 0.101933
H	 3.4898051403	-1.805449257	 1.9251122705	 0.117804
H	 2.7339887172	-0.9467148014	 3.2719577878	 0.104174
H	-0.8544049221	-0.4863226494	 0.2123054923	 0.254857
