20
gdb 90184	4.02427	1.49781	1.34994	2.0769	82.35	-0.22	0.0812	0.3011	1016.5429	0.173021	-365.907072	-365.900137	-365.899193	-365.938038	29.161	
C	-0.1056565682	 1.5463638484	-0.0291137449	-0.403085
C	 0.0117134909	 0.023006497	 0.0334109779	 0.025857
C	 0.8777633925	-0.596829358	-1.1479949115	-0.384012
C	 1.884518142	-1.3105455549	-0.2665530297	 0.296575
C	 3.1127677935	-2.1890309792	 0.0293293527	-0.274199
N	 2.6541324564	-1.8462548203	 1.4577197056	-0.191585
C	 2.2538290653	-0.4353996828	 0.9579009527	-0.007739
C	 0.761484694	-0.4912614889	 1.3068066653	-0.084432
C	 1.1855375321	-1.9241901732	 0.9728133007	-0.0186
H	 0.8823408526	 2.0209614416	-0.0193577176	 0.115848
H	-0.6186148139	 1.8680785106	-0.9414262079	 0.115999
H	-0.6695398564	 1.9360149279	 0.8253501445	 0.114886
H	-0.9955457094	-0.4096493201	 0.0107402918	 0.073974
H	 0.2902654173	-1.2629301766	-1.7862133246	 0.101478
H	 1.3161913946	 0.1838294684	-1.7774550322	 0.10037
H	 3.052817701	-3.2573605546	-0.2027709383	 0.101647
H	 4.1039441677	-1.7942417535	-0.2165328929	 0.101661
H	 2.9659229144	 0.3909973466	 0.9906833039	 0.075488
H	 0.3579814767	-0.1931456574	 2.2766054861	 0.065334
H	 0.6249901971	-2.859910871	 1.0203027984	 0.074536
