17
gdb 62745	2.6146	1.53442	1.24473	2.6922	70.87	-0.2248	0.0068	0.2315	1046.8029	0.133479	-455.093355	-455.084223	-455.083279	-455.126517	34.741	
C	-0.0300113491	 1.575630959	-0.1243073039	-0.454263
C	 0.1008940835	 0.0779316213	-0.0025392633	 0.404047
O	-1.0076704551	-0.6126731952	-0.5146010997	-0.483245
C	 1.3839389914	-0.6865145044	-0.1965905635	-0.187803
N	 2.5013623956	 0.1126665332	 0.3850652938	-0.374243
C	 1.9668548924	-0.0837540014	 1.7013510566	 0.291005
N	 2.4171563387	 0.0110085506	 2.8755133663	-0.541185
C	 0.686036589	-0.6697465476	 1.1913842104	 0.228666
O	-0.146802004	-1.5156385132	 1.8816637727	-0.459564
H	 0.8979111294	 2.0757932515	 0.156150604	 0.139939
H	-0.2669915112	 1.8328027916	-1.1615085771	 0.12707
H	-0.8430892953	 1.9398447795	 0.5105751676	 0.123437
H	-1.3718793178	-1.1556007991	 0.1962133191	 0.300111
H	 1.5328644674	-1.4667759647	-0.9302152295	 0.120266
H	 3.4365014683	-0.25027167	 0.2374363948	 0.240441
H	 3.3812020576	 0.3500672622	 2.883351799	 0.220608
H	 0.3881419292	-2.1544251733	 2.3669919826	 0.304713
