17
gdb 39732	3.33173	1.6776	1.64863	2.8616	69.85	-0.2344	0.0879	0.3223	889.1583	0.138318	-421.793309	-421.78707	-421.786126	-421.82369	26.289	
C	 0.0463779304	 1.5069172307	 0.007505753	-0.288505
O	 1.20042077	 0.6488117437	 0.011211611	-0.298567
C	-0.084457546	 0.0524499019	 0.0204874977	 0.547007
C	-0.5251542426	-0.8399619205	 1.1488874361	-0.228053
C	-1.7860934941	-1.5496503312	 0.6333016681	-0.125442
C	-2.0462004706	-1.027548253	-0.7798829092	-0.232313
C	-0.5533868082	-0.8362718782	-1.1361554697	-0.058338
O	 0.0279741093	-2.1063644292	-0.7968952665	-0.258408
C	-0.4410271305	-2.2225810178	 0.5351206704	 0.100029
H	-0.1173365908	 2.0744059213	 0.9225245159	 0.11652
H	-0.1155199751	 2.0635148041	-0.9154114867	 0.114047
H	-0.3334405228	-0.6266063414	 2.1904825049	 0.099262
H	-2.5677062417	-1.8934531919	 1.2964546834	 0.0954
H	-2.5340606631	-1.7664095075	-1.4212201341	 0.110184
H	-2.6060154476	-0.0889353842	-0.8076659413	 0.10589
H	-0.2749722324	-0.5478492388	-2.1462793958	 0.091321
H	-0.1363068143	-3.1223246379	 1.0488050831	 0.109966
