21
gdb 75367	2.58845	1.70315	1.35682	1.4591	82.98	-0.2267	0.0224	0.2492	1052.7586	0.185534	-387.116879	-387.109187	-387.108243	-387.148747	31.098	
C	-0.0288207516	 1.5251729985	 0.0557236047	-0.500014
C	 0.0264680827	 0.0294198695	-0.0521056472	 0.345445
C	 0.0096464373	-0.6378719708	-1.2091812706	-0.154319
C	 0.0139667606	-2.1471011029	-1.2850211391	-0.259386
C	-0.1056788925	-2.780217757	 0.1145907412	-0.048232
C	-1.4650429262	-2.450008457	 0.7772905599	-0.071298
O	-1.2677486545	-1.2606185811	 1.5562289805	-0.269505
C	 0.0469154425	-0.7708414007	 1.2482027942	 0.012376
C	 0.8599468882	-2.0555287874	 1.0700094795	-0.232376
H	 0.8500738603	 1.9213620095	 0.5812086358	 0.12034
H	-0.0817384015	 2.0032748947	-0.926366245	 0.11774
H	-0.9059219711	 1.8377039525	 0.6369108004	 0.134831
H	-0.0203485821	-0.0941468475	-2.1516267166	 0.077569
H	-0.8121360387	-2.4894157071	-1.9235400057	 0.102775
H	 0.9323380712	-2.4965809247	-1.7807029705	 0.101111
H	 0.0613447133	-3.8589031507	 0.0617247942	 0.067141
H	-2.2541942552	-2.2858467892	 0.0321545482	 0.094926
H	-1.795083366	-3.2482006529	 1.45352457	 0.097345
H	 0.3583762611	-0.1499150526	 2.0923502709	 0.066484
H	 0.9573881353	-2.5809874477	 2.0246700284	 0.09779
H	 1.8531445568	-1.8923604455	 0.6448358768	 0.099257
