16
gdb 62505	1.89398	1.58001	1.12225	3.2816	76.44	-0.2654	0.0075	0.2729	1131.7123	0.121093	-400.716391	-400.706974	-400.70603	-400.750275	34.718	
C	-0.1161808233	 1.5756018891	 0.0596794733	-0.462435
C	-0.0003241324	 0.0746486767	-0.0218529295	 0.380575
O	-1.1100087465	-0.6405367835	 0.4295456539	-0.450313
C	 0.6699044946	-0.5978321583	-1.1903627184	-0.278062
C	 1.2348558392	 0.1461788801	-2.2739310159	 0.344773
C	 1.7112442115	 0.7642162222	-3.1881032463	-0.423114
C	 1.3469056159	-0.6177714708	 0.2033573358	-0.280779
C	 2.5418736888	 0.1316270123	 0.4485874893	 0.309278
N	 3.4991204336	 0.7447957302	 0.6654617806	-0.342293
H	 0.7645867008	 2.0691896051	-0.3536195188	 0.160066
H	-0.9975245838	 1.9057932435	-0.4974115994	 0.140246
H	-0.2243185899	 1.8933506398	 1.1030576938	 0.122328
H	-1.2884171946	-0.376778805	 1.3399642876	 0.29105
H	 0.229817686	-1.5549660032	-1.4537665372	 0.14025
H	 2.1379792474	 1.3101809739	-3.9929910063	 0.20649
H	 1.2905401727	-1.5730452921	 0.7132602174	 0.141941
