20
gdb 19904	4.37113	1.44412	1.3052	0.2243	78.05	-0.2032	0.0799	0.2831	1034.9747	0.177795	-311.788593	-311.781025	-311.780081	-311.820617	30.02	
C	-0.5983562878	 1.5382366617	-0.3720465107	-0.404029
C	 0.0137228446	 0.2190560512	 0.1163625421	-0.205774
C	 0.7788777392	-0.4930041202	-1.0061979096	 0.007085
C	 2.1080632845	-1.210766101	-1.0041802159	-0.0962
C	 2.3559377845	-2.257167427	 0.1182867641	-0.051059
C	 1.2366337583	-2.4322134688	 1.1089719801	-0.30144
C	 1.0867187636	-2.9912758417	-0.2803138993	-0.051128
C	 0.8321509665	-1.9489424147	-1.4051103566	-0.096136
H	 0.1771790871	 2.2227095544	-0.7331826911	 0.116651
H	-1.2992919693	 1.3661520157	-1.1963342077	 0.116667
H	-1.1438496882	 2.0446425259	 0.4303723724	 0.109709
H	 0.6809650271	 0.4292842717	 0.9589810746	 0.109862
H	-0.7874453202	-0.4224777193	 0.4983764842	 0.109913
H	 0.7279994596	 0.0944019662	-1.9251485857	 0.084144
H	 2.9178328473	-0.8905133237	-1.6489489479	 0.081591
H	 3.3395106004	-2.6737740414	 0.2934110035	 0.084993
H	 1.4438009247	-3.19560109	 1.8550235717	 0.106789
H	 0.6439381938	-1.6145356121	 1.4908220872	 0.111773
H	 0.9572039935	-4.0517026837	-0.4545681441	 0.085002
H	 0.536374921	-2.2686089731	-2.3972524911	 0.08159
