19
gdb 37609	2.96826	2.44874	2.2112	0.0959	79.51	-0.25	0.0791	0.3291	772.1234	0.164174	-348.70528	-348.70015	-348.699206	-348.734312	24.325	
C	-0.0338186561	 1.5832492871	 0.0561407077	-0.228853
C	 1.4789870631	 1.8125641942	-0.0154731302	-0.039734
C	 2.0200149955	 0.9025071004	-1.1656846477	-0.054307
C	 1.0161396667	-0.3095019949	-1.1643516211	-0.054307
C	 0.0224985596	 0.0541076362	-0.0135418372	-0.039735
C	 1.1322489084	-0.4033122972	 0.9880178717	-0.054307
C	 2.1361184507	 0.8087007853	 0.9866937089	-0.054307
C	 2.9474431569	 0.1267710086	-0.1681558165	-0.051941
C	 1.9520982615	-1.0749518663	-0.1668431574	-0.051942
H	-0.4778393363	 1.9520486919	 0.9888559141	 0.091386
H	-0.5736864234	 2.0294894251	-0.7879787588	 0.091386
H	 1.8435280331	 2.8401597435	 0.0096461754	 0.05646
H	 2.3416885576	 1.3265915692	-2.116492326	 0.056481
H	 0.6583448689	-0.7057606602	-2.114256118	 0.056481
H	-0.9192140019	-0.4953736067	 0.0133109	 0.056459
H	 0.8766633085	-0.882154205	 1.9328686437	 0.056481
H	 2.5600005473	 1.1502065074	 1.9306505088	 0.056481
H	 4.0332234583	 0.0737418659	-0.2290339432	 0.053909
H	 2.2063342115	-2.1319414042	-0.2266284843	 0.053909
