22
gdb 109812	3.41977	0.88604	0.80676	1.7123	88.88	-0.2193	0.0501	0.2693	1526.6916	0.191193	-367.14704	-367.136337	-367.135393	-367.183364	38.814	
C	-0.2730517114	 1.3859000919	 0.0386144607	-0.386964
C	 0.8396071597	 0.3728018912	-0.2604456045	-0.195846
C	 1.1894639926	-0.4462848762	 0.9680079963	-0.004365
C	 0.5696317752	-1.7731111727	 1.2900470793	 0.007352
C	-0.457954973	-2.4561497403	 0.4117534805	-0.422337
N	 1.9930900585	-1.6749142308	 0.9446652055	-0.1163
C	 2.4776853161	-2.2080087903	-0.3289787605	-0.317008
C	 2.7809381149	-3.6335851518	-0.2174775847	 0.325211
C	 3.0187088165	-4.8087418098	-0.1399735484	-0.440057
H	 0.0097952254	 2.0494652987	 0.8629211878	 0.119741
H	-0.483672818	 2.0101357821	-0.8348425909	 0.114502
H	-1.2010337598	 0.8803246082	 0.3245895666	 0.121724
H	 0.5346955908	-0.2621881006	-1.0967543833	 0.098529
H	 1.7378410065	 0.9083473161	-0.5955824335	 0.103163
H	 1.4495317208	 0.1886870699	 1.8170698409	 0.084916
H	 0.4275898256	-2.0021235799	 2.3462904744	 0.087896
H	-0.4282316538	-2.1356136187	-0.6314239849	 0.118297
H	-0.3154889974	-3.5416264625	 0.4306268268	 0.137775
H	-1.4635459082	-2.2456996862	 0.7908615246	 0.121257
H	 1.7938250621	-2.0653273115	-1.1794036627	 0.11304
H	 3.39596136	-1.6624688445	-0.5815381589	 0.134422
H	 3.2363230268	-5.8454163923	-0.0680781209	 0.195052
