14
gdb 15151	14.45531	0.61321	0.61185	2.1892	87.98	-0.2334	-0.0213	0.2122	1789.2194	0.104981	-345.334662	-345.325963	-345.325019	-345.371242	28.858	
C	-0.0129919982	 1.4824551763	-0.020052134	-0.5185
C	 0.0007239297	 0.0314127938	-0.0032054543	 0.242319
C	 0.0115186107	-1.1790503347	 0.0104211436	-0.196638
C	 0.0228287129	-2.537227597	 0.0241577499	-0.166395
C	 0.0272811827	-3.7485622634	 0.0452907002	 0.340496
C	 0.0689556573	-5.1817294601	 0.0386415743	-0.182174
C	-0.4458203785	-5.9816269874	 1.1706120153	-0.158432
O	-1.183638275	-5.8863321645	-0.0389106567	-0.2092
H	 1.0045391233	 1.8855209051	-0.0753497674	 0.158906
H	-0.569620541	 1.8630599561	-0.8838567557	 0.159491
H	-0.4826807598	 1.885063991	 0.884424191	 0.15866
H	 0.8568017127	-5.6231307933	-0.5713427411	 0.121831
H	 0.0047320662	-6.9516837409	 1.3773904724	 0.121584
H	-0.8748341632	-5.464485221	 2.0265503225	 0.128052
