18
gdb 124520	2.5781	1.37131	0.98011	2.094	73.4	-0.2532	0.001	0.2542	1217.4751	0.14723	-439.091873	-439.083089	-439.082144	-439.125659	32.814	
C	 0.1406455081	 1.2817617182	-0.4117586324	-0.389378
C	 0.0645051884	-0.1479338015	 0.1594188586	-0.089312
C	 0.6681943993	-0.2171404398	 1.5678222506	-0.399419
C	-1.3460744299	-0.667414293	 0.1253141025	 0.08331
C	-2.206547819	-0.9879704271	 1.1264499315	-0.003978
O	-3.3893128446	-1.4124864408	 0.6499684706	-0.181428
N	-3.3426532129	-1.3850871848	-0.7457017585	-0.253781
C	-2.141969652	-0.9477076631	-1.0296132951	 0.379889
O	-1.7205259076	-0.7914872568	-2.2968823947	-0.418576
H	 1.179676894	 1.6247103784	-0.4492043597	 0.111802
H	-0.269988118	 1.3225908736	-1.4238502352	 0.134404
H	-0.4263239439	 1.9790348979	 0.2145150323	 0.116463
H	 0.663697354	-0.7923285809	-0.4986084655	 0.094805
H	 0.1212315107	 0.4302397341	 2.2630422495	 0.117189
H	 0.647256899	-1.2369175127	 1.9646857339	 0.118715
H	 1.7088278563	 0.1198670657	 1.5546153556	 0.117097
H	-2.1197127781	-0.971315834	 2.2017520642	 0.149455
H	-2.4433343135	-1.0558488334	-2.8818257082	 0.312743
