21
gdb 61832	2.27971	1.11426	0.81931	4.1672	80.47	-0.2709	0.0122	0.283	1443.7172	0.179978	-424.244565	-424.234299	-424.233355	-424.280985	36.53	
C	 0.0188498835	 1.4838300828	-0.210202034	-0.390652
C	 0.067214656	-0.0236223611	 0.0208995818	 0.089859
O	 0.7979424861	-0.2745299892	 1.2482025662	-0.189546
C	 2.0603316165	-0.71931932	 1.1608413208	 0.169336
O	 2.7475247817	-0.9252203169	 2.1170207529	-0.282603
C	-1.3019380865	-0.6375404968	 0.1680918503	 0.010299
C	-2.0624187781	-1.0992776272	-1.0548190247	-0.30693
C	-1.5719449624	-2.1096044601	-0.0473787133	 0.001414
C	-0.4928305934	-3.111749895	-0.3972068353	-0.415327
H	 1.0266209382	 1.8957687366	-0.3163395948	 0.122253
H	-0.5474552126	 1.7090606097	-1.1183757213	 0.127297
H	-0.4668329966	 1.9812170842	 0.6344745887	 0.135084
H	 0.6070612079	-0.5042290303	-0.8048976273	 0.08206
H	 2.3900772076	-0.8785326689	 0.1140981538	 0.070048
H	-1.8905946596	-0.1623906181	 0.9485305332	 0.093816
H	-3.1221152727	-0.8799613662	-1.1216877908	 0.115908
H	-1.5435959299	-1.0597448938	-2.0087084219	 0.109974
H	-2.3373003416	-2.5132699895	 0.6102520802	 0.091479
H	 0.2430908115	-2.7016203226	-1.0955319688	 0.110198
H	 0.0435017511	-3.4497330434	 0.4957707174	 0.13345
H	-0.9308406367	-3.993911594	-0.876391583	 0.122582
