18
gdb 13642	6.80971	0.80262	0.76279	1.6163	77.66	-0.2433	0.0589	0.3022	1532.8126	0.150935	-347.76536	-347.755727	-347.754782	-347.80182	32.648	
C	-0.0715324464	 1.4537283769	-0.3080529265	-0.496397
C	-0.0182532874	 0.0306347871	-0.0052037292	 0.087948
C	 0.032421866	-1.1469235112	 0.2387851566	 0.049154
C	 0.0599962271	-2.5760620846	 0.537547464	-0.384344
C	-1.305646693	-3.2262803214	 0.3770638281	 0.076641
O	-1.6901438614	-3.6370212886	-0.9351076106	-0.254115
C	-1.5133811753	-4.649883573	 0.0640468995	 0.074289
C	-0.4183510098	-5.663733294	-0.1527653183	-0.418309
H	 0.6633960834	 1.7255177122	-1.0738746539	 0.147511
H	-1.0598685155	 1.7424308964	-0.6825970249	 0.148992
H	 0.1360178657	 2.0606808349	 0.5802705267	 0.144913
H	 0.7825956428	-3.0798331933	-0.1122002457	 0.133441
H	 0.4008136255	-2.7325119164	 1.5708417092	 0.127674
H	-2.0961257119	-2.713579159	 0.9282000647	 0.094683
H	-2.4556012136	-5.0832604974	 0.4080801807	 0.086954
H	 0.5164175237	-5.1993619712	-0.4723165958	 0.127334
H	-0.2324861836	-6.2258519386	 0.7690471452	 0.12232
H	-0.7189290264	-6.3799146688	-0.9246326499	 0.13131
