19
gdb 31608	2.74278	1.24257	0.92112	3.089	79.45	-0.1893	0.0325	0.2218	1297.9448	0.159611	-419.256591	-419.247145	-419.2462	-419.291393	34.214	
C	 0.0447544116	 1.5172279592	 0.1089427854	-0.374031
C	-0.038832001	-0.0073009243	-0.0900623266	-0.294419
C	 0.7049570822	-0.4962575889	-1.2928904635	 0.33768
N	 0.1403234582	-0.7276408681	-2.4705602534	-0.399453
C	 1.1537206038	-1.1121367431	-3.2955206503	 0.3346
O	 0.9247184655	-1.4345708832	-4.5887323428	-0.44041
C	 2.354626442	-1.123873223	-2.639138903	-0.242098
N	 2.0482425772	-0.7249253597	-1.3418861659	-0.025875
C	 3.0249262673	-0.5601999292	-0.2859099088	-0.342559
H	 1.0756007751	 1.8461302928	 0.2760287169	 0.113563
H	-0.3327240539	 2.038216505	-0.7753364008	 0.135662
H	-0.5513682392	 1.828613034	 0.9723798971	 0.114961
H	 0.3092026641	-0.5190786265	 0.8153415502	 0.103988
H	-1.0826214946	-0.2995981701	-0.232069048	 0.131972
H	-0.0243611907	-1.3242866041	-4.7233181182	 0.297268
H	 3.3550259787	-1.3762425743	-2.9430752159	 0.120658
H	 3.6473879219	 0.3261363821	-0.4523386992	 0.140926
H	 2.5184186956	-0.4533051044	 0.673617969	 0.145113
H	 3.6758184163	-1.4381375741	-0.2361237423	 0.142454
