21
gdb 95042	2.06436	1.91769	1.1876	2.7686	81.6	-0.2337	-0.0199	0.2138	1107.8784	0.183446	-387.123628	-387.115325	-387.114381	-387.156604	32.648	
C	-0.0615800508	 1.5714076986	-0.1090366039	-0.407474
C	 0.1132621608	 0.0536279129	-0.0724508892	 0.034285
C	 0.9827134297	-0.5361749392	-1.201990263	-0.224411
C	 1.3187404827	-1.9600999449	-0.7194614683	-0.221229
C	 1.5298607798	-1.8241332191	 0.7995077329	-0.021421
C	 2.8892137771	-1.1971671307	 1.2416384262	-0.359468
C	 2.1373435682	 0.0941723864	 1.5961672343	 0.41285
O	 2.4811270251	 1.163558837	 2.0142558073	-0.307145
C	 0.7718685928	-0.5066386843	 1.2122038766	-0.152866
H	 0.8994019483	 2.0858260436	-0.0182218936	 0.135326
H	-0.5299817712	 1.8835365219	-1.048489094	 0.109191
H	-0.697451273	 1.9175837696	 0.7120809219	 0.116114
H	-0.8794202344	-0.4136167605	-0.1404508037	 0.07516
H	 0.4760409504	-0.523261659	-2.1713530287	 0.097655
H	 1.8981619506	 0.0601012593	-1.3136255627	 0.103024
H	 0.4667596392	-2.6226956777	-0.9123758841	 0.09876
H	 2.1852314801	-2.39502823	-1.2278627823	 0.097173
H	 1.2671516492	-2.7290053907	 1.3482430609	 0.071778
H	 3.3576439981	-1.6686838242	 2.1114320868	 0.128821
H	 3.6531675166	-1.0837845637	 0.4647377726	 0.124567
H	 0.0774362909	-0.5523629655	 2.0559746239	 0.089308
