20
gdb 31804	4.47035	0.95699	0.85082	1.896	90.56	-0.24	-0.0174	0.2226	1438.3195	0.171894	-366.09084	-366.081777	-366.080832	-366.125846	33.057	
C	-0.0078370985	 1.5546609484	-0.0769518437	-0.365493
C	-0.0213213334	 0.0182370409	 0.0069278797	-0.294985
C	 0.685975823	-0.5087231708	 1.2320657622	 0.26298
C	 2.0220483346	-0.9169567644	 1.1849910891	-0.073942
N	 2.7203372016	-1.3633009467	 2.2277566845	-0.317226
C	 2.107286355	-1.4332566968	 3.4178925884	 0.319467
C	 2.931746856	-1.9442749381	 4.5709907573	-0.466385
C	 0.7716356841	-1.0561370344	 3.5753099749	-0.156012
C	 0.060367416	-0.5926086198	 2.4756557453	-0.154398
H	 1.017845584	 1.9351414341	-0.1115203496	 0.123655
H	-0.5310236182	 1.9021919832	-0.9733333663	 0.114338
H	-0.4967518168	 1.9999361602	 0.7955229519	 0.119558
H	-1.0595560473	-0.3343995375	 0.0035772464	 0.104771
H	 0.4508138999	-0.396738371	-0.8908897711	 0.106766
H	 2.5570349257	-0.8828023387	 0.2361704688	 0.096512
H	 2.3605102945	-1.959045477	 5.502547593	 0.114466
H	 3.2899360063	-2.9581897541	 4.3651543457	 0.138313
H	 3.8177307505	-1.3173640166	 4.7139686032	 0.138244
H	 0.297116046	-1.1308026014	 4.5481076462	 0.093038
H	-0.981091773	-0.3004794395	 2.582244964	 0.096332
