21
gdb 95294	2.04616	1.9093	1.44025	2.0781	77.55	-0.2427	0.077	0.3197	1045.4999	0.182672	-424.228231	-424.219647	-424.218703	-424.260962	33.329	
C	 0.1600641248	 1.5761181654	 0.0133618	-0.410673
C	 0.1901433793	 0.0591152654	 0.0148840907	 0.098632
O	 1.0369660216	-0.3939049224	-1.043428809	-0.269108
C	 1.3662563536	-1.7457583621	-0.7590889063	-0.102092
C	 1.5894743516	-1.7960200961	 0.7505277061	-0.143756
C	 2.8044283092	-1.0050341422	 1.2694182808	-0.082288
O	 1.9726059929	 0.0753072844	 1.7386611367	-0.323468
C	 0.7619533941	-0.5922865816	 1.2931797686	 0.419832
C	-0.228262488	-0.7728808999	 2.4242738868	-0.467664
H	 1.1495026665	 1.9660803588	 0.2594171618	 0.141209
H	-0.1388479095	 1.9452215591	-0.9709719875	 0.122605
H	-0.5576962694	 1.946628522	 0.7518502812	 0.113216
H	-0.8272588239	-0.3438009782	-0.1401544436	 0.05543
H	 0.543241412	-2.420971586	-1.0480440342	 0.088005
H	 2.249909035	-2.007755623	-1.3487816467	 0.108802
H	 1.4204535801	-2.7761588175	 1.1970217416	 0.077404
H	 3.3594094779	-1.4736702895	 2.091141971	 0.098219
H	 3.5109719512	-0.674069988	 0.4984692236	 0.105436
H	-0.5948716798	 0.1991151535	 2.7719128533	 0.12987
H	-1.0893786534	-1.3662547964	 2.0998534464	 0.117159
H	 0.2433813642	-1.2756365758	 3.2727476087	 0.12323
