19
gdb 74411	2.63537	1.55956	1.18641	1.6253	76.74	-0.2134	0.0562	0.2696	1108.2128	0.158932	-419.230099	-419.221277	-419.220333	-419.2628	34.455	
C	-0.1145930266	 1.4987435137	-0.1026659592	-0.473858
C	-0.0039764723	 0.0124544999	 0.0585032743	 0.361826
C	 1.2343921121	-0.7946447414	-0.2422644271	-0.38827
C	 0.6516211292	-0.8008783434	 1.1653877679	 0.287019
C	 1.4169516978	-0.2563099171	 2.3417029151	-0.467344
N	-0.2621945726	-1.89098214	 1.4436812969	-0.384273
C	-1.2366661894	-1.7444658712	 0.6279990716	 0.432618
N	-2.2941989282	-2.5959567349	 0.4440870489	-0.581899
O	-1.2342642362	-0.6689802499	-0.2094189483	-0.278178
H	 0.825458485	 1.9790936852	 0.1810513731	 0.125533
H	-0.3282936985	 1.7684195152	-1.1426826227	 0.129617
H	-0.912799544	 1.9039909515	 0.5274327133	 0.125317
H	 1.1447542121	-1.6939226844	-0.8431852438	 0.117502
H	 2.1442365338	-0.2231695433	-0.3986996604	 0.10876
H	 2.0277610032	 0.6051650736	 2.0557179709	 0.108275
H	 0.7362148401	 0.0510896303	 3.1420583787	 0.119433
H	 2.0842560172	-1.0242795254	 2.7461226722	 0.130199
H	-2.4305243043	-3.2360663073	 1.2115955647	 0.267052
H	-3.1395684986	-2.1568532711	 0.1110595738	 0.26067
