21
gdb 116441	2.57566	1.3043	1.00422	1.5843	74.1	-0.2576	0.081	0.3386	1237.3487	0.183594	-461.363194	-461.354287	-461.353343	-461.396581	34.034	
C	-0.1009292638	 1.6029227718	-0.1030227562	-0.395105
C	-0.0043823875	 0.0731547552	-0.0263713315	-0.015451
C	 0.8120785102	-0.4941868462	-1.2016913637	-0.097126
O	 2.1876323338	-0.1480157031	-1.0778426624	-0.235118
C	 2.7182035521	-0.6287343513	 0.124764679	 0.017613
O	 2.0642013267	-0.099220046	 1.250386138	-0.270398
C	 0.6709550709	-0.4421787657	 1.2603991178	 0.097627
C	 0.1253087601	 0.087840735	 2.5797975998	-0.084218
O	 0.7843393469	-0.5127748107	 3.6771850061	-0.424981
H	 0.8868982049	 2.0577946732	 0.0016494463	 0.140184
H	-0.5137688744	 1.9105294629	-1.0692993003	 0.110961
H	-0.751289568	 2.0091003984	 0.676361388	 0.117885
H	-1.0121798828	-0.3601133631	-0.0768007141	 0.076143
H	 0.7074888955	-1.5916227692	-1.2396468476	 0.088741
H	 0.476170458	-0.08456192	-2.1581930762	 0.110609
H	 2.6568651888	-1.7340987615	 0.1485391378	 0.078665
H	 3.7595258305	-0.3040273177	 0.1733391878	 0.118939
H	 0.5886885739	-1.5427654282	 1.2834787025	 0.071931
H	 0.2225345571	 1.182922074	 2.6067575246	 0.097273
H	-0.9380350557	-0.1604706157	 2.6651654364	 0.106539
H	 1.7274817631	-0.4062402119	 3.5051324678	 0.289287
