19
gdb 62886	3.16999	1.47965	1.15965	3.2566	75.8	-0.2437	0.0702	0.3138	1094.1965	0.156731	-422.924695	-422.91631	-422.915365	-422.957031	33.046	
C	 0.0089676697	 1.5538912305	-0.0334014471	-0.462043
C	-0.0816623316	 0.0307525764	-0.01639293	 0.345919
C	-1.4836306678	-0.4383365691	-0.3972505541	-0.479723
C	 1.1748717655	-0.7200394277	-0.5868596761	-0.121942
O	 1.9633368224	-0.2123434985	 0.5650639859	-0.310439
C	 0.6832250043	-0.6712348152	 1.1626554003	-0.121939
C	 0.8337057481	-1.9306171285	 0.2955605103	 0.56716
C	 0.2755496995	-3.2697896546	 0.176105947	-0.312662
O	 1.6504865697	-3.0296521895	 0.5557683068	-0.281326
H	 1.0079982603	 1.8934978268	 0.2380180719	 0.143307
H	-0.2364540445	 1.9388426201	-1.0295836081	 0.112464
H	-0.7137042227	 1.986193246	 0.6677825427	 0.112462
H	-1.7448499366	-0.0714943298	-1.3960941619	 0.122371
H	-1.5954799172	-1.5232110877	-0.3989033376	 0.123218
H	-2.2210983146	-0.0249658753	 0.2997188257	 0.122375
H	 1.634625724	-0.6713177759	-1.5744173097	 0.097293
H	 0.562385841	-0.5648706837	 2.2411276303	 0.097294
H	-0.3592291138	-3.6713503404	 0.964779558	 0.123106
H	 0.1382964345	-3.7207956238	-0.8057070845	 0.123105
