23
gdb 75302	2.74863	1.46541	1.15023	0.175	91.47	-0.226	0.0382	0.2642	1183.118	0.20827	-351.168669	-351.160471	-351.159527	-351.200929	33.459	
C	 0.7163408315	 1.3734196849	 0.1013453012	-0.459213
C	 0.0385853935	 0.0227099568	 0.0381003136	 0.295755
C	 0.0998905531	-0.6954434537	-1.0900576021	-0.126972
C	-0.4613654954	-2.0455742153	-1.4549078432	-0.263304
C	-1.2621829578	-2.8058378781	-0.402010111	 0.003051
C	-2.3727890531	-1.9550307429	 0.2756238168	-0.231688
C	-1.3846831118	-1.6742238233	 1.4428438227	-0.005542
C	-0.5515658631	-2.9017165956	 0.9772431174	-0.231688
C	-0.6506705353	-0.3409676314	 1.3364919262	-0.286537
H	 1.4702289931	 1.4024322221	 0.8991268761	 0.116962
H	 1.2103530706	 1.6262897552	-0.8400547759	 0.11546
H	-0.0046079278	 2.1690825613	 0.3311202275	 0.11696
H	 0.6526995177	-0.2422677835	-1.9135739417	 0.069585
H	-1.0884244177	-1.9182775419	-2.3513148268	 0.101882
H	 0.3757771959	-2.6793789747	-1.787227088	 0.101882
H	-1.591318925	-3.7570644034	-0.8311365437	 0.057633
H	-2.7539469392	-1.0928257112	-0.2797169141	 0.092879
H	-3.2192210081	-2.5684689901	 0.5964780272	 0.090733
H	-1.8118521979	-1.751521277	 2.4473605137	 0.058298
H	-0.8284891452	-3.8111890255	 1.5174971582	 0.090733
H	 0.5381220787	-2.8040668412	 0.9885391614	 0.092879
H	 0.1032195372	-0.2925857426	 2.1382166232	 0.100125
H	-1.3596203339	 0.4678125709	 1.5746489213	 0.100126
