16
gdb 49891	2.78437	1.28477	1.02076	3.5923	72.75	-0.2286	-0.042	0.1866	1150.0506	0.124979	-437.941495	-437.933411	-437.932466	-437.974944	29.661	
O	 0.0562268018	-0.1334776639	 0.1765671402	-0.246493
C	 0.033552477	 1.061860288	 0.0462605461	 0.168451
C	 1.2761617718	 1.9473517408	-0.0312763149	-0.149853
C	 1.2498496272	 2.8636645723	-1.2733297654	-0.352388
C	 0.34975384	 4.0902918183	-1.1601294209	 0.398295
O	-0.1853615154	 4.623135539	-2.1073815949	-0.349754
N	 0.2438247663	 4.6028668308	 0.118220889	-0.323616
C	 0.7870175978	 3.9997840772	 1.2542651181	 0.024068
C	 1.3156573732	 2.7731363569	 1.2336498878	-0.149396
H	-0.9285391393	 1.6226669744	 0.0061282481	 0.084646
H	 2.1344774418	 1.2722673328	-0.0874823999	 0.106836
H	 2.2637091007	 3.2502396325	-1.4386760019	 0.144951
H	 0.9633421741	 2.3260621877	-2.1798150465	 0.143414
H	-0.2693962266	 5.4676332134	 0.1985655348	 0.260308
H	 0.7525263291	 4.6090098783	 2.1498390267	 0.12635
H	 1.7147781306	 2.3380279415	 2.1402951634	 0.114181
