20
gdb 40783	3.75961	1.18877	1.00997	2.7163	79.05	-0.2343	0.0811	0.3155	1218.7972	0.172282	-403.107069	-403.099262	-403.098318	-403.139692	30.533	
C	 1.3374695975	 0.0301422712	-0.3558941063	-0.22179
C	 0.5721255404	-1.0978134335	-0.9535472494	-0.227165
N	-0.0756090979	-0.1583144903	-0.0434093473	-0.058409
C	-0.3802084884	-0.6526256477	 1.2921098664	 0.040728
C	-0.5140681107	 0.4932813697	 2.322548166	-0.241392
C	-1.482733687	-0.0348121974	 3.4063785825	-0.246461
C	-2.3668398811	-1.0078280769	 2.6481709321	 0.049495
O	-2.850381842	-0.4815150352	 1.4054775794	-0.254231
C	-1.721781566	-1.3623230072	 1.3782450378	 0.039005
H	 2.0688401	-0.2200696395	 0.4118386024	 0.107239
H	 1.5794921785	 0.910219634	-0.9444818483	 0.117781
H	 0.2414883534	-1.0582359824	-1.987227065	 0.11941
H	 0.7968464124	-2.0980951911	-0.584954622	 0.105991
H	 0.3866765559	-1.3770709047	 1.634339162	 0.050532
H	 0.4512505282	 0.8017514112	 2.7300569485	 0.09507
H	-0.9549819698	 1.3498540813	 1.809236695	 0.132216
H	-0.9487577395	-0.5791637022	 4.195257037	 0.101117
H	-2.0509792855	 0.7663949447	 3.8889652107	 0.110787
H	-3.0477572618	-1.6763653179	 3.1694157175	 0.090658
H	-1.8801502766	-2.3109946061	 0.8709697009	 0.089416
