17
gdb 131859	5.69745	0.78934	0.71098	1.0715	71.71	-0.2001	0.0245	0.2247	1533.3645	0.138338	-451.34006	-451.331426	-451.330482	-451.374334	30.954	
O	 0.0048308232	 1.3567493873	-0.2792431568	-0.422273
C	-0.0589505645	-0.0266555616	 0.0513560191	-0.096027
C	-1.5269643312	-0.4144712898	 0.0924228694	-0.115213
N	-2.1266128121	-0.1705256959	-1.2067082732	-0.386052
C	-3.4315276975	-0.5245992445	-1.4296170618	 0.452562
N	-4.0938669191	-1.3913809946	-0.6686359024	-0.316191
N	-5.2963203052	-1.4559843483	-1.3178180054	-0.188169
C	-5.2954001193	-0.6431323823	-2.385389612	 0.023353
N	-4.1339172166	-0.029548987	-2.4978194727	-0.338333
H	 0.9177260895	 1.5819162522	-0.4782637257	 0.292378
H	 0.4588394575	-0.6366734973	-0.70295924	 0.099446
H	 0.3986941628	-0.2259466689	 1.0318315967	 0.091904
H	-1.6197451354	-1.4771323566	 0.3355733075	 0.126529
H	-2.0318915838	 0.146989519	 0.8945229047	 0.105572
H	-1.8728076879	 0.7193823868	-1.6114354707	 0.253828
H	-6.0244909766	-2.050323973	-0.9611978911	 0.276055
H	-6.1437478237	-0.5281290655	-3.0437316556	 0.140631
