19
gdb 34408	2.6034	1.51702	1.27327	5.1617	78.7	-0.2417	0.0244	0.2661	1066.3034	0.162186	-382.080789	-382.07301	-382.072066	-382.113005	30.552	
N	 0.0354878431	-1.1480257683	-0.3793276121	-0.350233
C	 0.0171363571	-0.0104583086	-0.1737646656	 0.259928
C	 0.0091469587	 1.4360150452	 0.0585380371	 0.182637
C	-0.8303548893	 2.1914812819	-0.9968894302	-0.265132
C	-0.1673641801	 3.5763664649	-1.1108613812	-0.222918
C	 1.3358587161	 3.2751021833	-0.9571631077	-0.22275
C	 1.4017388144	 2.1817222764	 0.1137329106	-0.06076
C	 1.004394765	 2.6170693537	 1.5483986163	-0.173959
N	-0.220375414	 1.7844105025	 1.4799587989	-0.345739
H	-0.764235722	 1.660548674	-1.952681908	 0.12461
H	-1.8886491477	 2.2252969467	-0.7192270098	 0.11167
H	-0.4088320668	 4.0764765982	-2.0519682213	 0.108715
H	-0.5109392568	 4.2331977347	-0.3037814968	 0.105413
H	 1.7386375027	 2.8909991447	-1.9015575541	 0.111439
H	 1.9243292632	 4.1571430477	-0.6854884336	 0.105998
H	 2.2884405397	 1.551786011	 0.0532421181	 0.09615
H	 1.6844047893	 2.30109113	 2.3460708817	 0.114271
H	 0.8329208603	 3.6959224985	 1.6493613449	 0.098399
H	-1.0979429228	 2.2580334137	 1.6626029827	 0.222262
