14
gdb 17224	5.54797	1.72545	1.55409	4.8692	66.36	-0.2701	0.0001	0.2702	807.8171	0.10937	-341.538407	-341.532381	-341.531437	-341.568455	23.451	
N	 0.0582210669	-1.0868103979	-0.1019872228	-0.339394
C	 0.0395083148	 0.067264034	-0.0243996447	 0.195836
C	 0.0018698319	 1.4895539002	 0.1144628226	 0.212759
C	-1.1348842802	 2.3333913226	 0.6734291525	-0.289408
C	-0.4493961112	 3.4774337835	-0.0940846129	-0.013851
C	 0.9099884191	 3.7126101304	 0.5947778803	-0.240147
C	 1.2440307161	 2.3406148797	 0.0430021093	-0.066677
N	 0.2299025246	 2.4336574838	-1.051114525	-0.173315
H	-2.0830160141	 2.0482686547	 0.2135280209	 0.135431
H	-1.2487684382	 2.4206036909	 1.7575930962	 0.115864
H	-1.0244004998	 4.2922168416	-0.5260292882	 0.102487
H	 1.4914844933	 4.4806681694	 0.0797244141	 0.12816
H	 0.9291966374	 3.8865607231	 1.6746006668	 0.111982
H	 2.2136477793	 1.887387184	-0.1275783589	 0.120272
