21
gdb 91365	2.57894	1.62287	1.35527	2.3557	77.07	-0.2449	0.0886	0.3335	1065.2119	0.184183	-424.24708	-424.23907	-424.238126	-424.279209	32.169	
C	-0.214808797	 1.5339803522	-0.068777724	-0.419176
C	 0.028317643	 0.0356506382	 0.0166052702	 0.155015
O	 0.7234786461	-0.4242194132	-1.1735921468	-0.290769
C	 1.8024537636	-1.2166515064	-0.7037084966	 0.218169
C	 1.2362911156	-1.9006841753	 0.5419476983	-0.267561
C	 0.9219610617	-0.5172339155	 1.1543814176	-0.106518
C	 2.3165162098	 0.1456810202	 1.0573852987	 0.156929
C	 3.2754849567	-0.1537147536	 2.2022812161	-0.414385
O	 2.8325802838	-0.3891571586	-0.1901371348	-0.287723
H	 0.7154348214	 2.0936515868	-0.1889174143	 0.133644
H	-0.846490243	 1.7528197565	-0.934434643	 0.129065
H	-0.7321548383	 1.8920364803	 0.827842819	 0.110528
H	-0.9474191329	-0.4719251108	 0.061295854	 0.070671
H	 2.2006250067	-1.8058033151	-1.5281256828	 0.088477
H	 0.3471720345	-2.5011740763	 0.3396990944	 0.106284
H	 1.9751059624	-2.4891020633	 1.0865532728	 0.107205
H	 0.4665454649	-0.4889279999	 2.1444147824	 0.073705
H	 2.2322851136	 1.2322901136	 0.9495617203	 0.076763
H	 3.3476108024	-1.2256428638	 2.4068741996	 0.117913
H	 4.2757956613	 0.2094896895	 1.9495909331	 0.129751
H	 2.9488883438	 0.3525316845	 3.1170366756	 0.112013
