16
gdb 116741	4.38897	0.71709	0.62111	2.5689	72.53	-0.2653	-0.0979	0.1674	1733.6707	0.120678	-475.045939	-475.036227	-475.035283	-475.082115	32.649	
C	 0.0413716372	 1.0658851258	-0.5647204626	-0.402301
C	-0.274927467	 0.0633142368	 0.5473951222	-0.118618
N	-1.3034054306	-0.9398345232	 0.3133875053	-0.200608
C	-1.9126715558	-0.97803592	-0.7766683744	 0.108254
O	-2.8810335601	-1.9628478131	-0.9294741725	-0.193823
C	-3.5447892573	-2.0142191765	-2.0998540678	 0.346977
O	-3.3920397065	-1.2895377767	-3.0483189902	-0.324379
C	-4.5776377676	-3.1472216397	-2.121850382	 0.089407
O	-4.7792664194	-3.9011324249	-1.2142049346	-0.200459
H	 0.8304619464	 1.7449861188	-0.2292902539	 0.123127
H	 0.39600496	 0.5686634553	-1.473669454	 0.127492
H	-0.8309769459	 1.6741466985	-0.8258588477	 0.127502
H	 0.6337570482	-0.48737183	 0.8219478359	 0.127186
H	-0.5705282387	 0.5988104222	 1.4585414869	 0.127172
H	-1.8060405781	-0.3457499038	-1.6556850531	 0.142473
H	-5.1150875947	-3.1776001293	-3.0903212675	 0.120598
