21
gdb 105109	2.74781	1.20233	1.04004	2.9739	78.42	-0.2352	0.0762	0.3115	1258.5328	0.181371	-424.169109	-424.159749	-424.158805	-424.204189	34.243	
C	 0.0953276115	 1.2936114435	 0.2540164306	-0.25281
O	 0.0280099526	-0.0737927281	-0.0723962596	-0.286954
C	 0.6643396038	-0.5289674987	-1.2393516489	 0.427402
C	 0.4095372834	 0.1159549241	-2.5787483919	-0.329748
C	 1.7734020241	 0.2370006161	-1.9171089724	-0.338886
C	 0.7662940716	-2.0313760354	-1.1783886962	-0.077271
C	 1.3718919932	-2.6744710187	 0.0920231088	-0.084198
O	 0.199210779	-3.4887862525	 0.2915073064	-0.275113
C	-0.4973558213	-2.8375943485	-0.7904454886	-0.085727
H	 1.1195161191	 1.6154379036	 0.4873110638	 0.113548
H	-0.305328873	 1.9405135507	-0.5396447243	 0.110094
H	-0.5216831486	 1.4256188665	 1.1458815322	 0.133856
H	 0.2978873587	-0.5258161907	-3.4459720248	 0.116477
H	-0.2010869998	 1.0114305969	-2.6111295704	 0.118517
H	 2.0477816352	 1.2138250447	-1.5376316182	 0.118103
H	 2.6075291461	-0.3250420593	-2.3235260014	 0.116614
H	 1.2308861295	-2.3947340226	-2.0975737275	 0.075472
H	 2.2745680166	-3.2809564941	-0.0490087846	 0.092849
H	 1.5280997377	-1.971128334	 0.9181540791	 0.104196
H	-1.329786617	-2.2221742214	-0.4315530139	 0.110527
H	-0.8649104125	-3.5555422723	-1.5333294983	 0.093053
