23
gdb 121229	3.12429	0.8272	0.70729	1.9619	83.26	-0.2407	0.0845	0.3253	1693.675	0.204188	-425.399073	-425.38852	-425.387576	-425.435842	36.952	
C	-0.0999742903	 1.6498540168	-0.2257765443	-0.385458
C	-0.0847444372	 0.2430251323	 0.3821234847	-0.192415
C	-1.3310229321	-0.542448808	 0.0062580741	 0.142038
O	-1.4387205365	-0.767267496	-1.4214904494	-0.295669
C	-1.747691257	-2.1632514553	-1.2226087278	-0.072139
C	-1.4475858334	-2.0662822489	 0.2863856826	-0.081499
C	-0.2026875291	-2.8028017433	 0.7448725097	-0.074056
O	-0.5034917095	-4.1828890028	 0.7433303395	-0.236031
C	 0.5888865445	-4.9840227868	 1.1244921123	-0.227962
H	 0.8132720725	 2.1985228606	 0.0224606038	 0.109956
H	-0.1806016443	 1.5923440237	-1.3147907845	 0.140129
H	-0.9521129084	 2.2309814782	 0.1438002611	 0.113189
H	 0.8060675058	-0.2948585634	 0.039709279	 0.099691
H	-0.0257778418	 0.3038255609	 1.4769079943	 0.094902
H	-2.2180174043	 0.0019681952	 0.3676035566	 0.066847
H	-2.7912203098	-2.3912058705	-1.474492516	 0.09761
H	-1.0899135427	-2.8205346914	-1.8030928908	 0.105135
H	-2.2782930335	-2.3446576789	 0.9385694712	 0.082858
H	 0.6454508676	-2.5986062692	 0.0700176432	 0.091063
H	 0.0984526758	-2.4744602285	 1.7546765499	 0.086113
H	 0.2596557784	-6.0253928367	 1.0898031212	 0.127848
H	 1.4459123177	-4.8591110157	 0.4435888332	 0.104356
H	 0.9288567177	-4.7527527123	 2.1466614267	 0.103494
