23
gdb 103356	2.91229	1.40934	1.2533	0.2267	89.29	-0.2204	0.0159	0.2363	1145.6253	0.20634	-351.122063	-351.113325	-351.112381	-351.155305	35.246	
C	 0.8822162533	-0.5854252189	 1.1939933656	-0.384092
C	-0.0007500971	-0.0141503383	 0.0754183934	-0.246581
C	-1.4429064699	-0.5716702827	 0.0384518054	 0.372561
C	-2.2420876338	 0.0903405022	 1.163508949	-0.468569
C	-2.0819045735	-0.6188012266	-1.4218868206	-0.115554
C	-1.2081808254	-1.8988544731	-1.666812562	-0.221578
C	-1.5790943349	-2.1496606983	-0.1664618171	-0.106379
C	-3.0984417517	-2.2996980221	-0.3179005725	-0.090556
C	-3.4271815569	-1.299241359	-1.1414248318	-0.090619
H	 1.8655865343	-0.1046487553	 1.1909572663	 0.110933
H	 0.4454271588	-0.4304392809	 2.1851387388	 0.118155
H	 1.040928714	-1.6611116339	 1.0663659087	 0.117909
H	-0.0716859943	 1.0742764923	 0.198952239	 0.091544
H	 0.5102959962	-0.1642744893	-0.878330399	 0.09557
H	-2.2807649833	 1.1754053792	 1.0110902695	 0.10779
H	-3.2656817016	-0.2786769092	 1.2230872947	 0.117135
H	-1.7671375713	-0.0813703164	 2.1353235618	 0.110754
H	-2.0574685054	 0.2458978722	-2.0870934501	 0.052158
H	-1.6040343997	-2.618505157	-2.3856422244	 0.090568
H	-0.1502650998	-1.7176146237	-1.8609017225	 0.0942
H	-1.0453593215	-2.8665440529	 0.4582340607	 0.054088
H	-3.721649383	-3.0430832211	 0.158914692	 0.095056
H	-4.3929803132	-0.999271497	-1.5229111251	 0.095507
