17
gdb 53194	3.20416	1.08659	1.00947	0.7353	77.37	-0.2258	0.0483	0.2741	1259.5036	0.135187	-421.771564	-421.762861	-421.761916	-421.806427	30.665	
C	-0.1002538651	 1.4861435748	 0.0779977711	-0.50176
C	-0.0767437486	 0.0309069065	 0.0755124033	 0.115379
C	-0.0577695629	-1.1744487915	 0.0739613624	 0.080588
C	-0.011692271	-2.6036942011	 0.0574443557	-0.333986
C	-0.4399993434	-3.4843759802	 1.245039115	 0.053221
O	-1.2238581917	-2.9218195465	 2.2546232926	-0.256626
C	-2.397617407	-2.3949696469	 1.6483310647	 0.018396
O	-2.5026915197	-2.9409328832	 0.339226028	-0.25661
C	-1.2645849098	-3.4966796362	 0.0099952315	 0.053183
H	 0.7510025098	 1.8946977719	-0.4779988594	 0.149529
H	-1.01382011	 1.8732090785	-0.3872613317	 0.148422
H	-0.0504307499	 1.8861077046	 1.0970299575	 0.148442
H	 0.82162934	-3.0355506863	-0.4946913672	 0.113796
H	 0.1973479177	-4.2848620757	 1.5994327271	 0.11789
H	-3.2739822727	-2.6928193816	 2.2364157097	 0.114607
H	-2.3226822424	-1.3030493082	 1.587394805	 0.117655
H	-1.3401321932	-4.307795869	-0.7034250153	 0.117877
