16
gdb 114937	3.13635	1.1083	0.86856	0.3812	74.38	-0.2521	-0.0363	0.2159	1292.1997	0.123649	-437.858986	-437.850419	-437.849475	-437.892899	31.204	
O	-0.0315351772	 1.3844903128	 0.2750268065	-0.41945
C	-0.0307186431	-0.024766597	 0.2304718349	-0.063912
C	-1.3901551712	-0.5905454838	-0.158840982	 0.05287
C	-1.4957745224	-2.1338568661	-0.0750375832	-0.216811
N	-2.4282570714	-2.3998021978	 1.0282922263	-0.316067
C	-2.8302030748	-1.2631903347	 1.4364002669	 0.254647
O	-2.3610425916	-0.1336192655	 0.8267254019	-0.278214
C	-3.7563438694	-1.043060326	 2.4954522193	 0.272081
C	-4.5356357713	-0.842649716	 3.3872214289	-0.353075
H	-0.7376157648	 1.6412150785	 0.879387115	 0.293701
H	 0.7105203632	-0.3216321689	-0.5200662203	 0.116713
H	 0.2740153684	-0.4676966323	 1.1935770707	 0.095639
H	-1.7028016414	-0.1797099539	-1.1226314934	 0.102431
H	-1.8782168971	-2.5843868102	-0.9967114804	 0.127135
H	-0.5272329892	-2.602504424	 0.1372553239	 0.122252
H	-5.2266931467	-0.6756887751	 4.1769430748	 0.21006
