16
gdb 33580	2.20845	1.535	1.17849	4.0815	73.2	-0.2649	-0.0113	0.2536	1082.5101	0.126425	-396.949802	-396.941451	-396.940507	-396.983791	30.077	
N	-0.2068219249	-1.1949979686	-0.5246451375	-0.32618
C	-0.1442648428	-0.0668068177	-0.2840319728	 0.270543
C	-0.0067899407	 1.3495416063	 0.05596264	-0.032847
C	-0.5468126225	 1.6904841831	 1.4903090256	-0.270259
C	 0.5131574082	 2.679045383	 2.076713086	-0.171562
N	 1.4901143558	 2.9725772044	 1.020878622	-0.281364
C	 1.5084655233	 1.8047512603	 0.1698366703	-0.204959
C	-0.6725284766	 2.1835062171	-0.9529515553	 0.27348
N	-1.1632720224	 2.8953270298	-1.7195422718	-0.326069
H	-1.5454671263	 2.1242444169	 1.4293686986	 0.14614
H	-0.6155866789	 0.7741658059	 2.0791449106	 0.141402
H	 0.0640775849	 3.6031283862	 2.444864701	 0.126666
H	 1.0268534001	 2.2036732703	 2.9189711885	 0.128396
H	 1.1939878519	 3.7819911141	 0.4846185485	 0.242806
H	 2.057880928	 0.9886769659	 0.6519625586	 0.137728
H	 1.955575153	 2.004951753	-0.8041747724	 0.146081
