16
gdb 44630	3.13914	1.70022	1.5428	3.7377	68.55	-0.2552	0.0199	0.2752	901.769	0.125945	-437.830365	-437.823762	-437.822818	-437.861451	26.253	
N	 0.2381567106	 1.0137796367	 0.4757152221	-0.542597
C	 0.0704611402	-0.1589404567	 0.0774747369	 0.461614
O	 0.9692702488	-1.0492934244	-0.5131807739	-0.272794
C	-0.0878387509	-2.0264211212	-0.7497662643	 0.091422
C	-0.2263420196	-3.1194512181	 0.3498049011	-0.113554
C	 0.6961677055	-2.9682239585	 1.5695850077	-0.092127
O	-0.2094863568	-2.0105828001	 2.1834632537	-0.279722
C	-1.1734441204	-2.1735602132	 1.1329187658	 0.112536
C	-1.1012971589	-1.1061539574	-0.0200613809	-0.209529
H	 1.2050581502	 1.3190652403	 0.3538024857	 0.231123
H	-0.1364183469	-2.3170502839	-1.7985939178	 0.099015
H	-0.497189102	-4.1169549885	 0.0079249715	 0.086924
H	 0.7804934817	-3.8745012789	 2.1799730534	 0.107431
H	 1.6865592906	-2.542472897	 1.387533137	 0.126406
H	-2.1707666084	-2.4289493773	 1.4984919908	 0.090844
H	-2.0378194338	-0.7407048918	-0.4355919088	 0.103009
