21
gdb 6746	5.71841	0.77991	0.73257	2.7115	80.48	-0.2468	0.0232	0.2701	1623.2417	0.185914	-366.265115	-366.254779	-366.253834	-366.301283	35.572	
C	-0.0231561104	 1.4394041091	 0.0753652614	-0.248482
O	 0.065851013	 0.0269747008	-0.0601272713	-0.193099
C	-1.107651189	-0.636085975	-0.0229980054	 0.130307
N	-1.1475602023	-1.8825673903	-0.1830436707	-0.212078
C	-2.4412131015	-2.5339914474	-0.1111330824	-0.146454
C	-2.7309571179	-3.3716069887	-1.3700785469	 0.054647
C	-4.0030408356	-4.2044142799	-1.1719218368	-0.390483
C	-2.8255240805	-2.4932038154	-2.6223918668	-0.385603
H	 1.0016161595	 1.8124043765	 0.0884264207	 0.146094
H	-0.5581992295	 1.891745599	-0.7687370858	 0.126871
H	-0.5195977235	 1.7246932092	 1.0111402435	 0.12592
H	-1.9862957931	 0.0028019091	 0.1637837449	 0.070763
H	-2.4322556755	-3.206569236	 0.7570697324	 0.10033
H	-3.2679998611	-1.8157541039	 0.0471971171	 0.071818
H	-1.8812835381	-4.0551051431	-1.4955501932	 0.086181
H	-4.8783792594	-3.5603096197	-1.0230287566	 0.108956
H	-4.202147095	-4.8323195183	-2.0462101756	 0.111166
H	-3.9211805073	-4.8613497347	-0.299226791	 0.109531
H	-2.9904467141	-3.1008963882	-3.518130731	 0.108344
H	-3.6622415639	-1.787109023	-2.5429419977	 0.10089
H	-1.9086030649	-1.91606859	-2.7688498887	 0.12438
