21
gdb 120974	3.49575	0.89551	0.87937	2.8723	77.74	-0.2559	0.0805	0.3364	1421.3706	0.183203	-424.215543	-424.206682	-424.205737	-424.249661	33.359	
O	-0.4838208166	 1.4482269811	 0.5083010977	-0.420023
C	-0.147393524	 0.1042520806	 0.1958246787	-0.08021
C	-1.4402333342	-0.7026365939	 0.1673079888	-0.17453
C	-1.2396716817	-2.1780521217	-0.2159291322	-0.00097
C	-0.5607215804	-3.0219849853	 0.9088185941	-0.257301
C	-1.6950115474	-3.7518652136	 1.5968745642	 0.058325
O	-2.7893115976	-2.8979149779	 1.9648504778	-0.254837
C	-2.8999658927	-3.6784009418	 0.7646394693	 0.058106
C	-2.5917280323	-2.9025619486	-0.4979091469	-0.266632
H	 0.3299739734	 1.9577762384	 0.5582178511	 0.283856
H	 0.3512106308	 0.0372578731	-0.7864662327	 0.077868
H	 0.5521051206	-0.309344113	 0.9398621728	 0.08306
H	-1.9343950289	-0.6352594868	 1.1408985021	 0.12811
H	-2.1067586343	-0.2257076128	-0.5615004431	 0.098653
H	-0.619813413	-2.2085000526	-1.1191460495	 0.06916
H	 0.1321261472	-3.76180748	 0.4897625637	 0.099018
H	 0.0127237444	-2.4036354227	 1.6065018407	 0.10983
H	-1.4965642559	-4.572229892	 2.2827548203	 0.089934
H	-3.6760618818	-4.4400362013	 0.7770821329	 0.090487
H	-3.3876550807	-2.1984762907	-0.7608550153	 0.109881
H	-2.4966460949	-3.6114295187	-1.3296507745	 0.098215
