18
gdb 101933	2.03831	1.46727	1.08305	2.6197	68.58	-0.238	0.0223	0.2603	1182.0862	0.145787	-476.216124	-476.206421	-476.205477	-476.251585	34.299	
C	-0.6634323429	 0.9532898544	 0.21802363	-0.246033
O	 0.0523770246	-0.2625063666	 0.0914847297	-0.245725
C	 0.8218809846	-0.3480823905	-1.0867084123	-0.021527
C	 1.8260707875	-1.4793856903	-0.9395688249	 0.059222
C	 2.2181058788	-2.018613139	 0.365181664	-0.175763
O	 1.3049246362	-2.7268016838	-0.4839051739	-0.24013
C	-0.0196640118	-0.6312399593	-2.3512189595	 0.362199
N	-1.1674362924	-1.3155787717	-2.0987423446	-0.505319
O	 0.3557877094	-0.2842879766	-3.4530263034	-0.365061
H	 0.01659387	 1.8171798927	 0.2222092223	 0.117084
H	-1.3938030582	 1.0821335438	-0.5917393851	 0.126553
H	-1.1928093864	 0.9121621391	 1.1724360963	 0.132376
H	 1.3721878899	 0.5842591915	-1.280080751	 0.098668
H	 2.5158132184	-1.5517243601	-1.7801976778	 0.118769
H	 3.1980209352	-2.4791799838	 0.4801754329	 0.116181
H	 1.7755400353	-1.5969867237	 1.2628029922	 0.130063
H	-1.2904089601	-1.7323744376	-1.1896170461	 0.27578
H	-1.673032238	-1.6940468785	-2.8836406287	 0.262665
