17
gdb 60763	4.20399	0.81672	0.70672	2.3597	74.16	-0.2544	-0.0314	0.223	1532.7837	0.133736	-455.182291	-455.172366	-455.171422	-455.219278	33.457	
C	-0.0520687121	 1.4912075691	-0.0110285718	-0.352735
N	-0.0435890538	 0.0286239561	 0.0275892273	-0.122006
C	 0.1485329136	-0.6110563102	 1.2562980257	 0.099226
N	 0.3133505963	 0.0485426578	 2.3290842786	-0.471686
C	-0.2156636371	-0.7641098186	-1.1022582085	 0.433863
O	-0.2501164951	-1.9785931013	-1.0450706085	-0.356534
C	-0.3716142958	-0.0331478534	-2.4301161586	-0.43753
C	-0.0524618626	-0.928656327	-3.6205903405	 0.169887
O	 0.4466329743	-0.5081541643	-4.6310512049	-0.243546
H	 0.8657355747	 1.886401582	-0.45792786	 0.142269
H	-0.9134726667	 1.860448255	-0.571228811	 0.136765
H	-0.1140069108	 1.8380379427	 1.0193308592	 0.184014
H	 0.1345098805	-1.6945175158	 1.1467704855	 0.149118
H	 0.435097165	-0.5871008158	 3.1147593934	 0.236238
H	-1.4259421733	 0.2684279728	-2.5256257805	 0.164011
H	 0.2238864947	 0.8781237114	-2.5051107213	 0.14827
H	-0.3261282918	-1.9920250004	-3.4894752541	 0.120375
