19
gdb 60851	2.99807	1.09862	0.98974	2.9894	72.49	-0.258	-0.038	0.22	1279.1486	0.154991	-460.15677	-460.14668	-460.145736	-460.192083	36.169	
C	 0.1558795983	 1.2678984397	-0.4567913412	-0.432253
C	 0.2922562913	-0.1610227993	 0.0020237161	 0.052467
O	 1.6106638186	-0.6287723736	 0.3404808897	-0.305918
C	 0.6183616789	-0.5785737435	 1.377854571	 0.317168
C	 0.8586994199	 0.4092469646	 2.4998724743	-0.477997
C	 0.1516008623	-1.9711560865	 1.8451718449	-0.005674
O	-0.5299066457	-2.6935728432	 0.8625544065	-0.430916
C	 1.3600066032	-2.772488344	 2.3133251455	 0.15317
O	 1.5983464638	-3.864290546	 1.8598719355	-0.259826
H	 0.7358221974	 1.9619708205	 0.1540641953	 0.123878
H	 0.503335539	 1.358721155	-1.4912152598	 0.134554
H	-0.8960164319	 1.5727167827	-0.4323048464	 0.125805
H	-0.2750465229	-0.885765215	-0.5778319135	 0.114515
H	 1.3262757186	 1.319853581	 2.124957974	 0.139706
H	-0.0840721968	 0.6739610617	 2.9906939621	 0.129519
H	 1.523535193	-0.0082328028	 3.2639671775	 0.124632
H	-0.4965940021	-1.8215765141	 2.7277763494	 0.094045
H	-0.0101960848	-3.5035689558	 0.7292056472	 0.29828
H	 2.0063558197	-2.3096985414	 3.0833848717	 0.104846
