18
gdb 54608	2.58325	1.44207	0.94176	1.7951	78.59	-0.2085	-0.0261	0.1823	1216.483	0.146332	-439.125266	-439.115583	-439.114639	-439.161709	33.506	
C	 0.0273037012	 1.5051296201	 0.0064025167	-0.486026
C	 0.0353715779	-0.0135404614	-0.0067379569	 0.28937
O	 1.1044085133	-0.6315825733	-0.0555454087	-0.389854
C	-1.2355913124	-0.6958133957	 0.0389989376	 0.088354
C	-1.3479173567	-2.0572160578	 0.0326424077	 0.275798
N	-0.3494417594	-2.9494312595	-0.0174204929	-0.575639
C	-2.8014398553	-2.4413005664	 0.0897117351	-0.144798
O	-3.5170242528	-1.2223755521	 0.1299877886	-0.267993
C	-2.6202746436	-0.1032555958	 0.1005994493	-0.175027
H	 1.0521573348	 1.8766017051	-0.0240286194	 0.136469
H	-0.5288927865	 1.8951966668	-0.8541330156	 0.134339
H	-0.472657319	 1.8816251037	 0.9064647368	 0.133952
H	 0.5889392111	-2.5654782385	-0.0490266457	 0.288007
H	-0.5164100191	-3.9390505817	-0.0093399066	 0.261119
H	-3.0964309045	-3.0346493426	-0.7912497368	 0.113104
H	-3.0230591573	-3.0498612501	 0.9817512427	 0.112872
H	-2.7937843301	 0.5111691194	 0.997984422	 0.102998
H	-2.8671642516	 0.5236979998	-0.7705652639	 0.102956
