21
gdb 109302	3.09925	1.0077	0.78834	0.6031	81.34	-0.2269	0.0348	0.2617	1450.3207	0.182755	-424.238663	-424.22925	-424.228306	-424.272834	35.454	
O	 0.0981395417	 1.400250537	-0.0423569561	-0.415784
C	 0.0067645115	-0.0093570429	 0.0329534481	-0.148731
C	-1.4297475366	-0.4581911159	 0.0297886431	 0.258277
C	-2.4509399396	 0.3991856647	 0.0319689906	-0.123288
C	-3.8973545438	-0.0210984074	 0.0215507451	-0.267575
C	-4.068372392	-1.5077394	-0.3245871334	-0.226532
C	-3.0423644168	-2.3610429636	 0.4235265261	 0.127046
O	-3.172107159	-3.7479281645	 0.1336117125	-0.442315
C	-1.6248084142	-1.9571362625	 0.0245690543	-0.285985
H	 1.0276610813	 1.6406514221	-0.0045518276	 0.288872
H	 0.5305116489	-0.4897825412	-0.8137045867	 0.091561
H	 0.4949496344	-0.3921140013	 0.9475918912	 0.091951
H	-2.2390384944	 1.4631916335	 0.0453032874	 0.102895
H	-4.345990724	 0.1917880352	 1.0038922011	 0.105345
H	-4.4596777525	 0.5966511223	-0.6898650057	 0.104217
H	-5.0854591327	-1.8423834355	-0.0830009192	 0.077675
H	-3.9257313502	-1.6653705083	-1.4006850792	 0.104924
H	-3.1638642931	-2.187058938	 1.5065523903	 0.063545
H	-4.0653555281	-4.0168657846	 0.3708712261	 0.27698
H	-1.4208205144	-2.3684179829	-0.9746312954	 0.115394
H	-0.9047386164	-2.4412060263	 0.6968970872	 0.101529
