20
gdb 40474	3.53228	1.41092	1.26699	1.0989	84.05	-0.2299	0.0892	0.3191	1072.4808	0.172104	-365.903375	-365.896062	-365.895118	-365.935232	29.751	
C	-0.1323352269	 1.3197181016	-0.2079876235	-0.236757
C	 1.2736013035	 0.8971420795	 0.0387022784	-0.236756
N	 0.1769554583	-0.0617182398	 0.1545653428	-0.175449
C	-0.1830326247	-0.4952458528	 1.4635659955	 0.416643
C	-0.2048073058	 0.2349640527	 2.8387174356	-0.324204
C	-0.6871921936	-1.198814562	 3.1316310934	-0.045388
C	-1.4848469089	-1.309020902	 1.7882835198	-0.086952
C	-0.8221387833	-2.6502206853	 1.4141144462	-0.266153
C	 0.2994410222	-1.8453763552	 2.1013445406	-0.086952
H	-0.5988947129	 1.9532365624	 0.5433333632	 0.115026
H	-0.4953467222	 1.466683471	-1.2210784205	 0.116962
H	 1.9540844096	 0.7304708018	-0.7912932754	 0.116962
H	 1.7438555219	 1.2490856471	 0.954400556	 0.115026
H	 0.7603999994	 0.5233455182	 3.2687201505	 0.089661
H	-0.9413716271	 1.034896997	 2.9701399629	 0.089661
H	-0.9848783323	-1.6325639587	 4.0851675408	 0.074271
H	-2.5075880404	-0.9655453447	 1.6210967989	 0.066271
H	-1.1819273174	-3.5396378338	 1.9409257347	 0.086306
H	-0.695188406	-2.8504815222	 0.3474642978	 0.105553
H	 1.3376719066	-2.1214271249	 2.2957633323	 0.066271
