17
gdb 49158	4.25649	1.25285	1.09161	3.5379	81.38	-0.2421	-0.0608	0.1813	1105.6538	0.137489	-384.650159	-384.643404	-384.64246	-384.681461	27.037	
O	-0.0981784284	-0.0086770541	-0.0177289855	-0.284202
C	-0.0141919236	 1.2022499499	-0.0210858649	 0.05324
C	 1.2367304459	 1.9426390909	-0.0012596757	 0.235933
C	 1.421607997	 3.2764226892	-0.0032944122	-0.192824
C	 2.9209001716	 3.4416715631	 0.0233736504	-0.059816
C	 3.5194143069	 2.3090109792	-0.9020333551	-0.036417
C	 4.7181636818	 2.1536222953	 0.0613842987	-0.254293
C	 3.485104506	 2.3166504793	 0.9791578998	-0.036418
C	 2.6484499761	 1.3849987717	 0.0267580747	-0.124844
H	-0.9253656112	 1.8416226207	-0.0403190747	 0.064463
H	 0.6777666253	 4.0625139071	-0.0200522872	 0.122961
H	 3.3690290496	 4.4352494829	 0.0275128854	 0.071881
H	 3.5233151718	 2.3126181276	-1.9949034713	 0.078127
H	 5.2126846815	 1.1790144324	 0.0743624432	 0.099517
H	 5.4503738585	 2.9656293122	 0.071441081	 0.095338
H	 3.449151776	 2.3291332032	 2.0713779189	 0.078127
H	 2.8009182051	 0.3075816694	 0.0339141044	 0.089228
