19
gdb 105719	2.36543	1.44912	1.18882	0.9472	83.72	-0.2481	0.0026	0.2507	1146.2929	0.157607	-385.853443	-385.84429	-385.843346	-385.887296	34.371	
C	-0.2264570929	 1.2224990836	-0.03519241	-0.249489
O	 0.0127266567	-0.163723074	-0.1750707226	-0.267763
C	 0.8815832967	-0.5424603984	-1.2541370405	 0.17917
C	 0.862920376	-2.0960396723	-1.2928264956	-0.257287
C	-0.1776951119	-2.4764960371	-2.3708266518	-0.267855
C	-0.290711578	-1.2174609501	-3.1925671483	-0.069283
C	 0.2989934416	-0.1742468138	-2.6140738747	-0.108238
C	 2.2277670396	 0.0085559153	-1.0459831626	 0.318072
C	 3.3283608041	 0.4636005942	-0.8784504772	-0.488245
H	 0.7074240352	 1.7863856539	 0.0918460765	 0.116684
H	-0.7766331456	 1.6364671026	-0.8918235874	 0.104583
H	-0.8382808891	 1.3417501284	 0.8621808785	 0.125632
H	 1.8517700046	-2.4573988242	-1.5828212674	 0.11708
H	 0.6341765527	-2.4817795428	-0.2981984533	 0.120487
H	 0.1407350494	-3.3390106452	-2.9664474756	 0.107061
H	-1.1491186821	-2.7422958289	-1.934273732	 0.119828
H	-0.8188214452	-1.1831863456	-4.1397820967	 0.100497
H	 0.3473450296	 0.8331735464	-3.0077787634	 0.103709
H	 4.3031361285	 0.858627948	-0.7306664859	 0.195358
