19
gdb 42053	2.95152	1.51396	1.10224	1.4401	70.34	-0.2449	0.0695	0.3143	1093.4158	0.161947	-460.134949	-460.127471	-460.126527	-460.167228	28.932	
C	 0.1343045258	 1.5815004656	 0.1182279799	-0.093829
O	 1.4313967274	 1.4814067841	-0.5068041512	-0.293975
C	 1.3079750108	 0.0454738398	-0.6404907217	 0.130615
C	 2.4677215359	-0.6972419299	 0.0183753683	-0.114494
O	 2.1804738071	-2.0823859254	 0.1418820558	-0.232932
C	 1.4630815031	-2.4303705854	 1.2965767502	 0.012037
O	 0.1092913078	-2.0630430098	 1.2979664469	-0.233286
C	-0.1292271597	-0.6687427123	 1.4316422163	-0.110485
C	-0.05892725	 0.0483599221	 0.0884706222	-0.061505
H	 0.1930766187	 2.0393137691	 1.1145913856	 0.100677
H	-0.5704133484	 2.1573384155	-0.493242753	 0.10576
H	 1.2362433235	-0.2505528748	-1.6947190369	 0.084994
H	 3.367614919	-0.6078301983	-0.5985062171	 0.115514
H	 2.6901218284	-0.2495755779	 0.9982090663	 0.095301
H	 1.47797731	-3.5211828078	 1.3435773512	 0.119335
H	 1.9633636648	-1.9994590223	 2.1835186027	 0.080161
H	-1.1320710015	-0.5640086364	 1.859756551	 0.112552
H	 0.5807001522	-0.2286048155	 2.1498795012	 0.092674
H	-0.8815170251	-0.2910317704	-0.5436565777	 0.090887
