21
gdb 106798	2.38257	1.46643	1.08874	2.7673	78.72	-0.2469	0.0695	0.3164	1183.7668	0.182427	-424.216805	-424.207677	-424.206733	-424.250384	34.731	
C	-0.0045021611	 1.5135788731	-0.0414177457	-0.488677
C	 0.0217347936	 0.0066645062	 0.0369923626	 0.247375
C	 1.2839981681	-0.7819540892	-0.2162503525	-0.364946
C	 0.6515906655	-0.8051747276	 1.1563102032	 0.312347
C	 1.3428713852	-0.2151094231	 2.3491471567	-0.188917
O	 2.2332995437	-1.1978354457	 2.8694372322	-0.421851
C	-0.2946157687	-1.9739253439	 1.386266392	-0.137345
O	-1.1005642206	-2.0596258741	 0.2149210342	-0.256742
C	-1.2587001301	-0.7462854805	-0.3031648071	-0.130979
H	 0.937686096	 1.9536118872	 0.297749424	 0.119611
H	-0.1642562026	 1.846944301	-1.0736530304	 0.122574
H	-0.8123385895	 1.9345137164	 0.5688735188	 0.11658
H	 1.2279904349	-1.6801491229	-0.8235590216	 0.120374
H	 2.2054615722	-0.2181507677	-0.3212944426	 0.106837
H	 1.885748347	 0.6981456729	 2.0612404639	 0.083565
H	 0.595185373	 0.0721605769	 3.1074400942	 0.084539
H	 2.6182078468	-0.8526824574	 3.6807227439	 0.286595
H	 0.2086120489	-2.9366897242	 1.5114795743	 0.119305
H	-0.9098048497	-1.7840871435	 2.2829777384	 0.08152
H	-2.1222848446	-0.2336416555	 0.156142891	 0.082799
H	-1.448564448	-0.8380479884	-1.3785588893	 0.105438
