13
gdb 132306	2.04271	1.94916	0.99743	2.5752	65.48	-0.2246	-0.0219	0.2026	1066.369	0.09118	-490.281158	-490.273416	-490.272472	-490.314257	28.083	
N	 0.0108114763	 1.3150998538	 0.0232882669	-0.548038
C	-0.022798899	-0.0319761682	 0.0065752715	 0.439388
N	-1.1821598199	-0.6409926467	 0.0064580271	-0.373871
C	-1.2001943417	-2.0140800778	-0.0031037176	 0.409672
N	-2.2019695902	-2.8009369917	-0.0040921894	-0.574396
N	 0.0835179395	-2.6377204285	-0.0139287837	-0.371876
C	 1.1927192066	-1.8953448725	-0.0149437801	 0.418095
F	 2.3112428916	-2.5883499023	-0.0273988186	-0.046112
N	 1.240627809	-0.6149933381	-0.0052395005	-0.410791
H	 0.8952279369	 1.7885164354	-0.0080080078	 0.275582
H	-0.8523148372	 1.8281380404	 0.0060675447	 0.274061
H	-3.0549327755	-2.2447852406	 0.0042964274	 0.223111
H	 0.1175529837	-3.6466084933	-0.0221155199	 0.285174
