25
gdb 122445	4.2786	0.63821	0.61029	0.9257	91.89	-0.2462	0.0862	0.3323	1996.0815	0.226185	-389.481747	-389.470491	-389.469547	-389.51869	40.797	
C	-0.1268467205	 1.4885722254	-0.3711486021	-0.383944
C	-0.0493099699	 0.0360221408	 0.0683542603	-0.022578
O	-1.3387967364	-0.5307340851	-0.0171606566	-0.242287
C	-1.3751203774	-1.8914736541	 0.3681985727	-0.083921
C	-2.8003734952	-2.3704539919	 0.2907041235	-0.04067
C	-3.3894462359	-2.8534105874	-1.015188963	-0.319219
C	-3.189891737	-3.8269631881	 0.1236641523	 0.33512
C	-2.1306377046	-4.9066861356	-0.0124514191	-0.454643
C	-4.4249989751	-4.288667196	 0.8767587494	-0.446085
H	 0.8597747531	 1.9584700786	-0.315796583	 0.111828
H	-0.4883166269	 1.558322054	-1.4010423744	 0.125837
H	-0.8145258562	 2.0470043282	 0.2704165841	 0.125338
H	 0.6573784031	-0.5227963125	-0.5701403407	 0.080646
H	 0.3325747805	-0.035638206	 1.1018731092	 0.081415
H	-0.7185296094	-2.4859999997	-0.2870714949	 0.07945
H	-0.9848877347	-2.0005337986	 1.3958678923	 0.081122
H	-3.4663496825	-1.7853040819	 0.9201787908	 0.083799
H	-4.3981146783	-2.547702552	-1.273028612	 0.105348
H	-2.7175089058	-2.9233093418	-1.8654038586	 0.105401
H	-1.2749944973	-4.5826014266	-0.6097916632	 0.114823
H	-1.7555778409	-5.2232026145	 0.9683346945	 0.112625
H	-2.5534581456	-5.7920455048	-0.5020278461	 0.113878
H	-4.895238299	-5.1419637489	 0.3732510911	 0.112043
H	-4.1727573135	-4.6046367942	 1.8962608587	 0.112015
H	-5.1713960145	-3.4917275672	 0.9495281649	 0.11266
