21
gdb 111835	2.38121	1.52256	1.41614	0.8756	83.96	-0.2132	0.0278	0.241	1085.051	0.184235	-387.080583	-387.072217	-387.071273	-387.11335	32.542	
C	-0.3803956321	 1.264718602	-0.2989161536	-0.231799
O	 0.5002852578	 0.2112187001	 0.0427882557	-0.225976
C	 0.9294236935	-0.5124461667	-1.0586197342	 0.113842
C	 1.3537745262	-1.930265661	-0.8728908015	-0.099356
C	 1.2311179521	-2.6808833826	 0.443244624	-0.21707
C	-0.0937398596	-2.4545239663	 1.2034027212	-0.253821
C	-1.2870990355	-2.393983407	 0.2896714045	-0.071064
C	-1.202320943	-2.0270532	-0.9919290019	-0.041343
C	 0.0684947545	-1.6428776799	-1.6444369342	-0.14103
H	 0.0956792105	 1.974849597	-0.992208663	 0.103594
H	-1.3003390248	 0.8835210791	-0.7612195985	 0.115756
H	-0.6308430931	 1.7880090407	 0.62669543	 0.125239
H	 1.4835033897	 0.0855525298	-1.7865964702	 0.080262
H	 2.2104087584	-2.232636221	-1.469471422	 0.084977
H	 1.32370776	-3.7490808238	 0.2101360806	 0.101685
H	 2.0747268901	-2.4316828671	 1.0964304754	 0.101243
H	-0.2246847364	-3.2534784082	 1.9431234488	 0.089773
H	-0.0276666831	-1.5180061606	 1.7684864411	 0.127325
H	-2.2555930549	-2.6475824662	 0.7128309099	 0.079825
H	-2.0978469982	-1.991851269	-1.6070113313	 0.079162
H	 0.093435308	-1.7344937195	-2.7260765708	 0.078777
