14
gdb 27386	2.09401	1.88082	0.99221	7.2121	68.84	-0.2261	-0.0054	0.2206	1101.7359	0.10248	-470.072031	-470.064152	-470.063207	-470.104248	30.132	
N	 0.1468066524	 1.3436552734	 0.1805894699	-0.574881
C	-0.0297851026	-0.0120169827	 0.0523759426	 0.438894
C	-1.1826749617	-0.7065839475	 0.0241456648	-0.345725
C	-1.1626696812	-2.1669416544	-0.0225877866	 0.378965
O	-2.1664809771	-2.8489804585	-0.0391628061	-0.368278
N	 0.1209636522	-2.7636247561	-0.048822317	-0.383447
C	 1.1534506423	-2.0170591211	-0.045952332	 0.481677
N	 2.4248620435	-2.4950754109	-0.1418553566	-0.562353
O	 1.180473235	-0.6437945642	 0.0096858377	-0.250526
H	 0.9978444383	 1.7034697895	-0.2270101635	 0.263151
H	-0.6687823656	 1.9000551624	-0.0250623654	 0.26994
H	-2.1374861512	-0.1988867357	 0.0459339972	 0.104379
H	 2.515602023	-3.4858176389	 0.0141117611	 0.280997
H	 3.1728582726	-1.9073685152	 0.1880691639	 0.267207
