21
gdb 86354	2.54513	1.17935	0.90544	1.1736	84.13	-0.2415	0.052	0.2935	1346.3293	0.179974	-387.048777	-387.03875	-387.037805	-387.084115	37.038	
C	-0.7912117729	 1.0704538896	-1.2031298676	-0.409396
C	 0.0992118191	-0.0962689002	-0.8283470069	 0.163769
O	 1.4570738541	 0.0694111672	-1.3042925731	-0.311553
C	 2.0061305346	-0.3711333187	-0.0427099307	 0.142474
C	 3.1508127134	 0.5034862901	 0.4296911808	-0.405277
C	 0.6048499072	-0.3090632235	 0.627320639	-0.082323
C	 0.3675876213	 0.8159816729	 1.6463908354	-0.385993
C	-1.0029782979	 0.8418964627	 2.1456775698	 0.292473
C	-2.1345119821	 0.8377354724	 2.5518401985	-0.428347
H	-0.3912411875	 2.0189619981	-0.834995515	 0.117607
H	-0.8620081233	 1.1379399869	-2.2934337654	 0.124814
H	-1.7977244229	 0.934052853	-0.7972776689	 0.130362
H	-0.3305418403	-1.0254205544	-1.2319132434	 0.070912
H	 2.3566053903	-1.4116878674	-0.1238664178	 0.069409
H	 2.8484883812	 1.5491805648	 0.5307396003	 0.119961
H	 3.5381508928	 0.1519807462	 1.3922000817	 0.115935
H	 3.9670672831	 0.4594835527	-0.2981223091	 0.127723
H	 0.282967556	-1.2533581733	 1.0713392851	 0.083251
H	 1.0544243809	 0.6783999174	 2.4915878437	 0.132577
H	 0.617115925	 1.7905666161	 1.2121168484	 0.136612
H	-3.1314738222	 0.8463907871	 2.9168727854	 0.195011
