17
gdb 27354	1.94277	1.82079	0.95106	7.8442	79.08	-0.2223	-0.015	0.2073	1212.4204	0.136321	-418.087067	-418.07835	-418.077406	-418.120683	31.836	
C	-0.0173261993	 1.5090898888	 0.0848858908	-0.497623
C	-0.000484361	 0.0156843663	-0.0378018737	 0.378139
C	-0.0161175311	-0.6814063519	-1.1921796094	-0.300111
C	 0.0031455515	-2.1482999351	-1.1980040734	 0.373902
O	-0.0102555556	-2.8042906996	-2.2214407328	-0.367623
N	 0.038867676	-2.7841326269	 0.0692205529	-0.345526
C	 0.0525238218	-2.0735186993	 1.1424895644	 0.385729
C	 0.089952978	-2.7264778443	 2.4978490178	-0.488592
N	 0.034410161	-0.6979752817	 1.1456304995	-0.388831
H	 0.8746212391	 1.8729376192	 0.6088973431	 0.141304
H	-0.0461745128	 1.9710619118	-0.9025822837	 0.154214
H	-0.8933983511	 1.8497003899	 0.649700775	 0.141205
H	-0.0434000644	-0.1722245471	-2.1471958582	 0.109901
H	 0.1041572011	-3.8070025252	 2.3655983765	 0.169929
H	 0.9814877018	-2.4213532931	 3.0576218747	 0.137839
H	-0.7877741956	-2.449136887	 3.0928156125	 0.138055
H	 0.0467488007	-0.2041501945	 2.0240214441	 0.258089
