11
gdb 21461	6.38673	1.47909	1.20096	4.7118	55.99	-0.2611	-0.0667	0.1944	898.2312	0.072809	-426.837224	-426.830677	-426.829732	-426.868581	22.859	
N	 0.2553805026	 1.2882940301	 0.0044414556	-0.39982
C	 0.0627752102	 0.0376391249	 0.0015075949	 0.075388
N	-1.2047572854	-0.5262208771	 0.0113819449	-0.372896
C	-2.4109103502	 0.1188085149	 0.0254008721	 0.549928
N	-2.6641480285	 1.4009481465	 0.0325968672	-0.164822
O	-4.0371628594	 1.4379200379	 0.0459450716	-0.137077
N	-4.5367725013	 0.1617651569	 0.0458510757	 0.05476
N	-3.5694484904	-0.6440981652	 0.0337386936	-0.23202
H	 1.251369304	 1.4963366192	-0.0042133557	 0.237954
H	 0.8308747076	-0.7435845682	-0.0087587812	 0.108712
H	-1.2767953093	-1.5310810599	 0.0083465513	 0.279894
