23
gdb 102675	3.1474	0.73576	0.62296	1.4879	89.16	-0.2461	0.0595	0.3056	1838.8662	0.201984	-388.254498	-388.24298	-388.242035	-388.292076	40.634	
C	-0.5589752543	 1.1667236924	 0.3305720344	-0.393439
C	-0.1935580173	-0.286151755	 0.0198875148	-0.17127
C	 0.622868687	-0.4649900041	-1.2660586293	 0.115267
C	 0.9743953062	-1.9369651	-1.5039228561	-0.176834
C	 1.8160607288	-2.1550540046	-2.7758608839	-0.367896
C	 2.1524527551	-3.5550140643	-3.0011974713	 0.292468
C	 2.4169601355	-4.7164608443	-3.1636012091	-0.436033
O	-0.1267960962	 0.0109384053	-2.3877417396	-0.252862
C	 0.3926374779	 1.1585057345	-3.0222001526	-0.23686
H	 0.3354079928	 1.7868840874	 0.4602855958	 0.108978
H	-1.1574982934	 1.5975061376	-0.4768079104	 0.12952
H	-1.1439362737	 1.2342460601	 1.2528400139	 0.112819
H	 0.3767979093	-0.7150253798	 0.8533536005	 0.093587
H	-1.1087384918	-0.8837750804	-0.0742367059	 0.104938
H	 1.5554074233	 0.1166094333	-1.1828840406	 0.063428
H	 1.5161756492	-2.3245937526	-0.6343587926	 0.105292
H	 0.0465371167	-2.5138775416	-1.5863845336	 0.116345
H	 1.2586145175	-1.765105153	-3.6349305934	 0.143468
H	 2.7409210447	-1.5656141631	-2.7115050479	 0.120887
H	 2.6555078077	-5.7389923433	-3.3196704501	 0.190856
H	 0.4302506185	 2.0276558873	-2.3500636506	 0.107616
H	 1.40402591	 0.9887389537	-3.4217635287	 0.103504
H	-0.2746981837	 1.3927197944	-3.8562884337	 0.126222
