20
gdb 27278	2.9896	1.54874	1.05305	2.0095	87.3	-0.1875	0.055	0.2425	1164.6599	0.173884	-366.070396	-366.062242	-366.061298	-366.103363	31.143	
C	-0.0943515775	 1.5272627547	 0.0304640663	-0.501335
C	-0.0441016193	 0.0285762659	-0.0036121397	 0.093904
C	 0.0964421203	-0.7754827348	-1.1147468251	 0.292413
C	 0.3068074139	-0.7079082552	-2.5985457012	-0.351703
C	 0.0219643982	-2.1735566935	-3.0362400056	-0.208762
C	 0.3166995612	-3.0356085931	-1.7842326087	-0.177432
N	 0.0879456937	-2.0877024863	-0.7089030462	 0.005145
C	-0.0416357044	-2.1579364255	 0.6506306337	-0.14298
C	-0.1335983562	-0.8613210347	 1.1136612093	-0.233384
H	 0.7661944905	 1.9559856092	 0.5590052983	 0.120707
H	-0.0963525879	 1.9467105166	-0.9803718466	 0.112044
H	-0.9938846879	 1.8935135442	 0.5393240691	 0.120331
H	-0.3534626119	 0.0030398513	-3.1041130397	 0.113943
H	 1.3363931201	-0.4183869189	-2.8497383569	 0.110983
H	-1.0341731555	-2.2757582482	-3.3021109828	 0.117031
H	 0.6144756661	-2.4852463249	-3.8991562314	 0.105136
H	-0.3431280859	-3.9045351188	-1.7018516053	 0.1168
H	 1.3539044664	-3.3971466292	-1.772917595	 0.113224
H	-0.0752689244	-3.1026385854	 1.1694317991	 0.109044
H	-0.2698128596	-0.5723763034	 2.1461434585	 0.084892
