17
gdb 17396	4.81215	1.637	1.52537	2.7922	67.56	-0.2337	0.0729	0.3066	869.8767	0.143348	-363.785436	-363.778622	-363.777678	-363.816751	26.097	
C	 0.0364388913	 1.5123103264	-0.1726036997	-0.124925
O	 1.4233105287	 1.555767933	 0.237593097	-0.277541
C	 1.4299408279	 0.1417005242	 0.5089745735	-0.145066
C	 0.0025906271	-0.0189822903	-0.0459339648	 0.3386
C	-1.0865892609	-0.834316261	 0.7257165431	-0.315127
C	-1.2966069953	-1.6752613352	-0.5381675991	-0.032759
N	-1.6853827454	-0.7182852226	-1.6033085609	-0.337661
C	-0.2508607234	-0.9076896503	-1.2650132796	-0.136874
H	-0.6129429608	 2.051165254	 0.5299059382	 0.098595
H	-0.1152678706	 1.9130459921	-1.1812251843	 0.108728
H	 2.2273414492	-0.3822887975	-0.0347788908	 0.098393
H	 1.5326274434	-0.0732323977	 1.5821973244	 0.094259
H	-0.6530620544	-1.4013856673	 1.554207416	 0.104708
H	-1.9614045572	-0.2795171056	 1.0753251106	 0.108995
H	-1.5708108042	-2.7204909446	-0.6060734194	 0.095462
H	-1.8654280522	-1.2650261014	-2.4456425333	 0.228973
H	 0.4649672069	-1.2173889865	-2.017783221	 0.093242
