14
gdb 8585	5.3087	1.84638	1.74567	2.4535	64.55	-0.2442	-0.0169	0.2273	761.2064	0.107533	-378.54756	-378.541614	-378.54067	-378.57737	23.975	
N	 0.0378354059	 1.3237095722	-0.3272688757	-0.53232
C	-0.0094397136	 0.1178500677	-0.0060712144	 0.366699
O	 1.0520855417	-0.7794210447	 0.3217680037	-0.328408
C	-0.0070522129	-1.6981888314	 0.8108450137	 0.324359
C	-0.9150111125	-2.9765018922	 0.8069763633	-0.238359
N	-1.8593901509	-1.8022525382	 1.2164882937	-0.158713
C	-0.7120357176	-1.3365450914	 2.1213854019	-0.201276
C	-1.0669536184	-1.0064273253	 0.0568199276	-0.093789
H	 0.9982209461	 1.6727342099	-0.3436407809	 0.241809
H	-1.1565558919	-3.4270663932	-0.1556685978	 0.130733
H	-0.8029760798	-3.7118576621	 1.6063871159	 0.126608
H	-0.5597571807	-1.9738673287	 2.9935800647	 0.112221
H	-0.7786324815	-0.2796754719	 2.3861534716	 0.131858
H	-1.3704979939	-1.3538246207	-0.9299153272	 0.118578
