16
gdb 80818	2.03538	1.68456	1.22823	2.9389	72.99	-0.2457	0.0183	0.264	1058.4703	0.123328	-437.773455	-437.765293	-437.764349	-437.805879	31.93	
O	 0.1438388791	 1.4249551549	-0.1111200009	-0.445168
C	 0.1070197912	 0.0468871773	-0.0466388393	 0.179745
C	-0.0050406001	-0.6466894345	 1.3471593983	-0.124206
N	-1.4128833878	-0.0703569578	 1.4067881521	-0.388622
C	-1.3003070721	-0.6713838693	 0.0052856853	 0.154541
C	-2.3680675274	-0.6644316648	-0.9444421252	 0.037338
C	-3.2510151788	-0.684684579	-1.7619027502	-0.360593
C	-0.5639630045	-1.9009019036	 0.6495278606	 0.096757
O	 0.3345418647	-2.6713518088	-0.0912371806	-0.427487
H	-0.5214532155	 1.7324962523	 0.5226105411	 0.294135
H	 0.8270729995	-0.3706314619	-0.745501615	 0.113326
H	 0.6723407894	-0.5851343158	 2.1978423205	 0.094652
H	-2.0171639317	-0.6564805181	 1.9917812939	 0.216595
H	-4.0301564529	-0.6873801352	-2.4836819788	 0.18654
H	-1.2280075605	-2.5079707735	 1.2810810187	 0.077421
H	-0.1670666726	-3.2867117721	-0.6364597906	 0.295024
