22
gdb 117162	3.41153	0.77996	0.67891	2.0658	80.63	-0.2333	0.0348	0.2682	1718.3845	0.1919	-441.511838	-441.500407	-441.499463	-441.549875	39.173	
C	-0.0628871645	 1.6218511228	-0.0163048867	-0.377423
C	-0.073091855	 0.0907549493	-0.0059980223	-0.1486
N	-1.4218588109	-0.4764900243	 0.0123742292	-0.085477
C	-2.0466614547	-0.7065996005	-1.2757350311	-0.346585
C	-2.0081777415	-0.699921486	 1.2301875614	 0.423239
O	-1.4275978641	-0.4292588239	 2.2734576898	-0.396549
C	-3.4078362558	-1.3071348285	 1.2511056936	-0.319567
C	-3.8835557429	-1.5536925963	 2.6769010735	-0.074715
O	-5.1888177394	-2.1105429882	 2.5839173851	-0.430142
H	 0.9656875246	 1.9943321929	-0.0574708623	 0.116173
H	-0.6000243328	 2.0262178436	-0.8807754047	 0.11176
H	-0.5303742609	 2.0044086605	 0.8943948285	 0.143039
H	 0.4403818407	-0.3035681992	-0.8905028395	 0.095457
H	 0.446546341	-0.2732199291	 0.8818712735	 0.139067
H	-3.0688894843	-1.0597628487	-1.158979849	 0.144849
H	-2.0769654198	 0.2173837537	-1.867077504	 0.12846
H	-1.4897058783	-1.4558246245	-1.8540879623	 0.126667
H	-4.1223507403	-0.6428714208	 0.7501474848	 0.128985
H	-3.4289809845	-2.2533617764	 0.698147841	 0.127595
H	-3.1861035151	-2.2313142864	 3.1875167732	 0.102933
H	-3.8806105439	-0.6085554806	 3.2355195641	 0.10475
H	-5.5066957877	-2.2676601895	 3.4774353043	 0.286084
