21
gdb 114263	4.06278	1.15402	1.09579	1.7168	84.19	-0.2264	0.0705	0.2969	1215.7425	0.182002	-386.965806	-386.95769	-386.956746	-386.998254	32.579	
C	 0.1966972053	 1.7290396896	-0.0167005088	-0.379593
C	 0.251828259	 0.2061091502	-0.1815855715	-0.192293
C	 0.6996586632	-0.5087385629	 1.0896859483	 0.011675
C	-0.3257718276	-0.5768176289	 2.3159904759	-0.352553
C	-0.4568481586	-2.0646529944	 1.9836076968	 0.382433
C	-0.4713837533	-3.6094541438	 2.099761037	-0.312154
C	-0.1654848121	-3.157501598	 0.6075140649	 0.025182
O	-1.2628760864	-2.2020427778	 0.7212609062	-0.330839
C	 0.8247314862	-2.0890717796	 1.1479676364	-0.074349
H	 1.1752456897	 2.1382482479	 0.2603272987	 0.108022
H	-0.1158113031	 2.214895016	-0.9463562654	 0.111712
H	-0.5155781831	 2.0215149599	 0.7628175537	 0.115098
H	-0.7226016101	-0.1789263521	-0.4890622263	 0.123768
H	 0.9576476367	-0.0475110773	-0.9836527421	 0.090935
H	 1.6540221057	-0.0807744098	 1.4144852877	 0.072439
H	 0.1657646075	-0.3813856948	 3.2720517405	 0.109361
H	-1.2489527936	 0.0042274338	 2.2481047456	 0.116773
H	 0.3310452404	-4.0718953767	 2.6804405653	 0.100774
H	-1.437939398	-4.0988062757	 2.23373249	 0.110938
H	-0.1381655545	-3.793384434	-0.282518948	 0.090224
H	 1.7464576668	-2.4526841516	 1.606456165	 0.072448
