19
gdb 115355	2.28432	1.49647	1.20118	1.7455	67.08	-0.2604	0.0692	0.3296	1118.4637	0.159166	-497.293092	-497.28397	-497.283026	-497.327694	33.305	
C	 0.0340889605	 1.0735925639	-0.5453136298	-0.24777
O	-0.2032667171	-0.3206358488	-0.4424617695	-0.268371
C	-1.3729995024	-0.6569713895	 0.2712661081	 0.179523
O	-2.5506011195	-0.3046148395	-0.3871255536	-0.259284
C	-2.8799019487	-1.3200320375	-1.3549275528	-0.097793
C	-2.1672984299	-2.6148529465	-0.9262233384	 0.075815
O	-1.2787785689	-3.0390462145	-1.9328154035	-0.440791
C	-1.3902790543	-2.1945249637	 0.3649187593	 0.065452
O	-0.105236193	-2.7710434131	 0.4286636603	-0.444848
H	 0.9521126235	 1.2015243311	-1.1219031333	 0.132987
H	-0.7933970261	 1.5755046405	-1.0583375126	 0.13509
H	 0.1646448169	 1.5269252693	 0.4480723825	 0.113261
H	-1.3810016686	-0.136069557	 1.2382377373	 0.078004
H	-3.9691811972	-1.4038920164	-1.3642193584	 0.108982
H	-2.5282303948	-1.0350741437	-2.3518928553	 0.120932
H	-2.8917677056	-3.4079437186	-0.6944126271	 0.070128
H	-0.5318923314	-3.4347691688	-1.459567862	 0.283079
H	-1.948600206	-2.4945757854	 1.2560607693	 0.094694
H	 0.4905518026	-2.0953493518	 0.0709868394	 0.300909
