16
gdb 10867	3.09686	2.02202	1.59679	2.7636	65.19	-0.2346	0.0059	0.2405	845.8651	0.129616	-383.707113	-383.699513	-383.698568	-383.738632	28.76	
C	 0.0265723379	 1.4906250142	 0.0246120215	-0.52266
C	 0.0106608319	-0.0088262189	-0.0073964867	 0.161346
C	 0.567866751	-0.9839304694	-1.1218421066	-0.271479
C	 0.0086465165	-1.9718873539	-0.0388378725	-0.236493
C	 0.6540398663	-0.9998441655	 1.0209906713	 0.115734
O	 2.0525918432	-0.9063119159	 1.088994596	-0.436849
C	-1.167594962	-0.9947379863	 0.0141967214	 0.417672
O	-2.3612390836	-0.9883944047	 0.0217165753	-0.328928
H	 1.0525054788	 1.8707240048	 0.0537359754	 0.135585
H	-0.4670260646	 1.9047516945	-0.8601051579	 0.131615
H	-0.5008771048	 1.8657142729	 0.9077558208	 0.130978
H	 0.0672532307	-0.9691738905	-2.0909729963	 0.110502
H	 1.6521036783	-0.9810732513	-1.2085804648	 0.128853
H	 0.0146737267	-3.059298624	-0.0503081833	 0.089459
H	 0.205320521	-1.0162115565	 2.0218125029	 0.082971
H	 2.3828740026	-1.6687265393	 1.5743260134	 0.291694
