15
gdb 4676	5.95977	1.32688	1.09265	2.0025	81.59	-0.1934	0.0027	0.196	1053.0685	0.11893	-325.544761	-325.537005	-325.536061	-325.576717	28.927	
C	 0.0014611168	 1.4818831011	 0.1084114692	-0.512799
C	-0.0018316738	-0.0028277574	-0.0450997233	 0.299975
C	-0.0465002809	-0.7963735921	-1.1765012127	-0.20294
C	-0.0249153159	-2.1498755117	-0.7645855048	-0.246006
C	 0.0327501125	-2.1654607357	 0.6200734369	 0.16555
N	 0.0455571898	-0.8439921437	 1.0336155419	-0.352611
C	 0.0739349965	-3.232040197	 1.5370654439	 0.260859
C	 0.1097945675	-4.1344847907	 2.3365274084	-0.460279
H	 0.9122820415	 1.8443913943	 0.6010368168	 0.131211
H	-0.0542864283	 1.9567274232	-0.8735243935	 0.140575
H	-0.8523308325	 1.8378100617	 0.6982197948	 0.130797
H	-0.0900370696	-0.4305581355	-2.1913351621	 0.095213
H	-0.0485212585	-3.0262619107	-1.3928370216	 0.101309
H	 0.0847031908	-0.5589164263	 1.9975413438	 0.261956
H	 0.1408916441	-4.9377141095	 3.0299783624	 0.187192
