21
gdb 67877	2.67961	1.97539	1.33261	0.1916	87.6	-0.2285	0.0215	0.2499	1016.9117	0.185066	-349.923111	-349.915867	-349.914923	-349.954143	30.88	
C	-0.0145281612	 1.557967913	-0.1237271483	-0.504706
C	-0.0094958787	 0.0371967835	 0.0058185594	 0.355188
C	 0.2303197677	-0.5943776663	-1.3444307941	-0.109931
C	 0.2784099726	-1.9148505912	-1.490278567	-0.089927
C	 0.08760742	-2.7710213617	-0.2738382142	-0.314068
C	-0.1369904808	-1.9118517679	 0.9627856881	 0.019057
C	 0.7514145379	-0.6445773794	 1.2101628711	-0.090911
C	-0.3713992426	-0.1565700398	 2.1635123351	-0.25666
C	-1.100406711	-0.6773942856	 0.8966166644	-0.090906
H	 0.9424694902	 1.9044479863	-0.5315440346	 0.116274
H	-0.7954932477	 1.8736446393	-0.8256179106	 0.116276
H	-0.1827882315	 2.0862108602	 0.8153701512	 0.115419
H	 0.3622417799	 0.0716838822	-2.193214516	 0.077086
H	 0.4499189383	-2.3858662776	-2.4538739494	 0.084841
H	-0.7631172751	-3.4544616207	-0.4129634677	 0.106299
H	 0.9597144437	-3.4239591155	-0.1212621464	 0.106299
H	-0.2770953158	-2.5305198841	 1.8550167178	 0.058936
H	 1.8303051585	-0.6249807068	 1.3833313361	 0.062031
H	-0.5143761183	-0.75113614	 3.070171927	 0.086838
H	-0.4287238055	 0.9072007477	 2.3907333276	 0.090535
H	-2.1761839806	-0.6959686255	 0.7049521107	 0.062031
