16
gdb 1886	5.46651	2.11473	1.68252	1.1078	61.96	-0.2397	0.0312	0.2709	778.6217	0.137115	-325.81005	-325.802785	-325.801841	-325.841588	25.863	
C	-0.0037202612	 1.5017242103	 0.0712883617	-0.385659
C	-0.0066145107	-0.0233694619	-0.0252038537	 0.030252
C	 0.8538385313	-0.5844915973	-1.1929676515	-0.120658
O	 1.8011609524	-1.4609944863	-0.5477821001	-0.25437
C	 1.5374893496	-1.378650803	 0.7882926124	 0.404565
C	 2.4321430057	-2.2019921233	 1.6502731231	-0.47078
N	 0.5828106981	-0.637300403	 1.1779968524	-0.311309
H	 1.0202674451	 1.8796327303	 0.1606765211	 0.117666
H	-0.4608779756	 1.950433639	-0.8172667324	 0.110391
H	-0.563931241	 1.8282309618	 0.9512558873	 0.130318
H	-1.0451395607	-0.3665162565	-0.1110233047	 0.085463
H	 0.2835488295	-1.168689223	-1.9202595239	 0.114823
H	 1.410997598	 0.1951279494	-1.7237695329	 0.110642
H	 2.3547474358	-3.2586780379	 1.3754042816	 0.144117
H	 3.4758315733	-1.9052503715	 1.5066402299	 0.143649
H	 2.1543817105	-2.0743524472	 2.6957845598	 0.15089
