19
gdb 76817	2.88792	1.56642	1.34375	2.4312	76.59	-0.23	0.0507	0.2807	1014.6577	0.15966	-422.898839	-422.891054	-422.89011	-422.930629	31.571	
O	 0.3317567992	 1.4153261637	 0.0635361933	-0.423575
C	 0.0840578832	 0.0302654276	-0.0545363199	-0.005079
C	 0.2848863903	-0.6513350525	 1.3757550277	 0.024773
O	 1.0392293071	 0.0411951222	 2.3181706977	-0.42599
C	-1.2626611672	-0.6957075795	 1.4669712167	 0.259317
C	-2.6404618976	-1.432676593	 1.4733804957	-0.311747
C	-2.7848746185	-0.1690918916	 0.516225036	-0.095486
C	-2.0628321905	 0.6439799452	 1.6096954762	-0.25311
C	-1.3818233364	-0.5662117545	-0.06569431	-0.050449
H	 0.0630821074	 1.8477717684	-0.7529411505	 0.293455
H	 0.6998302756	-0.4015440274	-0.8540583868	 0.077999
H	 0.7163479522	-1.6506817574	 1.2613888871	 0.095046
H	 0.89938124	 0.9807991727	 2.1458259918	 0.296218
H	-2.6673940688	-2.4144214903	 0.9933697626	 0.095985
H	-3.2413411901	-1.4112596711	 2.3879368388	 0.094647
H	-3.6900031317	 0.109529127	-0.0324118034	 0.067404
H	-2.5960521651	 0.7693686993	 2.555910639	 0.087184
H	-1.571495382	 1.5621658424	 1.2987022256	 0.107051
H	-1.3729327971	-1.5071612713	-0.625296968	 0.066359
