15
gdb 44588	3.50397	1.83779	1.47482	4.7845	72.3	-0.1983	-0.027	0.1712	870.5301	0.114811	-416.744409	-416.737937	-416.736993	-416.775074	26.178	
N	-0.2111627921	 1.2019600427	 0.340178054	-0.546661
C	-0.1861392297	 0.0280878999	-0.1080955738	 0.400415
O	 0.9612236874	-0.8014176483	-0.0700378262	-0.262534
C	 0.7287622059	-1.9475913518	-0.8843354592	 0.082454
C	-0.3905624559	-3.0295388291	-0.722089986	-0.057213
N	-1.3593215454	-2.9328411594	 0.3569232059	-0.252135
C	-1.76739	-1.6354871573	 0.410554915	 0.012854
C	-1.2553810221	-0.8779971722	-0.621847281	-0.150976
C	-0.5585253069	-1.8317317748	-1.6042351461	-0.157392
H	 0.6986783566	 1.4535219949	 0.7306383949	 0.223987
H	 1.6465817729	-2.2954732646	-1.3441213644	 0.111433
H	-0.160887887	-4.0298676875	-1.0706653343	 0.106231
H	-1.892417238	-3.730545127	 0.6733411332	 0.254258
H	-2.254453588	-1.2606249951	 1.3039578986	 0.143369
H	-0.7129933676	-1.7768928403	-2.6774747706	 0.091909
