16
gdb 24381	3.56274	1.62532	1.13151	1.6961	74.81	-0.2263	0.0083	0.2346	1020.5534	0.127909	-400.802616	-400.796043	-400.795099	-400.833623	26.009	
C	-0.0393548634	 1.4835045078	-0.1435204335	-0.404213
C	 1.3423182317	 2.0493239811	 0.1084932449	-0.051153
C	 2.4321314101	 1.3270517647	 0.3754647298	-0.041642
C	 2.4841830049	-0.1806311229	 0.4741801098	-0.396529
C	 1.1291361899	-0.7495611674	 0.2277124423	 0.216984
C	 0.0434423809	 0.0076439792	-0.0404397142	 0.308435
O	-1.0267589707	-0.8276417442	-0.2125383032	-0.194153
C	-0.502084563	-2.0676946014	-0.0323808028	 0.043843
N	 0.7628964144	-2.0939361406	 0.2305410756	-0.324956
H	-0.758653166	 1.8985617061	 0.5784379516	 0.128281
H	-0.4058775559	 1.7988882578	-1.1319921144	 0.128276
H	 1.4217326947	 3.1319704284	 0.0617225946	 0.09296
H	 3.3738974472	 1.8445362835	 0.5395737979	 0.092105
H	 3.2146686995	-0.5810756472	-0.2437625598	 0.12779
H	 2.862628028	-0.4815356179	 1.4619287165	 0.127794
H	-1.1853965224	-2.897067167	-0.1251280849	 0.146178
