18
gdb 126903	3.28289	1.02335	0.79293	4.3409	77.11	-0.2109	-0.0266	0.1843	1439.9736	0.146412	-435.248782	-435.239355	-435.23841	-435.284225	33.023	
C	 0.0166490502	 1.4827318905	-0.1335661474	-0.401529
C	-0.0109326983	-0.0339757336	 0.0156100376	-0.106966
N	 0.743327119	-0.4382816408	 1.2034250934	-0.411742
C	 0.8681112336	-1.7972746919	 1.4610970156	 0.238219
C	 1.4910713129	-2.4454552409	 2.4927827204	 0.322592
C	 2.2159169207	-1.9774582018	 3.7002487415	-0.504598
O	 1.3670802014	-3.7638924281	 2.2676911068	-0.205175
N	 0.6736545106	-3.9210656437	 1.052476623	-0.027665
N	 0.3883954935	-2.767546571	 0.613184087	-0.189869
H	 1.0443303235	 1.8496388443	-0.2089876657	 0.129302
H	-0.5287959033	 1.7867529074	-1.0311227231	 0.125777
H	-0.4584327345	 1.9757022694	 0.723160152	 0.112655
H	-1.0498970465	-0.3968075089	 0.045684446	 0.105759
H	 0.4553680249	-0.5111970621	-0.85138096	 0.131543
H	 0.4755366033	 0.0912767801	 2.0227183132	 0.234043
H	 1.6086354415	-2.0728951474	 4.6081543055	 0.148609
H	 3.1309271531	-2.5573985805	 3.8523925095	 0.156448
H	 2.4897491044	-0.9257640512	 3.5804926046	 0.142596
