15
gdb 5917	3.56991	1.38376	1.26328	1.9866	61.61	-0.2745	-0.0477	0.2268	982.735	0.115311	-399.824114	-399.815133	-399.814189	-399.857926	31.32	
C	 0.2087433086	 1.5660895428	 0.2273662643	-0.442532
C	 0.0749348948	 0.0439717458	 0.0528747542	 0.243614
O	 0.6863302692	-0.6570057597	 1.1193873311	-0.463906
C	-1.4001995358	-0.3952174648	-0.1371551387	-0.352217
C	-2.1996882541	-0.0670075888	 1.0379381212	 0.246759
N	-2.7810675886	 0.2052079608	 1.9994447183	-0.3108
C	 0.8734661837	-0.3554547832	-1.1905998535	 0.156344
O	 0.4127472399	-0.4036637967	-2.2994533235	-0.25324
H	 1.2614085069	 1.8387318613	 0.3420116474	 0.138451
H	-0.2028592562	 2.0992158156	-0.634214881	 0.142665
H	-0.3317933036	 1.8890867663	 1.1233718729	 0.147648
H	 0.3154915017	-0.33683789	 1.9500294935	 0.301022
H	-1.8180491024	 0.0788837506	-1.0293703252	 0.170276
H	-1.4311098492	-1.4772478839	-0.2973513647	 0.165105
H	 1.9392868051	-0.5766274262	-0.9699963064	 0.110812
