23
gdb 121001	5.00852	0.68876	0.62881	1.1796	88.71	-0.2254	0.0342	0.2597	1818.5806	0.205477	-388.309215	-388.29918	-388.298236	-388.344579	37.006	
C	-0.7648727706	 1.4881118699	 0.2017959645	-0.491404
C	-0.1824779772	 0.1273364616	-0.014658653	 0.337255
C	-0.3062667833	-0.6466459204	-1.0949573757	-0.167983
C	 0.4672936347	-1.9365950161	-0.9789490261	-0.261376
C	 0.8330551273	-1.9984358875	 0.5319866115	 0.030846
C	 2.1815559942	-2.6464677251	 0.8518728742	-0.188341
C	 2.255644935	-4.1218603869	 0.4795633488	-0.076009
O	 3.5350768484	-4.6056383887	 0.8636197292	-0.422008
C	 0.7088948683	-0.530811922	 1.0185837179	-0.323701
H	 0.0226102568	 2.2343490987	 0.3707186532	 0.12309
H	-1.3618379129	 1.8142984977	-0.6544735531	 0.120646
H	-1.4057160796	 1.5097405513	 1.0927734413	 0.121933
H	-0.8634747786	-0.3755477409	-1.9862630427	 0.079516
H	-0.1040646831	-2.8125695247	-1.3082130494	 0.096722
H	 1.3716576655	-1.9087153937	-1.6069460609	 0.099626
H	 0.0436913703	-2.5741131954	 1.0334238473	 0.071402
H	 2.9853023543	-2.1125774576	 0.3284601754	 0.100748
H	 2.3947309777	-2.5567521799	 1.9242623864	 0.101647
H	 1.4509186255	-4.6738485358	 0.9939003672	 0.081285
H	 2.0941830525	-4.2473776615	-0.6029366061	 0.087066
H	 3.5953558585	-5.5305673359	 0.6080691763	 0.283718
H	 1.6903637977	-0.032243109	 1.0470575059	 0.099504
H	 0.3058149086	-0.4619551782	 2.036696978	 0.095819
