20
gdb 33078	4.82701	0.75287	0.68344	1.4968	83.6	-0.1811	0.0434	0.2245	1690.5733	0.171068	-403.184874	-403.175338	-403.174394	-403.219821	35.094	
C	-0.0010142197	 1.5825887711	 0.0679255463	-0.378974
C	-0.0050047332	 0.0541096586	 0.1424212972	-0.150141
C	-1.3924323728	-0.5540978352	-0.1350216104	-0.312458
C	-1.4168735638	-2.0507301602	-0.0542354179	 0.29208
C	-1.6134691335	-2.9219821301	-1.073901171	-0.142496
O	-1.5504225615	-4.2218665012	-0.6183561137	-0.179196
C	-1.3133908185	-4.1561833752	 0.7112337668	 0.395826
N	-1.1434986427	-5.3811326027	 1.3434162113	-0.593347
C	-1.2208976693	-2.8612359081	 1.1251693736	-0.38375
H	 0.9954553286	 1.9893207864	 0.2667980049	 0.110701
H	-0.3112150404	 1.9321336958	-0.9233723201	 0.112621
H	-0.6905653775	 2.0177769021	 0.8002595926	 0.111847
H	 0.7120931846	-0.3586355487	-0.5773507127	 0.100805
H	 0.3393015994	-0.2701000143	 1.1320991091	 0.098642
H	-2.1119721506	-0.1326004263	 0.5807601039	 0.099873
H	-1.7312472524	-0.2386367921	-1.1295112065	 0.096384
H	-1.8097440274	-2.8087359099	-2.1263812912	 0.123585
H	-1.7066663485	-6.1121756737	 0.9270274157	 0.254012
H	-1.3066761001	-5.3300855499	 2.3393927731	 0.253992
H	-1.0421792209	-2.5184788265	 2.1322309388	 0.089993
