19
gdb 40560	3.93972	1.19371	0.98008	1.8667	78.79	-0.2291	0.0414	0.2705	1231.4868	0.161534	-419.197845	-419.189833	-419.188889	-419.230859	30.18	
C	-0.0963919598	 1.2042787347	-0.3420126231	-0.2266
C	 1.1586945131	 0.4955528578	 0.0524193338	-0.208562
N	-0.1167748776	 0.0970919847	 0.6112543487	-0.114312
C	-0.6720849495	-1.1285351465	 0.2376494435	 0.430515
N	 0.0397176212	-2.1484206851	-0.0160478539	-0.335173
C	-0.6184753805	-3.4322777866	-0.2216825907	-0.145717
C	-2.0691510651	-3.454327018	 0.270841529	-0.232058
C	-2.7470248116	-2.1744361953	-0.1952062855	-0.067261
O	-2.0272758056	-1.0225630244	 0.263945805	-0.258201
H	-0.3377944551	 2.1798380583	 0.0692738592	 0.122481
H	-0.4841100074	 1.0166057018	-1.3400991837	 0.123172
H	 1.6091713007	-0.1812614434	-0.6669563624	 0.138527
H	 1.846477235	 0.9587075259	 0.7536004052	 0.120225
H	-0.5801867657	-3.6814528716	-1.2919915473	 0.102676
H	-0.0291506194	-4.2041693158	 0.2868799122	 0.107725
H	-2.6086199346	-4.3282336513	-0.1086590986	 0.102038
H	-2.0964618301	-3.4954238671	 1.3655878016	 0.116704
H	-2.8025659542	-2.1424027559	-1.2922878608	 0.106524
H	-3.7586812438	-2.063353842	 0.2019073078	 0.117299
