15
gdb 79002	3.67818	1.92837	1.74087	2.5801	67.44	-0.2311	-0.043	0.1881	798.0199	0.114619	-416.693172	-416.687377	-416.686432	-416.723029	24.745	
O	 0.2368354755	 1.4169924519	-0.2871335244	-0.407409
C	 0.0549867653	 0.0968382398	 0.0155060349	 0.1263
C	-1.3570004472	-0.6881692494	-0.189389846	-0.059579
C	-2.09918737	-0.7285627995	-1.5440870826	-0.142767
C	-1.0450052705	-0.9986554055	-2.6786839514	-0.010622
N	 0.2331075392	-0.4739801449	-2.2796720392	-0.23255
C	 0.3569829967	-0.9157761401	-1.0761194378	 0.062211
N	-0.6023154101	-1.9441223486	-0.613099287	-0.1573
C	-1.5081137875	-2.1037935323	-1.787803135	-0.048844
H	 0.2183088918	 1.464905467	-1.2578715544	 0.298092
H	 0.3976606627	-0.1040918323	 1.0321248333	 0.126219
H	-1.9715765129	-0.788543727	 0.7062513367	 0.111123
H	-3.0736911904	-0.3249772828	-1.7775911471	 0.111127
H	-1.3759381822	-0.9063766049	-3.7048904744	 0.112795
H	-1.9234063204	-3.0630659916	-2.0629040455	 0.111203
