18
gdb 9487	2.92856	1.64921	1.54293	1.9303	73.71	-0.2489	0.0278	0.2767	957.2722	0.151143	-347.756837	-347.748035	-347.747091	-347.790028	32.596	
C	-0.4421373755	 1.3926966315	 0.0016235581	-0.417583
C	 0.080752856	-0.031140938	-0.0886988737	-0.067113
C	 1.4249341698	-0.2909735051	-0.7955961038	-0.084208
O	 1.944023768	-1.0162624568	 0.3369939692	-0.312357
C	 0.7788054893	-0.696034413	 1.1539161395	 0.220076
C	 1.1757836267	 0.214672497	 2.3147961488	-0.432506
C	 0.1133487646	-1.8997915554	 1.6428264698	 0.319828
C	-0.4548011603	-2.8790170227	 2.0478683771	-0.469574
H	 0.3226739016	 2.0917302573	 0.3524670726	 0.120877
H	-0.7746623872	 1.7356339588	-0.9842038602	 0.12215
H	-1.3000265537	 1.4597017553	 0.6787419017	 0.1255
H	-0.7026488042	-0.6913147532	-0.4663359503	 0.09457
H	 1.3927005853	-0.9097999749	-1.6992460357	 0.106335
H	 2.014817248	 0.6122854398	-1.0047970911	 0.095111
H	 1.6999227734	 1.0998848714	 1.9466649877	 0.119402
H	 0.2968223032	 0.5293963757	 2.885206308	 0.124899
H	 1.8462375762	-0.3283199791	 2.9859842428	 0.13688
H	-0.9480396213	-3.7503506987	 2.4022375594	 0.197712
