18
gdb 97482	8.05195	0.44401	0.43545	2.0793	105.83	-0.222	-0.0135	0.2085	2521.0839	0.146823	-364.74463	-364.734709	-364.733765	-364.782627	34.294	
C	 0.0120893801	 1.4642248445	-0.3739836835	-0.366562
C	-0.0598486817	 0.1137824276	 0.364676716	-0.343756
C	-1.3821892356	-0.4925920295	 0.3262847244	 0.281643
C	-2.4891767314	-0.9835023937	 0.2861650092	-0.224887
C	-3.7298087116	-1.5349981278	 0.2422285072	-0.222769
C	-4.8384403937	-2.0246839263	 0.1939100378	 0.333597
C	-6.138808772	-2.6207991876	 0.1637639097	-0.207955
C	-6.8809788875	-2.72678882	-1.1319184842	-0.224886
N	-6.3430899234	-3.9340117978	-0.5030561908	-0.303319
H	 1.0245497569	 1.8738395265	-0.3136281571	 0.118523
H	-0.2507500482	 1.3446561561	-1.4282304177	 0.132126
H	-0.6801668654	 2.1856142266	 0.0677650677	 0.132978
H	 0.6684079944	-0.5832985842	-0.0705253096	 0.137194
H	 0.2434275857	 0.2496858011	 1.4111656875	 0.137849
H	-6.7224465375	-2.5137751147	 1.0748692778	 0.122013
H	-7.9642665641	-2.6466822751	-1.1220980665	 0.127881
H	-6.3948380427	-2.3288380299	-2.0174996082	 0.127389
H	-5.4764440423	-4.2033895259	-0.9633321096	 0.24294
