17
gdb 88240	3.97136	0.74699	0.68823	1.597	80.79	-0.2384	0.0187	0.2571	1635.5834	0.133885	-421.74884	-421.739531	-421.738586	-421.78487	32.727	
O	-0.0086702342	 1.1655149849	-0.5202085435	-0.416363
C	-0.0490442033	-0.1511658327	-0.0809637491	 0.12835
C	-0.355492404	-0.3689613585	 1.3623000171	-0.297805
C	-1.3947814984	-0.763299788	 0.3115638209	-0.239367
C	-2.5786812485	 0.0142641002	 0.1198798661	 0.088241
C	-3.5592694646	 0.6847162612	-0.093486682	 0.10672
C	-4.7477696415	 1.4562615553	-0.327354736	-0.119192
C	-4.7426251038	 2.9319127413	-0.2773216429	-0.161191
O	-4.8017931085	 2.2546340356	-1.5256830071	-0.219124
H	-0.6231228551	 1.2593833999	-1.2574297573	 0.296465
H	 0.6571691965	-0.8248095414	-0.5657620558	 0.096338
H	 0.1419024813	-1.1716853658	 1.8942887094	 0.121548
H	-0.5679235147	 0.5203084243	 1.9429056964	 0.137844
H	-1.5015265804	-1.8279087934	 0.1239463183	 0.116639
H	-5.6859744066	 0.9506217683	-0.1008179399	 0.11685
H	-5.6498409219	 3.4557221895	 0.0219466435	 0.118988
H	-3.8076399724	 3.4465349091	-0.0639653682	 0.125059
