15
gdb 98948	4.1301	0.81526	0.68378	6.4159	73.19	-0.2472	-0.0444	0.2029	1544.2759	0.109569	-453.919915	-453.909932	-453.908988	-453.956836	33.964	
O	 0.268633505	 1.2626468075	 0.0115053321	-0.385346
C	-0.0120090357	-0.1085447722	 0.0002444999	-0.201042
C	-1.5381985901	-0.2910308516	 0.0164519885	 0.415573
O	-2.3197898112	 0.6175512749	 0.0303435193	-0.277397
N	-1.8756019829	-1.6480775721	 0.0122028918	-0.379275
C	-3.1441833674	-2.2389588739	 0.0206172792	 0.250781
N	-4.2268835392	-1.5669491186	 0.0335573727	-0.466184
C	-3.0734065292	-3.6805732017	 0.012803512	 0.258277
C	-3.0370518165	-4.88316341	 0.0064083164	-0.438249
H	 1.2238655978	 1.3719961005	-0.0027883019	 0.294977
H	 0.3830316588	-0.6154735903	-0.8975319764	 0.109182
H	 0.4048836057	-0.6344553494	 0.8770071721	 0.108786
H	-1.110177976	-2.3046054833	 0.0013310989	 0.259429
H	-5.0216060986	-2.2045894614	 0.0375273013	 0.234452
H	-3.0212693404	-5.9458739585	 0.0009289841	 0.216035
