20
gdb 81959	2.12401	1.87894	1.32101	3.4644	73.07	-0.2469	0.0531	0.3	1040.3448	0.172525	-440.266141	-440.257736	-440.256792	-440.298953	33.361	
C	 0.0171217373	 1.6239247304	 0.0162273703	-0.382268
C	 0.0656931362	 0.1008051467	 0.0088144266	-0.038521
C	 0.8004070117	-0.5263437941	-1.2183325268	 0.105575
O	 1.855835243	 0.2562055113	-1.7421972886	-0.431409
C	 1.3020366686	-1.8763288146	-0.6877384972	-0.069036
N	 2.5311952357	-1.6800452846	 0.1135603515	-0.366653
C	 1.2322982912	-1.8857638016	 0.7932492513	-0.069033
C	 0.682244713	-0.5423298266	 1.2914857442	 0.105575
O	 1.6833297554	 0.2328603273	 1.9220873892	-0.43141
H	 1.022437179	 2.044079337	 0.0661789618	 0.126003
H	-0.4619482072	 2.0026685605	-0.892033065	 0.108628
H	-0.5452994028	 1.9913875071	 0.880255352	 0.10863
H	-0.9592417806	-0.2934876716	-0.0419521573	 0.068691
H	 0.0964819118	-0.6692195124	-2.044155302	 0.080925
H	 2.6241550445	 0.0606035547	-1.1882039337	 0.284291
H	 1.2156990095	-2.7782218134	-1.2839309911	 0.095065
H	 3.0864786772	-2.5298009415	 0.1343036586	 0.244667
H	 1.0908619319	-2.7951099271	 1.367179579	 0.095065
H	-0.0960644842	-0.6952673162	 2.045642596	 0.080924
H	 2.5004122588	 0.0438593989	 1.4402799914	 0.28429
