18
gdb 18093	3.74651	2.20495	1.6527	0.1447	76.91	-0.2352	0.0284	0.2636	823.9441	0.157143	-310.696154	-310.689815	-310.688871	-310.726622	25.679	
C	-0.034031715	 1.4737087653	-0.4922918679	-0.270012
C	 1.247061987	 2.0603988636	 0.0443084995	-0.05772
C	 2.0214003169	 1.1498080768	 0.6295518398	-0.065396
C	 1.4149803353	-0.2326301819	 0.6344984194	-0.054214
C	 1.2225068518	-0.8393243253	 2.0567598657	-0.270012
C	-0.2456100118	-0.6333451368	 2.3316267833	-0.05772
C	-0.9090995095	-0.1925703191	 1.2654258514	-0.065396
C	-0.0258090283	 0.0163940153	 0.0591767014	-0.054214
H	-0.9204121427	 2.0326840584	-0.1669383847	 0.100222
H	-0.0474084319	 1.4939456807	-1.590501446	 0.100461
H	 1.4959346528	 3.1105462083	-0.0675951336	 0.087931
H	 2.9942265676	 1.3475094619	 1.0688604832	 0.086622
H	 2.0044777525	-0.9130484587	 0.0090969249	 0.072107
H	 1.4828226755	-1.9061755368	 2.0835348931	 0.100461
H	 1.8618769158	-0.3513834646	 2.8031499525	 0.100222
H	-0.6911775491	-0.8498304564	 3.296962559	 0.087931
H	-1.9756665456	 0.0070346007	 1.2328455184	 0.086622
H	-0.2878659013	-0.6909951715	-0.7361408394	 0.072107
