20
gdb 11858	6.05106	1.10101	1.04788	1.0278	76.57	-0.243	0.0838	0.3267	1198.3739	0.176326	-348.969185	-348.960847	-348.959903	-349.002146	31.336	
C	 0.3523707037	 1.6427830279	-0.5284742842	-0.239469
O	-0.3276288927	 0.4093490637	-0.4825795235	-0.239966
C	 0.4436272474	-0.6646292994	-0.9474347963	 0.169943
C	 1.5719087647	-1.2319748089	-0.0275581391	-0.334896
C	 1.0292387102	-2.631326779	-0.3499465917	 0.380394
C	 1.8077323894	-3.7329019178	-1.0098287628	-0.315887
C	 1.2443185872	-3.9178182479	 0.3833746852	-0.328495
C	-0.278776099	-2.0279858807	-0.8802603083	-0.335609
H	 1.2483377186	 1.644357739	 0.1106557756	 0.107226
H	 0.6625021219	 1.8983144899	-1.5543829324	 0.10248
H	-0.3372232315	 2.4096941731	-0.1673790144	 0.125436
H	 0.8289550395	-0.4525944883	-1.9568746404	 0.063628
H	 2.6101854996	-1.0151217008	-0.2926493846	 0.094315
H	 1.3941305856	-0.9463720952	 1.0149243403	 0.103969
H	 1.339333616	-4.2751396002	-1.8255651982	 0.109556
H	 2.8818660591	-3.6130391539	-1.1137614669	 0.108729
H	 1.9382339224	-3.9221135306	 1.218255005	 0.109555
H	 0.3969386643	-4.5850567295	 0.5073163635	 0.110384
H	-1.063971793	-1.9964091498	-0.1181901578	 0.110734
H	-0.6927985533	-2.4268537315	-1.8097215891	 0.097971
