21
gdb 88635	4.09011	0.84523	0.75688	3.0525	83.96	-0.2371	-0.0155	0.2216	1532.9928	0.181112	-387.089906	-387.080672	-387.079728	-387.124693	34.712	
C	-0.0305307478	 1.4899525456	-0.3424787003	-0.40856
C	-0.0229707231	 0.0135658275	-0.0088078892	 0.002316
C	 1.2432810257	-0.8032551321	-0.1061140501	-0.310658
C	 0.6136738146	-0.548996075	 1.2455047887	-0.002799
C	 1.298352176	 0.3035223436	 2.279803699	 0.01537
C	 0.428288451	 0.8361445567	 3.4676611242	-0.361711
C	 1.522438817	 0.3389275351	 4.4247004868	 0.400476
O	 1.7708371093	 0.5397837415	 5.5778025489	-0.290495
C	 2.2331947477	-0.4300303003	 3.3001792964	-0.361878
H	 0.9079979968	 1.9789521812	-0.0659701586	 0.116388
H	-0.1684307639	 1.6406409087	-1.4187932231	 0.119476
H	-0.8433564363	 2.0144662557	 0.1723695469	 0.118189
H	-0.9286666949	-0.5027188555	-0.3177926867	 0.084198
H	 1.2000997403	-1.8021108444	-0.5263486346	 0.11032
H	 2.1609964354	-0.2681507899	-0.3333851023	 0.108247
H	 0.0881593586	-1.39826567	 1.6803648483	 0.075862
H	 1.8382479013	 1.1276199644	 1.8073210515	 0.076932
H	 0.1926328668	 1.9025985585	 3.5069327534	 0.1265
H	-0.5019782685	 0.270502205	 3.596877741	 0.127355
H	 2.0307923744	-1.5056859719	 3.3615365799	 0.127799
H	 3.3133037494	-0.2857003344	 3.2177663498	 0.126671
