21
gdb 31646	3.46327	1.05594	0.82379	1.4685	89.24	-0.1635	0.055	0.2185	1447.203	0.182386	-383.301056	-383.290913	-383.289969	-383.33633	36.676	
C	 0.0599609234	 1.4302624813	 0.0538966493	-0.316392
N	-0.1623213175	 0.0014175928	-0.0559108224	-0.380236
C	 0.5276818055	-0.6755986209	-1.0703919113	 0.295804
C	 1.1630980543	-0.1289500291	-2.165639353	-0.19838
N	 1.6331179432	-1.1698882143	-2.9538020746	-0.050133
C	 2.4476209078	-0.9921378834	-4.1331997676	-0.337406
C	 1.3285010469	-2.3670991773	-2.3540182586	 0.329375
C	 1.7211983785	-3.6840801714	-2.9391677378	-0.502638
C	 0.6381633402	-2.0922788357	-1.192177649	-0.362884
H	 1.1244925067	 1.7101197572	 0.1370722028	 0.099842
H	-0.3461683346	 1.9351256085	-0.8304595913	 0.125169
H	-0.4720867105	 1.8147424968	 0.9278453861	 0.114123
H	-0.0782922275	-0.4699616975	 0.8340252492	 0.226273
H	 1.3120289747	 0.8943795232	-2.4662998592	 0.100045
H	 3.5219188672	-1.0411114941	-3.9103707738	 0.128003
H	 2.2169219795	-1.758137552	-4.8783347817	 0.134786
H	 2.2332891122	-0.015937236	-4.5743869344	 0.136145
H	 2.8088270468	-3.7965386658	-3.0352735008	 0.12251
H	 1.3635790692	-4.4900983449	-2.294381024	 0.13244
H	 1.2916296188	-3.8469768363	-3.9361434091	 0.124566
H	 0.2319385353	-2.8280853111	-0.5134337486	 0.078988
