16
gdb 14908	4.53462	1.51068	1.22718	4.5481	70.82	-0.2457	0.0008	0.2466	969.225	0.133182	-342.796781	-342.789717	-342.788772	-342.82817	26.741	
N	-0.0674034948	-1.1498757274	-0.1210554748	-0.320255
C	-0.0433320273	 0.0035805983	-0.0639488452	 0.26989
C	-0.0286123989	 1.4776504667	-0.0311993749	-0.140429
N	-0.7348358929	 1.9406089795	 1.1617796772	-0.303157
C	-0.5646507823	 3.3757690003	 1.3865476539	-0.170275
C	 0.8993683385	 3.6582762318	 1.7316077888	-0.227178
C	 1.8114459306	 2.9643246581	 0.7573633992	-0.068213
C	 1.3987927805	 1.9917264718	-0.049472476	-0.03294
H	-0.5151052634	 1.8053541312	-0.9728951096	 0.113381
H	-1.7162299233	 1.6981370463	 1.0928079697	 0.233075
H	-0.8509871041	 3.9812637873	 0.5067973111	 0.087857
H	-1.2202428534	 3.668732549	 2.2113183809	 0.108623
H	 1.0850468286	 4.7389138815	 1.7175435827	 0.107481
H	 1.1190444981	 3.3177458486	 2.7520225266	 0.126658
H	 2.8478229952	 3.2889441568	 0.7149354646	 0.101004
H	 2.0642612389	 1.5190376301	-0.7637409942	 0.114476
