18
gdb 76586	3.13665	0.80693	0.7631	5.8385	93.15	-0.2597	-0.0363	0.2234	1552.3969	0.146485	-364.800875	-364.791208	-364.790263	-364.835901	34.537	
C	-0.1583506147	 1.5518039894	 0.0593518996	-0.413677
C	 0.0216792682	 0.0542504758	-0.0391195129	-0.018282
C	 0.6852023294	-0.6247033964	-1.2016503724	-0.018289
C	 1.2419315034	 0.1189672415	-2.3940358848	-0.41368
C	 1.3955622708	-0.6059085905	 0.1617027523	-0.254212
C	 2.5591991032	 0.1869634372	 0.3627922174	 0.144381
C	 3.5567658425	 0.8500612524	 0.5450177003	 0.004059
C	 4.6767182786	 1.6004288884	 0.7465501572	 0.198491
N	 5.6308205323	 2.2429974924	 0.9165459575	-0.343881
H	 0.7013626922	 2.1007271668	-0.3299674091	 0.135361
H	-1.0442433244	 1.8681846477	-0.5011997353	 0.125991
H	-0.2956765536	 1.854773394	 1.1021336209	 0.131204
H	-0.7825132412	-0.5132228816	 0.4219232488	 0.101498
H	 0.2841224242	-1.6046574146	-1.4468758244	 0.101496
H	 1.7188556861	 1.0597279049	-2.1120689383	 0.135365
H	 1.9933298813	-0.4878559977	-2.9090188018	 0.131199
H	 0.4449097008	 0.3446808957	-3.1102285172	 0.125992
H	 1.4014015307	-1.5423596554	 0.711962412	 0.126984
