21
gdb 103569	2.31776	1.23991	1.12363	4.2532	78.48	-0.2637	0.0158	0.2795	1254.1797	0.180511	-424.275437	-424.265485	-424.264541	-424.310092	36.707	
C	-0.1190879568	 1.5542450621	-0.4046367271	-0.396867
C	-0.1011644929	 0.0523628565	-0.0970118067	-0.216566
C	-1.4768281835	-0.5451639857	 0.189496256	 0.418977
C	-2.2093071695	 0.0971028538	 1.3557824956	-0.445861
O	-2.3175815544	-0.4577130226	-1.0377104848	-0.288631
C	-2.3772693149	-1.8179944096	-1.1615936989	 0.450745
O	-2.8914837807	-2.4481792346	-2.0312026093	-0.333904
C	-1.5926547286	-2.100268322	 0.1191627605	-0.251673
C	-0.3791151671	-3.0155424094	 0.0179481932	-0.420228
H	 0.8748641808	 1.8895985502	-0.7139858024	 0.11783
H	-0.8181474863	 1.7713070992	-1.2173109415	 0.141953
H	-0.4106279016	 2.1500703609	 0.4649062445	 0.119848
H	 0.3350369393	-0.47661853	-0.9504262537	 0.108341
H	 0.5490064814	-0.1515401716	 0.7632057467	 0.102813
H	-2.3670079972	 1.1649940553	 1.1871148229	 0.137073
H	-3.187875309	-0.3696814072	 1.4984648219	 0.127018
H	-1.6315654622	-0.0227634711	 2.27854181	 0.123338
H	-2.2701346588	-2.4723307679	 0.894918538	 0.108565
H	 0.3083939832	-2.7108269127	-0.7744091098	 0.131209
H	 0.1744067219	-3.0431260668	 0.9615646203	 0.123927
H	-0.7104887031	-4.0331228868	-0.2079085653	 0.142094
