19
gdb 99383	5.57054	0.59993	0.57768	4.5591	75.43	-0.2407	-0.021	0.2197	1906.8013	0.15744	-456.38959	-456.378808	-456.377864	-456.427399	36.094	
C	-0.0238285554	 1.1383923884	 0.7170799685	-0.32363
N	-0.0272151284	-0.1210738126	-0.0053387555	-0.358059
C	-1.1884584293	-0.8554527875	-0.1076767525	 0.493007
O	-2.2094446503	-0.5933519459	 0.5079323277	-0.409957
N	-1.1001649108	-1.9318723094	-0.9774665481	-0.360554
C	-2.192189611	-2.8896217504	-1.0163029148	-0.163681
C	-2.2440920351	-3.8285499682	 0.2097830723	-0.273112
C	-3.466726129	-4.7130185077	 0.1794025503	 0.155553
O	-3.449133749	-5.9172767265	 0.1507270878	-0.239341
H	-0.2602320305	 1.9966417041	 0.0742742585	 0.12219
H	-0.784198297	 1.0775973482	 1.495736093	 0.167995
H	 0.9544429061	 1.3025504766	 1.1778381446	 0.121795
H	 0.6464905226	-0.2210201135	-0.7481655751	 0.237575
H	-0.1785126117	-2.3030946957	-1.1530508212	 0.236616
H	-3.1215589567	-2.3178884644	-1.0748051454	 0.143846
H	-2.0969176233	-3.4733857216	-1.9369908648	 0.114885
H	-1.3516554117	-4.4584526559	 0.269665133	 0.109001
H	-2.3040583277	-3.1927295164	 1.101865987	 0.14695
H	-4.4330255119	-4.1559552016	 0.1755405646	 0.078921
