15
gdb 20901	5.14241	1.41143	1.18819	3.0094	63.13	-0.231	0.0134	0.2444	999.4277	0.120759	-396.014922	-396.007548	-396.006604	-396.047042	26.691	
C	-0.2019333382	 1.5330333881	 0.1236919951	-0.374395
C	 0.095903531	 0.0392415219	 0.0003403266	-0.143685
N	 0.7569804656	-0.4944507582	 1.1781865894	 0.058628
C	 0.3115835732	-1.3734209838	 2.08874225	 0.010337
N	 1.2220933463	-1.5780401837	 3.0291744822	-0.367885
C	 2.2318348035	-0.7660457056	 2.621191879	 0.434983
O	 3.3857251094	-0.6577736098	 3.2927655647	-0.407291
N	 2.0167270197	-0.0824662255	 1.5104682752	-0.328911
H	 0.7236397362	 2.0884774999	 0.2890770862	 0.156904
H	-0.6710038881	 1.8971209788	-0.7949690812	 0.122349
H	-0.8785760245	 1.7292367832	 0.9605322889	 0.126645
H	-0.8237770822	-0.5378816594	-0.1340944729	 0.121988
H	 0.7402466468	-0.1527609375	-0.8633747167	 0.136707
H	-0.6619904885	-1.8371731077	 2.0312142747	 0.142948
H	 3.3141159	-1.2454231808	 4.0544432787	 0.310679
