22
gdb 10522	2.64715	1.34246	1.03945	1.3423	78.56	-0.2601	0.0728	0.3328	1245.6265	0.19897	-350.193938	-350.184169	-350.183225	-350.228944	35.613	
C	-0.5499543596	 0.7028673542	 3.6577836267	-0.379125
C	-0.3102957666	-0.6988207661	 3.0893790703	-0.166172
C	 0.5985579843	-0.6868764932	 1.8521636298	-0.251735
C	 0.9348626299	-2.0639155902	 1.2976697795	 0.391777
C	-0.2277723975	-2.8498358625	 0.7350095162	-0.149537
O	-0.7978298899	-2.1075981142	-0.3374295873	-0.423359
C	 2.2670346096	-2.245831333	 0.6112121417	-0.307788
C	 2.0286894848	-2.8625469831	 1.9680004601	-0.314551
H	-1.0149185196	 1.3574195778	 2.912117367	 0.114961
H	-1.2078413533	 0.6744050339	 4.5322279853	 0.107775
H	 0.3916708526	 1.1721153323	 3.9647756664	 0.111206
H	 0.1351992991	-1.3397308695	 3.8611540521	 0.092785
H	-1.2760864437	-1.1524284181	 2.8348575522	 0.096402
H	 0.1254123854	-0.0959523741	 1.0590230805	 0.112725
H	 1.5350688861	-0.1735165942	 2.1065049364	 0.083005
H	 0.130594655	-3.8329535973	 0.3894707871	 0.077057
H	-0.9760357502	-3.0361702723	 1.5213328696	 0.085951
H	-1.6140109635	-2.5420085562	-0.6013229688	 0.285444
H	 2.3118091117	-2.9041068562	-0.2498709899	 0.110873
H	 2.9276956165	-1.3878105434	 0.54793406	 0.108491
H	 2.5220486608	-2.4183037848	 2.8262930037	 0.108375
H	 1.9235716581	-3.9410732499	 2.0303346914	 0.10544
