21
gdb 33526	2.1911	1.49933	1.13127	0.6218	88.31	-0.2509	0.0504	0.3013	1194.605	0.18179	-349.897234	-349.888186	-349.887242	-349.93086	35.211	
C	-0.2456826976	-1.400018186	-0.0911381514	-0.438885
C	-0.1485496995	-0.2027465243	-0.0134677491	 0.218948
C	-0.0074656182	 1.2383402809	 0.1044538897	 0.151982
C	-0.0669862827	 1.8102638491	 1.5705976874	-0.2496
C	 1.1932029237	 2.663435956	 1.2728001308	-0.218805
C	 1.466612567	 1.7867141497	 0.0232945733	-0.249597
C	-0.9393900283	 2.0005753283	-0.8308042593	-0.010749
C	-1.2697055168	 1.5063151666	-2.214439681	-0.283666
C	-2.3332926754	 1.5226198235	-1.1413596584	-0.283665
H	-0.3293706536	-2.4563958463	-0.1582300125	 0.189141
H	-0.9892835572	 2.3329840363	 1.8343873687	 0.103951
H	 0.1225725465	 1.0299801021	 2.3103021034	 0.110333
H	 0.9491845492	 3.6973266072	 1.0152090027	 0.104736
H	 1.9686611523	 2.6791014088	 2.0411542418	 0.101218
H	 2.1960244623	 0.9981294492	 0.2183086242	 0.110329
H	 1.7300140004	 2.2912229199	-0.9091997661	 0.10395
H	-0.8233831915	 3.0771268713	-0.7321824204	 0.079413
H	-1.3296337496	 2.2322908495	-3.0177615232	 0.106414
H	-0.8800838261	 0.5377957099	-2.5074681797	 0.124067
H	-2.6374849722	 0.5647348514	-0.7343904909	 0.124072
H	-3.1259996126	 2.2598293767	-1.2053598701	 0.106413
