23
gdb 103995	2.51336	1.34456	1.20512	1.6568	85.2	-0.2266	0.0846	0.3112	1213.2178	0.20365	-388.265619	-388.255822	-388.254878	-388.299516	37.981	
C	 0.2154846476	 1.4696091209	 0.2647186959	-0.387617
C	-0.1929437744	 0.0456047287	-0.1325375241	-0.224855
C	 0.6065331471	-0.5276086008	-1.3038920317	 0.381458
C	 0.3463189711	 0.2054998348	-2.6152084329	-0.438143
O	 2.0573944978	-0.5140115063	-1.0470255791	-0.342068
C	 2.1371821986	-1.9120362411	-1.3209106901	 0.064524
C	 1.370559988	-2.690844128	-0.2998253976	-0.362821
C	 0.6431668366	-2.0656114887	-1.4806082562	 0.220448
C	-0.2036698671	-2.8657301957	-2.4288371975	-0.499022
H	 1.288521737	 1.5119637151	 0.4711913119	 0.137865
H	-0.0069619066	 2.1978689712	-0.5208569628	 0.114259
H	-0.3191995559	 1.7855334007	 1.1655692291	 0.109027
H	-0.0717736976	-0.6118761514	 0.7336483613	 0.096816
H	-1.2578314569	 0.016291691	-0.3981121862	 0.09321
H	 0.6380848673	 1.2550470991	-2.5270921167	 0.126599
H	 0.9313371748	-0.2385777147	-3.4249076192	 0.120036
H	-0.7140283634	 0.164526139	-2.8873671724	 0.111274
H	 2.9851780483	-2.2706158515	-1.8942832383	 0.097077
H	 1.4583207337	-3.7717835676	-0.3667582517	 0.107788
H	 1.2843630061	-2.3038963118	 0.7111164807	 0.112358
H	-1.2201363594	-3.0007987461	-2.0393197051	 0.121159
H	-0.2833843745	-2.3887815997	-3.4109394474	 0.12095
H	 0.2199856917	-3.8639147573	-2.5795118801	 0.119678
