20
gdb 102077	2.06779	1.14829	0.89382	1.7011	77.44	-0.2485	-0.043	0.2054	1375.1609	0.167823	-440.319939	-440.309294	-440.30835	-440.356659	36.486	
C	-0.1474758924	 1.4221533942	 0.0769306599	-0.400735
C	-0.1489950914	-0.0973747574	-0.0956204644	-0.180026
C	 0.5427326291	-0.5636073136	-1.3844721503	-0.098378
C	 0.7062129706	-2.086747606	-1.4447174106	 0.150428
O	 0.5957972918	-2.8257613235	-0.5038430107	-0.235115
N	-0.0715454834	-0.0906384732	-2.6155783595	-0.038068
C	-1.4513802847	-0.4540780782	-2.9104194394	-0.356006
C	 0.6062058983	 0.7187572889	-3.4870607159	 0.157026
O	 0.1636869346	 1.1640026221	-4.522596274	-0.337469
H	 0.873771395	 1.8181095395	 0.1080901434	 0.118035
H	-0.6712754682	 1.9225719941	-0.7434753199	 0.130077
H	-0.641446627	 1.7057412391	 1.0105143927	 0.124611
H	 0.363479562	-0.5837849052	 0.7393524674	 0.127905
H	-1.1741776858	-0.4836418037	-0.0758847176	 0.111831
H	 1.5733183045	-0.1728725901	-1.3901672034	 0.115435
H	 0.9605216675	-2.4622459883	-2.4627190225	 0.092522
H	-2.155983899	 0.0667964396	-2.2526130635	 0.13593
H	-1.6533220998	-0.165991896	-3.9419378758	 0.17328
H	-1.6016902342	-1.5327497479	-2.7942318115	 0.132545
H	 1.6362945227	 0.9249943757	-3.1346786745	 0.076172
