16
gdb 14283	3.65436	1.85834	1.76039	3.9197	63.63	-0.2288	0.0534	0.2822	817.0171	0.132637	-379.955651	-379.948463	-379.947519	-379.986924	27.445	
C	-0.0516523156	 1.5682953945	 0.017827361	-0.434698
C	 0.0411188891	 0.0613653825	 0.0447228661	-0.041955
C	 1.3288050928	-0.7104038626	-0.2162050785	-0.034627
N	 2.592193638	-0.058249212	-0.0354785446	-0.32895
C	 2.7226771935	 0.4691465621	 1.2467763347	 0.40652
O	 3.5652137505	 1.2481217844	 1.6307424817	-0.405954
N	 1.6843411476	-0.0778759497	 1.9964409187	-0.328955
C	 0.7114746337	-0.723742795	 1.1654679915	-0.034627
H	 0.8433998174	 2.0465350148	 0.42216036	 0.144411
H	-0.1854793139	 1.931219617	-1.0068506087	 0.122748
H	-0.9065678157	 1.915655215	 0.6077850366	 0.122747
H	-0.8319733139	-0.4535455914	-0.3503408891	 0.090895
H	 1.3231979942	-1.5837387934	-0.8587024799	 0.105835
H	 3.0679380231	 0.4220854987	-0.7815469167	 0.255389
H	 1.4425633495	 0.3870381536	 2.8561350776	 0.255387
H	 0.2354553297	-1.6072442886	 1.5758086496	 0.105834
