16
gdb 47319	3.11787	1.3039	0.97777	2.6421	65.96	-0.2379	-0.042	0.1959	1147.0801	0.124863	-475.05242	-475.044279	-475.043335	-475.085868	29.704	
O	 0.0667197614	 0.0500781088	-0.6914447209	-0.277926
C	 0.0127052589	 1.1304674187	-0.1557631329	 0.381237
C	-1.3457410239	 1.7603318306	 0.1790284115	-0.285484
N	-1.5012681821	 2.3051877427	 1.5200253799	-0.300416
C	-0.8571899378	 3.3938348193	 2.0475333302	 0.379996
O	-1.279807972	 3.9889144804	 3.0179693632	-0.350287
C	 0.4633818448	 3.784783814	 1.3726172765	-0.18895
O	 1.3572540158	 2.6961548111	 1.248193095	-0.22885
C	 1.284218563	 1.9550606822	 0.0549705125	-0.18026
H	-1.5420160411	 2.5243647948	-0.5926249014	 0.130652
H	-2.0855840941	 0.9711277694	 0.0431765116	 0.148619
H	-2.366321929	 2.0894231303	 1.994105456	 0.257961
H	 0.2703146652	 4.2577435796	 0.3953488707	 0.105636
H	 0.9311520163	 4.5235189708	 2.0255037546	 0.146378
H	 2.1307385594	 1.2655114219	 0.0495180711	 0.145844
H	 1.3803601652	 2.6165567554	-0.8266979676	 0.115849
