15
gdb 124319	4.76213	1.00158	0.98422	4.5654	67.47	-0.2693	-0.0347	0.2346	1227.3518	0.112304	-450.126254	-450.117916	-450.116972	-450.161037	28.293	
C	 0.0382495409	 1.4953313483	-0.0281280652	-0.483473
C	 0.0084452517	-0.0137929029	 0.0890123644	 0.38742
O	-0.0269989848	-0.6045230448	 1.1354569073	-0.260726
C	 0.024805546	-0.7650814928	-1.2569083348	-0.266777
N	 0.0568136791	-2.1953802683	-1.08480909	 0.175895
N	 1.1677217588	-2.8722509367	-0.8213229363	-0.24407
C	 0.6879563087	-4.098415455	-0.6637027169	 0.083697
N	-0.6544317496	-4.1610353588	-0.8214014387	-0.20628
N	-1.0438886431	-2.9401993306	-1.083001031	-0.122576
H	 0.9710442002	 1.8183120323	-0.5046739546	 0.150359
H	-0.784027675	 1.851343247	-0.6587594855	 0.146937
H	-0.0370852356	 1.9408448224	 0.9638625393	 0.158322
H	-0.8765935677	-0.5189231151	-1.8247429926	 0.170211
H	 0.895667709	-0.4621423076	-1.8445560793	 0.162072
H	 1.3067302013	-4.9520255975	-0.4407098261	 0.148988
