14
gdb 10796	4.91403	1.57199	1.22151	0.7881	58.89	-0.2499	0.0141	0.264	913.8824	0.109682	-415.930102	-415.922965	-415.922021	-415.962164	25.68	
O	-0.006988536	-0.0836108957	 0.147188708	-0.367145
C	-0.005122785	 1.1277393089	 0.0565105517	 0.406611
C	-1.3127753945	 1.9149706491	 0.0541595541	-0.277234
N	-1.1892738514	 3.2698749494	-0.4528500584	-0.31752
C	-0.0660263955	 4.0354210271	-0.421580148	 0.406612
O	-0.0479088874	 5.2132216424	-0.7183212682	-0.367146
C	 1.2067127086	 3.3203290408	 0.0239229232	-0.277229
N	 1.1284107069	 1.8720491907	-0.0426532968	-0.31752
H	-2.0139099806	 1.349393174	-0.5642381497	 0.154979
H	-1.7055529481	 1.8960247856	 1.0816456804	 0.142752
H	-2.0308454973	 3.7687333173	-0.704970174	 0.257555
H	 2.0078133169	 3.6793309636	-0.6266467868	 0.15498
H	 1.4384789215	 3.6720002359	 1.0402743621	 0.14275
H	 1.9859432318	 1.3402177411	 0.0069517124	 0.257554
