21
gdb 115866	2.41041	1.36746	1.03815	1.0317	77.12	-0.229	0.0636	0.2926	1221.2491	0.182501	-424.209788	-424.200707	-424.199763	-424.243413	34.676	
C	-0.4177608045	 1.3633584424	-0.1023482377	-0.486602
C	 0.0117052983	-0.0775182926	 0.034994388	 0.299427
C	-0.5491261991	-0.942137736	 1.1628053319	-0.380894
C	 0.9127664905	-0.5724413082	 1.1288294022	 0.075616
O	 1.8346776547	-1.5101523546	 0.6374200595	-0.257514
C	 1.3659652031	-1.9562013972	-0.6315906872	-0.122081
C	 0.4757540819	-0.8313296868	-1.2133803782	-0.072074
C	-0.6442908379	-1.3476575476	-2.1170646838	-0.08806
O	-0.1601025648	-1.9858768856	-3.2916349279	-0.422389
H	 0.3448608913	 1.9555382257	-0.6215548001	 0.120318
H	-1.3525548355	 1.4555387413	-0.6677694975	 0.121127
H	-0.5858137162	 1.8203455507	 0.87804764	 0.116544
H	-1.1699261967	-0.4392187553	 1.8971749492	 0.11188
H	-0.8371566271	-1.9702063702	 0.9717790181	 0.113517
H	 1.3480104113	 0.0665695202	 1.8887891024	 0.10056
H	 2.2385858301	-2.1854741302	-1.2489566863	 0.115888
H	 0.782292386	-2.8850056888	-0.5152428796	 0.0836
H	 1.0966378253	-0.1478055427	-1.8064503846	 0.082689
H	-1.309073902	-2.0135440071	-1.5447625144	 0.089258
H	-1.2539999861	-0.509185553	-2.469053272	 0.112735
H	 0.2258644974	-2.8294067444	-3.0368380021	 0.286454
