15
gdb 29045	2.73987	1.72588	1.05888	5.1374	85.5	-0.2164	-0.0697	0.1467	1059.7391	0.114871	-416.859524	-416.852092	-416.851148	-416.892109	28.472	
N	 0.0167188784	 1.3427127425	 0.0091858116	-0.506483
C	-0.0487698695	 0.0048606753	 0.0015154485	 0.241723
C	-1.2656355854	-0.6559099259	 0.0050611733	-0.19512
C	-1.502952361	-2.0349612582	-0.0016602076	-0.053921
C	-0.5923349928	-3.0658398085	-0.012332625	-0.13153
C	 0.8150091094	-2.9470427352	-0.0186079033	 0.022997
N	 1.6332871537	-1.9279663791	-0.0182697126	-0.321191
C	 1.3507711816	-0.5904962704	-0.0112859865	 0.360497
O	 2.2622713696	 0.2332365687	-0.0145945174	-0.373882
H	 0.9566941748	 1.7226207504	 0.0038606226	 0.288394
H	-0.8005550213	 1.9272216626	 0.017312864	 0.265572
H	-2.1485413878	-0.0198887873	 0.0139158092	 0.085601
H	-2.5531018395	-2.3190908466	 0.0024652194	 0.109156
H	-0.9777700999	-4.0804048416	-0.0157655312	 0.09639
H	 1.3370311697	-3.9089570467	-0.0252409349	 0.111798
