13
gdb 1074	7.48287	1.97168	1.57582	2.0241	55.16	-0.2147	0.0385	0.2532	734.8105	0.103636	-340.664407	-340.657874	-340.65693	-340.695448	23.088	
O	-0.0130556629	 1.4227374212	 0.0086340281	-0.421149
C	-0.0015963197	 0.0026787814	 0.0021824541	-0.18317
C	-1.4164017379	-0.4770137984	 0.012163258	 0.284234
C	-2.561714811	 0.2733658094	 0.0234031579	-0.166614
N	-3.5920971071	-0.6445207626	 0.0290881096	-0.235506
C	-3.0294871138	-1.8844646168	 0.0209121947	 0.008098
N	-1.7180736407	-1.8212602357	 0.0105996429	-0.313797
H	 0.898270713	 1.7271287912	 0.0019153252	 0.289841
H	 0.5136580016	-0.393466297	-0.8878136255	 0.103167
H	 0.5287697114	-0.4015190156	 0.8795704584	 0.103205
H	-2.7292468138	 1.3356963916	 0.0278881657	 0.140362
H	-4.5752908338	-0.4330272257	 0.0377567634	 0.264927
H	-3.6215767953	-2.7875602229	 0.0230349975	 0.126401
