17
gdb 41048	3.2944	2.1109	1.89648	1.7089	73.45	-0.2207	0.0638	0.2845	804.4094	0.137563	-384.55839	-384.552457	-384.551513	-384.588225	25.918	
C	 0.0281759108	 1.4893999978	-0.2429629288	-0.316271
C	 1.5443746163	 1.5884000524	 0.1786467151	-0.326007
C	 1.4878778768	 0.1368416386	 0.7179532605	 0.194262
C	 0.9611128737	-0.4898328218	 2.0439388685	-0.175013
C	 0.8611786771	-1.7853080535	 1.275624605	-0.074563
C	-0.3349450779	-0.8265662779	 1.3119994326	-0.164469
C	 0.0857170829	-0.0099751101	 0.0831322304	 0.371245
O	 0.5779910135	-0.8924893805	-0.9671014843	-0.336687
C	 1.599447412	-1.2356514135	 0.0017978305	 0.00909
H	-0.6459343048	 2.0448907391	 0.4134082712	 0.114769
H	-0.2083958091	 1.7281601541	-1.2812346624	 0.120794
H	 2.2313244192	 1.7077701193	-0.6618937196	 0.122499
H	 1.7788429988	 2.3500760779	 0.9250143875	 0.113557
H	 1.1738831772	-0.31927619	 3.0896662244	 0.090671
H	 0.8146656756	-2.7935631497	 1.660820474	 0.096057
H	-1.3081109673	-1.1165748279	 1.6901583854	 0.087113
H	 2.4628005352	-1.7563451241	-0.4176203502	 0.072953
