15
gdb 51697	3.58363	1.04688	0.89954	4.4117	64.27	-0.2732	0.0075	0.2806	1259.9645	0.113412	-491.129829	-491.121595	-491.12065	-491.163971	28.735	
N	-0.1232621093	 1.2276943056	-0.280466952	-0.428492
C	-0.0623673592	-0.0192348819	-0.1239896323	 0.128668
O	-1.2117536698	-0.7458932462	-0.129905705	-0.191185
C	-1.0678370332	-2.1396034483	 0.0174210668	 0.197822
C	-2.4768531713	-2.7558671484	 0.0837125526	-0.204292
N	-2.6159111068	-3.2179978168	-1.2776880398	-0.365808
C	-1.4200352776	-3.2923344894	-1.9388856154	 0.48232
O	-1.1737564941	-3.7600983469	-3.0107452346	-0.378733
O	-0.4590418543	-2.7102712753	-1.1247641097	-0.23887
H	 0.8107123444	 1.6309503548	-0.2421003038	 0.236915
H	 0.8390363012	-0.6250389796	 0.0259077574	 0.10815
H	-0.4366976962	-2.3682771996	 0.8812720218	 0.108191
H	-2.5192544021	-3.5710784355	 0.8168181016	 0.123426
H	-3.2079743323	-1.9896995397	 0.3502261996	 0.149472
H	-3.4007397493	-3.745411803	-1.6182946871	 0.272415
