15
gdb 64634	2.28871	1.65413	1.41687	6.5631	71.89	-0.2584	-0.0312	0.2272	984.1867	0.11333	-413.021146	-413.012864	-413.01192	-413.053998	30.427	
C	-0.0322081842	 1.5456212501	 0.0188440098	-0.404319
C	 0.0110814282	 0.0084352575	 0.0069304383	 0.044924
N	 0.7949936638	-0.4897929816	-1.1524535831	-0.253703
C	 1.748407952	-1.1778615963	-0.6569650182	 0.062079
N	 1.7873217567	-1.2743439973	 0.725316154	-0.349768
C	 0.7336886241	-0.5386015178	 1.263748072	 0.371402
N	 0.3968939576	-0.298693056	 2.457814154	-0.520869
C	-1.3498138114	-0.5435829619	-0.0705885655	 0.312391
N	-2.420386312	-0.9720018556	-0.1343444367	-0.339149
H	 0.9889576938	 1.9343502313	 0.0309827486	 0.129282
H	-0.5399389677	 1.9101465945	-0.8757546666	 0.149117
H	-0.5565197821	 1.8881210441	 0.9131675736	 0.159412
H	 2.5109908852	-1.6724935074	-1.2496152468	 0.150673
H	 2.4867316157	-1.7605266944	 1.2612735306	 0.268114
H	 1.0132700704	-0.739878969	 3.1409514459	 0.220412
