18
gdb 5977	3.40131	1.35059	1.24488	4.0316	64.25	-0.244	-0.0201	0.224	1041.8757	0.150399	-422.083417	-422.073925	-422.07298	-422.117709	34.085	
C	 0.33175087	 1.3249162205	 0.5365650638	-0.424992
C	-0.0904578745	-0.0612906183	 0.0067599797	 0.273358
O	 0.2651913447	-1.0782576263	 0.9329789304	-0.48249
C	-1.5824018599	-0.1358074385	-0.3778377313	-0.221287
C	-2.5454730559	 0.2939415062	 0.720726428	-0.112293
O	-2.2910971703	-0.5069533331	 1.8807259716	-0.419507
C	 0.763064045	-0.3449800042	-1.2303629415	 0.154417
O	 0.534731756	 0.0840397803	-2.3313400694	-0.268009
H	 1.4090449969	 1.337012239	 0.7263845291	 0.126982
H	 0.0935914494	 2.1155169653	-0.1814450732	 0.12686
H	-0.1719111546	 1.535691453	 1.4842040676	 0.11868
H	-0.4241825725	-1.0772933312	 1.6115918733	 0.291903
H	-1.7498366632	 0.4825608258	-1.2650969333	 0.124717
H	-1.8017182964	-1.172161378	-0.6578704864	 0.11718
H	-2.4167526303	 1.3598133143	 0.9544095017	 0.101531
H	-3.5803282366	 0.1530894876	 0.3777827611	 0.102221
H	-2.8167660385	-0.174611254	 2.6137525288	 0.29634
H	 1.6473290608	-0.9824446383	-1.00934559	 0.094388
