17
gdb 54165	3.20546	1.10429	0.97444	3.7391	76.87	-0.2479	0.0019	0.2498	1238.1024	0.134121	-417.988535	-417.978898	-417.977954	-418.022863	35.434	
C	 0.3195545801	 1.4095184765	-0.4235883774	-0.49078
C	 0.1004391317	-0.0453209788	-0.0756063442	 0.204703
N	 1.3020460697	-0.8781583533	 0.0261104171	-0.352015
C	 0.552022947	-0.5955948616	 1.2609898527	-0.282446
C	 1.1596648286	 0.2420203272	 2.2567144704	 0.357774
C	 1.6368067866	 0.9440179784	 3.108454915	-0.404106
C	-1.1082721898	-0.7783587338	-0.6247852481	 0.377167
N	-2.0953809487	-0.0101408438	-1.1536762525	-0.542015
O	-1.1723024934	-1.9972701758	-0.5883215946	-0.382944
H	 1.2621349923	 1.750831192	 0.0057665646	 0.155477
H	 0.3685672398	 1.5500562295	-1.5085461574	 0.127482
H	-0.4760849002	 2.0464603044	-0.0197243193	 0.118384
H	 1.0387204346	-1.8180881316	-0.2755998887	 0.251758
H	-0.0628894477	-1.4058388172	 1.644999999	 0.13105
H	 2.0703150452	 1.5548008571	 3.8612440251	 0.197771
H	-2.051620029	 0.9922186912	-1.1754317972	 0.265611
H	-2.9151099467	-0.4725469503	-1.5106516545	 0.267129
