21
gdb 105671	1.8547	1.41324	1.17672	2.7334	78.63	-0.2499	-0.0302	0.2197	1229.3259	0.179741	-424.220885	-424.210663	-424.209719	-424.257329	36.167	
C	 0.2008930903	 1.6841829819	 0.2755184973	-0.402813
C	-0.0921084394	 0.1977214026	 0.0270781436	-0.253349
C	 0.6162434309	-0.4046583798	-1.2001558606	 0.154615
C	 2.150323747	-0.596226831	-1.0470111267	-0.117196
O	 2.0277397112	-2.0220064672	-1.1433525857	-0.290836
C	 0.5929470283	-1.9541749424	-1.3614026722	 0.111756
C	-0.1782966457	-2.8323192745	-0.3975506152	-0.415345
C	 0.2280027247	 0.3393175659	-2.4593953176	 0.103441
O	-0.4733114897	-0.1060754087	-3.3324247474	-0.25115
H	 1.2774153357	 1.8768862921	 0.3403739463	 0.12335
H	-0.2062196259	 2.325621345	-0.5114086815	 0.127037
H	-0.2468703044	 2.0039470962	 1.2208140136	 0.125111
H	 0.2169892011	-0.3741277654	 0.9085081251	 0.113409
H	-1.1735346134	 0.0476463106	-0.0761009241	 0.115214
H	 2.7665111075	-0.1740745892	-1.8531670867	 0.101938
H	 2.5682993655	-0.278410885	-0.0828581222	 0.101146
H	 0.3466305559	-2.2362845184	-2.3917375476	 0.097884
H	 0.0450091973	-2.5953140284	 0.6457200167	 0.117885
H	-1.2561111434	-2.732132705	-0.5631406934	 0.124012
H	 0.0928628415	-3.8787184518	-0.5691645398	 0.130783
H	 0.6495237351	 1.3669229325	-2.5422790519	 0.083107
