20
gdb 44959	2.46366	1.76162	1.52682	2.3751	76.93	-0.2092	-0.0159	0.1933	978.7764	0.174834	-403.1762	-403.169069	-403.168125	-403.207485	29.507	
O	-0.0251806253	 0.0013019459	 0.0003032295	-0.327913
C	-0.0250354931	 1.2041640763	-0.0195064707	 0.408055
C	-1.2634863501	 2.1273118185	-0.075717326	-0.292856
N	-0.7545479898	 3.5002135686	 0.0633131727	-0.075451
C	 0.5707698579	 3.4175791436	-0.5919378489	-0.19349
C	 1.1895506683	 2.1426001123	 0.0122803504	-0.119148
C	 1.558318794	 2.4383424073	 1.4890598693	-0.207253
C	 0.318390975	 2.8960470991	 2.284799579	-0.217755
C	-0.5634614936	 3.8770399784	 1.4774252696	-0.166023
H	-1.7479786586	 2.0027115382	-1.0535932524	 0.129308
H	-1.99791081	 1.8668187448	 0.6906145549	 0.129943
H	 0.4326883474	 3.3308168716	-1.6760363718	 0.10393
H	 1.152600394	 4.3218638792	-0.3945923695	 0.104676
H	 2.035251118	 1.7169108546	-0.5313222614	 0.087848
H	 1.9959675955	 1.5490964395	 1.9533792186	 0.114088
H	 2.328292524	 3.2200211097	 1.4971054096	 0.10058
H	-0.2757345881	 2.0143560515	 2.5546379529	 0.114015
H	 0.6174954582	 3.3589421931	 3.2312820849	 0.099544
H	-0.114638213	 4.8772020255	 1.4804167527	 0.10336
H	-1.5482635708	 3.9714402423	 1.9475182266	 0.104542
