17
gdb 27055	3.04739	1.24694	0.89012	5.1314	80.12	-0.1893	0.021	0.2102	1257.	0.136961	-418.07365	-418.064846	-418.063902	-418.107834	31.932	
C	-0.0096148914	 1.5057825102	 0.0464127529	-0.518103
C	 0.0083301957	 0.0140005238	-0.0110545516	 0.203761
C	 0.0143521544	-0.863011633	-1.081725367	 0.283823
N	-0.0101368821	-0.462238785	-2.4288024523	-0.406814
C	-0.0723488218	-1.2688983246	-3.526479834	 0.142252
O	-0.1157794012	-2.4805787162	-3.5262225523	-0.316497
C	 0.0561607869	-2.1956800726	-0.5770326704	-0.236118
C	 0.0797670213	-2.0946246544	 0.7925048426	-0.079846
N	 0.0535913648	-0.7654073668	 1.1240547851	-0.28946
H	 0.9927782424	 1.9471475736	 0.1294113917	 0.134484
H	-0.4782169665	 1.9285788106	-0.8484944765	 0.12633
H	-0.5949960301	 1.8641310638	 0.9009385982	 0.129182
H	 0.032280807	 0.5285003705	-2.6094302953	 0.244425
H	-0.0762615332	-0.6654899355	-4.4564871139	 0.069281
H	 0.0608502875	-3.0915297414	-1.1710833781	 0.135925
H	 0.1060642878	-2.8577534772	 1.5530566468	 0.11946
H	 0.0537776385	-0.4015833956	 2.0604838741	 0.257914
