15
gdb 37549	4.2298	1.70378	1.46922	1.5373	69.29	-0.2271	0.0053	0.2325	864.5987	0.113957	-416.673248	-416.667339	-416.666395	-416.703311	24.532	
C	 0.0190417919	 1.5178582822	 0.0897202653	-0.302523
N	 1.4758754833	 1.8609439177	 0.0319738623	-0.240929
C	 2.096287571	 0.8632605102	-0.4869131147	 0.035734
N	 1.2911131115	-0.1804912119	-0.9594949308	-0.13335
C	 1.0503009257	-1.557690104	-0.4251015209	-0.085086
C	 0.4713379015	-1.0809496435	 0.938765615	 0.045434
O	-0.7738323231	-1.8205812207	 0.7995736299	-0.317769
C	-0.5136468928	-1.3733376241	-0.5502216447	-0.026277
C	 0.0732467371	 0.0239956571	-0.1267666844	 0.307457
H	-0.404927073	 1.8111584477	 1.0517800682	 0.128674
H	-0.5113188818	 2.0570915636	-0.7050209094	 0.126163
H	 3.1664207663	 0.8758218037	-0.6717810183	 0.127344
H	 1.6547317452	-2.4296318256	-0.6707250844	 0.107818
H	 0.9291875223	-1.0021034002	 1.9243318007	 0.113114
H	-1.1952722549	-1.6493682221	-1.3527039138	 0.114197
