16
gdb 71588	2.92022	1.75093	1.66115	1.2279	67.35	-0.2373	0.0016	0.2389	886.2743	0.125377	-437.836258	-437.829431	-437.828487	-437.867251	27.143	
C	 0.0305767449	 1.4692364684	-0.0910981679	-0.52838
C	-0.0105034409	-0.0194688289	 0.0137650969	 0.361372
O	 0.6667576274	-0.8461673007	-1.0070736894	-0.330043
C	 0.0776586441	-1.8284879044	-0.0894018023	-0.009392
C	 0.5979020526	-0.9700565389	 1.0875603808	 0.072286
O	-0.0596302684	-1.0715622394	 2.3448997222	-0.239659
C	-1.4087568192	-1.1305061299	 2.2308285195	 0.125649
N	-2.0617830333	-1.100855266	 1.1457852918	-0.28786
C	-1.2324477486	-0.9958411881	-0.0388275401	-0.023687
H	 1.0619332086	 1.8334019378	-0.0561861531	 0.136374
H	-0.4272614212	 1.8007238735	-1.0277771509	 0.141001
H	-0.523646352	 1.9156727473	 0.740349424	 0.140304
H	 0.2215594097	-2.8866186889	-0.2976763183	 0.103118
H	 1.6724379838	-0.9276999344	 1.2541601012	 0.10929
H	-1.8871341812	-1.2086197206	 3.2029692557	 0.136694
H	-1.8115981064	-0.9721878769	-0.96142771	 0.092935
