22
gdb 82213	2.40163	1.77972	1.33853	1.391	84.37	-0.2163	0.0828	0.299	1070.5349	0.195242	-367.183613	-367.175253	-367.174309	-367.215777	34.031	
C	-0.0357741509	 1.5854260708	 0.0203070229	-0.391836
C	 0.0544791862	 0.0608141952	 0.0278488973	-0.031445
N	 0.6818983256	-0.4899117625	-1.2032726329	-0.103473
C	 2.0787858708	-0.1269255947	-1.4878625115	-0.261209
C	 1.7675509846	-1.4010272251	-0.7891228302	-0.02358
C	 1.829684753	-1.4752622533	 0.7201881118	-0.087608
C	 2.1919183706	-0.2402289838	 1.5159020296	-0.35518
C	 0.7414217292	-0.5676268073	 1.260038156	 0.353508
C	-0.1457873746	-0.9480968336	 2.4235418896	-0.483784
H	 0.9515484022	 2.0537255829	 0.0712069729	 0.111491
H	-0.5313137881	 1.9338943174	-0.8904678145	 0.124886
H	-0.6152466997	 1.9372300063	 0.8798406685	 0.115382
H	-0.9712323231	-0.3308522134	 0.0158686437	 0.079586
H	 2.3269984123	-0.1335384082	-2.5466850292	 0.110131
H	 2.5630058526	 0.6705343835	-0.9342759561	 0.109232
H	 1.8450122063	-2.3438300458	-1.324761417	 0.085076
H	 2.0209241073	-2.4473274301	 1.1613457444	 0.081959
H	 2.5512307168	-0.4038443704	 2.5278621114	 0.106514
H	 2.66954051	 0.6001259796	 1.0269939686	 0.109706
H	-0.5962550079	-0.0628041341	 2.8889196019	 0.118369
H	-0.9624686182	-1.6061879173	 2.104567509	 0.118288
H	 0.422799485	-1.4700062759	 3.1996870339	 0.113987
