15
gdb 77064	3.28626	1.0603	0.8757	3.4263	67.29	-0.289	-0.0057	0.2833	1266.6125	0.111833	-453.948606	-453.939858	-453.938914	-453.983018	30.655	
O	 0.1464533514	 1.374654113	 0.2291507488	-0.421627
C	 0.1272686511	-0.0234581177	 0.1139383494	-0.024136
C	-1.2772849499	-0.6805124998	 0.1666741688	 0.094104
C	-2.4578257375	 0.2840885562	 0.1950183502	-0.346659
C	-3.733751844	-0.3947258844	-0.0170883724	 0.262094
N	-4.7406521157	-0.9378346242	-0.175804833	-0.295391
O	-1.0547581022	-1.2440678762	-1.1701633122	-0.254807
C	 0.1513901972	-0.5895516599	-1.2940313114	 0.404507
N	 0.9446727987	-0.4604308793	-2.2531003851	-0.545383
H	 0.7622100313	 1.710561738	-0.4328599186	 0.310525
H	 0.8490112747	-0.4984942568	 0.790225168	 0.116015
H	-1.3969718915	-1.4866452381	 0.8931492581	 0.120753
H	-2.4752925724	 0.7908413198	 1.1665455333	 0.17063
H	-2.3180845439	 1.0604016274	-0.5619507687	 0.167501
H	 0.6215902627	-0.939806218	-3.0947754251	 0.241874
