21
gdb 105376	3.06461	0.99301	0.83905	1.8517	78.38	-0.2573	0.0844	0.3417	1430.2863	0.181585	-424.188157	-424.178764	-424.17782	-424.223137	35.154	
O	 0.1019820926	 1.4245969931	 0.2892402772	-0.42003
C	-0.0032987849	 0.0576698595	 0.6228466015	-0.133483
C	-1.3589259274	-0.5216429601	 0.2331993923	 0.380172
C	-1.5421873673	-2.023057796	 0.3655351479	-0.303398
C	-0.6610256134	-2.8301946378	-0.5695793687	 0.037483
C	 0.6812980734	-3.3609820115	-0.1268373454	-0.252392
C	-0.4733591054	-4.3076098009	-0.341800767	-0.285334
C	-2.5277271195	 0.3664023756	 0.2430454093	-0.231993
O	-1.8637760117	 0.0453242075	-0.9937523314	-0.292215
H	-0.2467984157	 1.4946179492	-0.609802103	 0.290785
H	 0.7881319271	-0.5351440941	 0.1403084772	 0.105168
H	 0.1361024253	-0.0274533439	 1.706908793	 0.110719
H	-1.347867151	-2.3172652242	 1.4060387389	 0.098268
H	-2.5943892468	-2.2565657428	 0.1645532013	 0.106681
H	-0.7306433652	-2.5148127441	-1.6069394653	 0.098856
H	 1.4969550589	-3.3688154451	-0.8414588743	 0.114717
H	 0.9922840888	-3.1713078059	 0.8957074135	 0.110304
H	-0.9359469371	-4.7471029541	 0.5363664264	 0.110308
H	-0.4504282551	-4.9641750502	-1.2043785994	 0.113801
H	-3.5240660727	-0.0586626312	 0.3512652779	 0.113149
H	-2.410365953	 1.3968022567	 0.568335098	 0.128435
