21
gdb 77598	2.24841	1.63333	1.34342	1.35	83.61	-0.2218	0.0235	0.2453	1089.4192	0.18142	-387.092737	-387.08347	-387.082526	-387.12585	35.968	
C	-0.002201301	 1.5391403724	 0.0762352405	-0.495085
C	 0.0941103626	 0.0318082741	 0.0588312872	 0.229544
C	 0.426035724	-0.6547879675	-1.2725340006	-0.33408
C	 1.2126861777	-1.8809536663	-0.864899683	-0.08328
C	 1.4185966665	-1.9265038978	 0.452497139	-0.132409
C	 0.7745636144	-0.7854283643	 1.1720383411	 0.243806
C	 1.4353868904	-0.2015247617	 2.3983502431	-0.489597
C	-0.7371652386	-0.7871974383	 1.0289573324	 0.018303
O	-1.4569375424	-0.126112828	 2.0305713654	-0.42749
H	 0.9528280946	 1.9991280394	-0.2012662878	 0.118975
H	-0.7524393342	 1.8916024389	-0.6431796448	 0.11034
H	-0.2838975846	 1.9153803227	 1.0621574438	 0.126343
H	-0.4794409353	-0.9120676178	-1.8395866486	 0.102156
H	 1.0163590423	 0.0038877277	-1.9265921897	 0.101011
H	 1.5495782583	-2.6232297975	-1.5797026896	 0.091877
H	 1.9629170983	-2.703692608	 0.9791102484	 0.090047
H	 2.3948894765	 0.265289792	 2.150056794	 0.112836
H	 0.796538969	 0.5436024242	 2.8754719151	 0.135502
H	 1.6310451521	-0.986404905	 3.1383132879	 0.11591
H	-1.201418143	-1.7071255864	 0.6684948724	 0.077749
H	-2.1947343177	 0.334313537	 1.6163627137	 0.28754
