19
gdb 10537	2.8895	1.39442	1.05955	1.843	77.93	-0.243	0.0438	0.2869	1177.1711	0.163851	-327.870232	-327.861194	-327.86025	-327.903925	33.373	
C	-0.0757644066	 1.5825287915	 0.0890614419	-0.382339
C	-0.1620244818	 0.0563689766	 0.1653062559	-0.163725
C	 0.8952275629	-0.5510942856	 1.0965602365	-0.261915
C	 0.8314250624	-2.0715699708	 1.1821365548	 0.099627
C	 1.1814353418	-2.7342445882	 2.4756412444	-0.273911
N	-0.2166509069	-2.6962487435	 2.0317655826	-0.333398
C	 1.1079397196	-2.7681784465	-0.0529199673	 0.353063
C	 1.3710351758	-3.3174436343	-1.0895930454	-0.461425
H	 0.9023850015	 1.9061151083	-0.2839857791	 0.116301
H	-0.8384653387	 1.9895786294	-0.5816434327	 0.115354
H	-0.220604388	 2.0408571711	 1.0740516443	 0.111565
H	-1.1611893185	-0.2418399893	 0.5076908669	 0.098179
H	-0.0424471471	-0.3752099197	-0.8348119779	 0.117408
H	 1.8960520351	-0.2568413018	 0.7558977004	 0.109438
H	 0.7783396549	-0.1432284738	 2.1096646847	 0.088057
H	 1.6358336153	-3.7199759914	 2.4641566842	 0.128668
H	 1.4974413694	-2.091013301	 3.2934145608	 0.113347
H	-0.7167783423	-1.9596574272	 2.5259040236	 0.231305
H	 1.5909380813	-3.8162638138	-2.0008039884	 0.194403
