20
gdb 110570	3.58386	1.19752	1.05025	2.6864	80.42	-0.2255	0.082	0.3076	1226.9106	0.16973	-403.038188	-403.029623	-403.028679	-403.071447	32.456	
C	-0.311444351	 1.2966834604	 0.0999321996	-0.239853
O	 0.371830636	 0.0872296477	-0.1454074522	-0.250009
C	 0.8660862409	-0.5108023876	 1.0121505571	 0.166095
C	-0.0538203606	-1.3832566601	 1.8880327014	-0.106849
N	-0.0610970454	-2.5222388442	 0.8330720061	-0.1526
C	 0.3444938207	-3.5068842927	 1.9226008299	-0.223135
C	 1.1403626055	-2.2802963528	 2.3645081919	 0.308632
C	 2.0640934066	-2.0970503801	 3.5425318308	-0.525226
C	 1.3775394769	-1.9372587447	 0.853056855	-0.104614
H	 0.3340143143	 2.032387018	 0.6060780131	 0.101409
H	-0.6139754943	 1.7001291627	-0.8688939008	 0.130618
H	-1.2097179134	 1.1439254764	 0.7160280067	 0.109293
H	 1.5218564579	 0.1760521465	 1.5703932987	 0.061887
H	-0.961997236	-1.1382470247	 2.4424857514	 0.078419
H	-0.4922732715	-3.8335088499	 2.5505934289	 0.095623
H	 0.8981697129	-4.3738838085	 1.5443837661	 0.096589
H	 2.8990017555	-2.8049321591	 3.4954721767	 0.124486
H	 2.484114639	-1.0864822815	 3.5774172002	 0.123032
H	 1.5320645706	-2.2714496572	 4.4843118805	 0.123557
H	 2.1461543254	-2.3314789987	 0.1859445488	 0.082646
