17
gdb 65831	3.25472	1.15592	1.10998	3.7572	74.6	-0.2497	0.0316	0.2813	1155.819	0.136093	-418.025085	-418.016452	-418.015508	-418.058008	33.158	
C	 0.072908959	 1.4281410042	 0.0731888179	-0.422348
C	-0.0728162796	-0.1066642668	-0.0043373008	 0.06611
C	 0.7356316227	-0.6923235602	-1.2071788315	-0.190132
N	 2.0388071232	-0.9080413039	-0.6026819323	-0.350334
C	 1.9210645111	-1.1173599947	 0.7681335734	 0.429334
O	 2.7828578213	-1.5104338926	 1.5194020215	-0.406052
N	 0.6152026273	-0.7790407843	 1.1020281209	-0.348006
C	-1.4881427858	-0.4754078444	-0.0696796383	 0.304936
C	-2.6576541258	-0.7441536456	-0.1266793112	-0.430471
H	 1.1316116585	 1.7009584553	 0.0535438645	 0.138059
H	-0.4360098123	 1.9059377589	-0.7686238683	 0.129956
H	-0.3736100422	 1.8055937459	 0.9973687991	 0.126352
H	 0.2686286437	-1.6217865684	-1.5561422818	 0.120811
H	 0.7756924427	 0.0177287497	-2.0373700279	 0.121963
H	 2.7450976537	-1.4455072593	-1.0802318077	 0.255441
H	 0.4311872584	-0.5086957699	 2.0557256717	 0.25376
H	-3.6888015659	-0.9951531139	-0.1729454292	 0.200621
