18
gdb 15044	3.00659	1.5594	1.15252	1.6486	73.25	-0.2577	0.0493	0.307	1079.0901	0.151452	-347.749129	-347.740239	-347.739295	-347.782741	32.193	
C	 0.1647275389	 1.4373384011	-0.1435636107	-0.393876
C	-0.0503030576	-0.0728742963	-0.0451883131	-0.16522
C	-1.5410665373	-0.4886532514	 0.0460276182	-0.200708
C	-2.2932430334	-0.0647047111	-1.1326852961	 0.351353
C	-2.9017005575	 0.2981744158	-2.1040425042	-0.477396
C	-1.6412123905	-1.9899256657	 0.3030482822	 0.091507
C	-2.6754142312	-2.861825123	-0.261569221	-0.191205
O	-1.3410297899	-2.8602804446	-0.7827432733	-0.232091
H	 1.2310663043	 1.6740523498	-0.2056888247	 0.115251
H	-0.3262619316	 1.8471902551	-1.0307326896	 0.133647
H	-0.2412909878	 1.9548853489	 0.7330896443	 0.111749
H	 0.3896845801	-0.5798958494	-0.910223742	 0.124727
H	 0.4592969066	-0.464520275	 0.8438678487	 0.095646
H	-1.9765786165	 0.0085636436	 0.926520269	 0.105726
H	-3.44012069	 0.6170183156	-2.9620962185	 0.198179
H	-1.1845830061	-2.2871153113	 1.2497802087	 0.092323
H	-2.9652110973	-3.7649363704	 0.2738325665	 0.112085
H	-3.4272308931	-2.4368193918	-0.9220366943	 0.128304
