19
gdb 73405	2.70354	1.9848	1.51101	1.3293	73.29	-0.2312	0.078	0.3092	926.945	0.162339	-423.018277	-423.011455	-423.01051	-423.048978	28.878	
O	 0.099772229	 1.3916270239	 0.0926247179	-0.502438
C	 0.0267060836	 0.0078379036	 0.0622859298	 0.450358
C	 0.8854450276	-0.7349788653	 1.0757029021	-0.277138
C	 0.5376210815	-2.1977429006	 0.6616871563	-0.241747
C	-0.4500312863	-1.9247028598	-0.4817254754	-0.04794
C	-1.3598044741	-0.764526755	 0.0336558723	-0.132199
C	-1.9971022436	-0.2250607811	-1.23839217	-0.121626
O	-0.8464098864	-0.2029376274	-2.1206185987	-0.299351
C	 0.1762871667	-0.7560257214	-1.2853947213	 0.041698
H	-0.1881664094	 1.705561812	-0.7744282239	 0.290696
H	 1.9456482409	-0.4930242545	 0.9581819537	 0.104589
H	 0.6014692653	-0.4979748687	 2.1047715598	 0.106517
H	 1.4150945031	-2.7571027823	 0.3240556822	 0.102238
H	 0.0756609323	-2.7668036076	 1.4732717147	 0.103426
H	-0.8854194188	-2.7739852853	-1.0080062483	 0.069997
H	-1.9797047529	-0.8675570904	 0.924700249	 0.069719
H	-2.7765870724	-0.871985339	-1.6571432102	 0.104588
H	-2.4020064294	 0.7883785459	-1.126206285	 0.099739
H	 1.1124249533	-0.8284464972	-1.8395664549	 0.078872
