19
gdb 52118	3.6209	1.01939	0.88843	2.5344	76.62	-0.247	0.0304	0.2774	1326.9476	0.160477	-419.192235	-419.183538	-419.182594	-419.227126	31.825	
O	 0.1735715222	 1.020728552	-1.150566699	-0.328656
C	 0.1952271247	 1.4373664269	-0.010581644	 0.157713
N	 1.2728975925	 1.401591214	 0.8162324954	-0.266537
C	 2.5777227699	 0.9121285528	 0.3854659676	-0.274977
C	 3.4975167809	 2.0206311396	-0.0387791301	 0.353822
C	 3.4111463929	 2.8304420194	-1.3448899709	-0.28861
C	 4.9745567534	 2.9225433044	-1.3515881764	-0.238247
C	 4.9979740726	 2.1214964713	-0.0416072694	-0.089399
N	 4.2029347759	 2.7765816014	 0.9962344134	-0.367206
H	-0.6890904507	 1.8852928859	 0.4853887967	 0.074437
H	 1.2097894551	 1.864470531	 1.7092309085	 0.253713
H	 3.0362589848	 0.3538617785	 1.2072411386	 0.116406
H	 2.3937242972	 0.22890348	-0.4470886804	 0.143194
H	 3.018294646	 2.2501620076	-2.1819876214	 0.128869
H	 2.8512852017	 3.7690992114	-1.2809438489	 0.09688
H	 5.4162611022	 2.3858003201	-2.1942516847	 0.112418
H	 5.4212357028	 3.9212617197	-1.3010299993	 0.098864
H	 5.7518776878	 1.4084355365	 0.2735919625	 0.094813
H	 4.1440838981	 3.7847881076	 0.8591761619	 0.222501
