18
gdb 90234	2.71821	1.73564	1.56525	2.0601	70.06	-0.2217	0.0372	0.2589	933.8533	0.148135	-438.981296	-438.973808	-438.972864	-439.012943	30.238	
O	 0.3243590442	 1.2244826729	-0.3884290886	-0.435609
C	 0.1523372843	-0.1033757736	 0.0148598125	 0.073693
C	 0.2699855705	-0.38404314	 1.5744564727	-0.329164
C	-1.2553646952	-0.6969624288	 1.6053540732	 0.195469
C	-2.2705717192	 0.4678636676	 1.6698909658	-0.134334
O	-2.2830231461	 0.5618227926	 0.1901521755	-0.354803
C	-1.344957136	-0.531097041	 0.1187152484	 0.341192
C	-1.8326914535	-1.9963363339	 0.0206494431	-0.255111
N	-1.8345995181	-2.0585144354	 1.5283165756	-0.373049
H	-0.5520568834	 1.634225362	-0.3295182393	 0.292737
H	 0.7868893218	-0.7446891461	-0.6059658762	 0.081095
H	 0.9046120987	-1.236428378	 1.8311081577	 0.102614
H	 0.5904414346	 0.4860799011	 2.1527620376	 0.112164
H	-3.2575852272	 0.196499191	 2.0534569372	 0.124021
H	-1.9281171254	 1.4071783001	 2.1176091416	 0.109918
H	-2.8259677019	-2.1410246878	-0.4142752818	 0.121933
H	-1.1223684871	-2.6662614645	-0.4806195394	 0.104573
H	-1.273819381	-2.7982402881	 1.9347762443	 0.222659
