21
gdb 73685	2.10131	1.93968	1.47858	1.8173	76.77	-0.2334	0.0762	0.3096	1019.5935	0.184758	-424.246308	-424.238329	-424.237385	-424.2787	31.592	
C	-0.0652414093	 1.6173332683	 0.1376564696	-0.450882
C	 0.0600480139	 0.1019369294	 0.06091595	 0.38869
C	-1.297302961	-0.6260579663	-0.0409187075	-0.121786
O	-1.1050032517	-1.9003260099	 0.5531193992	-0.248201
C	-0.3091160387	-1.6592794587	 1.706350392	-0.093691
C	 0.7335255415	-0.6010947751	 1.2929430668	-0.097611
C	 2.0380197459	-1.1767501955	 0.7093799883	-0.228175
C	 1.6996091704	-1.3298589006	-0.7760444824	-0.084575
O	 0.8811694537	-0.2061173895	-1.0726521858	-0.297098
H	 0.9225866994	 2.0764586753	 0.2315273765	 0.121116
H	-0.5312553424	 2.0077154151	-0.772778983	 0.126496
H	-0.6765942485	 1.9194173511	 0.9932285544	 0.112323
H	-2.0799252749	-0.0633100442	 0.4963003183	 0.077893
H	-1.6051216603	-0.7667151383	-1.0790303812	 0.116878
H	-0.9359354549	-1.2795273361	 2.5305602428	 0.086824
H	 0.1275018844	-2.6118243899	 2.0187104703	 0.106547
H	 0.9297630072	 0.0976731981	 2.1084975685	 0.074569
H	 2.8544766756	-0.4583295726	 0.832431496	 0.104581
H	 2.3401769101	-2.1154597164	 1.1818678739	 0.099322
H	 2.5719181949	-1.2910469046	-1.4350509663	 0.102017
H	 1.1607475349	-2.2695355199	-0.9627715005	 0.104763
