13
gdb 9867	6.03434	0.92877	0.86146	4.7842	74.82	-0.2668	-0.0492	0.2176	1265.6749	0.094489	-361.429837	-361.422067	-361.421123	-361.46227	28.05	
O	-0.0494406449	 1.3748256236	-0.0740892612	-0.431424
C	-0.0014501882	-0.0218499807	-0.0101773623	 0.190102
C	-0.4777849832	-0.6994951092	 1.270700411	-0.30986
C	-1.3547501808	-0.6918253139	 0.050858096	-0.284078
C	 1.0560491926	-0.6382681144	-0.7595994767	 0.169487
C	 1.9750427931	-1.1246515057	-1.3787468853	-0.055444
C	 3.0037588837	-1.6854141899	-2.0768192115	 0.202416
N	 3.8815606941	-2.1647214899	-2.6689435728	-0.33697
H	 0.7448345392	 1.7233248851	 0.3477252925	 0.294742
H	-0.0006364428	-1.6261717759	 1.5665857023	 0.138124
H	-0.7296666599	-0.0213140129	 2.0778916623	 0.135649
H	-2.1939632893	-0.0064933334	 0.0331629081	 0.145744
H	-1.4899252236	-1.6125419627	-0.5029008523	 0.14151
