18
gdb 61481	2.55168	0.92349	0.86534	5.1363	77.22	-0.2685	0.0023	0.2708	1432.7259	0.146235	-398.145524	-398.135414	-398.134469	-398.181388	35.522	
C	-1.5542546122	 0.292970371	 0.6158498957	-0.405833
C	-0.0850319761	 0.2326356175	 0.1709122728	-0.094708
N	 0.724679651	-0.3462724905	 1.2433491778	-0.299519
C	 2.1704302284	-0.4181295535	 1.0052679899	-0.110754
C	 2.9083172688	 0.9303168412	 0.8650825911	-0.400714
C	 2.7682550691	-1.2019528888	 2.0984505767	 0.280553
N	 3.2531651953	-1.7831152991	 2.9708623058	-0.312642
C	 0.0521493699	-0.5895757149	-1.0449119434	 0.305361
N	 0.1691018561	-1.2114748326	-2.011502701	-0.322608
H	-1.6465959187	 0.9488924877	 1.486897354	 0.128229
H	-2.181039646	 0.6939318306	-0.1833909743	 0.146022
H	-1.9077506493	-0.7041541944	 0.8855446649	 0.157618
H	 0.2306528735	 1.2512584118	-0.114362939	 0.115929
H	 0.5348719192	 0.1495940693	 2.1083499256	 0.235801
H	 2.3122854413	-0.9949094207	 0.0825868125	 0.161815
H	 2.7832996266	 1.5354899475	 1.7679335127	 0.133104
H	 3.9776052638	 0.7664402468	 0.7078999807	 0.149118
H	 2.5236463791	 1.488870211	 0.0080209573	 0.133227
