23
gdb 60385	3.27525	0.7642	0.69153	1.3334	82.39	-0.2588	0.073	0.3318	1730.339	0.202775	-425.415729	-425.404956	-425.404012	-425.452205	39.499	
C	-0.4067000914	 1.5105516838	-0.1279464681	-0.402951
C	 0.0080786818	 0.0456091417	 0.012583368	 0.137326
O	-1.1064769494	-0.7728357024	 0.3654597908	-0.427499
C	 0.7195048531	-0.4799246229	-1.2419028046	-0.195807
C	 1.1858823127	-1.9346580087	-1.0975985762	-0.264426
C	 1.6999046594	-2.536305591	-2.3933153303	 0.42761
C	 2.9765404952	-1.9589675192	-2.967737331	-0.462218
C	 1.3142539773	-3.9114184537	-2.7458168735	-0.231647
O	 0.6715805803	-2.7952025518	-3.3673657313	-0.280275
H	 0.4627644147	 2.1566469226	-0.2874387221	 0.114368
H	-1.0804525483	 1.6426903096	-0.9839424542	 0.107648
H	-0.9288510073	 1.8452281874	 0.7724368991	 0.123348
H	 0.6881784345	-0.0499197639	 0.8693015074	 0.085466
H	-1.7534730312	-0.7043442649	-0.3461968947	 0.277564
H	 0.0314699035	-0.4097379194	-2.0962650559	 0.102259
H	 1.5655082229	 0.1806947397	-1.4675843478	 0.093917
H	 1.9720404263	-2.0001549603	-0.3332253721	 0.092935
H	 0.3417414558	-2.5288227422	-0.7367226476	 0.115128
H	 3.8064665785	-2.0752423539	-2.2620145789	 0.118933
H	 3.2399404718	-2.4621666666	-3.9011892937	 0.125556
H	 2.8654384294	-0.8909689968	-3.1807404255	 0.126979
H	 1.9546971343	-4.5038301551	-3.3990360077	 0.106344
H	 0.6914591364	-4.4899129221	-2.0641917702	 0.109442
