21
gdb 101162	2.01249	1.39436	0.98223	1.8021	74.62	-0.2433	0.0511	0.2944	1275.7482	0.180849	-461.335327	-461.324979	-461.324035	-461.370472	38.149	
C	 0.1306100259	 1.6537599977	-0.1904569889	-0.408792
C	 0.2004854016	 0.1445530161	-0.0906810278	-0.059274
C	 1.5240694657	-0.5656904617	 0.038237394	 0.087635
O	 2.6823877318	 0.2048291891	 0.1146172394	-0.431881
C	 0.5608954415	-0.5632081349	 1.2078147487	-0.112082
C	 0.8653276686	 0.1909497648	 2.4840178379	 0.100352
O	-0.3162707901	 0.4441634333	 3.2434388107	-0.4364
C	 1.8936144322	-0.5409039614	 3.3664766154	-0.100684
O	 3.220272084	-0.4952778549	 2.8264599614	-0.409938
H	 1.058379236	 2.1141910024	 0.1545186948	 0.134922
H	-0.0120759773	 1.9562681867	-1.2328221688	 0.114012
H	-0.7014093569	 2.0566153461	 0.3961889001	 0.120788
H	-0.5396568825	-0.3766082706	-0.6924262319	 0.081959
H	 1.6426931514	-1.5063709369	-0.5007815013	 0.080531
H	 3.1506135981	-0.0992862959	 0.9083663074	 0.28649
H	 0.0536402985	-1.5105355073	 1.3981248304	 0.069507
H	 1.2758448983	 1.1783816803	 2.2510991477	 0.089218
H	-0.869763384	-0.3422985616	 3.1987060204	 0.279966
H	 1.8665563867	-0.1044936064	 4.3717586326	 0.108934
H	 1.6357206281	-1.6028013408	 3.4529640658	 0.10722
H	 3.6116600923	 0.3440155758	 3.0891287618	 0.297518
