17
gdb 31737	6.24205	0.84512	0.75483	1.0518	72.72	-0.1936	0.0396	0.2332	1479.2841	0.136005	-455.166962	-455.157665	-455.156721	-455.201799	32.449	
C	-0.1225743092	 1.408042225	 0.1541076792	-0.329382
N	 0.1870502822	-0.0013475577	-0.0250035369	-0.383069
C	 0.7063041959	-0.7430923879	 0.9963738514	 0.48585
N	 0.6865518033	-2.0383567768	 1.1192525553	-0.422822
C	 1.4144630843	-2.2666522824	 2.2872706974	 0.260069
C	 1.6405854203	-3.6495732462	 2.7949291697	-0.189436
O	 2.3665884233	-3.5672920462	 4.0101983248	-0.419478
C	 1.8247381695	-1.0932335817	 2.8090362967	-0.127856
O	 1.363763084	-0.0828942815	 1.9723068056	-0.191598
H	 0.7665123471	 1.9354392091	 0.5055303422	 0.15359
H	-0.4090017157	 1.8272526507	-0.8126464184	 0.130889
H	-0.934969909	 1.5890541588	 0.8725017159	 0.123674
H	-0.4508875028	-0.5362050041	-0.5939779092	 0.258706
H	 0.6665566503	-4.1469292198	 2.932668879	 0.105289
H	 2.1852469873	-4.230113124	 2.0325027265	 0.106081
H	 2.5374623069	-4.4619462359	 4.3160236943	 0.2913
H	 2.3821009923	-0.7886041195	 3.6743297763	 0.148192
