18
gdb 122927	2.77446	0.86333	0.6855	4.3308	69.43	-0.2689	0.0018	0.2707	1592.5203	0.145339	-476.207099	-476.196774	-476.195829	-476.244064	35.388	
O	-1.6151554921	 1.630057543	 0.5173978489	-0.418662
C	-0.6142123667	 0.7297863207	 0.0953875639	-0.057643
C	-1.204163027	-0.6029358253	-0.3373720151	-0.07241
O	-2.040704987	-0.3340661279	-1.4545198217	-0.256296
C	-2.8778476968	-1.3932040193	-1.8309808156	-0.076408
C	-3.7957626477	-0.884163282	-2.9538274498	-0.025062
O	-4.6344987649	-1.9038857345	-3.4513873404	-0.405197
C	-4.5649949444	 0.2908658859	-2.4946469046	 0.259941
N	-5.1952378166	 1.1821957589	-2.1159181202	-0.320083
H	-2.2624740273	 1.6791188786	-0.1960655075	 0.295751
H	-0.0165765302	 1.141031188	-0.7338312347	 0.097235
H	 0.0573326724	 0.5711862951	 0.9455297614	 0.11223
H	-0.4131776094	-1.3199044142	-0.6084125555	 0.094408
H	-1.7994421635	-1.0312193174	 0.4831992005	 0.103957
H	-2.3114040695	-2.2531623074	-2.2186238789	 0.114194
H	-3.489914901	-1.7426373226	-0.9826339368	 0.099077
H	-3.1689519773	-0.5678007942	-3.7937410055	 0.154726
H	-5.2862143009	-2.1234093955	-2.7754108983	 0.300241
