15
gdb 53154	6.74654	0.78392	0.76701	3.2068	76.31	-0.2488	-0.0171	0.2317	1475.5821	0.109954	-420.534653	-420.526035	-420.525091	-420.570031	30.112	
C	 0.0056396966	 1.5024400815	-0.0133351195	-0.502973
C	 0.0135703825	 0.047347724	-0.0097498179	 0.173185
C	 0.0119842076	-1.1565256936	 0.0009849581	 0.014478
C	 0.0452830547	-2.6018406929	-0.0216979206	-0.238739
C	-0.0216221243	-3.3449595501	 1.3532797834	-0.070017
O	-1.4534096573	-2.9697302451	 1.4552744157	-0.292592
C	-1.3255419062	-3.3539948682	 0.0279798607	-0.069956
C	-0.5695098597	-4.5877658492	 0.5966575311	 0.462326
O	-0.5537359541	-5.7717613819	 0.5891885416	-0.299864
H	 1.0242951431	 1.9054059211	-0.014807354	 0.15149
H	-0.5080565167	 1.8946165698	-0.8978995606	 0.151918
H	-0.5071838908	 1.8959832304	 0.870916531	 0.15538
H	 0.7743260431	-2.9998514696	-0.7362034444	 0.116524
H	 0.6015555718	-3.2231616409	 2.235871072	 0.12443
H	-2.1986668702	-3.2425299855	-0.6102832666	 0.124411
