17
gdb 36659	2.97893	1.30339	1.08237	2.6434	71.16	-0.233	0.0223	0.2554	1123.444	0.136818	-417.952251	-417.944138	-417.943194	-417.985593	30.	
N	 1.2428045938	-0.0463955362	 1.2748426937	-0.320747
C	 0.6339586738	 0.6559326274	 0.5870317886	 0.26563
C	-0.1085973271	 1.5572468706	-0.324171877	-0.289922
N	 0.6753527155	 2.5867544765	-0.9813226134	-0.290059
C	 1.2564977002	 3.5901139689	-0.1391412278	-0.002166
C	 2.4854493834	 3.4397859671	 0.7651630508	-0.143235
C	 3.5202800101	 2.5539996874	 0.0844997496	-0.105271
O	 3.4088533935	 3.3106884452	-1.1595703616	-0.294755
C	 2.5354794621	 4.2489088685	-0.5223071832	 0.056023
H	-0.5938555817	 0.9372126375	-1.0854394022	 0.157008
H	-0.911744195	 2.031009343	 0.252093001	 0.15531
H	 1.382007966	 2.2011038706	-1.598335378	 0.247314
H	 0.5241734267	 4.2758062224	 0.2843148676	 0.104422
H	 2.4964040981	 3.7534207556	 1.8000713329	 0.104435
H	 4.5267718987	 2.6667021262	 0.5000023494	 0.119733
H	 3.2872918522	 1.4928348533	-0.0434517279	 0.127022
H	 2.6773610397	 5.3002072161	-0.7469380925	 0.109258
