21
gdb 92765	3.69361	0.96334	0.82889	1.7017	86.37	-0.231	0.0129	0.2439	1446.7025	0.18279	-387.088949	-387.080158	-387.079214	-387.122821	33.321	
C	-0.0071271109	 1.5494583847	 0.022575198	-0.405183
C	 0.1312758908	 0.0291132602	 0.0532371324	 0.042561
C	 0.8021213174	-0.5883347196	-1.204247163	-0.262452
C	 1.4928445092	-1.8114242053	-0.6564328027	-0.192896
C	 1.5902060583	-1.7805306663	 0.6763063714	 0.369052
C	 0.9646307759	-0.5211237851	 1.2408509361	-0.331151
C	 2.2429713862	-2.8046132064	 1.5101540827	-0.037063
C	 2.8933632421	-2.4957076929	 2.7980862827	-0.187282
O	 1.6169836672	-3.1226930267	 2.7698179679	-0.23582
H	 0.9743496984	 2.032304103	-0.0519445801	 0.111496
H	-0.6049820815	 1.8775352822	-0.8345831362	 0.112537
H	-0.4942321161	 1.9240825565	 0.9292501522	 0.113677
H	-0.8705138062	-0.4114065682	 0.1313336439	 0.08058
H	 0.0789960379	-0.8172859457	-1.995510826	 0.102063
H	 1.5329029875	 0.1053260716	-1.6487097843	 0.101453
H	 1.8908952578	-2.6004883283	-1.2865481555	 0.08683
H	 1.7457345869	 0.1954053754	 1.538123501	 0.096847
H	 0.3610852115	-0.7157983755	 2.1328106812	 0.11779
H	 2.604179895	-3.6803586116	 0.9703251785	 0.088102
H	 3.7194807593	-3.1192016793	 3.1391137751	 0.114705
H	 2.9044517833	-1.4704774227	 3.1644342547	 0.114153
