17
gdb 62744	2.57126	1.51801	1.23423	1.5463	69.99	-0.2478	-0.0192	0.2287	1052.0981	0.13284	-458.946617	-458.937536	-458.936592	-458.979995	34.202	
C	-0.1672340703	 1.5939669064	-0.1258332043	-0.448944
C	 0.0293606077	 0.09481792	-0.0883421108	 0.390721
O	-1.0922793926	-0.5455654569	 0.4616251378	-0.485824
C	 0.7083267998	-0.7134963563	-1.1515461216	-0.193625
C	 1.9424093681	-0.0089456791	-1.7159774549	-0.37191
C	 2.5548820858	-0.0654010079	-0.2897236263	 0.323659
O	 3.6887666467	-0.0355064725	 0.1104334554	-0.33021
C	 1.3153026488	-0.5970092987	 0.3332937778	 0.201333
O	 1.248360405	-1.3897611803	 1.4506704291	-0.461529
H	 0.683101929	 2.1173180698	-0.5675212685	 0.123408
H	-1.0631284198	 1.83077732	-0.708432023	 0.133069
H	-0.3142976604	 1.9717767192	 0.8898522042	 0.13234
H	-0.7911463971	-1.0930675802	 1.1980341085	 0.300967
H	 0.219658055	-1.5768949488	-1.5829776441	 0.117891
H	 2.5314533342	-0.6289879646	-2.3974158157	 0.134509
H	 1.7980444542	 0.9762227188	-2.1651390496	 0.124801
H	 2.0116420057	-1.9794569789	 1.4624501561	 0.309344
