19
gdb 13376	6.06455	1.10797	0.96796	0.8798	73.95	-0.2412	0.0402	0.2814	1246.427	0.16646	-365.092821	-365.084513	-365.083569	-365.126176	29.895	
C	-0.1121205205	 1.4909633606	-0.0037767584	-0.390858
C	-0.0050594258	-0.0218861822	-0.0089331564	-0.035773
O	-1.3405595411	-0.5533533791	 0.0385247928	-0.266015
C	-1.4438345574	-1.8857132326	 0.0440626483	 0.425338
N	-0.4640400495	-2.6978687806	 0.0184280335	-0.309889
C	-1.008566715	-4.0602985496	-0.0001540549	-0.151242
C	-2.5232054077	-3.9517310122	 0.3402195453	-0.218976
C	-2.8387477773	-2.4707985008	 0.0526644853	-0.320414
H	 0.8872305575	 1.9348442262	-0.0394200863	 0.120319
H	-0.6779915049	 1.84543309	-0.8701119381	 0.126995
H	-0.6140651317	 1.8438127674	 0.9017180389	 0.127128
H	 0.4942893545	-0.397306564	-0.9085696454	 0.117868
H	 0.5570517292	-0.3984926132	 0.8523378651	 0.118872
H	-0.845343333	-4.4975180774	-0.9946275421	 0.101804
H	-0.4655631079	-4.6921295398	 0.7104587849	 0.103792
H	-3.1399820309	-4.644463762	-0.2365719333	 0.101847
H	-2.6864079472	-4.1715339889	 1.3994841659	 0.108643
H	-3.4828213361	-1.9923420287	 0.7951810442	 0.119341
H	-3.3091348552	-2.3155209531	-0.9260797791	 0.12122
