20
gdb 89880	4.30345	0.87917	0.82194	3.9144	82.18	-0.2478	0.0038	0.2516	1456.7382	0.169936	-403.137637	-403.128626	-403.127682	-403.171745	33.534	
C	-1.0234688461	 1.0093283424	-0.1634658967	-0.407812
C	 0.0870012602	 0.0071401307	 0.1068946237	 0.057298
C	 1.2197760574	-0.1533218459	-0.9560736915	-0.316589
C	 2.2141879809	-0.2088038432	 0.2041772753	 0.354422
C	 3.1988640588	-1.2943090533	 0.5183233898	-0.305327
N	 3.635927803	 0.0361382484	 0.1425030004	-0.122386
C	 4.3665960336	 0.8726045452	 0.9661222868	 0.132531
O	 5.26557953	 0.5216703174	 1.6910448031	-0.287719
C	 1.1732733434	 0.3730922544	 1.1682096479	-0.316247
H	-0.6119116855	 1.9980619888	-0.3966736758	 0.114233
H	-1.6418132616	 0.6971907658	-1.0121363262	 0.119454
H	-1.6813690784	 1.1182732952	 0.7057188484	 0.11905
H	-0.3397039654	-0.9731956069	 0.3419255196	 0.080638
H	 1.1774708268	-1.0134475012	-1.6282562945	 0.107592
H	 1.3484979432	 0.7566645485	-1.5516767064	 0.109469
H	 3.341754343	-1.58042158	 1.5578570531	 0.135286
H	 3.3892840709	-2.0780739298	-0.2105724406	 0.125173
H	 4.075257239	 1.9325913617	 0.8333650263	 0.080044
H	 1.2718743127	 1.4587856329	 1.27378482	 0.108659
H	 1.0970608241	-0.072951161	 2.1626909973	 0.112232
