17
gdb 5620	3.19551	1.85519	1.1917	1.7949	71.67	-0.1724	0.0601	0.2325	995.9565	0.143834	-360.056066	-360.047631	-360.046687	-360.088826	31.217	
C	 0.0330667815	 1.3639692635	 0.0693017453	-0.317708
N	-0.0990674145	-0.0770425338	-0.0377661275	-0.389459
C	 0.582511048	-0.6999143148	-1.0931998143	 0.242881
C	 1.2066633038	-0.1205186092	-2.1783101539	-0.173238
N	 1.6861007243	-1.1450299367	-2.9721217541	-0.25525
C	 1.370716021	-2.3551805383	-2.4185777606	-0.097908
C	 0.6886189816	-2.121964136	-1.2454236729	 0.11401
N	 0.169196598	-3.1195069042	-0.3714327269	-0.62398
H	 1.0791934631	 1.7118984767	 0.1196492271	 0.101967
H	-0.4319074942	 1.8381434841	-0.8024220361	 0.12813
H	-0.4942700222	 1.713350773	 0.9607338017	 0.11572
H	 0.0840730683	-0.5434033044	 0.8420467128	 0.216843
H	 1.3467579298	 0.9108865417	-2.4534507607	 0.105998
H	 2.1662935	-1.0170004669	-3.8433091556	 0.256581
H	 1.6453061287	-3.2864869951	-2.8862707588	 0.113394
H	 0.7972261226	-3.3183549873	 0.402097057	 0.229403
H	-0.7113942	-2.8134548723	 0.0309628275	 0.232618
