17
gdb 12028	3.68979	1.73443	1.5242	3.999	71.86	-0.2762	0.0374	0.3135	890.5879	0.142546	-326.715846	-326.708366	-326.707422	-326.747215	28.761	
C	-0.0935951837	 1.5755366505	 0.0434073276	-0.447742
C	 0.0386863687	 0.0482542223	 0.0330695544	 0.140615
C	 1.1341237573	-0.6010076646	-0.9096565221	-0.28381
C	 1.7613834928	-1.2880006106	 0.3075505661	-0.023359
C	 2.1892004822	-0.2611643914	 1.3131350773	-0.301918
C	 0.7360079358	-0.6379678272	 1.235686009	-0.05978
C	-1.2686092048	-0.559584812	-0.2108749958	 0.249125
N	-2.3069186995	-1.0333039532	-0.3979082707	-0.347205
H	 0.8761971538	 2.0420248773	 0.2317588998	 0.123565
H	-0.4670603623	 1.9382964939	-0.9188128423	 0.136109
H	-0.7893168512	 1.9007498531	 0.8223440262	 0.137158
H	 0.697444582	-1.2884488053	-1.6343491271	 0.13311
H	 1.7688069039	 0.1182631745	-1.4367895201	 0.106399
H	 2.1355346404	-2.3032976654	 0.320877797	 0.097964
H	 2.7017269216	-0.647464092	 2.1881907238	 0.122486
H	 2.5425906275	 0.7154908731	 0.9925802204	 0.111371
H	 0.2025482855	-1.059960233	 2.0779332963	 0.105911
