22
gdb 122898	4.90737	0.50796	0.47549	3.576	84.37	-0.2993	0.013	0.3123	2304.6567	0.192312	-404.369516	-404.358463	-404.357519	-404.406848	38.715	
C	-0.0461091375	 1.5951407176	-0.0392662313	-0.380834
C	 0.0082457616	 0.0652500318	-0.0196973792	-0.164897
C	 0.7188146823	-0.4954283847	 1.2170997775	-0.167542
C	 0.7728281524	-2.026461955	 1.242432769	-0.185894
C	 1.4816799111	-2.5771420526	 2.4833349904	-0.207895
C	 1.561832801	-4.1140026938	 2.4813163962	-0.025153
O	 2.2474073757	-4.6403275531	 1.3586876361	-0.405915
C	 2.1611596833	-4.6045267037	 3.7412217482	 0.256738
N	 2.6601324733	-4.9685757169	 4.7179743506	-0.316135
H	 0.9606510742	 2.0275206585	-0.0301585695	 0.114459
H	-0.5587136234	 1.9651822293	-0.9325078975	 0.113721
H	-0.579314678	 1.9835259441	 0.8355564735	 0.114895
H	-1.011656362	-0.3390173192	-0.0644847282	 0.096467
H	 0.5166002433	-0.29664217	-0.9230572137	 0.096919
H	 1.7408940263	-0.0936963294	 1.2614076276	 0.093904
H	 0.2131342294	-0.1319904769	 2.1225636754	 0.095041
H	-0.2488702391	-2.429044317	 1.2031432448	 0.098004
H	 1.2807069272	-2.3982265754	 0.345438482	 0.112392
H	 2.5014767406	-2.1749172851	 2.5527659643	 0.106547
H	 0.9630008054	-2.2586545334	 3.3956674748	 0.120806
H	 0.5484678582	-4.5267090315	 2.4131511814	 0.139798
H	 3.1662044444	-4.3505481938	 1.4044517477	 0.294575
