16
gdb 62101	3.20707	0.90281	0.73772	0.8594	63.29	-0.2745	-0.012	0.2625	1446.2084	0.12255	-512.212385	-512.202907	-512.201963	-512.248248	33.106	
N	-0.9934624819	 1.1194330607	-0.191046672	-0.517124
C	-0.2634275341	-0.009010586	-0.0702397351	 0.378149
O	 0.9296905593	-0.0875689711	-0.3205022824	-0.378401
C	-1.0116360951	-1.2820939304	 0.3825848793	 0.030526
O	-0.0861384252	-2.3215009559	 0.4995093208	-0.431889
C	-1.7219096228	-1.1180417628	 1.734690777	-0.122664
O	-2.817585795	-0.1983346406	 1.6139614233	-0.192202
C	-4.075775136	-0.6500227103	 1.8195684566	 0.17493
O	-5.0330736583	 0.0458086166	 1.6792170455	-0.265453
H	-0.5162183188	 1.972759148	-0.4340844663	 0.269702
H	-1.9351050666	 1.1629494539	 0.1662527185	 0.284389
H	-1.7777432226	-1.5137246033	-0.3763880278	 0.100913
H	 0.7558645303	-1.9260611909	 0.2050762268	 0.300313
H	-2.0781101264	-2.1003491987	 2.0630677016	 0.135851
H	-1.0355044638	-0.7251488672	 2.4895326385	 0.138367
H	-4.0998548429	-1.711174102	 2.1307633958	 0.094595
