20
gdb 100867	2.43658	1.01176	0.74884	2.786	75.68	-0.2791	0.0257	0.3048	1496.1036	0.168867	-440.291337	-440.280566	-440.279622	-440.327569	37.969	
C	-0.085547301	 1.5696268533	 0.0890493427	-0.418384
C	-0.0313312652	 0.0384508734	 0.001825222	 0.020694
C	-1.4450693297	-0.5534189278	 0.0267501097	-0.09401
O	-2.0491036536	-0.1749542926	 1.2531473354	-0.420026
C	 0.739212552	-0.4393637799	-1.2561103407	-0.16515
C	 2.1960756467	 0.0916812807	-1.3325555636	-0.075443
O	 2.8782909968	-0.3656189012	-2.4761232656	-0.416628
C	 0.7992564163	-1.9034749755	-1.3351193393	 0.266147
N	 0.9117188742	-3.0528611305	-1.4018422334	-0.341338
H	 0.8973585681	 2.0099578096	 0.2742456429	 0.122103
H	-0.4832703565	 2.0020813979	-0.8372192767	 0.114513
H	-0.7461080622	 1.8592187476	 0.9081428666	 0.14845
H	 0.489321777	-0.3490050792	 0.8868881974	 0.102338
H	-2.0172549634	-0.1709298927	-0.8359147968	 0.087087
H	-1.3934337244	-1.64731483	-0.0668831928	 0.11475
H	-2.92740257	-0.5640045109	 1.2903648839	 0.292448
H	 0.2170906484	-0.0882238496	-2.1561340112	 0.130434
H	 2.1706279532	 1.1802273126	-1.4103828611	 0.126405
H	 2.7214847986	-0.1707797883	-0.4016398811	 0.10684
H	 2.9791211746	-1.322238617	-2.406552538	 0.29877
