18
gdb 42816	3.0319	1.4996	1.33402	3.2468	75.8	-0.2339	-0.0068	0.2271	1014.5671	0.149673	-401.922644	-401.915492	-401.914548	-401.954156	28.931	
O	 0.0631582521	 0.0076022315	 0.0005220674	-0.32103
C	 0.0147527503	 1.1989326024	-0.0476516965	 0.438573
C	-1.0786231996	 2.283638803	 0.0292806835	-0.147792
C	-0.0505723767	 2.9964900051	 0.9742241021	-0.249764
C	 1.0290084719	 2.3667228637	 0.02660135	-0.229894
C	 0.7093699717	 3.0753486562	-1.2891233132	 0.390066
C	 1.5569128919	 4.1412302895	-1.8639588567	-0.319466
N	 1.4418423024	 2.8224100506	-2.5277043137	-0.374108
C	-0.839419796	 3.0384525659	-1.3014282605	-0.290784
H	-2.1009193953	 2.0614086689	 0.3267716834	 0.088141
H	-0.0903695738	 4.0877006889	 0.9939456278	 0.112422
H	-0.0293485249	 2.5863039013	 1.9850818749	 0.120011
H	 2.0728937814	 2.2359886459	 0.306664901	 0.080094
H	 1.1033696616	 4.9649857307	-2.4098636503	 0.119609
H	 2.4853585436	 4.3922093798	-1.3561455713	 0.112304
H	 2.2733429583	 2.2641806288	-2.3460644899	 0.233831
H	-1.2151753161	 2.5027586574	-2.1761886902	 0.12843
H	-1.2861988928	 4.0370498403	-1.2831804379	 0.109356
