15
gdb 132514	3.0503	1.29059	0.912	2.4546	71.89	-0.237	-0.0114	0.2256	1188.7861	0.111334	-469.945823	-469.937949	-469.937005	-469.979378	29.138	
C	-0.0119124784	 1.5238256235	 0.0131022908	-0.492966
C	 0.0020921551	 0.0148547974	-0.004551317	 0.328929
C	-0.0588300546	-0.6977790962	-1.2022921023	-0.197629
C	-0.0414500039	-2.0925053003	-1.215945532	-0.234297
C	 0.0371696006	-2.7861187351	-0.0219375517	 0.150347
F	 0.0549742498	-4.1197794222	-0.001743621	-0.06308
C	 0.0981059373	-2.0872014979	 1.1825508276	 0.18212
F	 0.172660035	-2.7727008738	 2.324350796	-0.063498
C	 0.0808639865	-0.7042289146	 1.1945049622	-0.33691
H	 0.9163787636	 1.9274371563	 0.4331319585	 0.135435
H	-0.1253052836	 1.9300847217	-0.9950422148	 0.126363
H	-0.8349572539	 1.9093040093	 0.6247950976	 0.134431
H	-0.1210855309	-0.1605613191	-2.1426959706	 0.100634
H	-0.0889084142	-2.6516967554	-2.1431205252	 0.118205
H	 0.1294853514	-0.1975391537	 2.1525120321	 0.111915
