19
gdb 46896	3.21833	1.37397	1.05005	3.2871	76.65	-0.2544	0.0195	0.2739	1140.0189	0.162401	-419.191339	-419.183608	-419.182664	-419.223719	30.371	
N	-0.0345987201	 1.31945846	 0.1770418077	-0.473426
C	 0.0112464614	 0.0702043075	-0.0314545064	 0.353063
C	-1.281521505	-0.724545087	-0.0760031003	-0.245894
C	-1.4535844646	-1.7410950449	-1.2223201047	-0.242424
C	-0.6278241379	-2.9888784366	-0.9812447871	-0.004482
N	 0.2180825975	-3.4909590481	-2.074560996	-0.34063
C	 0.8484236051	-2.8778472282	-0.8869110933	-0.040154
C	 1.4905729441	-1.5303267292	-1.1179575233	-0.095971
O	 1.2221121397	-0.5812047364	-0.0742519596	-0.259334
H	 0.9177139392	 1.689980502	 0.2253205886	 0.216764
H	-1.3674446257	-1.2595182772	 0.8800547955	 0.118544
H	-2.0807199516	 0.0180846759	-0.0972259378	 0.131885
H	-2.5134240503	-2.0073036389	-1.2965705777	 0.105278
H	-1.1808244733	-1.2970754228	-2.1839835684	 0.121102
H	-1.0916313526	-3.7278025771	-0.3298713104	 0.088976
H	 0.2963071458	-4.5032591965	-2.0274191049	 0.235671
H	 1.3580839248	-3.5302214274	-0.1820194334	 0.091229
H	 2.5804172427	-1.615670473	-1.1342019566	 0.117171
H	 1.1722119108	-1.1336569921	-2.0872475019	 0.12263
