18
gdb 91071	3.1267	1.55441	1.54519	2.4959	70.85	-0.2329	0.0734	0.3063	960.3864	0.148571	-439.034966	-439.027583	-439.026639	-439.067179	28.959	
C	 0.4853528608	 1.4408291744	 0.0279283437	-0.40036
C	 0.041581226	-0.0062846144	 0.006196496	 0.241277
O	 0.5673393469	-0.6728119758	-1.1413256122	-0.27764
C	 1.1515124372	-1.8843035747	-0.7466953699	 0.083254
C	 2.6932599289	-1.9609133403	-0.6749941199	-0.085093
N	 3.1389259211	-0.782767255	 0.094509146	-0.325073
C	 2.6483959216	-1.9697709894	 0.8219380092	-0.085085
C	 1.1050992201	-1.8934024163	 0.8020939333	 0.083244
O	 0.497974736	-0.6863815074	 1.1752197146	-0.277632
H	 1.5756495954	 1.4766722441	 0.061112288	 0.149593
H	 0.1244873711	 1.9519268033	-0.8691020992	 0.116774
H	 0.0707172638	 1.9418178996	 0.9072421176	 0.116759
H	-1.0584291215	-0.0823830893	-0.0271843182	 0.070977
H	 0.6932117946	-2.7385284463	-1.2547028521	 0.081534
H	 3.3594919486	-2.4753781047	-1.3557153473	 0.095404
H	 4.1571248616	-0.8116687642	 0.1248653349	 0.235133
H	 3.2728301522	-2.4925001267	 1.535209685	 0.095404
H	 0.6174641857	-2.7533396468	 1.2716982803	 0.08153
