21
gdb 70344	2.68204	1.79153	1.49967	1.4253	80.9	-0.2276	0.089	0.3166	990.9709	0.184647	-387.06333	-387.055941	-387.054997	-387.09445	31.391	
C	 0.0111980952	 1.4717295491	-0.0684963945	-0.469368
C	-0.0500467548	-0.0379334098	 0.0324381601	 0.317835
C	-0.3206148379	-0.6712738962	 1.3848716686	-0.383354
C	 1.0453607886	-0.7909574376	 0.7393280302	 0.076471
O	 1.4919162207	-2.0031584998	 0.1810648336	-0.2738
C	 0.9496530992	-2.3037493877	-1.10111881	 0.135874
C	 0.8662881695	-1.0498714134	-2.0178328294	-0.24323
C	-0.4673764418	-0.7462638156	-1.2586116787	-0.08467
C	-0.6011575596	-2.2848548633	-1.0789198984	-0.264604
H	 0.6040743172	 1.7903800575	-0.9338881686	 0.11744
H	-0.9935916697	 1.8968595415	-0.1795972915	 0.116432
H	 0.4613963393	 1.9150283054	 0.8250986672	 0.113649
H	-0.4036066201	-0.0029592665	 2.2364424666	 0.104353
H	-0.9385014332	-1.5570467484	 1.4579363513	 0.116485
H	 1.868661041	-0.2471911659	 1.194006843	 0.091594
H	 1.4788800908	-3.1938299825	-1.4439775481	 0.073511
H	 1.6759669951	-0.3190584507	-1.9523492099	 0.099084
H	 0.7043127618	-1.3375467552	-3.0594296523	 0.097663
H	-1.271189773	-0.2149768761	-1.7743517065	 0.059048
H	-1.011130371	-2.7437934319	-1.9825890715	 0.099666
H	-1.1112961172	-2.6956622928	-0.206647591	 0.099921
