25
gdb 123164	7.02342	0.44904	0.43797	0.8386	91.68	-0.2478	0.0913	0.3391	2592.3805	0.227379	-389.477376	-389.466314	-389.46537	-389.515174	39.154	
C	-0.1459371729	 1.4976752763	 0.2273092237	-0.383897
C	 0.022159316	-0.0029023666	 0.0559184397	-0.026322
O	 0.6572217571	-0.5200254002	 1.2051705462	-0.243383
C	 0.8627681187	-1.914716317	 1.1529602723	-0.050435
C	 1.5389826391	-2.360679034	 2.442244142	-0.188868
C	 1.8075760684	-3.8700518433	 2.4807938875	-0.208089
C	 2.4793850633	-4.3189478464	 3.7616069553	 0.037566
C	 1.6560464883	-4.6287302649	 4.9869995715	-0.253614
C	 2.3503926108	-5.7421651893	 4.2393507451	-0.278005
H	 0.8273505175	 1.9803595631	 0.3538927978	 0.125419
H	-0.6376405444	 1.9304750041	-0.6491252681	 0.112256
H	-0.7529995203	 1.7166939994	 1.1103787255	 0.125486
H	-0.9591319488	-0.487577677	-0.0886209869	 0.081859
H	 0.6216729507	-0.2241560229	-0.8443127568	 0.081909
H	-0.1007380386	-2.4398053757	 1.0240860167	 0.079354
H	 1.4866690001	-2.1785563585	 0.2802437463	 0.079934
H	 2.4805467651	-1.8087201418	 2.551583011	 0.102363
H	 0.9076411957	-2.0711599585	 3.2902463631	 0.107412
H	 0.8609302836	-4.415481019	 2.3630955463	 0.090066
H	 2.4304773153	-4.1546346684	 1.6211078441	 0.094757
H	 3.4398826039	-3.8440583455	 3.9491253151	 0.07997
H	 2.0398589641	-4.3423718553	 5.9599340414	 0.109498
H	 0.5762617157	-4.5590007593	 4.8996982523	 0.107988
H	 1.7352707923	-6.4180571765	 3.6537868444	 0.107756
H	 3.2106234393	-6.2147928427	 4.7005702444	 0.10902
