21
gdb 99663	2.62	1.16312	0.94951	1.4573	83.95	-0.2432	0.0526	0.2958	1344.2814	0.180765	-387.042341	-387.032429	-387.031485	-387.077644	36.048	
C	-0.2101237339	 1.5073628275	-0.0236364657	-0.393708
C	-0.000299092	-0.0063631502	 0.025550647	-0.168783
C	 0.7773279071	-0.4918790653	 1.2727576965	-0.182234
C	 0.0860531414	-0.1441150221	 2.5134843437	 0.357151
C	-0.4841039567	 0.1405810821	 3.5335444386	-0.492687
C	 1.0465693309	-2.0029942125	 1.1716699342	 0.151663
C	 1.5671248148	-2.7614012547	 2.4118540061	-0.3134
C	 0.2620236287	-3.5719133035	 2.282973548	-0.053853
O	-0.1688786519	-2.7811367771	 1.1531861948	-0.288989
H	 0.7467909832	 2.0416990488	-0.0361628842	 0.109975
H	-0.7628195703	 1.7935019116	-0.9236067006	 0.113314
H	-0.7750093477	 1.8550747759	 0.8460317815	 0.131899
H	-0.9619857253	-0.5283649814	 0.0035592656	 0.127784
H	 0.557062928	-0.3330115822	-0.8611945058	 0.093769
H	 1.7621603729	 0.0010155664	 1.2783642748	 0.099823
H	-0.9888229591	 0.397948695	 4.4317144027	 0.195835
H	 1.6341500392	-2.1783999834	 0.2588469737	 0.072391
H	 2.492269734	-3.3201912102	 2.2652523523	 0.107011
H	 1.6409279449	-2.1538009382	 3.3143562951	 0.122895
H	 0.3859791706	-4.6281035284	 2.0140618243	 0.09958
H	-0.4376810088	-3.4933095782	 3.1221515974	 0.110565
