13
gdb 98951	4.19981	0.83968	0.76674	1.3751	62.7	-0.2913	-0.088	0.2033	1414.0578	0.086362	-489.903641	-489.894383	-489.893439	-489.939491	30.696	
O	 0.4152699794	 1.121529116	-0.2563843937	-0.412301
C	-0.0029959055	-0.0803943022	 0.3183010599	-0.144961
C	-1.406080443	-0.4355444552	-0.1166861876	 0.421123
O	-2.1146677383	 0.264506068	-0.7746307896	-0.313178
O	-1.7432497612	-1.6975230827	 0.3355055653	-0.246669
C	-3.0483379819	-2.119214949	 0.2945819861	 0.330109
N	-3.9918349261	-1.4298228947	 0.7587059502	-0.435599
C	-3.1573468964	-3.4463375582	-0.2739603294	 0.255691
N	-3.2955262265	-4.5062819046	-0.7141803141	-0.306462
H	-0.365421028	 1.5267193428	-0.6582122945	 0.303207
H	 0.6707264167	-0.9013145472	 0.0384272571	 0.144369
H	-0.0068289094	-0.038156316	 1.4203338684	 0.137179
H	-4.8876773297	-1.908184347	 0.6723950819	 0.267492
