15
gdb 9728	3.44947	1.72697	1.58211	2.9818	60.99	-0.2866	0.0112	0.2978	859.6673	0.118828	-399.809046	-399.80147	-399.800526	-399.84131	27.206	
C	-0.0699285062	 1.5891618839	 0.0566092228	-0.425842
C	 0.012307487	 0.0634209986	-0.0134466099	 0.214792
C	 0.8546898125	-0.4645457441	-1.2257947861	-0.154885
O	 2.0986655129	-0.7896698243	-0.6377273395	-0.225615
C	 1.7628670936	-1.2656162586	 0.6384341834	 0.010779
O	 0.7414106872	-0.410166895	 1.1212268563	-0.270085
C	-1.3394805238	-0.5328116776	-0.0213246648	 0.260989
N	-2.3991306766	-0.9927119788	-0.0474709721	-0.333192
H	 0.9420063755	 1.9972716737	-0.0054714529	 0.139433
H	-0.673267888	 1.9848664939	-0.7649557426	 0.136368
H	-0.5188685544	 1.8979648976	 1.003086867	 0.15009
H	 0.3802267684	-1.3467067315	-1.6756926865	 0.12438
H	 1.0129384474	 0.2974545509	-1.9903158701	 0.135646
H	 1.4000534784	-2.3070390434	 0.5909799226	 0.102834
H	 2.6320986563	-1.1890831953	 1.2953438625	 0.134307
