23
gdb 88963	3.2802	0.95348	0.85331	2.7602	86.82	-0.2293	0.0855	0.3148	1481.651	0.205068	-384.417577	-384.407656	-384.406712	-384.452819	37.241	
C	 0.5961651616	 1.3431331036	-0.6414036897	-0.414393
C	-0.2736413162	 0.6929100569	 0.4115398604	 0.0331
C	-0.2812263623	-0.7833653219	 0.6028284018	-0.255288
N	 0.2782717529	 0.0957331041	 1.6302400485	-0.103193
C	 1.7216748432	 0.0906232839	 1.8476366968	-0.212008
C	 2.0814200739	-0.462859223	 3.2254811883	 0.330552
C	 3.5616331627	-0.7171856708	 3.4114174363	-0.448234
C	 1.2451510188	-0.0784812259	 4.3875644422	-0.264352
N	 1.1959100087	-1.4574368255	 3.8524124096	-0.35445
H	 1.4871505115	 0.7515623451	-0.8661309103	 0.123065
H	 0.029546994	 1.4600383709	-1.5710890756	 0.124428
H	 0.9207176228	 2.3413277047	-0.3267402676	 0.125157
H	-1.2061897123	 1.2253310971	 0.59690486	 0.091562
H	-1.1939427238	-1.3122586495	 0.8659304745	 0.115418
H	 0.4198120195	-1.3628214623	 0.0023888565	 0.110674
H	 2.2595268663	-0.4940271096	 1.0828139776	 0.087507
H	 2.0966607195	 1.1200073915	 1.7777165933	 0.107305
H	 4.1399385696	 0.2069139175	 3.29320817	 0.108653
H	 3.7564169908	-1.1218865245	 4.4072235858	 0.127636
H	 3.9309403413	-1.4419434004	 2.6762800008	 0.112676
H	 1.6968852566	 0.0175215597	 5.3715036053	 0.103787
H	 0.3888794469	 0.5620926834	 4.1992935872	 0.115711
H	 0.3486884538	-1.531341735	 3.2923478883	 0.234688
