17
gdb 14982	4.53949	1.45955	1.1651	1.1957	64.97	-0.2512	0.0209	0.2721	1006.8511	0.144055	-401.010248	-401.002764	-401.001819	-401.042214	27.843	
O	 0.0636825607	 1.4101010464	 0.0674754614	-0.422516
C	 0.0582785723	-0.0005197789	 0.0211611776	-0.071368
C	-1.3531798452	-0.5639744915	-0.0765789238	 0.118203
C	-1.4305741948	-2.0848727188	-0.1181483054	-0.247563
C	-2.8988970737	-2.5149014033	-0.0189694218	-0.160912
N	-3.6305046229	-1.823988414	 1.0398061348	-0.262109
C	-3.1568084167	-0.7401606225	 1.4807905951	 0.132538
O	-2.0490357332	-0.0595084486	 1.0880272117	-0.258491
H	-0.517870318	 1.6611492561	 0.7942109532	 0.292792
H	 0.6266361657	-0.2936285384	-0.867748636	 0.112488
H	 0.5556742357	-0.440279842	 0.9008757869	 0.093049
H	-1.8483198086	-0.1318744186	-0.9568456944	 0.096354
H	-0.9691156582	-2.4574457647	-1.0385648312	 0.109137
H	-0.8645301787	-2.4975132238	 0.7256401979	 0.113912
H	-3.4161155074	-2.3363460459	-0.9711474228	 0.115359
H	-2.9718482398	-3.5914549859	 0.1685960522	 0.114857
H	-3.6425040573	-0.2085501657	 2.2973791845	 0.124269
