17
gdb 1931	3.41345	2.89401	2.14953	1.0365	64.6	-0.2387	0.0827	0.3214	701.3287	0.147743	-309.692993	-309.68579	-309.684845	-309.723541	27.719	
C	 0.0268454446	 1.5418086399	 0.0646408036	-0.494692
C	-0.0184420915	 0.0421320888	 0.0773350537	 0.30962
C	 1.1632049939	-0.8216485862	-0.3255291331	-0.390216
C	 0.579104768	-0.9648720457	 1.0541795758	 0.364571
O	 1.3070324057	-0.6891259526	 2.2000425974	-0.46346
C	-0.691183384	-1.8190433404	 1.0203702394	-0.284132
C	-1.292389489	-0.8132172254	-0.0191342524	-0.272326
H	 0.9980751606	 1.9061773	 0.4141189203	 0.124049
H	-0.1370191727	 1.9409823407	-0.9436964916	 0.116056
H	-0.7430185888	 1.9668482318	 0.7189360801	 0.116049
H	 1.0603364327	-1.6068275931	-1.0733687218	 0.096543
H	 2.1117508402	-0.2931199595	-0.3504177963	 0.10692
H	 2.0265010868	-1.3265355777	 2.265601959	 0.28351
H	-0.5791050001	-2.8629346695	 0.7066593679	 0.08677
H	-1.2250986462	-1.7891355053	 1.9729094985	 0.107614
H	-2.1806434821	-0.3017313539	 0.3605731949	 0.100889
H	-1.5188026981	-1.218484802	-1.0109953554	 0.092234
