15
gdb 14172	4.03901	1.85156	1.80335	2.2885	60.12	-0.2357	0.0108	0.2466	784.2333	0.118688	-399.785742	-399.778685	-399.777741	-399.816632	26.993	
C	-0.0842980697	 1.5952814025	 0.0066303402	-0.462023
C	 0.0331394313	 0.0937469943	 0.0477604276	 0.327552
O	-1.1083070683	-0.6055856169	-0.3830444231	-0.453347
C	 1.3066074197	-0.6658601088	-0.2406563281	-0.023769
O	 2.5407379121	 0.0287646385	-0.0971953794	-0.209093
C	 2.6060971311	 0.3682481236	 1.2189808017	 0.095383
N	 1.6625628767	 0.0182583597	 1.9959872604	-0.258241
C	 0.7054365638	-0.677947504	 1.167127544	-0.065946
H	 0.7706581681	 2.0897534266	 0.4700710316	 0.139258
H	-0.1560508986	 1.9485129114	-1.028985879	 0.11236
H	-0.9886817818	 1.9040031464	 0.5391714299	 0.135075
H	-1.2145503041	-0.4444583972	-1.3281131645	 0.285101
H	 1.343523877	-1.4819528706	-0.9514282684	 0.115377
H	 3.492389966	 0.9237477059	 1.4996889396	 0.146974
H	 0.1675500766	-1.5079768112	 1.6085376973	 0.11534
