16
gdb 11944	3.21646	2.10393	1.65755	2.6125	67.05	-0.229	-0.0244	0.2047	818.8938	0.129523	-383.724104	-383.716671	-383.715727	-383.75561	28.308	
O	-0.3126013042	 1.2668124835	-0.0926895504	-0.447999
C	-0.0462289784	-0.0698595722	-0.0363150841	 0.418576
C	-0.2034663848	-0.9997615819	-1.1655895844	-0.381121
C	-1.136671928	-1.2429812492	 0.0213025516	 0.143365
C	-0.361798305	-1.8724694471	 1.1810627314	-0.297717
C	 0.6676625495	-0.690402711	 1.1593250809	-0.2682
C	-2.5228894931	-0.8317147445	-0.042914412	 0.054893
O	-2.9312103378	 0.0027440205	-0.8388201956	-0.320952
H	-1.0954111245	 1.3848590911	-0.6545791513	 0.307135
H	-0.7065236704	-0.5913011175	-2.0358453068	 0.140754
H	 0.5395373582	-1.766728018	-1.3759088872	 0.11755
H	-0.9340237924	-1.9097629782	 2.1107490582	 0.115777
H	 0.0503217348	-2.867057298	 0.9829975957	 0.105488
H	 1.720029067	-0.9452208092	 1.0010463056	 0.109594
H	 0.5821424109	-0.0552075121	 2.0422319618	 0.126352
H	-3.197140402	-1.2515106762	 0.7342806367	 0.076505
