18
gdb 67573	2.89507	2.05021	1.51094	0.8722	74.26	-0.2256	0.0629	0.2885	900.2757	0.149224	-401.855822	-401.849198	-401.848254	-401.886227	28.572	
O	-0.1616693846	 1.3839943584	-0.0001911304	-0.485437
C	-0.02092467	 0.0043967259	-0.0370741302	 0.426416
C	-1.3194333562	-0.7553398506	 0.1805078295	-0.114538
C	-1.7575083387	-1.6701432893	-0.9431138223	-0.301016
C	-0.7733752566	-2.1504191999	 0.0874514717	-0.000389
N	 0.676193279	-1.9788570044	-0.1715174825	-0.136747
C	 0.8370416082	-0.7711511433	-1.0981691155	-0.098035
C	 2.1362072171	-0.4259056337	-0.3470093794	-0.274529
C	 1.1120861223	-0.8178260982	 0.7258551634	-0.076538
H	 0.7004132852	 1.7932797542	-0.1324119842	 0.284774
H	-2.0143859928	-0.4054356318	 0.9334313901	 0.094976
H	-2.7598571142	-2.0803234059	-0.8687671066	 0.112265
H	-1.4411024725	-1.4736393994	-1.9611519772	 0.117812
H	-1.0251363625	-2.9581352783	 0.763428299	 0.095348
H	 0.6951729437	-0.8566017515	-2.1764787364	 0.08222
H	 2.9655869897	-1.1183694458	-0.4941654284	 0.114164
H	 2.473497965	 0.6141420624	-0.3740860491	 0.080358
H	 1.2516560877	-0.9541010289	 1.8003031983	 0.078897
