16
gdb 54492	2.5225	1.65049	1.10893	1.8752	71.22	-0.253	-0.0413	0.2117	1072.907	0.122063	-437.875589	-437.867061	-437.866117	-437.909662	30.701	
C	 0.3761673974	 1.0587033722	 0.862726555	-0.488731
C	-0.1190612381	 0.1994383514	-0.2759084651	 0.298988
O	 0.3559346442	 0.219924453	-1.3881848235	-0.298162
C	-1.267434154	-0.7158806747	 0.0363824377	 0.083294
C	-1.5033466384	-1.9520113094	-0.7938909309	-0.256438
N	-2.4845929476	-0.9056179676	-0.9200663889	-0.125284
C	-3.386175446	-1.0596288164	 0.2805203696	-0.288152
C	-2.201234329	-0.7366029651	 1.209083471	 0.348954
O	-2.1002977516	-0.4002867826	 2.3545902163	-0.3109
H	 1.258013094	 1.6157637377	 0.545647602	 0.142746
H	-0.4134104855	 1.7519996527	 1.1748116697	 0.156055
H	 0.6006313293	 0.4435039229	 1.7399102691	 0.157073
H	-0.8317148972	-2.0287368609	-1.6437842292	 0.164196
H	-1.7640245516	-2.8845841083	-0.2964483767	 0.128035
H	-4.146091865	-0.2749532797	 0.3067412399	 0.151396
H	-3.8599843508	-2.0419972051	 0.3592111339	 0.136929
