21
gdb 104296	2.78807	1.32908	1.16582	0.9632	76.78	-0.2567	0.0624	0.3191	1149.1304	0.182659	-424.220527	-424.211667	-424.210723	-424.253639	34.479	
C	-0.4922330583	 1.6399288616	 0.1617719333	-0.466016
C	 0.0220180627	 0.2005682669	 0.0300337279	 0.251806
C	-1.1521174716	-0.7891200511	-0.1260237502	-0.101509
O	-1.9265172685	-0.5730109975	-1.2948102641	-0.421268
C	 1.0347155298	 0.0437681039	-1.143167264	-0.256265
C	 2.0582898658	-1.032105165	-0.7036672101	-0.252698
C	 2.0426122773	-0.9496699751	 0.8086811014	 0.051322
O	 2.1316656872	 0.3938812383	 1.3112521212	-0.273591
C	 0.8415897263	-0.2276421386	 1.2425050788	 0.019968
H	 0.336257962	 2.316785087	 0.3875747759	 0.138686
H	-0.9553499229	 1.98506092	-0.7695117258	 0.110319
H	-1.2327937866	 1.7317512702	 0.9657351101	 0.106927
H	-0.7699944854	-1.8119824276	-0.2150842065	 0.10886
H	-1.7831097748	-0.7567987335	 0.777391576	 0.085148
H	-2.3751573188	 0.2729245718	-1.2016275129	 0.286156
H	 0.5160786483	-0.2151438931	-2.0686537252	 0.114324
H	 1.5499834645	 0.9929877974	-1.3056199758	 0.107265
H	 1.7470155494	-2.0391961027	-1.0070442413	 0.105522
H	 3.0531237784	-0.8604689223	-1.12612453	 0.108901
H	 2.530656115	-1.7043965678	 1.4207360689	 0.091303
H	 0.3576897103	-0.4009985029	 2.2023509022	 0.084839
