13
gdb 49955	2.52101	1.32296	0.99977	2.7223	71.58	-0.2846	-0.0396	0.245	1141.4682	0.086593	-415.562637	-415.554041	-415.553096	-415.596258	30.314	
O	 0.186564511	 0.2107035648	-0.7100919444	-0.262029
C	 0.1148144608	 1.3198033188	-0.2551776435	 0.151515
N	 1.1102560085	 1.8936380888	 0.5468314316	-0.097998
C	 2.509836568	 1.7861832049	 0.2634409011	-0.247727
C	 1.8040258316	 3.1395475231	 0.195525312	-0.018127
C	 1.5826734712	 3.7429924135	-1.0944254343	 0.28621
C	 1.3841856125	 4.2508328917	-2.1642404662	-0.407658
C	 1.9912744408	 4.0726920919	 1.293741327	 0.254937
N	 2.1583255583	 4.814258854	 2.1632118626	-0.319751
H	-0.7631341987	 1.9806204699	-0.3528499928	 0.115298
H	 3.1607497699	 1.5910952969	 1.1099948987	 0.159859
H	 2.8009686864	 1.3475821999	-0.6868217965	 0.162919
H	 1.2142145297	 4.6988496019	-3.1131044654	 0.222553
