18
gdb 45361	2.98492	1.66004	1.45753	4.9829	72.28	-0.2386	0.0565	0.2951	961.5495	0.151039	-439.119623	-439.112629	-439.111685	-439.151366	28.	
N	-0.0635329872	 1.2579372052	 0.6439235219	-0.552862
C	-0.0048330291	 0.1322290287	 0.0757715125	 0.461182
O	 1.1752930932	-0.4745140675	-0.2425976643	-0.287968
C	 1.1748233885	-1.7243894139	-0.9663428507	 0.119123
C	 0.7848860476	-1.4872277534	-2.4368035974	-0.229796
C	-0.7736052998	-1.5029196508	-2.4174642343	-0.23172
C	-1.1246536098	-1.7548897945	-0.938357477	 0.125689
C	 0.0434376621	-2.5934249829	-0.4233279047	-0.262796
O	-1.1584809622	-0.5134543607	-0.2097412928	-0.257841
H	 0.8799133547	 1.6044334631	 0.8035530029	 0.222889
H	 2.1812996553	-2.1216371943	-0.832101772	 0.090631
H	 1.204680694	-0.5461058633	-2.7971270304	 0.124892
H	 1.1851449977	-2.2895341125	-3.0636655157	 0.108239
H	-1.2211209603	-0.5686404162	-2.7613315099	 0.129427
H	-1.1723097478	-2.3099322221	-3.0390395751	 0.108284
H	-2.1140533841	-2.1868208304	-0.7872745992	 0.094125
H	 0.0511768206	-3.5844333661	-0.8870579753	 0.112596
H	 0.0573485665	-2.7005630684	 0.6632087413	 0.12591
