16
gdb 42864	2.41834	1.80957	1.5944	3.3812	70.05	-0.2369	-0.0291	0.2078	915.591	0.126046	-437.88824	-437.881037	-437.880093	-437.920179	27.315	
O	 0.0381706427	 0.0985609485	-0.2915380726	-0.29899
C	 0.0271629652	 1.2779563043	-0.1083841165	 0.411023
C	-1.0853165397	 2.3215773969	 0.1408505715	-0.168568
C	 0.0025111946	 3.1811829385	 0.8495450059	-0.253773
C	 1.1067365555	 2.3683970715	 0.1043118839	-0.096082
N	 1.4907405628	 2.9601640488	-1.1622299072	-0.258342
C	 0.6687907505	 3.3403101541	-2.0444785165	 0.139513
O	-0.6851635588	 3.3355228081	-2.146989248	-0.23745
C	-1.6291821251	 2.9339152035	-1.1423334474	-0.076836
H	-1.9350362615	 1.9775409085	 0.7368469235	 0.106449
H	-0.0019224692	 4.253275369	 0.6435856754	 0.116456
H	 0.0217551066	 3.0128133846	 1.9287247067	 0.117882
H	 2.0035439626	 2.0909376962	 0.6607306731	 0.098915
H	 1.0561465178	 3.7740398952	-2.9652480215	 0.133662
H	-2.2978066053	 2.2219945948	-1.6362850499	 0.13824
H	-2.2066849487	 3.8318982076	-0.8939745703	 0.1279
