16
gdb 70710	2.33021	1.98251	1.30306	3.0115	64.5	-0.2393	-0.0065	0.2329	966.3393	0.125239	-475.025797	-475.018002	-475.017058	-475.058122	29.58	
N	-0.0744957022	 1.4158136011	 0.1995828388	-0.57902
C	-0.0489066503	-0.0170736044	 0.045844111	 0.126248
C	-0.4491373357	-0.7128867858	-1.2629346198	-0.349233
C	-1.3205939703	-0.8144205208	-0.0437241107	 0.056227
O	-1.3367550718	-2.0724347236	 0.5872893787	-0.228842
C	-0.5301085212	-2.0864182857	 1.7164250957	 0.001705
O	 0.8486232265	-1.8197852981	 1.4050044201	-0.230268
C	 1.1005177497	-0.6361384186	 0.793931579	 0.428141
O	 2.1925059075	-0.1385363062	 0.8364379701	-0.342449
H	 0.8884961767	 1.7428172925	 0.1675228114	 0.253251
H	-0.5635578001	 1.8519201416	-0.5753852997	 0.232198
H	-0.7643400026	-0.0631880083	-2.0732996428	 0.120272
H	 0.0725659926	-1.6145184567	-1.5636171345	 0.142044
H	-2.2709709176	-0.2874462189	-0.0072461643	 0.112172
H	-0.8606422066	-1.3501693728	 2.4621380422	 0.11846
H	-0.5495561146	-3.0942817353	 2.1307453847	 0.139096
