18
gdb 4489	3.56746	1.65923	1.15302	1.4918	77.39	-0.1697	0.0517	0.2213	1055.0817	0.153892	-344.028968	-344.019823	-344.018879	-344.062837	32.674	
C	 0.0339002776	 1.4779974466	 0.062905338	-0.503892
C	 0.0224442282	-0.0110684182	-0.0426949428	 0.314292
C	-0.042721283	-0.8404063352	-1.1405307726	-0.303904
C	-0.0317358975	-2.189831367	-0.673559274	 0.162006
N	-0.1188431125	-3.3811504561	-1.446007647	-0.613406
C	 0.0376445638	-2.155062494	 0.703550844	 0.273446
C	 0.0576253425	-3.2688416845	 1.6934118452	-0.515226
N	 0.0859353426	-0.8214212077	 1.0650406772	-0.355907
H	 0.9452789984	 1.8548514398	 0.5451407585	 0.121407
H	-0.0162931556	 1.9213642012	-0.9343508139	 0.134108
H	-0.8191187378	 1.862547996	 0.6373287128	 0.122142
H	-0.0939939332	-0.5167058879	-2.1704612358	 0.074738
H	-0.3738285572	-3.1678042553	-2.4030035063	 0.231505
H	 0.7659317058	-3.87722462	-1.478116304	 0.23433
H	 1.053090369	-3.4544035299	 2.1207423971	 0.116509
H	-0.6247518905	-3.0844591813	 2.5328045483	 0.115298
H	-0.2655554498	-4.1882705547	 1.197399261	 0.145562
H	 0.1355305591	-0.4915626918	 2.0133775444	 0.246992
