21
gdb 96007	2.97806	1.26338	1.05457	2.0169	77.25	-0.243	0.0801	0.3231	1205.8324	0.182988	-424.209406	-424.200442	-424.199498	-424.243937	33.024	
C	 0.4645937576	 1.442150324	-0.3546067451	-0.394571
C	-0.0371608061	 0.072144986	 0.1090580742	 0.105273
O	 0.0937982653	-0.9081817099	-0.916876811	-0.265712
C	 1.3759581882	-1.5280240703	-0.817034944	-0.080392
C	 1.9214365079	-1.2342935706	 0.5993422804	-0.274524
C	 0.7364670185	-0.5443254506	 1.3022789754	-0.015015
C	 1.0904180711	 0.4243846531	 2.4070238212	 0.058393
C	 2.2682641648	 0.2779775951	 3.2719189833	-0.185258
O	 2.2388592933	 1.2611807236	 2.2342436016	-0.228687
H	 1.5408567847	 1.4380322411	-0.5480521984	 0.126153
H	-0.0517334907	 1.720815641	-1.2773144707	 0.119136
H	 0.2675935685	 2.2106604124	 0.3989552423	 0.119029
H	-1.1087760701	 0.1400747759	 0.3297622169	 0.077422
H	 1.2376411871	-2.5993133057	-0.9989767338	 0.103267
H	 2.0510397813	-1.1428920363	-1.5934022945	 0.096799
H	 2.2353689935	-2.1454003381	 1.1136367573	 0.103418
H	 2.7774487798	-0.5559133579	 0.5636043894	 0.127442
H	 0.0837529653	-1.3093220902	 1.7419829346	 0.084374
H	 0.2342626161	 0.9523684297	 2.832708728	 0.092047
H	 2.2459606866	 0.6711870605	 4.287210096	 0.115779
H	 2.9581511275	-0.5483129929	 3.1098672772	 0.115626
