23
gdb 90024	2.66506	1.30344	1.06153	1.5889	85.25	-0.2349	0.0716	0.3065	1259.713	0.204968	-388.274379	-388.264961	-388.264017	-388.30892	35.938	
C	 0.7227075624	 1.4149449847	 0.2824382875	-0.396596
C	-0.0187133902	 0.1162109897	-0.0191505016	 0.031846
C	 0.6719075525	-0.8064501944	-1.0688528328	-0.308724
C	 1.155606913	-1.7279462408	 0.0764817298	 0.464882
C	 0.1785389161	-1.0114106463	 1.0383606352	-0.308036
O	 0.9905750963	-3.148345528	-0.0963960161	-0.316357
C	 2.3658322645	-3.4135176419	 0.2379189507	-0.090017
C	 2.6559027378	-1.9127484515	 0.4453690191	-0.102779
C	 3.7189213206	-1.289571549	-0.446738545	-0.415187
H	 1.7784879399	 1.2314726935	 0.5147897007	 0.114725
H	 0.6874660177	 2.0991662924	-0.572527362	 0.113384
H	 0.282142771	 1.9303228607	 1.1431032624	 0.113682
H	-1.0653129412	 0.3399005671	-0.2428030708	 0.06932
H	-0.0442592507	-1.3438227101	-1.6963908595	 0.109603
H	 1.4308190848	-0.3517371531	-1.7118849886	 0.092982
H	 0.5704181796	-0.7172372192	 2.0176088529	 0.089884
H	-0.7193836323	-1.6180046211	 1.1843093982	 0.109385
H	 2.4587359392	-4.0536095013	 1.1239133286	 0.097212
H	 2.9070263632	-3.8816953785	-0.5953581123	 0.094195
H	 2.8480784359	-1.6582424214	 1.4921097666	 0.075437
H	 3.5557527173	-1.5425255275	-1.4997174831	 0.123071
H	 3.7287598127	-0.1976166162	-0.3618617018	 0.121378
H	 4.7148428699	-1.6512455776	-0.1682876182	 0.116709
