21
gdb 58363	1.88503	1.48475	0.97905	3.696	79.22	-0.2218	-0.0287	0.1931	1283.7589	0.180406	-420.360319	-420.350124	-420.34918	-420.396001	36.354	
C	 0.9481563928	-0.3849527724	-0.5081748917	-0.321048
N	-0.3737432893	-0.1010609436	-1.0431267256	-0.057879
C	-0.4967149398	-0.4922528277	-2.4416999396	-0.33492
C	-1.4834418386	-0.5262796409	-0.1948473173	-0.122543
C	-2.717644562	 0.2896947346	-0.5970665301	 0.148595
O	-3.8442233296	-0.1272508273	-0.6307069226	-0.235461
C	-1.7738200915	-2.0172320343	-0.1127013239	 0.038746
C	-1.0996197727	-2.8487572954	 0.9195947827	-0.256121
N	-2.5380629036	-2.5635353333	 1.0155598012	-0.305028
H	 1.6995826544	 0.132905495	-1.1138427444	 0.121488
H	 1.0238755732	-0.0069458751	 0.516338865	 0.116057
H	 1.2061779623	-1.4580561378	-0.4990724738	 0.106295
H	-0.3172740695	-1.5664988459	-2.6220580171	 0.107396
H	-1.4965487698	-0.2509082505	-2.816553475	 0.130687
H	 0.2289079546	 0.0699475073	-3.0385883027	 0.12401
H	-1.246056181	-0.1731985714	 0.8237863202	 0.091084
H	-2.4651982484	 1.3433676589	-0.8536061206	 0.087947
H	-2.0347224495	-2.4806769087	-1.0607445301	 0.10124
H	-0.852053228	-3.885617055	 0.7102536244	 0.121389
H	-0.4175464038	-2.3546657267	 1.6079660547	 0.107164
H	-2.7162751002	-1.8371142299	 1.7053854267	 0.230904
