21
gdb 76613	2.36015	1.40302	1.21959	1.6966	73.98	-0.2461	0.0557	0.3017	1149.5097	0.180685	-461.346505	-461.336846	-461.335901	-461.380247	37.805	
C	 0.5517868678	 1.5368165914	 0.1875302862	-0.394826
C	-0.0017631802	 0.1260256989	-0.0266177042	 0.309819
C	 0.3395652606	-0.7894707614	 1.1566682578	-0.411611
O	-1.4336470926	 0.2829815362	-0.1048248365	-0.476112
C	 0.5495081023	-0.4645464944	-1.3281444358	-0.125067
C	-0.1482364236	-1.5668913317	-2.1082530643	 0.034474
O	-1.4436456725	-1.9589115012	-1.7173158132	-0.439119
C	-0.0448298201	-0.1702813254	-2.6869163665	 0.048621
O	-1.245593456	 0.5346344902	-2.8231303689	-0.444707
H	 1.6409723109	 1.5159740365	 0.2857525653	 0.113296
H	 0.2942679801	 2.1820720694	-0.6569232993	 0.125719
H	 0.1274850235	 1.9708398209	 1.0973937687	 0.123391
H	-0.0740719384	-0.3763872553	 2.0812267208	 0.121701
H	-0.0795638248	-1.7887874031	 1.0031768266	 0.125881
H	 1.4229540072	-0.892719856	 1.2758655585	 0.11269
H	-1.7807686429	-0.6037858777	-0.2920151115	 0.288965
H	 1.6339322438	-0.5475853893	-1.3197710039	 0.091714
H	 0.4437924535	-2.3837476882	-2.5134510168	 0.097891
H	-2.0433433705	-1.516855644	-2.3385044067	 0.295248
H	 0.623413129	 0.0102258263	-3.5235456238	 0.103025
H	-1.533558337	 0.7749902079	-1.9246367925	 0.299005
