15
gdb 54651	3.92891	1.08272	0.86518	2.1786	69.83	-0.2317	-0.044	0.1877	1250.8086	0.113459	-454.024987	-454.016932	-454.015987	-454.05786	30.287	
N	-0.079343075	 1.3487597654	 0.0935730822	-0.548644
C	 0.042521277	 0.0034105731	-0.1773094328	 0.313368
O	 1.095877463	-0.5205290602	-0.4782418045	-0.341953
C	-1.2310981152	-0.7608523887	-0.1055836815	 0.27999
C	-1.3512469516	-2.0894637466	 0.0216940558	-0.180548
C	-2.8074789951	-2.4385309604	 0.1285535001	-0.393957
C	-3.517848456	-1.0824800161	-0.0310134286	 0.409393
O	-4.6981588965	-0.8512534388	-0.1155290082	-0.355686
N	-2.4972731502	-0.1336248722	-0.0785656493	-0.418434
H	 0.7948515477	 1.8443338495	 0.1905750292	 0.26648
H	-0.8324927348	 1.6633144582	 0.6859217142	 0.260992
H	-0.5202669873	-2.7746757327	 0.0824304206	 0.137333
H	-3.16159927	-3.1336736862	-0.6408833626	 0.156038
H	-3.0757241501	-2.8841488275	 1.0944940671	 0.154644
H	-2.6757505858	 0.7844596031	-0.4556474518	 0.260984
