20
gdb 87731	3.09658	1.15409	0.98245	2.3214	82.83	-0.2269	0.0026	0.2295	1269.3178	0.171232	-403.135959	-403.127119	-403.126175	-403.170092	33.916	
C	-0.1384069116	 1.5531494016	 0.1594481692	-0.395606
C	-0.0936965224	 0.0451177785	 0.204265316	-0.05751
N	 1.1433327007	-0.5981431168	-0.2632676739	-0.378861
C	 0.7632336458	-0.715546276	 1.163706121	 0.321955
C	 1.6887209294	-0.1053988238	 2.2225220053	-0.33197
C	 1.6424753141	-1.0741088266	 3.4413309956	 0.085118
O	 1.0881469999	-0.4938112582	 4.6223536644	-0.431728
C	 0.8180930014	-2.2397612727	 2.941404529	-0.133801
C	 0.3169582771	-2.0161295139	 1.7258619012	-0.138464
H	 0.8359844379	 1.9802690166	 0.4081779341	 0.131542
H	-0.4091387764	 1.8995456028	-0.8437713881	 0.121362
H	-0.8816072432	 1.9448856739	 0.8627678474	 0.114068
H	-1.032193332	-0.43957282	-0.0679311943	 0.076797
H	 0.9368776664	-1.465161626	-0.7550282266	 0.226031
H	 2.6992529558	-0.0164984828	 1.8167551978	 0.119526
H	 1.3758975975	 0.8918252374	 2.5438567863	 0.107999
H	 2.6476904519	-1.3803766499	 3.7491378086	 0.092258
H	 0.1546569273	-0.329377236	 4.4465019189	 0.272684
H	 0.6346232389	-3.1131082506	 3.5566490088	 0.1022
H	-0.3361550683	-2.6853230074	 1.1732213992	 0.0964
