19
gdb 101516	6.25958	0.51687	0.49569	4.4444	84.68	-0.2616	-0.0564	0.2052	2181.2274	0.155449	-423.007638	-422.996704	-422.99576	-423.045927	36.953	
C	-0.1428669537	 1.5588207816	-0.0309339085	-0.387131
C	-0.0030426967	 0.0353816144	-0.0013717152	-0.188548
C	 0.7534352251	-0.4709230248	 1.2328122462	 0.145622
O	 0.1381720158	-0.063041248	 2.444169095	-0.418967
C	 0.9350374968	-2.0066178497	 1.1856437493	-0.400125
C	 1.6905989294	-2.5414360471	 2.306365767	 0.092829
C	 2.3255635529	-2.9929230021	 3.2294096179	 0.058584
C	 3.0861011588	-3.4865901142	 4.3465686039	 0.016968
O	 3.2420255744	-4.6574716518	 4.610351222	-0.231956
H	 0.8380976577	 2.0415706324	-0.0971798289	 0.119461
H	-0.734933175	 1.8839284746	-0.8911422181	 0.114649
H	-0.6277440913	 1.919073557	 0.8798846197	 0.130632
H	-0.9981663484	-0.4340605079	-0.0183848224	 0.089047
H	 0.5136196261	-0.3148942566	-0.9037458002	 0.101003
H	 1.7477806097	-0.0095931754	 1.2623639401	 0.102301
H	-0.7579879185	-0.4189454108	 2.4599310059	 0.280356
H	-0.0541311847	-2.4863161777	 1.1519986901	 0.132279
H	 1.4352653983	-2.287162939	 0.249383158	 0.144268
H	 3.5361733434	-2.6896667049	 4.9733623381	 0.098729
