18
gdb 105915	2.18108	1.84698	1.23943	1.1183	71.85	-0.242	0.0592	0.3011	1039.5851	0.147494	-438.972378	-438.964311	-438.963367	-439.005018	31.106	
O	-0.0427607176	 1.3336322887	 0.0209299497	-0.418736
C	-0.0190245685	-0.080588427	-0.0767090747	-0.20164
C	-1.4186383918	-0.618318904	-0.129552092	 0.302912
C	-2.5464428896	-0.2873502216	-1.1233866527	 0.077619
O	-2.5443219915	-0.9280524451	-2.3720097713	-0.443836
C	-3.213497802	-1.0765749385	-0.0056737067	-0.031252
C	-1.9994871143	-2.0330986033	 0.2086551713	-0.122263
C	-2.0054457533	-1.6610592772	 1.6869512419	-0.194841
N	-2.3827084868	-0.3170951303	 1.0665909469	-0.216778
H	-0.6857043966	 1.5438462449	 0.710139754	 0.294863
H	 0.5189988292	-0.329482397	-0.9989044859	 0.111525
H	 0.5373297243	-0.5384353624	 0.7576064144	 0.093151
H	-2.8211867292	 0.7734407505	-1.1815320066	 0.084259
H	-2.0327746769	-0.3920614406	-2.9858363453	 0.291558
H	-4.2687429578	-1.2915794349	 0.1688135579	 0.086072
H	-1.7937232171	-2.9822660355	-0.290856302	 0.079983
H	-2.7958870364	-2.0779308134	 2.319599634	 0.10442
H	-1.055601374	-1.6463137134	 2.2306140571	 0.102985
