25
gdb 123158	6.90583	0.46178	0.44893	0.8114	91.74	-0.2472	0.0908	0.338	2553.4674	0.227362	-389.476846	-389.465764	-389.464819	-389.514828	39.131	
C	-0.1114676288	 1.5175440109	-0.1942944651	-0.378829
C	-0.0690041359	-0.0006603257	-0.0006519887	-0.164896
C	-1.457095343	-0.6466306591	-0.0467857465	-0.176986
C	-1.4165431957	-2.1557007073	 0.1509738421	-0.047074
O	-2.7321882275	-2.6601358276	 0.0771512344	-0.248242
C	-2.8052568492	-4.0588608754	 0.2606159095	-0.065088
C	-4.2443902245	-4.4914111901	 0.2032128335	 0.012366
C	-4.9025843361	-4.7369577926	-1.1288205529	-0.246044
C	-4.5810518912	-5.8985396128	-0.2223925086	-0.272984
H	 0.8918073007	 1.953323165	-0.156925632	 0.110479
H	-0.5536477145	 1.7805500204	-1.1616066064	 0.115049
H	-0.7135106462	 1.998546357	 0.5844852666	 0.114988
H	 0.5686890442	-0.4498296328	-0.7736536512	 0.095277
H	 0.4106560668	-0.2328354279	 0.9596157355	 0.095237
H	-2.101448951	-0.2098688215	 0.7262419929	 0.102241
H	-1.9393684553	-0.4342494098	-1.0089927289	 0.103066
H	-0.7813237641	-2.6265426841	-0.6208051855	 0.078949
H	-0.9639022597	-2.4032858501	 1.1279186613	 0.079753
H	-2.2245560683	-4.5811036302	-0.5210626599	 0.075737
H	-2.3565657542	-4.3376006102	 1.2305284822	 0.082308
H	-4.8671760792	-4.054306322	 0.9782040142	 0.088449
H	-5.9404677845	-4.4481488377	-1.2501372211	 0.11175
H	-4.2976429671	-4.6044332808	-2.0196584699	 0.112735
H	-3.7634821856	-6.5533893704	-0.5064731129	 0.109923
H	-5.3964261102	-6.4046574952	 0.2820024474	 0.111836
