18
gdb 31262	2.22141	1.53419	0.95948	2.4386	76.25	-0.1719	0.0411	0.213	1234.4528	0.148317	-435.277244	-435.267866	-435.266922	-435.312391	33.176	
C	-0.3218366504	 1.1030957079	 0.0932600244	-0.30902
N	-0.1218945852	-0.341045615	 0.0958230881	-0.400046
C	 0.7023477686	-0.8627859326	 1.0991145973	 0.240053
C	 1.1836386117	-2.14866087	 1.1935982851	 0.252311
N	 1.8953320796	-2.1904991047	 2.3823359112	-0.301296
C	 1.8150583396	-0.9524032864	 2.9352766452	-0.001687
N	 1.1010040571	-0.1319748139	 2.1902676175	-0.323286
O	 1.0876408851	-3.2292281013	 0.3801942385	-0.275592
C	-0.2166946415	-3.822908923	 0.3512435363	-0.255326
H	 0.6089165818	 1.6799403966	-0.0128693169	 0.110947
H	-0.9954592799	 1.3598056097	-0.7287128378	 0.108595
H	-0.7873747548	 1.405467049	 1.0335524878	 0.144505
H	 0.1443578781	-0.6914060798	-0.8151827233	 0.232547
H	 2.4091391951	-2.9863693903	 2.7211698483	 0.26652
H	 2.2976855445	-0.6986168176	 3.8664532554	 0.126185
H	-0.4837571647	-4.2307562075	 1.3337943138	 0.11664
H	-0.971759915	-3.0881572091	 0.0513401126	 0.139765
H	-0.1739141196	-4.6316548421	-0.3813096134	 0.128183
