11
gdb 133394	2.54159	1.82124	1.06134	3.0648	58.93	-0.2572	-0.0996	0.1576	982.0671	0.064174	-529.909633	-529.902307	-529.901362	-529.941489	27.099	
N	-0.0077652598	 1.3003920021	-0.0677557214	-0.546699
C	-0.0188420741	-0.0487579688	 0.0162529556	 0.36467
N	-1.1457525478	-0.703281151	 0.0391029931	-0.176141
O	-1.0908533469	-2.0786655504	 0.1773722864	-0.201903
N	 0.0638748025	-2.7749493851	 0.2791456822	-0.108442
C	 1.1760258164	-2.1289650912	 0.2366692219	 0.292448
F	 2.2748992335	-2.8475270153	 0.3329071369	-0.029552
C	 1.3090833544	-0.6917038342	 0.0918490181	 0.192061
O	 2.3513101344	-0.0640373056	 0.0284670922	-0.352486
H	 0.886171891	 1.7239863493	-0.2600777878	 0.287027
H	-0.8532274036	 1.7932404501	-0.2990854872	 0.279017
