21
gdb 112770	2.11018	1.34299	0.98063	1.1289	84.73	-0.2478	0.0408	0.2886	1315.1798	0.179949	-387.052356	-387.042275	-387.04133	-387.087825	37.005	
C	 0.3445348184	 1.5185265487	 0.0779222368	-0.38562
C	 0.0815907483	 0.0097228214	 0.0450346227	-0.192182
C	 0.5418696438	-0.6137033153	-1.2580453848	 0.158867
O	 1.966356698	-0.4897814719	-1.466378205	-0.307283
C	 2.120334566	-1.8975264038	-1.7449160082	 0.161069
C	 3.2128496921	-2.542186229	-0.9215911842	-0.403587
C	 0.6186558592	-2.1703119574	-1.3941678414	-0.314171
C	 0.3332010724	-2.9690460274	-0.22089003	 0.371845
C	 0.0955797388	-3.6390796996	 0.7496360696	-0.485635
H	 1.4093219807	 1.7237013415	-0.0639804799	 0.137284
H	-0.2058848988	 2.0363698722	-0.715589017	 0.111536
H	 0.037280155	 1.9504135601	 1.0348055927	 0.111577
H	 0.5947357596	-0.4841182781	 0.8767612643	 0.109393
H	-0.9893095364	-0.197580621	 0.1670736363	 0.099286
H	-0.0060271909	-0.1672485736	-2.1015254795	 0.071656
H	 2.3090680562	-2.0561860352	-2.816206494	 0.075993
H	 3.010955234	-2.4415070776	 0.1473619425	 0.131058
H	 3.2953570732	-3.6073640704	-1.1613763684	 0.119475
H	 4.1711910609	-2.0631681679	-1.1454625386	 0.125153
H	 0.0466234128	-2.551402244	-2.2440964375	 0.105455
H	-0.1174431531	-4.2307917218	 1.6052945136	 0.198832
