18
gdb 10634	2.57768	1.76539	1.24609	1.7571	74.86	-0.2574	0.0286	0.286	1045.9794	0.15032	-347.759778	-347.750545	-347.749601	-347.793439	33.604	
C	 0.3658312658	 1.450554606	 0.3182948754	-0.379855
C	-0.276772032	 0.1460229189	-0.1671538676	-0.268467
C	 0.490238962	-0.4773646448	-1.3226004409	 0.17374
O	 1.7716552821	-1.0563503325	-0.9882751954	-0.286025
C	 0.7448805364	-1.9361735069	-1.4467238305	 0.037939
C	 0.2432256026	-2.994822544	-0.4992508451	-0.429086
C	 0.4807307411	 0.3011273143	-2.5445769137	 0.315161
C	 0.4445083386	 0.9573689216	-3.5514514903	-0.439853
H	 1.3886236072	 1.2687089613	 0.6609470949	 0.133229
H	 0.4040033219	 2.1927851197	-0.4842215543	 0.130987
H	-0.2039358525	 1.8757408366	 1.1494586093	 0.112223
H	-0.3263909137	-0.5682137152	 0.6582258061	 0.105469
H	-1.3055730397	 0.3308752721	-0.4981907354	 0.108961
H	 0.9081524578	-2.2919377414	-2.4660617197	 0.094811
H	 0.1083426945	-2.6138636352	 0.5140992236	 0.13161
H	-0.708816761	-3.4032997735	-0.854440624	 0.127536
H	 0.9640534396	-3.8181652214	-0.4553740385	 0.133836
H	 0.4231448092	 1.5331876446	-4.4436334638	 0.197784
