20
gdb 32642	4.74063	0.86779	0.7864	1.6001	84.27	-0.1803	0.047	0.2273	1521.7725	0.170755	-403.171705	-403.16223	-403.161285	-403.20691	34.448	
C	-0.029667216	 1.5540661678	-0.0996547868	-0.367419
C	-0.0271262211	 0.0289553218	 0.0415394494	-0.154481
N	-1.358597336	-0.5503700726	 0.0540351934	 0.032541
C	-2.0715309187	-0.8811548277	 1.1709617565	-0.083044
C	-3.3287356268	-1.3051281702	 0.7893184449	-0.321692
C	-3.3683606385	-1.2181957842	-0.6307870671	 0.332246
O	-4.3822236782	-1.5327894457	-1.4839439802	-0.268023
C	-5.5640195016	-2.0150204067	-0.8814621624	-0.240158
C	-2.1457196563	-0.7472151326	-1.0617159459	-0.221203
H	 0.9960399594	 1.9364713046	-0.105379369	 0.116801
H	-0.5147952663	 1.858002564	-1.0313463839	 0.131427
H	-0.5682418287	 2.0191112348	 0.7310624961	 0.129505
H	 0.5386445934	-0.4259611691	-0.779098401	 0.118604
H	 0.4680326782	-0.2655784763	 0.971836684	 0.116674
H	-1.6296120864	-0.7923235508	 2.151026977	 0.112541
H	-4.1068758406	-1.6494652876	 1.4505108156	 0.095598
H	-6.269089216	-2.2132050369	-1.6912814565	 0.126021
H	-5.3851843954	-2.9452950235	-0.324586208	 0.115423
H	-6.0014298239	-1.275111788	-0.1968730505	 0.115402
H	-1.7823470203	-0.5497436712	-2.0561026255	 0.113237
