12
gdb 16790	3.62433	2.08119	1.492	1.2277	54.99	-0.2625	-0.0504	0.2121	783.9302	0.083104	-418.491235	-418.484925	-418.483981	-418.521952	23.449	
O	 0.0541868015	-0.0161131587	-0.0669304272	-0.296279
C	-0.0096648786	 1.183058716	-0.0466037883	 0.410767
C	-1.2767342905	 2.0458499879	-0.0891801856	-0.448861
C	-0.8147480269	 3.3502621572	-0.7500622006	 0.410767
O	-1.4777038272	 4.1075812028	-1.4053953141	-0.29628
C	 0.6760414681	 3.4634293938	-0.5109969637	-0.075975
O	 0.9935533531	 3.1968325745	 0.858511801	-0.231075
C	 1.1714506996	 2.129834716	-0.078136198	-0.075979
H	-2.0876958865	 1.5662948759	-0.6384758606	 0.161957
H	-1.6217717023	 2.2488241051	 0.9310344458	 0.17481
H	 1.286408295	 4.1957009718	-1.0296934004	 0.133075
H	 2.1845007845	 1.7781193679	-0.2449918483	 0.133074
