17
gdb 124743	2.52773	1.49313	0.9752	3.2626	71.3	-0.2584	-0.0343	0.2241	1181.3238	0.134002	-455.131613	-455.122513	-455.121569	-455.166231	32.774	
C	 0.951699247	 1.146313457	-0.7270320521	-0.403725
C	-0.0908631147	 0.4969720365	 0.1865340012	 0.011187
O	-0.890864033	-0.4507779034	-0.5063776645	-0.408234
C	 0.5253205667	-0.1146437598	 1.4212183995	 0.313189
C	 0.222577811	-1.2001639041	 2.1943575129	 0.147618
C	-0.8626784898	-2.22166378	 2.1189131656	-0.50476
N	 1.1670058111	-1.2202965494	 3.2036463281	-0.160594
N	 1.9739551496	-0.2651795196	 3.098751688	-0.019188
O	 1.5975666353	 0.4907720271	 1.9441808924	-0.226568
H	 1.6801830785	 0.4044985134	-1.0731766084	 0.121163
H	 0.4482358864	 1.5768473674	-1.5956985651	 0.131776
H	 1.4995849332	 1.9321914656	-0.2023881636	 0.146755
H	-0.8021526497	 1.2673830438	 0.510882585	 0.12831
H	-0.2994362834	-1.103538902	-0.8990949092	 0.286206
H	-1.5088154188	-2.0230902731	 1.264351752	 0.152566
H	-0.4458477484	-3.2298111457	 2.0239997057	 0.139716
H	-1.4680994711	-2.2072725437	 3.0308516725	 0.144584
