18
gdb 8515	4.51218	1.80061	1.60407	1.7106	71.56	-0.2217	0.0849	0.3066	875.4058	0.152708	-347.750898	-347.743503	-347.742559	-347.781868	29.298	
C	-0.0757044587	 1.4949799974	 0.0417025936	-0.507218
C	 0.0296494724	 0.0021350481	-0.0329270155	 0.28916
C	 0.9305419828	-0.8450633606	-0.9340667694	-0.310771
C	 0.0791097	-2.0533490561	-0.4537214341	 0.427289
C	 0.0097377425	-3.3704357329	-1.1596517807	-0.505722
O	 0.442645687	-2.1532067072	 0.9632214767	-0.330872
C	-0.280092098	-0.9393524684	 1.147318011	 0.059437
C	-1.0871438955	-1.0433164974	-0.0998235452	-0.248485
H	 0.8612284823	 1.9400855665	 0.3964692912	 0.123995
H	-0.30305782	 1.932601627	-0.9372675228	 0.119133
H	-0.8694832398	 1.8024933467	 0.7317297295	 0.118137
H	 0.7576969388	-0.6215773741	-1.9911957812	 0.09501
H	 2.0042999184	-0.8953810801	-0.7213187991	 0.092639
H	 0.9918752272	-3.8556660021	-1.144792708	 0.132573
H	-0.708506589	-4.0356000667	-0.6720039208	 0.130839
H	-0.2901059829	-3.2328511606	-2.2029626761	 0.12132
H	-0.5221083908	-0.6129623072	 2.1507548015	 0.101388
H	-2.1444676568	-0.9927628024	-0.3235176605	 0.092149
