22
gdb 117220	3.92802	0.72955	0.69983	3.6279	84.79	-0.2368	-0.0139	0.2229	1756.0905	0.192185	-404.350796	-404.340321	-404.339377	-404.387385	37.468	
C	 0.2088504647	 1.6249296521	-0.5994793855	-0.387142
C	 0.0555893874	 0.2750166875	 0.1053947184	-0.162306
C	-1.3022640213	-0.3758076405	-0.1519889751	-0.291466
C	-1.4726305441	-1.7376560417	 0.5089355874	 0.399649
O	-0.5781564079	-2.2731536439	 1.1247603151	-0.312406
C	-2.8385459839	-2.3482609308	 0.3591119818	-0.144099
N	-2.9540314822	-3.8144463409	 0.4820176875	-0.311991
C	-3.5673022616	-2.9897797045	 1.5147936154	 0.012586
C	-2.9991275927	-3.0857341584	 2.9085047924	-0.403873
H	 1.189280677	 2.0667369318	-0.3970344487	 0.115724
H	 0.1094632207	 1.5216040263	-1.6860355543	 0.112115
H	-0.5523012281	 2.3397575678	-0.2662778109	 0.11116
H	 0.8439061148	-0.4132961006	-0.2165807674	 0.116246
H	 0.1939117117	 0.3949445185	 1.1854893969	 0.110207
H	-2.1244576264	 0.2729552886	 0.1856171936	 0.11679
H	-1.4755711546	-0.506625089	-1.2313012928	 0.119185
H	-3.4727441681	-1.8515695818	-0.3730792336	 0.081277
H	-3.6491594283	-4.153859605	-0.1775821369	 0.235263
H	-4.6498147255	-2.8646119349	 1.4706298784	 0.087139
H	-1.9138395921	-3.1825870276	 2.8714579616	 0.166521
H	-3.2611301656	-2.198958922	 3.4956961784	 0.110731
H	-3.413469354	-3.9619479411	 3.4185965882	 0.11869
