19
gdb 71159	2.60597	1.86315	1.45623	2.4893	78.35	-0.2337	0.0626	0.2963	970.891	0.160016	-381.971278	-381.96371	-381.962766	-382.002817	30.624	
C	 0.027743747	 1.5793447072	 0.0344115503	-0.527917
C	 0.0418991258	 0.0765729698	 0.0711886119	 0.181646
C	-1.2207679043	-0.7968188928	-0.0760059187	-0.178221
N	-0.5526003719	-1.8938658215	 0.7054070807	-0.157504
C	 0.8860397217	-1.8563204075	 0.2615412557	-0.124471
C	 0.3898526333	-0.8982620058	 1.2804885371	-0.100456
C	 1.0487654062	-0.7529965518	-0.7553236587	 0.387326
C	 1.349518678	-0.7311150955	-2.1976838801	-0.326561
N	 2.365911008	-0.3156868739	-1.1920819726	-0.394647
H	 1.014053135	 2.0007376699	 0.2605719102	 0.123443
H	-0.275278162	 1.9442339415	-0.9546418459	 0.124481
H	-0.6794422376	 1.9858783719	 0.7646338269	 0.128422
H	-2.0729232159	-0.4344703068	 0.5062076255	 0.103016
H	-1.5448893974	-1.0679757816	-1.0879265381	 0.097264
H	 1.4654206253	-2.7613580782	 0.3829128129	 0.103924
H	 0.5875953968	-0.7687900247	 2.3364934339	 0.09934
H	 1.5875385467	-1.6474825603	-2.7310647411	 0.122497
H	 0.8839006901	 0.0391847044	-2.8090598525	 0.109272
H	 2.4317797954	 0.7002050459	-1.1705936973	 0.229145
