18
gdb 10986	2.9176	2.39109	1.73367	1.385	66.73	-0.251	0.0838	0.3348	823.3173	0.15451	-384.927351	-384.920158	-384.919213	-384.958179	28.891	
C	-0.0282104114	 1.4998121585	 0.1214243704	-0.497688
C	-0.0354345405	 0.0049992658	 0.0005523819	 0.374387
C	 0.8529415371	-0.7032396689	-1.0402953643	-0.258595
C	 0.6099649436	-2.1751188872	-0.5755482532	-0.226965
C	-0.3428138923	-1.8576551642	 0.5862555754	 0.027369
O	 0.3197353591	-0.723281108	 1.2427491476	-0.363737
C	-1.3473037201	-0.8430819961	-0.0085184791	 0.152314
O	-2.3358588295	-0.3953894023	 0.8760969707	-0.455283
H	 0.9448862022	 1.85174124	 0.4785106392	 0.130271
H	-0.2217452736	 1.9596723457	-0.8530635266	 0.124355
H	-0.8014451202	 1.8371818326	 0.8171802047	 0.125487
H	 0.5263825415	-0.5113343802	-2.066416207	 0.10092
H	 1.8967635528	-0.3951132873	-0.9456323805	 0.108561
H	 0.1499415694	-2.805677072	-1.3415535216	 0.10228
H	 1.5211019677	-2.6632028329	-0.2242227935	 0.111806
H	-0.6476149627	-2.6495207877	 1.2710159667	 0.079236
H	-1.8308020572	-1.0637163982	-0.9641289901	 0.079239
H	-1.8859859659	-0.2453566175	 1.7185622992	 0.286042
