23
gdb 86213	2.32646	1.42358	1.08848	0.9462	88.16	-0.2403	0.0233	0.2636	1254.9671	0.205291	-388.31368	-388.304152	-388.303207	-388.347421	36.963	
C	 0.0295400496	 1.5294577549	-0.05502869	-0.398104
C	 0.015311395	 0.002816039	-0.0032026745	 0.09775
O	 0.6473667794	-0.4588772684	-1.1883910202	-0.279711
C	 0.9571242823	-1.8497759071	-1.1639469505	 0.128385
C	 1.3134346819	-2.2539145856	-2.5871942376	-0.4137
C	 2.049621236	-2.1228810187	-0.1086500114	-0.028878
C	 3.4473732956	-1.6240069578	-0.5186550968	-0.392593
C	 1.6135266542	-1.4858013063	 1.1894367296	-0.091477
C	 0.6834487761	-0.5354185667	 1.2359320382	-0.064485
H	 1.0583432659	 1.8999962079	-0.0311503285	 0.124524
H	-0.4450940589	 1.8765884567	-0.9766943931	 0.123184
H	-0.5138543007	 1.9483550494	 0.7973459554	 0.11156
H	-1.0402986722	-0.3333495927	-0.0062865647	 0.06964
H	 0.0571790046	-2.4080065121	-0.8532580159	 0.0626
H	 2.1451226335	-1.6556714472	-2.9681404675	 0.127704
H	 1.5953472749	-3.3107674033	-2.630366593	 0.110737
H	 0.4552787832	-2.0966009804	-3.2460524115	 0.119637
H	 2.102551076	-3.2110248548	 0.040816791	 0.071205
H	 3.3995744625	-0.5692803893	-0.8044146345	 0.129104
H	 4.1497806693	-1.7153132569	 0.3159844933	 0.108723
H	 3.8539249105	-2.1952107335	-1.358583217	 0.111672
H	 2.0980480784	-1.8263523899	 2.1018361469	 0.086046
H	 0.365862793	-0.1039781773	 2.1821505122	 0.086479
