24
gdb 64408	2.30797	1.5939	1.2633	1.4024	88.08	-0.2134	0.0772	0.2905	1153.0737	0.218982	-368.40319	-368.394315	-368.393371	-368.435957	36.086	
C	-0.0185777113	 1.5493953539	-0.0111527621	-0.413482
C	-0.0059310334	 0.0107551155	-0.0021026709	 0.257557
C	-1.4637207745	-0.4904711178	 0.0802030295	-0.42028
C	 0.6635996895	-0.5222428692	-1.2904461798	-0.225639
C	 0.9897194827	-2.0147135708	-1.1881759876	-0.213808
C	 1.9954069653	-2.2839228337	-0.0638995459	-0.143116
N	 1.6715522938	-1.6334793155	 1.2203192385	-0.107755
C	 2.2032015489	-0.2883550617	 1.4314887467	-0.267925
C	 0.7443101405	-0.4878238465	 1.2371263128	 0.007815
H	 0.9953127959	 1.9553656472	-0.0802139443	 0.110078
H	-0.593520116	 1.9286551083	-0.8640670514	 0.106781
H	-0.4767655935	 1.9467248344	 0.9014262795	 0.109791
H	-2.0385210112	-0.1605829925	-0.7919470286	 0.107642
H	-1.5234579567	-1.5815416866	 0.1312756443	 0.119358
H	-1.9579218201	-0.0939299222	 0.973395294	 0.112001
H	 0.0010950886	-0.3268877402	-2.1417020476	 0.091701
H	 1.5874115055	 0.037663651	-1.4887068714	 0.088896
H	 0.0714469446	-2.5849338629	-1.0080126386	 0.103638
H	 1.4027787762	-2.3861483063	-2.1326408957	 0.094356
H	 2.0612904308	-3.362410769	 0.1211752867	 0.10135
H	 2.9943689461	-1.9616323929	-0.3861529323	 0.095109
H	 2.6102452337	-0.085036352	 2.4197636502	 0.106369
H	 2.7664613882	 0.166328496	 0.6170861425	 0.100389
H	 0.1266131666	-0.4743777265	 2.1357952314	 0.079174
