19
gdb 74979	2.77229	1.55357	1.25459	1.6477	75.94	-0.2166	0.0595	0.2761	1071.1919	0.160589	-419.234492	-419.226272	-419.225328	-419.267058	32.355	
C	-0.1549551658	 1.527443793	 0.1457329045	-0.466577
C	 0.081135415	 0.0404674219	 0.0218899352	 0.402521
C	-1.1369936926	-0.9156652195	 0.1449791332	-0.27912
C	-0.4665483141	-1.6165461781	 1.3672928119	-0.218366
C	 0.8157603155	-0.7629676034	 1.1504460072	-0.048337
N	 1.9138109183	-1.4467848169	 0.4775976083	-0.350352
C	 1.8462092368	-1.0991262934	-0.7499586381	 0.44715
N	 2.6386921931	-1.5533278333	-1.7697653636	-0.577141
O	 0.8833906265	-0.2230987154	-1.1568425399	-0.290574
H	 0.7956622933	 2.0676243693	 0.1938026264	 0.123805
H	-0.7259406746	 1.9074564677	-0.7081078658	 0.125764
H	-0.7216967506	 1.7452183129	 1.056307194	 0.120636
H	-2.0890526847	-0.4190063337	 0.3488512056	 0.099587
H	-1.2580779078	-1.5491259097	-0.7361750551	 0.111523
H	-0.9708522606	-1.4173765413	 2.3166546161	 0.096523
H	-0.3029096061	-2.6912830788	 1.2723226717	 0.109344
H	 1.172786941	-0.2113067004	 2.0264042085	 0.066377
H	 3.5030822051	-1.9695658127	-1.4600633094	 0.266511
H	 2.7263922924	-0.9274593582	-2.5554540707	 0.260726
