21
gdb 9852	3.16003	1.39076	1.31542	2.1476	75.04	-0.2408	0.0718	0.3126	1089.9849	0.1868	-366.230773	-366.221145	-366.2202	-366.265007	35.027	
C	 0.1456375948	 1.2972926255	-0.2876392808	-0.23363
O	 0.0514950999	-0.0807322576	-0.0136181232	-0.247331
C	-1.2719103254	-0.5780305408	 0.1349724792	 0.0689
C	-2.036852764	-0.6036341172	-1.1942443926	-0.415686
C	-1.1482880826	-1.9562838929	 0.7730588043	 0.362032
C	-0.3745340174	-2.9931686525	-0.0129967398	-0.455379
C	-1.148155759	-2.0083519606	 2.2557093756	-0.282734
N	-2.3276813124	-2.4708724252	 1.494397938	-0.366045
H	 1.2054601823	 1.5607814147	-0.2431035856	 0.12825
H	-0.2352133774	 1.5618018689	-1.2845710305	 0.108001
H	-0.3984117658	 1.8978940867	 0.4589525493	 0.101013
H	-1.8210416281	 0.0700635553	 0.8424725712	 0.049732
H	-1.4725820025	-1.1517309002	-1.9535147595	 0.130379
H	-3.0076744483	-1.092140021	-1.0645085295	 0.123247
H	-2.2212372885	 0.4067116111	-1.5691960671	 0.115844
H	 0.6348950563	-2.6308076481	-0.2257141385	 0.131695
H	-0.3075673901	-3.9233061396	 0.5562888795	 0.120791
H	-0.8660376408	-3.2217621043	-0.9642230588	 0.115834
H	-0.6014005889	-2.7944918394	 2.7691490417	 0.114586
H	-1.2143485822	-1.072416573	 2.8047776199	 0.106701
H	-3.0554194701	-1.7595901794	 1.5326137171	 0.223799
