19
gdb 40752	3.83934	1.12209	1.00209	3.1666	75.19	-0.2456	0.066	0.3117	1222.3304	0.159922	-422.960922	-422.953125	-422.95218	-422.99398	29.572	
C	 0.0511005889	 1.414194639	-0.130438465	-0.187054
O	 1.1359905811	 0.4916945879	-0.2208686839	-0.239187
C	-0.1828842467	-0.0310619599	-0.0144318625	 0.084195
C	-0.4473237045	-0.6884952758	 1.3083754431	-0.022061
C	-1.9352898836	-0.8926697037	 1.7553779831	-0.271776
C	-1.666030688	-2.4064342626	 1.9935926136	-0.07579
C	-1.9123055266	-3.2799804567	 0.7574306633	-0.07568
O	-0.6256438884	-2.9219899278	 0.1953735482	-0.291044
C	-0.2402200621	-2.2232296727	 1.4002524625	 0.101801
H	 0.0385798584	 2.0353576601	 0.7651068362	 0.10746
H	-0.2040639585	 1.9322681996	-1.0541855662	 0.112958
H	-0.5877143621	-0.5588337264	-0.8771879111	 0.105615
H	 0.1339784868	-0.1784333907	 2.0830608746	 0.080566
H	-2.2094794502	-0.3281890639	 2.6485738708	 0.107694
H	-2.6820547933	-0.6899764658	 0.9813347271	 0.102145
H	-1.884740125	-2.8174666722	 2.9775647231	 0.078743
H	-1.9662454208	-4.3575193503	 0.9609426268	 0.102133
H	-2.7478106648	-2.9959589779	 0.105172882	 0.100792
H	 0.6934840493	-2.6070175903	 1.8195008642	 0.078492
