15
gdb 21230	7.44668	1.12177	0.9896	1.2516	62.97	-0.2274	-0.024	0.2034	1143.396	0.119903	-395.965985	-395.958489	-395.957544	-395.998654	26.026	
C	-0.1286771642	 1.5029259424	-0.2563780236	-0.308478
N	-0.0115170374	 0.0535327596	-0.2351835255	-0.281706
C	-1.1490289663	-0.5982085878	 0.3808836156	-0.24262
C	-1.1216404957	-2.0819319119	 0.2012646162	 0.373533
N	-0.3059477221	-2.6899976581	-0.6178399378	-0.178401
O	-0.6578604031	-4.0423321308	-0.488442474	-0.154441
C	-1.6490326654	-4.0779518906	 0.4011957114	 0.107057
N	-1.9936117157	-2.92249371	 0.8688383326	-0.307924
H	 0.7345887762	 1.930417584	-0.7733624891	 0.123999
H	-1.0462794244	 1.8774823036	-0.7460956025	 0.095137
H	-0.1248505476	 1.8870266658	 0.7705035853	 0.123381
H	 0.128315056	-0.3101955531	-1.1709527726	 0.236989
H	-1.1552342637	-0.3874709082	 1.4586353982	 0.137257
H	-2.1302961002	-0.2420139634	 0.0059621448	 0.108674
H	-2.0585636261	-5.0479226116	 0.6429364208	 0.167545
