17
gdb 82896	2.51127	1.99346	1.47585	2.9808	66.49	-0.2371	0.0643	0.3014	912.9955	0.136502	-458.908767	-458.901466	-458.900521	-458.940036	29.599	
O	 0.0423489869	 1.4923064456	-0.085172508	-0.441387
C	 0.0296726654	 0.0872082936	 0.0156399795	 0.051255
C	 0.1504407615	-0.62305911	 1.3977460312	-0.166106
C	-0.9102630913	 0.1229301156	 2.23187076	-0.205821
C	-2.0752578192	-0.3886117777	 1.3683457271	-0.005067
O	-1.997368592	-1.8272191477	 1.6021995319	-0.289549
C	-0.819487294	-1.7610761309	 0.7995044636	 0.053139
C	-1.3421749486	-0.5784130685	-0.0412687054	 0.371176
O	-2.0840556337	-0.7477611219	-1.1947087802	-0.480546
H	 0.9543342499	 1.7971215913	-0.0470194923	 0.287839
H	 0.6858912741	-0.3791203962	-0.7324246925	 0.076274
H	 1.1174392148	-0.8580103519	 1.8359342493	 0.069771
H	-1.0050716124	-0.2290094573	 3.2606659668	 0.10482
H	-0.7695014196	 1.2042272978	 2.2048937352	 0.109778
H	-3.0792854268	 0.0215852293	 1.4651420762	 0.082559
H	-0.4255030123	-2.7080512582	 0.4376021698	 0.091749
H	-2.3705479428	 0.1217882571	-1.4963916423	 0.290118
