20
gdb 8002	3.11824	1.60416	1.17124	2.0357	77.38	-0.2356	0.0198	0.2554	1078.8479	0.176581	-349.027551	-349.018819	-349.017875	-349.06059	32.93	
C	 0.0589770121	 1.5801530015	-0.0379596063	-0.400937
C	 0.0597000037	 0.0477661273	 0.0276422275	-0.062727
C	 0.7532889471	-0.6306310994	-1.1794508545	-0.253334
C	 1.4775782239	-1.8814638179	-0.6197582057	 0.116491
O	 2.7372155502	-2.1480884068	-1.2282462533	-0.435819
C	 1.5457760982	-1.5904062372	 0.8585708636	-0.2407
C	 0.7950096085	-0.5476610606	 1.2218181882	 0.33629
C	 0.5981911511	-0.0263906765	 2.6117328422	-0.49511
H	 1.0823828725	 1.9725225747	-0.0508896337	 0.112008
H	-0.4424989794	 1.9274430369	-0.9472134076	 0.116284
H	-0.4621848836	 2.0243129364	 0.8161672699	 0.113604
H	-0.9900811187	-0.2813026781	 0.0780477522	 0.079184
H	 0.0665655781	-0.8635020621	-1.9972483158	 0.098867
H	 1.5185333747	 0.042878007	-1.5855753363	 0.091344
H	 0.8991715968	-2.7947158631	-0.8123682683	 0.089156
H	 3.324275346	-1.4211113611	-0.9916906782	 0.269588
H	 2.1256211991	-2.2124060416	 1.5333881926	 0.087233
H	 1.1574876337	-0.6148607048	 3.3437285948	 0.12402
H	 0.9190574108	 1.0185847334	 2.6990853655	 0.129052
H	-0.4621149048	-0.0493010681	 2.8957613033	 0.125506
