17
gdb 126016	2.96677	1.6292	1.09987	3.8777	74.41	-0.208	-0.0022	0.2058	1072.5134	0.138592	-417.994827	-417.987468	-417.986524	-418.026604	28.685	
C	-0.2234551366	 1.5593878292	 0.0024072545	-0.399376
C	 0.0574669018	 0.0569202035	 0.0254540402	-0.112584
C	 0.9142514917	-0.4529668979	-1.18058337	-0.183557
N	 1.6787110834	-1.6248575697	-0.6720795749	-0.424115
C	 1.828946582	-1.4048567998	 0.7000467498	 0.15789
C	 2.494142287	-1.7856008769	 1.8160955745	-0.070397
O	 1.9868982447	-1.094311371	 2.8828996881	-0.18625
N	 0.9641147231	-0.2464514636	 2.4531464504	-0.256448
C	 0.8956752834	-0.4476481701	 1.1681026512	 0.385347
H	 0.7093020558	 2.1316537644	 0.0136347299	 0.124597
H	-0.7863813863	 1.8373416113	-0.8943975498	 0.116879
H	-0.8093779092	 1.8550068779	 0.8766160805	 0.140266
H	-0.8966941265	-0.486861758	 0.0320989787	 0.110724
H	 0.298217072	-0.742344032	-2.0358512916	 0.114714
H	 1.590160937	 0.3542990539	-1.5019066608	 0.102692
H	 2.522589482	-1.8244885551	-1.1916405568	 0.239745
H	 3.2993521547	-2.463369156	 2.0442133261	 0.139871
