17
gdb 85571	2.80093	1.42178	1.10196	2.3531	70.59	-0.2374	-0.0018	0.2357	1108.8808	0.137129	-455.188176	-455.179747	-455.178803	-455.221598	31.217	
C	 0.0084315053	 1.5672804337	 0.2064340932	-0.397466
C	 0.0822247638	 0.0434316112	-0.0211033498	-0.133738
N	 0.7998913992	-0.3510301082	-1.2204208117	-0.292788
C	 2.1615143079	-0.4519998654	-1.2634428881	 0.341124
N	 2.7902290476	-0.5047228027	-2.3741376931	-0.528735
C	 2.8063848662	-0.4714923077	 0.1104532887	-0.177058
O	 1.9779453913	-0.9832900541	 1.162468111	-0.220777
C	 0.6685310675	-0.6483887545	 1.2093378417	 0.443491
O	 0.0167418595	-0.8966076836	 2.1842127984	-0.32725
H	 1.0052420133	 2.0050424062	 0.3177463752	 0.127236
H	-0.4777382269	 2.0474694811	-0.6475784262	 0.127557
H	-0.5706899115	 1.7836266984	 1.1079907078	 0.149811
H	-0.9376931119	-0.342395314	-0.0967429529	 0.129818
H	 0.3486578583	-0.2200956273	-2.1144248279	 0.254469
H	 3.787199398	-0.6471786697	-2.2236660674	 0.214582
H	 3.6883862594	-1.1133597512	 0.0932869523	 0.148261
H	 3.1322727429	 0.5432481376	 0.3750777588	 0.141462
