18
gdb 111440	3.00386	1.55103	1.22974	3.3587	71.19	-0.2352	0.0569	0.2922	1048.8077	0.148038	-439.014554	-439.006789	-439.005845	-439.047141	29.622	
C	 0.0643809734	 1.2425820797	 0.2919126413	-0.233233
O	-0.0411822102	-0.0698839014	-0.2109946461	-0.234306
C	-1.3296261278	-0.621665007	-0.1043227958	 0.1415
C	-1.3700372546	-2.00766353	-0.7515656953	-0.100134
N	-0.5126936734	-3.0223050839	-0.1168713104	-0.297091
C	-1.951484889	-2.98250774	 0.2084734576	-0.084838
C	-2.2516704398	-2.2352032628	 1.4984246705	 0.046945
O	-1.1047709568	-1.6974098765	 2.1528385603	-0.22279
C	-1.87051321	-0.8241461267	 1.3234509822	-0.023782
H	 1.0787958032	 1.5866273348	 0.0775237658	 0.130163
H	-0.6517662871	 1.9258416921	-0.1936962141	 0.096748
H	-0.0978728519	 1.2848242671	 1.3784697251	 0.116367
H	-2.0615066146	 0.021915284	-0.6288330268	 0.059394
H	-1.5478151102	-2.0666767071	-1.8204602895	 0.09153
H	-0.3461850862	-3.768604566	-0.7887960799	 0.232777
H	-2.6053430464	-3.7904251282	-0.1005929158	 0.087961
H	-3.0618395733	-2.5616193413	 2.1449931637	 0.095981
H	-2.3653427353	-0.0037745468	 1.8394211769	 0.096809
