18
gdb 91149	2.39306	2.0069	1.25135	4.1328	77.55	-0.2371	-0.033	0.2041	1012.0679	0.149399	-401.977716	-401.970135	-401.969191	-402.009762	29.539	
C	-0.3798485943	 1.5106406524	 0.089094081	-0.398067
C	-0.0179793462	 0.0422155168	-0.0292559925	 0.055976
C	 0.7291129378	-0.4407447958	-1.305106502	-0.277343
C	 1.755673749	-1.1369047666	-0.3523023296	-0.015809
C	 3.2023358065	-0.7548777449	-0.2794536291	-0.098132
C	 3.3919213591	 0.0575415215	 0.7660310987	-0.177286
C	 2.0766515189	 0.3967948717	 1.3956203896	 0.365493
O	 1.8443880191	 1.2593954821	 2.2147267205	-0.379905
N	 1.1371865856	-0.4558587632	 0.7992844927	-0.126429
H	 0.4620918279	 2.157190255	-0.1735081119	 0.126701
H	-1.209917059	 1.7319648231	-0.5902038322	 0.113781
H	-0.6839346584	 1.7589066929	 1.1083447594	 0.150785
H	-0.8971399246	-0.5741368258	 0.1876066416	 0.090931
H	 0.1821977257	-1.0974053135	-1.9832828212	 0.111381
H	 1.1707044451	 0.3843301451	-1.8686623539	 0.115304
H	 1.6271216984	-2.2266410358	-0.3234243218	 0.099438
H	 3.9607823083	-1.1507788026	-0.9442453471	 0.118822
H	 4.3200191412	 0.4884771676	 1.1160254579	 0.12436
