17
gdb 113603	3.47744	0.73681	0.64034	4.4757	90.77	-0.2519	-0.0485	0.2034	1706.1891	0.13505	-380.829826	-380.820576	-380.819632	-380.864734	32.854	
C	 0.3644500758	 1.6372893605	-0.0003841098	-0.378546
C	-0.1977168524	 0.2295712218	-0.1716219272	-0.123711
N	 0.5383823006	-0.4760640222	-1.2238431667	-0.06896
C	 1.7011726573	-1.2380667208	-0.8228237365	-0.238658
C	 0.4532638827	-1.9470971639	-1.2790160884	-0.2121
C	-0.3237261385	-2.6948697238	-0.3382905617	 0.156324
C	-1.0173942955	-3.3404162895	 0.4150295414	 0.002508
C	-1.7857197738	-4.066617552	 1.2764191288	 0.204884
N	-2.4403064627	-4.6839479359	 2.0122749728	-0.336949
H	 1.4094878498	 1.6077761787	 0.3248905892	 0.121018
H	 0.3180332557	 2.1890375139	-0.9431330913	 0.132844
H	-0.207890224	 2.1852663165	 0.7536824249	 0.122424
H	-0.1672444082	-0.3116031637	 0.7874256271	 0.101418
H	-1.2471810411	 0.2745082331	-0.4819611365	 0.118559
H	 2.5581304604	-1.2082072242	-1.4898020055	 0.134054
H	 1.9361103278	-1.3037108406	 0.2385123035	 0.129912
H	 0.4262681661	-2.3448813979	-2.291068444	 0.134977
