21
gdb 39757	4.52804	1.29263	1.17491	0.2588	87.29	-0.2548	0.1042	0.3591	1124.8926	0.185161	-349.903044	-349.895987	-349.895042	-349.934131	29.906	
C	-0.0041150685	 1.5253644995	 0.0302506988	-0.371066
C	 1.3233962153	 0.7663912995	 0.0140212385	-0.371077
C	 0.0251177596	 0.0365978085	-0.0045156788	 0.470004
C	-0.5741826383	-1.031217917	 0.9139297813	-0.158608
C	-1.8218550078	-1.1001297526	-0.0331442819	 0.012645
C	-2.3434415418	-2.5366085609	-0.0672808359	-0.247628
C	-0.9922958667	-3.3091518697	-0.083800358	-0.247627
C	-0.0183390535	-2.1313236164	-0.0551935429	 0.01264
C	-0.5720551676	-0.9871469309	-0.9731549964	-0.158616
H	-0.2876768419	 2.0238314924	 0.9523849323	 0.108165
H	-0.2855872404	 2.0663884008	-0.8682342497	 0.108165
H	 1.915774017	 0.8078139189	-0.8951446314	 0.108165
H	 1.9137112126	 0.7652420906	 0.925468635	 0.108165
H	-0.5760177761	-1.0577841576	 2.0062770063	 0.061689
H	-2.5386078942	-0.2776535588	-0.0147446775	 0.061093
H	-2.9553832529	-2.7741239079	 0.8089414849	 0.095276
H	-2.9533944527	-2.7329271292	-0.9550129345	 0.095276
H	-0.8705145115	-3.9661881054	 0.7834507947	 0.095277
H	-0.8685262093	-3.9249892475	-0.9805040058	 0.095277
H	 1.0541803903	-2.331897751	-0.0586688043	 0.061093
H	-0.5714277515	-0.9626938352	-2.0655528347	 0.061689
