16
gdb 32702	5.99389	0.82696	0.73759	1.8978	70.18	-0.2053	0.0448	0.2501	1504.6219	0.122222	-475.031919	-475.022739	-475.021795	-475.068149	31.866	
C	-0.4860449797	 0.5094346593	 1.0855969477	-0.367173
C	 0.443210185	 0.4042036275	-0.1206653601	-0.124693
N	 0.9815276606	-0.9480214772	-0.2264885153	-0.371922
C	 2.0201815059	-1.127653057	-0.8966510967	 0.53941
O	 2.7713594707	-0.2193714394	-1.584779341	-0.232579
C	 3.8498756113	-0.9151530409	-2.1506816778	-0.185482
C	 3.7212147493	-2.1952340812	-1.8155932117	 0.380728
O	 4.4465602277	-3.2794499523	-2.0915681324	-0.415237
O	 2.6007629334	-2.3735773171	-1.0422913443	-0.258663
H	-1.3015429046	-0.2151038348	 1.0056803391	 0.122867
H	 0.057777991	 0.301119073	 2.0119098582	 0.118349
H	-0.9164761136	 1.513525445	 1.1559643122	 0.10484
H	-0.1155452169	 0.6446301955	-1.0366905471	 0.105181
H	 1.2464215085	 1.1511601883	-0.0452185655	 0.103078
H	 4.5623829688	-0.3616051522	-2.730444244	 0.159348
H	 4.0660409626	-4.0281089366	-1.6164405613	 0.32195
