21
gdb 76869	2.48983	1.65617	1.3825	1.5102	82.61	-0.2394	0.0151	0.2546	1050.4073	0.184119	-387.093145	-387.08494	-387.083996	-387.125593	32.842	
C	-1.0825294416	 1.0353009213	-0.1238132107	-0.407093
C	-0.1297005346	-0.1471966748	-0.0339350175	-0.004064
C	 1.1193395583	-0.195317044	-0.9757126	 0.102977
O	 1.5188161096	 1.0331578384	-1.5452773225	-0.426783
C	 1.9847703735	-0.7203796581	 0.2261616426	-0.046196
C	 3.2262891309	 0.1091012477	 0.5947182997	-0.277842
C	 2.649364125	 1.1840650067	 1.4919076538	-0.086686
C	 1.3688297452	 0.9644462644	 1.8058337622	-0.082839
C	 0.8268537763	-0.3035342236	 1.1935746372	-0.086051
H	-0.5608868532	 1.9914383677	-0.017188923	 0.107275
H	-1.5982580253	 1.0497834477	-1.08930552	 0.121256
H	-1.8428243663	 0.9845765723	 0.6634412798	 0.111069
H	-0.6951952431	-1.0777449021	-0.1586476061	 0.07027
H	 1.0353142888	-0.8846836627	-1.8198983538	 0.080028
H	 1.6046218203	 1.6767320536	-0.832404627	 0.282067
H	 2.1777351665	-1.7921090942	 0.1562513872	 0.065383
H	 3.9845762526	-0.4832565704	 1.1236378247	 0.103846
H	 3.7135623819	 0.5244609595	-0.2950139463	 0.11895
H	 3.240003741	 2.0214387628	 1.8501375128	 0.093657
H	 0.7753450749	 1.6022835434	 2.4530911797	 0.093803
H	 0.4899410693	-1.0131142655	 1.9576084769	 0.066973
