17
gdb 26065	3.25418	1.1725	0.92536	4.2148	78.4	-0.2177	0.0323	0.25	1242.9451	0.137537	-380.92658	-380.918119	-380.917175	-380.960391	31.309	
C	-0.4290734375	 1.3838458411	 0.0684172523	-0.380392
C	 0.1225738763	-0.0548703481	-0.0807088415	-0.271275
C	 1.0207244162	-0.1300640583	-1.2399708606	 0.290248
N	 1.7334277013	-0.1716331348	-2.1489584452	-0.342188
C	 0.8104972245	-0.5464508225	 1.171445114	 0.282056
C	 2.157599535	-0.7702022267	 1.3481751931	-0.164453
N	 2.3474105186	-1.1841709704	 2.6404311562	-0.248219
C	 1.1452066247	-1.2329860773	 3.2969393481	-0.065958
C	 0.1694530755	-0.842239161	 2.4117588221	-0.256658
H	 0.3860189746	 2.0847636708	 0.263540799	 0.137938
H	-0.9554837613	 1.6977840734	-0.8369578614	 0.129989
H	-1.1239117812	 1.4205821471	 0.9108175519	 0.128369
H	-0.725029069	-0.7176638166	-0.3017747333	 0.130611
H	 2.9789531341	-0.6777938984	 0.6564704461	 0.14461
H	 3.2358282183	-1.4308917357	 3.0396165384	 0.266044
H	 1.0845828638	-1.541523703	 4.328016669	 0.12447
H	-0.8871562839	-0.7772872495	 2.6239402718	 0.094806
