18
gdb 55969	2.91337	1.12412	0.9118	4.3997	73.31	-0.2417	-0.0126	0.2291	1290.1403	0.146385	-439.12908	-439.11975	-439.118806	-439.16443	32.99	
C	 0.143244614	 0.8922268773	-0.8503902994	-0.493975
C	 0.0484055908	-0.0112566404	 0.3571843374	 0.389515
O	 0.923242788	-0.0985409774	 1.1873531591	-0.307496
C	-1.208794312	-0.8852906846	 0.4792958554	-0.310102
C	-0.9048911645	-2.3115445401	 0.0107585511	-0.129803
C	-2.0617074778	-3.3592079102	 0.0244928266	-0.193097
N	-1.8549060004	-3.5057557208	-1.4191083309	-0.315988
C	-0.8824513387	-2.5457806323	-1.5248887998	 0.422526
O	-0.2930230809	-2.0745029072	-2.4635930983	-0.361152
H	 1.0694157485	 1.4670486442	-0.8185488759	 0.136917
H	 0.1130555461	 0.2701215318	-1.753190609	 0.183441
H	-0.7180012925	 1.568801398	-0.8934178774	 0.129676
H	-1.4866566758	-0.9075191774	 1.5378768817	 0.127932
H	-2.0435831249	-0.4683162432	-0.0942893688	 0.105017
H	 0.0030470743	-2.6760801103	 0.4980379646	 0.126122
H	-1.869933698	-4.267451307	 0.6033492022	 0.120027
H	-3.0405380984	-2.9489454537	 0.2946035076	 0.115861
H	-2.3484996276	-4.0346618067	-2.1227060564	 0.254578
