20
gdb 19745	4.39764	1.94412	1.94411	0.	77.48	-0.2725	0.094	0.3664	814.0599	0.182372	-311.878205	-311.87232	-311.871376	-311.907747	25.473	
C	-0.0210345384	 1.500057799	-0.0152146285	-0.230087
C	 1.5106027071	 1.7992022424	-0.0301733429	-0.230087
C	 2.0425108444	 0.362796216	 0.0172304229	-0.004641
C	 1.1432962602	-0.438682598	-0.9797765178	-0.004641
C	 1.4342930023	-1.913885636	-0.6839200474	-0.230088
C	 1.4391698134	-1.860612957	 0.875811675	-0.230087
C	 1.1496678957	-0.368606824	 1.0721384273	-0.004641
C	 0.0275556329	-0.0307451668	 0.0369147121	-0.004641
H	-0.526891019	 1.930208052	 0.8548525761	 0.092573
H	-0.532365442	 1.8699815878	-0.9094415605	 0.092573
H	 1.8282646788	 2.331009552	-0.9325084766	 0.092573
H	 1.833727839	 2.3912874218	 0.8317836746	 0.092573
H	 3.1266137936	 0.2221258171	 0.0186960363	 0.049582
H	 1.0737038238	-0.1346301207	-2.0275258048	 0.049582
H	 0.6608239789	-2.5784814067	-1.0814023753	 0.092575
H	 2.3933374195	-2.2401040037	-1.0983627465	 0.092572
H	 0.6683252607	-2.4963765792	 1.3225224194	 0.092572
H	 2.4008394888	-2.1580011866	 1.3055622547	 0.092575
H	 1.0864461871	 0.0062142145	 2.0971173652	 0.049582
H	-0.9237342069	-0.568948634	 0.0582215763	 0.049582
