15
gdb 127745	7.35383	0.84548	0.76203	1.8085	77.3	-0.22	-0.0072	0.2128	1438.2656	0.113688	-446.305995	-446.297211	-446.296267	-446.340458	29.918	
C	-0.0056762917	 1.3735660956	 0.0822141092	-0.314819
N	 0.0049387685	-0.0726905998	 0.0558343977	 0.157808
N	-0.0669274061	-0.7666073035	-1.0719232682	-0.137193
N	-0.0299015053	-2.0261936419	-0.7264228985	-0.288299
C	 0.0650915932	-2.0521949198	 0.6366439085	 0.472884
N	 0.1312160653	-3.1704870674	 1.4334905331	-0.346264
C	 0.0744093507	-4.3155662739	 0.8537108996	 0.135283
N	 0.1698900286	-5.4662225043	 1.5555455001	-0.498
N	 0.0893224613	-0.8198863892	 1.1515470044	-0.342382
H	 0.9162540767	 1.7441975249	 0.5361591114	 0.157684
H	-0.0819689283	 1.7163595577	-0.9490634516	 0.166583
H	-0.8603392968	 1.7287458633	 0.6625334404	 0.157437
H	-0.0321006711	-4.4437784918	-0.2269269526	 0.140111
H	-0.0169351584	-6.3500571145	 1.1185928746	 0.269167
H	 0.1871036734	-5.4188710654	 2.561841182	 0.27
