19
gdb 68151	3.34225	1.2443	1.08897	3.7864	76.12	-0.2463	-0.0232	0.2231	1142.9896	0.159365	-423.028597	-423.020422	-423.019478	-423.061274	32.009	
O	-0.1038802196	 1.3745950008	 0.0550471381	-0.481581
C	-0.0288294495	-0.0130178483	 0.0207166862	 0.419701
C	 0.2474621573	-0.8806168213	 1.2953467962	-0.336011
C	-0.4686777078	-1.9661690775	 0.4185192112	 0.259674
C	-1.3438139621	-0.8128051781	-0.1376541712	-0.298514
C	 0.5772932541	-2.1733120026	-0.7107076949	-0.273225
C	 0.896225748	-0.6781852742	-1.0217909318	-0.277534
C	-1.043827191	-3.176967667	 1.0683649075	 0.048065
O	-2.2216082422	-3.3853736014	 1.2261908792	-0.25149
H	 0.7908846065	 1.7317439696	 0.0575033562	 0.279803
H	 1.2830370275	-1.0651257525	 1.5964693801	 0.090772
H	-0.3590180834	-0.5630897966	 2.1452818642	 0.117159
H	-2.1126940337	-0.4999339065	 0.5695849369	 0.120676
H	-1.7634766845	-0.922161729	-1.1407784865	 0.098005
H	 1.4509527529	-2.7350986989	-0.3675180666	 0.104645
H	 0.1502749713	-2.6999367112	-1.5682734681	 0.113069
H	 0.628345366	-0.3881024806	-2.0411652546	 0.109799
H	 1.949514873	-0.4250655796	-0.8595165956	 0.091741
H	-0.2816378729	-3.908292545	 1.4298949137	 0.065247
