20
gdb 37625	2.71883	2.17204	1.99002	1.5254	79.26	-0.2318	0.0897	0.3215	845.4631	0.176557	-365.996132	-365.990222	-365.989278	-366.025898	26.561	
C	-0.0296093494	 1.5695257934	 0.0597826587	-0.22231
C	 1.4760083024	 1.8465073235	 0.0305765894	-0.069148
C	 2.0246903512	 0.8241998591	 1.0518050924	-0.053131
C	 2.4924646962	-0.0586282312	-0.0490277899	-0.060646
C	 2.1501142715	 0.9858417719	-1.1193738824	-0.020326
C	 1.1973809581	 0.4593652974	-2.1977455456	-0.230031
C	 0.120259854	-0.4105561129	-1.5005213012	-0.203474
C	 0.0075439217	 0.0259650542	-0.0304984654	 0.011932
N	 1.2555824207	-0.3734132288	 0.7029593122	-0.105539
H	-0.4737895885	 1.9172194578	 0.998834375	 0.096634
H	-0.583243431	 2.0244337917	-0.7679835198	 0.095225
H	 1.7859641968	 2.8889258619	 0.0977018875	 0.063805
H	 2.3777366455	 0.9768927897	 2.0645582078	 0.086093
H	 3.2755312401	-0.809438062	-0.0772319309	 0.082629
H	 3.0320009143	 1.4820743101	-1.5302787258	 0.066114
H	 0.7388083494	 1.2987035027	-2.733671657	 0.096785
H	 1.7466077378	-0.1218691013	-2.9459541065	 0.09623
H	-0.8489796529	-0.3235946723	-2.0014679942	 0.093373
H	 0.4017320354	-1.4687898865	-1.5258469956	 0.10605
H	-0.8398331933	-0.4566680085	 0.4615032713	 0.069735
