19
gdb 84426	3.2985	1.20896	0.95747	3.8016	79.19	-0.2428	-0.0214	0.2214	1242.7392	0.159686	-419.25416	-419.245268	-419.244324	-419.287985	32.743	
C	-0.2992510424	 1.5265428146	-0.0672721306	-0.397308
C	 0.1138634817	 0.0586672291	-0.0240407737	 0.0385
N	 1.0264728863	-0.2763917215	-1.1400954328	-0.265465
C	 1.922358531	-1.0487118154	-0.6762147636	 0.076698
N	 1.8617542197	-1.3150060271	 0.6945387511	-0.070564
C	 2.6745285126	-2.1958951693	 1.3605130626	 0.148002
O	 3.537390158	-2.8656749788	 0.8388028444	-0.316071
C	 0.8326997536	-0.4332713748	 1.2844693202	-0.026979
C	 1.4718579589	 0.6544975131	 2.1505862443	-0.39652
H	 0.5622214906	 2.1932577123	 0.0242472943	 0.125393
H	-0.779095576	 1.7335580635	-1.0268886889	 0.135938
H	-1.0105117023	 1.7639075211	 0.7300067597	 0.114519
H	-0.7892520841	-0.5493304878	-0.1707819183	 0.097171
H	 2.7165328583	-1.5098035248	-1.2502353169	 0.164537
H	 2.4445801653	-2.2360843338	 2.4423475912	 0.083319
H	 0.1469278076	-1.0282316489	 1.8946369681	 0.100126
H	 2.1818043857	 1.2537476573	 1.5736580391	 0.136684
H	 0.7096173691	 1.3213296229	 2.5626182129	 0.129349
H	 2.0120650163	 0.2060632583	 2.9900919971	 0.122672
