22
gdb 57394	2.71221	1.36864	1.25473	2.301	81.11	-0.2368	0.0779	0.3147	1147.5246	0.193331	-404.312412	-404.303188	-404.302244	-404.345693	36.565	
C	-0.3536528227	 1.473851469	 0.0363177295	-0.402148
C	 0.0507267946	-0.0019821176	 0.0331323229	 0.262133
C	 0.903718213	-0.3425790782	 1.2658914716	-0.427477
O	-1.159988525	-0.7561812903	 0.0758006996	-0.466685
C	 0.7753843603	-0.3635962853	-1.2594468486	 0.331207
C	 0.0389711032	-0.6498781348	-2.5066504646	-0.283698
N	 0.6599211422	-1.7877145247	-1.790600569	-0.194361
C	 2.1230184794	-1.7253131873	-2.1457549412	-0.148705
C	 2.2815954483	-0.3049567675	-1.544412076	-0.33538
H	 0.5275300172	 2.1209208415	-0.0137434937	 0.111104
H	-0.9982832148	 1.6928375384	-0.8186941876	 0.121464
H	-0.9042299752	 1.7100067942	 0.9516297374	 0.121684
H	 0.3034894923	-0.1966154843	 2.1677150591	 0.122799
H	 1.2250841387	-1.3892372851	 1.2353872726	 0.114228
H	 1.7944777793	 0.2891326117	 1.3394276443	 0.109749
H	-0.917625906	-1.660648479	-0.1717334148	 0.288739
H	-1.0432760956	-0.6620907001	-2.4508597268	 0.132022
H	 0.4545755107	-0.3531277748	-3.4679944114	 0.105413
H	 2.6729669472	-2.4978393142	-1.6051063885	 0.112776
H	 2.3117388417	-1.838856462	-3.2183235323	 0.10656
H	 2.6151164412	 0.4989216607	-2.2064946765	 0.103641
H	 2.89952455	-0.2973818605	-0.6461221959	 0.114934
