13
gdb 43596	3.41098	1.39227	1.12331	4.1956	63.96	-0.2724	-0.022	0.2504	1028.5873	0.088139	-456.531897	-456.524597	-456.523653	-456.563982	27.174	
O	-0.0114902718	 0.0331782554	 0.2604549931	-0.327797
C	 0.0156249556	 1.1986025519	 0.0040593635	 0.468406
O	-1.1091190488	 1.9230613884	-0.2767802396	-0.235644
C	-0.7942342329	 3.2431224264	-0.7869075023	-0.088059
C	-1.6090531275	 4.2558008156	-0.134666095	 0.32733
C	-2.2694692683	 5.1167553948	 0.3777354686	-0.420576
C	 0.7076188474	 3.407987099	-0.5606492196	 0.013616
O	 1.0636187191	 3.239503332	 0.8006209142	-0.225006
C	 1.2089069848	 2.1167868247	-0.0895798837	-0.130142
H	-1.0003039965	 3.2316699293	-1.8650000935	 0.133218
H	-2.8552565018	 5.8723743804	 0.8413497946	 0.213542
H	 1.2797132837	 4.1205841696	-1.1453599002	 0.132544
H	 2.2060736471	 1.7189705924	-0.2342212702	 0.138569
