16
gdb 18121	4.52719	2.10517	1.51049	4.1399	65.63	-0.2163	0.0568	0.2731	820.2103	0.134801	-379.939598	-379.933393	-379.932449	-379.969902	23.771	
C	 0.0780571192	 1.363287202	-0.1349940784	-0.093955
C	 1.5170768624	 1.7991227167	 0.2160620554	-0.196
N	 2.13560596	 0.491678596	 0.3291592066	-0.117454
C	 3.3116751427	 0.1397248007	 1.1215868496	-0.19434
C	 2.9564181176	-1.3378279224	 1.4895989166	-0.160747
N	 1.4822989212	-1.4330138565	 1.4142241181	-0.376565
C	 1.1478886233	-0.3897818843	 0.7751127771	 0.489058
O	-0.0815394814	 0.0674164776	 0.4838805536	-0.259235
H	-0.6918790745	 2.0274223081	 0.260789665	 0.129962
H	-0.0555026116	 1.2541767081	-1.2164445456	 0.126973
H	 1.9630877186	 2.4152283569	-0.569417981	 0.120296
H	 1.5510734109	 2.3605408846	 1.164758387	 0.103908
H	 4.2397651075	 0.2368517848	 0.5529787016	 0.111999
H	 3.3825127076	 0.7736239033	 2.02056238	 0.096089
H	 3.4142963523	-2.0353593931	 0.7757455257	 0.108917
H	 3.3107915642	-1.6106767026	 2.4871346787	 0.111092
