18
gdb 50842	2.8869	0.94398	0.75511	1.7823	75.22	-0.2831	-0.0266	0.2565	1489.7742	0.146268	-439.096823	-439.087598	-439.086653	-439.132319	32.585	
N	 0.4736043798	 1.6065671446	 1.2093468197	-0.476122
C	-0.0176210549	 0.607215839	 0.6164906658	 0.391624
C	-1.2987921167	-0.0574170106	 1.0389080397	-0.278881
C	-2.4431383502	 0.2379235495	 0.0815539791	 0.027466
C	-2.6277474191	-0.5715378198	-1.1757064411	-0.245808
C	-3.5963322672	-0.7273177545	-0.0304688786	-0.279114
O	 0.5016220095	 0.0095743651	-0.5362932797	-0.197221
C	 1.8498517552	-0.1459716245	-0.6565171779	 0.155261
O	 2.3546198961	-0.5251321882	-1.6658834774	-0.251707
H	 1.3042054712	 1.9793615019	 0.7494367929	 0.231816
H	-1.1356435221	-1.1402426745	 1.0896231837	 0.114763
H	-1.5368327673	 0.3044396004	 2.0420898133	 0.135105
H	-2.691962322	 1.2934279908	 0.0164443398	 0.097836
H	-2.9625728193	-0.0584893849	-2.0700429911	 0.117437
H	-1.9260089614	-1.375927865	-1.3651318832	 0.123539
H	-3.5506609127	-1.6409645081	 0.553395408	 0.113249
H	-4.5954282772	-0.3197247843	-0.1357607261	 0.116984
H	 2.3879142882	 0.0856232829	 0.278532703	 0.103772
