20
gdb 111425	2.02143	1.48379	0.98868	3.089	73.86	-0.238	0.0601	0.2981	1230.8776	0.171028	-440.217175	-440.208025	-440.20708	-440.251326	34.192	
O	 0.1869331812	 1.4905500083	 0.4608137648	-0.413868
C	 0.053601614	 0.2054768983	-0.1318531778	-0.083768
C	-1.3241803811	-0.4017844338	 0.1111548984	-0.070278
C	-1.5511365889	-1.8809594208	-0.210730388	-0.046304
C	-0.7967350341	-2.7639877053	 0.6971971556	-0.250708
N	-2.0720432146	-2.1979114474	 1.1831672427	-0.158897
C	-1.8105126242	-0.7463362792	 1.5533964742	 0.026763
C	-0.9526754233	-0.5333875318	 2.7878680307	-0.076794
O	-1.5951414923	-1.0683885725	 3.9333698741	-0.424535
H	-0.4522772102	 2.0779912631	 0.0444422292	 0.283887
H	 0.2556357106	 0.2368117438	-1.2148427828	 0.092607
H	 0.8410257058	-0.4038453049	 0.3198894285	 0.111468
H	-2.0712239597	 0.2242457817	-0.3895698136	 0.07504
H	-2.0535163887	-2.2563384241	-1.0965577595	 0.098089
H	-0.8659667378	-3.8327888343	 0.51965875	 0.125268
H	 0.1465817315	-2.4463843191	 1.1310087206	 0.117502
H	-2.7882516681	-0.2999890933	 1.7527035126	 0.094416
H	 0.0537979445	-0.9614269702	 2.663013762	 0.081881
H	-0.8191543275	 0.5387959815	 2.9584834016	 0.124654
H	-1.8783573769	-1.96131472	 3.7046052568	 0.293578
