19
gdb 73520	2.76868	1.75982	1.40216	1.3337	84.2	-0.2141	-0.019	0.1951	992.3377	0.160465	-385.905049	-385.897498	-385.896554	-385.936548	30.59	
C	-0.0415198177	 1.5871264655	-0.0893102864	-0.424134
C	 0.0027805684	 0.053014681	-0.0142054623	 0.350514
C	 0.8652167437	-0.5299927312	-1.1613174699	-0.332929
C	 2.2139831981	-0.6989311801	-0.4782114681	-0.068266
C	 2.123620009	-0.644889874	 0.8639460433	-0.188685
C	 0.7268538387	-0.4541799017	 1.2209864758	 0.30569
C	-0.1653449335	-0.8305593874	 2.1355111685	-0.287555
C	-1.5458463464	-0.6855679256	 1.524720828	-0.13084
O	-1.3213187455	-0.4607331103	 0.1262551154	-0.317913
H	 0.9666788597	 2.0047609772	-0.1687497736	 0.116518
H	-0.6183606365	 1.8964580922	-0.9663563676	 0.11991
H	-0.5168727585	 2.0033604993	 0.8035630053	 0.11488
H	 0.4659576471	-1.5031389874	-1.4760688	 0.123593
H	 0.9070833527	 0.1110463203	-2.0479206822	 0.1022
H	 3.1256562033	-0.8996723293	-1.0303517582	 0.10065
H	 2.9367605443	-0.804938403	 1.5608424203	 0.103983
H	 0.0115427689	-1.2663883823	 3.1100481308	 0.101659
H	-2.1483306683	-1.5960430668	 1.6375902676	 0.112032
H	-2.1262465574	 0.1446245335	 1.9632572533	 0.098693
