19
gdb 57369	2.09989	1.59785	1.22953	5.0462	75.45	-0.2668	0.0223	0.2891	1105.4321	0.157137	-419.199179	-419.189341	-419.188397	-419.233221	36.763	
C	-0.3068477367	 1.4745726167	-0.1628794528	-0.4339
C	 0.0191516143	-0.0168766574	-0.0063515975	 0.245382
C	 0.8655551928	-0.2817134667	 1.2446039264	-0.421455
O	-1.1919791538	-0.7768614551	 0.0455883589	-0.474474
C	 0.7435995549	-0.5372811587	-1.2661444093	 0.187526
C	 0.6117421176	-1.9703269756	-1.6667391358	-0.27164
N	-0.046078953	-0.9204065628	-2.4520165578	-0.351887
C	 1.9863924828	 0.1464518593	-1.5609041562	 0.273112
N	 2.9877015876	 0.6911057332	-1.7548693741	-0.353866
H	 0.6029272614	 2.0729762581	-0.2583619326	 0.151356
H	-0.9257217564	 1.6413371793	-1.0488531995	 0.133137
H	-0.8532575823	 1.834643538	 0.7162460596	 0.109521
H	 0.3524434309	 0.0960971047	 2.135688064	 0.110183
H	 1.0308564138	-1.3548559735	 1.369518042	 0.129498
H	 1.836161917	 0.2179777229	 1.1793544942	 0.146565
H	-1.7499652706	-0.3986846089	 0.7319536455	 0.289675
H	 1.4457505696	-2.4595126675	-2.1595897325	 0.137442
H	 0.0011088667	-2.5954899085	-1.0244304611	 0.141478
H	-1.0253025066	-0.8795779274	-2.1722574915	 0.252346
