23
gdb 100632	2.40753	1.07535	0.94049	1.7613	87.49	-0.2584	0.0588	0.3172	1392.3805	0.201637	-388.256642	-388.24514	-388.244196	-388.29289	42.612	
C	-0.0928898851	 1.5627814297	-0.0474090042	-0.416957
C	 0.0691568402	 0.0359673202	-0.040201401	 0.042355
C	 0.7242386709	-0.4234247159	-1.3490391352	-0.105313
O	-0.1683128914	-0.0894811657	-2.4064404963	-0.422359
C	 0.7922073436	-0.5134144717	 1.2403860494	 0.046256
C	 0.7492982159	-2.0626885099	 1.2782153863	-0.413623
C	 2.2658156781	-0.0478058769	 1.3348095258	-0.411767
C	 0.0704623647	-0.0324965762	 2.426672563	 0.348433
C	-0.5137947091	 0.3307518553	 3.4132485061	-0.492514
H	 0.8780441254	 2.0699133909	-0.0818419274	 0.106367
H	-0.6537720842	 1.864451237	-0.9340529316	 0.132674
H	-0.6245053121	 1.9085409657	 0.8415166493	 0.126054
H	-0.9354339974	-0.4060828993	-0.0337420684	 0.090341
H	 1.6934649561	 0.0820200081	-1.4834062575	 0.086075
H	 0.9125235426	-1.5057984238	-1.3373786743	 0.084913
H	 0.2595628082	-0.3081899526	-3.239021702	 0.285713
H	 1.3747284223	-2.4983046529	 0.4942588413	 0.113031
H	 1.1191449399	-2.4253331789	 2.2410283773	 0.122797
H	-0.273517611	-2.4285550539	 1.1502278284	 0.123704
H	 2.3446787287	 1.0415023513	 1.3444013783	 0.127071
H	 2.7192031827	-0.4234656322	 2.2561828433	 0.12286
H	 2.8487086019	-0.4311950954	 0.4917499595	 0.11252
H	-1.030676291	 0.6581713971	 4.2811592698	 0.191369
