18
gdb 69731	3.75762	1.62097	1.42975	0.4842	74.4	-0.2302	0.066	0.2962	954.0636	0.148996	-401.854716	-401.847963	-401.847019	-401.885474	28.005	
C	-0.063374384	 1.5051297296	 0.0665854979	-0.501775
C	 0.0815383305	 0.0166663343	-0.0158609162	 0.422946
O	-0.574863127	-0.7907207763	 0.9837625768	-0.293823
C	 0.8583548305	-0.8629153665	 0.8609299886	-0.05335
C	 1.3169514184	-1.9290529979	-0.1177754519	-0.018027
C	 0.1572953011	-2.2608634436	-1.0936947178	-0.058089
C	 1.2342054706	-2.3891239071	-2.178491814	-0.191092
N	 1.7305372499	-1.159425433	-1.4162990445	-0.166895
C	 0.229166181	-0.7321144803	-1.3378735883	-0.067777
H	 0.7218947009	 1.9956011548	-0.5178558731	 0.137935
H	-1.0319978134	 1.826727671	-0.3319974573	 0.128596
H	 0.006328282	 1.842724833	 1.1034652289	 0.133039
H	 1.4389366641	-0.5381208645	 1.7173567592	 0.104795
H	 2.0208879674	-2.6984149942	 0.2012949934	 0.07543
H	-0.728121608	-2.8732790925	-0.9047839601	 0.077227
H	 1.9200854805	-3.2397700391	-2.1280766644	 0.100475
H	 0.9518768694	-2.1769240867	-3.213702803	 0.100075
H	-0.1670372539	-0.2892398311	-2.2532077042	 0.070311
