18
gdb 62477	2.40882	1.5606	1.29264	1.5738	73.75	-0.255	0.0198	0.2749	1065.9472	0.145214	-439.067691	-439.058587	-439.057643	-439.101185	34.19	
C	-0.1652040971	 1.5117291878	 0.015878553	-0.445577
C	-0.0518901248	-0.006048727	 0.0009354502	 0.134849
O	-1.2840404401	-0.6337437719	-0.2825905564	-0.46573
C	 1.1368921063	-0.5683122435	-0.7778983309	 0.400928
N	 1.4437099492	-0.5857489157	-1.9927486565	-0.564845
O	 1.7602350469	-1.0904642003	 0.3342820618	-0.283107
C	 0.6611858075	-0.6657329419	 1.1848713116	 0.459157
C	 0.8721027594	-0.2409720797	 2.5922686959	-0.347384
C	 0.1234114751	-1.5297543473	 2.2611641587	-0.325728
H	 0.7810603486	 1.9794350723	 0.3019480177	 0.129803
H	-0.4358294832	 1.8748940925	-0.9806259408	 0.130938
H	-0.9424474502	 1.8190840056	 0.7218391109	 0.126528
H	-1.4692193488	-0.4963100346	-1.2190031642	 0.293917
H	 2.3133706856	-1.0944455783	-2.160948248	 0.230363
H	 1.8751787668	-0.3364824281	 2.9935142254	 0.131712
H	 0.3117113562	 0.6102635126	 2.9648855065	 0.124848
H	-0.9532329828	-1.5603515937	 2.3862593998	 0.138069
H	 0.6364281955	-2.4661858587	 2.4503429453	 0.131257
