19
gdb 111861	2.30448	1.54183	1.20657	1.921	71.6	-0.2351	0.0691	0.3042	1112.122	0.158212	-460.126006	-460.117035	-460.116091	-460.159672	33.026	
C	 0.2556712464	 1.238997216	 0.2157467047	-0.233798
O	-0.4013643699	 0.1280297623	-0.3633213861	-0.232814
C	 0.3794021477	-0.539867805	-1.2955885517	 0.052834
C	 1.3898523397	-1.6154575913	-0.9170831628	-0.178758
C	 1.3002684206	-2.2455571446	 0.4601965393	-0.08597
O	-0.0635916789	-2.6007570113	 0.6644125947	-0.250168
C	-0.7023736902	-2.7765049586	-0.5889707704	-0.132446
C	 0.0931755518	-1.9731673779	-1.6129651042	 0.291924
O	 0.0908874009	-2.4200292206	-2.9333578223	-0.464339
H	 1.180917925	 0.9436902476	 0.7290879983	 0.112622
H	 0.5070838207	 1.9974024783	-0.5415962061	 0.105556
H	-0.4334816526	 1.6765525049	 0.941242946	 0.131086
H	 0.68014698	 0.065572002	-2.1545201058	 0.086445
H	 2.33170599	-1.6445042295	-1.4527702459	 0.100944
H	 1.9551458533	-3.1312058491	 0.4982378627	 0.095932
H	 1.5850900993	-1.5800285638	 1.2823703088	 0.107923
H	-0.6945430919	-3.8284648965	-0.9162084939	 0.096877
H	-1.7414869004	-2.4490544305	-0.4751358449	 0.108902
H	-0.7005231515	-2.0783009823	-3.3638157104	 0.287248
