22
gdb 15675	2.78887	1.67213	1.10837	0.256	84.53	-0.2235	0.0362	0.2596	1148.2846	0.200694	-313.099791	-313.090942	-313.089998	-313.133002	33.359	
C	-1.5933832225	-0.3382837228	 0.2395586446	-0.382253
C	-0.1243082444	 0.0750699826	 0.1058774939	-0.185776
C	 0.7409877604	-0.3464115026	 1.3039931388	-0.048605
C	 0.841438897	-1.883151901	 1.5002044752	-0.213947
C	 2.2714587274	-2.149026269	 2.0293361401	-0.258775
C	 3.0151422321	-0.9041024705	 1.6161214002	-0.172781
C	 2.2025255984	 0.0795281455	 1.2245196699	 0.336118
C	 2.6078575436	 1.4637687285	 0.8213087553	-0.497941
H	-2.0441556408	 0.0972944648	 1.1387381517	 0.111787
H	-2.1794415379	-0.0032346175	-0.6219770863	 0.109331
H	-1.7004687651	-1.4255111314	 0.3107343387	 0.118455
H	 0.3008053535	-0.3583403602	-0.8097351448	 0.092443
H	-0.0704926922	 1.1639936246	-0.0161536774	 0.092175
H	 0.2979112051	 0.1167204012	 2.2025247295	 0.066935
H	 0.0635476125	-2.2819620873	 2.1562953234	 0.093368
H	 0.7211477123	-2.37011887	 0.5249343761	 0.097657
H	 2.2860586713	-2.2653434152	 3.123048597	 0.100245
H	 2.7055040126	-3.0693253024	 1.6212856391	 0.097222
H	 4.0951084592	-0.8166789243	 1.6856437819	 0.078661
H	 3.6902722138	 1.6001872727	 0.8958007761	 0.119262
H	 2.309510462	 1.6921048305	-0.2091425539	 0.125888
H	 2.1268561617	 2.2192656238	 1.4569292309	 0.120529
