23
gdb 83270	3.01314	1.20487	1.08558	1.2965	85.56	-0.2378	0.0818	0.3196	1264.8551	0.207017	-388.285858	-388.276839	-388.275895	-388.319419	35.06	
C	-0.726940211	 1.2663708484	 0.3155134984	-0.407506
C	-0.0788323067	-0.0851565726	 0.1173264368	-0.048088
C	 0.6453726272	-0.4944882778	-1.1538660379	-0.084117
C	 1.0074553623	 0.4794952885	-2.2650118608	-0.22616
C	 2.5427494884	 0.5963349612	-2.3319331736	 0.025287
C	 3.024813646	 1.5297860686	-3.445263196	-0.410996
C	 3.0972387162	 1.0433412018	-0.9537273477	-0.069033
O	 2.1628869685	 0.9289983983	 0.1210258169	-0.253444
C	 1.4195131945	-0.2520073023	 0.1214531872	 0.077095
H	-0.0583602566	 2.0752107387	 0.01610014	 0.13236
H	-1.6576453367	 1.3507860215	-0.2562266557	 0.110673
H	-0.9698551478	 1.4203570648	 1.3723376297	 0.115467
H	-0.6130842016	-0.905931571	 0.5899356494	 0.080838
H	 0.5181115725	-1.5266592926	-1.4676922853	 0.080508
H	 0.6208757091	 0.1272873599	-3.2269429574	 0.094698
H	 0.565755048	 1.4673206152	-2.0963986382	 0.102313
H	 2.9246519602	-0.410770485	-2.5448219003	 0.072582
H	 2.6269192162	 2.5419383523	-3.3068175789	 0.116187
H	 4.1180666326	 1.602500114	-3.4624814012	 0.112995
H	 2.7007556356	 1.1738619932	-4.4290082272	 0.112385
H	 4.0155919251	 0.4857999821	-0.7140816324	 0.08889
H	 3.3567515795	 2.1073458176	-0.978414712	 0.101804
H	 1.8747226987	-1.078440725	 0.6679643961	 0.075262
