19
gdb 48628	3.38891	1.3386	1.1774	1.7375	75.21	-0.2435	-0.0266	0.2169	1082.6492	0.160424	-423.021399	-423.013659	-423.012715	-423.053792	30.171	
O	-0.1663479934	 0.0283187256	-0.2836523191	-0.2535
C	 0.0062344363	 1.1473130444	 0.131686894	 0.065066
C	 1.3084560291	 1.8877712244	 0.0711935493	 0.237185
C	 2.5770022088	 1.1652848085	-0.4625632672	-0.297203
C	 2.9918924451	 2.5578701408	-1.0079996543	 0.124197
C	 1.482033733	 2.8904149297	-1.129467088	-0.270122
O	 3.5856217501	 3.3823418348	-0.0143295808	-0.27392
C	 3.1216813174	 3.1118735841	 1.3056237071	-0.07072
C	 1.6427850227	 2.6667904035	 1.3601776876	-0.294911
H	-0.837538941	 1.7268835935	 0.5768521048	 0.069508
H	 3.2355640636	 0.6595982775	 0.2461310131	 0.106066
H	 2.3158047591	 0.4777857274	-1.2686540832	 0.123761
H	 3.6270540927	 2.6289336252	-1.8922697006	 0.082381
H	 1.0414608756	 2.4990927251	-2.0498181675	 0.112927
H	 1.1900140766	 3.931362746	-0.9734142025	 0.10408
H	 3.7473301306	 2.3293095422	 1.7569278517	 0.102793
H	 3.2821102735	 4.0261321133	 1.88356704	 0.112995
H	 0.9690132854	 3.5262289151	 1.4524588305	 0.110081
H	 1.497949665	 2.0433150089	 2.250427375	 0.109337
