18
gdb 80171	2.35468	1.68185	1.38547	3.4084	70.93	-0.2418	0.0227	0.2645	1008.4282	0.148274	-439.110767	-439.102367	-439.101423	-439.143573	32.167	
C	-0.2623066808	 1.5701166966	 0.0189215733	-0.400152
C	 0.0189058465	 0.0644554013	-0.0363061872	-0.116804
C	 0.798441723	-0.4480214768	-1.2406219432	-0.121145
C	 2.2599176541	-0.0731244892	-1.4221575415	 0.113562
O	 2.8550591506	 0.9849481015	-0.7383838397	-0.423836
C	 1.9000258287	-1.356734317	-0.7114525303	-0.095052
N	 1.8253491917	-1.2477866079	 0.7173159242	-0.319206
C	 0.8287194993	-0.4161229934	 1.1848380561	 0.377679
O	 0.6508010626	-0.1132776241	 2.342185975	-0.371449
H	 0.6612881545	 2.1381044904	-0.1081760087	 0.142946
H	-0.9591781397	 1.8626417289	-0.771761407	 0.11045
H	-0.703391233	 1.8240453703	 0.9864616184	 0.136483
H	-0.9375582864	-0.4731962692	 0.0125819717	 0.107529
H	 0.2464726555	-0.7323025317	-2.1288606184	 0.096464
H	 2.6433439974	-0.1667064073	-2.4346271887	 0.108721
H	 3.0525563984	 0.6874567877	 0.1583268036	 0.292604
H	 2.1265160776	-2.3360075138	-1.1176874481	 0.105735
H	 2.49737268	-1.6541436565	 1.3491329106	 0.25547
