17
gdb 19879	3.35187	2.26538	2.02071	1.7736	66.82	-0.2151	0.0652	0.2803	762.4541	0.143098	-363.808618	-363.801836	-363.800891	-363.839391	26.487	
C	-0.3261418513	 1.5394772507	-0.0163352859	-0.311021
N	 0.0712909812	 0.1407232536	 0.0710905797	-0.081709
C	 1.3480358273	-0.4051291959	-0.3254944946	-0.042784
C	 2.6329301208	 0.4394523537	-0.3481077214	-0.278798
C	 2.9208956593	 0.8238146146	 1.1007090874	 0.038845
O	 1.9525885882	 1.6861036298	 1.7077127152	-0.248547
C	 1.8577841561	 0.278019483	 1.9617103561	 0.027253
C	 0.8655949319	-0.4899192254	 1.1054433626	-0.064284
H	 0.4921481525	 2.2631024241	 0.0010198377	 0.12674
H	-0.8987564311	 1.6635710026	-0.9424774818	 0.111603
H	-0.9917868355	 1.7687106083	 0.8207769612	 0.12363
H	 1.3010106896	-1.2438980171	-1.0183174412	 0.088672
H	 3.4548488473	-0.1764193133	-0.729473465	 0.110168
H	 2.563684565	 1.3197196817	-0.9969218798	 0.120371
H	 3.9443458958	 0.9865498351	 1.432166559	 0.097389
H	 2.0143120315	-0.0214325849	 2.9946246122	 0.096539
H	 0.4422244811	-1.3912452706	 1.5436932485	 0.085932
