18
gdb 31150	2.13861	1.67819	0.95719	1.0968	75.76	-0.1758	0.038	0.2137	1214.8027	0.146474	-439.101161	-439.091524	-439.090579	-439.135934	34.646	
C	 0.147306857	 1.4520616265	-0.3196107506	-0.316671
N	-0.2225304739	 0.1628325508	 0.2511094246	-0.404326
C	 0.5585623291	-0.3565043283	 1.2907280234	 0.062155
C	 1.8403277978	-0.0694157813	 1.6604104482	 0.290306
O	 2.7307846101	 0.8583776575	 1.238572009	-0.424174
O	 2.2393561629	-0.8713167053	 2.6949926798	-0.177491
C	 1.1861944126	-1.6851109082	 2.9822009589	-0.116423
C	 0.1297893568	-1.4216177684	 2.1721357394	 0.19946
C	-1.2075621921	-2.0901638872	 2.1552531675	-0.517519
H	 1.1333537135	 1.382862211	-0.7835744773	 0.135459
H	-0.578180675	 1.7123690637	-1.0948249752	 0.114116
H	 0.18636774	 2.2682537976	 0.4185006947	 0.112449
H	-1.2048866512	 0.131985189	 0.4896005529	 0.229047
H	 3.5147249848	 0.4134835302	 0.8923413082	 0.302697
H	 1.3392497809	-2.393493895	 3.7796402959	 0.128575
H	-2.0200801584	-1.3883720625	 2.3858042632	 0.121496
H	-1.4275763568	-2.5237802369	 1.1724377778	 0.133593
H	-1.253669778	-2.8942447231	 2.8946666895	 0.127249
