22
gdb 87968	2.70637	1.34651	1.10946	2.0156	82.08	-0.2301	0.081	0.311	1204.358	0.193958	-404.325673	-404.316489	-404.315545	-404.359914	34.98	
C	 0.9308013808	 1.2188059506	-0.2920719029	-0.400194
C	-0.0894916415	 0.109955121	-0.0261376801	 0.12622
C	-0.1373349838	-0.9653124197	-1.1267253701	-0.318705
C	 0.936194768	-1.9510115791	-0.6676389957	 0.312965
C	 1.1441534431	-3.2872387797	-1.2867062436	-0.312899
N	 2.1660597066	-2.2502547431	-1.4064544711	-0.11328
C	 2.3780583893	-1.6835197035	-2.7281206916	-0.318484
C	 1.0937901289	-1.6940229291	 0.8371438993	-0.132977
O	 0.2223171442	-0.6173745369	 1.1643706571	-0.269049
H	 1.923315917	 0.8061922971	-0.5028082499	 0.125741
H	 0.6265152771	 1.8282551603	-1.1498253466	 0.110003
H	 1.0125926357	 1.8699479217	 0.5825806354	 0.12523
H	-1.0741660305	 0.5589343059	 0.1412318829	 0.077909
H	-1.1182463832	-1.4510152477	-1.1299037415	 0.109686
H	 0.0388340394	-0.5609551551	-2.1259782813	 0.1047
H	 1.4028543781	-4.1486956583	-0.6742205679	 0.112027
H	 0.5546390972	-3.5242100504	-2.173448836	 0.103219
H	 1.4772880472	-1.6626321965	-3.3628694902	 0.100622
H	 2.7558790915	-0.6599106538	-2.6349910499	 0.122871
H	 3.1378612484	-2.2780761746	-3.2454418196	 0.12553
H	 0.8001034449	-2.5558734732	 1.4469032937	 0.103634
H	 2.1417505017	-1.4535464559	 1.0613729297	 0.10523
