10
gdb 4223	5.49724	1.37233	1.37232	3.2346	43.99	-0.292	0.0148	0.3068	876.5804	0.061589	-453.655583	-453.648296	-453.647351	-453.689181	23.69	
C	-0.0179363821	 1.4777919489	 0.0101053091	-0.507043
C	 0.0008836658	 0.0250951334	 0.0024671994	 0.127547
C	 0.0172206704	-1.1757795758	-0.0039239741	-0.16368
C	 0.0377025013	-2.6329145978	-0.0124446201	 0.264235
F	-1.2031326229	-3.1421257915	-0.0039000778	-0.072877
F	 0.6586915862	-3.1093987123	-1.1016491483	-0.07277
F	 0.6784802617	-3.1214201279	 1.0598068595	-0.072817
H	 0.9999087172	 1.8808147075	 0.0018469802	 0.165817
H	-0.5434553155	 1.8654014667	-0.8685733921	 0.165796
H	-0.5254009619	 1.8562149588	 0.9032785443	 0.165791
