11
gdb 747	9.5155	3.65372	2.68514	5.9568	46.86	-0.2491	0.0168	0.2659	471.1624	0.086813	-281.482892	-281.477525	-281.476581	-281.512576	17.816	
C	-0.0060680171	 1.4719903883	 0.0099948685	-0.341842
N	-0.0153796579	 0.0207113722	 0.0022106764	-0.004205
C	 0.0029812416	-0.8168443072	-1.0771018603	 0.02144
N	 0.0360765087	-2.0691655086	-0.6999275051	-0.219333
N	 0.0444115096	-2.076616309	 0.681102765	-0.219358
C	 0.0159555718	-0.8284421989	 1.0721210244	 0.021448
H	 1.0154872075	 1.8647885758	 0.0024712788	 0.153725
H	-0.5355471404	 1.8458856785	-0.8686586837	 0.154508
H	-0.5186266024	 1.8359870654	 0.9027020663	 0.154504
H	-0.0142320314	-0.4606495748	-2.0958644126	 0.139552
H	 0.0110632298	-0.4832215318	 2.0947879124	 0.13956
