17
gdb 123549	4.06921	1.59085	1.38335	1.8758	78.26	-0.2159	0.0339	0.2497	942.7303	0.141022	-380.850308	-380.8441	-380.843156	-380.880625	26.088	
C	-0.0471977647	 1.5669524702	-0.0568823165	-0.214043
C	 1.5177524863	 1.3985453151	 0.0265465133	-0.18589
C	 1.1925614838	 0.1642048692	 0.9512285211	-0.214037
C	-0.031668752	-0.0092911069	-0.0269500428	-0.154532
C	 0.7200683728	-0.2682643558	-1.3117466862	 0.379796
N	 0.7230174929	-1.0339564693	-2.3805164995	-0.37093
N	 1.8080065926	-0.5692211844	-3.0687462653	-0.202109
C	 2.4642704247	 0.4635154915	-2.4382139981	-0.286654
C	 1.7708601451	 0.6815098828	-1.2823750429	 0.305877
H	-0.4717150375	 1.9966481072	 0.8551983628	 0.096723
H	-0.458258668	 2.0536087451	-0.944105586	 0.102619
H	 2.1686476323	 2.2075384128	 0.3517845044	 0.069034
H	 1.9259387785	-0.6440325644	 0.9946088656	 0.102621
H	 0.882985329	 0.4638510286	 1.95677171	 0.096709
H	-0.9082923179	-0.5989462134	 0.2306374414	 0.078019
H	 2.0406066271	-0.994841711	-3.9484630074	 0.26769
H	 3.3371620749	 0.9156329925	-2.8823170441	 0.129105
