19
gdb 23180	2.2631	1.59667	1.03698	1.4375	79.26	-0.2263	-0.0007	0.2256	1168.5205	0.160564	-419.160594	-419.152264	-419.151319	-419.193517	32.246	
O	-0.0920208103	 1.2908427429	 0.1847313157	-0.393051
N	 0.0156021044	-0.1101515204	 0.1882199235	-0.255227
C	-1.1124407954	-0.668416374	-0.0005125231	 0.358088
C	-2.4745502737	-0.0394954444	-0.1751928982	-0.307633
C	-3.3917715155	-1.2303244183	-0.5368313836	-0.224975
C	-2.7258865752	-2.4505078879	 0.1334421192	-0.294572
C	-1.2385654543	-2.1589928592	-0.0155129368	 0.296106
C	-0.304231684	-2.9734960781	-0.850025603	-0.277616
N	-0.232682351	-3.0130061349	 0.6161562477	-0.373829
H	 0.8175929341	 1.5674238592	 0.3386058864	 0.306413
H	-2.7732701758	 0.4280752944	 0.7718856297	 0.130013
H	-2.4603326901	 0.7592630223	-0.921259672	 0.129511
H	-4.4249681448	-1.0797678599	-0.2157834987	 0.103174
H	-3.4041261211	-1.3676590574	-1.6237014347	 0.108007
H	-2.9814678726	-2.4907340392	 1.1994302012	 0.11087
H	-3.0185519029	-3.4041693703	-0.3115016428	 0.10607
H	-0.6651181612	-3.8866889501	-1.3173567463	 0.115963
H	 0.4693975768	-2.4405428387	-1.3956366462	 0.12159
H	 0.5329937027	-2.417743906	 0.9300226721	 0.241099
