18
gdb 53266	3.67264	0.84976	0.75571	1.8062	82.89	-0.2369	0.0326	0.2695	1541.4599	0.146246	-401.86887	-401.85955	-401.858606	-401.9046	32.682	
C	 0.0787506941	 1.5007524525	 0.0414023311	-0.500148
C	 0.0469861581	 0.045961203	 0.0324176368	 0.094275
C	 0.0244325924	-1.1585508274	 0.039587835	 0.134108
C	-0.012910838	-2.5932562048	 0.0076174645	-0.339392
N	-0.5734793804	-3.3017639217	 1.198406875	-0.360265
C	-1.2953623484	-3.3457757499	-0.053680832	 0.291847
C	-2.7131262789	-2.843590289	-0.2822526293	-0.133186
O	-2.9738632183	-3.9616124736	-1.1677033132	-0.275651
C	-1.674006466	-4.5375747408	-0.9288947587	-0.146893
H	 1.1074422203	 1.8756104229	 0.0802737966	 0.150585
H	-0.3935337171	 1.9171581189	-0.8552335147	 0.149602
H	-0.4525330702	 1.8997995088	 0.9123952057	 0.153804
H	 0.8331782014	-3.0684084677	-0.4869990951	 0.108603
H	-0.061505882	-4.1692961118	 1.3490336577	 0.234692
H	-3.3544332236	-2.8583774548	 0.6071869994	 0.111688
H	-2.8066072223	-1.8780801224	-0.7922544493	 0.115466
H	-1.0997043919	-4.6733446973	-1.8541747029	 0.108447
H	-1.7381558689	-5.4990203048	-0.3989134567	 0.102418
