21
gdb 92963	2.70975	1.29778	1.10042	2.7066	83.47	-0.2344	-0.009	0.2254	1211.1136	0.181525	-387.127101	-387.117701	-387.116757	-387.16157	34.974	
C	-0.4668297108	 1.4169489123	 0.0851950531	-0.393441
C	-0.1749135443	-0.0883417896	 0.1450586044	-0.005204
C	 0.4536301381	-0.5773448597	-1.1912088919	-0.261621
C	 1.9364786509	-0.5572990886	-0.9093154619	-0.084334
C	 2.1925423161	-0.4767804551	 0.3937275853	-0.044829
C	 0.9226449268	-0.4592809093	 1.211828332	-0.137813
C	 0.9560433188	 0.4625103458	 2.4260154928	 0.372289
C	-0.1136927741	 0.2270693552	 3.4795323633	-0.478559
O	 1.7967961235	 1.3235908485	 2.5531936872	-0.305656
H	 0.448711663	 1.9858817924	-0.1030468168	 0.139666
H	-1.1750342695	 1.6309087318	-0.7215117872	 0.110425
H	-0.9050651072	 1.7909992336	 1.0156801041	 0.114778
H	-1.1060200165	-0.6221203251	 0.3582910801	 0.06935
H	 0.1192057054	-1.5928073478	-1.4474698002	 0.102951
H	 0.1667340647	 0.0635817677	-2.0334259793	 0.101883
H	 2.6838800484	-0.6291400743	-1.691666841	 0.094284
H	 3.1721617202	-0.453003195	 0.854005585	 0.104716
H	 0.7045311485	-1.4723997335	 1.5868739926	 0.085178
H	 0.1034945601	-0.7060832906	 4.0137150918	 0.140946
H	-0.123281585	 1.0513813488	 4.1936797971	 0.140578
H	-1.1025335473	 0.1074553827	 3.0245306195	 0.134411
