21
gdb 109311	2.19211	1.606	1.08274	1.7126	85.35	-0.2313	0.0167	0.248	1201.8623	0.182646	-387.094483	-387.085577	-387.084633	-387.128383	33.805	
C	-0.3103129135	 1.4453822105	-0.0416326399	-0.37567
C	 0.0707709648	-0.0461120052	 0.0132912015	-0.302317
C	 0.7724069937	-0.5228742632	-1.22574576	 0.263383
C	 2.0688109726	-0.8208474349	-1.3567661464	-0.181099
C	 2.4492397173	-1.2652703241	-2.7481906294	-0.265877
C	 1.1720458597	-0.9795677217	-3.5772952548	-0.309401
C	 0.0773819159	-0.7364556832	-2.535964052	 0.380332
C	-1.2943542475	-1.2608226904	-2.6618987774	-0.255685
O	-1.0180774774	 0.1199493205	-2.9061248853	-0.278041
H	 0.5841691151	 2.0678590109	-0.1445140677	 0.113964
H	-0.9615301528	 1.6440607254	-0.8951892265	 0.146991
H	-0.8294269836	 1.7446555541	 0.8744238308	 0.106237
H	 0.7160049412	-0.2303995616	 0.8795042828	 0.101408
H	-0.8386388089	-0.6394933983	 0.1761938438	 0.100729
H	 2.7885658266	-0.7826075637	-0.5451627316	 0.089766
H	 3.328138155	-0.7346077715	-3.1319018282	 0.107305
H	 2.7089715298	-2.3323333181	-2.7607506553	 0.109277
H	 1.2890119806	-0.0633334189	-4.1644237795	 0.123154
H	 0.9223008305	-1.7838483093	-4.2733329167	 0.103444
H	-1.5568515793	-1.848100118	-3.5419989804	 0.110654
H	-1.89390051	-1.4701532893	-1.7768466279	 0.111446
