18
gdb 66493	3.63552	1.83996	1.69178	0.8411	80.08	-0.1926	-0.0872	0.1054	874.1059	0.148111	-364.64323	-364.636346	-364.635402	-364.673865	28.766	
C	-0.0087184649	 1.5632901418	-0.0862476914	-0.52456
C	 0.0113905827	 0.0730503514	 0.0634094078	 0.346285
C	 0.4370796307	-1.0228348133	-0.8672678873	-0.082415
C	 1.1878210736	-0.8118022148	 0.4341846179	-0.144932
C	 0.615457206	-1.8953980889	 1.3586185768	 0.009219
C	-0.580925076	-1.4672167119	 1.8999345109	-0.144317
C	-1.0821842916	-0.8271194145	 0.6343592887	-0.076495
N	-0.6271940206	-1.9891211006	-0.4675933215	-0.170775
C	 0.1410371255	-3.0016170795	 0.3948878632	-0.18794
H	 0.9115426911	 1.918815049	-0.5611472325	 0.123058
H	-0.8508498348	 1.8938445364	-0.7044052561	 0.12402
H	-0.0902064339	 2.0580897443	 0.8878563181	 0.128077
H	 0.8636838823	-1.0031101391	-1.8635430324	 0.088528
H	 2.2041830064	-0.4462091666	 0.4939312195	 0.087911
H	-1.2259782762	-2.1698906366	 2.4242373978	 0.104949
H	-2.1344266053	-0.5716949613	 0.5239084256	 0.088826
H	 0.9065664957	-3.4717714278	-0.2275609641	 0.113852
H	-0.5208618707	-3.747003798	 0.833481059	 0.116709
