18
gdb 37938	2.82434	1.95858	1.44069	2.2841	74.92	-0.2317	0.0188	0.2505	926.1004	0.151503	-401.917617	-401.911005	-401.910061	-401.948356	27.272	
C	-0.0115434449	 1.4881266613	-0.1725477677	-0.267535
C	 1.5114678154	 1.5593473207	-0.0406708607	-0.06918
C	 1.9593519812	 1.0239136279	 1.3025398245	-0.043275
C	 1.1367382093	 1.1593308156	 2.5655468753	-0.11411
O	 0.5769641722	-0.0717424139	 3.0590325965	-0.222554
C	-0.4215833402	-0.6705968378	 2.3577714457	 0.123103
N	-0.7223818861	-0.6769760916	 1.1313535609	-0.269141
C	 0.0680904305	-0.0659723656	 0.0874054328	 0.033883
C	 1.596037692	 0.0554026689	 0.2156590239	-0.092944
H	-0.6047403304	 2.068484204	 0.5400256323	 0.101933
H	-0.3666446614	 1.7129913484	-1.1799552042	 0.109648
H	 2.1644565543	 2.1794212451	-0.6427276699	 0.08843
H	 3.0327849472	 1.0982620309	 1.4529553265	 0.094462
H	 1.7595130499	 1.5163010955	 3.388820036	 0.117813
H	 0.3180657829	 1.8767354796	 2.4387800188	 0.11446
H	-1.027730523	-1.2543634059	 3.0524703854	 0.116471
H	-0.1857932886	-0.5839822104	-0.8409662125	 0.090416
H	 2.3077238098	-0.6697202027	-0.1602724137	 0.088121
