19
gdb 55469	3.33618	1.10794	0.96991	2.2452	72.48	-0.2079	0.0203	0.2283	1253.1068	0.1615	-456.369689	-456.361025	-456.360081	-456.403415	32.685	
N	 0.0242298167	 1.2947050053	 0.1637670877	-0.525372
C	 0.039360813	-0.0586582043	 0.0091121855	 0.40763
O	 1.0572445927	-0.6875822434	-0.2159637549	-0.369667
C	-1.3267325128	-0.7426564238	 0.043512744	-0.076476
C	-1.8610928648	-0.8597336748	-1.4042601704	-0.08147
O	-3.0371563759	-1.6431934744	-1.4494375337	-0.247309
C	-2.8037035656	-2.9599738015	-0.9671209591	-0.074499
C	-2.3266510907	-2.9169617084	 0.4852791065	-0.162577
N	-1.1697414992	-2.0447886275	 0.6842183173	-0.30352
H	 0.9088532409	 1.7771140052	 0.1775134655	 0.263256
H	-0.7870465408	 1.7755281681	 0.5114403634	 0.262772
H	-2.0473070649	-0.1499253906	 0.6243389121	 0.074474
H	-2.1222046621	 0.1216601149	-1.8127835834	 0.104395
H	-1.0730506218	-1.3059077277	-2.0336854294	 0.099762
H	-3.7523605638	-3.4975394219	-1.0633756211	 0.104125
H	-2.0518499272	-3.4635416435	-1.5992583918	 0.084811
H	-3.1498342176	-2.5477216431	 1.1119040076	 0.105477
H	-2.0735807355	-3.9226081545	 0.8372605881	 0.103334
H	-0.3154727208	-2.461730794	 0.3234972062	 0.230856
