24
gdb 9424	3.29253	0.93576	0.77372	0.8826	83.09	-0.246	0.0879	0.3338	1592.9635	0.220823	-351.416749	-351.40587	-351.404926	-351.45338	38.319	
C	-0.0076025123	 1.5124566555	 0.0873371278	-0.382441
C	-0.0770181123	-0.0036331659	-0.1099837552	-0.17963
C	 0.8342922707	-0.4885468771	-1.2306051632	-0.038277
O	 0.7028654447	-1.889802339	-1.3412201846	-0.259846
C	 1.3917508923	-2.4888183774	-2.4334827363	 0.158853
C	 2.8909168934	-2.6237828956	-2.1502753346	-0.402729
C	 0.7319660064	-3.8472619351	-2.6821218768	-0.171274
C	-0.7439853681	-3.7443608311	-3.0720041562	-0.384833
H	 1.0075786621	 1.8368256952	 0.3418655544	 0.115311
H	-0.3075847749	 2.0478424067	-0.8204393553	 0.115199
H	-0.6701724837	 1.8348597629	 0.895739485	 0.116313
H	 0.2042334361	-0.5208884337	 0.8145449031	 0.1055
H	-1.1036159142	-0.3117484853	-0.3392376209	 0.104297
H	 0.5586856778	-0.003185753	-2.1833627801	 0.080114
H	 1.8761004643	-0.1994116878	-1.014590219	 0.083212
H	 1.2519129047	-1.8581713249	-3.3296590787	 0.057405
H	 3.4026347961	-3.0841465665	-3.0015907238	 0.112026
H	 3.3580807875	-1.6515014207	-1.9699074762	 0.114175
H	 3.0545035746	-3.2506993164	-1.2677229792	 0.120612
H	 1.2956060212	-4.3665729524	-3.4665402934	 0.090297
H	 0.8368907059	-4.4471135961	-1.7693163864	 0.101507
H	-1.3068092008	-3.2169408169	-2.298182275	 0.130648
H	-0.8677401842	-3.1947382244	-4.0122729823	 0.106477
H	-1.1876823773	-4.735612441	-3.2060614732	 0.107084
