13
gdb 9443	2.94213	1.78037	1.68644	4.482	58.37	-0.2968	-0.024	0.2728	835.4787	0.095054	-398.634375	-398.626907	-398.625962	-398.666268	26.247	
C	-0.1179700758	 1.559556358	 0.0859430917	-0.446108
C	-0.0369263029	 0.0303968201	-0.015027209	-0.069294
C	 0.8347802622	-0.5519402824	-1.1604984992	-0.102446
O	 1.8124380492	-1.0364945761	-0.1884091239	-0.231551
C	 1.0836212882	-0.5883680496	 0.874792824	 0.46233
O	 1.3274151354	-0.6596119622	 2.0304589947	-0.304216
C	-1.3406980295	-0.5979217699	 0.1423718574	 0.258294
N	-2.3790931959	-1.0923867522	 0.2554734039	-0.320369
H	 0.8748136534	 1.9980380432	-0.0459027848	 0.142569
H	-0.7874502997	 1.9599617575	-0.6793527204	 0.149984
H	-0.4975809038	 1.8489711429	 1.0683080885	 0.166369
H	 0.3987991684	-1.3791671689	-1.7208134753	 0.153994
H	 1.2809162007	 0.1886258896	-1.8262014777	 0.140444
