16
gdb 20399	4.66275	2.01167	1.45415	1.9435	70.23	-0.2274	0.0229	0.2502	839.3617	0.135215	-342.816915	-342.810749	-342.809805	-342.847045	24.459	
C	 0.112808757	 1.4146567653	-0.3455351182	-0.199
C	 1.4127858757	 2.033196036	 0.2702765052	-0.356864
C	 2.1653586768	 0.8061376541	 0.6927309753	 0.246278
C	 3.3890256263	 0.3398141594	 1.1123916354	-0.223154
N	 3.2111492184	-0.9951464435	 1.3384171708	-0.184214
N	 1.9513395138	-1.4312942838	 1.0915549727	-0.335434
C	 1.3298771624	-0.3274952361	 0.7033647449	 0.337788
C	-0.0751930617	 0.001871762	 0.2923192423	-0.335595
H	-0.7599720471	 2.0573843431	-0.2050592585	 0.097165
H	 0.2578723725	 1.2975906335	-1.4243205882	 0.10956
H	 1.941085693	 2.6639831474	-0.4514185895	 0.106428
H	 1.1732967539	 2.671978929	 1.1306672929	 0.108968
H	 4.3487345599	 0.8079646646	 1.2658585772	 0.129495
H	 3.9058529173	-1.6626137585	 1.6267633958	 0.269825
H	-0.739191204	 0.0443195466	 1.1651928727	 0.113381
H	-0.5131191541	-0.7160367091	-0.4067088905	 0.115372
