18
gdb 7073	6.38615	0.85495	0.80059	2.2213	74.83	-0.2523	-0.0255	0.2268	1387.8874	0.150053	-347.786087	-347.77656	-347.775616	-347.821021	33.451	
C	-0.0670811531	 1.6475283624	-0.0320107317	-0.392857
C	-0.0086255443	 0.1161265987	 0.0142204506	 0.014002
C	 0.7422425525	-0.3835478126	 1.2648110075	-0.279887
C	 2.2061209134	-0.0038998158	 1.24799836	 0.157626
O	 2.7877266405	 0.5621400951	 2.1366015222	-0.239171
C	-1.4230862125	-0.5128809449	-0.034880062	-0.362409
C	-2.1575000845	-0.2001157232	-1.2546526793	 0.296587
C	-2.7433678926	 0.0608371224	-2.2714805799	-0.433333
H	 0.9361317834	 2.0848125468	-0.042812679	 0.125162
H	-0.5982584684	 1.9886513374	-0.9240274669	 0.135895
H	-0.5894395114	 2.0431791398	 0.8470077689	 0.1203
H	 0.5337892574	-0.2385756701	-0.8726903425	 0.092105
H	 0.2913515007	-0.0012435698	 2.186434274	 0.120547
H	 0.7000424343	-1.4826690482	 1.2968262778	 0.116366
H	 2.7403240888	-0.302655161	 0.3140745006	 0.072006
H	-1.3374764498	-1.6026709136	 0.0638492707	 0.127994
H	-1.9981391304	-0.1720786508	 0.8369829326	 0.131997
H	-3.2718515739	 0.2864327675	-3.1643869135	 0.19707
