25
gdb 117653	2.56475	0.89917	0.811	2.6149	84.89	-0.2588	0.0674	0.3262	1575.4246	0.225652	-426.624344	-426.612545	-426.611601	-426.660818	43.787	
C	 0.1965471208	 1.484128496	-0.0607353836	-0.434456
C	-0.0462330312	-0.0212827154	 0.0774783474	 0.135143
O	 0.6190454239	-0.5179740018	 1.2394784368	-0.438732
C	-1.5400331543	-0.4792639881	 0.0331261339	 0.24888
C	-2.2911694442	 0.0117929559	 1.2858273921	-0.440832
C	-2.2129690339	 0.0894293269	-1.2310406978	-0.426874
C	-1.5181541643	-2.0281097506	-0.0259000105	-0.181083
C	-2.8540579657	-2.746488797	 0.1380767928	-0.103601
O	-2.609521087	-4.1291359378	-0.0923182885	-0.419564
H	 1.2694703786	 1.6784803597	 0.0212593648	 0.12544
H	-0.1463171363	 1.8711009666	-1.0232777867	 0.122299
H	-0.3082446732	 2.0534524231	 0.7287423232	 0.109341
H	 0.4620119196	-0.5239769779	-0.7555292586	 0.084535
H	 0.3451821963	 0.0233631451	 1.9871466804	 0.277933
H	-2.2382841746	 1.1009018912	 1.3870458779	 0.108617
H	-3.352487677	-0.2488915785	 1.2368685076	 0.117815
H	-1.8867210338	-0.4382927651	 2.1986895281	 0.11169
H	-1.627662861	-0.1430066799	-2.1281580688	 0.11245
H	-3.2115525085	-0.3345325883	-1.3721603507	 0.113012
H	-2.3298940629	 1.1757523859	-1.1764704202	 0.111733
H	-1.0980694628	-2.3395071228	-0.9909174084	 0.096842
H	-0.8353813784	-2.3979850073	 0.7443358495	 0.121837
H	-3.2563155938	-2.5859666956	 1.1497885875	 0.084104
H	-3.6008879865	-2.3610282572	-0.5743221019	 0.080696
H	-3.43315253	-4.6050950472	 0.0477361634	 0.282773
