20
gdb 88617	3.68959	1.13257	1.03363	1.3268	78.79	-0.2245	0.0761	0.3006	1219.7239	0.170726	-403.031792	-403.02368	-403.022736	-403.064859	31.487	
C	 3.1592415357	-1.3427675082	 1.1231483335	-0.31627
N	 1.8563494193	-1.3132353389	 0.473458227	-0.08701
C	 0.7463810061	-1.9236930569	 1.190437006	-0.249558
C	 0.8156440276	-0.4396435519	 1.0307327554	-0.049521
C	 1.0894859283	 0.5035430851	 2.1806198935	 0.015218
C	-0.0489074819	 1.3632561901	 2.803072502	 0.021722
C	-0.6302176417	 0.1176043058	 3.5116638071	-0.229176
C	 0.9082207058	 0.1427157051	 3.6873526894	 0.034196
O	 0.8195941804	 1.5907037469	 3.9810962293	-0.309322
H	 3.1230960311	-1.278188733	 2.2223223952	 0.103678
H	 3.661216138	-2.2776463105	 0.8554130672	 0.12491
H	 3.7705274658	-0.5138778578	 0.7520403002	 0.126347
H	 0.057480509	-2.5186049068	 0.5959059007	 0.115075
H	 0.9436940922	-2.3222083359	 2.1855538819	 0.106827
H	 0.1994987913	 0.0062115411	 0.2496982393	 0.095241
H	 1.9874165146	 1.1066750701	 2.0171336113	 0.091927
H	-0.5626584541	 2.228507266	 2.3823374522	 0.094931
H	-1.1963431237	 0.3299270418	 4.4190225772	 0.109328
H	-1.0742957516	-0.6695361407	 2.900586842	 0.108007
H	 1.543635758	-0.4596624516	 4.3377953596	 0.093451
