15
gdb 127737	2.1111	1.91405	1.01127	3.5459	79.68	-0.2074	-0.0241	0.1833	1112.8028	0.112621	-412.960797	-412.952073	-412.951128	-412.994163	31.777	
C	-0.0466636297	 1.425977089	 0.0153701104	-0.336124
N	-0.0008839244	-0.0198153147	 0.0674133319	-0.047485
N	-0.0155583876	-0.742695456	-1.0486108742	-0.143824
N	 0.030473896	-2.0118416821	-0.7165625769	-0.247046
C	 0.0798756831	-2.1108419558	 0.6340527678	 0.191603
N	 0.1965658083	-3.3264131227	 1.274818958	-0.609722
C	 0.0580267915	-0.8286623689	 1.1780227469	 0.195426
C	 0.082060527	-0.3720321975	 2.5021230843	 0.26509
C	 0.0947866052	 0.0046734886	 3.64815616	-0.457093
H	 0.8473119321	 1.8538680742	 0.4769934233	 0.153049
H	-0.0921609252	 1.7073597044	-1.0361805666	 0.168969
H	-0.9302741293	 1.7998257676	 0.5396803646	 0.151813
H	-0.1077581273	-4.1009548366	 0.7016766062	 0.261088
H	-0.1946143221	-3.3542554043	 2.2051789197	 0.257181
H	 0.1193636823	 0.3351067847	 4.6569550645	 0.197073
