20
gdb 12544	3.23768	1.78512	1.22466	1.2088	76.98	-0.2408	0.0222	0.263	1026.2031	0.178242	-349.008063	-349.000054	-348.99911	-349.040488	30.487	
C	 0.005661679	 1.6098647752	-0.0669444433	-0.40162
C	-0.0167051594	 0.0754420943	-0.0265163423	 0.018991
C	 0.8516786938	-0.5009330403	-1.1518989723	-0.074054
O	 0.5264204593	-1.8400474551	-1.4654586385	-0.236939
C	 1.1680194519	-2.8288776549	-0.6945202607	-0.132815
C	 0.8382364803	-2.8866238809	 0.775878645	-0.055089
C	 0.5093878675	-1.9034175987	 1.6139562656	-0.068085
C	 0.3874187756	-0.4205132609	 1.3709095424	-0.24352
H	 1.0240529338	 1.9948185395	 0.0661265189	 0.113297
H	-0.3709372029	 1.9878164613	-1.0227944877	 0.114165
H	-0.6130899245	 2.0357641537	 0.7292396767	 0.114505
H	-1.0385020964	-0.2684434662	-0.2320264759	 0.086241
H	 0.6754083391	 0.0689467323	-2.0716296775	 0.098878
H	 1.9235447996	-0.4046657757	-0.905711269	 0.080496
H	 0.8853371435	-3.7804861406	-1.1585008607	 0.111833
H	 2.2664111011	-2.7430663735	-0.8077123522	 0.095238
H	 0.9340879313	-3.8876664811	 1.1950565769	 0.085079
H	 0.3539938568	-2.1879627129	 2.6537254691	 0.08533
H	 1.3533128711	 0.0421621724	 1.6362643604	 0.107312
H	-0.3248882505	-0.0110161182	 2.0985238251	 0.100757
