16
gdb 67851	2.51551	1.69028	1.36675	1.4379	74.78	-0.2343	0.0098	0.2442	994.6205	0.123439	-400.712434	-400.704455	-400.703511	-400.744693	30.546	
C	-0.0206600006	 1.5199400182	-0.0360224686	-0.474313
C	-0.0242724047	 0.0203974754	 0.0771607169	 0.301778
N	-1.2806654434	-0.6518356067	-0.1771751166	-0.290032
C	-1.2922007192	-1.674068142	 0.578094045	 0.09128
O	-0.2429219102	-1.8770814746	 1.4201828666	-0.204129
C	 0.6578435113	-0.8262952711	 1.1341648519	 0.018865
C	 1.2362068769	-0.7985056455	-0.2732746119	-0.346961
C	 1.2157239911	-1.942537833	-1.1292652929	 0.357912
C	 1.1999828497	-2.9093729996	-1.84438333	-0.430266
H	 0.9539150395	 1.9338345276	 0.2383178102	 0.117545
H	-0.2467416374	 1.8229517133	-1.0627736756	 0.141563
H	-0.7791310071	 1.9562443457	 0.6212885794	 0.131327
H	-2.0712351572	-2.4233359318	 0.6344206643	 0.148516
H	 1.2278667474	-0.5029658489	 1.9958172838	 0.120687
H	 2.1285993997	-0.1813778799	-0.3417549897	 0.119832
H	 1.1866611543	-3.7577367372	-2.4825426728	 0.196395
