19
gdb 71768	3.18292	1.82816	1.6042	1.3544	76.45	-0.2163	0.0887	0.305	916.3513	0.16195	-385.884262	-385.87759	-385.876646	-385.914824	28.366	
C	-0.0265670212	 1.4941050453	 0.0109977564	-0.489377
C	-0.0034388939	-0.0136475615	-0.032389666	 0.269865
C	 1.0067535653	-0.7195175041	-0.9344423735	-0.277348
C	 0.4873280758	-2.1434947814	-1.0600016637	-0.118066
C	 0.0814260627	-2.7901934466	 0.2379266473	 0.085993
O	 0.2505243452	-2.0397473403	 1.414450508	-0.248777
C	-0.3724848547	-0.7974966459	 1.2034235587	 0.047083
C	-1.2896135562	-0.8478257158	-0.0031408981	-0.156189
C	-0.9853200772	-2.1797187395	-0.6461077518	-0.113922
H	 0.9337623797	 1.8965531584	 0.353969177	 0.1202
H	-0.2311851132	 1.9163531673	-0.9800401483	 0.11645
H	-0.8003494382	 1.8614633461	 0.6932570485	 0.114722
H	 1.0454002399	-0.2306031505	-1.9160585529	 0.096622
H	 2.017249299	-0.6881305791	-0.5083569687	 0.106687
H	 0.8551196124	-2.7805184819	-1.8570566678	 0.083064
H	 0.2033084521	-3.8540472285	 0.4019916255	 0.098142
H	-0.6133166282	-0.2904753956	 2.1311581976	 0.094203
H	-2.2829958858	-0.4191748809	-0.01788668	 0.083593
H	-1.7459623134	-2.7557035056	-1.1547686081	 0.087057
