10
gdb 1377	8.29503	1.59739	1.33945	5.7352	53.04	-0.2656	-0.067	0.1986	805.7211	0.064901	-359.31705	-359.310041	-359.309097	-359.34852	23.417	
O	-0.3648647087	 0.0586639378	 0.005440928	-0.24539
C	-0.081766635	 1.2226307441	 0.0085944765	 0.166638
N	 1.2042599293	 1.7641661477	-0.0008449053	-0.349203
C	 2.4242827096	 1.0738830734	-0.0156524876	 0.318016
O	 2.5390744616	-0.1240501243	-0.0231915382	-0.286378
C	 3.5591213284	 1.9872726496	-0.020969509	 0.193673
C	 4.5124522357	 2.7199670788	-0.025603241	-0.380555
H	-0.8324985324	 2.0384488441	 0.0196980667	 0.093069
H	 1.2666204597	 2.7725804544	 0.0038911492	 0.268607
H	 5.3670045218	 3.3527000245	-0.0297077493	 0.221522
