19
gdb 119619	4.17467	1.00034	0.92589	1.4873	71.8	-0.2273	0.0789	0.3063	1322.4349	0.15835	-460.120714	-460.111957	-460.111013	-460.154662	31.95	
C	-0.3713439336	 1.3424368065	 0.8295049384	-0.222561
O	-0.1771352942	-0.0355791699	 1.045898557	-0.239739
C	 0.8429026508	-0.5805000117	 0.2397117884	-0.154466
C	 0.930409435	-2.053399318	 0.5301402041	 0.382161
C	-0.2716000744	-2.9293281706	 0.8226674874	-0.393952
C	 0.8137189149	-2.7076058623	 1.8648825919	 0.046372
O	 1.8616838626	-3.6438562195	 1.9529494701	-0.256432
C	 2.3486126302	-3.8211234404	 0.6373406904	 0.006736
O	 2.0343250013	-2.6558418746	-0.1078967279	-0.305496
H	-0.6568780986	 1.5541653798	-0.212602972	 0.108623
H	-1.1786519854	 1.6652309755	 1.4909059027	 0.129983
H	 0.5346872424	 1.9229120385	 1.0625658202	 0.108997
H	 0.6269209627	-0.41447174	-0.8295069135	 0.097951
H	 1.8168457939	-0.1109669852	 0.4557087781	 0.100311
H	-1.2013531121	-2.4008514513	 0.9992491012	 0.134674
H	-0.3682318715	-3.893997874	 0.3370607918	 0.118982
H	 0.6206018518	-2.1982859225	 2.7991848353	 0.121606
H	 3.435100083	-3.9530034541	 0.6646824491	 0.121127
H	 1.8780563213	-4.7022643163	 0.1714803372	 0.095125
