17
gdb 81304	2.68874	1.588	1.25185	2.7927	67.83	-0.2457	-0.0206	0.2252	1015.8824	0.136337	-458.95451	-458.946811	-458.945867	-458.986743	29.724	
O	 0.0015723366	 1.3441105143	-0.0845769432	-0.43532
C	 0.0658044211	-0.0605608268	 0.0145030798	 0.1025
C	 0.1250108318	-0.6000107851	 1.4743737531	 0.084215
C	-1.4116749695	-0.4119454598	 1.5363652866	-0.272937
C	-1.386789981	-0.6281107776	-0.0146555133	-0.141322
C	-1.2906784265	-2.1164851129	-0.2533499199	 0.373421
O	-1.9219269106	-2.7320769546	-1.0754386352	-0.320995
C	-0.3121783927	-2.8266391537	 0.6965202894	-0.177867
O	 0.5101445213	-1.9646036018	 1.4784260462	-0.276085
H	 0.8784061867	 1.6968467837	 0.1015401528	 0.289683
H	 0.7938952264	-0.4910734003	-0.686379298	 0.078504
H	 0.7661950395	-0.0936264507	 2.1990629746	 0.081402
H	-1.9871510421	-1.104921274	 2.1538295585	 0.110768
H	-1.6769598703	 0.6171874891	 1.7753173166	 0.13238
H	-2.1205040491	-0.1515728977	-0.6636235677	 0.096153
H	-0.9101357035	-3.4753338836	 1.3532679104	 0.134472
H	 0.3342902319	-3.4807180286	 0.1018724793	 0.141028
