23
gdb 100976	2.42045	1.05231	0.98423	2.0289	82.16	-0.2508	0.0638	0.3146	1405.9995	0.203058	-425.417973	-425.407193	-425.406249	-425.453484	40.384	
C	-0.006454037	 1.597217165	 0.126652538	-0.385532
C	-0.0767611921	 0.0774027942	 0.2888264682	-0.191307
C	-1.4230017924	-0.5041274654	-0.1766881077	 0.090914
O	-1.685142725	-0.1768375475	-1.536664729	-0.444053
C	-1.4968679751	-2.0118058189	-0.0043168886	 0.373531
O	-0.6347212674	-2.6840632261	-0.904271476	-0.481422
C	-1.7502468731	-2.6568551032	 1.3336885121	-0.364681
C	-2.7909142943	-2.7351292384	 0.2275943973	-0.036577
C	-4.1293263018	-2.0407131187	 0.342185107	-0.413355
H	 0.9770558726	 1.9833752588	 0.4109199196	 0.106102
H	-0.2036864448	 1.8763109133	-0.9112850572	 0.135124
H	-0.7548490895	 2.0942370608	 0.7542747309	 0.11125
H	 0.7311685482	-0.3878441503	-0.293247563	 0.077304
H	 0.0865354002	-0.2030138867	 1.3373804269	 0.093178
H	-2.2215119488	-0.0330499879	 0.4080467884	 0.076881
H	-1.2258793012	-0.8511498461	-2.0544593851	 0.283542
H	 0.2632427075	-2.6210700439	-0.5595836989	 0.286056
H	-1.1888334107	-3.5534370933	 1.573744475	 0.110726
H	-1.9582399629	-2.0102063125	 2.1814632046	 0.110024
H	-2.8223634654	-3.6940625066	-0.282407007	 0.09759
H	-4.0675421326	-1.1276736691	 0.9414508973	 0.117006
H	-4.5196066211	-1.7653707606	-0.6428859912	 0.131625
H	-4.8605757234	-2.6967975067	 0.8262996183	 0.116072
