18
gdb 78881	2.58138	2.14404	1.48191	1.6685	72.84	-0.2275	0.0654	0.2928	918.1121	0.148482	-401.889914	-401.882602	-401.881658	-401.921167	29.793	
C	 0.0429582657	 1.4575746529	-0.0574874803	-0.498999
C	-0.0332969059	-0.0426017142	-0.0402225337	 0.291802
C	 0.0756095518	-0.8511526185	 1.208709678	-0.108517
C	-0.245354045	-2.3031664309	 0.8194584947	-0.130734
C	-0.5191596393	-2.2077800814	-0.6823897247	-0.126474
C	 0.8869337133	-2.2146568895	-0.1633260259	-0.02244
N	 1.2267393892	-0.7878813823	 0.2441828618	-0.202758
C	-0.8979848428	-0.7887528253	-1.0505843964	 0.081842
O	-2.2754920227	-0.4774891449	-0.9494628913	-0.434979
H	 0.6193314351	 1.8336681268	 0.7914560309	 0.126335
H	 0.5248476652	 1.8106697982	-0.9752938109	 0.126209
H	-0.9650904749	 1.8819778559	-0.0165735239	 0.128622
H	 0.1561046502	-0.4470688952	 2.2116147051	 0.094186
H	-0.5634822619	-3.1122821033	 1.4607486482	 0.097221
H	-0.9117701723	-3.0659552516	-1.2122301082	 0.09829
H	 1.6764489871	-2.9017223351	-0.4357175087	 0.101464
H	-0.6165766962	-0.5422928865	-2.0798188513	 0.096583
H	-2.5601469167	-0.7338654751	-0.0642315635	 0.282346
