19
gdb 23613	1.93478	1.53631	0.96967	1.5861	79.69	-0.2308	0.0016	0.2324	1248.1666	0.159222	-419.118491	-419.109475	-419.108531	-419.153173	33.496	
O	-0.0241099508	 1.4382447194	 0.0637113981	-0.397188
N	 0.1088409329	 0.0415816137	 0.1241157211	-0.188709
C	-1.0203938056	-0.5596380479	 0.0365691505	 0.334136
C	-0.9928257797	-2.0493407771	 0.0295726325	-0.08959
C	-0.7972457045	-2.8063423033	-1.2791734457	-0.255151
C	 0.2817891174	-2.8039596272	-0.2330152888	-0.270458
C	-2.3231207359	 0.1588781043	-0.0454376554	-0.076091
C	-3.2108087262	-0.0210155049	-1.2349771532	-0.231346
N	-3.614800383	-0.5424183651	 0.0724721714	-0.324334
H	 0.8815551307	 1.7313062009	 0.2074301693	 0.306713
H	-1.6761637783	-2.5100454101	 0.738021959	 0.101107
H	-1.3758627317	-3.7099817509	-1.4367662343	 0.114813
H	-0.6285122719	-2.2148890538	-2.1722981198	 0.123087
H	 1.168806259	-2.2128146362	-0.4191040646	 0.138816
H	 0.4469208787	-3.7116348964	 0.3359084995	 0.114365
H	-2.3125973821	 1.1356991834	 0.4237300634	 0.120639
H	-3.7844206045	 0.8268103104	-1.5982009425	 0.126817
H	-2.8931619672	-0.723333574	-2.0002204947	 0.120719
H	-3.4686918573	-1.548365825	 0.0914598442	 0.231657
