17
gdb 48035	6.3316	0.56853	0.53921	2.7488	80.15	-0.2581	-0.0639	0.1942	1946.5085	0.134198	-421.777313	-421.767846	-421.766902	-421.814817	31.319	
O	-0.071032475	-0.0438166235	-0.0097645966	-0.226742
C	 0.0365435019	 1.1414942712	 0.2061481713	 0.019151
C	 1.2592485718	 1.8897599334	 0.066533648	 0.047519
C	 2.2731712837	 2.5378993259	-0.0424141056	 0.081568
C	 3.4861263017	 3.3313205345	-0.1754612314	-0.382225
C	 3.2231348777	 4.8431172009	-0.1645175048	-0.022989
C	 2.8238057355	 5.4470718692	 1.1999094195	-0.074088
O	 4.0853875289	 6.1381499485	 1.3118390055	-0.267562
C	 4.4803559238	 5.7278060154	-0.0114440413	-0.090546
H	-0.8307013251	 1.7489017121	 0.536879371	 0.098661
H	 4.1693262959	 3.0732582139	 0.6455140813	 0.152079
H	 4.0042372922	 3.0484360813	-1.1013569639	 0.146702
H	 2.5668121044	 5.1124689706	-0.9939776888	 0.095498
H	 1.9760946208	 6.1428385435	 1.1723931293	 0.106132
H	 2.6689728692	 4.7304264012	 2.015982644	 0.109075
H	 5.4436734451	 5.20121803	-0.0116254047	 0.103676
H	 4.5402520277	 6.5756677718	-0.7054867829	 0.104091
