21
gdb 91164	2.35534	1.77353	1.47988	1.41	81.49	-0.2335	0.02	0.2536	1013.3214	0.184834	-387.097419	-387.089536	-387.088592	-387.129068	32.649	
C	-0.2040406089	 1.5486061016	-0.0603257525	-0.429936
C	 0.0414028287	 0.0424373085	-0.0000884545	 0.04812
C	 1.0647538597	-0.570860017	-1.000013976	-0.064381
C	 2.4096959865	 0.0352291516	-0.4846452142	-0.254441
C	 2.2326472191	 0.0113796844	 1.0688606813	 0.147403
O	 2.3080239471	 1.2944916716	 1.6830520412	-0.442864
C	 0.7860494137	-0.5513753357	 1.2340218509	-0.076937
C	 0.8823983191	-2.0070900342	 0.7992624362	-0.094593
C	 1.0536983534	-2.018758771	-0.526205392	-0.081218
H	 0.6981522125	 2.1355066671	 0.1098351544	 0.13317
H	-0.6272255053	 1.8224110324	-1.0337913803	 0.102103
H	-0.9291638916	 1.8432029391	 0.706264325	 0.111737
H	-0.917767195	-0.4732992377	-0.1132457596	 0.067683
H	 0.8750421313	-0.4086629473	-2.0625666692	 0.054329
H	 3.2743331162	-0.5402146887	-0.8240208169	 0.093607
H	 2.5373281723	 1.0683301346	-0.8217628709	 0.096254
H	 2.957253339	-0.661756419	 1.5443842782	 0.064687
H	 3.2015922765	 1.6291200935	 1.5581737208	 0.279757
H	 0.3657916152	-0.3579047093	 2.2212827672	 0.062518
H	 0.9062172087	-2.8517061897	 1.4766775068	 0.091926
H	 1.2389222019	-2.8774270746	-1.1600523361	 0.091079
