17
gdb 18808	3.09396	3.01248	2.40977	0.3077	66.16	-0.216	0.0862	0.3023	680.5649	0.146015	-363.806829	-363.801369	-363.800425	-363.835946	23.483	
C	-0.0623455321	 1.5063720742	 0.1422733541	-0.237441
C	 1.4766366043	 1.4416190665	-0.0162626109	-0.015207
C	 2.0855112164	 1.1801038815	 1.3579338122	-0.093737
O	 1.3393234754	 0.146041182	 2.0068188676	-0.269491
C	 0.8189712191	-0.7645865263	 1.0480872434	 0.094024
C	 1.8554210185	-1.0387230429	-0.0634660081	-0.199465
N	 1.3290853846	 0.144049179	-0.8252332104	-0.151777
C	 0.0124086432	-0.0049125143	-0.0659884138	-0.001222
H	-0.4541251611	 1.8823884669	 1.0893724456	 0.109648
H	-0.5537290073	 2.0004292006	-0.6978703627	 0.111796
H	 1.9954554782	 2.2377518987	-0.555365464	 0.077414
H	 3.1458833779	 0.9011686129	 1.2773562259	 0.099713
H	 2.0218966197	 2.0713557964	 1.9916574005	 0.109945
H	 0.3527281062	-1.5808985589	 1.6044252825	 0.07782
H	 2.916255696	-1.0372948341	 0.2022060409	 0.107782
H	 1.6354624367	-1.9419729451	-0.6405639013	 0.109893
H	-0.7947704958	-0.561895757	-0.5492457116	 0.070305
