17
gdb 6626	5.54001	0.77321	0.72606	3.7599	75.28	-0.2392	0.0307	0.27	1584.2357	0.139489	-363.876204	-363.865988	-363.865044	-363.915089	33.118	
C	-0.0751704171	 1.3740671074	-0.2817884516	-0.496337
C	-0.031014073	-0.0539220139	-0.0022219769	 0.061892
C	 0.0167113295	-1.2366140301	 0.2175080513	 0.047372
C	 0.0599452902	-2.6661628282	 0.5088379092	-0.287509
N	-1.2636404211	-3.278091729	 0.4817776063	-0.309604
C	-1.5115964869	-4.4268485345	-0.2152954664	 0.415715
C	-2.9657669218	-4.8719205956	-0.2281527249	-0.481532
O	-0.6363384722	-5.0500328952	-0.789003265	-0.372727
H	 0.7360031683	 1.6699553122	-0.9559714523	 0.153024
H	-1.0199853783	 1.6543323424	-0.7603199496	 0.149793
H	 0.0214495227	 1.9659944944	 0.6349392781	 0.148396
H	 0.6556647314	-3.2102493893	-0.2313790625	 0.172347
H	 0.5387802991	-2.8325558634	 1.484137514	 0.132805
H	-2.0267753224	-2.7644880006	 0.8893832028	 0.248087
H	-3.6062898558	-4.3025173578	 0.4503556904	 0.111458
H	-3.3538974413	-4.7728530495	-1.2461721113	 0.153363
H	-3.0105011614	-5.9303037993	 0.0377654286	 0.153456
