23
gdb 90731	2.97756	1.29131	1.01315	0.1526	91.58	-0.2235	0.0336	0.2572	1283.2011	0.206653	-351.174522	-351.165646	-351.164702	-351.207866	34.785	
C	-0.6406689294	 1.057385646	-0.2625655804	-0.409549
C	 0.3303886001	-0.108628973	-0.1492963779	 0.056765
C	 1.777336248	 0.098414627	-0.6872227338	-0.251235
C	 2.3343767544	-0.5266026417	 0.6262290007	-0.111694
C	 0.9104075798	-0.4376498542	 1.2636994996	-0.017135
C	 0.5852952425	-1.825428905	 1.8477681531	-0.278812
C	 1.6610407887	-2.6997159242	 1.2441918714	-0.16398
C	 2.6054133468	-2.0138600479	 0.5921260568	 0.332714
C	 3.815084574	-2.5718631985	-0.0919434898	-0.495619
H	-0.2118322268	 1.9693287629	 0.1694189419	 0.109092
H	-0.888524741	 1.2713979753	-1.3085396813	 0.111314
H	-1.5783937972	 0.849016938	 0.2655218585	 0.111534
H	-0.1198477513	-1.0064989901	-0.5867884743	 0.067929
H	 2.035850255	-0.4015942542	-1.625320812	 0.090844
H	 2.0340532479	 1.1585874585	-0.7806722231	 0.091138
H	 3.1579026907	 0.0267184284	 1.0927853325	 0.061391
H	 0.7630512511	 0.380529609	 1.9729416633	 0.056427
H	 0.6280830996	-1.8418366071	 2.9461782243	 0.097358
H	-0.4275780789	-2.1556627639	 1.5784741683	 0.096438
H	 1.6595802782	-3.7802421308	 1.3543280217	 0.078301
H	 3.8481922088	-3.6632508285	-0.0322400791	 0.120362
H	 3.841116634	-2.2888847979	-1.1519098695	 0.12434
H	 4.7376538153	-2.1786934381	 0.354871629	 0.122079
