14
gdb 75708	2.32793	1.71863	1.40572	4.67	62.38	-0.2384	-0.0615	0.1768	944.3844	0.101107	-473.816195	-473.808761	-473.807817	-473.848234	28.031	
O	 0.0818846575	 1.4167958437	-0.0601844493	-0.42408
C	 0.0539228323	-0.0016265391	-0.0391348093	-0.115834
C	 0.6629813429	-0.5686618592	 1.2677167426	 0.432954
O	 1.8031876409	-0.8995352601	 1.4518495691	-0.306657
C	-0.4723427457	-0.7245718037	 2.2513645883	-0.160733
N	-1.3399608782	 0.4749486262	 2.2449764435	-0.342493
C	-1.7579337058	-0.7112166189	 1.46401633	-0.16082
C	-1.3956300178	-0.5466319766	 0.0071310077	 0.432976
O	-2.0820257711	-0.860183624	-0.9277453243	-0.306667
H	-0.3982917026	 1.7096773276	 0.7290211876	 0.304393
H	 0.5892837526	-0.3593259136	-0.9195796131	 0.129878
H	-0.3459645093	-1.3045384498	 3.158007481	 0.127665
H	-1.8708224634	 0.5108749843	 3.1123205535	 0.261774
H	-2.6315878822	-1.2809072169	 1.7581512327	 0.127644
