21
gdb 70747	2.51316	1.52879	1.14966	1.541	77.56	-0.2472	0.079	0.3262	1140.7888	0.183498	-424.217163	-424.208832	-424.207888	-424.249611	33.051	
C	 0.1546535835	 1.5201217774	-0.0368105208	-0.462133
C	-0.0294100998	 0.0211479663	 0.0486817147	 0.417431
C	-1.3337800825	-0.521363997	-0.5285724178	-0.287528
C	-2.4458819026	-0.6554930537	 0.5265593768	-0.200189
C	-2.2884123307	-1.8614199473	 1.4620890027	-0.064293
O	-1.1585961293	-1.8351033721	 2.3171291615	-0.241299
C	 0.0837338028	-2.0269847789	 1.6620000679	-0.120712
C	 0.6555195424	-0.7293787347	 1.1127052667	-0.016239
O	 1.1577669456	-0.7418192772	-0.2318564832	-0.300155
H	 1.0862947754	 1.8280343533	 0.4438841733	 0.125791
H	 0.1858482585	 1.8402365576	-1.0841965755	 0.125447
H	-0.6766779566	 2.0439507212	 0.4478587495	 0.122807
H	-1.6675740231	 0.1406750658	-1.3357091486	 0.09709
H	-1.1357700423	-1.4951184945	-0.9892172392	 0.11215
H	-2.5094743881	 0.2599518006	 1.1275365326	 0.105677
H	-3.4140435262	-0.7659100427	 0.0215575746	 0.096838
H	-3.1539386023	-1.917169289	 2.1304976502	 0.106069
H	-2.2744045644	-2.7859332181	 0.8591148516	 0.087104
H	 0.7617832136	-2.4470281976	 2.412036063	 0.106929
H	-0.0056470121	-2.7545971719	 0.8427098551	 0.101925
H	 1.2733722381	-0.1609597576	 1.809522505	 0.087291
