19
gdb 87412	3.42154	1.38505	1.31135	1.628	78.75	-0.2276	0.0809	0.3085	1059.0655	0.159003	-385.800232	-385.792671	-385.791727	-385.832086	30.421	
C	-0.1269077074	 1.507966462	 0.0236435664	-0.405374
C	-0.027672207	-0.0003468414	 0.0845904438	-0.067355
C	 1.3032426636	-0.6964266035	-0.1736849365	-0.375665
C	 0.6991028759	-0.6796293738	 1.1973144329	 0.450448
C	 1.3406670321	-0.1639006259	 2.4687523113	-0.243453
C	 0.4203999058	-0.709879379	 3.5839851264	 0.092334
O	-0.6792146061	-1.3790160757	 2.9676200677	-0.292567
C	 0.2942636619	-1.9096190422	 2.0157621775	-0.056841
C	 1.4750985553	-1.5882489162	 3.0134415081	-0.133078
H	 0.7798282605	 1.97933341	 0.4176140116	 0.110084
H	-0.2605665325	 1.8578469734	-1.0059668389	 0.115266
H	-0.9732471954	 1.8726152624	 0.6157278173	 0.123383
H	-0.9051491421	-0.525632003	-0.2869891783	 0.083531
H	 1.3013267239	-1.6262778829	-0.7350479338	 0.107488
H	 2.1723654668	-0.0714939539	-0.3581502812	 0.108231
H	 2.0123126468	 0.6724327199	 2.6127024475	 0.091482
H	 0.2850280807	-0.2569073289	 4.5572771458	 0.10836
H	 0.0023964133	-2.8600066932	 1.5729300899	 0.083383
H	 2.3053711439	-2.1483490383	 3.4195710827	 0.100343
