10
gdb 24969	5.49516	1.42198	1.12966	3.4094	53.24	-0.244	-0.0319	0.212	930.4168	0.055479	-508.582107	-508.576134	-508.57519	-508.61301	21.889	
O	-0.0171421585	 0.0415947569	 0.0042763689	-0.317666
C	-0.007313551	 1.2210748125	 0.0097338467	 0.471823
O	-1.181900279	 2.0179027128	 0.0298733781	-0.256102
C	-0.691823077	 3.2780436616	 0.029253317	 0.363597
C	 0.6325620757	 3.3178734359	 0.011222819	 0.279701
O	 1.1177120954	 2.0264313157	-0.0017845502	-0.241785
N	 1.0870639737	 4.6044788314	 0.0117351594	-0.330511
C	-0.0283168821	 5.2793638195	 0.0313104338	 0.045033
O	-1.1965767173	 4.5168517584	 0.0427158396	-0.190493
H	-0.1726149099	 6.3457264754	 0.0390311576	 0.176403
