16
gdb 24262	4.0184	1.61539	1.26443	3.4237	74.49	-0.1729	0.0322	0.2051	959.3852	0.128924	-396.935213	-396.928774	-396.92783	-396.965793	26.582	
C	-0.001327608	 1.4814647445	 0.1153898573	-0.302852
C	 1.3104966121	 0.7300080066	 0.0197515842	 0.008311
N	 2.0564438464	 0.317487951	 1.2068398822	-0.405038
C	 1.1517923571	-0.4779124695	 1.9391602211	 0.307492
C	 0.0228860102	-0.7749922112	 1.2337132853	 0.290077
N	-0.7128012317	-1.5831481734	 2.0736959108	-0.381031
C	 0.0281277526	-1.7166869289	 3.2205937969	-0.015873
N	 1.1704566347	-1.0451579531	 3.1751774279	-0.34944
C	-0.0266508262	-0.0328887825	-0.0398678612	-0.200702
H	-0.3095915766	 1.8960164827	 1.0689716116	 0.115998
H	-0.2692863613	 2.0749219671	-0.7526458612	 0.111577
H	 1.9107181231	 0.8660540446	-0.8727755934	 0.098824
H	 2.4861309015	 1.0770663234	 1.7207769907	 0.238633
H	-1.5994624007	-2.0204628415	 1.8903823376	 0.264302
H	-0.3048608438	-2.3298110864	 4.0440384361	 0.125356
H	-0.3835195094	-0.4744224634	-0.9639164161	 0.094364
