21
gdb 84496	2.95832	1.36877	1.10947	1.3155	85.24	-0.2274	0.0191	0.2465	1179.9119	0.182578	-387.089888	-387.081038	-387.080093	-387.123156	34.806	
C	-0.0853582248	 1.6154476015	 0.0140688653	-0.387867
C	 0.0591553015	 0.0918394127	-0.0183270551	-0.058713
C	 0.8804615231	-0.4582081506	-1.1682464735	-0.09613
C	 1.6568442024	-1.4731193675	-0.7847514802	-0.15797
C	 1.5150919655	-1.7456787459	 0.6700883606	 0.316856
C	 1.2760664602	-3.1491757514	 1.1965722213	-0.318063
C	 2.5727106072	-2.4471238705	 1.4892955836	-0.317907
C	 0.7645491906	-0.5268920621	 1.2333991175	 0.014547
O	 1.6460607449	 0.3835319971	 1.8804337612	-0.42202
H	 0.8870335296	 2.1100829169	 0.0802043208	 0.110664
H	-0.586318312	 1.9697972177	-0.8929703393	 0.106536
H	-0.6773982436	 1.9375608605	 0.8758829706	 0.118453
H	-0.9515926007	-0.3404310962	-0.080080041	 0.083085
H	 0.7956687695	-0.078137092	-2.1806904567	 0.090425
H	 2.3056145202	-2.0585616875	-1.4279813887	 0.093315
H	 0.5628476354	-3.2690268323	 2.0057022504	 0.115799
H	 1.2799280071	-3.9649847513	 0.4810888473	 0.111561
H	 3.4683966684	-2.7882950568	 0.9799105669	 0.10943
H	 2.7411237995	-2.0716750561	 2.4925749021	 0.126646
H	 0.040129788	-0.8012738476	 2.0050594699	 0.08017
H	 2.3947726381	 0.5272320514	 1.2906490368	 0.281183
