18
gdb 15351	5.52739	0.99016	0.93394	1.5942	74.68	-0.2481	0.0609	0.309	1276.1506	0.151304	-347.741901	-347.732911	-347.731967	-347.775956	32.336	
C	 0.4031769476	 1.0277129482	 0.4708100664	-0.231091
O	-0.3319576413	 0.1750164283	-0.3843863474	-0.234879
C	 0.4554642118	-0.4303417783	-1.3600371703	 0.103176
C	 1.2388767345	-1.6747990621	-1.0109346588	-0.314223
C	-0.0042773771	-1.7609796416	-1.8734386682	-0.035147
C	-1.2743585626	-2.3899660313	-1.3169232568	-0.372406
C	-1.2671504009	-3.8472325117	-1.4004124823	 0.309512
C	-1.2486244229	-5.0463306795	-1.4822525739	-0.453247
H	 1.1901453536	 0.481198944	 1.0096028845	 0.111059
H	 0.873741374	 1.8508003748	-0.0878332129	 0.107331
H	-0.302595116	 1.4473337786	 1.1913392461	 0.128066
H	 0.8970309643	 0.2698215162	-2.0716393708	 0.085812
H	 2.2104653705	-1.8369212952	-1.4642342722	 0.112359
H	 1.1468011587	-2.0355628619	 0.0084941949	 0.121611
H	 0.1543990156	-1.9447048703	-2.931711728	 0.097392
H	-1.4055926817	-2.0718626728	-0.277618685	 0.141365
H	-2.1439909933	-1.9983627902	-1.8607533519	 0.131638
H	-1.2395541847	-6.1059078953	-1.5466477736	 0.191671
