22
gdb 15185	8.3102	0.67935	0.65905	0.7696	80.38	-0.2475	0.0922	0.3396	1789.6618	0.199038	-350.188449	-350.178749	-350.177805	-350.223968	34.257	
C	 0.025941461	 1.4420015557	 0.1199877005	-0.382083
C	-0.0803271444	-0.0831150081	 0.1904137637	-0.181068
C	-1.4924552287	-0.5825926128	-0.0836059071	-0.026118
O	-1.5040986357	-1.9903213363	 0.0047950286	-0.247516
C	-2.7760831425	-2.5545444989	-0.2390377668	-0.065845
C	-2.673490971	-4.053412093	-0.1783469273	 0.012539
C	-2.7346444654	-4.7595267154	 1.1505718231	-0.246343
C	-3.8888560412	-4.8684477266	 0.1861798158	-0.273061
H	 1.0479947388	 1.7750841175	 0.3221617841	 0.11629
H	-0.2549390572	 1.8173051339	-0.870426946	 0.115315
H	-0.6306429427	 1.9227599915	 0.8537368087	 0.115234
H	 0.5987541768	-0.5462565105	-0.5346310245	 0.10552
H	 0.2283981354	-0.4412943847	 1.1792063195	 0.106044
H	-2.2001773166	-0.1454922186	 0.6437554417	 0.078456
H	-1.8265590047	-0.2566634479	-1.0851671502	 0.079252
H	-3.5060494234	-2.196800102	 0.5093115088	 0.075965
H	-3.1492967709	-2.2330261836	-1.2274924608	 0.082383
H	-2.0067076562	-4.4795400624	-0.9222655779	 0.088478
H	-2.1028019032	-5.6276779082	 1.3002480717	 0.11183
H	-2.8692319329	-4.150100648	 2.0380568047	 0.112833
H	-4.8040307498	-4.3371587755	 0.4274297461	 0.109975
H	-4.0484874056	-5.8087207062	-0.3294001164	 0.11192
