18
gdb 15093	2.71597	1.54759	1.09841	2.2752	63.74	-0.2598	0.0692	0.329	1083.6341	0.152348	-422.035492	-422.026442	-422.025498	-422.06939	32.184	
O	-0.0392209785	 1.3563933092	-0.1111420783	-0.424139
C	-0.0655671092	-0.0632301494	-0.0603247777	-0.09295
C	-1.5311791874	-0.513549289	-0.0273406448	-0.024918
C	-2.2329916764	-0.1458181201	-1.3445349551	-0.096593
O	-3.652738967	-0.209460246	-1.2755934411	-0.422037
C	-1.5950561126	-1.9905063953	 0.3193311936	 0.073978
C	-2.6260249633	-2.9139067689	-0.1674483613	-0.191453
O	-1.3068714864	-2.9213830199	-0.730135946	-0.243316
H	 0.8684523221	 1.6369717003	-0.2581060032	 0.289669
H	 0.4330369583	-0.5084915019	-0.9350118085	 0.106388
H	 0.452841922	-0.43533782	 0.8373408029	 0.087852
H	-2.0131742738	 0.0426618317	 0.7909347299	 0.07764
H	-1.8952362339	 0.8509708364	-1.6514919862	 0.110728
H	-1.9380568217	-0.8609838276	-2.1183455818	 0.128121
H	-3.9481442679	 0.4723498218	-0.6637704461	 0.282184
H	-1.1092946162	-2.2443298354	 1.2647606828	 0.08556
H	-2.8754201326	-3.7920726786	 0.4269661603	 0.108421
H	-3.4116508755	-2.5362952272	-0.8146543194	 0.144866
