14
gdb 52005	6.35383	0.65881	0.62846	4.2794	62.57	-0.2722	-0.0439	0.2283	1664.2518	0.097949	-511.018407	-511.009086	-511.008142	-511.055087	30.344	
O	-0.298973967	 0.1649531415	 0.1025808106	-0.222411
C	 0.2728180642	 1.0296223138	-0.5028214246	 0.146173
C	 1.1387430739	 2.0819697845	 0.1678189391	-0.173899
O	 1.2608448912	 3.2218177933	-0.6856754213	-0.280109
C	 2.5161586919	 3.5072308878	-1.137843539	 0.552357
O	 3.508276221	 2.8875428478	-0.8859372748	-0.342896
N	 2.4166228533	 4.6418104045	-1.9343014159	-0.393515
C	 3.4539086395	 5.2842325721	-2.6072408091	 0.167712
O	 4.6067103601	 4.9597383354	-2.6120840334	-0.245254
H	 0.2251954262	 1.1203198585	-1.6112991643	 0.093123
H	 0.6856998145	 2.3960420113	 1.1113901379	 0.150528
H	 2.13276997	 1.6636044985	 0.3625730542	 0.180904
H	 1.4903232512	 5.0330902792	-2.02428018	 0.27094
H	 3.0574463101	 6.162260752	-3.1543726093	 0.096347
