16
gdb 9236	6.13596	0.78313	0.71438	1.4974	83.13	-0.2418	-0.0109	0.2309	1519.6357	0.127521	-346.5491	-346.539676	-346.538732	-346.583339	33.283	
C	 0.0162760847	 1.5710964879	-0.0074621702	-0.384686
C	-0.0046495339	 0.0298314067	 0.0469192378	-0.186928
C	 0.7584266693	-0.5055022434	 1.272931025	-0.069714
O	 2.1052119269	-0.0815837771	 1.1489407185	-0.416998
C	-1.3648235995	-0.4934731492	 0.0352788334	 0.436861
C	-2.4964002924	-0.9241898274	 0.0350814127	-0.301022
C	-3.7695943627	-1.4049148068	 0.0367842981	 0.298171
C	-4.898956474	-1.8328342282	 0.0382249375	-0.568028
H	 1.0499638671	 1.9211135007	 0.014856006	 0.139499
H	-0.4661653626	 1.9332233171	-0.9184291767	 0.125211
H	-0.5164507624	 1.9917846515	 0.8509124465	 0.122858
H	 0.522108602	-0.3536525037	-0.8382614085	 0.122631
H	 0.2899740816	-0.1130313756	 2.1884986367	 0.098848
H	 0.6799916921	-1.601928166	 1.2984627545	 0.101814
H	 2.5858963158	-0.3661155579	 1.9313325635	 0.292091
H	-5.8922582619	-2.2070379884	 0.0392011154	 0.189391
