20
gdb 94591	3.1782	1.00909	0.8254	4.113	75.72	-0.2351	0.0361	0.2712	1409.2835	0.170771	-440.308424	-440.298908	-440.297964	-440.343646	34.744	
C	-0.58541924	 1.1761652192	-0.2260749491	-0.413016
C	 0.2466492935	-0.0933965675	-0.1261000649	-0.040841
C	 1.7520393368	-0.0148542577	-0.4573862582	-0.084861
O	 2.1052838421	-0.6595682034	 0.786751487	-0.296181
C	 0.7271573003	-0.6206115571	 1.259035997	 0.113359
C	 0.5555381938	 0.2750469634	 2.4831036531	-0.307445
C	 1.2637462427	-0.2544631799	 3.7363050179	 0.362302
N	 2.5947492074	-0.495787717	 3.562878718	-0.507434
O	 0.6870103774	-0.4069996599	 4.7956449839	-0.360929
H	-0.1171531697	 2.0170830739	 0.2943249297	 0.123253
H	-0.7107563863	 1.4661455145	-1.2747346443	 0.121402
H	-1.5851278653	 1.032691529	 0.1965257188	 0.127532
H	-0.2405951665	-0.8958292908	-0.6864694479	 0.089793
H	 2.1024469005	-0.5867150375	-1.3232064504	 0.1099
H	 2.1548606859	 1.0052698429	-0.5164143784	 0.102079
H	 0.3840565065	-1.6351704128	 1.4958354482	 0.091308
H	 0.9374034058	 1.2786405397	 2.2638537186	 0.117391
H	-0.5040104375	 0.3616470841	 2.735483643	 0.12777
H	 2.9812792696	-0.5256484766	 2.6298748394	 0.271385
H	 3.088585073	-0.9355027767	 4.3227326685	 0.253231
