19
gdb 80965	2.38075	1.37493	1.31161	0.8433	76.5	-0.2384	-0.0359	0.2025	1113.5894	0.156318	-422.974382	-422.96534	-422.964396	-423.008021	33.677	
C	-0.2032362918	 1.538564807	 0.1199416415	-0.435558
C	-0.0670109414	 0.0312780242	 0.0162032381	-0.016614
C	 1.218615283	-0.5589855441	-0.6118755075	 0.010468
O	 1.9942478139	-0.1152953145	 0.5563228421	-0.343823
C	 0.7468811708	-0.7296040169	 1.1170058121	 0.399905
C	 0.5603276627	-0.7568515097	 2.5997044324	-0.526524
C	 0.9730694956	-1.9154727454	 0.137522911	-0.12026
C	-0.1178178303	-2.8684944641	-0.2547335339	 0.120285
O	-1.2463181559	-2.8564632494	 0.17574544	-0.254537
H	 0.7439891748	 1.9952026553	 0.4133463563	 0.136932
H	-0.5148853302	 1.9657205279	-0.8392944662	 0.116142
H	-0.9664952474	 1.8081781652	 0.85794046	 0.118584
H	-1.0012340619	-0.4547728213	-0.2707531	 0.098723
H	 1.660328499	-0.4062571204	-1.5971641816	 0.096674
H	 0.4919755375	 0.2593883776	 2.9992206008	 0.135569
H	-0.3633438867	-1.2921557664	 2.8388883356	 0.147269
H	 1.3975461167	-1.2667010463	 3.0857242826	 0.133621
H	 1.9168813081	-2.4462673818	 0.2965691488	 0.100029
H	 0.1956484235	-3.6371939767	-0.9984718919	 0.083115
