16
gdb 68663	2.45446	1.91941	1.51658	2.6046	68.87	-0.2303	-0.0329	0.1975	922.6928	0.124614	-437.890481	-437.88303	-437.882086	-437.922115	28.777	
C	 0.0235201684	 1.5598332968	 0.0673114642	-0.472199
C	 0.0035692472	 0.057538918	-0.0390134417	 0.187765
C	 0.7029858008	-0.7213331077	-1.2075709247	-0.294508
C	-0.3252253276	-1.8612523568	-0.9586139535	-0.016739
O	 0.0985255973	-2.6516121251	 0.1780471943	-0.235109
C	 0.4604320347	-1.8571411062	 1.2149166804	 0.11985
N	 0.4385397374	-0.5903149309	 1.2342720065	-0.287365
C	-1.2511294973	-0.716089854	-0.4687844509	 0.409279
O	-2.4168439683	-0.4733114889	-0.571450606	-0.312354
H	 1.0303828486	 1.9126636903	 0.3096551365	 0.129216
H	-0.2994259367	 2.0214883595	-0.8701673331	 0.11954
H	-0.6492045116	 1.886601678	 0.8652032168	 0.141855
H	 0.549568595	-0.2500490318	-2.1808308466	 0.126293
H	 1.7537196991	-0.9735992185	-1.0542887406	 0.126087
H	-0.63168931	-2.5510278229	-1.7416178673	 0.113762
H	 0.792590513	-2.4427004099	 2.0681157056	 0.144628
