20
gdb 93803	2.43845	1.46912	1.11	3.3983	76.08	-0.2337	0.028	0.2618	1172.0488	0.171512	-440.332793	-440.323805	-440.32286	-440.366521	33.983	
C	-0.0543821078	 1.5698185442	 0.0251665122	-0.383471
C	 0.0198285656	 0.0387788016	-0.0244206191	 0.028394
C	 0.7628946637	-0.4656209446	-1.2633960649	-0.087865
O	 2.1422404473	-0.1867535093	-1.1513828839	-0.257914
C	 2.7616015788	-0.9618302599	-0.1310297952	 0.014951
C	 4.1892130741	-0.4664619834	 0.0433315886	-0.398614
C	 1.9984638267	-0.9330561369	 1.2031040474	 0.39304
O	 2.517261053	-1.3107871192	 2.2383136949	-0.383288
N	 0.7029518816	-0.5090041864	 1.145341755	-0.326308
H	 0.9485176322	 1.9959845197	-0.0634606132	 0.138657
H	-0.6720611416	 1.9535229146	-0.7935063441	 0.117039
H	-0.4936825437	 1.9092500465	 0.9681542098	 0.114834
H	-0.9983934013	-0.3722232273	-0.0459136111	 0.086965
H	 0.5944877166	-1.5472125346	-1.3903092275	 0.096334
H	 0.4024041632	 0.0479836839	-2.1587466698	 0.113628
H	 2.7768300807	-2.0217807854	-0.4425491491	 0.096855
H	 4.1923086361	 0.5944699837	 0.3092959537	 0.124739
H	 4.6727095784	-1.0288968544	 0.8428497083	 0.147377
H	 4.7460591759	-0.5938260438	-0.8880341319	 0.119614
H	 0.2456699906	-0.4559264589	 2.04527077	 0.245033
