23
gdb 122329	4.70691	0.65	0.61656	1.0068	89.98	-0.2273	0.031	0.2583	1908.3847	0.205796	-388.299563	-388.289578	-388.288634	-388.335776	35.721	
C	-0.0449644348	 1.4023201386	 0.2046912721	-0.227739
O	-0.0360285172	 0.0175276925	-0.0387838172	-0.22745
C	-1.3193413753	-0.5628481414	 0.0431494118	-0.043551
C	-1.188334494	-2.0598589901	-0.2480998839	-0.325439
C	-2.4894331416	-2.7981396686	-0.132452905	 0.33791
C	-3.1831817463	-3.3571732239	-1.1268117415	-0.171324
C	-4.4242120669	-4.0711426701	-0.6501352116	-0.242325
C	-4.5656696224	-3.5785443627	 0.8133460763	-0.202389
C	-3.1614893531	-3.0573154099	 1.2055035461	-0.298209
H	 0.9851468891	 1.7576793401	 0.1206000263	 0.125516
H	-0.6676969373	 1.9437299153	-0.5257362585	 0.10208
H	-0.4206299888	 1.6392825736	 1.2133632048	 0.101168
H	-1.7507079909	-0.3960507617	 1.0449083094	 0.084729
H	-2.0043363837	-0.0953945966	-0.6844720781	 0.087613
H	-0.7697183283	-2.1792752654	-1.2526850744	 0.108414
H	-0.4534666586	-2.4714770175	 0.4565678012	 0.108619
H	-2.8760332073	-3.350415556	-2.1680231786	 0.081714
H	-5.3099423081	-3.8449208893	-1.2550000861	 0.099114
H	-4.2894783359	-5.1614191735	-0.7044415938	 0.102497
H	-5.2813087922	-2.7508472502	 0.8480940789	 0.102633
H	-4.9362308466	-4.3528701948	 1.4898666881	 0.094767
H	-2.58782871	-3.8065085832	 1.7715203391	 0.102476
H	-3.2100218898	-2.1697163352	 1.8466367446	 0.099175
