20
gdb 118391	1.72139	1.14934	0.75297	3.7315	83.03	-0.248	0.0216	0.2695	1552.0987	0.16851	-403.140665	-403.130152	-403.129208	-403.177632	36.875	
C	 0.3424649918	 1.5080045323	 0.1195159082	-0.379535
C	 0.3014805719	-0.0189214824	 0.0178625154	-0.174227
C	 0.5850977247	-0.6916416598	 1.3679335058	-0.168062
N	 0.5549177952	-2.1462190014	 1.3246822872	-0.03942
C	 1.6613025662	-2.8760167618	 0.7080028065	-0.326203
C	 2.9469672809	-2.619237631	 1.3545903768	 0.31357
C	 4.0068706822	-2.3962551485	 1.8749542055	-0.456914
C	-0.4825352969	-2.8595462172	 1.8514427595	 0.156962
O	-0.589781589	-4.0680065993	 1.8369755043	-0.342186
H	 1.3244519237	 1.8572158564	 0.4567954261	 0.122097
H	 0.1386833833	 1.9733704849	-0.848881296	 0.121291
H	-0.4034096036	 1.8797865088	 0.8308884701	 0.11888
H	-0.6797526838	-0.3496102305	-0.3433000771	 0.106489
H	 1.0358562122	-0.3559614773	-0.7234065953	 0.106944
H	 1.5633661496	-0.3732560767	 1.7486032866	 0.12541
H	-0.1613249311	-0.3679937816	 2.1019911118	 0.11592
H	 1.3963952504	-3.9351446257	 0.7817247254	 0.179694
H	 1.7320712022	-2.6288410989	-0.3591726466	 0.138127
H	 4.9449241573	-2.2173548425	 2.3397878143	 0.204347
H	-1.2417950371	-2.1949539377	 2.3074678415	 0.076818
