17
gdb 95033	2.48274	2.072	1.50447	2.2741	65.45	-0.2448	0.0602	0.305	900.407	0.137479	-458.912271	-458.905324	-458.90438	-458.943568	27.88	
O	 0.0165561785	 1.4465988793	 0.1478009878	-0.439104
C	 0.0035413722	 0.0429106562	 0.0066482063	 0.104849
C	 0.7383216569	-0.6920392726	 1.1704081449	-0.107748
O	 0.004448771	-1.8705836833	 1.5016713142	-0.260555
C	-1.3218751816	-1.7282826905	 1.0720261141	 0.085467
C	-2.3379071308	-0.9328180337	 1.9325312186	-0.007767
O	-1.8340012635	 0.4008977852	 2.1159732534	-0.258653
C	-2.4712395952	 0.0824355388	 0.8688986258	 0.008337
C	-1.4030506303	-0.6030741908	-0.0037118303	-0.129172
H	-0.3884536742	 1.6371680913	 1.0031471181	 0.296507
H	 0.5076765024	-0.1567027419	-0.9426407192	 0.095614
H	 1.7522917801	-1.0037551826	 0.9012636288	 0.105738
H	 0.7998953985	-0.013187773	 2.0299003241	 0.105018
H	-1.716500232	-2.7060843153	 0.7822659064	 0.090879
H	-3.045746418	-1.2858780961	 2.6734777616	 0.110722
H	-3.3187906041	 0.6889114244	 0.5757621741	 0.115286
H	-1.7487005798	-0.9139122355	-0.9891702286	 0.084583
