16
gdb 74374	2.72031	1.36642	1.09183	5.2427	71.71	-0.2487	0.0021	0.2508	1116.6476	0.126108	-434.084011	-434.075905	-434.074961	-434.116864	30.345	
N	 0.0296446985	 1.3414273847	-0.1376715656	-0.538067
C	-0.0409585774	-0.0238119871	-0.0052858495	 0.345157
N	-1.1817665885	-0.601735531	 0.0108137596	-0.291322
C	-1.1948208124	-2.0641286731	 0.0312486537	-0.124179
C	 0.134782475	-2.6903671984	-0.4186047503	-0.109572
O	 1.2035271748	-2.099177164	 0.2925181817	-0.234967
C	 1.3080728637	-0.7247260354	 0.0132925485	-0.152508
C	-1.5618585446	-2.5354393006	 1.3803737487	 0.290296
N	-1.8494795205	-2.9174412016	 2.4320579563	-0.327171
H	 0.8278867488	 1.8122302218	 0.2589871301	 0.257499
H	-0.8507887922	 1.8208794792	-0.0136862593	 0.263959
H	-1.9883326273	-2.4028304658	-0.6484482484	 0.128143
H	 0.1674349502	-3.7613981528	-0.2083753515	 0.135546
H	 0.2489272563	-2.5353207516	-1.5033036211	 0.103138
H	 1.8029043806	-0.5496065102	-0.9577967328	 0.121956
H	 1.945681385	-0.2912398741	 0.7917637599	 0.132091
