13
gdb 43522	3.08433	1.30876	0.96079	2.378	64.29	-0.3005	-0.0382	0.2623	1122.459	0.089851	-452.807428	-452.799861	-452.798917	-452.840454	27.115	
N	-0.00756594	 1.2435499881	 0.2655547824	-0.490734
C	 0.0114241662	 0.0088405414	 0.0654658177	 0.423835
O	 1.1370458407	-0.7425580868	-0.2069770467	-0.210999
C	 0.8642472371	-2.1031400766	-0.2399693729	 0.425901
O	 1.7023477891	-2.9027001711	-0.5008261507	-0.290049
C	-0.595407245	-2.3200790946	 0.123607331	-0.375253
C	-1.2121820102	-0.9102582882	 0.0368693851	-0.256468
C	-2.1918690283	-0.6088694794	 1.0741343024	 0.304451
N	-2.9789498995	-0.4182363794	 1.8969085966	-0.307211
H	 0.9261912985	 1.6527740497	 0.2163231853	 0.250945
H	-1.0512205885	-3.0519415093	-0.5429576161	 0.170355
H	-0.638012519	-2.7207414966	 1.1406495271	 0.181668
H	-1.6952307911	-0.7714367372	-0.9378350212	 0.173559
