17
gdb 47415	2.8083	1.53378	1.19278	4.2654	67.32	-0.2584	-0.0006	0.2578	1044.8725	0.137338	-458.983118	-458.975428	-458.974483	-459.015982	28.262	
O	-0.1799562202	 0.1096804032	-0.4880281122	-0.346838
C	-0.0818212718	 1.2599165219	-0.1706543527	 0.406382
O	-1.1532278097	 2.0201122882	 0.1778011971	-0.222649
C	-0.7391670803	 3.3449017767	 0.5579158672	-0.089586
C	 0.6674880544	 3.5243093171	-0.0340147727	-0.325019
C	 1.1905967602	 2.0913929066	-0.0714298078	 0.118544
C	 2.1801652902	 1.6208196588	 1.0365139595	-0.108568
O	 3.2238717406	 1.399131068	 0.0772790876	-0.267261
C	 2.3410920592	 1.7019768877	-1.0208452408	-0.123801
H	-1.4760031228	 4.0490039245	 0.1671363337	 0.13159
H	-0.7391461632	 3.4086607656	 1.6522073108	 0.12208
H	 0.5996410543	 3.9225366087	-1.0523347851	 0.123102
H	 1.2870643187	 4.2056123559	 0.5531548768	 0.122277
H	 2.4474069325	 2.384439659	 1.7779138545	 0.104135
H	 1.8877058353	 0.6964541884	 1.5488621488	 0.122439
H	 2.1257776027	 0.8184514581	-1.632376689	 0.129531
H	 2.72681827	 2.5124987215	-1.6507917358	 0.103642
