27
gdb 121930	3.59469	0.61441	0.55486	0.0781	97.25	-0.2697	0.0909	0.3606	2144.3072	0.250717	-353.55932	-353.547952	-353.547008	-353.596815	41.603	
C	 0.0729372294	 1.5208566103	-0.1672860624	-0.379898
C	 0.1661716365	-0.0042555251	-0.0696438643	-0.161151
C	 0.6838504628	-0.492926599	 1.2883569798	-0.171903
C	 0.77173033	-2.0207193012	 1.3836354841	-0.17401
C	 1.3842708419	-2.5656726988	 2.6888231994	 0.006908
C	 0.537102749	-2.2284769042	 3.9252694615	-0.392533
C	 1.6021684622	-4.066259163	 2.5867445085	 0.047345
C	 2.8199424588	-4.6244475423	 1.8960627005	-0.274766
C	 2.6756380493	-4.7488163179	 3.3947707823	-0.278965
H	 1.0524279909	 1.9880462395	-0.0149229038	 0.112095
H	-0.2977663742	 1.8383490477	-1.1471013593	 0.109447
H	-0.6056317025	 1.9255679406	 0.5920995879	 0.112218
H	-0.8219143126	-0.4445957098	-0.2591243477	 0.093054
H	 0.8222131833	-0.3836596937	-0.8643908874	 0.092856
H	 1.6772634471	-0.0592916531	 1.4730374533	 0.088
H	 0.0310772466	-0.1003743385	 2.078424758	 0.094328
H	-0.2323243935	-2.4512365352	 1.2553349216	 0.086124
H	 1.3689570757	-2.3938510765	 0.5413052748	 0.092364
H	 2.3728744309	-2.0982026064	 2.8155827066	 0.061344
H	 0.9862540727	-2.6496228128	 4.8300874081	 0.113067
H	 0.4369302973	-1.149309314	 4.0726154338	 0.111807
H	-0.4725144438	-2.6465808591	 3.830292988	 0.108358
H	 0.6830715592	-4.6342781283	 2.4525871499	 0.07466
H	 2.7144466853	-5.5180046639	 1.2906117944	 0.107576
H	 3.5537285548	-3.9189570238	 1.5187576811	 0.106989
H	 3.314612431	-4.1274838329	 4.0147794765	 0.107266
H	 2.470589742	-5.7276957186	 3.8142373648	 0.107421
