25
gdb 121232	2.80981	0.84224	0.70079	1.0024	90.52	-0.2428	0.083	0.3258	1750.1595	0.227673	-389.478723	-389.468001	-389.467057	-389.515166	38.855	
C	-0.0272858736	 1.5732704803	-0.157833046	-0.379016
C	 0.1241698061	 0.050673098	-0.1019110847	-0.164698
C	 0.578537374	-0.4568599216	 1.2720871589	-0.18492
C	 0.7383057729	-1.9703219266	 1.3232975761	 0.009301
C	 1.868690764	-2.6597145258	 0.5028481803	-0.223396
C	 2.1040983765	-3.62117322	 1.6988665529	-0.251534
C	 1.3185764437	-2.6288762555	 2.6070027959	 0.113312
O	 2.146716193	-1.7110224091	 3.2890664426	-0.244112
C	 2.7291311179	-2.2408319868	 4.4561809203	-0.232483
H	 0.9208911996	 2.0728598009	 0.0701227247	 0.113499
H	-0.351008867	 1.9087077154	-1.1483507145	 0.107496
H	-0.7665682398	 1.9242399886	 0.5709758296	 0.111903
H	-0.8307960451	-0.4226532043	-0.3680154797	 0.088863
H	 0.8439082887	-0.2727229783	-0.8653230033	 0.096727
H	 1.5291912797	 0.0134739702	 1.547516203	 0.106161
H	-0.146834851	-0.1417121183	 2.0349256999	 0.088068
H	-0.2206366676	-2.4520749829	 1.0955137854	 0.066627
H	 1.5990240413	-3.1060837533	-0.4569987048	 0.092582
H	 2.718138718	-1.9876620116	 0.3501114104	 0.104838
H	 1.5771355431	-4.5726385158	 1.5833335015	 0.098036
H	 3.1384014913	-3.8259618262	 1.9855209434	 0.099442
H	 0.5953591336	-3.0686174841	 3.3107896994	 0.051381
H	 1.9630539517	-2.5687094298	 5.1769829796	 0.10246
H	 3.3865980569	-3.0974701588	 4.2445152559	 0.104628
H	 3.3260147421	-1.4466555744	 4.9117094933	 0.124836
