17
gdb 44386	3.75472	1.60614	1.44705	3.4748	72.35	-0.2435	0.0119	0.2554	925.7957	0.139646	-417.957608	-417.95138	-417.950436	-417.988088	26.028	
N	-0.0255038026	 1.2458920396	-0.4381476801	-0.548491
C	-0.0192569033	 0.0474485284	-0.0739053557	 0.419153
O	 1.0423679294	-0.7936168934	 0.2318610395	-0.277247
C	 0.1423400047	-1.9303412496	 0.4490112533	 0.113268
C	-0.1942951322	-2.2765588882	 1.902443462	-0.077863
C	-1.7260809997	-2.5229107063	 1.7231161518	-0.178127
N	-1.8215832268	-1.0226376326	 1.4469637721	-0.130984
C	-0.6839056506	-0.9162884934	 2.4505432387	-0.191093
C	-1.0803161113	-1.0167045152	 0.1516332992	-0.118253
H	 0.9229191634	 1.6228755882	-0.4939953663	 0.230184
H	 0.407749836	-2.765956594	-0.1980177398	 0.096803
H	 0.4697260429	-2.9473203347	 2.4480539993	 0.076543
H	-2.0733417743	-3.1661220874	 0.9088770912	 0.109202
H	-2.2455480819	-2.7709700041	 2.6503499021	 0.120148
H	-1.0915128576	-0.9830039171	 3.460310179	 0.114755
H	-0.0507292802	-0.0335185075	 2.3594984442	 0.131746
H	-1.7474033959	-1.2277445328	-0.6825757004	 0.110254
