21
gdb 58269	3.16235	1.01971	0.91035	1.6476	74.77	-0.2449	0.0706	0.3155	1374.9158	0.181129	-461.341939	-461.332072	-461.331128	-461.377008	36.372	
C	 0.0422455602	 1.5325808642	-0.1046750281	-0.409817
C	 0.0160210919	 0.018703267	 0.0741178862	 0.10675
O	 0.6301077897	-0.3837317366	 1.2978559367	-0.430303
C	-1.4156094046	-0.5571368961	-0.0155969163	 0.07879
O	-2.0762523323	-0.1336469484	-1.1958769267	-0.439662
C	-1.4070462621	-2.0816866233	 0.0540170863	 0.13455
C	-2.7603115828	-2.821359925	-0.0033637164	-0.299361
C	-2.1799961781	-3.4988055617	-1.2579806312	-0.064939
O	-1.0186696239	-2.6329121383	-1.2413770442	-0.316859
H	 1.0703840523	 1.9029882907	-0.0714891053	 0.119517
H	-0.4153798896	 1.8153377754	-1.0547003844	 0.137137
H	-0.5270073218	 2.0242624208	 0.6958817413	 0.10095
H	 0.6184415919	-0.4551796753	-0.7112330298	 0.100361
H	 0.2516322074	 0.1533525288	 2.0030158603	 0.277725
H	-1.998314899	-0.1691842158	 0.8334913865	 0.072372
H	-1.7483772038	-0.7299536359	-1.8850420693	 0.287605
H	-0.728339914	-2.4182885662	 0.8438250005	 0.096935
H	-2.9970318802	-3.4702542512	 0.8404340639	 0.108793
H	-3.6001290817	-2.1567602398	-0.2118806378	 0.124028
H	-1.8920617514	-4.5487080866	-1.1239265988	 0.107381
H	-2.7501936582	-3.3997870666	-2.1878213735	 0.108048
