21
gdb 40289	2.611	1.5198	1.17149	2.1509	78.17	-0.2517	0.0711	0.3228	1124.2849	0.184478	-424.208554	-424.200303	-424.199359	-424.241613	32.129	
C	-0.0429947576	 1.5314428474	-0.0364680567	-0.327573
C	 1.3059410438	 0.8558210611	-0.0128358944	-0.287679
C	 0.0507173708	 0.0225392933	 0.0152636675	 0.384712
C	-0.3407387198	-0.6897669504	 1.3005998249	-0.341287
C	 0.5704822041	-1.8700091662	 1.6852105671	-0.057028
O	 1.0848371976	-2.6442636847	 0.6087650182	-0.235012
C	 0.2514052866	-2.8916778357	-0.4881231892	 0.016001
O	 0.3595799421	-1.9212884955	-1.4935737154	-0.228474
C	-0.3476368645	-0.714847118	-1.2517050122	-0.156457
H	-0.3748770184	 2.0517801594	 0.8557545608	 0.110074
H	-0.3683860364	 1.9938770739	-0.9628014469	 0.111821
H	 1.8992946769	 0.8520667552	-0.9206513488	 0.120849
H	 1.8934859267	 0.9221573688	 0.8967582696	 0.11142
H	-0.3311897591	 0.0111018637	 2.1436789798	 0.100517
H	-1.3798249594	-1.0302284038	 1.2076536759	 0.103034
H	 1.4618131161	-1.4954303111	 2.1988135309	 0.111238
H	 0.0354556621	-2.5198849339	 2.3952333947	 0.090816
H	 0.6086871649	-3.8214458101	-0.9382990245	 0.11328
H	-0.8010414871	-3.0128538667	-0.174710447	 0.072285
H	-1.4316318815	-0.9220634	-1.218757568	 0.085796
H	-0.155449808	-0.0900042167	-2.1289539061	 0.101666
