17
gdb 63028	2.27415	1.8172	1.40432	1.4082	67.25	-0.2445	-0.03	0.2146	979.8492	0.134252	-458.973384	-458.965038	-458.964093	-459.006251	31.826	
C	 0.1846299112	 1.5662126726	-0.0663055322	-0.448559
C	 0.0437842309	 0.0512181522	-0.0154976024	 0.261764
O	-1.3201542971	-0.3680961699	 0.0394968649	-0.475753
C	 0.6746068778	-0.6857845483	-1.1784968301	 0.022761
O	 2.0956501986	-0.5287125822	-1.2054687264	-0.263583
C	 1.5585444797	-1.7588956348	-0.6940633976	 0.036558
C	 1.5611534068	-1.8057717585	 0.8145533418	-0.360352
C	 0.7564684112	-0.5664556398	 1.2246225552	 0.360514
O	 0.6076604204	-0.1523818489	 2.3445388049	-0.322497
H	 1.224684734	 1.8482292612	-0.2507382103	 0.141053
H	-0.4439449245	 1.9743639948	-0.8627537457	 0.122923
H	-0.1225984004	 1.997993922	 0.8917034852	 0.129968
H	-1.7000129047	 0.0079526994	 0.8426696652	 0.292318
H	 0.1659736907	-0.7161465518	-2.1380560366	 0.108529
H	 1.7741207615	-2.6440522994	-1.2851189367	 0.1071
H	 1.0622500154	-2.7041683219	 1.1976077547	 0.141353
H	 2.5642155585	-1.7734326667	 1.2493655862	 0.145903
