19
gdb 38053	3.44189	1.71148	1.46648	1.4274	78.4	-0.2217	0.0116	0.2333	944.9749	0.162097	-385.845732	-385.839066	-385.838122	-385.876843	28.187	
C	-0.0698330968	 1.5905896991	 0.1180646685	-0.279415
C	 1.4717707022	 1.3553863708	 0.0126894322	-0.130134
C	 1.6780052127	 0.5105529009	 1.2929712096	-0.082694
C	 0.6662964466	-0.3688572837	 1.2748716315	-0.168333
C	-0.0417784029	 0.0122060758	-0.0223208214	 0.429
O	-1.0665767573	-0.6964715734	-0.6330798569	-0.335648
C	-0.8405755797	-0.6317624864	-2.0594803012	-0.083222
C	 0.4068836349	 0.2737554862	-2.329622122	-0.317166
C	 1.1509446582	 0.1794272848	-0.9913095008	 0.00192
H	-0.4441249143	 2.0014768227	 1.0568232098	 0.094403
H	-0.5164321667	 2.1073188953	-0.7344315096	 0.092786
H	 2.1798121267	 2.154982366	-0.1981090835	 0.063959
H	 2.4618707783	 0.6449018357	 2.0249225058	 0.100128
H	 0.3925053446	-1.1512610063	 1.967042592	 0.108577
H	-0.6732139482	-1.6534574695	-2.421750296	 0.106288
H	-1.7436246436	-0.2438978387	-2.5425116903	 0.107947
H	 0.992887822	-0.1080789156	-3.168811433	 0.104976
H	 0.0969156275	 1.2898747815	-2.5824486462	 0.114048
H	 1.8792996957	-0.6351349349	-0.9869707187	 0.07258
