23
gdb 78024	2.24155	1.42157	1.22442	1.2502	84.95	-0.2419	0.0778	0.3196	1193.5833	0.205915	-388.29504	-388.285547	-388.284603	-388.328541	37.079	
C	-0.2230743334	 1.5226597208	 0.3050254548	-0.426878
C	 0.0604944968	 0.0513556964	 0.0750858569	-0.070718
C	 0.5771653064	-0.6307625193	-1.1933756089	-0.11593
C	 1.3081129094	 0.1311293869	-2.2945903516	 0.037299
C	 0.4244320217	 0.9773892362	-3.2156361916	-0.400701
C	 2.4144280671	 0.9384370459	-1.5618378724	-0.240262
C	 2.6668642384	 0.2097123129	-0.2207808996	-0.287546
C	 1.4136552343	-0.6182133427	 0.0578748922	 0.372859
O	 1.5906204276	-1.8076621133	 0.778044117	-0.471644
H	 0.5583146129	 2.180276663	-0.0775565986	 0.121398
H	-1.1657861561	 1.8200786323	-0.167905596	 0.119732
H	-0.321109565	 1.7259106042	 1.37799078	 0.111222
H	-0.6720425202	-0.5890191939	 0.5637106581	 0.085654
H	 0.0588046812	-1.5415248928	-1.4759530255	 0.084342
H	 1.8002478751	-0.6316333901	-2.914289418	 0.074225
H	-0.1069196738	 1.7539739401	-2.6558415785	 0.115302
H	 1.022606368	 1.4724452321	-3.9888649216	 0.108455
H	-0.3256984256	 0.3602810053	-3.7214271458	 0.110944
H	 3.3249531828	 1.0095352867	-2.1641888425	 0.097086
H	 2.0811639479	 1.9668231785	-1.3943548225	 0.10214
H	 3.4975896743	-0.4984287483	-0.310887676	 0.108481
H	 2.921796595	 0.9035353497	 0.5893937185	 0.087246
H	 1.6528153653	-1.5818071406	 1.7123668916	 0.277296
