14
gdb 132364	1.99569	1.83081	0.9605	2.519	67.08	-0.2636	-0.0325	0.2311	1129.5625	0.101391	-478.058412	-478.050869	-478.049925	-478.090955	27.863	
C	-0.0612373312	 1.5061920738	 0.0626041479	-0.467594
C	 0.0166951991	 0.0094576443	-0.0241138654	 0.339433
C	-0.0595606201	-0.6660434971	-1.2325324937	-0.272369
C	 0.0263617082	-2.0594681685	-1.1718992265	 0.453881
O	-0.0398075055	-2.7761832023	-2.2997155663	-0.403904
N	 0.1733170157	-2.7224897548	-0.0281116739	-0.41265
C	 0.2317785584	-1.9555076688	 1.0497839596	 0.338488
F	 0.3775639118	-2.6099959376	 2.1867499082	-0.056851
N	 0.1657268628	-0.6482401507	 1.1451692759	-0.373043
H	 0.8445030176	 1.8996634861	 0.5344946386	 0.151708
H	-0.1799627121	 1.9652066691	-0.9207894506	 0.126243
H	-0.9026464939	 1.7992763173	 0.6982702904	 0.151709
H	-0.1789313183	-0.1578484965	-2.1793382437	 0.117001
H	 0.0381790673	-3.7063381442	-2.0418375904	 0.307948
