21
gdb 91178	2.0034	1.78987	1.59092	1.4516	82.41	-0.2396	0.0182	0.2578	1028.3227	0.183407	-387.095193	-387.086893	-387.085949	-387.127608	33.497	
C	 0.2604432792	 1.5743690961	-0.0263116641	-0.484842
C	-0.0366193041	 0.0838532706	 0.0495791672	 0.319915
C	-1.5384984847	-0.269390058	 0.0510201005	-0.32725
C	-1.6256817927	-1.4224060404	 1.0255079213	-0.084311
C	-0.4741915512	-1.6491479015	 1.6634065772	-0.089069
C	 0.6216742029	-0.7098174859	 1.2367823403	-0.096281
C	 1.6696149926	-1.314745864	 0.2571283697	-0.267465
C	 0.8449220737	-0.7736529197	-0.945192046	 0.093295
O	 0.1818921315	-1.7428094149	-1.7269378273	-0.430816
H	 1.3382805328	 1.7727520457	-0.0038864301	 0.111256
H	-0.1341239425	 2.0054490051	-0.9540138662	 0.118543
H	-0.1930789532	 2.1134417554	 0.8131101603	 0.113503
H	-2.1599064531	 0.5761066087	 0.3778891037	 0.09954
H	-1.884055394	-0.5431357522	-0.9526672572	 0.11769
H	-2.5441558125	-1.9772774254	 1.1893877367	 0.092968
H	-0.3206934429	-2.4206718118	 2.411899656	 0.092312
H	 1.0360193861	-0.1349210333	 2.072369799	 0.066462
H	 2.6589575451	-0.8565511001	 0.3411177413	 0.100619
H	 1.7905393648	-2.4020267783	 0.2784367676	 0.09405
H	 1.4087860839	-0.1661180881	-1.6589198213	 0.079923
H	-0.2543005118	-2.3576681979	-1.1259018986	 0.279957
