21
gdb 103922	3.341	1.10498	1.03255	1.9716	79.11	-0.235	0.0629	0.2979	1266.7064	0.180996	-424.196569	-424.187147	-424.186203	-424.230186	36.594	
C	 0.0532016126	 1.5643148502	 0.063191674	-0.49947
C	 0.042597076	 0.0646822515	-0.0008512816	 0.373496
C	-0.8887558419	-0.7927545126	 0.8058977121	-0.344782
C	 0.5995714174	-0.9697091174	 0.9850476961	-0.144271
C	 1.2100066731	-1.7772024293	-0.158063512	 0.445044
O	 2.619588746	-1.6636015468	-0.0967750034	-0.496874
C	 0.8414522123	-3.2493486175	-0.283818278	-0.145889
O	 1.5129052676	-3.7265209813	-1.4508397453	-0.436627
C	 0.57734055	-0.7653315187	-1.1826928693	-0.347454
H	 1.0376621377	 1.9658920281	-0.201889377	 0.121589
H	-0.6797094774	 1.9972310092	-0.6291004124	 0.116522
H	-0.1947387634	 1.9196921143	 1.0691251493	 0.114581
H	-1.3823209235	-0.2919381513	 1.6337420959	 0.108423
H	-1.499668948	-1.5597682118	 0.3350480026	 0.099681
H	 1.0949758591	-0.8212056506	 1.9376166789	 0.086318
H	 2.9530637175	-2.2601712752	-0.7801021561	 0.281825
H	 1.1855639078	-3.780597947	 0.6157364004	 0.09428
H	-0.2450966512	-3.3817782353	-0.3722532178	 0.088113
H	 1.46481299	-4.6861228322	-1.4646290928	 0.293948
H	-0.1704478601	-1.1482625418	-1.8856308101	 0.08525
H	 1.3729617383	-0.2620558148	-1.7351198136	 0.106297
