22
gdb 7816	2.95079	1.68811	1.15628	0.2749	85.24	-0.2256	0.033	0.2586	1120.5178	0.201406	-313.106019	-313.097542	-313.096597	-313.138461	32.956	
C	-0.08516041	 1.5593996636	-0.0036571897	-0.397242
C	-0.0024314329	 0.0250673672	-0.0134623892	-0.001315
C	 0.6855186678	-0.4970607249	-1.2846794669	-0.192972
C	 1.0114807557	-1.9884394472	-1.1662410697	-0.21771
C	 1.9683131608	-2.2446569939	 0.0052276394	-0.27521
C	 1.5819470038	-1.48501905	 1.2558432657	 0.302635
C	 2.265644677	-1.914855433	 2.5255617998	-0.473387
C	 0.6899597397	-0.4908804714	 1.2266169009	-0.130017
H	 0.9162010644	 2.0043831793	 0.0022095771	 0.114319
H	-0.6144439381	 1.9296723736	-0.8882735359	 0.10763
H	-0.6167011917	 1.9229625621	 0.8823062008	 0.108714
H	-1.0381318027	-0.3532880016	-0.0079034727	 0.075613
H	 0.0517438686	-0.3050297961	-2.1581927974	 0.086332
H	 1.6163718581	 0.0657101334	-1.4419012455	 0.090891
H	 0.0814404458	-2.5487658177	-1.0038814554	 0.096253
H	 1.4459221238	-2.3660648022	-2.0983407445	 0.088293
H	 2.0121470882	-3.3186855869	 0.2313580923	 0.095224
H	 2.9959214655	-1.9690372041	-0.2783765605	 0.102105
H	 3.3574908631	-1.843076427	 2.430091138	 0.118796
H	 1.9600329736	-1.3036230122	 3.3791135108	 0.116637
H	 2.0459856667	-2.9648036581	 2.7601422803	 0.118239
H	 0.4341583629	 0.0124692271	 2.1589022024	 0.066172
