19
gdb 71164	2.61749	1.83619	1.47255	1.3735	78.9	-0.2403	0.0691	0.3094	968.3272	0.159585	-385.820521	-385.81311	-385.812166	-385.851766	31.058	
O	-0.0272043669	 1.4353074484	 0.0001636732	-0.472193
C	 0.0672367726	 0.061675731	 0.0766927345	 0.303845
C	-1.2250294672	-0.7598826055	-0.1217678604	-0.265733
C	-0.5304022667	-1.844908419	 0.7064485799	-0.07452
C	 0.9642278215	-1.8236088996	 0.3326269866	-0.162143
C	 0.4064863333	-0.8578804664	 1.3520302375	-0.171962
C	 1.1301038241	-0.7351389592	-0.7019262022	 0.370326
C	 1.402168691	-0.7715527631	-2.1697397955	-0.33882
C	 2.4197296478	-0.1720093146	-1.2083142108	-0.366335
H	 0.8558618506	 1.8045542494	 0.1173047337	 0.282675
H	-2.0598903521	-0.317014763	 0.4280062018	 0.102553
H	-1.52113269	-0.9785133607	-1.1536348837	 0.092028
H	-0.9801298045	-2.719665471	 1.1575117084	 0.086668
H	 1.608098829	-2.6751391916	 0.5104911656	 0.085113
H	 0.6662349643	-0.6571022821	 2.3811634327	 0.090205
H	 1.6398283762	-1.7239854183	-2.632653378	 0.111598
H	 0.8554089822	-0.0857587475	-2.8100794207	 0.114951
H	 2.5465033023	 0.907825103	-1.2326036119	 0.098
H	 3.3392038627	-0.7174871201	-1.0213188907	 0.113744
