17
gdb 61954	6.53629	0.58688	0.55779	1.2055	74.21	-0.306	0.0131	0.3191	1853.1672	0.134632	-418.037389	-418.027548	-418.026604	-418.073242	34.041	
O	-0.1414767559	 1.3773469008	-0.0149047733	-0.414058
C	-0.0164016538	-0.0322649499	 0.0042273366	 0.122836
C	 0.6737820881	-0.5670217531	-1.2573207527	-0.209696
C	-0.0639734862	-0.1149740236	-2.5320018151	-0.343675
C	 0.6266400943	-0.5290733983	-3.7497797259	 0.256102
N	 1.19013484	-0.8649958958	-4.7009686223	-0.300067
C	 0.7113457639	-0.5264852814	 1.2745049161	-0.379796
C	 0.0665338936	-0.0755907285	 2.5051420916	 0.273161
N	-0.4450366423	 0.2720997186	 3.4804778186	-0.294458
H	 0.7385418912	 1.7691339537	 0.0366514133	 0.289066
H	-1.0488919984	-0.3993643581	 0.0352810085	 0.119339
H	 1.7099996588	-0.2065447839	-1.2888370562	 0.118433
H	 0.7211277849	-1.6607144215	-1.2234989434	 0.127919
H	-1.0803551613	-0.5253963787	-2.5476693979	 0.156927
H	-0.166419226	 0.9745255092	-2.5254590814	 0.16917
H	 0.7553315628	-1.6213883911	 1.2780612577	 0.160593
H	 1.7500344564	-0.1708686284	 1.2674124157	 0.148205
