16
gdb 27181	3.15392	1.35511	1.02422	3.7947	73.39	-0.1908	0.0267	0.2175	1137.8704	0.125577	-434.060365	-434.052442	-434.051497	-434.093441	29.829	
O	 0.3025908413	 1.3617053007	-0.016511762	-0.432603
C	 0.1404547733	 0.0212716763	-0.0161264509	 0.279694
C	-0.1035379544	-0.7781828714	-1.1067015897	 0.248506
N	-0.1857893206	-2.0666364662	-0.5609294804	-0.309852
C	 0.0083058222	-1.9564650849	 0.7766327413	 0.007227
N	 0.2084013829	-0.7054754382	 1.1383472071	-0.337074
N	-0.2434573459	-0.4320749279	-2.4531805849	-0.156872
C	 0.2653995389	-1.3127133685	-3.5055752787	-0.230113
C	-1.2010347683	-1.1355526009	-3.3076558958	-0.230123
H	 0.4567035549	 1.6091934299	 0.9031826402	 0.298037
H	-0.3571525803	-2.9194485756	-1.0653615475	 0.263308
H	-0.0054223763	-2.8089900438	 1.4385917455	 0.130197
H	 0.7758545502	-0.8136744471	-4.3244718365	 0.128573
H	 0.7051237137	-2.2646693587	-3.2135223032	 0.106266
H	-1.7592030645	-1.9669595154	-2.8809421289	 0.106255
H	-1.7763367771	-0.5053464381	-3.9800137256	 0.128573
