18
gdb 30135	3.71249	1.07168	1.05403	2.0603	78.59	-0.2115	0.0342	0.2457	1221.3005	0.150181	-398.145614	-398.13756	-398.136615	-398.178693	30.513	
C	 1.1592104811	 1.0494278258	-0.7119845828	-0.396303
C	 0.1250852706	 0.1440293554	-0.093984784	 0.022655
N	 0.5897420379	-1.1399059813	 0.4524464326	-0.345431
C	 0.0355434383	-0.1351210023	 1.3766499017	-0.161354
C	 0.9578871985	 0.4233462676	 2.3859428535	 0.32151
C	 2.2819576935	 0.1278697109	 2.5934360209	-0.18531
N	 2.6662836638	 0.911496016	 3.6599540875	-0.234231
C	 1.5754844668	 1.6299794903	 4.0480013737	 0.008607
N	 0.5284921406	 1.3613613693	 3.3038975708	-0.319258
H	 2.0659931405	 1.0765964334	-0.1036549692	 0.125
H	 1.4292852916	 0.7008247261	-1.7146694391	 0.114407
H	 0.7727688365	 2.0705619313	-0.7993588138	 0.117136
H	-0.8326655427	 0.1318597943	-0.6141473448	 0.080467
H	-0.0886624423	-1.8761680511	 0.281137504	 0.230585
H	-0.9731331349	-0.287693433	 1.7562425887	 0.087543
H	 2.9502609232	-0.5565541968	 2.1010922035	 0.141612
H	 3.5805289309	 0.9368363476	 4.0786649	 0.26566
H	 1.606111376	 2.3243843265	 4.8745271668	 0.126705
