20
gdb 58736	3.03457	1.38071	1.24508	1.5099	78.15	-0.2264	0.067	0.2935	1102.334	0.171226	-403.06951	-403.061153	-403.060208	-403.102481	32.544	
C	 0.0195235013	 1.5520069667	 0.1527148799	-0.408929
C	-0.0090312877	 0.0298455828	 0.0121679239	-0.048912
O	 0.7637522205	-0.6229046561	 1.0163800656	-0.4215
C	-1.4067836823	-0.5130132041	 0.024255563	 0.415899
C	-2.4127511426	-0.8276152629	 1.0981382413	-0.153456
C	-3.4053590617	 0.0797821981	 0.3949818321	-0.174286
N	-2.5896160292	-0.055029781	-0.8776729668	-0.219536
C	-2.7952716537	-1.5235866916	-1.2053353187	-0.176704
C	-2.0077242429	-1.8844543718	 0.0406178334	-0.146663
H	 1.049504839	 1.9160727275	 0.11047851	 0.121125
H	-0.5601101609	 2.0196900793	-0.6481458865	 0.141407
H	-0.4188427202	 1.85879428	 1.1103641067	 0.104698
H	 0.4741695749	-0.2476324155	-0.9333149327	 0.096669
H	 0.4335911673	-0.3204727115	 1.8702290173	 0.279398
H	-2.2471235681	-1.0057964762	 2.1540095299	 0.084809
H	-4.4525548309	-0.2288866913	 0.2960913449	 0.096672
H	-3.3604157904	 1.1140165236	 0.7459281703	 0.106811
H	-3.8452844487	-1.8237665213	-1.2990168541	 0.095709
H	-2.2612485458	-1.7656189516	-2.1279273227	 0.109168
H	-1.5324657579	-2.8121938132	 0.3327707034	 0.097622
