18
gdb 50318	3.52719	1.23078	1.00033	2.5888	78.05	-0.2242	-0.0289	0.1954	1176.7067	0.148221	-401.93154	-401.923714	-401.922769	-401.964351	29.808	
O	-0.4929242966	 0.6278380001	-0.6822535532	-0.240581
C	 0.2199641375	 0.9286626385	 0.2389807923	 0.150687
C	 1.358654404	 1.9298330213	 0.1695700396	-0.137115
C	 1.4141899109	 2.6414925532	-1.1883171778	-0.166146
N	 2.4316287905	 3.7086110078	-1.2274754708	-0.108076
C	 1.9294091871	 5.0837384587	-1.2302659234	-0.244696
C	 2.5775960924	 4.516285144	-0.0117972687	-0.048707
C	 1.8084190848	 4.1360326294	 1.1971191416	-0.083496
C	 1.2719891634	 2.9221264618	 1.3097684009	-0.081709
H	 0.0873667917	 0.4630405824	 1.2439930505	 0.081714
H	 2.2705184931	 1.3226120499	 0.3134200848	 0.121547
H	 1.6452669445	 1.9229015775	-1.9800306818	 0.118727
H	 0.4118559526	 3.0324131792	-1.4014518634	 0.111765
H	 2.4687468678	 5.7855225154	-1.8614606738	 0.115437
H	 0.8508450536	 5.2264628618	-1.1988500158	 0.113804
H	 3.606485096	 4.8186031499	 0.187926258	 0.10054
H	 1.753162357	 4.8524886807	 2.012517956	 0.099933
H	 0.7530381298	 2.6205143184	 2.216210445	 0.096373
