17
gdb 52131	4.01543	0.94944	0.80469	3.9962	71.2	-0.2266	-0.017	0.2096	1384.9623	0.136132	-455.167549	-455.158655	-455.157711	-455.202757	30.666	
O	 0.6153607969	 1.1445572202	 1.32354891	-0.243071
C	 0.6391539062	 1.8406491207	 0.3456744716	 0.187942
C	 1.2469021818	 1.3902918825	-0.9816320239	-0.25075
N	 1.429525009	 2.4995297254	-1.8964716878	-0.382978
C	 2.3818507206	 3.4289751367	-1.600915924	 0.504729
N	 2.9856953885	 3.547762424	-0.4831604393	-0.353392
C	 3.8333493724	 4.73692697	-0.6089080068	-0.180566
C	 3.6748707663	 5.1783817111	-2.0910843013	-0.11076
O	 2.6452835697	 4.3037120132	-2.6078594303	-0.269515
H	 0.1805296006	 2.8526066534	 0.3172032853	 0.090288
H	 2.1788047177	 0.8534719569	-0.7645347561	 0.146563
H	 0.5453455849	 0.6826738313	-1.4369974219	 0.135442
H	 1.2684159569	 2.3439350985	-2.8780502824	 0.259003
H	 3.5052770716	 5.5177313531	 0.0880588899	 0.112751
H	 4.8734202299	 4.5002217434	-0.3611129736	 0.11376
H	 3.3377732571	 6.2104030165	-2.2140004488	 0.121989
H	 4.5808735899	 5.0266930031	-2.6856937907	 0.118563
