22
gdb 8311	4.69398	0.9509	0.90191	1.4488	79.31	-0.2395	0.0926	0.3321	1415.2708	0.199312	-350.205688	-350.196351	-350.195407	-350.240319	33.98	
C	-0.0876861951	 1.4982322073	-0.2914863891	-0.381736
C	-0.0857944621	-0.0250545979	-0.1419531869	-0.161161
C	-1.4762968873	-0.6021534553	 0.1470481481	-0.186148
C	-1.4747894084	-2.1160298078	 0.2521636835	 0.165374
C	-2.8219926321	-2.8684401606	 0.2642495322	-0.328472
C	-2.2383045845	-3.6469714109	-0.9353057462	 0.181975
C	-3.0101642066	-3.6810317711	-2.2379917776	-0.397733
O	-1.0916981246	-2.7625315987	-0.9890338337	-0.315451
H	 0.9168129882	 1.8799587877	-0.4994646723	 0.111265
H	-0.7399094488	 1.8144144151	-1.1133632259	 0.113542
H	-0.4475743318	 1.9874920813	 0.6208934055	 0.110154
H	 0.3003076777	-0.4907373205	-1.0557242196	 0.118572
H	 0.600536661	-0.3151771333	 0.66473095	 0.091416
H	-1.8699345028	-0.1889839395	 1.086888691	 0.090059
H	-2.1734299672	-0.3044503106	-0.6473547467	 0.091333
H	-0.8024490185	-2.4332099906	 1.0646313863	 0.065326
H	-3.0599996639	-3.4444977874	 1.1596647986	 0.103493
H	-3.6755967954	-2.237535708	 0.0010202755	 0.102089
H	-1.9182204996	-4.6635405028	-0.6620748257	 0.069097
H	-3.3533035061	-2.6787269654	-2.5125873105	 0.116922
H	-2.3781857588	-4.0607494536	-3.0472531208	 0.126181
H	-3.8824181135	-4.3382003674	-2.1487118757	 0.113901
