11
gdb 2963	5.07601	2.21178	1.6113	4.6527	53.87	-0.2885	-0.0696	0.2189	712.4545	0.078321	-339.431197	-339.424648	-339.423704	-339.462075	22.117	
O	-0.1299193481	 0.0180283499	-0.2371809187	-0.30238
C	-0.1282603412	 1.1891460771	 0.0533546479	 0.296144
C	 1.1020707656	 2.0022238819	-0.015030636	 0.241574
N	 2.0732709193	 2.621304714	-0.1088255914	-0.314623
N	-1.1991136744	 1.8987398413	 0.5463150042	-0.074823
C	-1.8048927237	 3.0765100272	-0.051543186	-0.225891
C	-2.5506815298	 1.7756310251	 0.0529152349	-0.220889
H	-2.0297793534	 3.8869739123	 0.6344174721	 0.148372
H	-1.4492594873	 3.3808593619	-1.0320295915	 0.152417
H	-2.6913535796	 1.1881170497	-0.8498389445	 0.153584
H	-3.3183551374	 1.6586353996	 0.8113535892	 0.146515
