17
gdb 128361	4.77186	0.91837	0.78174	2.3419	71.57	-0.2267	-0.0029	0.2237	1445.727	0.137058	-451.324031	-451.314769	-451.313825	-451.359306	32.17	
C	-0.0937609679	 1.3135870571	-0.0607522329	-0.324328
N	 0.2519532701	-0.0963518201	-0.0427524681	-0.377825
C	 0.7431792293	-0.6668070542	 1.090148646	 0.44543
N	 0.7087011535	-0.0915847455	 2.2734813361	-0.228913
O	 1.2688073752	-1.0940194938	 3.1107033316	-0.210992
C	 1.5797332048	-2.1214447636	 2.321913909	 0.421851
C	 2.2101069206	-3.3375356237	 2.9464700954	-0.285345
N	 2.4794097074	-4.4386603156	 2.035839209	-0.485601
N	 1.2902217685	-1.9371815618	 1.0700698947	-0.393759
H	 0.7733935754	 1.9688173348	 0.100248742	 0.128313
H	-0.549557277	 1.5534982089	-1.0233656151	 0.126818
H	-0.819544121	 1.5190460973	 0.7302645441	 0.157555
H	 0.6088642549	-0.5036328104	-0.8919795456	 0.255623
H	 3.1442719683	-3.0286950543	 3.4312745603	 0.145416
H	 1.55742949	-3.6835066432	 3.7567925265	 0.146002
H	 1.6123972427	-4.7193806082	 1.5861534127	 0.239959
H	 3.0725310951	-4.1083160037	 1.2796835842	 0.239796
