21
gdb 59669	2.69124	1.21013	1.08399	1.7627	78.16	-0.2517	0.069	0.3206	1244.513	0.180508	-424.188389	-424.178933	-424.177988	-424.222719	35.106	
C	 0.8932916301	-0.449812835	-1.2700963681	-0.39961
C	 0.0709263725	 0.0480379325	-0.0741136718	 0.00662
C	-0.0909832755	 1.5755012586	-0.1129288248	-0.391908
C	-1.3023216747	-0.6166533163	 0.0096469626	 0.062687
O	-2.0657252679	-0.5138050719	-1.2266019305	-0.300833
C	-2.3103785185	-1.9362775048	-1.280908647	-0.146672
C	-1.4489656905	-2.1392354417	-0.0410403251	 0.355605
C	-0.5811287299	-3.2341348894	 0.3852678649	-0.260246
O	-1.8121904413	-2.9374227777	 1.0639590755	-0.265877
H	 1.8714699838	 0.0398391604	-1.2951931479	 0.110917
H	 1.0631517997	-1.5299927223	-1.229463729	 0.109596
H	 0.3755877764	-0.2241635097	-2.206771877	 0.133078
H	 0.5947486921	-0.2195361015	 0.8557657917	 0.076688
H	-0.6613810697	 1.8773479761	-0.9974031171	 0.135151
H	-0.6213478663	 1.9440249652	 0.7713151174	 0.112062
H	 0.8836278047	 2.0716847702	-0.153213033	 0.110168
H	-1.8721832301	-0.193131759	 0.8497686037	 0.085378
H	-3.3685336734	-2.1867186687	-1.1343657383	 0.115699
H	-1.9511366782	-2.3823813054	-2.2158646006	 0.10947
H	-0.5706790049	-4.1667768022	-0.1778521845	 0.120062
H	 0.3249348018	-3.0244327976	 0.9520040989	 0.121966
