21
gdb 70446	2.89044	1.24072	1.01802	1.7071	82.72	-0.2409	0.0878	0.3286	1257.1149	0.181815	-387.046896	-387.038147	-387.037203	-387.08044	33.746	
C	-0.0804994085	 1.507060274	-0.0511139598	-0.505588
C	 0.1528049001	 0.03224792	-0.0078798358	 0.412146
O	-0.770366492	-0.7776269329	 0.7407545907	-0.292126
C	 0.6299233073	-0.8818503952	 1.0452937286	-0.040556
C	 1.233917428	-1.8516999082	 0.0259497987	-0.275587
C	 0.7299725755	-0.8864930305	-1.1153836589	-0.063974
C	-0.2375488405	-1.4169462452	-2.1370819814	 0.026191
C	-0.4150106935	-0.7168026321	-3.4633783726	-0.274371
C	 0.2629200674	-2.0632101067	-3.4049986153	-0.275489
H	 0.8182717677	 2.0339138873	-0.3882367922	 0.121001
H	-0.8926672961	 1.7508841761	-0.745121699	 0.133561
H	-0.3557754469	 1.879533904	 0.9393148362	 0.13234
H	 0.9238110785	-0.6881906195	 2.071188326	 0.097638
H	 2.3235362264	-1.9198153437	 0.0717683457	 0.100904
H	 0.8032734172	-2.8561002318	 0.0360962124	 0.108199
H	 1.5829156624	-0.4073837838	-1.6094143225	 0.065962
H	-1.1327799541	-1.8479467025	-1.6991351802	 0.095228
H	-1.4118375775	-0.6582865297	-3.8862692841	 0.111477
H	 0.203249236	 0.1517130575	-3.6678254691	 0.10583
H	 1.3355427246	-2.0967641059	-3.5681735573	 0.106819
H	-0.269446082	-2.9265108613	-3.7888402402	 0.110394
