15
gdb 133782	3.59983	0.82257	0.76612	1.898	58.56	-0.2617	0.0105	0.2722	1450.8316	0.106981	-585.442899	-585.43332	-585.432376	-585.47908	31.925	
C	 0.280552978	 0.9728289846	 0.3729210112	-0.255341
O	-0.2128289583	 0.1124576298	-0.6497885018	-0.196472
C	 0.6127446893	-0.8853800516	-1.0146354552	 0.148968
N	 0.2464479632	-1.6883816951	-1.9135614428	-0.249616
C	 1.075147912	-2.7796718065	-2.3560861692	-0.247356
C	 2.4477633226	-2.9775904495	-1.7188472765	 0.246043
F	 2.3671552434	-3.1911425311	-0.3930383341	-0.084801
F	 3.0612340801	-4.0383937689	-2.2617659384	-0.069703
F	 3.249346702	-1.9117760013	-1.895932795	-0.084793
H	 0.469069514	 0.423149541	 1.3026600083	 0.13198
H	 1.199626482	 1.4819244771	 0.0595090132	 0.131979
H	-0.4977097525	 1.7159981466	 0.5485104658	 0.149113
H	 1.5625672705	-0.900587872	-0.4696752915	 0.097787
H	 0.5313072496	-3.7216233961	-2.2155881859	 0.141106
H	 1.2470878439	-2.6835890572	-3.4349633081	 0.141107
