19
gdb 109332	1.92302	1.72405	0.92982	2.8357	79.66	-0.2388	-0.0136	0.2252	1257.8533	0.159842	-419.25888	-419.249703	-419.248759	-419.293841	32.384	
C	-0.0452686894	 1.5850627788	 0.0630036657	-0.379614
C	 0.0163223008	 0.0601817651	-0.0235953847	-0.26586
C	 0.7177531386	-0.428442522	-1.2560745629	 0.391602
N	 1.2163812418	 0.3313806292	-2.1496562466	-0.289479
C	 1.8169981027	-0.4965662767	-3.199200284	-0.177127
C	 1.59539697	-1.9759381484	-2.7813603367	-0.204968
N	 0.8731486254	-1.8167786388	-1.5088314431	-0.125344
C	 0.4538129855	-2.8790932119	-0.7527383001	 0.14396
O	-0.1431906248	-2.8223071384	 0.2994973267	-0.318514
H	 0.9566740386	 2.0208689993	 0.0730109884	 0.129221
H	-0.5752087565	 2.0082006548	-0.7937443008	 0.129254
H	-0.5650629473	 1.8848701691	 0.977355188	 0.109183
H	 0.517328863	-0.3689910102	 0.8510208963	 0.138095
H	-0.9860218048	-0.3813121708	 0.0002089827	 0.138146
H	 1.3482070565	-0.2672127089	-4.1618377076	 0.121767
H	 2.8799153543	-0.2524427468	-3.2971553672	 0.121773
H	 0.9914081247	-2.5331235676	-3.5037874057	 0.126903
H	 2.5341675912	-2.5172531307	-2.6300427277	 0.126883
H	 0.7317884396	-3.839971795	-1.2293291605	 0.08412
