19
gdb 35790	3.58353	1.16607	0.9788	3.9485	79.46	-0.235	0.0345	0.2695	1211.5275	0.162205	-382.068573	-382.060722	-382.059778	-382.101082	30.447	
N	 0.0560687242	-1.1803628604	-0.0091972215	-0.3221
C	 0.0097227783	-0.0252221891	-0.0027360337	 0.262883
C	-0.0323498478	 1.4354727735	 0.0226818863	-0.146909
C	-0.7503885108	 1.9729709636	 1.2768912726	-0.217011
C	-0.8975272236	 3.4931417729	 1.1456460143	-0.247222
C	 0.3972168484	 4.1874298372	 0.7610200257	 0.01157
C	 1.6653987749	 3.9398548275	 1.491898733	-0.246954
N	 1.5042466812	 3.4567602874	 0.1192170825	-0.102941
C	 1.4061993738	 2.0055843043	-0.0803026953	-0.158237
H	-0.6001896941	 1.7618964988	-0.8589485031	 0.128173
H	-1.7342138162	 1.5072853061	 1.3788498262	 0.123192
H	-0.1774563688	 1.6984930569	 2.1695167041	 0.119735
H	-1.6462836721	 3.7025407271	 0.3709371696	 0.110939
H	-1.2870332638	 3.924234718	 2.0749074263	 0.113991
H	 0.2518830926	 5.1796437798	 0.3367802462	 0.095515
H	 2.392068521	 4.7370569589	 1.6270061276	 0.11735
H	 1.6542629488	 3.2039584522	 2.2946941253	 0.109521
H	 2.0421448823	 1.4876072172	 0.6466709396	 0.121642
H	 1.8041874418	 1.7717173882	-1.0730322358	 0.126862
