18
gdb 30407	2.48998	1.59205	0.9828	5.0958	87.26	-0.1965	-0.0098	0.1867	1194.8757	0.148727	-398.171408	-398.162552	-398.161608	-398.205337	32.369	
C	 0.0890457833	 1.4051789259	-0.099431545	-0.326567
N	 0.1645256759	-0.0413167318	-0.0681719665	-0.317884
C	 0.5605999737	-0.6383525418	 0.9942946384	 0.29148
N	 0.9425533736	 0.0330347827	 2.1790401661	-0.322964
C	 1.3255368763	-0.6503008597	 3.1930761138	 0.091019
N	 1.4008360121	-2.0121561653	 3.2351603435	-0.317174
C	 1.0421710497	-2.7410870473	 2.1096844475	-0.090439
C	 0.6266381517	-2.1123676619	 0.9949430483	 0.224184
C	 0.2288500217	-2.8518690414	-0.2444219216	-0.472804
H	 0.7175105139	 1.7795902468	-0.9180706245	 0.110659
H	-0.938992704	 1.7056790007	-0.3406242112	 0.110668
H	 0.3917236606	 1.8958662616	 0.8317780812	 0.12262
H	 1.6222769202	-0.1445523562	 4.1116098185	 0.123551
H	 1.7121015716	-2.4773344348	 4.0708071445	 0.265017
H	 1.1205384566	-3.81782655	 2.1968567058	 0.122995
H	 0.3219477324	-3.9343410053	-0.115934262	 0.100528
H	-0.8024008056	-2.607852818	-0.5188403558	 0.142554
H	 0.8450483063	-2.5341382742	-1.0915781912	 0.142555
