15
gdb 77063	3.21847	1.059	0.87239	2.6116	66.52	-0.2665	0.002	0.2685	1263.2004	0.111993	-453.972336	-453.963477	-453.962533	-454.006837	31.035	
O	 0.0969737755	 1.4652410459	 0.0921015162	-0.424504
C	 0.084567796	 0.063199363	 0.0461897641	-0.046439
C	-1.3335085404	-0.5961692426	 0.1248028973	 0.014836
C	-2.506656046	 0.3944707681	 0.1336482193	-0.335742
C	-3.7648849458	-0.2743460827	-0.1859295847	 0.250508
N	-4.7379720119	-0.8374625552	-0.4534731382	-0.302395
N	-1.0392218723	-1.2000757202	-1.1789846194	-0.32932
C	 0.1640905531	-0.5696439981	-1.3693124276	 0.40021
O	 0.940213279	-0.5007878862	-2.2834813305	-0.357843
H	 0.7276652667	 1.7711708311	-0.5703858594	 0.309249
H	 0.7943798479	-0.3769160656	 0.7580346062	 0.110168
H	-1.4516019484	-1.3317202559	 0.9258655723	 0.11041
H	-2.5826395224	 0.863765673	 1.1202831368	 0.165688
H	-2.3200550262	 1.1944505901	-0.5876631045	 0.165175
H	-1.5971862247	-1.7921295346	-1.7787524677	 0.269998
