21
gdb 41518	2.85024	1.52753	1.06979	0.0896	90.64	-0.2266	0.0203	0.2468	1169.6089	0.185024	-349.955729	-349.947963	-349.947019	-349.987731	31.539	
C	 0.0021121471	 1.6020178044	-0.0155410276	-0.242272
C	 1.5599881839	 1.5400203592	 0.0401613407	-0.312295
C	 1.4178770767	 0.1069657215	 0.5220222151	 0.348963
C	 2.1433929361	-0.6628384757	 1.322518169	-0.219002
C	 1.7442753841	-2.0082879922	 1.8731696919	-0.231069
C	 0.4898170114	-2.643721552	 1.2410407223	-0.26386
C	-0.7913400145	-1.863697841	 1.4435811369	-0.0652
C	-1.0303871143	-0.6750267925	 0.8909158237	-0.066099
C	-0.0279273477	 0.0398644657	 0.0340325667	-0.105961
H	-0.4158952585	 2.03468737	 0.8972986708	 0.106595
H	-0.4537688231	 2.0836655189	-0.8833512785	 0.095697
H	 2.0022509473	 1.6093330752	-0.9608152572	 0.106458
H	 2.0774663683	 2.2458048227	 0.6953567032	 0.106185
H	 3.1153736209	-0.2924207804	 1.6489474304	 0.074606
H	 2.5862238282	-2.7040337997	 1.7506571728	 0.098838
H	 1.5989473131	-1.9204123144	 2.9603158077	 0.10657
H	 0.675765322	-2.7707944844	 0.1658652345	 0.109389
H	 0.3706733429	-3.6518049874	 1.650918921	 0.093765
H	-1.5571719616	-2.3215810896	 2.0653276665	 0.083559
H	-1.9850321908	-0.178690835	 1.0554385527	 0.084143
H	-0.0685427815	-0.3423961232	-0.9981849724	 0.090992
