18
gdb 35061	2.40536	1.50102	1.4718	4.1175	75.18	-0.2456	0.0246	0.2702	1018.2952	0.150267	-401.952697	-401.945038	-401.944094	-401.984936	29.607	
N	-0.3457183207	-1.1272868064	-0.1323671695	-0.36114
C	-0.2162388817	 0.0229133233	-0.0888966149	 0.319311
C	-0.0599770831	 1.4424738631	-0.021436584	-0.252229
C	 0.4858395895	 2.1032891773	 1.2606319912	-0.096252
C	 0.9447295004	 1.2527194088	 2.4422453935	-0.244131
C	 2.4551349695	 0.9819658824	 2.3552150422	-0.209945
C	 2.8221550325	 0.4560006917	 0.9730061957	-0.08443
O	 2.5106521461	 1.3910106272	-0.0707464984	-0.251834
C	 1.3290580486	 2.0987083093	 0.0239639541	 0.11813
H	-0.8232650606	 1.9925894632	-0.5619051334	 0.131558
H	-0.0033387664	 3.0388745551	 1.5099373772	 0.106875
H	 0.704702628	 1.7722066639	 3.3735882662	 0.109615
H	 0.4010678816	 0.3016475853	 2.4648418908	 0.132801
H	 3.0152517791	 1.904277949	 2.5500667305	 0.10855
H	 2.7572039422	 0.2481556855	 3.109255988	 0.108887
H	 3.8986047687	 0.2907335094	 0.8821861497	 0.115132
H	 2.3138171432	-0.4970976784	 0.7797772944	 0.131793
H	 1.4064111033	 3.0142102203	-0.5540148933	 0.117308
