15
gdb 45529	3.12316	1.61132	1.28696	5.0222	66.37	-0.2416	0.0057	0.2473	959.7135	0.115153	-453.969113	-453.962049	-453.961105	-454.000987	26.583	
O	 0.158567964	 0.0251245132	 0.0855685346	-0.343881
C	 0.0894334483	 1.2199037627	 0.1000718989	 0.431502
N	-0.9428352989	 2.1008927214	 0.3268257303	-0.33023
C	-0.1887742942	 3.3203412321	 0.0301826922	-0.001521
C	-0.0504934378	 4.3416473247	 1.1447867553	-0.097835
O	 0.7298142547	 3.8720540531	 2.2516666481	-0.22106
C	 1.8382483747	 3.1564034297	 1.9403561164	 0.126962
N	 2.1019868057	 2.5154838813	 0.881154544	-0.245934
C	 1.0798980232	 2.4178740104	-0.1305973754	-0.15444
H	-1.934835904	 1.9365500021	 0.4237583355	 0.252422
H	-0.510105621	 3.8217399899	-0.8904813068	 0.093369
H	 0.4304438178	 5.241033336	 0.7360062728	 0.120243
H	-1.0175307295	 4.6298604375	 1.564772353	 0.125263
H	 2.5437996598	 3.1722523138	 2.7685488205	 0.133292
H	 1.5290289773	 2.416020402	-1.1256051794	 0.111846
