15
gdb 26722	3.34723	1.209	0.8924	3.4833	72.56	-0.2056	-0.0312	0.1744	1214.8847	0.112817	-453.983438	-453.97458	-453.973635	-454.017154	31.73	
N	 0.1737083471	 1.4297250445	-0.0117726401	-0.61219
C	 0.0188708953	 0.0300094814	-0.0209374987	 0.196636
C	-1.0716700819	-0.8078962602	-0.0186651788	 0.159355
O	-2.3546933784	-0.3500227482	-0.005326995	-0.446004
C	-0.5987676205	-2.1637712801	-0.0323740159	 0.072848
C	-1.3781501773	-3.3825848685	-0.035308738	 0.06583
O	-0.932725264	-4.5124334986	-0.0471457189	-0.296381
C	 0.7944709716	-2.0920622012	-0.0427099593	-0.13743
N	 1.1425233209	-0.7912434891	-0.0357759	-0.256177
H	-0.2489025619	 1.8491875543	 0.8105164354	 0.249937
H	-0.2613561408	 1.8612605799	-0.8212208538	 0.249936
H	-2.9579947788	-1.0991979251	-0.0059301982	 0.302006
H	-2.4870109935	-3.2259567729	-0.0255273141	 0.025332
H	 1.515850407	-2.8918451512	-0.0542427769	 0.155434
H	 2.0781727954	-0.419534375	-0.0402652678	 0.270869
