21
gdb 71630	2.70701	1.52848	1.50438	2.0998	81.36	-0.2246	0.0748	0.2993	1036.885	0.18433	-387.052722	-387.045044	-387.0441	-387.084414	31.405	
C	 0.0492546763	 1.4658489123	-0.0895476573	-0.521536
C	-0.0027529125	-0.0275982354	 0.0028518067	 0.412754
O	 0.6961315831	-0.8221777871	-1.0394568827	-0.350393
C	 0.0970649293	-1.815984134	-0.1299251925	 0.01549
C	 0.6001173054	-0.9781795076	 1.0811199288	-0.03399
C	-0.0957213758	-1.0962466917	 2.4364233861	-0.246191
C	-1.5022375191	-1.6926428262	 2.2715323252	-0.199764
C	-2.2023869876	-1.1097197628	 1.0341357318	-0.246187
C	-1.2216711396	-0.9898331235	-0.1315397684	-0.033994
H	 1.0844724256	 1.8183035893	-0.0460672969	 0.132266
H	-0.3953626927	 1.8091701676	-1.0288208526	 0.132232
H	-0.5040942251	 1.9193872242	 0.7394853503	 0.123927
H	 0.2618051184	-2.867790153	-0.3673067132	 0.083217
H	 1.6895478083	-0.9119007407	 1.1361055826	 0.071868
H	 0.4995862541	-1.7169896279	 3.1151748319	 0.099318
H	-0.1475434404	-0.1017367781	 2.9006963459	 0.097546
H	-1.4035261925	-2.7767434527	 2.1336517641	 0.101963
H	-2.1039922868	-1.5469632463	 3.1741491633	 0.092742
H	-3.0527573674	-1.7397086536	 0.7505836446	 0.099316
H	-2.6194875914	-0.1175426579	 1.2552516713	 0.097547
H	-1.6933722398	-0.9335178448	-1.1157158688	 0.071868
