19
gdb 68334	3.17239	1.07	0.9389	4.1899	76.9	-0.2413	-0.0146	0.2267	1285.4093	0.158173	-422.983036	-422.97441	-422.973466	-423.017123	32.481	
O	-0.1126492586	 1.1981614086	 0.1566305275	-0.471394
C	 0.035988033	-0.1742034626	 0.0683100002	 0.389442
C	 0.7071803144	-1.0182076337	-1.0615100161	-0.286021
C	 0.1069931495	-2.0329305524	-0.0462495403	-0.072803
C	 0.7002713033	-1.1524381476	 1.0903743235	-0.297667
C	-1.178833984	-1.1394661215	-0.0330202769	 0.006778
C	-2.2272513508	-1.2420247645	 1.0753572916	-0.339915
C	-3.1578256979	-0.0441276486	 1.0668141645	 0.156463
O	-4.3590704518	-0.1140114187	 1.0064821825	-0.245621
H	 0.7581084358	 1.6024218784	 0.2381719574	 0.285945
H	 0.2416233294	-0.9735822958	-2.0491513195	 0.098291
H	 1.7982146677	-0.9817447748	-1.1202281921	 0.088714
H	 0.1420058194	-3.1171839009	-0.1160516473	 0.086565
H	 1.7918110532	-1.1215709637	 1.1499800246	 0.090084
H	 0.2597067054	-1.2317206259	 2.0847195299	 0.09792
H	-1.6793973216	-1.0967264175	-1.0071066039	 0.079309
H	-2.8316544386	-2.1470729579	 0.9589603209	 0.118831
H	-1.7577915778	-1.2769749232	 2.0663326605	 0.117291
H	-2.6381206799	 0.9377371425	 1.119097093	 0.097789
