22
gdb 77926	2.21476	1.40026	1.35347	1.0305	83.54	-0.2118	0.0713	0.2831	1160.1524	0.191866	-404.270212	-404.26013	-404.259186	-404.304607	37.892	
C	-0.3327713831	 1.5421321328	-0.146204629	-0.485066
C	 0.036373043	 0.0637423881	-0.0012240762	 0.023523
C	 1.2597763112	-0.579495578	-0.7164057021	-0.103604
C	 2.2193103165	 0.0432090167	 0.359035715	 0.126618
O	 2.6133913381	 1.3891100693	 0.422066406	-0.453842
C	 0.9755097222	-0.5237213445	 1.1172408083	 0.248332
C	 0.7196799899	-0.6104507996	 2.5941851901	-0.524756
N	 1.0314772685	-1.7529371931	 0.2145782343	-0.118733
C	 2.0707410907	-2.7639292121	 0.4000727885	-0.338386
H	 0.4374106686	 2.1443156176	-0.636166644	 0.129648
H	-1.2282012691	 1.6387285614	-0.7677214186	 0.126992
H	-0.5730263191	 2.0018129227	 0.8202957788	 0.122505
H	-0.8496392096	-0.5685255932	-0.0989197336	 0.080438
H	 1.4166341375	-0.7223941392	-1.7875229792	 0.073391
H	 3.1418054684	-0.5165844692	 0.5035763203	 0.080537
H	 1.8413172641	 1.9477185314	 0.5334804172	 0.285382
H	 0.6926469657	 0.390152467	 3.0390276807	 0.122723
H	-0.2371291999	-1.1026050497	 2.7959262909	 0.129021
H	 1.5109015058	-1.1744719809	 3.0999753225	 0.125589
H	 1.808679413	-3.3659894115	 1.2766331464	 0.121991
H	 2.0509902623	-3.4290750689	-0.4696966166	 0.123427
H	 3.1067487452	-2.4189443173	 0.5304366806	 0.10427
