22
gdb 112755	2.59008	1.29545	0.97397	1.5888	84.31	-0.197	0.0869	0.2839	1309.231	0.192344	-404.2918	-404.282096	-404.281152	-404.326335	36.105	
C	-0.0635172991	 1.3785522109	-0.182732076	-0.234619
O	-0.1079815745	 0.0898046304	 0.3859029201	-0.241511
C	-1.322680966	-0.575958128	 0.154974163	 0.03625
C	-1.4811649039	-1.2767743253	-1.2273592848	-0.205397
N	-1.2067896607	-2.5799914191	-0.5864266683	-0.111667
C	-2.0266343966	-3.7100807796	-0.9563963038	-0.328987
C	-1.3291946514	-1.981798258	 0.7456430304	 0.360784
C	-0.66629436	-2.4441789247	 1.9988010996	-0.308207
C	-2.1814615734	-2.4588130337	 1.8905619141	-0.346255
H	 0.9012446188	 1.8171843476	 0.0829068997	 0.128454
H	-0.1480294701	 1.3523152851	-1.2796837515	 0.106907
H	-0.8680000786	 2.0227108545	 0.2073460163	 0.102225
H	-2.1681596383	 0.0648799057	 0.4437555528	 0.066601
H	-2.5008465805	-1.1869400071	-1.6323965533	 0.084716
H	-0.7582445128	-0.9952934128	-2.0006865012	 0.102338
H	-1.8317642421	-3.9725780266	-2.0016613694	 0.120093
H	-1.7657065903	-4.5817504511	-0.3463977908	 0.119224
H	-3.1123166711	-3.526923362	-0.8462606833	 0.09038
H	-0.1511381977	-3.3989294908	 1.9678278965	 0.113442
H	-0.1918405225	-1.6925020531	 2.6197488144	 0.122578
H	-2.7539349724	-1.7256345304	 2.4510357688	 0.110421
H	-2.6668591968	-3.424933882	 1.7992960866	 0.112232
