16
gdb 23551	2.15812	1.67925	1.03568	2.5783	69.39	-0.2457	-0.01	0.2357	1126.0818	0.12172	-474.908553	-474.899914	-474.898969	-474.942211	31.283	
C	 0.0412155626	 1.3610544767	-0.120397436	-0.24556
O	-0.2329253713	 0.000346417	 0.1702823834	-0.239465
C	 0.6075964606	-0.5720361667	 1.1126332678	 0.034372
C	 0.1953333117	-1.9857540852	 1.5571722623	-0.008497
O	 0.3398295155	-2.8563659754	 0.4412674512	-0.225973
C	 1.5223241304	-2.5493563256	 1.206257855	-0.085702
C	 1.9829470725	-1.2126952247	 0.7260938689	 0.402273
N	 3.1345016959	-0.8453011101	 0.3552065797	-0.261501
O	 3.1776074402	 0.5274546411	 0.0547119332	-0.38319
H	 1.0381872673	 1.4882585528	-0.5561000982	 0.138673
H	-0.7195525613	 1.6865495471	-0.8329426141	 0.128141
H	-0.0288360785	 1.9826716934	 0.7853962693	 0.103279
H	 0.7692657208	 0.0915628043	 1.9790788544	 0.091763
H	-0.4961584082	-2.2704609167	 2.3405662962	 0.118079
H	 2.080853277	-3.36840185	 1.6386789728	 0.12297
H	 4.0949455648	 0.6492786719	-0.2139033459	 0.310339
