15
gdb 129835	4.16125	0.96253	0.81975	3.4782	73.97	-0.2188	0.0104	0.2292	1346.0302	0.111898	-416.771999	-416.763536	-416.762592	-416.805668	31.431	
N	-0.1514523349	 1.3163757382	-0.274721748	-0.593955
C	-0.0989884478	-0.0410674714	-0.0769414293	 0.493976
C	-0.8682941548	-1.0853878064	-0.5100098204	-0.431156
C	-0.2865093136	-2.2025498436	 0.1438820308	 0.418652
C	-0.7196543018	-3.6453953044	 0.0950686789	-0.456685
C	-0.9689364186	-4.1318703905	-1.2584473398	 0.307601
C	-1.1860733307	-4.5278262125	-2.371607379	-0.457776
N	 0.736694959	-1.8766444185	 0.8963538414	-0.224687
O	 0.8563691567	-0.4756196448	 0.7550063184	-0.215914
H	 0.7202000323	 1.7948886489	-0.096466752	 0.268376
H	-0.5878231909	 1.6029987309	-1.1376321274	 0.266975
H	-1.7029671694	-1.0688820889	-1.1889929352	 0.115245
H	 0.0522583401	-4.2488914772	 0.5843455102	 0.160103
H	-1.6329814816	-3.7639156624	 0.69368254	 0.150369
H	-1.3692088241	-4.8855899275	-3.3543511886	 0.198876
