16
gdb 36102	3.78119	1.1564	1.05351	3.4158	73.49	-0.2242	0.0362	0.2605	1149.1757	0.122103	-400.601656	-400.593784	-400.59284	-400.634472	30.446	
C	-0.0735386582	-1.1776706503	 0.3091335899	-0.440315
C	-0.0626326245	 0.0064781322	 0.1076710607	 0.310687
C	-0.0234808798	 1.4452905572	-0.1480279051	-0.494014
C	 1.3740655298	 2.0042035662	-0.1595513784	 0.326248
N	 2.1643472982	 2.3031991458	 1.0498034538	-0.340312
C	 1.8774010385	 3.3780975036	 0.0625060916	-0.189005
C	 2.8779677342	 3.202432371	-1.1374086828	 0.025131
O	 3.7187733761	 2.0792547349	-0.8835493033	-0.207982
C	 2.3962049891	 1.8388310995	-1.3538724053	-0.017884
H	-0.0840135871	-2.2233081622	 0.4938785229	 0.2017
H	-0.505591465	 1.6560171162	-1.1128118381	 0.139
H	-0.618484781	 1.9755778186	 0.6077922917	 0.131842
H	 1.4991239143	 2.4256911942	 1.8149133934	 0.230132
H	 1.3474679852	 4.2827822696	 0.330541578	 0.100461
H	 3.2275047487	 3.965916214	-1.8211402554	 0.111418
H	 2.2636236715	 1.2431997696	-2.2491174035	 0.112892
