15
gdb 23256	2.99209	1.50218	1.08721	1.8504	71.47	-0.2297	-0.075	0.1547	1062.148	0.112597	-453.887471	-453.879938	-453.878994	-453.919666	28.711	
O	-0.0536089971	 1.2928168397	 0.232120298	-0.343882
N	 0.0049726238	-0.0818735214	 0.1516331783	-0.227429
C	-1.1418803592	-0.6415736258	 0.0412230413	 0.316086
C	-1.2746804335	-2.1079774195	-0.1131160949	-0.110401
C	-2.1770147084	-2.8000348264	 0.856349612	-0.24746
N	-2.6831453583	-2.4431042486	-0.46687532	-0.103085
C	-3.4527644324	-1.1903546067	-0.4697770396	-0.276055
C	-2.5259446893	-0.0393587975	-0.0461903917	 0.30558
O	-2.8515703917	 1.1034219114	 0.1419022092	-0.290856
H	 0.8781012324	 1.5358163688	 0.2896102358	 0.317682
H	-0.4885837015	-2.6575745989	-0.618862613	 0.117827
H	-2.0490874709	-3.8646309058	 1.0283060367	 0.131815
H	-2.5263735841	-2.2363219799	 1.7203807075	 0.122482
H	-3.8100727144	-0.9866403536	-1.4865856366	 0.146112
H	-4.3301252554	-1.2513237059	 0.180720157	 0.141586
