22
gdb 102477	1.93877	1.21186	0.83087	4.5437	80.18	-0.2447	0.0239	0.2687	1467.7748	0.192598	-441.518301	-441.507537	-441.506592	-441.554699	38.441	
C	 0.1128499825	 1.5985856338	 0.1126059936	-0.376331
C	-0.0013329289	 0.0742332242	 0.0001673767	-0.171975
N	 0.6014164646	-0.4694542905	-1.2139273093	-0.076762
C	 2.0493309524	-0.7009204978	-1.2173435916	-0.159692
C	 2.4245164587	-2.1207226354	-0.7861746679	-0.377437
C	-0.1006156213	-0.775213746	-2.3335261935	 0.38975
O	 0.4282440229	-1.2323301014	-3.3433112147	-0.413193
C	-1.6215389709	-0.5492840483	-2.3565965905	-0.156245
O	-2.112386776	-0.8541643645	-3.6269162946	-0.425991
H	 1.1579937365	 1.9215030425	 0.0923789032	 0.128347
H	-0.4088722252	 2.0930779763	-0.7118583588	 0.132703
H	-0.3277995048	 1.9426614496	 1.053568011	 0.12358
H	 0.4896296511	-0.400104924	 0.8578096593	 0.11621
H	-1.0497049025	-0.2276030699	 0.0488267642	 0.129433
H	 2.4116803141	-0.5120980241	-2.2295047391	 0.142008
H	 2.5071619457	 0.0377200923	-0.5515733099	 0.103388
H	 2.0507234625	-2.3482949076	 0.2176211277	 0.114631
H	 2.0072613992	-2.8488454231	-1.4860363806	 0.146215
H	 3.5126897835	-2.2381315171	-0.7750204032	 0.119388
H	-2.0917350034	-1.1859105247	-1.5881753754	 0.109298
H	-1.851324079	 0.493202333	-2.0892925724	 0.10913
H	-1.3294485218	-1.1744460873	-4.1102780842	 0.293545
