13
gdb 20445	6.53997	1.44545	1.29282	5.2154	61.74	-0.2606	-0.0394	0.2212	901.0019	0.096592	-394.725825	-394.719382	-394.718438	-394.757045	23.324	
C	 0.3029342619	 1.562920283	 0.1527695545	-0.230492
N	 1.2382897851	 0.4879111125	-0.1774991216	-0.294515
C	-0.1829433296	 0.1547434188	 0.0569030499	-0.15809
C	-0.4965723061	-0.6447325618	 1.2480272601	 0.476087
C	-1.3827433597	-1.6589890064	 1.461776187	-0.220364
N	-1.270186801	-2.0173392827	 2.7822058642	-0.108079
N	-0.4086574852	-1.3156947405	 3.3650005579	-0.008833
O	 0.129096535	-0.39295769	 2.3944207043	-0.217789
H	 0.4457122834	 2.0000216692	 1.1358990577	 0.147363
H	-0.0155603177	 2.254292411	-0.6228158405	 0.125211
H	 1.4278522623	 0.4718584704	-1.1763541396	 0.244181
H	-0.7968811129	-0.1003624741	-0.8021963901	 0.106709
H	-2.0694514756	-2.1448275694	 0.7904115962	 0.138609
