16
gdb 79382	3.13101	1.42579	1.11939	3.6048	74.36	-0.275	0.0198	0.2948	1064.1691	0.124942	-400.683996	-400.676635	-400.675691	-400.715771	28.68	
O	 0.0015120692	 1.4736885199	-0.0703517975	-0.438306
C	 0.0682646267	 0.0723868542	-0.0234622177	 0.110685
C	 0.0315227987	-0.6133454682	 1.3608300997	-0.128326
C	-1.5016536245	-0.3156691527	 1.5381794495	-0.062677
C	-1.8293272978	-1.787355159	 1.8532063455	-0.308169
C	-0.7300422878	-1.8608944415	 0.7691579631	 0.233976
C	-0.1282664358	-3.0220024351	 0.1702102283	 0.157132
N	 0.3514396488	-3.9621787809	-0.3039810375	-0.352083
C	-1.3045263136	-0.6057591064	 0.0060372571	-0.097823
H	 0.8951843858	 1.8259002781	-0.0152698747	 0.289737
H	 0.7926487331	-0.3343093072	-0.7422102356	 0.086692
H	 0.7833762245	-0.6589086693	 2.1496852973	 0.089208
H	-1.9290282725	 0.5885993301	 1.9621456093	 0.100101
H	-1.5536520779	-2.158685054	 2.844043867	 0.112067
H	-2.8183035101	-2.1508488032	 1.5607105258	 0.113129
H	-2.0803963269	-0.6369027247	-0.7587129997	 0.094658
