14
gdb 3660	3.71752	3.2589	1.76252	3.2758	59.52	-0.2015	0.0381	0.2396	692.6603	0.115439	-320.778723	-320.771681	-320.770737	-320.809729	25.202	
C	-0.0389908684	 1.5462999295	 0.0350884053	-0.522735
C	-0.0328144828	 0.0492647166	 0.0034443632	 0.160674
C	 0.0117327966	-0.7722863913	-1.1121572827	 0.28219
N	-0.0007157566	-0.4924542132	-2.4843264853	-0.608086
N	 0.0031921297	-2.0501549307	-0.6541993915	-0.233637
N	-0.0329216064	-2.1309120082	 0.6989919147	-0.240843
C	-0.0632748729	-0.8627005268	 1.0866868355	-0.0725
H	 0.5554898169	 1.9712330992	-0.7833722504	 0.108785
H	-1.0483332725	 1.9697465814	-0.0457587302	 0.12797
H	 0.3914802064	 1.9194792492	 0.9692196503	 0.130641
H	-0.0279218006	 0.5043724414	-2.6555792354	 0.252119
H	 0.7929110516	-0.8851048612	-2.9793249104	 0.248922
H	-0.022126173	-2.8930138251	-1.201876767	 0.265906
H	-0.091570838	-0.6280043206	 2.142080364	 0.100593
