17
gdb 113604	3.00372	0.85932	0.71457	1.7101	94.08	-0.2235	-0.0118	0.2117	1567.3523	0.133133	-384.609307	-384.599799	-384.598855	-384.64414	34.464	
C	 0.2740074417	 0.8966295544	 0.443398688	-0.242467
O	-0.1537195796	-0.0229598723	-0.5491897541	-0.228529
C	-1.3733921204	-0.6005294469	-0.2660062252	 0.144465
C	-1.6497139107	-1.9183425781	-0.8895957096	-0.322485
C	-1.4386445629	-1.8513346662	 0.6282999223	-0.295727
C	-0.254334759	-2.3914090963	 1.2076305528	 0.443513
C	 0.7394423298	-2.8525751081	 1.727282458	-0.2682
C	 1.8578173031	-3.3701827624	 2.3005169487	 0.300993
C	 2.8512182926	-3.8299964409	 2.8123317802	-0.572825
H	 1.2289625316	 1.3040340516	 0.1060303591	 0.133502
H	-0.4460302087	 1.720205757	 0.5598073903	 0.106957
H	 0.4119837317	 0.402800754	 1.4130428456	 0.128996
H	-2.1993804823	 0.1026248705	-0.1419710621	 0.093351
H	-2.6485196023	-2.1365260531	-1.2489398093	 0.12524
H	-0.8398537667	-2.3543847683	-1.4619216456	 0.145914
H	-2.3343107762	-1.9443246396	 1.2368735008	 0.119659
H	 3.7244239483	-4.2357218454	 3.25899842	 0.187646
