23
gdb 83630	2.12045	1.64031	1.3222	1.5095	84.27	-0.2474	0.0597	0.307	1128.0693	0.205161	-388.268296	-388.258912	-388.257968	-388.301828	36.919	
C	 0.4085938332	 1.4472535981	 0.0163122164	-0.452707
C	 0.0812567101	-0.0447963493	 0.0070522357	 0.283185
C	-1.4132844154	-0.2519161279	-0.2429839157	-0.445441
C	 0.9808612373	-0.9104202266	-0.9603390505	 0.089499
O	 1.7948061982	-0.2815323209	-1.9194681056	-0.42529
C	 1.6169867026	-1.6342843929	 0.2491905914	-0.050792
C	 2.7901537683	-0.8983369757	 0.9602217475	-0.243457
C	 1.8024208693	-0.3419744367	 2.0275521676	-0.23259
C	 0.6117524271	-0.9018010732	 1.2142122765	-0.055206
H	 1.4722671171	 1.6539432952	 0.1728342927	 0.099434
H	 0.1269646065	 1.9014813578	-0.9391228121	 0.122796
H	-0.1411676042	 1.963862417	 0.8109366999	 0.114032
H	-1.7091577	 0.1631340899	-1.2135414338	 0.115442
H	-1.6720709371	-1.3165461587	-0.2423872283	 0.110148
H	-2.0177140905	 0.2361840792	 0.5307727617	 0.109379
H	 0.3553087222	-1.6008297455	-1.5350995069	 0.080987
H	 2.4233082851	 0.285946377	-1.4621734674	 0.280038
H	 1.7126883148	-2.7189447058	 0.1829449527	 0.061923
H	 3.5653669578	-1.5596419584	 1.3527313402	 0.106349
H	 3.2984094069	-0.1390707664	 0.3547832765	 0.079064
H	 1.9113714044	-0.8551891314	 2.9868121614	 0.099797
H	 1.8208532662	 0.7337887407	 2.220410511	 0.096638
H	-0.16632413	-1.4281504756	 1.769620289	 0.056773
