19
gdb 15809	5.63789	1.00842	0.92786	1.3933	74.24	-0.2516	0.0309	0.2825	1314.0879	0.164937	-365.063855	-365.055052	-365.054108	-365.098086	31.702	
C	 0.010870797	 1.5067826711	-0.1819085597	-0.390005
C	 0.0057114012	-0.0000704153	-0.004189646	-0.028273
O	 0.6682018299	-0.5702161919	-1.1430674962	-0.248061
C	 0.769388292	-1.9142122425	-1.1764923872	 0.411731
N	 0.2967588366	-2.6323451531	-0.2382622832	-0.550191
C	 1.4802343176	-2.3319180677	-2.420141479	-0.079711
C	 2.3968460638	-3.5383031903	-2.3960276867	-0.263461
C	 1.0875110506	-3.6186887898	-3.1173826117	-0.263448
H	 1.0336276401	 1.8901754204	-0.2416695303	 0.1255
H	-0.5168719157	 1.7947540572	-1.0957752365	 0.1255
H	-0.4866374355	 1.9835128508	 0.6679804015	 0.118951
H	 0.5295290594	-0.3096763187	 0.9062553269	 0.118306
H	-1.0100469464	-0.4044306027	 0.0581125825	 0.118303
H	 0.4557384864	-3.6223306346	-0.4161237985	 0.213765
H	 1.7752746478	-1.5006510808	-3.0483099477	 0.101827
H	 3.3106709569	-3.4830939124	-2.9763947213	 0.12218
H	 2.4961496583	-4.0613393797	-1.4507940626	 0.12245
H	 0.2873224315	-4.1969215048	-2.6676737745	 0.122455
H	 1.0872784383	-3.6195933952	-4.2013312299	 0.122181
