20
gdb 59089	2.13391	1.38631	1.11798	2.6536	77.49	-0.2322	-0.0408	0.1914	1201.556	0.167946	-440.256141	-440.245961	-440.245017	-440.291114	36.772	
C	 0.3053581052	 0.9987691261	-1.0564941828	-0.410853
C	-0.2023247906	 0.5657037777	 0.318301326	 0.105241
O	-0.3509196641	 1.6788531041	 1.2014172688	-0.432222
C	-1.5279457982	-0.1720177256	 0.2132649777	-0.021883
C	-1.6524839545	-1.6807489171	 0.0625306063	-0.127858
C	-0.4533004392	-2.5563685515	 0.0110427659	 0.14872
O	 0.5791709468	-2.4121743174	 0.6293811599	-0.273106
N	-2.0919373901	-0.9580576456	 1.2734786397	-0.103049
C	-1.3921497316	-1.1180649758	 2.5492524817	-0.334526
H	 1.2144510443	 1.5953044006	-0.9457883048	 0.130357
H	 0.531959527	 0.1320137769	-1.6850058724	 0.12489
H	-0.4428684987	 1.6079919833	-1.5796975155	 0.10513
H	 0.542030899	-0.0744504088	 0.7924379216	 0.127165
H	-0.9802608759	 2.2912313368	 0.8031078694	 0.277292
H	-2.2791824501	 0.3922262224	-0.3475038571	 0.090036
H	-2.4766350213	-2.0600210195	-0.5392682961	 0.097908
H	-0.5791934479	-3.4248400479	-0.6736074604	 0.085591
H	-0.3376288622	-1.3952286992	 2.4635293129	 0.150558
H	-1.4683192085	-0.1698155091	 3.0864162203	 0.140985
H	-1.9103505794	-1.8919550506	 3.122842099	 0.119621
