14
gdb 98142	4.85222	0.80335	0.69218	4.1799	63.32	-0.2651	-0.0904	0.1747	1519.8379	0.097252	-510.97765	-510.968051	-510.967107	-511.013682	31.704	
O	-0.0378319166	 1.3994123171	 0.0104969307	-0.396116
C	-0.0380061998	-0.0005361367	 0.0024881558	-0.168187
C	-1.4738004097	-0.4898672399	 0.0137640735	 0.262298
O	-2.4430029519	 0.2145215895	 0.0272698593	-0.238486
C	-1.5835413976	-2.0313062801	 0.0060193595	 0.382284
O	-0.6235332224	-2.7568394452	-0.0075647419	-0.332376
O	-2.8759834106	-2.4274831481	 0.0165432785	-0.180821
C	-3.1366962113	-3.7834374706	 0.0112711841	 0.119989
N	-4.3391883261	-4.1418489187	 0.0214529229	-0.404315
H	 0.8762760077	 1.6975630606	 0.0034031161	 0.299012
H	 0.4529862859	-0.4359304153	-0.8841680204	 0.130923
H	 0.4702359707	-0.4459964217	 0.8742975106	 0.130923
H	-2.2313976208	-4.390088171	-0.0014226057	 0.148535
H	-4.3989931075	-5.1593261099	 0.0161659969	 0.246337
