25
gdb 59041	2.38639	1.1704	0.9893	0.2326	94.77	-0.2246	0.0338	0.2583	1400.3696	0.228956	-352.386767	-352.376555	-352.37561	-352.421944	38.777	
C	 1.0427929766	-0.826834445	-0.8915560962	-0.393304
C	 0.0248997064	-0.0212129617	-0.0745340681	-0.070731
C	-0.0459082048	 1.4332274845	-0.5867939294	-0.383215
C	-1.3478459407	-0.6481999221	-0.0409148024	 0.346386
C	-1.8116092055	-1.6426403342	-0.8032681766	-0.18752
C	-3.241259968	-2.0097000864	-0.4897121439	-0.252212
C	-3.7046798826	-0.8376810108	 0.4099839089	-0.221532
C	-2.4035834899	-0.202156584	 0.9686760393	-0.069612
C	-2.0707631705	-0.6768904174	 2.3955765943	-0.391852
H	 2.0335459417	-0.3647388268	-0.8338493914	 0.106064
H	 1.1243952904	-1.8550817632	-0.5270215357	 0.114171
H	 0.7591210332	-0.8655545345	-1.9491750274	 0.115988
H	 0.3923868906	 0.0232863408	 0.9615939018	 0.076094
H	-0.3956202959	 1.4576774711	-1.6246023421	 0.116254
H	-0.7288130209	 2.0434920559	 0.0111710609	 0.114947
H	 0.9421036398	 1.9040799531	-0.5501038267	 0.108755
H	-1.2348848515	-2.1705434046	-1.5544893196	 0.081365
H	-3.8606056607	-2.1146749522	-1.3881718286	 0.0975
H	-3.2947949397	-2.9782133728	 0.0283036126	 0.100897
H	-4.2360739396	-0.1016742531	-0.2016921782	 0.09785
H	-4.3890516487	-1.1521481417	 1.2035654554	 0.089636
H	-2.4931504031	 0.8909709657	 0.995551435	 0.06668
H	-2.0066079476	-1.7697464335	 2.4384783893	 0.115603
H	-1.1147092201	-0.2737254528	 2.7453058057	 0.112093
H	-2.8434526389	-0.3545743744	 3.1016481231	 0.109697
