16
gdb 31181	2.65501	1.34046	0.89587	7.2228	76.89	-0.2044	-0.0132	0.1912	1240.3959	0.124331	-437.92251	-437.913942	-437.912998	-437.956345	30.78	
C	-0.0121274652	 1.3913825924	 0.0173785105	-0.26884
O	 0.0101601638	-0.0262725774	-0.0113676611	-0.248771
C	 0.6059554613	-0.6236556194	-1.0562378592	 0.390313
C	 0.7369398964	-1.9911853199	-1.2752349782	 0.037446
C	 0.2514087682	-3.0460718497	-0.4096882017	 0.069269
O	 0.3804544997	-4.2358988619	-0.62678189	-0.309586
C	 1.4428699194	-2.1319862732	-2.5185084398	-0.2288
C	 1.7087875991	-0.8868344939	-2.9980743798	-0.089436
N	 1.190641278	 0.0408370269	-2.0919672327	-0.347309
H	 1.0037118405	 1.8075900645	 0.0423615338	 0.129552
H	-0.5580446846	 1.8010203755	-0.8428477815	 0.129474
H	-0.5327135284	 1.6699350647	 0.9336416432	 0.156724
H	-0.2693790485	-2.6879430514	 0.5055490705	 0.059125
H	 1.7049926498	-3.0741267871	-2.9720784641	 0.126011
H	 2.2124667735	-0.5491753793	-3.8884541571	 0.127754
H	 1.2424936371	 1.0383423292	-2.1960939229	 0.267073
