22
gdb 106832	2.11942	1.43365	1.00078	1.0031	82.71	-0.215	0.0558	0.2708	1286.3221	0.193746	-404.308247	-404.298443	-404.297499	-404.342973	36.602	
C	-0.0697043102	 1.2367606508	 0.6644525635	-0.372376
C	-0.0680725374	-0.1822515762	 0.0763720273	-0.31301
C	-1.4421782282	-0.6674473994	-0.2841162024	 0.317823
C	-2.3099916845	-0.2153402573	-1.4709056096	-0.259093
C	-2.9365300803	-1.6524055968	-1.514232617	-0.276603
C	-2.0515839846	-2.0287362909	-0.3180930604	 0.26889
C	-1.4955654988	-3.3952975822	-0.022891453	-0.215317
O	-0.6558998153	-3.4181848183	 1.1280674636	-0.408196
N	-2.4233215651	-1.0850452909	 0.7678743894	-0.424122
H	 0.9465294688	 1.5625229753	 0.9062325323	 0.110401
H	-0.4931372426	 1.9574615283	-0.042879702	 0.119114
H	-0.6681635295	 1.282560959	 1.579828739	 0.122282
H	 0.5631191051	-0.202719894	-0.8220369045	 0.096154
H	 0.3807162974	-0.888244018	 0.7842273943	 0.114799
H	-2.9985303957	 0.607006813	-1.2622972935	 0.103219
H	-1.7262818715	 0.0135680313	-2.3662718169	 0.096215
H	-4.0126898264	-1.7247637613	-1.3374089204	 0.102056
H	-2.6787485817	-2.1936617699	-2.428505365	 0.09705
H	-2.3208669101	-4.1174011491	 0.0763118622	 0.101426
H	-0.8792035329	-3.7322432809	-0.8651186338	 0.116725
H	-1.2111721855	-3.5739031972	 1.8972303608	 0.292056
H	-1.847711291	-1.3544859052	 1.5686107261	 0.210507
