18
gdb 13864	4.19541	1.55565	1.18868	3.9087	68.77	-0.227	0.0634	0.2904	1009.1781	0.156655	-381.177358	-381.169496	-381.168551	-381.20989	29.219	
N	-0.0115557923	 1.2988106422	-0.1321551536	-0.567981
C	 0.0116825446	-0.0696160632	 0.1294257969	 0.434554
O	 1.0565941129	-0.6821640975	 0.2799099497	-0.410358
N	-1.2189639605	-0.6731694881	 0.1567993761	-0.09911
C	-2.4770581473	-0.0484979053	-0.2532221266	-0.164479
C	-3.4893007761	-1.2063740266	-0.2119630698	-0.220229
C	-2.6247458821	-2.4454208678	-0.4982182493	-0.216137
C	-1.3173553973	-2.1334299685	 0.2410122635	-0.147906
H	 0.8755285029	 1.7320445951	 0.0756034811	 0.256808
H	-0.8102335114	 1.831564853	 0.1765595361	 0.245585
H	-2.7709150958	 0.7636063914	 0.4252559429	 0.099797
H	-2.3921868268	 0.3784530222	-1.2621838704	 0.115982
H	-3.930374464	-1.279372737	 0.7880295476	 0.110765
H	-4.3049240027	-1.0669926298	-0.9251475439	 0.107283
H	-3.0866410549	-3.3770552371	-0.1635792498	 0.104973
H	-2.4348174094	-2.5322821516	-1.5737717336	 0.110553
H	-0.4313243045	-2.5882997901	-0.2047256142	 0.136203
H	-1.3651678553	-2.4606637613	 1.2887671272	 0.103696
