15
gdb 16084	4.62504	1.7262	1.47818	2.031	72.48	-0.2329	-0.0019	0.231	857.5268	0.119538	-325.473324	-325.466587	-325.465643	-325.50389	26.771	
C	-0.019022887	-1.17637311	 0.0543340803	-0.397294
C	 0.0203956653	 0.024991957	 0.0244402256	 0.265205
C	 0.0381363389	 1.4570915953	-0.0596745622	 0.106812
C	-0.9343504973	 2.1499710002	-1.0288894345	-0.337191
C	-0.1958002797	 3.4012345637	-1.450093889	-0.089969
C	 1.0396734785	 3.4477937265	-0.943813848	-0.076323
C	 1.2971322191	 2.2935469398	-0.0344474657	-0.105277
N	 0.4356823119	 2.1913585527	 1.1590180248	-0.352807
H	-0.044627326	-2.2369305646	 0.09618994	 0.189712
H	-1.1452210089	 1.4986259057	-1.8854115627	 0.129549
H	-1.9012289656	 2.3624872107	-0.5552585059	 0.121047
H	-0.650172407	 4.1607376614	-2.0758395546	 0.105
H	 1.7708375946	 4.2275099848	-1.1210313602	 0.106255
H	 2.2865086111	 1.8631381214	 0.0752483885	 0.107345
H	-0.122257428	 3.0399871655	 1.2457175036	 0.227936
