20
gdb 121586	4.43511	0.64524	0.57113	1.1109	76.96	-0.2389	-0.0604	0.1785	1939.0929	0.168509	-440.348967	-440.338256	-440.337312	-440.386118	37.395	
C	-0.061655858	 1.542211636	 0.0931705048	-0.380975
C	 0.0012024994	 0.0152967276	 0.0022847439	-0.170052
C	 0.7213999697	-0.4778739002	-1.2568203776	-0.167515
C	 0.7827120866	-2.0012106128	-1.3450255104	-0.295402
C	 1.4863492786	-2.5140302622	-2.5749449349	 0.283018
O	 1.969482881	-1.809276001	-3.433775426	-0.311795
C	 1.5718783133	-4.0564333679	-2.7042713129	 0.330612
N	 2.2145569687	-4.4366106352	-3.8299217548	-0.51824
O	 1.0994612089	-4.7969673064	-1.8628971268	-0.351677
H	 0.9429706696	 1.9791069485	 0.1085442429	 0.115495
H	-0.5926383595	 1.9679130817	-0.7654468373	 0.115495
H	-0.5803543189	 1.867084144	 1.0003680575	 0.112317
H	 0.5067179564	-0.385185306	 0.8911178422	 0.096353
H	-1.016675724	-0.3962928356	 0.0240958718	 0.096349
H	 0.2221907023	-0.0839097189	-2.1503344346	 0.107255
H	 1.7401548363	-0.0728359228	-1.2863963958	 0.107242
H	 1.2834527634	-2.4445818075	-0.4733652075	 0.14229
H	-0.2175379336	-2.4554541638	-1.3276215911	 0.142266
H	 2.5630098167	-3.7248776617	-4.4516750484	 0.278457
H	 2.3393856032	-5.413083086	-4.035012495	 0.268508
