23
gdb 101901	3.6104	0.56997	0.51286	3.3222	84.65	-0.2453	-0.0164	0.2289	2156.2662	0.202008	-425.434648	-425.423201	-425.422257	-425.472961	39.268	
C	-0.1468008108	 1.4197153166	 0.0680676322	-0.235187
O	 0.1359068839	 0.0437668554	-0.0284528418	-0.244829
C	 0.662051704	-0.5471723996	 1.1554367646	 0.136657
C	-0.4243281208	-0.7722322626	 2.2108979853	-0.403454
C	 1.3252792249	-1.8590067008	 0.730763778	-0.187353
C	 2.4814876232	-1.6628265873	-0.2544644106	-0.196032
C	 3.1126136777	-2.9918768913	-0.7035228319	-0.275232
C	 4.1771404878	-2.779647818	-1.7540152618	 0.159378
O	 5.3180014109	-3.1564101786	-1.6742443611	-0.239482
H	 0.7381384683	 1.9958244898	 0.3817166484	 0.103644
H	-0.4496645455	 1.7564281248	-0.926791276	 0.126964
H	-0.9642601794	 1.6382326042	 0.7703015008	 0.107132
H	 1.4342551385	 0.123167916	 1.5735677288	 0.061868
H	-1.2013178184	-1.4368006414	 1.8198259292	 0.123359
H	 0.002891531	-1.2283624775	 3.1095356068	 0.11612
H	-0.8970223574	 0.1672026123	 2.5108655148	 0.116835
H	 1.6813258242	-2.3786866793	 1.6286317368	 0.096989
H	 0.5583011056	-2.5001854517	 0.2768616261	 0.103747
H	 2.1104763715	-1.1122574681	-1.1254181341	 0.121102
H	 3.254343694	-1.0346082474	 0.2075098482	 0.10394
H	 3.553037442	-3.5393693846	 0.1353701024	 0.11749
H	 2.3316362946	-3.6252007974	-1.1504324521	 0.117392
H	 3.8233146101	-2.2158966938	-2.6504112429	 0.068953
