19
gdb 103049	2.45347	1.50466	1.12857	4.9626	80.08	-0.2319	0.0269	0.2588	1137.6526	0.159823	-382.038232	-382.029512	-382.028568	-382.07147	32.976	
C	-0.4405243734	 1.2665188949	 0.1244800444	-0.337062
N	 0.2822280211	 0.0099743089	-0.0523014537	-0.35131
C	 0.784039683	-0.5728412801	 1.1581310495	 0.179253
C	 1.9512508693	 0.1288886868	 1.6644060943	 0.277597
N	 2.8663203445	 0.7033459548	 2.0769604479	-0.349066
C	-0.0570385497	-1.1826229897	 2.2860118603	-0.085769
C	-1.308417469	-1.8469215244	 1.6989342112	-0.255392
C	-0.3913896607	-2.7712905235	 0.834593685	-0.264099
C	 0.8407904323	-2.0636235252	 1.4094194024	-0.09969
H	 0.2475813925	 2.0298655137	 0.5015395214	 0.14735
H	-0.8118390966	 1.6034680748	-0.8466435774	 0.124544
H	-1.2892050546	 1.2022535621	 0.8243856467	 0.105774
H	-0.2543231164	-0.66086581	-0.5841447873	 0.232215
H	 0.0828520011	-0.8748786165	 3.3146840232	 0.110095
H	-1.8762870443	-2.4060628002	 2.444156747	 0.119419
H	-1.996220792	-1.187278128	 1.1622788668	 0.106104
H	-0.4400175059	-3.8117633645	 1.1612092095	 0.120741
H	-0.5199691629	-2.7551430693	-0.2529457933	 0.10528
H	 1.7845460617	-2.5394958947	 1.6455663821	 0.114018
