23
gdb 96355	2.0939	1.65362	1.19783	1.8905	81.33	-0.2435	0.0726	0.3161	1162.9092	0.205391	-425.44709	-425.437555	-425.436611	-425.480398	37.643	
C	-0.0516684872	 1.5271706089	-0.0830779406	-0.422495
C	 0.0669797831	 0.0139992534	 0.0177320307	 0.138899
O	 0.7043958101	-0.4464297787	-1.1682297893	-0.263404
C	 0.6879031766	-1.8577654859	-1.295589579	-0.065106
C	 1.4401741223	-2.5325420713	-0.1483150594	-0.212919
C	 0.8838565045	-2.03651936	 1.193619011	-0.252103
C	 0.8236893688	-0.4961023091	 1.2710334083	 0.354057
C	 2.2202642814	 0.1229633778	 1.3987928567	-0.435305
O	 0.0049509245	-0.1041748697	 2.3769377339	-0.475468
H	 0.925494775	 1.9855818854	-0.257606653	 0.120662
H	-0.7012099347	 1.7936109846	-0.9210149251	 0.116165
H	-0.4754080841	 1.9312607569	 0.8386800684	 0.133667
H	-0.9470590454	-0.4178268378	 0.0782305693	 0.066857
H	-0.3548154038	-2.2197619419	-1.3227488605	 0.084477
H	 1.1465422362	-2.0831548504	-2.2630078847	 0.102137
H	 1.3426118131	-3.6215379387	-0.2270870273	 0.094855
H	 2.5077529808	-2.2992501366	-0.2308957744	 0.105537
H	-0.1396233188	-2.4078647904	 1.3280447047	 0.101611
H	 1.4774769163	-2.4271548864	 2.0304039808	 0.080196
H	 2.7985687748	-0.0075676026	 0.4807322711	 0.130907
H	 2.1453468969	 1.1920838333	 1.6103546902	 0.1244
H	 2.7744934382	-0.3475543401	 2.2198512285	 0.098527
H	 0.4423191712	-0.3942056107	 3.1845129099	 0.273848
