19
gdb 105388	1.88952	1.24882	0.90478	2.2739	72.45	-0.2537	-0.0286	0.2251	1346.7448	0.155543	-460.14844	-460.138225	-460.137281	-460.185021	35.7	
C	 1.3000470955	 1.6164821322	 2.3634534583	-0.431369
C	 0.4375189882	 0.5692348907	 1.7068007385	 0.03266
O	 0.6647098696	 0.2850424779	 0.3168843979	-0.305262
C	 0.8642606798	-0.7750560983	 1.2712623211	 0.323145
C	 2.3030258554	-1.251203174	 1.3387033953	-0.133187
O	 2.6528272611	-1.94544095	 0.1523078271	-0.414727
C	-0.1830995191	-1.8858183463	 1.1819708005	-0.349973
C	-0.4566475217	-2.526606105	 2.5255393229	 0.156787
O	-1.5238868981	-2.5067292274	 3.0830346736	-0.236208
H	 2.3505691424	 1.5265770015	 2.0831336476	 0.130757
H	 0.9573019133	 2.613772138	 2.06901611	 0.136859
H	 1.2182591772	 1.5450921414	 3.4532493053	 0.131852
H	-0.6233677059	 0.6570768002	 1.95263561	 0.101484
H	 2.9782554608	-0.4066215556	 1.5187418903	 0.098904
H	 2.4343887298	-1.9645386024	 2.1596809462	 0.114694
H	 2.5226462919	-1.3272039248	-0.5765362892	 0.296409
H	-1.1176939276	-1.4803562932	 0.7895155721	 0.131221
H	 0.1977814665	-2.6510298369	 0.4933668666	 0.138015
H	 0.418189471	-3.033140368	 2.9950787659	 0.07794
