17
gdb 41752	3.75129	1.60881	1.4861	1.8426	66.11	-0.2291	0.0825	0.3116	909.6061	0.139198	-458.923285	-458.917085	-458.916141	-458.953577	25.779	
C	 0.0094576656	 1.5148101107	-0.021393396	-0.102242
O	 1.4397200893	 1.7596151655	-0.037780558	-0.277553
C	 1.9636989498	 0.4370369283	 0.007464341	 0.052092
C	 1.0979030529	-0.358953158	-1.0136714195	 0.121107
O	 1.444341732	-1.7297408355	-1.0785097691	-0.277888
C	 1.1140831214	-2.3979445547	 0.1148058537	 0.016308
O	 1.4565698178	-1.6451277685	 1.2530273305	-0.277889
C	 1.1089554499	-0.2825166275	 1.0926283579	 0.121108
C	-0.0232445713	-0.0099945772	 0.0341122758	-0.170514
H	-0.4431387199	 1.9927451656	 0.8555600697	 0.109937
H	-0.4524842875	 1.9280977654	-0.9258910433	 0.109937
H	 3.0514716976	 0.4347781725	 0.0018369568	 0.093217
H	 1.0148901997	 0.0244392033	-2.0324674631	 0.091164
H	 0.0348437782	-2.6212722111	 0.1285732628	 0.090612
H	 1.6871834774	-3.3269575099	 0.1455154474	 0.124154
H	 1.0364768225	 0.1737530638	 2.0817651263	 0.091165
H	-1.0020414955	-0.4865445229	 0.0565411873	 0.085285
