25
gdb 118752	2.48757	0.9909	0.83046	1.3918	89.51	-0.2382	0.0822	0.3204	1569.9497	0.22692	-389.499006	-389.488287	-389.487342	-389.534964	40.031	
C	-0.1990950653	 1.4554138003	-0.4692310684	-0.381514
C	-0.0749976974	-0.0414956705	-0.1715195456	-0.171346
C	-1.4257020348	-0.6930258897	 0.1500107465	-0.216049
C	-1.3795556291	-2.2169968826	 0.278577641	 0.44085
C	-0.5054294689	-2.7047624735	 1.4298944468	-0.437595
C	-2.7514963002	-2.9320372972	 0.1710870422	-0.364705
C	-2.1571055235	-3.6113202192	-1.0806129283	 0.175233
C	-2.861892377	-3.4260731039	-2.4101805099	-0.39941
O	-0.946147715	-2.8248947869	-0.9784747099	-0.343598
H	 0.7753169924	 1.8984751748	-0.6979562525	 0.1104
H	-0.8559757748	 1.6350473324	-1.3276990475	 0.113192
H	-0.6188304096	 1.9985862954	 0.3853333627	 0.110078
H	 0.3608785181	-0.5589725167	-1.0336103643	 0.118029
H	 0.6204179321	-0.1857717237	 0.6636813757	 0.09401
H	-1.8400841955	-0.2727865946	 1.0774182543	 0.088369
H	-2.1355678305	-0.4440506264	-0.6488021814	 0.08901
H	-0.8522178852	-2.2926697435	 2.3842897838	 0.11079
H	-0.5347112788	-3.7963215577	 1.4968267721	 0.11382
H	 0.536269276	-2.4064561474	 1.2838940765	 0.126567
H	-3.0126600492	-3.590716343	 1.001327545	 0.100475
H	-3.5912165082	-2.2644004756	-0.0374707085	 0.099602
H	-1.9311270294	-4.6763640134	-0.9267334309	 0.069086
H	-3.1208500833	-2.3750534395	-2.5721377601	 0.116846
H	-2.2161279018	-3.7500424671	-3.2326997643	 0.12511
H	-3.7813734911	-4.0214151306	-2.4430062451	 0.112752
