21
gdb 78110	2.25638	1.62679	1.15742	2.8181	78.63	-0.2303	0.0609	0.2912	1147.6624	0.180776	-424.205566	-424.196263	-424.195319	-424.238565	36.981	
C	 0.0022130227	 1.5687382443	 0.036607988	-0.500938
C	-0.0036262783	 0.0678384007	 0.0249866888	 0.3067
C	-1.2656317572	-0.8022212318	-0.0517479833	-0.357683
C	-0.6396041285	-1.7749364547	 1.0076066124	 0.390413
C	-1.3801170041	-1.7999830452	 2.3369550129	-0.445699
O	-0.3765415524	-3.1157407097	 0.5633679027	-0.479177
C	 0.6406381846	-0.9449990279	 1.0199856338	-0.200194
C	 1.1730361122	-0.7777285675	-0.3730607625	 0.079326
O	 1.1300126844	-1.7701054022	-1.3533488908	-0.44537
H	 1.0047330941	 1.9581553524	 0.2426078306	 0.119129
H	-0.3152183449	 1.969648088	-0.9337286836	 0.124817
H	-0.6754872317	 1.9723952851	 0.7984724395	 0.11246
H	-2.1687050384	-0.3071367835	 0.3145349366	 0.09599
H	-1.4610954446	-1.2428040436	-1.0336468456	 0.100815
H	-2.3646892109	-2.2710559822	 2.2249049867	 0.106173
H	-0.8091233003	-2.3669783323	 3.0786752643	 0.126326
H	-1.5364165464	-0.7866180167	 2.7179574692	 0.124456
H	-1.2194513245	-3.571656959	 0.4595331344	 0.280956
H	 1.2449056086	-0.7762560657	 1.9056895459	 0.076207
H	 2.1082233055	-0.2212595736	-0.4142915535	 0.090995
H	 0.7337356801	-2.5523997449	-0.9429806963	 0.294299
