9
gdb 21734	5.56602	2.297	1.62599	3.347	52.03	-0.2868	-0.0985	0.1883	666.7991	0.049232	-429.43786	-429.432586	-429.431642	-429.467197	19.437	
O	-0.0076219718	 1.2880616926	 0.0090125482	-0.156851
C	 1.2360819346	 1.7666477181	-0.0001879334	 0.012832
C	 2.086091629	 0.7033236689	-0.0140613044	 0.133584
N	 3.3851109401	 0.2548724109	-0.0288988932	-0.150866
N	 3.4531398798	-0.9637570317	-0.0361364795	 0.010043
O	 1.9495103926	-1.5457956612	-0.0248136753	-0.286477
C	 1.2452982418	-0.441148902	-0.0122157715	 0.50984
N	-0.0323745101	-0.1431974725	 0.0016090128	-0.261713
H	 1.3435370239	 2.8394194969	 0.0045776363	 0.189607
