19
gdb 75121	3.22179	1.2195	0.92726	3.2111	80.96	-0.2056	0.0191	0.2247	1265.3997	0.162192	-419.267074	-419.258554	-419.25761	-419.300221	32.546	
C	 0.4736834393	 1.4613801081	 0.0385011743	-0.465585
C	-0.0480673636	 0.0469114563	 0.0383147171	 0.255677
C	-0.2153383911	-0.5888995252	-1.1280453863	-0.05255
N	-0.6413679199	-1.8925722836	-1.416935801	-0.360577
C	-0.6608092669	-3.0567280085	-0.6545248993	 0.420309
O	-0.6526644267	-4.1492636273	-1.1949980211	-0.403083
N	-0.6854776523	-2.8987416409	 0.7093578791	-0.329092
C	-1.2604388071	-1.7471829297	 1.3946711658	-0.191924
C	-0.336417548	-0.5303747647	 1.3996640582	-0.279678
H	 1.410780828	 1.5414840846	 0.6061721351	 0.121174
H	 0.6683796635	 1.825905161	-0.9738687441	 0.117259
H	-0.2370569463	 2.1495798632	 0.5158145272	 0.117535
H	 0.0024932934	-0.0445889109	-2.0421207241	 0.097347
H	-0.6359724256	-2.1363057492	-2.395102421	 0.256087
H	-0.7799442692	-3.7924695723	 1.1665288655	 0.251558
H	-2.2283596248	-1.4725290613	 0.9536243714	 0.119569
H	-1.454023869	-2.0557311195	 2.4252609326	 0.113015
H	 0.6012343338	-0.7961336959	 1.9080648546	 0.113961
H	-0.8010438274	 0.2499596756	 2.0195702361	 0.099
