18
gdb 85702	2.46084	1.38825	1.07026	2.6514	76.37	-0.274	0.0246	0.2986	1154.4684	0.147713	-401.937399	-401.928884	-401.92794	-401.970698	32.358	
O	 0.6536646751	 0.61936141	-0.9650071892	-0.424226
C	 0.1977771122	-0.3392264583	-0.0521858703	 0.083498
C	 0.2116973485	-0.0101611374	 1.4694121472	-0.281315
C	-1.1919252524	-0.6919630192	 1.5998210437	-0.231126
C	-2.2032982349	-0.0149829348	 2.3920204666	 0.282728
N	-3.0195917923	 0.5407927988	 2.9943219079	-0.336272
C	-1.3119021858	-0.6139903522	 0.059928704	 0.301159
C	-2.3683347474	 0.1349809295	-0.7001193476	-0.328885
C	-2.2255687377	-1.3616322861	-0.8557486963	-0.329166
H	 0.1762549691	 1.4400126029	-0.7979541718	 0.283349
H	 0.7633091562	-1.2496843046	-0.2752953624	 0.100544
H	 1.0169929711	-0.4224757745	 2.0786319097	 0.121912
H	 0.1446355025	 1.0671062532	 1.6413775309	 0.121759
H	-1.1022344383	-1.7268873683	 1.9441870298	 0.125073
H	-3.2202248571	 0.5181137605	-0.1481343431	 0.141873
H	-2.0383009901	 0.7590385563	-1.524692394	 0.119568
H	-1.8080249649	-1.7416030883	-1.7828571584	 0.125216
H	-2.9885608038	-1.9933964776	-0.4122938767	 0.124312
