14
gdb 25591	4.2451	0.90874	0.86357	4.0826	65.04	-0.2607	-0.0244	0.2364	1311.9841	0.101167	-473.866583	-473.858691	-473.857747	-473.901303	26.836	
O	 0.4749762301	 0.1516060658	-0.0855627429	-0.264792
C	 0.5546538563	 1.3245586113	-0.2837283275	 0.174761
O	 0.7475361928	 2.2137583321	 0.7176699365	-0.179052
C	 0.8761391631	 3.5964037242	 0.343447435	-0.203997
C	 2.2912081058	 3.9649140945	 0.0629065744	 0.384845
N	 2.8743881116	 4.0448128831	-1.0923678071	-0.294012
C	 4.1886700046	 4.375646569	-0.7957176486	-0.108427
C	 4.3235813571	 4.4787664852	 0.5478482394	-0.03324
O	 3.1101495301	 4.2191172106	 1.1134759043	-0.159356
H	 0.4720734347	 1.80413745	-1.2773309587	 0.095771
H	 0.2805889567	 3.8137139325	-0.5479103897	 0.147802
H	 0.4856382955	 4.1657757068	 1.1882943594	 0.14904
H	 4.9296964503	 4.5154077895	-1.5660655542	 0.134566
H	 5.1301838415	 4.7111686555	 1.2213685997	 0.156091
