19
gdb 103533	2.25507	1.55715	1.26667	3.3687	77.46	-0.2387	-0.0227	0.216	1106.1565	0.156934	-423.041752	-423.032397	-423.031452	-423.076222	34.221	
C	 0.0939909914	 1.3098110738	 0.2012593582	-0.241797
O	-0.0513566782	-0.0554965147	-0.1296423691	-0.285302
C	 0.6169339635	-0.4964822082	-1.3220046644	 0.239845
C	-0.1693081736	-0.097756268	-2.5694980587	-0.440891
C	 2.0898532437	-0.1546648708	-1.3506291949	-0.115849
C	 2.8703470539	-1.1992189384	-1.0665832026	-0.082945
C	 2.0952923878	-2.461379801	-0.8023784275	-0.377478
C	 0.6596809472	-2.0449558208	-1.142076603	 0.391058
O	-0.2835400788	-2.773268492	-1.2798504105	-0.306907
H	 1.1327957241	 1.5701140293	 0.4479429336	 0.108141
H	-0.2527160631	 1.9788231062	-0.5991269203	 0.106361
H	-0.5264445632	 1.4800079613	 1.0845441706	 0.132148
H	-0.2450445354	 0.9896119938	-2.6629383105	 0.114385
H	 0.3177425132	-0.4777106344	-3.4728610911	 0.120129
H	-1.1739182109	-0.523027705	-2.5087451135	 0.1466
H	 2.4528716031	 0.8378486625	-1.5922261243	 0.104109
H	 3.9540980091	-1.1691517886	-1.0388648702	 0.107196
H	 2.4015149465	-3.3145315091	-1.4187239514	 0.13607
H	 2.1558127899	-2.7956243757	 0.2417391794	 0.145128
