17
gdb 128272	2.41969	1.46372	0.92368	4.3791	71.96	-0.201	0.0379	0.2389	1235.359	0.137057	-451.353414	-451.344197	-451.343253	-451.38766	32.586	
C	-0.0009759472	 1.4476677557	-0.0456199176	-0.317178
N	-0.0884821138	-0.0069108221	-0.0942630513	-0.404787
C	 0.6063869122	-0.6584546283	-1.0851317227	 0.479741
N	 1.220064322	-0.079686228	-2.1109169453	-0.441458
C	 1.6858618258	-1.15680629	-2.8030707518	 0.423109
O	 2.3820540692	-1.0153517325	-3.9414972373	-0.41415
N	 1.4269099716	-2.3430647037	-2.3018136824	-0.342377
N	 0.6992077334	-2.0020858564	-1.1727799839	-0.04189
C	 0.1765780133	-3.0214538184	-0.2986255398	-0.339303
H	 1.0128890861	 1.8123282939	 0.1663230515	 0.126727
H	-0.3084770524	 1.8553852724	-1.0099430361	 0.157988
H	-0.683226339	 1.8116673576	 0.7258823326	 0.122876
H	-0.0464733621	-0.4562800748	 0.8082134539	 0.245743
H	 2.4457709253	-0.0666853177	-4.1021965246	 0.306039
H	 0.8866279937	-3.2942249082	 0.4919595262	 0.13511
H	-0.7539261989	-2.6698931006	 0.1564192557	 0.137875
H	-0.0359401391	-3.9081849787	-0.8972781173	 0.165936
