17
gdb 115247	4.27223	0.97793	0.83149	6.9453	65.4	-0.2771	0.0416	0.3187	1324.4823	0.136348	-496.134262	-496.125629	-496.124685	-496.168362	30.645	
O	-0.1989538869	 1.4818445784	 0.0939533494	-0.41895
C	-0.0220184226	 0.0768863806	 0.1526087144	-0.099267
C	-1.3929403002	-0.5648818295	-0.033127926	-0.043526
C	-2.010685106	-0.2049688075	-1.3746359292	-0.061447
O	-3.2635814601	-0.8771852943	-1.5694349699	-0.257474
C	-3.5141166854	-2.1058490601	-1.0712515	 0.468613
O	-4.538408497	-2.6684420968	-1.3153221838	-0.359847
O	-2.5943421052	-2.6788722077	-0.2601392486	-0.259127
C	-1.3220826382	-2.0814572946	 0.0180661355	-0.077165
H	 0.6591929786	 1.9041309437	 0.1938107966	 0.295918
H	 0.662973153	-0.2742509727	-0.6370495955	 0.09484
H	 0.4020509891	-0.237099284	 1.1193098659	 0.100639
H	-2.0537924115	-0.2081184638	 0.7660169631	 0.113599
H	-2.2287867489	 0.8601114878	-1.4507234796	 0.147449
H	-1.3327270814	-0.4791789483	-2.194972148	 0.11144
H	-0.591755868	-2.4593744747	-0.710757058	 0.115397
H	-1.0370877993	-2.4517039867	 1.0064937937	 0.128908
