20
gdb 87782	3.7209	1.09637	1.08084	1.6572	80.24	-0.2223	0.0784	0.3007	1221.7075	0.169722	-403.079084	-403.070386	-403.069442	-403.111956	34.16	
C	-0.2123439	 1.398685849	-0.0054786561	-0.313128
N	 0.0044152735	-0.0389095917	 0.0677364847	-0.130533
C	 1.3782521104	-0.5015295468	-0.1578232842	-0.330703
C	 0.766085431	-0.560482984	 1.1903462892	 0.400697
C	 1.2695449991	 0.1714063879	 2.4618970113	-0.396991
C	 0.8548899853	-1.0770697465	 3.2606463705	 0.401053
O	 1.6159615213	-1.6260007192	 4.2762807871	-0.461421
C	-0.6044664451	-1.3779788035	 3.077868175	-0.344024
C	 0.3800861092	-1.7809497769	 1.9951351524	-0.192143
H	 0.6285648765	 1.998203043	 0.3811045728	 0.099677
H	-0.3785353415	 1.6822433181	-1.0498633419	 0.12198
H	-1.1101714901	 1.663178301	 0.5627917598	 0.119309
H	 1.4832837644	-1.3986609273	-0.7635757961	 0.113506
H	 2.1503827271	 0.2507945246	-0.3210550408	 0.102639
H	 2.3528957279	 0.3139778571	 2.4623571921	 0.114271
H	 0.7800250478	 1.1131376694	 2.7332318112	 0.093783
H	 1.3176461533	-1.2536059613	 5.1133507645	 0.285793
H	-0.96299985	-2.2084588792	 3.6781784269	 0.112967
H	-1.3359591046	-0.5934584379	 2.8980766789	 0.107517
H	 0.5023174745	-2.8123863657	 1.6892850728	 0.09575
