21
gdb 67831	2.50538	1.98214	1.57718	0.2936	87.72	-0.2372	0.0187	0.2559	966.6648	0.184396	-349.890524	-349.883228	-349.882284	-349.921521	31.27	
C	-0.1628671691	 1.5737920953	-0.2018219972	-0.470518
C	-0.0205290311	 0.0538190303	-0.0479884611	 0.34453
C	-1.385475056	-0.5356134234	 0.2623485233	-0.195832
C	-1.4576596365	-0.8557902364	 1.5638582979	-0.038399
C	-0.1227407982	-0.7243585417	 2.3145390629	-0.413699
C	 0.7902108119	-0.6120841065	 1.1074767969	 0.315357
C	 2.091966779	-0.0239057152	 0.4916139297	-0.331021
C	 1.24915644	-0.6062365846	-0.7180161799	-0.125137
C	 1.0201791237	-1.8449375015	 0.1645584039	-0.243454
H	 0.77348381	 2.070939408	-0.4667147513	 0.113677
H	-0.8773271405	 1.7900254202	-1.0049017841	 0.113641
H	-0.5573737984	 2.0400433493	 0.7079958514	 0.116183
H	-2.2339015636	-0.5367686071	-0.4149497164	 0.084113
H	-2.3611389497	-1.185282647	 2.0676049932	 0.09097
H	-0.1193268991	 0.1620594724	 2.9636511126	 0.108934
H	 0.0877370259	-1.591674754	 2.9501994856	 0.106012
H	 2.2387315065	 1.0546920893	 0.5479794563	 0.09562
H	 3.0241372242	-0.5540434732	 0.70491476	 0.089873
H	 1.5424231937	-0.585812193	-1.7704097307	 0.062897
H	 1.9040724868	-2.4483343375	 0.3891730813	 0.080046
H	 0.1563098208	-2.4687672638	-0.0641181241	 0.096209
