19
gdb 73584	2.37786	1.89	1.46875	1.0813	73.26	-0.245	0.0734	0.3184	970.208	0.160322	-422.994815	-422.987363	-422.986419	-423.026277	30.557	
O	-0.0939329335	 1.3869547423	-0.0594022013	-0.489057
C	 0.0385281365	-0.0169194555	-0.011757442	 0.384059
C	 0.8049004089	-0.6437960477	-1.1888547955	-0.276135
C	-0.3149275252	-1.1383446024	-2.132461967	-0.196805
C	-1.4072547985	-1.6824984311	-1.1804742338	-0.237154
C	-1.3689442949	-0.7055666566	 0.00561171	-0.056291
C	-1.0487304226	-1.2150774711	 1.4263704936	 0.005814
O	 0.1554183472	-1.9955182143	 1.3461801168	-0.243208
C	 0.2713994541	-0.5710299142	 1.4246997799	-0.063831
H	 0.7894336019	 1.7701871643	-0.020799299	 0.277513
H	 1.4827857029	 0.0706097066	-1.6667248804	 0.083329
H	 1.3946322373	-1.4943228021	-0.8344173905	 0.116346
H	-0.7123145699	-0.2895606919	-2.7017926481	 0.104651
H	 0.0317487494	-1.8828931057	-2.8551975474	 0.093953
H	-2.3883272704	-1.7438813197	-1.6588873079	 0.09423
H	-1.1339614233	-2.686803772	-0.8420390931	 0.112256
H	-2.1616112354	 0.0454713241	 0.002623768	 0.089069
H	-1.7242499418	-1.4421629209	 2.2430503748	 0.102323
H	 0.8653103672	-0.1522486319	 2.2306418828	 0.098938
