19
gdb 118393	1.62964	1.22502	0.73091	2.8905	77.59	-0.2438	-0.0435	0.2003	1529.9307	0.156971	-419.221572	-419.211139	-419.210195	-419.258641	35.708	
C	-0.0839826985	 1.8227381282	-0.3898686774	-0.388736
C	-0.3012730882	 0.3483786581	-0.7165885759	-0.123293
N	 0.98714497	-0.3464600953	-0.8102056918	-0.302791
C	 0.9694379415	-1.7851280176	-0.9709614938	-0.079631
C	 0.6829220767	-2.3598226094	-2.3840701805	-0.346596
C	-0.7078246401	-2.2304681039	-2.8025549208	 0.264239
N	-1.8142744308	-2.1345519468	-3.1236922521	-0.313758
C	 2.3057037682	-2.3319680518	-0.4571166466	 0.155919
O	 2.9251716739	-3.2275666258	-0.9680556241	-0.241074
H	 0.4816553681	 1.9353140364	 0.5393180483	 0.126756
H	 0.4728138334	 2.3259894508	-1.1888857441	 0.115002
H	-1.043243301	 2.3372166748	-0.2838813809	 0.124701
H	-0.8709964167	-0.1303885729	 0.0891871737	 0.111032
H	-0.9096956482	 0.2552657815	-1.6281756726	 0.118963
H	 1.5732204109	 0.0880481	-1.5161691171	 0.219177
H	 0.212976494	-2.177820554	-0.274491417	 0.129061
H	 1.3282076579	-1.8629325558	-3.1175509405	 0.149815
H	 0.9675984911	-3.4170527214	-2.3954152544	 0.176054
H	 2.6617799879	-1.800040335	 0.4500120674	 0.105159
