18
gdb 83436	3.18203	1.2943	1.15651	2.4187	71.86	-0.235	0.0458	0.2808	1112.9291	0.148116	-439.00115	-438.993094	-438.99215	-439.033933	30.869	
O	-0.2809390979	 1.4602337796	-0.0235359402	-0.435464
C	-0.0589956929	 0.0869751609	 0.0058399662	 0.075937
C	-0.2066712186	-0.7549003529	 1.2638051089	-0.233947
C	-1.4144554878	-0.2438880473	 2.0311520771	-0.107518
O	-2.2513165857	-0.2821146263	 0.8309397348	-0.344295
C	-1.180688733	-0.8956530809	 0.0854833339	 0.396546
C	-1.5549953873	-1.9713520637	-0.8612337552	-0.115519
C	-2.6826448872	-2.8838471572	-0.547248007	-0.241753
N	-2.8269858093	-1.8608083973	-1.5991452946	-0.325897
H	-1.2361842443	 1.5813369174	 0.0608462781	 0.296229
H	 0.7750468311	-0.2088398295	-0.6252622497	 0.111806
H	 0.5559717838	-1.4237076534	 1.6399385033	 0.105256
H	-1.8011368774	-0.9424047952	 2.7787632398	 0.119795
H	-1.3527568311	 0.7657015042	 2.4506565916	 0.118742
H	-0.7250922482	-2.3404505629	-1.4598770131	 0.095801
H	-2.6622335673	-3.9093181181	-0.9046456381	 0.118082
H	-3.2034917792	-2.7279409166	 0.3925884593	 0.120884
H	-3.3570683475	-1.0778155104	-1.220564175	 0.245314
