19
gdb 90128	3.52655	1.57692	1.37489	2.4827	74.56	-0.2492	0.0735	0.3227	982.8022	0.161391	-422.971533	-422.964644	-422.9637	-423.002359	29.29	
O	 0.2061813229	 1.2676797613	-0.4434280988	-0.431108
C	 0.0450281525	-0.0608058001	-0.0419059389	 0.121332
C	 0.2745899194	-0.3689146193	 1.4975013855	-0.376736
C	-1.2386619061	-0.454972778	 1.6146981914	 0.429768
C	-2.3903161088	-1.1569267058	 2.3203613161	-0.317954
C	-3.5016785025	-0.6373516305	 1.3246215178	-0.209694
C	-2.6129645135	 0.2768794258	 0.423776485	 0.042261
O	-1.7937860632	 0.9216134603	 1.4504647263	-0.360173
C	-1.4297441558	-0.6295660008	 0.0871475236	-0.07896
H	-0.3656349771	 1.7800117332	 0.1447393381	 0.287752
H	 0.664865816	-0.6676046019	-0.7054073976	 0.089372
H	 0.7645602173	-1.3352293426	 1.6502801178	 0.107964
H	 0.7788397776	 0.4010486803	 2.0862448518	 0.112781
H	-2.2874172156	-2.2448179739	 2.3191206846	 0.10449
H	-2.5513747753	-0.8146845971	 3.344741471	 0.112198
H	-3.9901274423	-1.443537166	 0.7706124394	 0.102488
H	-4.2669398447	-0.0454014735	 1.8305683455	 0.112246
H	-3.111948926	 0.9671678969	-0.2587447155	 0.082235
H	-1.605367045	-1.6040649283	-0.3727650031	 0.069739
