25
gdb 108790	3.12122	0.93552	0.906	0.3013	96.06	-0.2254	0.0325	0.2579	1515.999	0.228141	-352.389883	-352.379507	-352.378562	-352.425112	39.453	
C	 0.1539124993	 1.4470984388	 0.497608006	-0.371543
C	-0.0232750775	 0.1020601042	-0.2293444309	-0.287091
C	-1.4183401581	-0.4468367816	-0.1479334962	 0.330197
C	-2.2637178002	-0.6435337746	-1.1613878643	-0.209411
C	-3.5827400028	-1.2710588289	-0.7500261776	 0.288793
C	-4.792352658	-0.5382689137	-1.3525965326	-0.42695
C	-3.6190037206	-2.7551603391	-1.1726534263	-0.415366
C	-3.5244627994	-1.1221808573	 0.8015371845	-0.250876
C	-2.0343386953	-0.9119602081	 1.1594078764	-0.310364
H	 1.1834157941	 1.8066437072	 0.4046591721	 0.111514
H	-0.5111710777	 2.2076283816	 0.0764957663	 0.118731
H	-0.0720181015	 1.3603875417	 1.564972868	 0.118491
H	 0.2595537297	 0.2181666623	-1.2817901158	 0.099068
H	 0.679116736	-0.6254687929	 0.2026553603	 0.099112
H	-2.0358444554	-0.4314328456	-2.2028572147	 0.074867
H	-4.8072030017	-0.6276963554	-2.4448921197	 0.106267
H	-5.7328777371	-0.9559036756	-0.9745482879	 0.107953
H	-4.7708922262	 0.527520348	-1.1030093461	 0.109466
H	-2.7994807917	-3.3171237968	-0.7132636491	 0.110394
H	-4.5638863929	-3.2242430208	-0.8742495432	 0.106356
H	-3.5239124085	-2.8582850712	-2.2593972156	 0.107073
H	-4.0959970165	-0.2364644852	 1.0982588351	 0.094425
H	-3.9701218146	-1.9785222325	 1.3166950403	 0.089447
H	-1.5512177364	-1.8416591058	 1.4942773285	 0.100191
H	-1.9020209272	-0.1946678086	 1.9772774323	 0.099256
