20
gdb 54303	2.49901	1.4177	1.0358	1.3946	78.96	-0.2398	-0.015	0.2247	1196.6752	0.169924	-403.127701	-403.118468	-403.117524	-403.162295	34.447	
C	 0.8456521918	 0.4246544673	 0.8367659757	-0.494431
C	-0.0087937332	 0.6554929403	-0.394535247	 0.331046
O	-0.5291894006	 1.7315855562	-0.6045351328	-0.317642
C	-0.1924655514	-0.4926799114	-1.359253113	 0.23042
C	-1.5277024144	-0.4697445651	-2.0918131105	-0.305727
C	-0.2947711176	-0.0610854145	-2.8222109418	-0.281264
C	 0.4912744602	-1.794599773	-1.0351291952	-0.10294
C	-0.1857173686	-2.8565993816	-0.2429345094	-0.241476
N	 0.1202805803	-3.0665101131	-1.6676514579	-0.329873
H	 0.4803605393	-0.4338742287	 1.4093276764	 0.145763
H	 1.8782931116	 0.1961733377	 0.5492939203	 0.142872
H	 0.8326327434	 1.3224736761	 1.4550267253	 0.140465
H	-1.9972388918	-1.4162838379	-2.3381547861	 0.10987
H	-2.2086095647	 0.3141065709	-1.7826688732	 0.143062
H	-0.1556830648	 0.9948138289	-3.0209047542	 0.140308
H	 0.1228082024	-0.7436292216	-3.5540772665	 0.125875
H	 1.5702965026	-1.703065117	-0.9212196289	 0.097053
H	 0.3790569518	-3.4783616652	 0.4460296477	 0.121374
H	-1.2200771887	-2.680639344	 0.0422913031	 0.114309
H	-0.7260264974	-2.9649209845	-2.2219141021	 0.230936
