21
gdb 121161	2.59693	1.17049	0.90107	1.3923	79.4	-0.2424	0.0649	0.3074	1363.5683	0.181197	-424.175985	-424.166525	-424.165581	-424.210924	34.344	
C	 0.5597919826	 1.312373281	-0.3270470906	-0.224518
O	 0.8552872449	-0.0615096952	-0.421129583	-0.237239
C	-0.1386450851	-0.7941466123	-1.1065151257	-0.079716
C	 0.2756398529	-2.2552984325	-1.0943742904	 0.053292
O	-0.6983142926	-3.078754196	-1.7787688628	-0.304062
C	 0.2893678617	-3.5686808208	-2.7169970599	-0.139691
C	 1.3637991216	-2.7031990275	-2.0686719786	 0.302343
C	 2.433208627	-1.8769773538	-2.7146989826	-0.325913
C	 2.7981022723	-3.0228614571	-1.7956577386	-0.326223
H	 0.4710120829	 1.7805919819	-1.3198980692	 0.105954
H	-0.3798277832	 1.4883517251	 0.2195288117	 0.10753
H	 1.3797357666	 1.7881300795	 0.2164623626	 0.127298
H	-1.1203443907	-0.6885894063	-0.6149121071	 0.095906
H	-0.2460955447	-0.4418860832	-2.145192914	 0.089174
H	 0.4264259402	-2.5825828198	-0.0563311282	 0.081362
H	 0.4315652874	-4.6538586037	-2.6279124993	 0.10097
H	 0.0235528587	-3.3254823088	-3.754083479	 0.100981
H	 2.600667264	-2.0008203823	-3.7801957442	 0.109707
H	 2.5747364119	-0.8683210757	-2.3432463024	 0.130163
H	 3.1945535775	-2.7815460681	-0.8145473471	 0.121463
H	 3.211739334	-3.9240720043	-2.2377893916	 0.111221
