20
gdb 52550	2.03812	0.98989	0.7735	3.3658	86.77	-0.2184	-0.047	0.1714	1590.9693	0.167018	-403.122838	-403.111641	-403.110697	-403.161668	37.731	
C	 0.0628118184	 0.4408642004	 1.3697590478	-0.501795
C	 0.0838210041	-0.6169663129	 0.3752005237	 0.012102
C	 0.1029542629	-1.4963166987	-0.4514268536	 0.122976
C	 0.0959939788	-2.5150331652	-1.4797749244	 0.199135
O	-0.6539986796	-2.4622602532	-2.4320563877	-0.286137
C	 1.1253698098	-3.6391581737	-1.3371468607	-0.243632
N	 1.327934934	-4.0753721292	 0.0307365705	-0.051626
C	 0.1751908979	-4.795878416	 0.5517328207	-0.322305
C	 2.5577679634	-4.833249433	 0.1958012124	-0.313371
H	 0.4950290395	 1.3613438523	 0.9616936492	 0.162316
H	-0.9634636284	 0.668005389	 1.6779058697	 0.161436
H	 0.6353806742	 0.1653034147	 2.2614136932	 0.158123
H	 0.8196571732	-4.4445591117	-2.0293226819	 0.101846
H	 2.0732442858	-3.2314236152	-1.7143595697	 0.123746
H	-0.0200596009	-5.7436223136	 0.0146051105	 0.096194
H	 0.3354969709	-5.0308076292	 1.6083350571	 0.118927
H	-0.7220150022	-4.1744313811	 0.478274179	 0.129679
H	 3.4118960293	-4.2342868175	-0.1351388152	 0.118858
H	 2.7007473455	-5.0726368597	 1.2543521161	 0.118823
H	 2.5669693834	-5.7848244064	-0.3694569666	 0.094705
