16
gdb 126950	6.34642	0.81479	0.73035	4.1976	68.54	-0.214	0.0386	0.2526	1506.9594	0.124735	-471.2477	-471.238845	-471.237901	-471.282084	31.187	
C	-0.0726409852	 1.5177042759	-0.0747581232	-0.402449
C	-0.0323283989	 0.0081586055	 0.1308613953	-0.113144
N	-1.3682794501	-0.5627204427	-0.0194358557	-0.398709
C	-1.5208524661	-1.9109250141	-0.0265688813	 0.543895
N	-0.5964994995	-2.8083903441	-0.1399624466	-0.332391
N	-1.3439909284	-3.9892952371	-0.1780314755	-0.320088
C	-2.6788245324	-3.7960793563	-0.040121689	 0.47429
O	-3.6102456521	-4.546583375	 0.0057632689	-0.389607
O	-2.7892283054	-2.3891193891	 0.0448194427	-0.248897
H	 0.9303777272	 1.9391937601	 0.0306672031	 0.131497
H	-0.4520932597	 1.7681435666	-1.0693878293	 0.135602
H	-0.7150861434	 2.0027835231	 0.6691155385	 0.12032
H	 0.6096312652	-0.4677422703	-0.6160085936	 0.142977
H	 0.3937259209	-0.2377984704	 1.1144840692	 0.113305
H	-2.1279208609	-0.063119414	 0.4198610022	 0.256833
H	-0.8824664513	-4.8798842781	-0.2111909858	 0.286568
