14
gdb 126831	4.64182	0.99065	0.86349	6.0278	71.58	-0.3037	-0.0596	0.2442	1292.905	0.102111	-429.048075	-429.040129	-429.039185	-429.081723	27.538	
C	-0.0562615266	 1.5490754757	-0.0699612191	-0.386536
C	-0.0150974484	 0.0290334965	 0.0691611023	-0.142721
N	-1.3524681905	-0.5606245474	 0.0251265955	 0.132657
N	-1.9505161977	-1.0700241261	 1.100689241	-0.107886
N	-3.1285237181	-1.4753031998	 0.7134244655	-0.242224
C	-3.198508518	-1.1861658471	-0.611818268	 0.300229
N	-2.0877636685	-0.6063036755	-1.0695092896	-0.274388
C	-4.3275972696	-1.4711106764	-1.4284860499	 0.281747
N	-5.2484886531	-1.7041674148	-2.0865701727	-0.318535
H	 0.9633347051	 1.9423169396	-0.0405494942	 0.139771
H	-0.5126361412	 1.8383686372	-1.0194166237	 0.155948
H	-0.6250839188	 2.0000318193	 0.7473562812	 0.146251
H	 0.5639008453	-0.4289599094	-0.7362854739	 0.154234
H	 0.4052023102	-0.2812512318	 1.0269490555	 0.161452
