18
gdb 98076	3.26016	1.00819	0.81018	3.9003	72.36	-0.2505	-0.0666	0.1839	1411.192	0.144465	-476.253373	-476.242759	-476.241815	-476.290417	35.773	
C	 0.2588955703	 1.2170158765	 0.1496936679	-0.348404
N	 0.0435703515	-0.2024423283	-0.0994377031	-0.104735
C	 0.2945305659	-1.0758924462	 1.0376676842	-0.343325
C	-0.3466865304	-0.5840329597	-1.3432603985	 0.361462
O	-0.5036731266	 0.1887651324	-2.2805113392	-0.377869
C	-0.6424728046	-2.0639254396	-1.638162901	 0.245532
O	-1.1193772655	-2.848535757	-0.8453657022	-0.327884
C	-0.3947382761	-2.489468191	-3.0732111294	-0.118469
O	-0.6964157801	-3.8407926353	-3.2592209972	-0.425678
H	 1.2937281515	 1.3932662497	 0.4660274794	 0.129823
H	 0.0556186249	 1.7681381204	-0.766272118	 0.174616
H	-0.4086716889	 1.5657681477	 0.9465661926	 0.132406
H	-0.419851777	-0.8659304657	 1.8432493721	 0.134627
H	 0.1979311124	-2.1204369577	 0.7613514781	 0.173092
H	 1.304037298	-0.8899656027	 1.4236560791	 0.126837
H	-0.9904052521	-1.8335662346	-3.7238703884	 0.150036
H	 0.658660396	-2.2766726015	-3.3175647717	 0.125472
H	-1.0670778992	-4.1469130774	-2.4174798747	 0.292461
