16
gdb 111914	2.23269	1.47621	0.93372	5.5254	67.61	-0.2394	-0.0038	0.2356	1198.5636	0.125833	-471.257098	-471.248624	-471.24768	-471.290386	31.592	
N	-0.0749479864	 1.3286232642	-0.1270076345	-0.580509
C	-0.0796175722	-0.0414567334	-0.0394362898	 0.440833
N	-1.1210852215	-0.79041228	-0.0684051194	-0.343751
C	-0.6346145602	-2.1739809985	-0.0628376915	-0.142532
C	-1.1494446186	-2.9264944206	-1.3001121819	-0.046141
O	-2.5575057446	-2.9059765066	-1.3380577174	-0.423394
C	 0.895793777	-2.08957154	-0.0164666084	 0.416954
O	 1.7259729688	-2.9622682663	-0.0389119533	-0.364019
N	 1.1396621408	-0.7167213756	 0.0354989951	-0.380553
H	 0.6362719847	 1.8080630736	 0.4056787169	 0.259236
H	-0.9958839768	 1.7273225235	-0.008670421	 0.270486
H	-1.0004892928	-2.696685199	 0.8299328132	 0.121796
H	-0.7097410459	-2.4724942248	-2.2033178221	 0.086448
H	-0.8294771007	-3.9715192069	-1.2581811103	 0.125074
H	-2.810070523	-1.9856521418	-1.1885602132	 0.293625
H	 2.0567425215	-0.311970388	-0.0683449223	 0.266446
