20
gdb 124458	3.1347	1.25054	1.11582	6.4085	78.9	-0.2439	0.0239	0.2678	1179.4389	0.171069	-399.354183	-399.345196	-399.344252	-399.388058	34.049	
C	-0.024253292	 1.5416214403	 0.0059499775	-0.392396
C	-0.0150258951	 0.0028779593	 0.0236541522	 0.226879
C	 0.7470727837	-0.5211033035	 1.25357202	-0.392609
C	-1.4561758687	-0.5229291624	 0.0456835301	-0.420355
N	 0.6681693534	-0.481956726	-1.2003027697	-0.023251
C	 0.1942533592	-1.2675563928	-2.2168776207	 0.019995
N	 1.1124005134	-1.4741597993	-3.1267077257	-0.237342
N	 2.247732051	-0.8078891812	-2.7150755474	-0.231436
C	 1.9607700339	-0.2306517076	-1.5766277924	 0.0178
H	 0.9909140517	 1.9476780597	-0.000031179	 0.125304
H	-0.5462517673	 1.9158017866	-0.8791215219	 0.132747
H	-0.5334145171	 1.9235607561	 0.8956640838	 0.123882
H	 0.2543014011	-0.1851332586	 2.1706273897	 0.123909
H	 0.7744849368	-1.6142987304	 1.2557568321	 0.132784
H	 1.7769001123	-0.1542656466	 1.2725753947	 0.125285
H	-2.0290976291	-0.1660813871	-0.8149078855	 0.132513
H	-1.4864585525	-1.6161287377	 0.0598270905	 0.132569
H	-1.9526507169	-0.1627436243	 0.9504503398	 0.12721
H	-0.8083814172	-1.6583435706	-2.2505589996	 0.139011
H	 2.6417355293	 0.3699289962	-0.9951559283	 0.137502
