25
gdb 78023	2.23277	1.40162	1.2176	0.1241	92.47	-0.2482	0.0795	0.3276	1243.809	0.229559	-352.371145	-352.361371	-352.360427	-352.404939	38.167	
C	-0.3495471823	 1.5351895502	 0.04385411	-0.427092
C	-0.0117007409	 0.0568652948	 0.0731898381	-0.042346
C	 1.2900202601	-0.6170377339	-0.3282451652	-0.105004
C	 2.6089767137	 0.1443381643	-0.4193595833	 0.038869
C	 2.7821792864	 1.0185882572	-1.6655486634	-0.40059
C	 2.7230008688	 0.9202781714	 0.9191256137	-0.241606
C	 1.8154984758	 0.1783707302	 1.9303889458	-0.272392
C	 0.8234365182	-0.6575594067	 1.1161418281	 0.32567
C	 0.2820301085	-1.907055182	 1.7736890552	-0.479443
H	 0.4445329823	 2.1748160244	 0.4296366659	 0.119874
H	-0.5723796024	 1.8651287587	-0.9773155543	 0.116184
H	-1.2432269717	 1.7283537889	 0.6488729767	 0.112406
H	-0.8692195851	-0.5421232677	-0.2320592929	 0.075311
H	 1.1978957934	-1.4999703336	-0.9557088209	 0.068109
H	 3.3999733449	-0.6189408268	-0.4369643941	 0.067984
H	 2.0174275387	 1.8006806704	-1.7112261389	 0.115762
H	 3.7626062236	 1.5080378589	-1.6712485954	 0.107493
H	 2.7041763441	 0.4230448403	-2.5814502451	 0.108746
H	 3.7598215369	 0.9726733582	 1.2652073595	 0.092968
H	 2.3993049855	 1.9560753109	 0.7828159584	 0.101624
H	 2.4131815021	-0.5057976602	 2.5448152523	 0.094007
H	 1.3221537421	 0.8674030712	 2.6263690008	 0.092017
H	-0.3239734766	-1.6652781413	 2.6558286231	 0.112509
H	-0.3522295334	-2.4769132927	 1.0869337637	 0.110106
H	 1.0933593373	-2.5670559252	 2.1049421725	 0.108836
