19
gdb 72907	2.69348	1.84799	1.44037	1.3262	73.56	-0.2372	0.0647	0.3019	971.0993	0.159747	-422.99812	-422.990554	-422.98961	-423.030003	30.274	
C	-0.178163016	 1.5217565555	-0.0058666202	-0.455828
C	 0.0521611387	 0.0249529203	 0.001889055	 0.351176
C	-1.1255758938	-0.8960313326	 0.3920733306	-0.119569
O	-0.3475639458	-1.5237256166	 1.43603979	-0.290396
C	 0.7921852781	-0.6650964742	 1.1839610804	 0.040939
C	 2.0161025157	-1.3249564664	 0.5835853391	-0.083755
C	 1.7545235836	-2.4864309561	-0.3593123417	-0.318842
C	 1.8881956218	-1.0960205666	-0.9024664516	 0.087353
O	 0.7245873692	-0.3625931607	-1.1963273599	-0.303974
H	 0.7764877814	 2.0541185359	-0.0587585287	 0.123964
H	-0.7740462888	 1.8083218327	-0.8782385922	 0.131288
H	-0.7091975764	 1.8431797571	 0.8950663525	 0.119388
H	-2.005525112	-0.3817455969	 0.7974871852	 0.098185
H	-1.4342553119	-1.6006003029	-0.3878360455	 0.106722
H	 1.0306467485	-0.0544718344	 2.0604289324	 0.07492
H	 2.9636133777	-1.248240481	 1.1020003079	 0.090612
H	 2.576162751	-3.1728091839	-0.5338226276	 0.113081
H	 0.7736465152	-2.9449345577	-0.3170804093	 0.135431
H	 2.7247127436	-0.8262030415	-1.5379605766	 0.099306
