23
gdb 96386	1.92922	1.60565	1.15738	0.5643	90.37	-0.2569	0.0542	0.3112	1214.0246	0.20671	-351.154616	-351.145425	-351.144481	-351.187884	36.499	
C	-0.0451881154	 1.5606864255	-0.0328219058	-0.413469
C	 0.0468149273	 0.0332962564	-0.0153248769	 0.039774
C	 0.6606185052	-0.5292239911	-1.3076805544	-0.186626
C	 0.7010131794	-2.0645369165	-1.3070682949	-0.199321
C	 1.4324635542	-2.6084910789	-0.0720959082	-0.184928
C	 0.8307691864	-2.0504938879	 1.2234284578	-0.211634
C	 0.8110450578	-0.5002265302	 1.2319372793	-0.159064
C	 2.167006273	 0.0418791381	 1.3287972019	 0.364018
C	 3.2875346817	 0.4725477277	 1.4114958758	-0.508342
H	 0.949114334	 2.0121251116	-0.1064295335	 0.128948
H	-0.638393053	 1.9044924554	-0.8865655044	 0.108043
H	-0.5177406187	 1.9420857178	 0.87913006	 0.107004
H	-0.9727756695	-0.3697106162	 0.0736667823	 0.068138
H	 0.0891679307	-0.1660478993	-2.1700737438	 0.086574
H	 1.6791547764	-0.1338333733	-1.4174794651	 0.105135
H	-0.3274209859	-2.4525244882	-1.3191291923	 0.088712
H	 1.1799141141	-2.4294019722	-2.222721448	 0.089498
H	 1.3944760254	-3.703410746	-0.0576551113	 0.088838
H	 2.4924665177	-2.3300927354	-0.1230311178	 0.108602
H	-0.2047463382	-2.3996435772	 1.3290331448	 0.091206
H	 1.3828612262	-2.4158486009	 2.095072958	 0.100663
H	 0.2615450344	-0.1704508309	 2.1242751706	 0.094584
H	 4.2733695469	 0.8585849319	 1.492651046	 0.193646
