19
gdb 128130	1.93073	1.87367	1.02154	2.907	80.22	-0.1826	0.0317	0.2144	1188.2025	0.160544	-415.38901	-415.379269	-415.378325	-415.424066	34.69	
C	-1.074235918	 0.4730866879	 0.2258291123	-0.333792
N	 0.3302541369	 0.0626285284	 0.1088757906	-0.397679
C	 0.7094122534	-0.5302441833	-1.1043308866	 0.273167
C	 0.6653206376	-1.8721040442	-1.4454217102	 0.148019
N	 0.1725372963	-2.9094473862	-0.6355703892	-0.618557
C	 1.1388716766	-1.9167965233	-2.7722249624	-0.062916
N	 1.4649987972	-0.7033763068	-3.223794825	-0.280436
N	 1.1729812975	 0.1352526138	-2.2158809499	 0.003185
C	 1.4961998654	 1.537547563	-2.3301416607	-0.336512
H	-1.3741296861	 1.2578251203	-0.4861055718	 0.106618
H	-1.712210437	-0.3975570711	 0.0532780358	 0.147923
H	-1.2581751143	 0.8363135076	 1.2413805957	 0.118357
H	 0.9579158697	 0.8030472326	 0.396145992	 0.228504
H	 0.2452060401	-2.6569859518	 0.3445390862	 0.241886
H	 0.6613261578	-3.78283701	-0.7886047686	 0.240255
H	 1.2624130234	-2.7786381879	-3.4122466446	 0.098387
H	 0.6951387999	 2.1511374599	-1.9076016426	 0.132745
H	 2.4371982442	 1.7860128746	-1.8229030104	 0.129653
H	 1.6013479694	 1.7629276164	-3.3912421207	 0.161192
