19
gdb 90985	2.73358	1.8744	1.37636	1.3291	74.4	-0.2381	0.0635	0.3015	978.3542	0.159695	-422.984625	-422.976986	-422.976042	-423.016194	31.012	
C	-0.1017106	 1.5260400962	-0.0480013978	-0.398216
C	 0.0235685979	 0.0130236453	 0.0214662453	 0.063592
O	 0.8655008127	-0.4991000046	-1.0256911823	-0.295245
C	 1.8684585845	-1.1941997984	-0.3033806152	 0.140873
C	 1.2529288412	-1.9847713917	 0.8823946173	-0.165428
C	 2.5422051717	-1.7335508001	 1.6969462242	-0.268713
C	 2.2983185924	-0.394410422	 0.9612458911	-0.127945
C	 0.7706562972	-0.5290970116	 1.2502406832	 0.390217
O	 0.3104449318	-0.1862246372	 2.5170569041	-0.488674
H	 0.8810499714	 2.0009726261	 0.0243422073	 0.121799
H	-0.562105229	 1.8307484954	-0.9918897261	 0.122724
H	-0.7222159732	 1.8902672472	 0.7769495868	 0.116684
H	-0.9723963375	-0.4493775372	-0.0655777424	 0.065212
H	 2.6014191862	-1.6415038141	-0.9716637023	 0.090173
H	 0.6406866163	-2.8865067838	 0.8272822347	 0.067933
H	 2.4250374199	-1.7061562085	 2.7806504378	 0.111932
H	 3.428900297	-2.3021352414	 1.4036240561	 0.090899
H	 2.8905713333	 0.5199120683	 0.9988923398	 0.076404
H	-0.5703475935	-0.5588458779	 2.6347126284	 0.285779
