20
gdb 110738	2.40897	1.28161	1.0919	3.6043	79.92	-0.2389	0.0115	0.2504	1240.5513	0.170159	-403.154307	-403.144983	-403.144039	-403.18851	34.548	
C	 0.0536187602	 1.3952416173	-0.349670662	-0.373392
C	 0.0066209738	-0.0371970366	 0.1956188353	-0.220875
C	-1.3843665877	-0.6350904467	 0.1288554572	-0.046552
C	-1.9827716191	-1.304787024	-1.0779870892	-0.065101
N	-1.0073444066	-2.1158665292	-1.8133324176	-0.342138
C	-0.6703857365	-2.8549891897	-0.6629108339	 0.363978
O	 0.1463713317	-3.7125053789	-0.4757482632	-0.345823
C	-1.7234875915	-2.1340141598	 0.1767129571	 0.129846
C	-2.6456955073	-2.7683911421	 1.1756277501	-0.500023
H	 1.0627159361	 1.811626483	-0.2766683585	 0.117876
H	-0.2493651133	 1.4279463149	-1.401751784	 0.115178
H	-0.6204430346	 2.0552379014	 0.2073359078	 0.11668
H	 0.7147962327	-0.666170695	-0.3541428206	 0.109509
H	 0.34422123	-0.0474423615	 1.2391011253	 0.108904
H	-2.124362865	-0.0622530513	 0.69067125	 0.090605
H	-2.9340034279	-1.0537504243	-1.530115418	 0.108809
H	-0.3103801302	-1.7344194747	-2.443713035	 0.239756
H	-2.0920786627	-3.0858765751	 2.0656400678	 0.13907
H	-3.4224805292	-2.0681529146	 1.4982007997	 0.120602
H	-3.1373617729	-3.6529158231	 0.757857692	 0.133092
