21
gdb 103292	2.48724	1.3135	1.29471	1.5619	78.48	-0.2335	0.0678	0.3013	1147.8587	0.180363	-424.159149	-424.149672	-424.148728	-424.192879	36.384	
C	-0.1404602653	 1.6445560284	-0.0174642368	-0.493993
C	-0.0497412079	 0.1211052781	 0.0281091797	 0.28877
C	-1.4420860462	-0.4901410187	-0.1596080523	-0.139945
O	-2.0053492697	-0.1630843878	-1.4287548096	-0.423089
C	 1.1201452034	-0.6321461142	-0.6914085043	-0.001458
C	 2.1337670815	-0.107628101	 0.3480232223	-0.277755
C	 0.8634170896	-0.6062661003	 1.0883749551	 0.361082
C	 0.6386014494	-0.8315337004	 2.551998601	-0.518673
O	 0.8906650058	-1.7987562027	 0.1880169225	-0.347594
H	 0.8243896414	 2.1494615115	-0.0826647277	 0.112908
H	-0.7388954399	 1.9372189337	-0.8846411628	 0.140537
H	-0.6549524034	 2.0201097094	 0.8751044055	 0.116549
H	-1.401295743	-1.5721417334	-0.0091910458	 0.112659
H	-2.1290667756	-0.0637352313	 0.5806716165	 0.100702
H	-1.5401138114	-0.6823245163	-2.0918790124	 0.283631
H	 1.2703891335	-0.8340562085	-1.7537270539	 0.083275
H	 3.00377358	-0.7518835541	 0.4811958201	 0.104787
H	 2.3895380922	 0.9513619643	 0.3736373197	 0.098093
H	 0.6464344601	 0.1239926099	 3.08617228	 0.12926
H	-0.3258831313	-1.3173953972	 2.7285066783	 0.13494
H	 1.4272025067	-1.4659895195	 2.9677456351	 0.135315
