18
gdb 13990	5.43743	1.07474	1.00436	2.1308	67.73	-0.2316	0.0735	0.3051	1175.8422	0.153141	-384.884901	-384.876786	-384.875841	-384.917873	29.783	
O	-0.0870089642	 1.4812424657	-0.0645013532	-0.418969
C	 0.0012762179	 0.0686518464	-0.1590543894	-0.063961
C	-1.3745983777	-0.5055417616	 0.174144591	-0.304957
C	-1.4074784782	-2.0052194378	 0.1161750309	 0.283039
C	-1.5806331634	-2.8105826067	-1.1638052096	-0.342236
C	-2.5375197295	-2.999914922	-0.0286021968	 0.04166
O	-1.9925740262	-3.8935517418	 0.9453475951	-0.287021
C	-0.9121021368	-2.9583619017	 1.206504068	-0.1269
H	 0.7747237582	 1.8528560185	-0.2737789723	 0.28633
H	 0.2973060496	-0.2511533624	-1.1706202882	 0.09076
H	 0.7519466315	-0.3328226702	 0.5416765704	 0.085933
H	-1.6650948554	-0.1551599677	 1.1723917491	 0.109
H	-2.1026940718	-0.0855171698	-0.5295377095	 0.108729
H	-1.9575319733	-2.2354315743	-2.0048313385	 0.113485
H	-0.8977312558	-3.6157509348	-1.4224804411	 0.112627
H	-3.615499721	-2.8922935448	-0.0760733472	 0.105009
H	 0.0763866563	-3.4177301577	 1.0840599481	 0.101805
H	-1.0032528803	-2.5405940774	 2.216802613	 0.105669
