19
gdb 104833	2.04244	1.53165	1.38672	3.6176	73.62	-0.2318	0.0219	0.2538	1082.0604	0.158589	-456.316216	-456.306722	-456.305778	-456.350364	34.8	
C	 0.5756816129	 0.1185540665	 1.1081551642	-0.258853
O	 0.6317649184	-1.026609687	 0.2596210078	-0.301119
C	 0.8687962137	-0.8033439595	-1.1048452851	 0.302308
C	 2.260816682	-0.2493576139	-1.4342644189	-0.112436
O	 2.3866777961	 1.1138005202	-1.0893430614	-0.425153
C	 0.407194229	-2.0526259972	-1.9202161178	-0.21546
N	-0.6520165222	-1.2044171077	-2.4947492107	-0.337884
C	-0.2196028502	-0.0436712956	-1.895413571	 0.355507
N	-0.4672770033	 1.2019023613	-1.9661297219	-0.576579
H	 1.5459292033	 0.6167075759	 1.1879350156	 0.13516
H	-0.1625847132	 0.8441937784	 0.7484214762	 0.132514
H	 0.2687829669	-0.2554591011	 2.0879920699	 0.116881
H	 3.0143559048	-0.8030920647	-0.8629136573	 0.111855
H	 2.4625686814	-0.4149771107	-2.506614078	 0.080646
H	 1.6053724919	 1.568807487	-1.4443423815	 0.300334
H	 1.1343871812	-2.424907347	-2.6490316964	 0.11139
H	 0.0364361493	-2.8675530488	-1.2955408646	 0.126185
H	-1.1433820451	-1.3152360808	-3.3694169033	 0.24351
H	-1.1952702167	 1.4217082148	-2.6483786657	 0.211194
