21
gdb 40763	2.82711	1.24361	0.97237	1.7784	82.61	-0.2229	0.0827	0.3056	1277.5096	0.182345	-387.039501	-387.030863	-387.029919	-387.073413	33.151	
C	-0.2749419877	 1.3982380623	-0.2802446093	-0.278273
C	 1.1036401686	 1.3688724603	 0.3296031351	-0.27362
C	 0.3446302678	 0.0800668066	 0.1165828843	 0.025366
C	-0.1980173747	-0.688473613	 1.2890737116	-0.146005
C	-1.2575601443	-1.7837181011	 1.0087498552	-0.093723
O	-0.4324917685	-2.804951972	 1.6134585956	-0.309181
C	 0.6207379289	-1.8652575674	 1.8312411436	 0.462462
C	 2.0528932101	-2.2233060426	 1.5998176164	-0.335644
C	 1.5293448098	-1.9636448729	 3.0083186789	-0.336789
H	-1.0893847226	 1.7787655941	 0.3277403895	 0.111879
H	-0.3668065861	 1.6264770834	-1.3361414733	 0.113556
H	 1.954527003	 1.5770054102	-0.3093171474	 0.113761
H	 1.2145147423	 1.7307832213	 1.3466666536	 0.11181
H	 0.6947147943	-0.5465872005	-0.6997717089	 0.087
H	-0.5092322637	 0.0033705763	 2.0787709736	 0.074789
H	-2.218052013	-1.6776993677	 1.5248248703	 0.101895
H	-1.4383239491	-1.9831260302	-0.0551745017	 0.099342
H	 2.2646675922	-3.2525104002	 1.3301644383	 0.121724
H	 2.7067761243	-1.4865907209	 1.1444102339	 0.116674
H	 1.8276194318	-1.0508596046	 3.514754325	 0.110879
H	 1.4005942864	-2.8230672914	 3.6578241357	 0.122097
