19
gdb 97252	3.45566	1.20471	0.93079	4.7788	86.94	-0.1932	-0.0029	0.1903	1268.8553	0.160836	-419.216401	-419.207564	-419.20662	-419.250339	32.552	
C	-0.122673698	 1.4745679276	-0.8527871847	-0.312785
N	-0.0002835451	 0.0800253265	-0.474894807	-0.307142
C	-0.8964979991	-0.4427607017	 0.2657267704	 0.344985
O	-1.9834742145	 0.3087048178	 0.6523532962	-0.267078
C	-2.7288538471	-0.0387113054	 1.8074470816	-0.081197
C	-3.5962586971	-1.2815386536	 1.6164054653	-0.169756
N	-2.8366864651	-2.4946627269	 1.8310103161	-0.309473
C	-1.6040274956	-2.7025454423	 1.2705504298	-0.011984
C	-0.7679096277	-1.8452643162	 0.6452625306	-0.152977
H	 0.8608372751	 1.8488033619	-1.1525619238	 0.109567
H	-0.7929653655	 1.5903028788	-1.7165588019	 0.11479
H	-0.5193715202	 2.112753363	-0.0524748969	 0.107395
H	-2.0727012807	-0.1685723312	 2.6770385992	 0.122587
H	-3.3758790474	 0.8236262297	 1.9894039998	 0.119491
H	-4.4148882934	-1.2630700031	 2.3437008841	 0.11095
H	-4.0390538682	-1.232866984	 0.608681766	 0.117175
H	-3.3714265015	-3.3233645433	 2.030994276	 0.246614
H	-1.2549170669	-3.7225403693	 1.4053066748	 0.11197
H	 0.1770692279	-2.2575828883	 0.3161141744	 0.106867
