15
gdb 12656	3.30139	2.05835	1.29863	5.7673	63.91	-0.2349	-0.0611	0.1737	901.6417	0.119157	-399.855876	-399.8481	-399.847156	-399.888994	27.016	
C	-0.0522257268	 1.4226130954	 0.0088672709	-0.346549
N	-0.0009770258	-0.020363306	 0.0006799314	-0.076901
C	-1.2150149083	-0.8254540208	 0.0041297611	-0.173953
C	-0.7294447445	-2.2878863467	-0.0069867902	-0.352415
C	 0.7917215839	-2.2023532255	-0.0168481375	 0.321144
O	 1.5738552272	-3.111067106	-0.0267476299	-0.278893
C	 1.1772248114	-0.7110268701	-0.0105813241	 0.297715
O	 2.2972049699	-0.2494220408	-0.0156154955	-0.368845
H	 0.9754921496	 1.7895964306	 0.0032002574	 0.172671
H	-0.5810122971	 1.8017147069	-0.8743664914	 0.131055
H	-0.5676982384	 1.7921961505	 0.9039415982	 0.131071
H	-1.8185256779	-0.5960791822	 0.8916570019	 0.120422
H	-1.8299397981	-0.5864580492	-0.8729644761	 0.120427
H	-1.0590543334	-2.8486566626	 0.8716772958	 0.15154
H	-1.0709699816	-2.8392695835	-0.887033572	 0.15151
