27
gdb 100293	1.82227	1.32237	1.01431	1.2593	91.51	-0.2639	0.0691	0.3331	1406.5651	0.249605	-390.695981	-390.684068	-390.683124	-390.732279	44.881	
C	-0.095505329	 1.5856558536	 0.2035686143	-0.405848
C	 0.0676941849	 0.0683443049	 0.0476844307	-0.191855
C	 0.6920776529	-0.4407408462	-1.2815294777	 0.265956
C	-0.0687859212	 0.1169646984	-2.4997208542	-0.438837
C	 2.1426233594	 0.0636840221	-1.3832927425	-0.106511
O	 2.9138823965	-0.4965177921	-0.3264951535	-0.425641
C	 0.6690431314	-2.0121177769	-1.264119375	 0.048447
C	-0.7408117351	-2.6049274106	-1.4369151154	-0.407759
C	 1.6181166237	-2.6662241591	-2.2831635055	-0.417259
H	 0.862329074	 2.1138262452	 0.1643911378	 0.114981
H	-0.7457594448	 2.0142537476	-0.565403109	 0.113133
H	-0.5468407963	 1.8142693468	 1.1745232784	 0.110983
H	 0.6890582685	-0.3051661621	 0.8684704379	 0.111933
H	-0.9182824116	-0.3923501177	 0.1711548281	 0.089329
H	 0.0976232959	 1.1926939628	-2.6161956102	 0.109997
H	 0.2536057315	-0.3630079496	-3.4294160701	 0.111495
H	-1.1470157297	-0.0378898651	-2.4022273125	 0.115982
H	 2.5608541092	-0.2098363095	-2.3628768281	 0.083805
H	 2.1500615208	 1.162126878	-1.3295907059	 0.083439
H	 3.8062233053	-0.144276354	-0.3854513653	 0.286874
H	 1.0292357607	-2.3041178316	-0.270753939	 0.084
H	-1.4714845327	-2.1774069186	-0.7451046438	 0.111369
H	-1.119002989	-2.4575587965	-2.45437797	 0.111348
H	-0.7155199911	-3.6845739909	-1.2556336703	 0.108239
H	 2.6628138898	-2.4347055344	-2.065355712	 0.12158
H	 1.5079411169	-3.755253604	-2.2471598365	 0.104501
H	 1.3987777191	-2.3567884703	-3.3118008106	 0.10632
