17
gdb 45138	2.85553	1.60035	1.08948	5.5251	77.47	-0.2111	-0.0094	0.2016	1075.4303	0.139525	-418.026146	-418.018718	-418.017774	-418.058042	29.299	
O	-0.0469857607	-0.1807691945	-0.0191873876	-0.386778
C	 0.0197532127	 1.0374430163	-0.0943343362	 0.353714
N	-0.9364550749	 1.8159048624	 0.5577182539	-0.333002
C	-1.4363282584	 3.0824671279	 0.1366323124	 0.009032
C	-1.3772824218	 4.2565422634	 1.0922539684	-0.321926
C	-0.5037337743	 4.2215983742	-0.1393258273	 0.016733
N	 0.9114912068	 4.0426663024	-0.0359206253	-0.296815
C	 1.5783900833	 2.9804553102	-0.5944364285	-0.005327
C	 1.1633095999	 1.7034040286	-0.7259650431	-0.193069
H	-1.6201952506	 1.2198834157	 1.0073447362	 0.239051
H	-2.3022423225	 3.0442583881	-0.5243051643	 0.102999
H	-2.2045428812	 4.9562171632	 1.1231059776	 0.117569
H	-0.8789182556	 4.0644045022	 2.0347698812	 0.131664
H	-0.8103931531	 4.8665431594	-0.9625698338	 0.102383
H	 1.4314808026	 4.9057052561	-0.0140092246	 0.247127
H	 2.5812547261	 3.2316134082	-0.9333484719	 0.111551
H	 1.8414192516	 1.0062993261	-1.2013237573	 0.105096
