16
gdb 31421	3.10348	1.29053	0.91682	3.0329	77.87	-0.2054	-0.0302	0.1752	1219.633	0.125182	-437.913799	-437.905942	-437.904997	-437.946289	29.737	
C	-0.0769933442	 1.3822909749	 0.1207467445	-0.250332
O	 0.0022084504	-0.031342817	 0.0010276538	-0.255997
C	 0.6210834006	-0.5353690021	-1.0830203624	 0.424562
C	 1.1860907774	 0.1805872135	-2.089215187	-0.344544
C	 1.8248029706	-0.4763207031	-3.2062155978	 0.385795
N	 2.3707142549	 0.1354899536	-4.1770189567	-0.548147
O	 1.8241920248	-1.883263837	-3.1852651288	-0.240387
C	 1.2546741086	-2.5621315574	-2.1716156437	 0.08492
C	 0.6559316594	-1.9779519434	-1.1242364469	-0.26832
H	 0.9221387915	 1.8312490375	 0.1638019125	 0.137652
H	-0.6320099304	 1.8188330547	-0.717745008	 0.137651
H	-0.6074596651	 1.5775236675	 1.0531987522	 0.141388
H	 1.1961862345	 1.2595345473	-2.1220955282	 0.118016
H	 2.756791094	-0.5276953586	-4.8483276912	 0.217087
H	 1.341696753	-3.6330704874	-2.3099907541	 0.139712
H	 0.2101930399	-2.5596007929	-0.3302234883	 0.120943
