15
gdb 51982	7.1678	0.6245	0.57653	3.6079	66.44	-0.2608	-0.0516	0.2092	1771.4296	0.109587	-491.105402	-491.095721	-491.094777	-491.142513	31.674	
N	-0.0204306195	 1.6099476318	-0.0596128422	-0.517804
C	 0.0352438915	 0.3513650443	-0.0984194355	 0.514076
N	-1.0812680663	-0.48298201	-0.081982983	-0.366188
C	-2.4231694722	-0.1374981815	-0.0228868144	 0.165134
O	-2.8852896459	 0.9679469359	 0.0262109777	-0.252649
O	 1.1282054543	-0.4769610708	-0.1625696251	-0.268403
C	 2.4068835991	 0.1287532134	-0.1915363284	-0.180027
C	 3.441656459	-0.9844428512	-0.2617311399	 0.141271
O	 4.6219816705	-0.7724746838	-0.2987793372	-0.22438
H	 0.8950419108	 2.0487616009	-0.0802703537	 0.232534
H	-0.8677479589	-1.4679952867	-0.1185091813	 0.261901
H	-3.0393621522	-1.0597928538	-0.0272561968	 0.084483
H	 2.522934057	 0.7824046237	-1.0667566477	 0.153666
H	 2.587698042	 0.7305880067	 0.7094875251	 0.153664
H	 3.0094289007	-2.008092969	-0.2756170975	 0.102725
