14
gdb 133150	2.35643	1.82683	1.03561	2.4119	67.3	-0.244	-0.0451	0.1989	1048.5488	0.100649	-478.005366	-477.997721	-477.996777	-478.037751	28.298	
C	-0.0369787408	 1.5701334341	-0.031985899	-0.503808
C	 0.0053603531	 0.0713684881	-0.0379254419	 0.038209
C	-0.1135513851	-0.7089361609	-1.1646381584	 0.239477
F	-0.2796196588	-0.1448501176	-2.35917219	-0.062769
C	-0.0622021269	-2.1039223042	-1.0746888729	-0.096838
N	 0.1006826457	-2.7291178249	 0.0807279728	-0.201627
N	 0.2200839451	-2.0121594011	 1.1967315486	-0.304656
C	 0.1745218451	-0.6879025147	 1.1365969672	 0.40668
O	 0.301450016	-0.024096139	 2.3002040669	-0.402994
H	 0.8890008064	 1.980264669	 0.383437233	 0.152647
H	-0.1744695877	 1.95952011	-1.041187425	 0.143605
H	-0.853804521	 1.9301616467	 0.6015727103	 0.152645
H	-0.1560365976	-2.7182845545	-1.9633981361	 0.133233
H	 0.4065792865	-0.7037654113	 2.9830221644	 0.306198
