20
gdb 86371	2.39487	1.15528	0.85073	2.7491	77.45	-0.2315	-0.0247	0.2069	1366.2499	0.168731	-440.261414	-440.251606	-440.250662	-440.297482	34.976	
C	-0.0150102796	 1.5056871055	 0.0861394006	-0.331267
N	-0.0130958779	 0.0583741934	 0.139446432	-0.094934
C	-1.2863170309	-0.6220062928	 0.4559112031	-0.208325
C	-0.479544432	-1.7006870751	 1.2156561229	 0.115881
O	-0.185488787	-2.8603601781	 0.4765109559	-0.427095
C	 0.6552343643	-0.6277298736	 1.2697177857	-0.000424
C	 2.1014364233	-1.097061288	 1.0740136781	-0.272641
C	 3.0607880085	 0.0579170079	 0.9023477532	 0.145504
O	 3.8050519547	 0.4611412349	 1.7601861835	-0.240916
H	 0.9959637693	 1.8833020904	-0.0970161798	 0.126113
H	-0.6504737606	 1.8415709523	-0.7400013113	 0.125194
H	-0.3896970778	 1.9692130045	 1.0177586479	 0.099267
H	-1.9373787081	-0.0394084184	 1.1282731451	 0.09166
H	-1.8706538566	-0.9534852649	-0.409937313	 0.103239
H	-0.8694916322	-2.0375392703	 2.1762881791	 0.097614
H	 0.0362299932	-2.5874069434	-0.4211585662	 0.289953
H	 0.5828076527	-0.0465602115	 2.2052695437	 0.073297
H	 2.407186225	-1.6745684136	 1.9518280604	 0.126181
H	 2.1497412529	-1.7402678712	 0.1887817872	 0.10191
H	 3.0316570288	 0.5439152417	-0.0995960782	 0.07979
