19
gdb 62429	3.64509	1.20187	1.17291	0.9416	88.24	-0.2219	0.0085	0.2304	1140.0047	0.158796	-348.72204	-348.713671	-348.712727	-348.754403	33.271	
C	-0.0786607579	 1.5628823859	 0.0518756087	-0.469704
C	 0.0279403927	 0.0476062107	-0.0038392398	 0.11516
C	-1.120938603	-0.6324823269	 0.5373148327	 0.259614
C	-2.084206331	-1.1897025977	 0.9961330023	-0.433373
C	 0.706068902	-0.6826704881	-1.1608861791	-0.084062
C	 1.6319919424	 0.0990833531	-2.0959141256	-0.292358
C	 2.7739389701	 0.5252882484	-1.1967225636	-0.077498
C	 2.623470182	 0.0701200524	 0.0505848438	-0.085782
C	 1.3637332378	-0.7069247395	 0.2047963018	-0.109061
H	 0.8495060148	 2.0462153035	-0.2570779968	 0.125632
H	-0.8860104628	 1.9109197406	-0.6006618432	 0.123587
H	-0.3099853677	 1.8885197751	 1.0704382178	 0.125725
H	-2.9346896873	-1.6804090174	 1.3995494942	 0.187392
H	 0.1922268255	-1.5541375013	-1.5469211685	 0.097522
H	 1.9818359769	-0.5354534927	-2.920789858	 0.111923
H	 1.1340754829	 0.958619039	-2.5642793469	 0.114236
H	 3.5890047624	 1.1498471383	-1.5448915139	 0.097206
H	 3.3077002607	 0.2471061012	 0.8723446702	 0.09613
H	 1.3302341796	-1.5749786146	 0.8526878839	 0.097711
