19
gdb 22409	5.19005	0.74316	0.6694	1.8261	77.84	-0.2165	0.0106	0.2271	1635.5189	0.157342	-456.259867	-456.250201	-456.249257	-456.294906	34.821	
O	 0.1089844598	 1.4130533183	 0.0442237135	-0.411305
C	 0.0030812811	-0.0045916753	 0.0686343283	-0.076134
C	-1.472695674	-0.3740776434	 0.0623735275	-0.134944
N	-2.116513195	-0.0549948826	-1.1954801387	-0.085742
C	-2.4428463139	 1.370086067	-1.493136095	-0.250486
C	-3.8089605971	 0.901374655	-1.933634955	 0.407192
C	-3.5332570026	-0.4707633052	-1.3606423952	-0.264015
N	-4.7378224764	 1.4756299805	-2.5675362776	-0.234658
O	-5.8282444724	 0.6027281709	-2.7567858113	-0.395926
H	 1.030511935	 1.6462992654	-0.0980979699	 0.289459
H	 0.4856564551	-0.4567289978	-0.8096901343	 0.097524
H	 0.47399967	-0.4205420703	 0.9736180299	 0.085059
H	-1.552793193	-1.456867456	 0.2171985688	 0.103543
H	-1.9633758706	 0.1178003744	 0.9256264453	 0.085195
H	-2.4710186438	 2.0128469162	-0.6014237044	 0.11966
H	-1.7982397457	 1.8413030225	-2.2400806679	 0.123492
H	-3.6917777336	-1.3315640582	-2.0191349894	 0.126454
H	-4.0718718138	-0.646083893	-0.4146655283	 0.108901
H	-6.4419242291	 1.1517954617	-3.2562592963	 0.306729
