13
gdb 131402	3.58641	1.14584	0.87546	3.663	63.91	-0.2333	-0.0155	0.2178	1216.9735	0.090022	-486.051093	-486.043052	-486.042107	-486.08455	28.196	
O	 0.2464178297	 1.3378714411	 0.0545754558	-0.417488
C	 0.0875768417	 0.0060409997	 0.0524808363	 0.289939
N	 0.1056771746	-0.7524352429	-1.0342445513	-0.289038
N	-0.0835689842	-1.982641035	-0.5504321472	-0.095834
N	-0.2399364354	-2.0804551522	 0.7654860047	-0.283998
C	-0.1252956491	-0.8234043271	 1.1747028442	 0.340702
O	-0.232819689	-0.4068467959	 2.4560979844	-0.213687
C	 0.0853264609	-1.291272149	 3.4501605229	 0.115294
N	-0.166928053	-0.9704566801	 4.639036282	-0.424745
H	 0.3627847212	 1.6232340911	-0.8602156977	 0.313318
H	-0.1342037396	-2.7868681642	-1.1509986318	 0.298347
H	 0.5486384472	-2.2067457014	 3.0741693278	 0.128655
H	 0.148004405	-1.704839554	 5.26997528	 0.238533
