21
gdb 65773	3.04903	1.04146	0.99253	3.8812	78.87	-0.2387	-0.016	0.2227	1309.7446	0.181132	-424.250774	-424.241263	-424.240319	-424.286035	34.768	
C	-0.005193571	 1.7485327388	-0.0150892968	-0.428906
C	 0.0645395799	 0.2216079633	-0.0832255223	 0.376557
C	-1.3531629452	-0.3954102191	-0.1599909222	-0.301571
C	-2.184157354	-0.1389990801	 1.0793059448	 0.154298
O	-3.3018771867	 0.3136134203	 1.0659983695	-0.25154
C	 0.9595736781	-0.2864134458	-1.2393386606	-0.270275
C	 1.6938161365	-1.4837575454	-0.621034482	-0.226273
C	 1.8603524299	-1.0152850457	 0.8250108752	-0.068191
O	 0.6849813164	-0.2682002083	 1.1254192147	-0.304102
H	 0.9987118129	 2.1678884196	 0.0967275646	 0.117815
H	-0.4526984093	 2.1581183625	-0.9267641459	 0.119282
H	-0.6090370175	 2.077208124	 0.8358071489	 0.133038
H	-1.9003187733	-0.0204757944	-1.0300179648	 0.114312
H	-1.2476985303	-1.4845760036	-0.259866846	 0.112456
H	-1.6821982834	-0.412369945	 2.0307241211	 0.096337
H	 0.3798175054	-0.5414011441	-2.129516146	 0.107569
H	 1.6766088612	 0.4919323233	-1.5213083696	 0.103629
H	 1.0753100095	-2.3864545751	-0.6615508385	 0.108861
H	 2.6450829765	-1.7063084732	-1.1102624078	 0.105814
H	 1.9414155649	-1.8324284452	 1.5485489631	 0.107968
H	 2.7535570894	-0.3795296768	 0.9299000106	 0.09292
