23
gdb 93696	3.11325	1.17617	1.09066	0.0778	82.16	-0.2301	0.0879	0.318	1268.5898	0.204816	-425.442399	-425.432828	-425.431884	-425.475893	37.383	
C	-0.1034770202	 1.5136869744	 0.032877373	-0.410016
C	 0.0063328598	-0.0011034408	-0.0090651725	 0.129573
C	 0.7204561169	-0.5146427781	-1.2587946115	-0.089283
O	 0.9191693096	-1.9172691524	-1.2060600884	-0.296182
C	 1.5923858851	-2.384871872	-0.0224860369	 0.348789
C	 1.473842867	-3.905565651	-0.0760813042	-0.421841
C	 3.0646151255	-1.9456343598	-0.0185816724	-0.424509
C	 0.8474011254	-1.8282957756	 1.2023953323	-0.097519
O	 0.729942516	-0.4175618501	 1.1468863663	-0.268288
H	 0.8898720034	 1.9719509528	 0.0012331504	 0.124168
H	-0.685118261	 1.8824821951	-0.8175756569	 0.116556
H	-0.5964239274	 1.8317791066	 0.9550908315	 0.127747
H	-0.9997033492	-0.4553757965	 0.0223767954	 0.066755
H	 0.1156298216	-0.3281436262	-2.1524272519	 0.104048
H	 1.6754164118	 0.0206505713	-1.3769526295	 0.089744
H	 1.9985705346	-4.294298015	-0.9534354163	 0.123328
H	 1.9099462785	-4.3624166056	 0.8177923794	 0.112068
H	 0.42426516	-4.2039446124	-0.1479213797	 0.120342
H	 3.1615579586	-0.8719634848	 0.1561302058	 0.126285
H	 3.6122122766	-2.4615578666	 0.7764404991	 0.111944
H	 3.5315437168	-2.1935306425	-0.9760338131	 0.118673
H	-0.1526458743	-2.2892371002	 1.2546975441	 0.085183
H	 1.3868603148	-2.0616734406	 2.1257523761	 0.102435
