17
gdb 85264	2.82049	1.51734	1.10975	3.0804	69.7	-0.2571	0.0041	0.2612	1105.5985	0.135122	-458.998593	-458.990466	-458.989522	-459.031475	30.565	
C	 0.1629123469	 1.5273530364	 0.0030886531	-0.404514
C	 0.1022166239	 0.0208389733	 0.0523458213	 0.215112
O	 0.7129939169	-0.5512931806	-1.1161065748	-0.245643
C	 1.4448905262	-1.637058416	-0.742132037	 0.391771
O	 1.9864297152	-2.3790286178	-1.5084797605	-0.350378
C	 1.4078928464	-1.6784869366	 0.7500983375	 0.260962
C	 1.1397958804	-2.9813758192	 1.4707542813	-0.31999
C	 2.492718605	-2.3148340133	 1.5551921387	-0.317655
O	 0.8299551754	-0.4696804057	 1.1641572784	-0.294366
H	 1.2029686746	 1.8537824295	-0.0695636739	 0.139477
H	-0.394861623	 1.8978278134	-0.8602960587	 0.138265
H	-0.2796516618	 1.938962997	 0.9138833142	 0.137264
H	-0.9355616186	-0.3468085814	 0.0876319578	 0.092792
H	 0.4942005199	-2.918694548	 2.3391746587	 0.133143
H	 1.0384084337	-3.8754444554	 0.8661269192	 0.141828
H	 3.318567369	-2.7485681483	 1.0026575412	 0.146116
H	 2.7521777199	-1.8173730073	 2.4826559835	 0.135818
