20
gdb 75039	2.46533	1.64584	1.14811	1.777	89.33	-0.2	-0.017	0.183	1132.8923	0.173041	-366.001774	-365.993611	-365.992667	-366.034541	32.012	
C	-0.1054343049	 1.5456255967	 0.0740564827	-0.484919
C	 0.0054121559	 0.0443076816	-0.0192936674	 0.333257
C	-0.0576438806	-0.5723830759	-1.2132974108	-0.187003
C	 0.0151983767	-1.9941437285	-1.5253725065	-0.041735
C	-0.2715975684	-3.0388339108	-0.7395028439	-0.083878
C	-0.8026473685	-2.9946571497	 0.6680759427	-0.282542
C	-0.121119891	-2.0354269978	 1.6351800764	-0.018732
N	 1.2766265623	-1.6763062965	 1.4130586519	-0.325372
C	 0.2281221441	-0.6261898918	 1.2935037677	-0.121312
H	 0.8008634276	 1.9849714688	 0.5116481709	 0.125814
H	-0.2658830981	 2.0016341343	-0.905687674	 0.121403
H	-0.938074827	 1.8420537242	 0.7262063602	 0.122518
H	-0.1471704576	 0.0736989874	-2.0853138843	 0.076126
H	 0.3225840737	-2.2137780864	-2.5463749043	 0.080196
H	-0.1477573994	-4.0331739774	-1.160136946	 0.086198
H	-1.8725316235	-2.7337007744	 0.6538092535	 0.115416
H	-0.7513989838	-4.0028261991	 1.096686632	 0.103009
H	-0.4347360782	-2.1911046131	 2.6688744616	 0.078067
H	 1.7674858902	-1.5735812975	 2.2971614855	 0.230477
H	 0.1656648805	 0.066368666	 2.1316238023	 0.073013
