16
gdb 51149	3.08509	1.1668	0.94953	4.1406	69.88	-0.2486	-0.0258	0.2228	1207.4375	0.123183	-437.88416	-437.875852	-437.874908	-437.918235	30.004	
O	 0.1682305062	-0.1790079452	-0.0572978231	-0.237303
C	 0.0820313538	 1.0190026297	-0.1252437988	 0.155971
C	 1.2631842978	 1.9683758996	 0.0296070141	-0.397662
C	 1.2842862736	 2.9955916062	-1.0690527911	 0.163822
C	 1.9415568791	 2.7895733932	-2.4419479198	-0.322301
C	 2.3580071466	 3.9417618257	-1.5817997693	-0.063303
N	 1.3746658399	 5.0292727806	-1.6284139992	-0.344215
C	 0.3298320176	 4.1770852342	-1.2254208904	 0.380757
O	-0.8450882089	 4.3571181042	-1.0703443767	-0.342067
H	-0.890013439	 1.5270152518	-0.3055836344	 0.110217
H	 1.1516332522	 2.4720202785	 1.000714516	 0.137378
H	 2.1829139488	 1.3772203441	 0.0586073107	 0.12612
H	 2.6200417238	 1.941208518	-2.4844414409	 0.133484
H	 1.3821562518	 2.9688343305	-3.3556086931	 0.128481
H	 3.3507047243	 4.1092963109	-1.1857488604	 0.123885
H	 1.2907250122	 5.6825178482	-2.3996421537	 0.246737
