18
gdb 89092	3.92361	0.70949	0.64951	2.1478	73.67	-0.2718	0.0058	0.2776	1705.4149	0.145277	-439.061071	-439.051329	-439.050385	-439.097389	33.55	
C	-0.5798726624	 1.2888742438	 0.5441453807	-0.422523
C	 0.0433518689	-0.0554233925	 0.2618432798	 0.076168
O	 1.43469531	-0.0909068811	-0.0725957258	-0.255396
C	 1.0146088683	-0.7415015476	 1.1291018362	 0.054093
C	 1.5115849005	-0.1851391857	 2.4345425149	-0.105548
O	 2.7566252634	-0.818059961	 2.7180466851	-0.231179
C	 3.3706896388	-0.3694125954	 3.8945879671	-0.183872
C	 2.6274925888	-0.7437898869	 5.1167835607	 0.248987
N	 2.0304821257	-1.0348808661	 6.062117213	-0.302682
H	 0.0575621544	 1.9159553162	 1.1704315584	 0.127369
H	-0.7575149947	 1.8220645459	-0.3954295159	 0.135458
H	-1.5464687512	 1.1627094344	 1.0435804745	 0.128423
H	-0.568490329	-0.7038928581	-0.3690474677	 0.094331
H	 1.0565483482	-1.8310233244	 1.0873444811	 0.10392
H	 1.6483173215	 0.902356089	 2.3686859621	 0.104779
H	 0.7881467274	-0.3990469565	 3.2365196718	 0.121137
H	 4.3625018165	-0.8295585409	 3.9326703522	 0.165148
H	 3.5054627848	 0.723835097	 3.8987489719	 0.141384
