16
gdb 106868	2.69888	1.24562	1.01901	4.0593	70.87	-0.2611	-0.0127	0.2483	1172.1609	0.123471	-437.84194	-437.833461	-437.832517	-437.875534	30.953	
O	 0.1453460695	 1.4073362852	 0.1639674589	-0.403588
C	 0.0776967024	 0.0127520774	-0.0942194733	-0.174697
C	-1.3342535837	-0.4947895252	-0.0705755675	 0.162484
C	-2.0435256562	-0.9696157014	 1.1801790632	-0.384477
C	-1.8987931263	-1.9121876798	 0.0146885173	 0.310565
O	-2.9001982984	-1.6576077281	-0.9664856215	-0.316614
C	-2.3724503113	-0.3137365451	-1.176923152	-0.126223
C	-1.2643659371	-3.1904554031	 0.0642427698	 0.227881
N	-0.7355507269	-4.2182481665	 0.1181978256	-0.345401
H	-0.1753019555	 1.5579036248	 1.0596226666	 0.288074
H	 0.5106142014	-0.1226542475	-1.0906256973	 0.127717
H	 0.6922000827	-0.5674140635	 0.6109790746	 0.106704
H	-1.3936375204	-1.1723999428	 2.0260835625	 0.140722
H	-3.0446022623	-0.6271139284	 1.4259468315	 0.136351
H	-3.1364950157	 0.4567013007	-1.0364095261	 0.122267
H	-1.9300539622	-0.2310971266	-2.1750558725	 0.128235
