15
gdb 16220	3.20321	2.32082	1.53567	3.415	61.17	-0.2639	0.	0.264	814.0591	0.121159	-399.820508	-399.813826	-399.812882	-399.851511	25.023	
O	 0.0810957582	 0.0584793256	-0.3744277117	-0.36626
C	 0.0644419853	 1.2297957093	-0.1111575065	 0.41258
O	-1.0716956129	 1.9337970369	 0.101638116	-0.224678
C	-0.7665771196	 3.3002331464	 0.4616751239	-0.087052
C	 0.6844540391	 3.5555106262	 0.0118181263	-0.331115
C	 1.2454946893	 2.1505655107	 0.0052907474	 0.197065
C	 2.4317006516	 1.6423099813	 0.754190704	-0.275672
N	 2.4718793726	 1.7897844509	-0.7011831049	-0.352118
H	-1.5001289373	 3.9393013374	-0.0322371379	 0.132245
H	-0.8848949585	 3.3997269483	 1.5459264128	 0.124012
H	 0.7148602457	 3.9724155874	-0.9994701842	 0.132416
H	 1.2098678589	 4.2408166682	 0.6792788889	 0.12243
H	 3.0394133036	 2.3527879743	 1.308015297	 0.12679
H	 2.3683635109	 0.6432472922	 1.1760089472	 0.138444
H	 2.3258613133	 0.8760797849	-1.1320934983	 0.250914
