20
gdb 12007	3.14223	2.03246	1.77656	1.4378	73.85	-0.2442	0.085	0.3292	871.1684	0.177373	-349.010217	-349.002479	-349.001535	-349.041463	31.014	
C	 0.0510785126	 1.5230038648	-0.036952115	-0.418145
C	-0.006642888	-0.000649202	 0.0462984547	 0.368184
C	-1.4592213911	-0.4991785801	 0.0103672875	-0.420518
O	 0.7187631993	-0.5042892719	-1.0953770587	-0.295481
C	 1.2573234079	-1.7858087173	-0.7866388592	-0.103696
C	 1.5323921872	-1.7648103387	 0.706009144	-0.050765
C	 2.2382972587	-0.5355056778	 1.2168903416	-0.308174
C	 0.7326275278	-0.6021237056	 1.2415162139	-0.051793
H	 1.0848126624	 1.8747086492	-0.0004434697	 0.118084
H	-0.3971420217	 1.8683663501	-0.9733773747	 0.120265
H	-0.4994786476	 1.9750333993	 0.7939371362	 0.109742
H	-1.9489739228	-0.1648869474	-0.908709912	 0.119209
H	-1.5007864068	-1.5918766884	 0.0455138495	 0.1141
H	-2.0268342512	-0.1134466791	 0.8637734388	 0.109936
H	 0.5495154676	-2.5932695558	-1.0333427997	 0.089217
H	 2.1509507503	-1.9186100039	-1.406875057	 0.104307
H	 1.6154860388	-2.7035419281	 1.2409265743	 0.085331
H	 2.7542773156	-0.6127038976	 2.1673738422	 0.108119
H	 2.7162321179	 0.11603927	 0.4920303841	 0.12057
H	 0.2147477231	-0.65690091	 2.1921342592	 0.081508
