21
gdb 63955	2.68766	1.60527	1.45835	2.6392	76.21	-0.246	0.07	0.316	1022.0433	0.184234	-424.243813	-424.2358	-424.234856	-424.275774	32.886	
C	-0.1957027316	 1.5770583795	-0.0433928484	-0.459124
C	 0.0084235914	 0.0618601734	-0.0264616512	 0.436499
O	-1.2531233261	-0.5827615322	 0.1478968232	-0.483138
C	 0.7795091899	-0.5015637321	-1.2677436798	-0.289632
C	 1.9240570966	-1.2865155153	-0.5894270648	 0.089185
C	 2.9853204293	-0.3019572278	-0.0412637241	-0.220813
C	 2.2487700837	 0.2456834667	 1.2186928217	-0.231579
C	 0.8973368435	-0.494577781	 1.1175314021	 0.044502
O	 1.2960006614	-1.772217279	 0.6037625834	-0.263166
H	 0.7345938716	 2.1242785963	-0.2173234118	 0.116455
H	-0.8872300288	 1.8506577757	-0.8493777441	 0.105926
H	-0.6338586253	 1.9181237681	 0.8998234102	 0.124144
H	-1.8081991233	-0.3519895102	-0.6044841947	 0.271054
H	 0.1248050283	-1.178836377	-1.8216656186	 0.100886
H	 1.1359258836	 0.2779154761	-1.9469035412	 0.091833
H	 2.3177257154	-2.1250335577	-1.1641735872	 0.075242
H	 3.9023565275	-0.8296709253	 0.2295840192	 0.105184
H	 3.2463752869	 0.4771459126	-0.7627659228	 0.094648
H	 2.7582947872	-0.060569007	 2.1347277056	 0.108173
H	 2.1602029144	 1.3330663013	 1.2371209192	 0.099925
H	 0.3495037644	-0.6221214751	 2.0505698041	 0.083795
