18
gdb 117416	5.6874	0.61188	0.58434	4.8635	76.21	-0.2584	0.0209	0.2793	1889.4217	0.146702	-435.318271	-435.307778	-435.306834	-435.356039	35.494	
C	 0.1500308818	 1.3490328445	 0.2095957334	-0.37616
C	-0.1883254642	 0.0787004078	-0.5683224416	-0.134554
N	-1.4679018328	-0.485707315	-0.1607017288	-0.375743
C	-1.6223235496	-1.8309914303	 0.0536079978	 0.529316
O	-0.7063187542	-2.6360166704	 0.0347341094	-0.405943
N	-2.9339802474	-2.2117575826	 0.307908968	-0.375844
C	-3.2145684382	-3.581774033	 0.6718744328	-0.27967
C	-4.3467293881	-4.13484381	-0.0836951371	 0.259168
N	-5.2547002006	-4.5598916188	-0.6575005854	-0.303254
H	 1.1129711369	 1.750566287	-0.1203760222	 0.123983
H	-0.6042292318	 2.1285318642	 0.052722029	 0.111185
H	 0.2083517468	 1.1450876162	 1.282590888	 0.128289
H	-0.1889415668	 0.2857714246	-1.6475663075	 0.107491
H	 0.5541087726	-0.7013774873	-0.3915250187	 0.155124
H	-2.2922474865	 0.0651462075	-0.3421378108	 0.237294
H	-3.617898108	-1.5132116992	 0.5490178066	 0.248256
H	-2.3049824039	-4.1499380918	 0.4536382519	 0.200028
H	-3.4242610762	-3.7000511335	 1.7437321951	 0.151037
