15
gdb 5409	5.19886	1.49354	1.16868	3.7134	69.42	-0.2471	-0.0169	0.2301	971.4487	0.121025	-362.713773	-362.706668	-362.705724	-362.746342	25.738	
O	 0.3087441551	 0.786030953	 1.0295659502	-0.414469
C	-0.0671452146	 0.2113893777	-0.2060864991	-0.166707
C	-1.4370119844	-0.4111226036	-0.0866834674	 0.279355
C	-2.1618432144	-0.3818569668	 1.101174498	-0.187445
C	-3.4205447165	-0.9785824775	 1.1331813509	 0.008404
N	-3.9895153353	-1.5856744186	 0.0896509157	-0.271836
C	-3.2841786713	-1.6077992037	-1.0463575151	 0.011953
C	-2.0222896587	-1.0435367367	-1.1848760621	-0.192161
H	 1.1816014437	 1.1749373751	 0.9283047104	 0.294624
H	-0.0892246437	 0.9660754253	-1.0096148677	 0.108663
H	 0.6490656379	-0.5650276297	-0.5221540315	 0.108654
H	-1.7500281118	 0.0968823405	 1.979757793	 0.120621
H	-4.0017461398	-0.965579779	 2.0528035984	 0.106127
H	-3.7543848357	-2.1042618996	-1.8922968904	 0.105289
H	-1.5049160706	-1.0981568464	-2.1384210636	 0.088928
