14
gdb 97618	2.50383	0.7717	0.6155	2.3753	72.98	-0.279	-0.065	0.214	1706.7029	0.09777	-436.654285	-436.644355	-436.643411	-436.692006	32.416	
O	 0.1232056121	 1.405449439	-0.3394629183	-0.393213
C	 0.0328053319	 0.0414995489	 0.030882894	-0.197397
C	-1.3400234514	-0.4721268213	 0.0196658319	 0.103752
C	-2.4881510336	-0.8339772487	 0.0261073745	 0.044353
C	-3.8510515139	-1.3572875918	 0.0229780768	-0.384383
C	-3.7801696565	-2.9127502928	 0.1285930531	 0.181341
O	-4.168389744	-3.6350189623	-0.7395261588	-0.212523
C	-4.6487273553	-0.8387859218	 1.1420107797	 0.283233
N	-5.2841681651	-0.4700711531	 2.0333421488	-0.303879
H	-0.4250423801	 1.9138200442	 0.267822728	 0.294741
H	 0.6381053934	-0.509512663	-0.696915822	 0.152936
H	 0.4765692093	-0.1454214009	 1.0211886781	 0.130328
H	-4.3636562814	-1.1324629298	-0.9193162996	 0.176123
H	-3.3177812053	-3.2729578067	 1.0681614837	 0.12459
