19
gdb 120063	4.45206	0.93054	0.89442	2.1195	73.82	-0.2346	0.0702	0.3048	1339.2196	0.159365	-422.945672	-422.9376	-422.936656	-422.978976	30.905	
O	 0.1327878553	 1.4074692996	 0.0676700376	-0.419945
C	 0.0504677973	-0.0067362319	-0.0146439537	-0.054885
C	-1.386837045	-0.5255901963	 0.058373695	-0.237947
C	-1.4756036108	-2.0458066082	 0.0173296572	 0.012403
C	-2.8393385026	-2.7436448235	 0.0087065361	-0.147114
C	-3.2262174932	-2.823286235	-1.4798615312	 0.094138
O	-2.2156300226	-2.1586352292	-2.2394551687	-0.290655
C	-1.2559133144	-2.7865900019	-1.3408088244	 0.050192
C	-2.3235592018	-3.8553359547	-0.901671405	-0.151235
H	-0.3538523068	 1.769941409	-0.6796078739	 0.280944
H	 0.5397826269	-0.3800381697	-0.929333893	 0.087208
H	 0.6319096361	-0.3840922504	 0.8346436076	 0.106363
H	-1.8477821148	-0.1506260529	 0.9804414605	 0.100661
H	-1.9650761304	-0.1213817544	-0.7811301746	 0.103763
H	-0.8378698632	-2.508743233	 0.7793511358	 0.076146
H	-3.5686555629	-2.8137303184	 0.8060103494	 0.09095
H	-4.23718722	-2.8590163695	-1.8627922619	 0.110854
H	-0.2787009025	-2.9425973912	-1.7927247013	 0.086448
H	-2.3452547148	-4.9339477583	-0.8420609114	 0.10171
