18
gdb 39581	3.36644	1.58247	1.13461	1.7283	76.19	-0.2488	0.0145	0.2633	1046.261	0.151548	-401.973151	-401.966405	-401.96546	-402.00413	27.471	
C	-0.0544894724	 1.5326599366	-0.0036742115	-0.310186
C	 1.3913034671	 2.0055885153	-0.0231752131	-0.055783
C	 2.439363273	 1.2397610743	-0.3482032652	-0.047572
C	 2.34866237	-0.2031237378	-0.814131534	-0.297532
C	 0.8961334619	-0.463557951	-1.1751288534	 0.060662
N	 0.3993268813	-1.8330516805	-1.4280404342	-0.301553
C	-0.7787440297	-1.8148656889	-0.9502407298	 0.092856
O	-1.22270425	-0.7119891675	-0.2777496297	-0.254841
C	 0.0032693827	 0.0230395708	-0.0406672409	 0.149758
H	-0.5626093394	 1.904459569	 0.8933136589	 0.113575
H	-0.6089943032	 1.9240431773	-0.8670729453	 0.120599
H	 1.5633059687	 3.036234107	 0.2757460663	 0.092741
H	 3.436321009	 1.6705219947	-0.2976802456	 0.092055
H	 3.0110619963	-0.3683135292	-1.6710863944	 0.115938
H	 2.6871530165	-0.8887663768	-0.0250369666	 0.116823
H	 0.6758069583	 0.1231457124	-2.0821382378	 0.089437
H	-1.5051518735	-2.6162918812	-1.02793855	 0.135994
H	 0.4028605534	-0.3435202245	 0.9176782463	 0.087028
