21
gdb 39391	2.32157	2.081	1.4028	1.7237	81.14	-0.2169	0.0773	0.2943	998.3054	0.185215	-387.044904	-387.037586	-387.036642	-387.076093	30.931	
C	-0.0455588526	 1.5429863773	-0.0648156187	-0.440776
C	 1.2704817849	 0.7542285567	-0.0543936086	-0.021056
C	 2.2699595753	 0.4868781079	 1.0462957088	-0.252346
C	 2.5540672619	-1.0590057992	 1.1418261046	-0.200398
C	 1.7052625798	-2.0356142645	 0.2639029515	-0.209951
C	 0.1587990606	-1.8898414199	 0.2500690092	 0.090543
C	-0.3428167658	-0.8431523614	 1.2617250055	-0.310181
C	-0.041219166	 0.0638654139	 0.0778911187	 0.437336
O	-0.2918877186	-1.0106289763	-0.8431888507	-0.320665
H	-0.3549880951	 2.1090525398	 0.8102644693	 0.115344
H	-0.3183985421	 1.9999157852	-1.0101782322	 0.12579
H	 1.6754531095	 0.6492910586	-1.0585212095	 0.095535
H	 3.2064944376	 1.0307711204	 0.8833118619	 0.096548
H	 1.8779998499	 0.845393049	 2.0041060484	 0.099338
H	 3.6019628999	-1.2495426942	 0.8852099947	 0.100507
H	 2.4567468532	-1.3673010989	 2.189062031	 0.101505
H	 2.0290707002	-1.9818997372	-0.7813337238	 0.116267
H	 1.9518149495	-3.0486718835	 0.6038394257	 0.094864
H	-0.345417642	-2.8569334789	 0.1835000442	 0.074414
H	-1.417664263	-0.926548389	 1.4380390412	 0.106058
H	 0.1893638829	-0.709728146	 2.2036116289	 0.101328
