23
gdb 94896	2.65054	1.52402	1.16606	0.3527	90.96	-0.2213	0.0284	0.2497	1166.5215	0.208792	-351.188037	-351.179811	-351.178867	-351.220559	33.213	
C	-0.1488202491	 1.5659904759	-0.1173400191	-0.391811
C	-0.0221087406	 0.0398749364	-0.0482060466	-0.015875
C	 0.8451076018	-0.5245260691	-1.2110471954	-0.210531
C	 2.3289026521	-0.4328486445	-0.7380621328	-0.343157
C	 2.2097221913	-0.3036165211	 0.7575095966	 0.397664
C	 2.9990289499	 0.0434451123	 1.770811872	-0.252666
C	 2.2097500247	 0.1389184749	 3.0640551965	-0.241748
C	 0.7328409403	 0.2069069339	 2.5715912544	-0.25387
C	 0.7667544136	-0.4710601544	 1.186531227	-0.036029
H	 0.8267127865	 2.0577270004	-0.0321648687	 0.1183
H	-0.594585706	 1.8711929419	-1.0698773684	 0.107669
H	-0.7851049511	 1.9552220161	 0.6836342654	 0.114236
H	-1.0275669541	-0.3934606333	-0.086550196	 0.060694
H	 0.5820749236	-1.5743951467	-1.3806076008	 0.096349
H	 0.6699667681	 0.0023746457	-2.1538583885	 0.091755
H	 2.9017208819	-1.3144826214	-1.0465228215	 0.109142
H	 2.8422410251	 0.4335869286	-1.1691608658	 0.113607
H	 4.0656025262	 0.2350128405	 1.7183050237	 0.081939
H	 2.3791537346	-0.7429688032	 3.699853725	 0.099702
H	 2.4891095113	 1.0084061562	 3.6702892801	 0.096416
H	 0.0316654966	-0.2609666334	 3.2681707762	 0.088408
H	 0.4415464568	 1.2569259792	 2.4695166441	 0.101632
H	 0.5416300566	-1.5448734047	 1.2927219524	 0.068173
