22
gdb 93630	2.05586	1.49634	1.23372	4.0713	84.84	-0.3022	0.0327	0.3349	1171.3073	0.195524	-367.254774	-367.245448	-367.244504	-367.288709	35.465	
C	 0.8611033062	 1.6312841762	-0.0291549749	-0.404687
C	 0.2004827226	 0.2465505566	 0.01845111	 0.009597
C	 0.6163747905	-0.6474648968	-1.165732746	-0.215175
C	 1.9845876865	-1.2398942239	-0.7617029877	-0.228714
C	 1.9841012999	-1.2637767079	 0.8061219127	-0.153357
C	 3.1511078785	-0.5739931383	 1.3541948181	 0.284591
N	 4.078802729	-0.028985825	 1.7792596672	-0.350188
C	 0.6159804122	-0.6212138471	 1.2323330714	 0.025845
C	 0.5974597925	 0.0520160241	 2.6027460806	-0.430166
H	 1.9543129834	 1.572925253	-0.0167542439	 0.135496
H	 0.5676963369	 2.1592685553	-0.942298046	 0.113966
H	 0.5578584422	 2.2490495332	 0.8209691531	 0.120759
H	-0.8866910859	 0.3866839891	 0.0294624204	 0.069973
H	-0.1169431394	-1.4518637135	-1.292869443	 0.098166
H	 0.6669821802	-0.1045002931	-2.1137708336	 0.100469
H	 2.1462220319	-2.2390009315	-1.1720854773	 0.111854
H	 2.8028752502	-0.6132046194	-1.1225874451	 0.12908
H	 2.0310854535	-2.2918211016	 1.1785833275	 0.121504
H	-0.0907984934	-1.4602598153	 1.2627365369	 0.081488
H	 1.3233533931	 0.8663390373	 2.6694512354	 0.145105
H	-0.396068888	 0.4614486027	 2.8125544431	 0.114648
H	 0.8349481676	-0.6641252542	 3.3961730011	 0.119744
