20
gdb 75333	2.62299	1.56248	1.14848	1.7745	80.5	-0.2358	0.0356	0.2714	1141.6907	0.170714	-403.166472	-403.157726	-403.156782	-403.199666	33.488	
C	-0.3850231726	 1.4481031149	 0.1320366648	-0.451467
C	 0.003433404	 0.0073803726	-0.0319627932	 0.382009
N	-0.1737776438	-0.6120987851	-1.1219248668	-0.307072
C	 0.1634695378	-2.0224457564	-1.2365861264	-0.183734
C	 0.9331491362	-2.6160685843	-0.0710043408	-0.104273
C	 2.2870921941	-2.0409247199	 0.3097679222	-0.344618
C	 1.0739588637	-1.777485162	 1.1623746038	 0.421543
C	 0.9423357102	-2.347331229	 2.5485553204	-0.452068
O	 0.5427008427	-0.4637037287	 1.131389647	-0.294906
H	 0.4903584319	 2.0505397388	 0.3952571476	 0.134861
H	-0.8212004192	 1.8153822703	-0.7958298169	 0.142566
H	-1.1069260932	 1.5550572166	 0.9481483141	 0.135537
H	-0.7783190998	-2.5745550536	-1.3579558459	 0.113861
H	 0.7124443236	-2.1632383974	-2.1774379164	 0.108853
H	 0.795477088	-3.6828387619	 0.0818265985	 0.08846
H	 3.0514071414	-2.7090029838	 0.6917332916	 0.113574
H	 2.6613644842	-1.215328956	-0.2874826221	 0.124022
H	 1.3928067053	-3.3425350482	 2.5946949109	 0.11874
H	 1.4470084579	-1.7062820256	 3.2786494294	 0.128666
H	-0.1105032522	-2.4302983414	 2.837181878	 0.125447
