20
gdb 65204	3.10897	1.34011	1.24349	2.3254	78.16	-0.2264	0.0752	0.3016	1112.9347	0.170958	-403.075127	-403.066865	-403.065921	-403.107884	32.45	
C	 0.112515075	 1.5040135129	-0.7218873352	-0.475222
C	-0.0096431549	 0.1497167468	-0.0536560066	 0.2991
C	 1.0676594755	-0.8570858328	-0.2395088214	-0.276603
N	 0.899416817	-0.174750367	 1.0593019686	-0.339809
C	-1.4402188843	-0.3286498452	 0.0867607838	 0.091339
O	-1.5850929809	-1.6932993542	 0.5620404597	-0.302851
C	-2.5491853518	-1.2651431953	 1.5330321008	 0.101201
C	-1.9314548492	-0.3560000031	 2.5421384733	-0.296867
C	-2.3660456094	 0.1938686473	 1.1932425857	-0.161186
H	 1.1633030509	 1.7815783878	-0.8516808053	 0.114757
H	-0.357503966	 1.5049731771	-1.7117300765	 0.124718
H	-0.371985609	 2.2838449623	-0.1227153246	 0.128023
H	 0.8173918914	-1.9126044054	-0.2210164093	 0.137444
H	 1.9153728755	-0.5878077855	-0.8646312313	 0.103853
H	 1.5932073373	 0.5634089564	 1.1537832082	 0.22405
H	-1.9294596585	-0.24286552	-0.8946726418	 0.076032
H	-3.4298898252	-1.8809607065	 1.6706915654	 0.100355
H	-2.585434379	-0.0670096991	 3.3598228497	 0.106051
H	-0.879682147	-0.4597127457	 2.7789543744	 0.151208
H	-3.0981362274	 0.9813648592	 1.0781431925	 0.094406
