22
gdb 122425	5.11225	0.66061	0.62716	1.7872	80.86	-0.2178	0.0755	0.2933	1838.7559	0.193012	-441.441959	-441.431937	-441.430992	-441.478035	36.092	
C	 0.1066609337	 1.4467368664	 0.0939941779	-0.31568
N	-0.087772567	 0.016453856	 0.1624919791	-0.068461
C	-1.3747678387	-0.4999315855	 0.6674334173	-0.2046
C	-0.6034598427	-1.6487629025	 1.3418374725	 0.135297
C	 0.6555355396	-0.7519449077	 1.1789766	-0.198277
O	-1.0462117036	-1.9571581517	 2.6338100716	-0.26581
C	-0.316723767	-2.9970086418	 3.2687419546	-0.081345
C	-1.0637053284	-3.3311644497	 4.5504166266	-0.058702
O	-2.3868681284	-3.7469153511	 4.2804434879	-0.420819
H	 1.1329062468	 1.666928612	-0.2189786002	 0.120831
H	-0.5704452451	 1.8780369009	-0.651135682	 0.121275
H	-0.0748575872	 1.9578414276	 1.0590797025	 0.090325
H	-1.8383229631	 0.1413142692	 1.4352811981	 0.092975
H	-2.1161053411	-0.742240147	-0.100722338	 0.103251
H	-0.5511127953	-2.5534997501	 0.7214972183	 0.081231
H	 1.5915781665	-1.1997822998	 0.828945902	 0.099915
H	 0.8419676665	-0.1887674437	 2.1093637561	 0.086919
H	-0.2753079661	-3.8821653701	 2.6147811003	 0.098496
H	 0.7146226094	-2.67917953	 3.4880778943	 0.092793
H	-0.560919898	-4.1553736718	 5.0668630557	 0.108405
H	-1.0436912542	-2.4530072274	 5.2156827492	 0.093227
H	-2.7491603963	-3.0838219423	 3.6808241062	 0.288755
