12
gdb 20779	3.37445	2.3458	1.39567	0.9304	60.05	-0.2616	-0.094	0.1676	809.1712	0.082679	-414.608486	-414.601741	-414.600797	-414.639547	24.437	
C	 0.0804639497	 1.4621039503	-0.0049993846	-0.464841
C	-0.013986084	-0.0306942478	 0.0118546645	 0.276176
N	-0.1174883473	-0.6433444971	-1.1216669407	-0.108293
O	-0.2061684302	-2.020250991	-1.1344084014	-0.211608
N	-0.1909468464	-2.7871063457	-0.0026712142	-0.03612
C	-0.0882512963	-2.1892754143	 1.133831614	-0.018593
C	 0.0136849424	-0.7433534288	 1.3008340544	 0.263029
O	 0.1106012387	-0.1827301159	 2.3786316323	-0.33038
H	 1.008983958	 1.7803626671	 0.4792840195	 0.158902
H	 0.0455065323	 1.83638704	-1.0282394718	 0.150961
H	-0.7386201981	 1.8920627108	 0.5799623393	 0.158912
H	-0.0800810688	-2.8363181677	 2.0067014387	 0.161854
