21
gdb 92913	3.05582	1.16294	0.89343	1.805	86.21	-0.2424	0.0099	0.2523	1340.9968	0.183021	-387.094544	-387.085546	-387.084602	-387.128729	34.83	
C	-0.6495510466	 1.4078519832	 0.1887384788	-0.405176
C	 0.0692988295	 0.0588883963	 0.0534012668	-0.033059
C	 0.4192534386	-0.2287742727	-1.418270518	-0.236326
C	 0.9117986121	-1.6198247631	-1.719795611	-0.073209
C	 1.5106191466	-2.5085800412	-0.9265506241	-0.076163
C	 1.9902128506	-2.4120319466	 0.5032479912	 0.023764
O	 3.2506676754	-3.0900005883	 0.6077722637	-0.430868
C	 2.0985282692	-1.03591989	 1.1186449073	-0.099909
C	 1.2912598416	 0.0067926631	 0.9440873024	-0.055729
H	-0.0058252892	 2.2298205081	-0.1461477702	 0.115915
H	-1.5640606309	 1.432006371	-0.4119262014	 0.111301
H	-0.9246221951	 1.6042445872	 1.2299287457	 0.115587
H	-0.6270122066	-0.7291516061	 0.3750118706	 0.089303
H	-0.4752734814	-0.0508967607	-2.0302617959	 0.098311
H	 1.1580763275	 0.5097577513	-1.7643625859	 0.110293
H	 0.7204099248	-1.9434195379	-2.7422752777	 0.087507
H	 1.7454979039	-3.4842836419	-1.3486418905	 0.094067
H	 1.3274394512	-3.0240050425	 1.1356126144	 0.110022
H	 3.8611571072	-2.6351138401	 0.0161079416	 0.27573
H	 2.930868258	-0.9539886628	 1.8139472858	 0.095242
H	 1.5128861236	 0.9166848936	 1.4995655566	 0.083397
