16
gdb 22936	2.77767	1.52298	1.11261	1.0173	76.26	-0.2272	-0.0409	0.1863	1072.8374	0.123755	-437.836311	-437.828257	-437.827313	-437.868645	31.164	
O	-0.0320309424	 1.2917036025	 0.0328626639	-0.388977
N	 0.0270371816	-0.1068799638	 0.0452011742	-0.270731
C	-1.1335353772	-0.6401723453	 0.000110333	 0.330939
C	-2.4828978596	-0.0715194774	-0.0306615948	-0.177559
C	-3.3862105731	-1.0661305076	 0.044651263	-0.070953
C	-2.7387335482	-2.4106640424	 0.0831144276	-0.161222
C	-1.940278878	-2.7710796244	-1.1735525029	-0.336998
C	-1.2591567713	-2.1364304492	 0.0230190353	 0.353816
O	-0.3408809691	-2.8661693449	 0.7641975924	-0.470265
H	 0.8977743253	 1.5391675305	 0.0739814494	 0.308724
H	-2.6832064393	 0.9864576672	-0.1143272249	 0.12476
H	-4.4620105058	-0.9328228772	 0.0337719479	 0.112799
H	-3.1484922046	-3.21358924	 0.6838550909	 0.107704
H	-1.7138640335	-3.8232190025	-1.3106421491	 0.125149
H	-2.1131178309	-2.2000970499	-2.0795575973	 0.118355
H	 0.5097884163	-2.4241639458	 0.6483084513	 0.294462
