17
gdb 91257	4.04863	1.25369	1.03093	4.3005	80.17	-0.2181	-0.0169	0.2012	1150.1546	0.137171	-417.981728	-417.974047	-417.973102	-418.013914	29.394	
C	 0.1853020463	 1.2148954865	-0.1808235556	-0.332633
N	-0.0108774998	 0.0493986296	 0.6584259771	-0.12602
C	-1.1010716526	-0.960974592	 0.4005394285	-0.225154
C	-0.1222596177	-2.0291221476	 1.0212899395	 0.035755
O	 0.3419516598	-3.2178962356	 0.4234237886	-0.270656
C	 1.6755609328	-2.9921499393	 0.0156822241	 0.419583
N	 2.4139065114	-3.9013846129	-0.4573808323	-0.547168
C	 1.9814825901	-1.5518636917	 0.129297787	-0.35957
C	 0.8971269233	-1.0022639262	 0.6944328133	 0.300189
H	 1.0529430288	 1.7759206931	 0.1768180254	 0.143463
H	 0.352435019	 0.9444920667	-1.2359082824	 0.119181
H	-0.690831115	 1.8649754638	-0.1146735188	 0.136052
H	-2.0421294496	-0.7573940575	 0.9169682686	 0.120963
H	-1.2604730973	-1.1251430009	-0.6715298253	 0.12514
H	-0.3421892206	-2.1982029246	 2.0789509142	 0.115523
H	 1.9084476564	-4.7862219494	-0.5075471258	 0.222653
H	 2.8285558548	-1.1055469819	-0.3656426061	 0.122699
