18
gdb 107734	3.99541	1.16292	1.09506	2.1903	71.35	-0.2413	0.0611	0.3023	1140.0371	0.147523	-439.009958	-439.00188	-439.000935	-439.042591	31.621	
O	 0.1304496267	 1.2345650124	-0.3357305948	-0.418501
C	-0.004499945	-0.0508624791	 0.2485528088	-0.172038
C	-1.4288843298	-0.5116089811	 0.2434473183	 0.336078
C	-2.5962780881	-0.0532636626	 1.1182626132	-0.36204
C	-3.4069668786	-1.1779962348	 0.4214267392	 0.368652
O	-4.5392992454	-1.740543589	 0.9685986164	-0.469612
C	-3.4523744142	-0.7021517833	-1.0304199351	-0.181716
N	-1.9671606681	-0.8972669854	-1.1229761449	-0.19318
C	-2.0091752807	-1.8546115649	 0.0186373563	-0.212693
H	-0.2376763025	 1.1604748334	-1.2241233891	 0.29082
H	 0.6154357982	-0.7978206297	-0.2702341697	 0.096546
H	 0.3661625942	 0.0369978217	 1.2754545005	 0.10821
H	-2.3945864849	-0.2865773081	 2.1694880917	 0.096036
H	-2.967909792	 0.9723910141	 1.0265135809	 0.107757
H	-4.4095243675	-1.8525308532	 1.9162273367	 0.287011
H	-3.9399527843	-1.4177346806	-1.6968391129	 0.117813
H	-3.8130976522	 0.3129345775	-1.2329482391	 0.099389
H	-1.6009140358	-2.8572198572	-0.0072208963	 0.101468
