18
gdb 82355	3.19188	1.35509	1.10951	3.4235	76.96	-0.2429	0.0529	0.2959	1110.4638	0.148583	-401.893347	-401.885313	-401.884369	-401.926021	31.748	
O	 0.0154964103	 1.3998173287	 0.2278492565	-0.423732
C	 0.0229359921	 0.0092422789	 0.0367336487	 0.12446
C	-1.3986488711	-0.5585417185	-0.1088177603	-0.089115
N	-2.2347664938	 0.3698831331	-0.8966651652	-0.345649
C	-1.6707619202	-0.8337773405	-1.5438373437	-0.034808
C	-0.4209717319	-0.538055411	-2.3631767336	-0.238435
C	 0.7161518275	-0.4546448888	-1.297018016	-0.208571
C	 1.8680136351	 0.335227653	-1.6943841301	 0.335357
C	 2.8210090586	 0.9793389524	-2.0433276126	-0.4509
H	-0.7526885275	 1.7209042531	-0.2694404653	 0.289336
H	 0.5457763956	-0.4264858862	 0.8929449842	 0.089071
H	-1.8537907776	-1.1228409387	 0.6975518763	 0.09269
H	-3.2164483158	 0.2306329549	-0.6738622673	 0.238893
H	-2.3552284176	-1.6166894677	-1.853747975	 0.093539
H	-0.2137198024	-1.319851211	-3.0977592194	 0.110031
H	-0.5269090696	 0.4077522401	-2.900740641	 0.126302
H	 1.0454660067	-1.4864358115	-1.1109281235	 0.10088
H	 3.6605770516	 1.5583181998	-2.3380850527	 0.190653
