17
gdb 81833	2.2135	1.65972	1.17063	4.0055	72.48	-0.2432	0.0236	0.2668	1074.3683	0.135847	-417.98025	-417.971427	-417.970483	-418.013736	32.806	
N	 0.0173303116	 1.4559798888	 0.0476356781	-0.601505
C	 0.023360164	 0.0282743631	 0.0077215628	 0.316728
C	-0.2584089602	-0.8553372185	-1.1805705601	-0.333163
C	-1.1566305699	-0.9376297338	 0.0323437254	-0.104534
C	-0.4945379953	-1.7909788106	 1.104023657	 0.109834
O	-0.2743279288	-3.1140471725	 0.7044443082	-0.415075
C	 0.7409008625	-0.7866289987	 1.1054043208	-0.246397
C	 2.0478074232	-1.350967153	 0.8176131451	 0.278289
N	 3.0743973128	-1.8352451385	 0.594604652	-0.340402
H	 0.7465375913	 1.8400618728	-0.5471416197	 0.240503
H	-0.8658895907	 1.8229302216	-0.2907790898	 0.237418
H	-0.6938087725	-0.3345572814	-2.0272504357	 0.111679
H	 0.3815723326	-1.692806644	-1.4394848192	 0.142687
H	-2.2169483871	-0.7220321934	-0.016517092	 0.096041
H	-1.0129239467	-1.735402548	 2.0690702642	 0.086432
H	 0.2954515759	-3.5471783132	 1.3496445529	 0.295913
H	 0.7808920573	-0.2187288606	 2.03758476	 0.125551
