19
gdb 107637	2.49892	1.56624	1.16496	1.7917	70.32	-0.2318	0.0601	0.2918	1098.8842	0.158375	-460.125552	-460.116776	-460.115832	-460.158769	33.215	
C	-0.175974019	 1.3878943304	 0.4836375287	-0.261326
O	-0.0578472183	 0.0968133756	-0.1000650341	-0.293001
C	-1.258783139	-0.5869333121	-0.1891000424	 0.379089
C	-1.8378282175	-1.2816600349	 1.0421521621	-0.407175
C	-1.2918710319	-2.0750819233	-0.1285475308	 0.043692
O	-2.1909689103	-2.6004704398	-1.0701812761	-0.258346
C	-3.0174198011	-1.5326923007	-1.5269911975	-0.120126
C	-2.2558377901	-0.2054546664	-1.2758945396	 0.029018
O	-3.1132197498	 0.8894056303	-0.9995715125	-0.430831
H	 0.8275091351	 1.8184679555	 0.497849719	 0.126659
H	-0.8447570742	 2.0344420481	-0.0962351252	 0.132446
H	-0.554353597	 1.3252432129	 1.5141304349	 0.10486
H	-1.2146073497	-1.2594939302	 1.929403396	 0.126376
H	-2.9062168058	-1.2750423455	 1.2366101607	 0.109504
H	-0.4019931727	-2.6802164414	-0.0068144251	 0.118382
H	-3.2462213441	-1.7058703988	-2.5812990503	 0.120917
H	-3.9701095063	-1.5061040289	-0.9756239704	 0.091489
H	-1.6835601584	 0.0961423181	-2.1587802908	 0.108034
H	-3.5180317599	 0.733576471	-0.1385055166	 0.28034
