19
gdb 65087	3.10589	1.41111	1.26347	1.1229	75.5	-0.2335	0.0682	0.3017	1069.5259	0.157531	-422.93521	-422.926713	-422.925769	-422.96887	32.617	
O	-0.101615942	 1.3331527166	 0.3743917758	-0.475655
C	-0.0174166351	-0.0329757012	 0.0638567702	 0.217577
C	 0.9747286989	-0.5556985342	-0.9377685877	-0.329061
C	 1.1274831915	-0.8825763026	 0.5415624666	-0.329141
C	-1.3904891139	-0.6105387076	 0.0780580924	 0.460556
C	-2.375610582	-0.803109254	 1.2634225987	-0.256155
C	-2.9073884446	-1.5579937306	 0.0247595579	 0.040603
C	-2.5962321384	-0.3303413773	-0.860151761	-0.256129
O	-1.5281673794	-2.0560540426	-0.2294160024	-0.351101
H	 0.7857251966	 1.7046389153	 0.3661043398	 0.284817
H	 0.6569882259	-1.3510821562	-1.6019805899	 0.136741
H	 1.6659971769	 0.1586008097	-1.3746633668	 0.105031
H	 1.9208193982	-0.3866748624	 1.0926182961	 0.105013
H	 0.9113676443	-1.8954100212	 0.8613282034	 0.136679
H	-2.0066657001	-1.4363359459	 2.0709286553	 0.104524
H	-2.9297464526	 0.0693188263	 1.6152131827	 0.102269
H	-3.7161691922	-2.2834874118	-0.0527121944	 0.096609
H	-3.169945951	 0.5840781234	-0.6969577069	 0.102281
H	-2.4206618708	-0.5492090239	-1.9139213198	 0.104543
