12
gdb 4288	4.13145	1.89334	1.29834	6.992	59.01	-0.2309	-0.021	0.2099	842.5069	0.085934	-414.718012	-414.711614	-414.71067	-414.748578	24.167	
O	-0.1346286444	 1.3517489329	 0.0109340491	-0.417451
C	 0.0471762021	 0.01674303	 0.0027028757	 0.498373
C	 1.212195794	-0.6671319282	-0.0075220892	-0.397685
C	 1.2128607568	-2.1311187818	-0.0154493648	 0.391246
O	 2.2287033525	-2.7949794877	-0.0246357095	-0.36506
N	-0.0669179611	-2.7649348072	-0.0116871361	-0.301293
C	-1.1206128853	-2.0408884435	-0.0018680193	 0.099305
N	-1.1414332946	-0.6667645789	 0.0056679143	-0.347837
H	 0.7268196687	 1.7847387891	 0.0085061138	 0.319467
H	 2.1654462279	-0.1527768896	-0.0100785836	 0.105817
H	-2.1076494714	-2.5010817772	 0.0011722232	 0.137779
H	-2.0064863151	-0.1492364278	 0.0133183264	 0.27734
