19
gdb 58143	1.78473	1.56767	1.24129	3.5022	72.48	-0.2529	-0.0638	0.1891	1148.1583	0.153368	-460.176781	-460.165964	-460.16502	-460.212682	38.003	
C	-0.0114767778	 1.5396076974	-0.0983587384	-0.419292
C	-0.0485728275	 0.055656465	 0.2926136246	 0.026676
C	 0.5785870707	-0.1572786183	 1.6787686601	-0.438455
C	-1.4896050284	-0.5178473158	 0.225448178	 0.156829
O	-2.4136456494	 0.1054134875	 1.1032925764	-0.473347
C	-2.0820987087	-0.302020626	-1.1791408041	 0.142124
O	-1.534219328	-0.6281497703	-2.1951475723	-0.239301
C	-1.4980167019	-2.0384142911	 0.4711656031	 0.117738
O	-0.6356264329	-2.7943411147	 0.116965176	-0.234095
H	 1.0081085191	 1.9271554865	-0.0140008548	 0.11821
H	-0.3412204659	 1.6983292028	-1.1284811944	 0.133476
H	-0.6537962144	 2.1330121516	 0.5603877854	 0.12054
H	 0.5161036565	-0.5299954271	-0.4395690237	 0.124303
H	 0.5931581349	-1.2110561834	 1.9683330972	 0.13595
H	 1.6121221435	 0.200795857	 1.678908153	 0.130391
H	 0.0529564181	 0.4135339143	 2.4558275801	 0.104285
H	-2.0484725261	 0.0964034468	 1.993970806	 0.292594
H	-3.0788479172	 0.1880207332	-1.1540490086	 0.106347
H	-2.4068811047	-2.3748338257	 1.0195142464	 0.095026
