14
gdb 2201	4.30733	2.37859	1.67745	2.586	55.65	-0.244	0.0238	0.2678	737.3319	0.112938	-361.726166	-361.718687	-361.717743	-361.757895	25.479	
C	-0.0291494156	 1.410590768	-0.0604562461	-0.343708
N	-0.01081328	-0.0278626532	-0.0037599583	-0.078481
C	-1.084179968	-1.0287196247	-0.052748524	-0.185136
C	 0.0232357994	-2.1174036206	-0.0066836896	-0.005135
O	 0.0416905611	-2.9618950742	-1.1292691643	-0.431827
C	 1.0196447488	-0.9277994155	-0.0477184638	 0.373741
O	 2.2164061673	-0.8077277964	-0.1315123292	-0.382133
H	 1.0071151779	 1.7567498899	-0.0532860687	 0.16275
H	-0.5155674625	 1.7705717109	-0.9756065654	 0.131786
H	-0.552909602	 1.8387333354	 0.8024744942	 0.13079
H	-1.7700007347	-0.996531455	 0.8001646094	 0.110492
H	-1.6460226335	-1.0350877329	-0.9923504519	 0.12277
H	 0.0501641917	-2.6782666524	 0.9375307602	 0.093572
H	 0.9604772603	-3.2096972293	-1.2843485825	 0.300518
