16
gdb 44230	3.75953	1.28072	1.18949	2.4699	68.91	-0.2497	-0.0104	0.2394	1049.2298	0.124266	-437.845888	-437.838615	-437.837671	-437.877882	27.96	
O	-0.0752112019	 0.0625122282	-0.4301684363	-0.308253
C	-0.0917982535	 1.213072223	-0.1099361659	 0.386422
C	-1.1812300985	 2.2804386034	 0.1520334425	-0.383921
C	-0.0132325116	 3.2880540039	 0.0586920124	-0.091195
N	 0.9771287874	 2.1460676771	 0.0408576723	-0.139074
C	 1.6132396309	 2.6293313975	-1.2311870864	-0.283306
C	 0.5142824579	 3.7059252893	-1.3255725082	 0.42599
C	-0.1914054975	 4.2486637006	-2.4877210065	-0.26031
O	 0.7350621391	 5.0365219322	-1.7222655338	-0.260226
H	-1.949128079	 2.3270752872	-0.6226946287	 0.139077
H	-1.6616395272	 2.2216912803	 1.131700222	 0.142603
H	 0.0986361176	 4.0327694699	 0.8485102883	 0.105398
H	 2.6106341043	 3.0412059254	-1.0575350137	 0.136201
H	 1.6560674787	 1.8696723337	-2.0158637317	 0.138214
H	 0.1389553806	 3.984411269	-3.4909792095	 0.127615
H	-1.2361671374	 4.5431946092	-2.4001106167	 0.124766
