19
gdb 107288	3.45095	1.33813	1.19207	0.8022	74.75	-0.2362	0.0662	0.3024	1102.8663	0.158968	-422.946387	-422.938403	-422.937459	-422.978974	30.839	
C	 0.0667936589	 1.3277866004	 0.2632224041	-0.259245
O	-0.0004584446	-0.0019299049	-0.231780036	-0.283054
C	-1.2560854399	-0.5566671979	-0.1337249272	 0.431839
C	-1.8453140235	-1.0427471178	 1.1552193683	-0.355635
C	-1.6243760154	-2.0306187836	 0.0239445778	-0.167689
C	-2.6938853654	-1.9044750136	-1.0850421241	-0.064757
C	-4.1078595373	-1.4041718806	-0.7186305156	-0.108622
O	-3.6763031936	-0.0177575517	-0.780841867	-0.297627
C	-2.3532318285	-0.4096237864	-1.2215866085	 0.027201
H	 1.1004346637	 1.6594159713	 0.1435164499	 0.127023
H	-0.5932333169	 2.0030546695	-0.2986247935	 0.11785
H	-0.2102563268	 1.3732349914	 1.3250923252	 0.114417
H	-1.1164351898	-1.1402644549	 1.9537727339	 0.116744
H	-2.8362359139	-0.7405803131	 1.4757971127	 0.128129
H	-0.9753263939	-2.8870932183	 0.1568859222	 0.099015
H	-2.5924162109	-2.6004847562	-1.915756249	 0.08369
H	-4.8673427075	-1.6117562633	-1.4819107258	 0.103386
H	-4.5031229008	-1.6759311693	 0.2668073655	 0.104376
H	-2.0374894039	 0.0711027191	-2.1509242629	 0.082958
