21
gdb 102929	3.0915	0.70536	0.60181	2.7612	86.48	-0.2488	-0.0199	0.2289	1851.7053	0.17872	-387.075307	-387.064403	-387.063459	-387.112453	38.267	
C	 0.9062454006	-0.1660481755	-1.3099265683	-0.39122
C	 0.062163485	-0.0175581521	-0.0430250445	-0.178691
C	 0.7049961558	-0.6519562245	 1.2132705992	-0.142374
C	-0.1296457636	-0.3441846145	 2.4792087937	-0.206623
C	 0.5221290817	-0.8372768535	 3.7806213397	-0.283364
C	-0.389432392	-0.6515265167	 4.9701444271	 0.159754
O	-0.1064278635	-0.0532700105	 5.975832973	-0.239145
C	 0.8928744988	-2.0929428438	 1.0475846743	 0.352652
C	 1.0181171841	-3.2821882305	 0.9161638654	-0.492517
H	 1.0767849457	-1.2199352547	-1.5474179516	 0.133154
H	 0.4084047192	 0.2991163922	-2.1658697935	 0.115589
H	 1.8843707447	 0.3135022663	-1.1921920881	 0.114932
H	-0.1058971117	 1.0452620264	 0.1686395888	 0.098536
H	-0.9256581223	-0.4683809603	-0.1959433345	 0.106858
H	 1.6969071731	-0.1950745943	 1.3469444822	 0.106648
H	-0.2819574034	 0.7400306801	 2.5327364591	 0.111025
H	-1.121267926	-0.7999367158	 2.3660696927	 0.111399
H	 0.7276205274	-1.9127655981	 3.6838049714	 0.13505
H	 1.4678558261	-0.3244360438	 3.9798984427	 0.11872
H	-1.3930759568	-1.1261509424	 4.8514287842	 0.069468
H	 1.1442885272	-4.329783174	 0.795307357	 0.20015
