12
gdb 23687	3.89785	1.96145	1.30484	3.0707	61.53	-0.2172	-0.0485	0.1687	832.5779	0.085823	-418.845745	-418.839613	-418.838669	-418.876196	23.271	
F	 0.0989499238	 0.0542583369	 0.0029420622	-0.045074
C	-0.044540976	 1.3639573732	 0.0110796899	 0.431681
C	-1.2479126753	 1.9917908124	 0.0305718289	-0.353977
C	-1.1678221166	 3.4168140171	 0.0362716358	 0.035289
N	-0.0757971255	 4.1246376911	 0.024616185	-0.311238
C	 1.1517870137	 3.4725244387	 0.0042410202	 0.425348
N	 2.3090775179	 4.0063976772	-0.0083681286	-0.563715
N	 1.1063112218	 2.0525253528	-0.0015820051	-0.380473
H	-2.1783670258	 1.4468837717	 0.0408366476	 0.125858
H	-2.1016685264	 3.9785998298	 0.051898476	 0.125472
H	 2.198794819	 5.0185699041	-0.0014756858	 0.227949
H	 1.9927106394	 1.5673432751	-0.0160754861	 0.282881
