18
gdb 38833	2.74388	1.98265	1.71877	1.3163	69.32	-0.2263	0.0781	0.3045	872.4162	0.151314	-439.05564	-439.049161	-439.048216	-439.08629	26.798	
C	 0.0291660186	 1.4206176343	-0.3043759582	-0.249495
C	 1.2994888946	 0.6898978192	-0.0521390376	-0.039867
C	 2.002444911	 0.8449133544	 1.2957853809	 0.17436
O	 1.4158573002	 1.8570344979	 2.1095599448	-0.270932
C	 0.4785614382	 1.2011936924	 2.9662077212	-0.102714
C	 0.4938566564	-0.249419378	 2.460280687	 0.042066
C	-0.4410882109	-0.5405608595	 1.2642809457	-0.17139
N	 0.0107307252	-0.0142993601	-0.0317958241	-0.092537
O	 1.8535812574	-0.3606520119	 2.0235351709	-0.245841
H	-0.2862797481	 2.1225428486	 0.4618717613	 0.126291
H	-0.2502592456	 1.6894188732	-1.3198692481	 0.114522
H	 1.9559889626	 0.4193687684	-0.8768080465	 0.091224
H	 3.0685067031	 1.0540966072	 1.178878123	 0.093533
H	 0.8268551697	 1.2636145947	 4.0036929073	 0.111165
H	-0.5038445458	 1.6790873203	 2.8888829618	 0.104682
H	 0.3288053279	-0.9777799085	 3.2567075938	 0.091515
H	-0.497262117	-1.628904108	 1.1519850971	 0.117385
H	-1.4556684173	-0.1831754345	 1.4743217598	 0.106033
