23
gdb 91798	2.22501	1.68204	1.23737	1.4003	84.86	-0.2518	0.0699	0.3217	1138.7744	0.206012	-388.300802	-388.291538	-388.290594	-388.333856	36.819	
C	 0.0128288943	 1.5962233844	 0.0409646944	-0.400115
C	 0.1220422387	 0.0696812991	 0.0412473647	-0.026229
C	 0.9076855116	-0.5184896669	-1.1580663142	 0.067533
O	 1.9700315629	 0.3740249924	-1.4965037506	-0.42147
C	 1.4234568558	-1.8898025758	-0.6603395646	-0.246473
C	 1.5617351474	-1.7490718456	 0.8475026851	-0.080177
C	 2.2654436716	-0.5179986448	 1.376036628	-0.337481
C	 0.7549236694	-0.5484529672	 1.2943508524	 0.362173
C	-0.0610084344	-0.5492423816	 2.5656724928	-0.487723
H	 0.9988914386	 2.0601951392	 0.1081805995	 0.133247
H	-0.4647248832	 1.9580303715	-0.875374887	 0.108095
H	-0.5898311385	 1.9393262956	 0.8879794862	 0.105357
H	-0.894584185	-0.3451855307	-0.0275106839	 0.065799
H	 0.2472859656	-0.6345211296	-2.0295558685	 0.061515
H	 2.4882342377	-0.0401399607	-2.1932690689	 0.281147
H	 0.6878057656	-2.6694519597	-0.8945004968	 0.095995
H	 2.356227179	-2.1679608572	-1.1675035667	 0.084228
H	 1.5864632462	-2.6524664137	 1.448707006	 0.07268
H	 2.6982114705	-0.5933253333	 2.3689160721	 0.096646
H	 2.8225089491	 0.0996716338	 0.6823377746	 0.128341
H	-0.2334705721	 0.4685548085	 2.9353405835	 0.117211
H	-1.042441644	-1.0145472994	 2.4103860907	 0.108496
H	 0.4476918029	-1.1025524285	 3.3616362612	 0.111205
