17
gdb 56075	6.95224	0.50082	0.4712	2.4422	92.22	-0.2403	-0.0214	0.2189	2214.0124	0.131598	-384.664284	-384.653871	-384.652927	-384.701461	35.845	
C	-0.0573465275	 1.5187322425	 0.0109037787	-0.47541
C	 0.0729876115	 0.0069705577	 0.0013047293	 0.378677
O	 1.1482140078	-0.5471491729	-0.0123172351	-0.28461
C	-1.2319252495	-0.7810168247	 0.0096703794	-0.29249
C	-1.0024678182	-2.3022264466	-0.0010502101	-0.40401
C	-2.2480639872	-3.0515890946	 0.0069631527	 0.316438
C	-3.2950552466	-3.6591365381	 0.0136431199	-0.166315
C	-4.4711831031	-4.3435535888	 0.0213898967	 0.287706
C	-5.5156819676	-4.9498088637	 0.0284343114	-0.558527
H	 0.9326673703	 1.9757622288	 0.0035936493	 0.146908
H	-0.6272865092	 1.8580094047	-0.8612812303	 0.14193
H	-0.6097987448	 1.8483127249	 0.8979350895	 0.141935
H	-1.8175457788	-0.4849683122	 0.8891066289	 0.136407
H	-1.8346222325	-0.47524375	-0.854772761	 0.136408
H	-0.4054087377	-2.5705084633	-0.8802612639	 0.152868
H	-0.3883486277	-2.5802275696	 0.8632635859	 0.152862
H	-6.4330166393	-5.483930854	 0.0344670488	 0.189224
