20
gdb 107510	1.97506	1.61543	1.08939	4.2395	83.1	-0.2699	0.0296	0.2994	1192.8323	0.171155	-366.00976	-366.000824	-365.99988	-366.043659	33.506	
C	-0.2583673034	 1.5232012878	-0.0575219252	-0.376456
C	 0.1160977164	 0.0391341477	 0.0624578692	-0.303531
C	 0.7759260021	-0.5051386963	-1.1747251272	 0.386588
C	 0.0223629328	-0.9865421406	-2.3845532205	-0.334079
C	 0.9515471552	-1.9398288824	-1.6835073986	-0.116274
C	 2.3951048092	-1.6604611227	-2.1065089035	-0.243809
C	 2.2391122821	-0.1871954434	-1.5741491528	-0.217756
C	 2.4628970272	 0.905048975	-2.512382001	 0.279737
N	 2.6263958843	 1.7617278805	-3.2722880356	-0.341138
H	 0.6229295276	 2.1425217525	-0.2535350495	 0.13022
H	-0.9627368693	 1.6843782497	-0.8794159614	 0.12594
H	-0.7223153826	 1.8849623691	 0.8648911848	 0.114588
H	 0.7811283095	-0.1043738985	 0.9249735005	 0.09728
H	-0.7838248553	-0.5533690616	 0.2696987373	 0.102454
H	-1.0354620229	-1.160013299	-2.2136782801	 0.117455
H	 0.2568999853	-0.6153647942	-3.3795695341	 0.126148
H	 0.5997457986	-2.860671449	-1.23449931	 0.094475
H	 3.1439503308	-2.2104308936	-1.5345050769	 0.117504
H	 2.6149431897	-1.7614975158	-3.1726925941	 0.119763
H	 2.8638577929	-0.0266014452	-0.6913053311	 0.12089
