17
gdb 53830	3.96697	0.90838	0.78857	1.2632	71.69	-0.2513	-0.0695	0.1817	1460.559	0.13264	-458.989351	-458.979791	-458.978847	-459.026023	32.967	
C	 0.0437346208	 1.3427665624	 0.3351749231	-0.47149
C	 0.0357969144	-0.1645889412	 0.3829634015	 0.281362
O	 1.0180552022	-0.8535798987	 0.4780851079	-0.263357
C	-1.3759118852	-0.7929579868	 0.289262162	 0.346697
O	-2.3749261192	-0.1312010002	 0.1484195139	-0.348454
O	-1.3208638881	-2.1224770293	 0.3918620532	-0.219248
C	-2.5501796281	-2.8271384416	 0.3007131691	 0.136422
C	-2.6691454456	-3.8314430274	-0.8058507398	-0.280769
C	-2.4688386029	-4.2810976659	 0.6282577934	-0.294213
H	 1.0703357847	 1.7046724994	 0.3916068573	 0.142318
H	-0.4378308778	 1.6920427841	-0.5834850225	 0.158466
H	-0.5500052147	 1.7468690601	 1.1615758894	 0.156746
H	-3.4044936073	-2.2301458303	 0.5909206226	 0.132011
H	-3.638683965	-3.9614583939	-1.2730186223	 0.126241
H	-1.8207846956	-3.9248920763	-1.4737128722	 0.133732
H	-1.4907188084	-4.6660939864	 0.8921225398	 0.138319
H	-3.2976186342	-4.7303676879	 1.1632419238	 0.125219
