24
gdb 22043	1.77919	1.46771	1.04515	0.3613	87.83	-0.2402	0.0119	0.2522	1326.5023	0.214226	-405.518469	-405.507274	-405.50633	-405.553816	42.45	
C	 0.9805871231	 0.051076722	 0.5623384735	-0.377136
C	 0.087049897	-1.1865376463	 0.7615975938	-0.252014
C	-1.3745435992	-0.9268013549	 0.4349116455	 0.330299
N	-1.6520090278	-1.2491683333	-0.7742332594	-0.176899
O	-2.9753774439	-0.9790819283	-1.1712808172	-0.395678
C	-2.3423045786	-0.3168575278	 1.4680366303	 0.174177
C	-3.5564255949	-1.2571632009	 1.6668924995	-0.400843
C	-1.6779030083	-0.1353307978	 2.8479258084	-0.427638
C	-2.8164995797	 1.0715182791	 0.9755429906	-0.406488
H	 2.0234942159	-0.1889423619	 0.792535692	 0.114442
H	 0.9287643289	 0.3898158321	-0.4765656714	 0.128749
H	 0.6841650954	 0.8880540942	 1.2015996498	 0.120214
H	 0.4352403509	-1.9768846997	 0.0918230196	 0.115229
H	 0.190449832	-1.5595412092	 1.7843292681	 0.102272
H	-2.9745303351	-1.3005129913	-2.0786133261	 0.303971
H	-3.2311704755	-2.2380696565	 2.02974701	 0.106661
H	-4.228068283	-0.8296057812	 2.4196249084	 0.103461
H	-4.1138776663	-1.4021505661	 0.7432489733	 0.14118
H	-0.7970571404	 0.5109610277	 2.8106962905	 0.115763
H	-2.396489185	 0.3314534531	 3.5295297474	 0.111194
H	-1.3839205851	-1.0913542563	 3.2916401718	 0.114555
H	-3.3014185196	 1.0056492938	 0.0018535602	 0.141094
H	-3.5289626795	 1.4936912002	 1.6931663553	 0.104938
H	-1.9739028711	 1.7662871192	 0.8949194164	 0.108498
