19
gdb 78512	2.47064	1.74815	1.19021	0.4558	75.96	-0.2502	0.0794	0.3296	1064.511	0.157841	-422.953939	-422.945488	-422.944544	-422.986171	33.631	
C	 0.0056105693	 1.4782898693	-0.0819548657	-0.518997
C	 0.0337295149	-0.0243818122	-0.0757813587	 0.360294
C	 0.5897088282	-0.96181043	-1.1781272171	-0.372586
C	 0.0599721238	-1.9039443654	-0.0865593659	 0.388849
O	-0.0155195317	-3.285166666	-0.0759813236	-0.475342
C	 0.5411817552	-0.9623350876	 1.0840897508	-0.181577
C	-0.8371700265	-1.0349407005	 1.7466028481	 0.108828
O	-1.1666884364	 0.0781289513	 2.5494493376	-0.445069
C	-1.1660335881	-1.0032054385	 0.2364212604	-0.176513
H	 1.0199517449	 1.8867345701	-0.1574936086	 0.113584
H	-0.5651449055	 1.8543886324	-0.9388748647	 0.112317
H	-0.451879235	 1.8562582296	 0.8349109515	 0.141933
H	 0.0568783909	-0.9666348172	-2.1352270179	 0.091626
H	 1.6745247521	-0.9389023112	-1.3364329812	 0.082516
H	 0.8794469227	-3.6384956395	-0.1237733055	 0.283246
H	 1.5306084321	-0.9413086716	 1.544802533	 0.065322
H	-1.0678340907	-1.9799003105	 2.2563190386	 0.073055
H	-2.0856136829	-0.0097226432	 2.8211881523	 0.282076
H	-2.1287575375	-1.0275207091	-0.2777973033	 0.066439
