16
gdb 123775	4.34848	1.36153	1.13878	3.8461	75.77	-0.2457	0.0197	0.2655	1055.7832	0.127198	-396.895746	-396.888752	-396.887808	-396.927698	26.449	
C	 0.0783622173	 1.5615754008	-0.0087571882	-0.315375
C	 1.3242085849	 0.7110601614	-0.0831713916	-0.315357
C	-0.0267999807	 0.0646836016	 0.0131466186	 0.166029
C	-0.5897115495	-0.8597948576	 1.1552929546	-0.237525
N	-1.1819924634	-1.6310375545	 0.0421211735	 0.056562
N	-1.9171506232	-2.6654281771	-0.4247366109	-0.283219
C	-1.826257047	-2.416176707	-1.7372026432	 0.020113
N	-1.0965707691	-1.313614574	-2.124468152	-0.393422
C	-0.7189639065	-0.865740356	-0.9410378165	 0.358555
H	-0.1214151517	 2.0940176051	 0.9150198393	 0.126094
H	-0.2535252471	 2.0723522314	-0.9055029188	 0.140665
H	 1.8456243895	 0.6393083737	-1.0308848729	 0.140653
H	 1.9660265192	 0.6689115453	 0.7903644573	 0.126092
H	 0.1549759448	-1.4161713829	 1.7293413488	 0.142301
H	-1.3293244475	-0.4033470781	 1.8173215783	 0.142343
H	-2.31115785	-3.0627730221	-2.4538262964	 0.12549
