20
gdb 46328	2.89498	1.30994	1.18867	3.4064	79.09	-0.2407	0.0409	0.2816	1141.1083	0.173155	-403.190866	-403.182472	-403.181528	-403.225066	31.585	
O	-0.0998896055	 0.0166118758	 0.0015095395	-0.37478
C	-0.064880904	 1.2193666718	 0.0211465659	 0.394543
N	-1.0352586985	 2.1880309225	 0.045217748	-0.334904
C	-0.1107298219	 3.3254202154	 0.0475717857	-0.227819
C	 1.0605562065	 2.288742031	 0.0166452724	 0.206428
C	 2.0108154564	 2.2626330044	 1.2413059028	-0.274777
C	 3.3747974484	 1.8187136581	 0.6846040923	-0.202325
C	 3.4102327514	 2.4675298407	-0.7061537144	-0.20156
C	 1.9806360095	 2.2410514638	-1.2323846444	-0.282185
H	-2.0424258657	 2.1310621359	 0.0664321141	 0.248726
H	-0.1886822182	 3.9675620775	-0.8364622765	 0.108295
H	-0.1609111505	 3.939627786	 0.9532631145	 0.106995
H	 2.0924257585	 3.2747560519	 1.6553618098	 0.098697
H	 1.6422948997	 1.6134062741	 2.0402420684	 0.111877
H	 4.2099930022	 2.1124719001	 1.3266619131	 0.094094
H	 3.3996374486	 0.7271795197	 0.5860536145	 0.115093
H	 3.6163366539	 3.5411254453	-0.6109207682	 0.094651
H	 4.1742049523	 2.0457272003	-1.3651648094	 0.098142
H	 1.9091522955	 1.2425100224	-1.678244566	 0.124319
H	 1.6812310616	 2.9608531831	-1.9990466122	 0.09649
