19
gdb 71796	3.73778	1.66955	1.50821	1.9912	76.71	-0.2355	0.0905	0.3261	936.1723	0.162057	-385.870919	-385.864426	-385.863481	-385.901327	27.914	
C	 0.0192026664	 1.493615301	 0.0218880643	-0.497279
C	-0.0547650184	-0.0108367795	-0.0121920825	 0.325317
C	-1.3174826995	-0.734066372	-0.471138865	-0.299412
C	-0.8250174944	-2.1565253535	-0.3004796025	-0.066739
C	 0.6469533307	-2.2775821158	-0.8051253804	 0.060226
O	 0.9605443854	-3.1260890027	 0.3387687889	-0.300404
C	-0.0136206233	-2.2865192429	 1.0264548334	 0.060225
C	 0.617110352	-0.8788965696	 1.0355267121	-0.117186
C	 1.1338762238	-0.871893252	-0.3973957342	-0.117204
H	 0.996617973	 1.837060911	 0.3752989714	 0.118152
H	-0.1427377447	 1.920010706	-0.97473956	 0.118365
H	-0.7419685351	 1.9117796439	 0.6905162153	 0.11837
H	-2.1821890096	-0.5036876937	 0.1628635209	 0.097382
H	-1.5791794662	-0.4955029622	-1.5090947428	 0.097383
H	-1.4747125579	-2.995057367	-0.5388918217	 0.079609
H	 0.9475304931	-2.6981147819	-1.7637149142	 0.075049
H	-0.3927682128	-2.7162435272	 1.9525608736	 0.07505
H	 1.1753017375	-0.4792084441	 1.8712894065	 0.086548
H	 2.09575273	-0.4667180678	-0.6810400731	 0.086547
