17
gdb 5569	3.18452	1.79309	1.23872	1.742	70.77	-0.2264	0.0111	0.2374	1000.3508	0.142485	-363.913102	-363.905032	-363.904087	-363.946061	28.85	
C	 0.2253267839	 1.5848159487	 0.2890827836	-0.367484
C	-0.0938325329	 0.1171034833	-0.0377191681	-0.294048
C	 0.5656260863	-0.3529696866	-1.2950498298	 0.182578
C	 0.0221288542	-0.774814274	-2.4676197872	 0.252854
C	-1.3557902091	-0.957765865	-2.9886107538	-0.495954
O	 1.0598611617	-1.0890997479	-3.3166873398	-0.178493
C	 2.1747506009	-0.8337413801	-2.5978128873	 0.059786
N	 1.9596235463	-0.3988516614	-1.4034460688	-0.30522
H	 1.3061285689	 1.7305992738	 0.3644072539	 0.1401
H	-0.1503937611	 2.251805439	-0.4934108653	 0.11365
H	-0.2307667086	 1.8810155538	 1.2386535647	 0.109062
H	 0.2401618484	-0.5156756297	 0.7939659705	 0.117387
H	-1.1772178329	-0.0227336702	-0.1198022619	 0.098505
H	-1.5378412405	-0.3356578242	-3.872289499	 0.141258
H	-1.542327374	-1.9987953543	-3.2757762704	 0.141336
H	-2.0842041903	-0.68111838	-2.2233828703	 0.140116
H	 3.1193924087	-1.0180226351	-3.085596611	 0.144569
