18
gdb 26126	2.50954	1.50129	0.97536	1.6429	74.58	-0.2315	0.0037	0.2352	1197.0805	0.147162	-439.124402	-439.115379	-439.114434	-439.158718	33.015	
C	 0.0681313277	 1.2573204217	 1.1378505466	-0.39504
C	-0.1738705948	 0.5456629812	-0.1963138202	 0.009543
O	 0.9046275582	-0.3231392417	-0.532581095	-0.41137
C	-1.482034081	-0.1978619105	-0.2300488154	 0.237461
C	-1.9614823477	-1.2771843242	-0.9098333801	 0.15847
C	-1.307144735	-2.1498853397	-1.9291913574	-0.502213
N	-3.2863021851	-1.4953683597	-0.52243084	-0.299985
C	-3.5317387048	-0.5643879164	 0.3354520312	 0.057221
O	-2.4973048302	 0.2679031462	 0.5770915181	-0.183049
H	 1.0370793179	 1.7609292308	 1.1026728359	 0.125977
H	-0.7116955334	 1.9953643841	 1.3406992821	 0.133159
H	 0.0750054513	 0.5398705259	 1.9658763254	 0.114735
H	-0.1627377866	 1.2970437455	-0.9969367461	 0.113748
H	 0.9188200924	-1.0301503156	 0.1233768536	 0.280327
H	-1.3365655598	-3.1990812314	-1.6157610188	 0.132747
H	-1.8407378867	-2.0884028362	-2.8838945204	 0.136263
H	-0.2696481276	-1.8527234941	-2.0834306697	 0.144804
H	-4.4452718347	-0.3726727258	 0.8767314702	 0.1472
