16
gdb 87033	2.15669	1.65569	1.09509	3.5539	73.49	-0.2351	0.0118	0.247	1100.2854	0.122375	-437.876411	-437.867438	-437.866494	-437.909706	34.28	
N	 0.0430413151	 1.2000059809	 0.3462741046	-0.567499
C	-0.0123455537	-0.0467168483	-0.1699037766	 0.430099
O	 0.9565629366	-0.5832384075	-0.7070504596	-0.419105
C	-1.3258843193	-0.7625455469	-0.0393590541	-0.064788
C	-1.6476955771	-1.7445852486	-1.1893318069	-0.348994
C	-1.1883718144	-2.3252502832	 0.0933134821	 0.124829
O	 0.0392455141	-2.9116099589	 0.2579064373	-0.416316
C	-2.405369381	-0.1073389177	 0.6327330338	 0.193105
C	-3.3085209498	 0.4493763101	 1.2040812885	-0.379468
H	 0.9203355623	 1.6919612689	 0.318517439	 0.266195
H	-0.7577941624	 1.6144166899	 0.7925618016	 0.27257
H	-2.6928248477	-1.8233210155	-1.4647487651	 0.133304
H	-0.9366858676	-1.7243490036	-2.0079996901	 0.145291
H	-1.9339096785	-2.7696504187	 0.7441397759	 0.127044
H	 0.6847283993	-2.3395038029	-0.2011098652	 0.309675
H	-4.1125998259	 0.9270240519	 1.7071784948	 0.194057
