17
gdb 83019	2.96771	1.32544	1.14986	1.3788	83.	-0.2251	-0.0283	0.1968	1110.061	0.135431	-384.652382	-384.644281	-384.643337	-384.684778	31.737	
O	 0.0424433395	 1.3864652143	 0.0606678341	-0.426391
C	-0.0360402975	-0.0004753404	-0.0314663827	 0.13085
C	-1.3454034012	-0.7421445965	-0.0031117427	-0.11434
C	-2.6015543522	 0.0794227767	-0.2952768435	-0.265832
C	-2.4003577176	 0.5738291838	-1.7073130201	-0.206952
C	-1.2647815866	 0.1001090454	-2.259231609	 0.181156
C	-0.799327883	 0.3465109224	-3.5745862418	 0.220287
C	-0.3749381014	 0.5228810836	-4.6884094194	-0.422158
C	-0.4915925573	-0.7326210184	-1.2799534995	-0.220968
H	-0.4182600617	 1.7652175255	-0.6986884298	 0.287325
H	 0.7888631849	-0.4571770053	 0.50642849	 0.107568
H	-1.4304272841	-1.6330060469	 0.608252401	 0.089319
H	-3.5157423075	-0.5216167944	-0.211553032	 0.11798
H	-2.7102153795	 0.9133747645	 0.4117231066	 0.126478
H	-3.092655958	 1.2413649611	-2.2065267364	 0.105265
H	-0.0090005854	 0.6886313814	-5.6712774567	 0.195304
H	 0.0701581387	-1.5869936368	-1.6391654381	 0.09511
