20
gdb 91715	2.62247	1.54445	1.45223	2.4347	77.3	-0.2151	-0.012	0.2031	1026.6555	0.173748	-403.169223	-403.161718	-403.160774	-403.201011	30.56	
C	-0.2161311258	 1.5483405351	 0.0077216131	-0.428453
C	 0.0534510067	 0.0494636254	-0.0089961468	 0.077607
C	 0.7686079338	-0.4913296799	-1.3002751255	-0.258488
C	 1.902400454	-1.3658167426	-0.6950752405	-0.126214
C	 1.2356139103	-1.8029875408	 0.6340011904	-0.198783
N	 0.8805221349	-0.4500130906	 1.1332303275	-0.103471
C	 2.2084223744	 0.2053115815	 1.1130487784	-0.297968
C	 2.9123409643	-0.3613297718	-0.1420299873	 0.414247
O	 3.995311085	-0.0624873194	-0.5707753523	-0.329229
H	 0.6747435625	 2.1395535948	-0.2254863547	 0.122954
H	-0.9711949639	 1.7945069147	-0.7453454622	 0.121832
H	-0.5948366204	 1.861924941	 0.9850768372	 0.129633
H	-0.9092604437	-0.4620251326	 0.0967940483	 0.083848
H	 0.0984477554	-1.0979785077	-1.9162701044	 0.106563
H	 1.1572450741	 0.3132852714	-1.9313959033	 0.116414
H	 2.330937073	-2.1151409667	-1.3582728224	 0.085299
H	 0.3410107867	-2.4157081942	 0.4940093109	 0.108896
H	 1.9115753738	-2.3115865251	 1.327226891	 0.110355
H	 2.1533284633	 1.2943231049	 1.1038497625	 0.132535
H	 2.7705519118	-0.0853431974	 2.0083771401	 0.132423
