21
gdb 119320	2.38855	1.09557	0.88522	2.5636	78.81	-0.2497	-0.0237	0.226	1388.9062	0.180987	-424.220014	-424.210113	-424.209168	-424.255365	35.83	
O	 0.2373085926	 1.531938978	 0.0096431805	-0.416539
C	 0.1465384164	 0.1203447021	 0.1401866222	-0.07452
C	-1.2604801058	-0.3961339905	-0.1835393854	-0.291062
C	-1.4566003006	-1.8906353242	 0.0559444686	 0.218133
C	-1.2718664187	-2.4407026445	 1.5165903756	-0.262818
C	-2.5862797692	-3.2501713719	 1.3810013605	-0.216636
C	-2.9407771947	-2.4191933371	 0.1223158675	-0.266403
C	-0.6968721165	-2.7427137103	-0.932802243	 0.140161
O	-0.077035091	-2.3306816346	-1.8819410295	-0.270104
H	 0.1469004337	 1.7421566046	-0.9252296771	 0.282646
H	 0.8895912149	-0.3886221697	-0.4866640002	 0.11178
H	 0.3942484228	-0.0921569422	 1.1864589275	 0.105781
H	-1.9765147061	 0.16511466	 0.4278640981	 0.097715
H	-1.4863900704	-0.1738640171	-1.2344514753	 0.100975
H	-0.3549151014	-2.9980210994	 1.727142837	 0.107637
H	-1.3539769368	-1.628767272	 2.2434880858	 0.116223
H	-2.4077060137	-4.3035223533	 1.1497538921	 0.110668
H	-3.2852098634	-3.2014139745	 2.2184445024	 0.106983
H	-3.6248253119	-1.5943933738	 0.3365936011	 0.114518
H	-3.3162355666	-2.9587110001	-0.7514897854	 0.109438
H	-0.7630698536	-3.8392607198	-0.7374969628	 0.075426
