18
gdb 3594	5.18518	1.86624	1.57487	1.0499	69.29	-0.2313	0.0887	0.32	846.0297	0.159881	-289.795079	-289.787705	-289.786761	-289.826508	27.571	
C	-0.0603967803	 1.5465556733	-0.0208114525	-0.401598
C	 0.0087053585	 0.0361729753	 0.0135963296	-0.011888
C	 1.3263271284	-0.6794297344	-0.1902501567	-0.313086
C	 0.6617614124	-0.6958009479	 1.1622540921	 0.060172
N	 1.2740762438	 0.0743651659	 2.2098532859	-0.061006
C	 0.6486905342	-0.0001829517	 3.526454693	-0.221348
C	 1.9482680381	-0.6788482427	 3.2622606944	-0.21987
H	 0.808047239	 1.9840320395	 0.4763253599	 0.1333
H	-0.0915252142	 1.9131331496	-1.0527869688	 0.109943
H	-0.9572531856	 1.9141169304	 0.4906852364	 0.110086
H	-0.8614724573	-0.4648153229	-0.4035939316	 0.079797
H	 1.3514627902	-1.5946887446	-0.7714122385	 0.105641
H	 2.2127171945	-0.0599305133	-0.2775406605	 0.117094
H	 0.1966156444	-1.6364190974	 1.473458637	 0.064362
H	 0.6128581101	 0.9288654693	 4.088374197	 0.11535
H	-0.2298661529	-0.6338477888	 3.6372212353	 0.108985
H	 1.9377058011	-1.7655267255	 3.1954049686	 0.109208
H	 2.8791419757	-0.2542155741	 3.6276156094	 0.114859
