19
gdb 105312	2.30115	1.50479	1.13536	1.2697	80.69	-0.2525	0.0439	0.2964	1149.2431	0.156994	-385.818898	-385.809952	-385.809008	-385.852259	34.277	
C	 0.1170786466	 1.5143408435	-0.1259450775	-0.390617
C	-0.0008988362	 0.0058553042	 0.1032128859	-0.24096
C	-1.4445226433	-0.5199024497	 0.0438334304	 0.119341
C	-2.1630287974	-0.4945819254	-1.378470097	-0.311905
C	-2.2505993469	-2.0214706236	-1.3156480555	 0.050428
O	-0.9106870894	-2.5215291959	-1.1851530755	-0.249961
C	-1.5824253406	-2.0728205124	-0.010816391	-0.026974
C	-2.2867577208	 0.041197572	 1.0880098519	 0.282208
C	-2.9805153585	 0.4815222938	 1.9668841251	-0.457408
H	 1.1625760828	 1.8323367027	-0.0721743271	 0.114588
H	-0.2658720371	 1.8006283593	-1.1114354486	 0.115446
H	-0.4467915311	 2.0736871569	 0.626506306	 0.128779
H	 0.5735518657	-0.5418428104	-0.6501316508	 0.117477
H	 0.421049377	-0.253493458	 1.0817787596	 0.101422
H	-3.1314488584	 0.0054270794	-1.3401241272	 0.12348
H	-1.5677326107	-0.0994274608	-2.2049609072	 0.113891
H	-2.98308163	-2.6842340281	-1.7603471605	 0.107798
H	-1.6692225852	-2.7582007656	 0.824312627	 0.108771
H	-3.5920490164	 0.8783017879	 2.7390511019	 0.194196
