22
gdb 114037	2.63145	1.2262	1.05789	2.8831	82.53	-0.2294	0.0727	0.3021	1266.3402	0.193358	-404.30287	-404.293159	-404.292214	-404.337156	36.805	
C	-0.0320425046	 1.6295150865	 0.1453265801	-0.432142
C	 0.0846859527	 0.1202691193	 0.1789533281	-0.012912
N	 1.203106382	-0.7308849828	-0.3214743089	-0.23721
C	 2.5441205699	-0.1544778179	 0.0796979988	 0.07422
C	 3.0580501751	 0.9946996203	-0.7733039252	-0.081326
O	 3.0958612296	 0.6052899629	-2.1365379103	-0.426381
C	 2.1386593251	-0.0264279885	 1.5669492971	-0.369418
C	 0.8150908418	-0.6965940517	 1.1674087923	 0.336542
C	 0.2349034272	-1.8821693544	 1.8814511574	-0.488157
H	 0.7673773466	 2.1455816156	 0.6785048588	 0.126495
H	-0.0485253068	 2.0011271798	-0.8848357445	 0.130747
H	-0.9793998761	 1.9196083817	 0.6132750162	 0.12102
H	-0.8388613901	-0.3549371284	-0.1514738701	 0.094201
H	 3.2514392381	-0.9811432394	-0.0420949593	 0.0954
H	 2.4606359749	 1.9059892304	-0.6386127869	 0.085449
H	 4.0871878795	 1.2369986445	-0.4809948552	 0.103132
H	 2.2808517493	 0.1155058424	-2.3026158598	 0.293711
H	 2.7530572502	-0.6309094209	 2.2365864664	 0.109663
H	 2.0571430551	 0.9795810095	 1.9891276366	 0.103609
H	-0.1955741078	-1.5815557574	 2.8444418764	 0.121804
H	-0.5558969418	-2.3469707307	 1.2860214162	 0.128973
H	 1.00100377	-2.6395952208	 2.0804288357	 0.122581
