17
gdb 44223	4.1784	1.24563	1.15483	3.5614	74.39	-0.2318	0.018	0.2498	1091.9892	0.136838	-417.950355	-417.942956	-417.942012	-417.982363	29.175	
N	 0.2271700876	 0.9761457422	-0.5613685772	-0.546826
C	 0.0470730873	-0.1706829377	-0.0949780027	 0.471672
O	 0.9513325066	-1.0867449825	 0.4307270275	-0.270037
C	-0.1200811432	-2.0209895222	 0.7766668988	-0.012266
C	-1.1580740425	-1.0658313999	 0.1409351425	-0.145556
N	-1.3665700343	-2.0171113787	-0.993779233	-0.370351
C	-0.4663820662	-2.9951583165	-0.3383889893	 0.358983
C	 0.4349068926	-3.95037626	-1.0484680695	-0.299863
C	-0.717156423	-4.4673466575	-0.2067697473	-0.34222
H	 1.2166635761	 1.2306196791	-0.5597454966	 0.229804
H	-0.0505281544	-2.3484264576	 1.8129825626	 0.098631
H	-2.0415063286	-0.646095744	 0.6176379288	 0.106009
H	-2.3273528735	-2.3429328001	-1.0248126177	 0.227222
H	 0.3326230147	-4.0042940833	-2.1266895419	 0.12899
H	 1.4471695833	-4.0732692	-0.67913097	 0.126573
H	-0.4976931062	-4.9450928867	 0.7430458222	 0.120333
H	-1.5773051162	-4.8787538845	-0.7260249671	 0.118903
