20
gdb 107247	2.43668	1.66204	1.20828	1.0679	78.53	-0.2046	0.0688	0.2734	1098.8596	0.169913	-403.06114	-403.052457	-403.051512	-403.094001	34.391	
C	 0.1159981733	 1.5883855421	-0.0377196203	-0.382718
C	-0.046182494	 0.0615225953	 0.0007076693	-0.303685
C	-1.475137252	-0.3988295815	 0.0172743481	 0.271047
N	-1.9184648234	-1.6967214365	-0.5559861395	-0.390146
C	-2.5212139739	-0.415011426	-1.0260222214	-0.115659
C	-3.608274557	 0.0361666212	-0.0099233614	-0.121325
C	-3.7216492695	-0.9219247443	 1.1630965471	-0.352706
C	-2.5622070418	 0.0322026567	 1.0799181664	 0.345084
O	-2.3242650456	 1.0216730869	 2.0207206874	-0.449179
H	 1.1750646042	 1.8643650178	-0.0413122631	 0.106551
H	-0.3447336942	 2.0050703925	-0.9392259907	 0.113939
H	-0.3623268772	 2.0511048292	 0.8278725915	 0.144123
H	 0.4481815689	-0.3825339096	-0.8737836961	 0.093245
H	 0.4749608704	-0.3437146078	 0.8791309967	 0.100805
H	-1.2212031125	-1.9686877975	-1.2500592859	 0.220876
H	-2.4745594493	-0.1294917844	-2.0694199686	 0.090723
H	-4.3624632801	 0.7801250004	-0.2283319633	 0.095891
H	-4.4668748812	-0.6117640621	 1.8900585172	 0.106245
H	-3.601446869	-1.9891278042	 1.0300619848	 0.139341
H	-2.0660568862	 0.5944017519	 2.845218612	 0.287549
