18
gdb 88808	3.27367	1.08457	0.89553	3.5445	72.89	-0.2399	0.0054	0.2453	1298.2353	0.147304	-439.070672	-439.062089	-439.061145	-439.10481	31.092	
C	-0.377444375	 1.4194906683	-0.100509339	-0.316591
N	 0.0286593405	 0.0247955284	-0.0242098122	-0.086289
C	 1.4206725325	-0.2972065748	-0.3040747236	-0.250895
C	 0.8729806115	-0.4454913319	 1.075915832	 0.00695
C	 1.3620027858	 0.442919998	 2.1922591447	-0.22042
C	 0.6135373736	 0.4133476597	 3.5418856369	-0.099271
O	 1.8102703739	-0.1019716493	 4.2094310607	-0.238042
C	 2.5198046003	-0.1243786599	 3.0350070769	 0.451471
O	 3.6360503245	-0.4902600396	 2.8633107329	-0.318602
H	 0.4114177783	 2.1468062389	 0.1500516081	 0.101472
H	-0.7022240897	 1.6280308917	-1.1244783248	 0.132735
H	-1.2300385576	 1.5895791425	 0.5651487715	 0.124328
H	 1.6021652144	-1.1709515991	-0.9235913095	 0.125124
H	 2.1123050117	 0.528747144	-0.4703713896	 0.11364
H	 0.6058288211	-1.4475793574	 1.4107686425	 0.10154
H	 1.5919544339	 1.4511162866	 1.8425449985	 0.114794
H	 0.3195519381	 1.3766434526	 3.9626299667	 0.127355
H	-0.2061778979	-0.3052215086	 3.6124677172	 0.130703
