18
gdb 66739	2.49436	2.37815	1.85717	0.7157	81.24	-0.1989	-0.0411	0.1578	847.0353	0.147623	-364.668476	-364.661557	-364.660613	-364.699062	29.202	
C	-0.1787092613	 1.6071103845	-0.2213079358	-0.523499
C	-0.0343822763	 0.1205072223	-0.0756967127	 0.336473
C	 0.4450009956	-0.8910819005	-1.1586685158	-0.18231
C	-0.4334468325	-1.8148369128	-0.380651013	-0.014627
C	 1.1730031171	-1.6040155336	-0.0617248846	-0.136793
C	 0.9292393344	-0.5442742925	 0.9712367038	 0.017619
C	 0.2914183495	-0.7369729854	 2.1418853917	-0.146085
C	-1.2036775129	-0.6559764201	 1.7870670497	-0.206513
N	-1.2145133858	-0.7388691606	 0.276507879	-0.147883
H	 0.7782684295	 2.0552867984	-0.5073891555	 0.127392
H	-0.9216847064	 1.8550117298	-0.9853857711	 0.128408
H	-0.487428799	 2.0634254238	 0.7250971514	 0.127801
H	 0.6252058816	-0.7806796894	-2.2192011762	 0.094689
H	-0.8283178637	-2.7956895495	-0.6131776324	 0.097953
H	 1.8335804068	-2.4608843585	-0.1024316395	 0.096052
H	 0.6387159491	-1.4213117103	 2.9104387313	 0.097283
H	-1.7205012967	-1.5030942186	 2.2525069762	 0.115914
H	-1.755865919	 0.250246193	 2.0591705237	 0.118126
