14
gdb 133053	5.19331	1.03681	0.86899	2.5038	68.4	-0.24	-0.0543	0.1857	1226.0724	0.101282	-478.017874	-478.010433	-478.009488	-478.050188	27.158	
C	 0.0063462752	 1.4009414302	 0.0077839145	-0.235375
O	-0.0241785379	-0.0267128046	 0.0031667688	-0.262937
C	-1.2333366542	-0.6112453411	 0.0105970704	 0.427049
N	-2.3394366144	 0.118859416	 0.021834742	-0.322434
C	-3.5021824668	-0.5404073539	 0.0286124928	-0.151132
C	-3.5239972659	-1.926323081	 0.0239174634	 0.303705
F	-4.688644439	-2.5680003339	 0.0307313578	-0.069578
N	-2.4316932858	-2.665891985	 0.0127294485	-0.275021
C	-1.2755213668	-2.0173448103	 0.0059438202	-0.092566
H	 1.0631617813	 1.669183565	 0.0002150995	 0.134905
H	-0.4956514996	 1.8076493973	-0.8749011659	 0.137993
H	-0.4813765171	 1.8015989596	 0.9011785835	 0.137986
H	-4.4207663235	 0.0376263917	 0.037830363	 0.133144
H	-0.3576853855	-2.5967350899	-0.0033085188	 0.134263
