21
gdb 86730	3.59277	1.03687	0.92283	2.2879	85.04	-0.2275	-0.0135	0.214	1366.2894	0.181439	-387.131031	-387.121455	-387.120511	-387.166483	35.047	
C	 0.048367292	 1.6593429231	 0.1061099718	-0.398974
C	 0.0028584437	 0.127053586	 0.0897060726	-0.004609
C	 0.6812079995	-0.5067866528	-1.1566409007	-0.23859
C	 1.4160893406	-1.7729565391	-0.6577087026	-0.147249
C	 1.5233721903	-1.5312792694	 0.8413130191	-0.102077
C	 0.7453414513	-0.5255042411	 1.2346380156	-0.049213
C	 0.6310044959	-3.070299408	-0.9131626701	 0.385752
C	 1.38710436	-4.3673695546	-0.6858355438	-0.479408
O	-0.5247125533	-3.059443628	-1.2679817343	-0.298668
H	 1.0827540779	 2.0203602589	 0.0843979786	 0.11328
H	-0.4722403131	 2.0749671225	-0.7630617439	 0.116244
H	-0.4300095922	 2.0636494068	 1.0046996895	 0.111055
H	-1.0515881939	-0.180895539	 0.1324759514	 0.09473
H	-0.037175292	-0.7457019186	-1.9421557292	 0.118531
H	 1.4154867199	 0.1958495492	-1.564327416	 0.092225
H	 2.4089211649	-1.8937801342	-1.1114860588	 0.080246
H	 2.1321885953	-2.1501301586	 1.4910823761	 0.094429
H	 0.6295777856	-0.1964628312	 2.26260079	 0.092746
H	 2.1943986842	-4.4568178083	-1.4224608603	 0.13997
H	 1.8578086283	-4.3797267771	 0.3027511817	 0.138142
H	 0.710278135	-5.2166817765	-0.7855125366	 0.14144
