15
gdb 29125	3.04305	1.38948	0.95951	3.9928	72.88	-0.2167	-0.0526	0.1641	1152.8434	0.111997	-457.823802	-457.815735	-457.814791	-457.856307	30.314	
C	-0.0303980071	 1.510740748	-0.0239046595	-0.471649
C	-0.0524221581	 0.0119290924	 0.0062051049	 0.096089
C	-1.1752652764	-0.7363969496	-0.1184135503	-0.188813
C	-1.1195735451	-2.1662545013	-0.0801790361	 0.258229
O	-2.305399849	-2.828497037	-0.214612584	-0.435834
C	 0.0843313996	-2.7534331192	 0.0838298046	-0.060268
O	 1.2240069554	-2.033285877	 0.2112143256	-0.210688
C	 1.2438237369	-0.6445336947	 0.1833134791	 0.39293
O	 2.3061722592	-0.0883510064	 0.3045394433	-0.348686
H	 0.61374209	 1.8703224923	-0.8331837689	 0.149238
H	-1.0345479476	 1.9190888437	-0.1590510582	 0.119579
H	 0.3956005399	 1.9084243356	 0.9031926572	 0.149234
H	-2.1477654917	-0.2716206968	-0.2506604511	 0.122569
H	-2.1525022512	-3.7786669334	-0.1746632403	 0.302425
H	 0.2624676352	-3.8213473465	 0.1295322538	 0.125645
