17
gdb 10488	2.88108	1.65464	1.26605	4.6498	68.55	-0.2678	0.031	0.2989	1002.6886	0.140672	-363.85145	-363.842883	-363.841939	-363.884917	30.705	
C	 0.4336985269	-0.7361631385	 1.5632183881	-0.254915
O	 0.0241271623	-0.3534203662	 0.2618736371	-0.274445
C	-1.2589017929	-0.7612174686	-0.098175908	 0.451591
C	-2.3940111375	-0.0320912267	 0.6173254482	-0.419346
C	-2.359397458	 1.4155055298	 0.4022983451	 0.276084
N	-2.3391601466	 2.5582373525	 0.2348725724	-0.306345
C	-1.4139556673	-1.1162222418	-1.5425880484	-0.305265
C	-1.4597228015	-2.2059825355	-0.4875254713	-0.335254
H	 1.4851696596	-0.4564645934	 1.6539537362	 0.137947
H	-0.1312373582	-0.2151266747	 2.3486119256	 0.114769
H	 0.3340792642	-1.8195041277	 1.7167366449	 0.110075
H	-3.3564848484	-0.4163962615	 0.2649302169	 0.152534
H	-2.3593140432	-0.2247574652	 1.6958887715	 0.150188
H	-2.3321894326	-0.840719331	-2.049298789	 0.122373
H	-0.5185318894	-1.0467849449	-2.1481527054	 0.135961
H	-0.5951727976	-2.8551538957	-0.4098256794	 0.127727
H	-2.4082869096	-2.686213321	-0.2721037545	 0.116322
