24
gdb 88872	3.37885	0.98843	0.84544	1.3049	89.6	-0.2188	0.0769	0.2957	1468.7257	0.21888	-368.397921	-368.388469	-368.387525	-368.433534	35.396	
C	 3.0139434385	-0.500495434	 0.2724165176	-0.312204
N	 1.6915828359	-1.1040192121	 0.3221540096	-0.090654
C	 1.4523796142	-2.1284317175	 1.3312235744	-0.264205
C	 0.7779539869	-0.8000462933	 1.4264552878	 0.00769
C	 1.0795160144	 0.1672923961	 2.5498304893	 0.030019
C	 0.804678157	 1.6461423899	 2.2156806038	-0.209864
C	 0.7808422139	 2.3366907185	 3.5907492907	-0.206407
C	 0.1986119248	 1.2778751625	 4.5709090392	-0.206404
C	 0.1924841736	-0.0655738581	 3.7938329916	-0.213771
H	 3.5244023539	-0.4207629515	 1.2452344357	 0.098799
H	 3.6470743942	-1.1054760914	-0.385053539	 0.121098
H	 2.9415295301	 0.5025934447	-0.1606226404	 0.121779
H	 0.9143830157	-3.0144669372	 1.002754362	 0.109503
H	 2.2471449031	-2.3247045533	 2.0520954529	 0.098605
H	-0.2605092015	-0.743992483	 1.0939551493	 0.081497
H	 2.1294344935	 0.069251827	 2.8523034094	 0.064837
H	 1.5406814206	 2.0775731038	 1.5309939562	 0.094987
H	-0.17640026	 1.7268012879	 1.728543094	 0.09466
H	 1.8020230137	 2.6010875835	 3.8869486947	 0.096959
H	 0.2054026699	 3.2664291434	 3.5842814832	 0.09472
H	 0.8075967715	 1.2106361496	 5.4770192387	 0.097819
H	-0.8109537359	 1.5446388667	 4.8961053706	 0.098998
H	-0.8255857341	-0.3073205277	 3.4644033342	 0.095903
H	 0.5360927661	-0.9101669746	 4.3973795945	 0.095637
