21
gdb 91391	2.74817	1.31124	1.30921	2.8552	81.78	-0.2302	-0.0057	0.2245	1129.9283	0.184568	-387.115605	-387.107588	-387.106644	-387.147873	32.117	
C	-0.8447715439	 1.0764638117	 0.055850734	-0.416313
C	 0.1692873583	-0.0666086269	-0.0098638623	 0.04263
C	 0.9565642536	-0.0775968988	-1.343891246	-0.217184
C	 2.2388173115	-0.9331036924	-1.2270971746	-0.137177
C	 3.1997825394	-0.2641307891	-0.1952027538	-0.235791
C	 2.3709351235	-0.9405470487	 0.9411328397	-0.137176
C	 1.112706832	-0.0863951328	 1.2186000681	-0.217184
C	 2.0350687723	-1.9989022473	-0.130188517	 0.416598
O	 1.8696565791	-3.1840808777	-0.1241772465	-0.325123
H	-0.3403999657	 2.0495908786	 0.0284606758	 0.11377
H	-1.5418030432	 1.0388586714	-0.7880259821	 0.114735
H	-1.434204696	 1.0327944934	 0.977835999	 0.114735
H	-0.3889424264	-1.012284502	 0.0209046367	 0.095357
H	 0.3095101908	-0.4650604179	-2.1381329699	 0.107457
H	 1.240278238	 0.9413778714	-1.6371034773	 0.099535
H	 2.6297952424	-1.2517308914	-2.1947016666	 0.083102
H	 4.2177281079	-0.6545216221	-0.2585703541	 0.109518
H	 3.2193184537	 0.8285006038	-0.1926434327	 0.098419
H	 2.8763722803	-1.2656248541	 1.8519036315	 0.083102
H	 1.4303465028	 0.9306681051	 1.48216085	 0.099535
H	 0.5667119696	-0.4795532639	 2.0828590982	 0.107457
