21
gdb 104590	2.23823	1.26076	1.05298	1.6336	78.92	-0.2601	0.0163	0.2764	1294.6378	0.179417	-424.259104	-424.248771	-424.247827	-424.295226	37.062	
C	 0.9705926651	-0.0136519125	-1.1821601793	-0.378944
C	-0.0414498571	-0.1386419042	-0.037815644	-0.256431
C	 0.5666801322	-0.6615242708	 1.2459772668	 0.479281
C	-0.2527145864	-1.3933497416	 2.2647941419	-0.312911
C	 0.7927349342	-2.1308367959	 1.4512499638	-0.321462
O	 1.6404357887	 0.1351437514	 1.752552176	-0.293684
C	 1.320786247	 1.3121501903	 2.3469866937	 0.413539
C	 2.574060384	 2.0080667834	 2.8240909002	-0.479056
O	 0.1989842333	 1.7301468719	 2.4693265811	-0.348777
H	 1.4156164832	-0.9837861893	-1.4271173625	 0.115749
H	 0.4901388244	 0.3754510727	-2.0846794159	 0.112618
H	 1.7852570796	 0.6660551204	-0.915882477	 0.121027
H	-0.5119607091	 0.8284772264	 0.1648187645	 0.128146
H	-0.8466452033	-0.8239830936	-0.3268582081	 0.097278
H	-0.0344778412	-1.2063978791	 3.3093301476	 0.122739
H	-1.3021269892	-1.5585588885	 2.0474981103	 0.119892
H	 0.4668925542	-2.8087852762	 0.6699295225	 0.114793
H	 1.7049630593	-2.4241792356	 1.9576200911	 0.121914
H	 3.122930207	 1.3631136441	 3.5160351065	 0.147598
H	 3.2355712262	 2.2102948284	 1.9768138956	 0.149679
H	 2.3051305182	 2.9418047585	 3.3163437954	 0.147012
