14
gdb 47788	2.20598	1.76277	1.20227	5.3546	62.11	-0.2924	-0.0299	0.2625	1009.7291	0.10203	-473.8574	-473.84975	-473.848805	-473.890363	27.209	
O	 0.0160227871	 0.026839172	 0.3719593149	-0.29995
C	-0.0233810303	 1.1686400813	 0.0215044525	 0.416158
O	-1.1916965382	 1.7664792632	-0.2832923441	-0.225486
C	-1.2323192972	 3.0095533535	-1.0136211048	 0.024762
O	-0.1761633623	 3.8585354736	-0.7393311803	-0.208492
C	 1.059305516	 3.2305569755	-1.0213517208	-0.118615
C	 1.2448465014	 2.0551879936	-0.0421454946	-0.274729
C	 1.5470422585	 2.5397102508	 1.3058842169	 0.290528
N	 1.7970609421	 2.9401254021	 2.3600909161	-0.305682
H	-1.2691723828	 2.7475285408	-2.0822631798	 0.116223
H	-2.1529302084	 3.5045245484	-0.7048573091	 0.151941
H	 1.0771330299	 2.8528409523	-2.0549766814	 0.118793
H	 1.8435179163	 3.9789208656	-0.902107639	 0.151594
H	 2.0602496178	 1.4008804572	-0.3647854765	 0.162955
