17
gdb 65595	3.55734	1.2357	1.21425	2.5814	73.22	-0.2564	0.0353	0.2917	1077.7227	0.134405	-421.777233	-421.768982	-421.768038	-421.80974	32.178	
O	-0.3133426025	 1.0514360392	 0.3703208128	-0.448855
C	 0.0554292317	-0.2512467004	-0.0787933187	 0.19229
C	 0.8263171801	-1.0452836018	 1.0327894447	-0.287207
C	-0.2358538831	-1.8392689215	 1.7615126233	 0.043491
O	-1.3620154524	-1.0614984031	 2.1785557803	-0.242176
C	-1.4771286124	-1.8335974662	 0.9784000857	 0.035542
C	-1.277458039	-1.0340043511	-0.2902011231	-0.266195
C	 0.8474943459	-0.1490568149	-1.3093824766	 0.275436
C	 1.5182649015	-0.039075696	-2.301347458	-0.45088
H	 0.4864432186	 1.5883223	 0.3952568034	 0.280903
H	 1.5561918391	-1.7289760391	 0.5868709121	 0.115248
H	 1.3649279244	-0.350425763	 1.6839741618	 0.113195
H	 0.045521831	-2.6535001093	 2.4253616767	 0.095157
H	-2.2021025136	-2.643442889	 1.0084141944	 0.095322
H	-2.0822712497	-0.3217297866	-0.4855315175	 0.135463
H	-1.1973832369	-1.7111379046	-1.1457828911	 0.11574
H	 2.1011790074	 0.0561511375	-3.1841607801	 0.197527
