16
gdb 73246	2.27669	1.94006	1.43937	3.6231	63.98	-0.2472	-0.0027	0.2446	940.561	0.125734	-475.034154	-475.026648	-475.025704	-475.066153	28.752	
O	 0.0665854525	 1.3942633401	 0.0189265079	-0.473117
C	 0.0069555587	 0.0026915196	-0.0411642528	 0.262254
C	 0.2358515931	-0.6972886828	-1.4069799721	-0.234968
N	-0.9019464916	-1.5999630563	-1.0948527746	-0.321992
C	-1.3544813098	-0.7236778528	 0.0158375512	-0.070697
C	-1.3716847722	-1.4394479405	 1.3650722819	-0.079035
O	 0.003261762	-1.4783993169	 1.814379618	-0.220749
C	 0.7780090256	-0.6161518616	 1.1263068042	 0.398712
O	 1.9032163811	-0.3362950783	 1.4382497875	-0.364564
H	 0.9333652083	 1.6196186712	 0.3847736174	 0.297474
H	 0.0499196823	 0.0211223906	-2.2147854377	 0.110563
H	 1.1911574493	-1.2035623451	-1.576865297	 0.120949
H	-1.5727351252	-1.7152551593	-1.8447534575	 0.228673
H	-2.2406167702	-0.1126533031	-0.1740529929	 0.09249
H	-1.955711379	-0.9045141669	 2.1214281551	 0.12103
H	-1.7236039849	-2.4692309079	 1.2818957716	 0.132976
