20
gdb 88601	2.76752	1.16753	0.98305	2.0559	75.21	-0.233	0.051	0.2839	1269.4072	0.169831	-440.229677	-440.220103	-440.219159	-440.264717	35.64	
C	-0.5028557175	 1.2580734782	 0.303196047	-0.393574
C	 0.0056314387	-0.1600558176	 0.1912409277	-0.012612
N	 1.3926548605	-0.3303854409	-0.2647949576	-0.344917
C	 1.0393705828	-0.7421478878	 1.1055417924	-0.05376
C	 1.6916795942	 0.0201307587	 2.2182388877	-0.108336
C	 0.9586652576	 0.2359306475	 3.5326072617	 0.020592
O	-0.2819740499	-0.3928634717	 3.7280792634	-0.428322
C	 2.1163041749	-0.7222206153	 3.4792544977	 0.074942
O	 1.8188843414	-2.077398262	 3.598459437	-0.426434
H	 0.2621276957	 1.9173821368	 0.7192471004	 0.13148
H	-0.78304853	 1.6465998921	-0.6815794476	 0.125255
H	-1.3921267987	 1.3122499012	 0.9434171292	 0.104384
H	-0.7261543045	-0.8690733571	-0.1967894581	 0.080994
H	 1.4769344996	-1.1444225897	-0.8671430269	 0.233022
H	 0.9618498365	-1.8099667514	 1.2967481753	 0.099094
H	 2.3303829174	 0.8344477524	 1.8929816653	 0.104796
H	 1.05982109	 1.189371555	 4.0461718154	 0.095328
H	-0.827969859	-0.23672519	 2.9502976137	 0.302246
H	 3.0575972114	-0.4515305564	 3.9481808135	 0.101894
H	 0.887689959	-2.1186131321	 3.8621433027	 0.293927
