17
gdb 75733	2.6037	1.59605	1.00184	1.3608	79.54	-0.2542	-0.0705	0.1837	1155.6873	0.136279	-418.078487	-418.069644	-418.0687	-418.112047	31.859	
C	-0.0108845957	 1.4401503377	 0.0366191038	-0.367228
N	 0.0032160961	-0.0034561834	 0.0260325515	-0.153268
C	-0.0193069859	-0.7723339719	-1.1466267019	 0.414108
O	-0.0522169632	-0.324267469	-2.2697464418	-0.367465
C	 0.0057402726	-2.1908104196	-0.6959236384	-0.358259
C	 0.0401086055	-2.2337415315	 0.6429613313	 0.316279
C	 0.0748166171	-3.3966209608	 1.5719198005	-0.484571
C	 0.0394467963	-0.8271479667	 1.1480553616	 0.297358
N	 0.0677133065	-0.5201853733	 2.383815896	-0.529201
H	 0.8887020893	 1.8446566519	 0.5142300513	 0.135603
H	-0.0403144441	 1.7682054882	-1.0037168058	 0.171204
H	-0.893177223	 1.8269501245	 0.5590657072	 0.135603
H	-0.0041346297	-3.013348081	-1.3964488691	 0.131076
H	 0.0699937996	-4.3422549005	 1.0258620787	 0.128606
H	 0.9662186802	-3.3536128639	 2.2062631827	 0.153538
H	-0.7839020336	-3.3703457155	 2.2507055365	 0.153542
H	 0.0615893219	 0.4915570447	 2.5247920658	 0.223074
