19
gdb 80720	3.59358	1.01723	0.93245	4.6497	80.37	-0.2249	0.0242	0.2491	1302.5893	0.159272	-382.029897	-382.021188	-382.020244	-382.063823	32.395	
C	 0.1792601313	 1.6458705483	-0.529992268	-0.428854
C	 0.2994513606	 0.154768282	-0.293324819	-0.000385
C	 1.561564281	-0.6613924904	-0.4373334806	-0.108037
C	 2.7630405727	 0.0465524793	 0.2015936606	-0.19286
N	 2.0605515054	 0.0315905854	 1.5121390732	-0.072679
C	 1.9695749623	 1.215789598	 2.3461869569	-0.295563
C	 3.2548782915	 1.496267047	 3.0013205207	 0.275285
N	 4.2705267789	 1.7333719569	 3.4977563567	-0.304705
C	 0.8635255043	-0.5534856408	 0.9180520639	-0.044966
H	 1.0996492104	 2.1867064196	-0.2986203822	 0.121974
H	-0.051046733	 1.8437173151	-1.5825872667	 0.123463
H	-0.625415897	 2.0812447065	 0.0723678781	 0.12101
H	-0.5579397224	-0.4018610579	-0.671773968	 0.093567
H	 1.6368970979	-1.5232912135	-1.0862428608	 0.099389
H	 3.6780615411	-0.5520100246	 0.2277827006	 0.123781
H	 3.0078643582	 1.0421499867	-0.1916744348	 0.104837
H	 1.656841393	 2.1345175145	 1.8221879609	 0.131949
H	 1.2209223231	 1.0272715925	 3.1247100694	 0.154878
H	 0.2983452307	-1.2958950044	 1.473337179	 0.097914
