14
gdb 123691	4.16665	1.68206	1.30508	3.4544	65.75	-0.258	-0.0099	0.248	902.874	0.105121	-432.867813	-432.861897	-432.860953	-432.898179	23.179	
C	-0.064605519	 1.4463991651	 0.0109281276	-0.206284
C	 1.4179759423	 1.8416316598	-0.0266660265	 0.046032
O	 2.1648367975	 1.4183275563	 1.108259556	-0.237701
C	 2.2552597369	 0.6210025502	-0.0929889667	-0.142124
C	 1.2925233523	-0.5031133777	-0.0757100477	 0.431568
N	 1.2666554938	-1.8215755696	-0.0643966976	-0.369065
C	-0.074602648	-2.0680390443	 0.0367891866	 0.018846
N	-0.8625146027	-0.9950782422	 0.0916035526	-0.2684
N	 0.0431057176	-0.0047289328	 0.0015257562	 0.050069
H	-0.5647789014	 1.8023826225	 0.9156800036	 0.155639
H	-0.6063105829	 1.81029132	-0.8677410485	 0.1409
H	 1.7073232447	 2.7907888386	-0.4668146771	 0.120754
H	 3.2290897022	 0.5602898012	-0.5628564297	 0.130066
H	-0.4846345932	-3.066259427	 0.0709836413	 0.1297
