18
gdb 81506	3.52673	1.28287	1.05995	5.238	77.23	-0.2631	0.024	0.2871	1158.0194	0.146091	-401.893831	-401.885219	-401.884275	-401.926651	32.704	
C	-0.1944871758	 1.5542718337	 0.7942142898	-0.437046
C	-0.1268201266	 0.0683059934	 0.4947303529	 0.01496
C	 1.0526841523	-0.4637583196	-0.3683876635	 0.008957
O	 1.9709293399	-0.1688044202	 0.7511920516	-0.293166
C	 0.7995346114	-0.8252520391	 1.3680685399	 0.008954
C	 0.8617030637	-1.9038197944	 0.2282863599	 0.159633
C	-0.3173580817	-2.8087028707	-0.1319893829	-0.491454
C	 2.0982126619	-2.6867321234	 0.2455585318	 0.251231
N	 3.0207641036	-3.3829920683	 0.2351003309	-0.338282
H	 0.7963909226	 1.9506592297	 1.0211815779	 0.145743
H	-0.6036140783	 2.1003521969	-0.0622550172	 0.121948
H	-0.8529705935	 1.744252141	 1.6482843052	 0.121948
H	-1.112345254	-0.3410608914	 0.2658305278	 0.077486
H	 1.3762213939	-0.189867517	-1.3729555219	 0.11088
H	 0.8194047847	-0.9849893195	 2.4464646046	 0.11088
H	-1.2659999756	-2.2721283815	-0.1584128041	 0.13285
H	-0.1536249323	-3.2635731736	-1.113090976	 0.147237
H	-0.4027327358	-3.619772036	 0.5968123132	 0.14724
