20
gdb 60328	3.21949	0.7845	0.74645	2.3604	78.05	-0.2503	-0.0753	0.175	1619.9014	0.168708	-440.333319	-440.322875	-440.32193	-440.37011	36.634	
C	 0.1299673284	 1.3953376544	-0.0786642628	-0.387704
C	-0.0948340804	-0.1220072905	-0.0909621978	 0.029762
C	 0.4169334134	-0.7761331777	 1.1971970452	-0.377799
C	-1.5865038725	-0.4206889869	-0.3318338647	-0.159126
N	-1.8776264486	-1.8325893486	-0.5059668258	-0.305792
C	-2.6244625106	-2.5611320289	 0.3506710751	 0.299819
O	-3.1623563902	-2.1724522059	 1.3732820917	-0.36296
C	-2.7650113807	-4.0248419001	-0.0804433811	 0.102541
O	-2.2572352641	-4.4815220027	-1.0725635742	-0.248767
H	 1.1898144623	 1.6322231973	 0.0546228682	 0.117647
H	-0.2029880097	 1.8609496374	-1.0124727874	 0.112512
H	-0.4208338412	 1.8659290216	 0.7442048966	 0.120807
H	 0.4671456365	-0.5422485285	-0.9383266859	 0.0718
H	 0.269809478	-1.859684244	 1.1826057356	 0.116668
H	 1.4859831258	-0.5846535247	 1.3328288071	 0.113145
H	-0.1102140736	-0.3791894242	 2.0720801662	 0.124766
H	-2.1846566418	-0.0861579997	 0.5209666756	 0.144496
H	-1.9316057133	 0.1271880473	-1.2178377875	 0.108299
H	-1.5121918361	-2.3345444815	-1.3038285853	 0.262423
H	-3.3842407315	-4.618600284	 0.6203786414	 0.117465
