14
gdb 527	15.53869	1.41482	1.33271	4.2405	54.99	-0.2476	0.023	0.2706	867.8577	0.119718	-266.616319	-266.609198	-266.608253	-266.64743	23.932	
C	-0.0166848552	 1.5370216277	 0.021098512	-0.39289
C	-0.0056426835	 0.0123920271	 0.0123097989	-0.102131
N	-1.3683665435	-0.5149161009	-0.027255818	-0.289278
C	-1.4066315082	-1.9704999769	 0.0113881979	-0.259143
C	-2.7862400182	-2.4652074377	 0.0225719786	 0.256269
N	-3.8722312183	-2.8568867483	 0.0554329315	-0.297791
H	 1.0039317229	 1.929779187	 0.0137885982	 0.122165
H	-0.5478045071	 1.9234697414	-0.8529376398	 0.135398
H	-0.5140496636	 1.9225865748	 0.9184003372	 0.118061
H	 0.5166593939	-0.3507262476	-0.8825992203	 0.110095
H	 0.5674507706	-0.3643174535	 0.8805577219	 0.083666
H	-1.9039352457	-0.1428135008	 0.7512587987	 0.229594
H	-0.9086002771	-2.3602353571	-0.8856856038	 0.156383
H	-0.879738967	-2.4166233852	 0.8760653968	 0.129602
