23
gdb 84009	2.05028	1.57178	1.32759	1.3266	85.06	-0.2435	0.0775	0.321	1151.5262	0.207019	-388.28687	-388.277824	-388.27688	-388.32006	35.367	
C	-0.3889323789	 1.4904354354	-0.07064052	-0.427401
C	-0.0603162035	 0.0153874966	 0.0088764094	-0.046839
C	 1.2897614581	-0.5883704328	-0.3495153846	-0.112817
C	 2.5184394645	 0.262735154	-0.6469688171	-0.107607
O	 3.358888936	 0.4491441382	 0.4834995002	-0.233685
C	 2.6653475357	 1.0799760486	 1.5389001386	-0.094019
C	 1.5532056659	 0.1840941663	 2.1185303702	-0.284406
C	 0.7831296899	-0.6360737183	 1.0821456145	 0.332786
C	 0.2997334528	-1.9717244221	 1.6183412966	-0.46316
H	 0.4403461844	 2.1370154506	 0.2201734645	 0.120575
H	-0.6757187887	 1.7686029042	-1.0913984076	 0.117659
H	-1.234109015	 1.7318014511	 0.5839495525	 0.117489
H	-0.8994200911	-0.6020904114	-0.3062505086	 0.076953
H	 1.25412387	-1.5249710956	-0.8985914428	 0.079868
H	 3.1405343269	-0.2349532921	-1.3951179493	 0.107324
H	 2.2370182448	 1.2468211263	-1.0576820583	 0.087387
H	 3.4082352543	 1.2943386524	 2.3130408653	 0.104865
H	 2.2645824738	 2.0486003177	 1.1990402416	 0.088909
H	 2.0284004035	-0.5280603659	 2.8028671371	 0.1034
H	 0.8728152498	 0.7915725281	 2.7294727573	 0.094654
H	-0.3793366776	-1.8342393169	 2.4690563445	 0.112256
H	-0.2390924854	-2.5393119038	 0.8529176629	 0.109959
H	 1.1398757197	-2.5868013906	 1.9618958031	 0.11585
