20
gdb 66613	2.8323	1.93771	1.84646	1.6791	80.09	-0.2219	0.0996	0.3215	893.8919	0.174618	-365.993738	-365.987204	-365.98626	-366.024127	28.287	
C	-0.0276981518	 1.4631176441	-0.0109498409	-0.50907
C	 0.0654116133	-0.0345048123	 0.0072029417	 0.354481
C	 0.6299141356	-0.851924222	-1.1021825391	-0.086671
C	 0.7640723472	-2.2160551117	-0.4109395501	-0.072482
C	 1.3390831133	-1.8557746341	 0.9702172101	-0.21866
C	 0.2147416062	-0.8546324595	 1.3275754868	-0.103298
C	-1.0267017136	-1.7747686249	 1.2516839672	-0.216206
C	-0.805847457	-2.1293883142	-0.216083244	 0.012314
N	-0.8548254633	-0.7857107099	-0.9160470754	-0.19131
H	 0.8917059295	 1.920702434	 0.3711624791	 0.114957
H	-0.1936648215	 1.8238832197	-1.0299975722	 0.129094
H	-0.8622456368	 1.8132607999	 0.606892126	 0.120755
H	 1.128468989	-0.4752015945	-1.9900851114	 0.081888
H	 1.1848387799	-3.0580520836	-0.9558492912	 0.068195
H	 1.3968941954	-2.6965690979	 1.6699321825	 0.09043
H	 2.3256526382	-1.3878803975	 0.8897472421	 0.094314
H	 0.3430483927	-0.2591873958	 2.2308962625	 0.060673
H	-0.9747435158	-2.6245726734	 1.9395087833	 0.093195
H	-1.9746050329	-1.2476659137	 1.3938533999	 0.105313
H	-1.4398793976	-2.8794311128	-0.685505187	 0.072088
