21
gdb 90593	2.50875	1.39242	1.06496	3.0085	82.9	-0.2322	-0.0149	0.2174	1218.3138	0.18177	-387.092368	-387.083308	-387.082364	-387.126363	34.245	
C	-0.9209010411	 1.1470134296	 0.2883121506	-0.414587
C	-0.039040835	-0.0581500533	-0.0035011145	 0.042083
C	 1.1139244167	 0.0722644953	-1.0445942061	-0.265368
C	 2.0766826231	-0.7110242885	-0.0847940406	-0.153783
C	 0.9845879001	-0.5649844848	 1.0481012538	-0.055651
C	 1.8742990306	 0.5043076015	 1.7646841074	-0.116887
C	 2.2723253977	 0.2254562864	 3.2131430909	-0.404783
C	 2.9833535835	 0.2025986407	 0.7295952982	 0.410287
O	 4.1473332263	 0.4845648459	 0.6809107537	-0.316479
H	-0.3319274453	 2.0335182472	 0.5460164474	 0.117611
H	-1.5285142483	 1.4039504822	-0.5865746677	 0.118394
H	-1.6052301653	 0.9462513555	 1.1202163406	 0.116786
H	-0.6763961348	-0.9024890038	-0.2893393408	 0.076813
H	 0.9409213062	-0.4133407335	-2.0066362495	 0.11242
H	 1.4317214484	 1.1011158182	-1.2388987118	 0.109418
H	 2.4816064428	-1.652119188	-0.4575723075	 0.08596
H	 0.6906587428	-1.3995150735	 1.6864563575	 0.068822
H	 1.4942448445	 1.5280348934	 1.6782211249	 0.094956
H	 2.634778525	-0.8009807893	 3.3337163302	 0.120196
H	 3.0754974342	 0.9001529931	 3.5232113551	 0.135494
H	 1.4223913578	 0.3652997656	 3.8884476182	 0.118296
