20
gdb 92042	2.80333	1.45982	1.04804	1.8555	81.61	-0.2128	0.0156	0.2284	1171.2629	0.171469	-403.126613	-403.11804	-403.117096	-403.15951	33.358	
C	 0.0153762472	 1.5424997203	 0.0140447254	-0.501424
C	 0.0341407382	 0.0414443306	-0.0274694555	 0.29741
C	 0.0409883552	-0.6625829893	-1.1625057663	-0.173248
C	-0.0008429206	-2.1446296652	-1.1574826516	-0.049548
C	 1.2367798091	-2.9758337823	-1.078398026	-0.24373
N	 0.3457799067	-2.8563252764	 0.0776249343	-0.110005
C	 0.8169874919	-2.0139283702	 1.1867215402	-0.160151
C	 0.0305053421	-0.7046478305	 1.3017767018	 0.002611
O	 0.6602011721	 0.0271214547	 2.3504010973	-0.422385
H	 0.8881014429	 1.9328507195	 0.5483130732	 0.139129
H	 0.0038483763	 1.9663093978	-0.9932574704	 0.122997
H	-0.8725892509	 1.9169219463	 0.5430758816	 0.114202
H	 0.0195776609	-0.1608209959	-2.1280268368	 0.083933
H	-0.8539284309	-2.5788065199	-1.6810937682	 0.095074
H	 1.2731982798	-3.9560935883	-1.5475576216	 0.111145
H	 2.1875535511	-2.4475585602	-1.0392665973	 0.110963
H	 0.719240567	-2.5793668267	 2.1191609812	 0.107683
H	 1.87489441	-1.7391866282	 1.0805015565	 0.103855
H	-1.0118984631	-0.9334686181	 1.5796388548	 0.084298
H	 0.0579257649	 0.7159200422	 2.6449757373	 0.287193
