22
gdb 104589	2.21441	1.24955	1.052	1.2076	83.31	-0.2542	0.0324	0.2866	1316.3296	0.191853	-404.353529	-404.343195	-404.342251	-404.389193	37.923	
C	-0.1595883909	 1.4708316451	-0.9409244422	-0.378263
C	-0.032034851	 0.1408451272	-0.1899645378	-0.251225
C	-1.3685204648	-0.4684663032	 0.1775423242	 0.486089
C	-2.1545669475	-1.2538594207	-0.8333066311	-0.323487
C	-1.5339591199	-1.9452867897	 0.3645446407	-0.306065
O	-2.2001778242	 0.3683206779	 0.9775283456	-0.294366
C	-1.9085910677	 0.5184850063	 2.291555544	 0.376926
C	-2.9283831836	 1.4302499866	 2.9280044351	-0.461059
N	-0.9132336791	-0.0518969148	 2.834471119	-0.509189
H	 0.8270416358	 1.879805323	-1.178730811	 0.108672
H	-0.7095526416	 1.347210255	-1.8800107169	 0.113249
H	-0.6946365305	 2.2119149147	-0.3400133012	 0.119932
H	 0.5044406658	-0.5864262595	-0.810668823	 0.092976
H	 0.5565022032	 0.270492475	 0.7228681558	 0.128175
H	-3.2302939005	-1.1212246573	-0.8319431544	 0.117912
H	-1.7150909958	-1.4056718462	-1.8132843041	 0.111189
H	-0.6642142952	-2.5759072268	 0.2171094329	 0.115812
H	-2.1981109736	-2.2739306598	 1.1544170191	 0.120171
H	-2.7261641037	 1.5621992593	 3.9920899181	 0.12472
H	-2.9174001633	 2.4081578129	 2.4369765955	 0.146355
H	-3.9341183142	 1.0181530157	 2.8010093141	 0.14436
H	-0.8706686577	 0.1838287093	 3.8235413376	 0.217116
