20
gdb 30724	2.96745	1.18071	0.89963	1.8172	84.35	-0.1653	0.0541	0.2194	1336.6074	0.171871	-399.358957	-399.348779	-399.347834	-399.394478	37.305	
C	 0.2553908656	 1.5445042433	-0.265588552	-0.361735
C	-0.1154273029	 0.1032040819	 0.1304206365	-0.30396
C	 0.6036318672	-0.398464092	 1.3415238882	 0.271725
C	 0.1276929325	-0.7784697697	 2.5848356583	 0.070796
N	-1.210662899	-0.8564712785	 3.0660486194	-0.627452
C	 1.2435113621	-1.1758967002	 3.3838375328	 0.240426
N	 1.1236236219	-1.5706654648	 4.7292716534	-0.616988
C	 2.3720863311	-1.0292621662	 2.6108595786	-0.186302
N	 1.9670848259	-0.5624395349	 1.3729240676	-0.317793
H	 1.3223375471	 1.6333853251	-0.4956336274	 0.10869
H	-0.3028988909	 1.8644679945	-1.1514390659	 0.109465
H	 0.0371602529	 2.2400497484	 0.550202651	 0.123101
H	-1.1918058923	 0.0545488991	 0.3300885006	 0.095716
H	 0.0588183413	-0.5606809609	-0.7288606456	 0.101598
H	-1.8792912491	-0.9428786103	 2.3096238836	 0.231441
H	-1.4691808868	-0.0368660698	 3.6083960804	 0.23757
H	 0.1968772717	-1.9544546775	 4.8859887041	 0.241813
H	 1.8175804041	-2.2568608438	 4.9984929982	 0.232251
H	 3.4109476861	-1.2163946917	 2.8272482344	 0.098939
H	 2.5796765516	-0.4127435919	 0.5922171238	 0.250699
