19
gdb 41929	3.38891	1.52436	1.09882	1.0302	87.5	-0.2157	-0.0186	0.1971	1103.6072	0.162267	-385.916295	-385.909116	-385.908172	-385.94777	28.995	
C	-0.0305503535	 1.5357742796	-0.0370679975	-0.254869
C	 1.4803157749	 1.8864584368	 0.0337169798	-0.252874
C	 2.1271020733	 0.6456927317	 0.6615388866	 0.044401
O	 3.4240984882	 0.3939597492	 0.1365662876	-0.264624
C	 3.9644594082	-0.8216063808	 0.6218779808	-0.129737
C	 3.0032327262	-1.9836888591	 0.5869082634	-0.094057
C	 1.6847584924	-1.8173886521	 0.4089908929	-0.171858
C	 1.1633303389	-0.4704331151	 0.3148546136	 0.354687
C	-0.0297856634	 0.0231942241	-0.0367464076	-0.221029
H	-0.5763736221	 1.9339936343	 0.8305978091	 0.107949
H	-0.5196124445	 1.9580298656	-0.9221588665	 0.106194
H	 1.8877965756	 1.991951768	-0.9766329211	 0.118889
H	 1.6882004879	 2.8084614283	 0.5811764331	 0.097562
H	 2.20179416	 0.7427587659	 1.7606711966	 0.064866
H	 4.834399105	-1.0375922158	-0.0096698789	 0.118525
H	 4.3495732264	-0.693979028	 1.6522361235	 0.098049
H	 3.4379051773	-2.9729741924	 0.6998915015	 0.097679
H	 1.0134502065	-2.6678558623	 0.3287830799	 0.090484
H	-0.9030892475	-0.5674177479	-0.2937821469	 0.089762
