20
gdb 32946	3.91437	0.87905	0.73887	1.7759	85.85	-0.1892	0.0415	0.2307	1579.166	0.170744	-403.182266	-403.172609	-403.171665	-403.217606	34.526	
C	-0.4123067627	 1.2380739265	-0.9747203333	-0.221694
O	-0.3236582479	-0.1670078076	-0.9638298097	-0.242966
C	 0.8267020534	-0.6388257626	-0.2759045741	-0.191628
C	 0.8826917212	-2.1214902689	-0.3933438	 0.30093
C	 1.2342600477	-3.1028038186	 0.5039680733	-0.242513
C	 1.1680478693	-4.3497040744	-0.1810407464	-0.218232
C	 0.7684182242	-4.1011968722	-1.4762751122	 0.301761
C	 0.4982741396	-5.027979991	-2.6152860046	-0.504594
N	 0.6183274629	-2.7391846226	-1.5933362398	-0.326794
H	-0.4958681317	 1.6496371875	 0.0433554794	 0.106992
H	 0.463305267	 1.7003723231	-1.4583690981	 0.103151
H	-1.3101223318	 1.5054506681	-1.5372438903	 0.126967
H	 1.7235868641	-0.1606024428	-0.7123680265	 0.092127
H	 0.799338175	-0.3536835807	 0.7874969396	 0.102533
H	 1.5172373826	-2.9414368282	 1.5334043524	 0.086048
H	 1.3836387313	-5.3252559609	 0.2285615454	 0.085559
H	 1.1302057171	-4.8117826028	-3.4859557519	 0.124002
H	 0.6976902245	-6.0578999979	-2.3104456701	 0.135502
H	-0.5454983673	-4.9797591561	-2.951471621	 0.125279
H	 0.2333973814	-2.2538583582	-2.3861156321	 0.25757
