14
gdb 130997	7.5262	0.74651	0.68203	1.8432	64.37	-0.2474	-0.0373	0.2101	1511.3971	0.100877	-469.997999	-469.989841	-469.988897	-470.032462	27.681	
O	-0.163805098	 0.1942315998	 0.55143959	-0.233391
C	 0.0768882047	 1.1130054928	-0.1839418384	 0.139122
C	 1.3842635333	 1.8815936079	-0.1455176594	-0.159164
O	 1.3134101518	 2.8873742658	-1.1488419544	-0.273766
C	 2.3888692576	 3.6792127112	-1.2694482602	 0.398502
N	 3.4831235805	 3.5737102114	-0.521400289	-0.299902
N	 4.2526592661	 4.5544922318	-1.0028973587	-0.082135
N	 3.7478951531	 5.2739652344	-1.9896347565	-0.182579
C	 2.5454161424	 4.7363114421	-2.1873029137	-0.143491
H	-0.6404017431	 1.4742486159	-0.9529515225	 0.101533
H	 1.5307223339	 2.3231232285	 0.8485787378	 0.152541
H	 2.2254659156	 1.2001539695	-0.3261737757	 0.152546
H	 5.1700211141	 4.7323640006	-0.6297057377	 0.296027
H	 1.870079428	 5.1058304583	-2.9401195614	 0.134157
