19
gdb 80612	2.16114	1.93152	1.48917	0.8432	69.75	-0.2366	0.0735	0.3101	975.3371	0.158971	-460.137728	-460.129516	-460.128572	-460.16976	33.132	
C	-0.084338138	 1.5233257806	 0.0318901086	-0.47035
C	 0.0291326479	 0.0050411666	 0.0168065151	 0.355262
O	-1.2399106607	-0.6077913189	-0.1846086064	-0.482146
C	 0.992586602	-0.5293835413	-1.0702558564	 0.057403
C	 1.1432890623	-2.0223493628	-0.7204666407	-0.24603
C	 1.8832876255	-1.3625475186	 0.4561177652	 0.021612
O	 2.3026833153	-0.2821123268	-0.4551577204	-0.323722
C	 0.8042130707	-0.6107653756	 1.2565561344	 0.105359
O	 1.3622690363	 0.3237005508	 2.1518057908	-0.439479
H	 0.899842378	 1.9948100472	-0.0244941707	 0.126136
H	-0.6752770302	 1.8518587469	-0.8285857655	 0.11984
H	-0.5670559473	 1.8740394557	 0.9497848188	 0.122392
H	-1.8581025016	-0.2220166065	 0.4447359681	 0.281066
H	 0.8942720602	-0.1425095656	-2.0844275891	 0.083596
H	 0.2426599311	-2.6049548104	-0.5286176312	 0.121477
H	 1.8311909636	-2.5331670243	-1.3946837212	 0.111846
H	 2.7015173465	-1.8250697714	 1.0083191334	 0.085204
H	 0.145677494	-1.2610159626	 1.8381981575	 0.084649
H	 2.0580271144	 0.7804755368	 1.6616477698	 0.285884
