17
gdb 71878	3.04096	1.93578	1.47285	2.4061	72.06	-0.2364	-0.0245	0.2118	893.5256	0.13716	-417.926127	-417.919286	-417.918342	-417.956756	28.677	
O	 0.073684074	 1.3943892453	 0.0638015913	-0.490829
C	 0.0229285147	-0.0044103324	 0.0180620899	 0.380477
C	 0.1383959054	-0.6528717621	-1.4388954472	-0.291049
C	-1.2932469458	-1.295795461	-1.3190172766	-0.019305
N	-1.2861699001	-2.7282428514	-0.7584232799	-0.34996
C	-0.8527890911	-2.0372043139	 0.4547515418	 0.185839
N	 0.2903662769	-2.1511744595	 0.994427369	-0.188111
C	 0.7729263153	-0.7527633551	 1.1597578795	-0.233334
C	-1.3710244986	-0.6502507853	 0.0832872794	-0.139598
H	 0.9885921739	 1.6689936427	-0.0633189455	 0.281591
H	 0.1313422555	 0.1507964036	-2.1785361363	 0.114518
H	 0.9622583409	-1.3397336415	-1.6382182689	 0.123377
H	-2.0041886307	-1.145927408	-2.1316781984	 0.088502
H	-2.267706421	-3.0071663104	-0.7036296508	 0.229269
H	 1.8627688482	-0.751674514	 1.044071905	 0.106822
H	 0.5356913344	-0.3095945162	 2.1365593417	 0.113018
H	-2.2496324617	-0.2096499109	 0.5511994859	 0.088772
