21
gdb 68239	2.67901	1.82079	1.59687	1.2772	80.71	-0.249	0.0797	0.3287	955.4799	0.186772	-387.037655	-387.030955	-387.030011	-387.068108	30.05	
O	-0.1480482581	 1.3915179806	 0.0047900643	-0.49593
C	 0.0520516971	 0.0055941187	 0.0013491536	 0.425145
C	 0.9875981143	-0.6906794672	-1.037091403	-0.281772
C	 0.9574874916	-1.8501468331	 0.0092553871	-0.033661
C	 0.9462618365	-0.7018984202	 1.0682717851	-0.281732
C	-0.4626291488	-2.5588504817	-0.0224546422	-0.019165
C	-1.3599682749	-1.8452168419	-1.0819298899	-0.219055
C	-1.3717620912	-0.6939924752	-0.030342642	-0.049698
C	-1.401080608	-1.8564220174	 1.0084981839	-0.219063
H	 0.7162629137	 1.8161224144	 0.022841288	 0.272475
H	 0.6662457947	-0.8497466276	-2.0637696543	 0.095617
H	 1.9724964761	-0.2130168787	-1.052182658	 0.077337
H	 1.7801484964	-2.5645205998	 0.0215902464	 0.065009
H	 1.9296977564	-0.2246210802	 1.1271112458	 0.077344
H	 0.58487741	-0.8718137243	 2.07978457	 0.095614
H	-0.3820333089	-3.647584496	-0.0267086843	 0.05599
H	-0.9993984543	-1.6725196668	-2.0936168974	 0.092125
H	-2.3416562209	-2.3210805006	-1.1452972383	 0.09018
H	-2.1561224586	 0.063492876	-0.0417063828	 0.070925
H	-2.3844046474	-2.3327225475	 1.028108419	 0.090184
H	-1.0806104557	-1.6946571214	 2.0353719088	 0.09213
