17
gdb 12328	2.81033	2.2894	1.44407	2.9337	71.61	-0.2508	0.0121	0.2629	892.3745	0.143177	-363.881658	-363.873936	-363.872992	-363.914574	28.267	
C	-0.1025881568	 1.524530402	 0.0413697769	-0.387033
C	 0.06558357	-0.01246797	-0.0025845969	-0.100948
C	 0.7808883305	-0.4482617394	-1.2484196818	-0.069422
C	 1.9895241286	-0.9946858624	-1.22385369	-0.08792
C	 2.7330657947	-1.241638795	 0.0462695751	-0.112971
O	 2.0736674341	-0.8017744741	 1.2352054838	-0.259857
C	 0.7441019864	-0.4963357064	 1.2661685433	 0.367593
N	 0.0991073427	-0.5216934818	 2.3557781393	-0.506115
H	 0.8722355621	 2.0199882538	 0.084464235	 0.121192
H	-0.6216726921	 1.8760347265	-0.8561381345	 0.112746
H	-0.6820750138	 1.8111512301	 0.9212058636	 0.143943
H	-0.9398523216	-0.4480910679	 0.0106663252	 0.11556
H	 0.2702125536	-0.2740064921	-2.1918816119	 0.098318
H	 2.4998017567	-1.2960131427	-2.1343100703	 0.10088
H	 2.9450297765	-2.3155649801	 0.161397713	 0.122588
H	 3.7059959602	-0.7328449364	 0.0283325674	 0.125888
H	 0.7054291081	-0.8402011241	 3.1144468429	 0.215559
