19
gdb 74322	5.15491	0.84927	0.76877	2.4747	85.24	-0.2295	0.0159	0.2454	1500.3336	0.157148	-385.866427	-385.857019	-385.856075	-385.901146	34.349	
C	 0.0609986822	 1.4947574448	 0.0635144499	-0.4932
C	 0.02230931	 0.0048099146	-0.0313425966	 0.298355
C	-0.139302931	-0.7691465222	-1.1014450884	-0.222861
C	-0.1054723274	-2.222329177	-0.7139483762	 0.095274
C	 1.0301645036	-3.0141315131	-1.4051573602	-0.358717
C	 1.0465183139	-4.4265735139	-1.0499053025	 0.311423
C	 1.0418384555	-5.5929103958	-0.760646725	-0.444412
O	 0.0873274222	-2.2156249815	 0.7002852122	-0.271001
C	 0.1617462383	-0.8800188112	 1.1819994177	-0.150328
H	 1.0110096711	 1.8388137003	 0.4912365405	 0.132197
H	-0.0612560928	 1.9645387036	-0.9155284454	 0.130128
H	-0.7316253934	 1.8696154821	 0.7231405036	 0.13243
H	-0.2758919885	-0.4352949617	-2.1230370782	 0.098781
H	-1.0557739007	-2.7313157991	-0.9414758251	 0.091362
H	 0.9124031391	-2.9093821502	-2.491995952	 0.123057
H	 1.9853876714	-2.544061207	-1.1426147514	 0.129438
H	 1.0447218711	-6.6216017879	-0.4985906835	 0.19225
H	 1.1168143777	-0.7194304793	 1.7078663742	 0.103096
H	-0.6411038125	-0.6992298353	 1.9157773462	 0.102726
