12
gdb 33271	15.28294	0.44712	0.44681	5.3785	100.38	-0.2701	-0.0869	0.1832	2251.2195	0.076743	-398.284391	-398.276068	-398.275124	-398.318526	28.373	
N	 0.0694196791	-6.2797255869	-0.0694341825	-0.323085
C	 0.0617202869	-5.1163202952	-0.0497381471	 0.078321
C	 0.0518820707	-3.7576226876	-0.0257522628	 0.43892
C	 0.041793656	-2.5418349344	-0.003219928	-0.182642
C	 0.0305482049	-1.1923936743	 0.0225428846	-0.200425
C	 0.0245989551	 0.0201206009	 0.0554517072	 0.317575
C	-0.0104144921	 1.4531336438	 0.0655318657	-0.187466
C	 0.5186778307	 2.2267147235	 1.2115873695	-0.155125
O	 1.2485313992	 2.138120168	-0.002187955	-0.198344
H	-0.8001842266	 1.9026241163	-0.5350932715	 0.138189
H	 0.0750201199	 3.1965917735	 1.4303983494	 0.135217
H	 0.9435114963	 1.6914072025	 2.0579109007	 0.138865
