20
gdb 70471	3.20799	1.02145	0.91086	3.475	82.64	-0.2537	0.0265	0.2801	1364.7699	0.170188	-403.122654	-403.113539	-403.112595	-403.157394	33.605	
C	-0.0334132997	 1.5212147448	 0.0298915846	-0.506734
C	 0.0407291342	 0.0213103682	 0.0108390096	 0.341983
C	-0.8491559799	-0.8611141348	 0.8476610667	-0.319292
C	 0.6377754198	-0.9841556589	 1.0145866588	-0.098046
C	 1.1942595644	-1.8446513951	-0.124116377	-0.266623
C	 0.6327808696	-0.7919101813	-1.1330330215	 0.065226
O	-0.3212587716	-1.2368717029	-2.0931833274	-0.19288
C	 0.1243642844	-1.5251439525	-3.3290388889	 0.124616
N	-0.6512442334	-2.0402183846	-4.1820560722	-0.444474
H	 0.9208774891	 1.9764933356	-0.2599595332	 0.113534
H	-0.8011768586	 1.8858030214	-0.6627612421	 0.13209
H	-0.2893698295	 1.8902291542	 1.028221085	 0.120953
H	-1.3693937788	-0.3368700655	 1.6431817116	 0.1114
H	-1.4206371726	-1.6662548945	 0.3939325005	 0.125178
H	 1.1397196328	-0.7761583366	 1.9512266497	 0.089709
H	 2.2839619766	-1.912910695	-0.1553285156	 0.103943
H	 0.768279926	-2.8486013857	-0.2127562817	 0.111811
H	 1.4388601171	-0.2506235571	-1.643002972	 0.081005
H	 1.1790017013	-1.2561114978	-3.4878690676	 0.080124
H	-0.1587410513	-2.1663159518	-5.0639123973	 0.226477
