15
gdb 29047	2.82643	1.64818	1.04109	3.4493	83.96	-0.2253	-0.0649	0.1603	1069.6611	0.115395	-416.861144	-416.853821	-416.852876	-416.892928	28.27	
N	 0.0309410612	 1.3465955834	 0.0077961247	-0.516346
C	-0.0288411616	 0.01050678	 0.0012901273	 0.23242
C	-1.2311209794	-0.6766987035	 0.0046675226	-0.180448
C	-1.4822779795	-2.0595616292	-0.0009541098	 0.032776
N	-0.7002614102	-3.1162056393	-0.0105044477	-0.305577
C	 0.6469096018	-3.0484226428	-0.0175298553	 0.01133
C	 1.5399655039	-2.004913616	-0.0175371083	-0.162629
C	 1.3500861846	-0.5838917706	-0.009794044	 0.32526
O	 2.2964464044	 0.2092665663	-0.011076541	-0.40838
H	 0.9693518525	 1.7312924991	 0.0037175104	 0.285306
H	-0.7858332196	 1.9306871138	 0.0148073202	 0.269176
H	-2.1279113628	-0.0591198515	 0.0128323755	 0.085253
H	-2.5458325169	-2.3085324168	 0.0035960597	 0.109732
H	 1.1085236078	-4.0367087801	-0.0247273312	 0.111649
H	 2.5923049638	-2.2763617928	-0.0246549131	 0.110477
