18
gdb 99040	5.29012	0.77952	0.68629	1.3818	75.21	-0.2201	0.0187	0.2388	1633.7571	0.146758	-472.45936	-472.449137	-472.448193	-472.49501	35.584	
C	-1.2066628563	-2.2965655754	-1.9033935882	-0.235495
O	-0.0228849331	-2.6737893429	-1.1916921731	-0.260745
C	-0.141136472	-2.6696811726	 0.1522772949	 0.558193
O	-1.1619981626	-2.3731332041	 0.7436003231	-0.428438
N	 1.0453682227	-3.0416876208	 0.7131789435	-0.435069
C	 1.3555805365	-3.2112534128	 2.077860701	 0.463486
N	 0.4120407314	-2.7567997422	 2.9575315777	-0.568635
N	 2.49867064	-3.7224964668	 2.3262041623	-0.328966
C	 2.8676545303	-3.872748665	 3.7187604597	-0.333503
H	-1.5140877746	-1.2830856076	-1.634637087	 0.144133
H	-0.9399325033	-2.3460922094	-2.9589958442	 0.137274
H	-2.0264906809	-2.9851532569	-1.6846799849	 0.143051
H	 1.8000745784	-3.3053042426	 0.0980568483	 0.271175
H	-0.5070031047	-2.5631260053	 2.5793193878	 0.281959
H	 0.4704858973	-3.1051506304	 3.8988346618	 0.257554
H	 2.8479615692	-2.9192181701	 4.2708933114	 0.110221
H	 2.2138748267	-4.5777724094	 4.2608357213	 0.100785
H	 3.884130065	-4.2695055657	 3.7820682647	 0.123021
