22
gdb 61447	2.47248	1.06511	0.91268	3.1478	83.16	-0.2321	-0.0023	0.2298	1412.5271	0.191508	-404.338555	-404.328164	-404.32722	-404.37512	37.506	
C	-0.2934785934	 1.5735166109	 0.0188715667	-0.429544
C	-0.1736769759	 0.0433869866	 0.0356745181	 0.080628
C	 0.4012849156	-0.4838043908	-1.2918988065	-0.291743
C	 0.2286209046	-2.0012947872	-1.3843923417	 0.409098
C	 1.4873461867	-2.8408616382	-1.3889487392	-0.479702
O	-0.8778432291	-2.4875999692	-1.4368520366	-0.316222
N	 0.6206508748	-0.5612963742	 1.1198962639	-0.078781
C	 1.6552194487	 0.1957476698	 1.816972694	-0.227638
C	 0.3862750453	-0.1823961242	 2.5019531604	-0.22408
H	 0.6569736676	 2.0558619541	-0.2319956342	 0.11942
H	-1.0244410496	 1.8737582624	-0.7377547266	 0.124292
H	-0.6373720969	 1.9720659685	 0.9783798825	 0.119019
H	-1.1778255729	-0.3841787087	 0.1379168909	 0.109678
H	-0.1488057153	-0.0366907226	-2.1272091481	 0.118228
H	 1.4533811008	-0.1919255301	-1.3807445277	 0.094751
H	 2.0267786508	-2.6633130591	-0.4518177746	 0.152553
H	 1.2391132247	-3.8987551997	-1.4838297982	 0.134776
H	 2.1508866546	-2.5362015088	-2.206607836	 0.129429
H	 2.5759482197	-0.3446532928	 2.0200998021	 0.114234
H	 1.7931973999	 1.2484584274	 1.5833229131	 0.112094
H	-0.3164364245	 0.6209163898	 2.7161423157	 0.110911
H	 0.361548244	-1.002277574	 3.2150539121	 0.118601
