19
gdb 24604	4.7996	0.99919	0.89712	3.2599	81.68	-0.2145	0.0361	0.2506	1321.8884	0.162458	-382.100513	-382.092695	-382.091751	-382.134143	29.831	
C	-0.2361018518	 1.4118074805	 0.0918164616	-0.213857
C	 1.2218564531	 1.4379478675	-0.44107639	-0.233588
C	 1.5363733066	 0.2169101993	 0.4670886844	-0.065276
C	-0.0025498942	-0.0556686293	 0.5369805365	-0.2118
C	 2.454425621	-0.8555461865	-0.0044329111	 0.277201
C	 2.9908542837	-1.0545115155	-1.2528991588	-0.197063
N	 3.7509911089	-2.2011744897	-1.1529824094	-0.232339
C	 3.6454799525	-2.6410134434	 0.1314705648	 0.008413
N	 2.8770182967	-1.8581352802	 0.8499815856	-0.31072
H	-0.3627676224	 2.0791383299	 0.9494170663	 0.10097
H	-1.041066475	 1.6072130937	-0.6204039274	 0.092462
H	 1.255364789	 1.1664875752	-1.5011624582	 0.09461
H	 1.813456857	 2.3451876702	-0.2959009119	 0.094784
H	 1.8744925916	 0.5599542126	 1.4505447548	 0.084235
H	-0.4143303446	-0.3811112479	 1.4945772316	 0.099843
H	-0.3052129704	-0.7664444932	-0.2376492379	 0.097093
H	 2.9177257871	-0.5039871516	-2.1753648451	 0.124479
H	 4.2913574436	-2.6223880997	-1.8893643202	 0.264301
H	 4.1513710575	-3.529535502	 0.4796734546	 0.126254
