18
gdb 89102	5.26744	0.61843	0.58791	4.8099	74.39	-0.2674	0.0135	0.2809	1829.1178	0.145756	-439.056937	-439.047245	-439.046301	-439.093051	33.799	
O	-0.0774760239	 1.437940304	 0.4075444307	-0.417972
C	-0.0226413887	 0.0599222693	 0.1679699743	 0.091952
C	-0.7049847685	-0.8904331327	 1.1147737434	-0.313013
C	-1.3021007182	-0.609604011	-0.2512808585	-0.041945
C	-2.5683881615	 0.1916908392	-0.3531250747	-0.073747
O	-3.6647592211	-0.6557638848	-0.0185156138	-0.240719
C	-4.8953877323	 0.0081847261	-0.1266593358	-0.180673
C	-5.9765257682	-0.910424436	 0.2448077227	 0.264283
N	-6.84919989	-1.609516913	 0.5319469448	-0.294532
H	 0.4872952552	 1.6300610467	 1.1632017125	 0.291928
H	 0.8908360688	-0.2774497462	-0.3209722342	 0.093275
H	-0.2621034787	-1.8620764498	 1.301739733	 0.118953
H	-1.2158021264	-0.4501045128	 1.9646895681	 0.120804
H	-1.2103828508	-1.3965725376	-0.9932643556	 0.100324
H	-2.5307856472	 1.0564799853	 0.3233175357	 0.10949
H	-2.6995446353	 0.5792220485	-1.3767654773	 0.096971
H	-4.944230178	 0.8901685033	 0.5341687798	 0.137106
H	-5.0796396052	 0.3672988613	-1.153411565	 0.137516
