18
gdb 63717	3.48018	1.1573	1.03251	5.1853	78.01	-0.2645	0.0201	0.2846	1192.2652	0.146636	-401.93993	-401.931285	-401.930341	-401.972786	33.445	
C	-0.124511482	 1.5721272961	 0.0463614755	-0.453877
C	 0.0540298542	 0.0607884211	 0.0145027966	 0.410064
O	-1.1905963943	-0.5951995475	-0.1570637436	-0.474472
C	 1.1576214928	-0.5359645	-0.938154996	-0.351818
C	 1.7811452806	-1.2603284684	 0.2683424883	 0.23081
C	 2.1813493571	-0.2505262532	 1.3201854381	-0.334076
C	 0.7379256955	-0.6204470958	 1.2088736643	-0.111775
C	 2.2858942349	-2.5931842836	 0.2588272885	 0.176508
N	 2.6954528642	-3.6759858268	 0.2362400511	-0.352968
H	 0.8165397291	 2.0919339231	 0.2453498185	 0.120649
H	-0.4989883778	 1.9324900338	-0.9198740323	 0.113934
H	-0.8481785784	 1.8497627087	 0.8183445702	 0.132846
H	-1.6054401593	-0.2468595262	-0.9540239891	 0.279506
H	 0.7052837683	-1.2209246424	-1.6558279698	 0.12834
H	 1.8213543601	 0.1638455042	-1.4550177421	 0.101964
H	 2.6977891286	-0.6608812868	 2.1808481796	 0.14305
H	 2.544429945	 0.7230498964	 1.0021330969	 0.121079
H	 0.1916781013	-1.0980409926	 2.0122295753	 0.120235
