15
gdb 133221	4.78978	1.00969	0.89081	2.4608	70.21	-0.2475	-0.0817	0.1659	1260.2932	0.112241	-458.11003	-458.102215	-458.101271	-458.143425	28.248	
C	-0.0223279722	 1.5307333686	 0.1028949848	-0.381381
C	-0.0373583624	 0.0063840509	-0.0997247212	-0.250312
C	-1.4294797827	-0.5581421061	-0.0398938505	 0.388061
N	-2.0545295046	-0.5559585818	 1.1572047297	-0.247013
C	-3.2775472481	-1.0440279582	 1.1721965757	-0.12046
C	-3.8366940408	-1.517193168	-0.01899693	 0.334288
F	-5.0637442331	-2.0104097195	-0.019376323	-0.051784
N	-3.1999188521	-1.5005857587	-1.1618808061	-0.225002
N	-1.9587316858	-1.0082555345	-1.1792953089	-0.231402
H	 1.0043586285	 1.9067806993	 0.0916424551	 0.122505
H	-0.5783009184	 2.0370543468	-0.6921626864	 0.128403
H	-0.4754339486	 1.7973885425	 1.0618703222	 0.13567
H	 0.3952527423	-0.2575306699	-1.0672059108	 0.129116
H	 0.5607028599	-0.4696765534	 0.6849632015	 0.122684
H	-3.8293174619	-1.071643108	 2.108473768	 0.146626
