16
gdb 12717	2.97581	2.30361	1.76376	3.6887	66.8	-0.2331	0.0215	0.2546	805.7572	0.130819	-379.89095	-379.883679	-379.882734	-379.922129	27.714	
C	-0.2537352095	 1.4737566442	-0.0259735141	-0.484187
C	 0.0859751443	 0.0140679211	 0.008029656	 0.365672
O	-1.0705850023	-0.8605693661	 0.109900525	-0.315312
C	-0.4765853893	-1.6264685688	 1.1795995748	-0.09564
C	 0.8291149396	-0.8144613843	 1.1102839708	-0.088334
N	 1.7834009123	-1.222535251	 0.0774847528	-0.340046
C	 1.1067798877	-0.5835756442	-0.9721105793	 0.352327
N	 1.2211871757	-0.5037306709	-2.2264132672	-0.552867
H	 0.6554718888	 2.0816339323	-0.0047257641	 0.130736
H	-0.7874077076	 1.6970900533	-0.9551866827	 0.153592
H	-0.8920759237	 1.7478989781	 0.818302272	 0.123231
H	-1.0373801623	-1.5005074199	 2.1143135515	 0.108017
H	-0.39476567	-2.6942118881	 0.9437682288	 0.10148
H	 1.2665011467	-0.4188681431	 2.0267547923	 0.095068
H	 2.2509296965	-2.118406215	 0.0236237164	 0.236594
H	 1.9773156231	-1.0915673976	-2.582877123	 0.209667
