17
gdb 38334	4.04329	1.46116	1.22862	2.1326	72.97	-0.236	0.0102	0.2462	1000.77	0.139081	-417.944658	-417.937987	-417.937043	-417.975837	26.616	
C	-0.0095018923	 1.6398508037	 0.0802424121	-0.217738
C	 1.4718725326	 1.1933239508	-0.0021649207	-0.089985
N	 1.1468028278	 0.2082164593	 1.1074563812	-0.330966
C	 0.0155754365	 0.0907847095	 0.1005294804	-0.089984
C	 1.050228042	 0.1329689055	-1.0699334863	 0.366097
C	 0.6589856748	 0.5147967512	-2.5187675768	-0.19657
O	 1.3425546735	-0.4644776424	-3.3386025828	-0.223782
C	 2.0031767704	-1.255545209	-2.4634255701	 0.099911
N	 1.9197622509	-1.0294748025	-1.2192878223	-0.32222
H	-0.2921325975	 2.1012449134	 1.0258680809	 0.114168
H	-0.4488801559	 2.139608153	-0.7850743772	 0.095369
H	 2.3742148742	 1.8077977138	 0.0120739295	 0.08247
H	 1.7562797864	-0.6070818533	 0.9972595046	 0.230493
H	-0.8139156093	-0.6058873191	 0.2368932647	 0.08247
H	-0.413479862	 0.4349980871	-2.7182569695	 0.12773
H	 1.0044136682	 1.5084466582	-2.8182437124	 0.12773
H	 2.5748110797	-2.0535070692	-2.9240952651	 0.144805
