17
gdb 27787	2.03089	1.75591	0.94787	4.8261	84.06	-0.1893	-0.0204	0.1689	1207.6145	0.136699	-418.058281	-418.049849	-418.048905	-418.090995	32.602	
C	 0.0819762176	 1.476727927	-0.0126380381	-0.471057
C	-0.0534392574	-0.0107846175	 0.0076911387	 0.402889
C	-1.2101199034	-0.6983223221	-0.0246045179	-0.311322
C	-1.1736929988	-2.1430674417	 0.0030161363	 0.359575
N	-2.3772176166	-2.8178005534	 0.0262772023	-0.582284
C	 0.0347931935	-2.7692671908	 0.0584145159	-0.274006
C	 1.2667768466	-2.0326608325	 0.1002007892	 0.374751
N	 2.427183763	-2.5519067614	 0.1570409613	-0.558184
O	 1.1471716722	-0.6267614702	 0.0666047285	-0.280722
H	 0.6780516566	 1.794513917	-0.8749452518	 0.146373
H	-0.8970264993	 1.9562999757	-0.061751052	 0.131712
H	 0.6038827417	 1.8245200056	 0.8854280123	 0.147577
H	-2.1532328851	-0.1680122431	-0.0573087423	 0.095303
H	-3.1649833574	-2.3467861744	-0.3906608827	 0.253348
H	-2.3419762338	-3.8025432966	-0.1890647425	 0.256995
H	 0.125141423	-3.8479692463	 0.077693191	 0.098623
H	 3.1421254676	-1.8254529453	 0.171309432	 0.210429
