19
gdb 109452	2.39138	1.48723	1.02092	2.0818	79.2	-0.2257	0.027	0.2526	1204.2601	0.158286	-419.165609	-419.156549	-419.155605	-419.19938	33.85	
C	 0.2608293423	 1.3711090779	-0.001218654	-0.246079
O	-0.2336664073	 0.1067729207	-0.4180750608	-0.245909
C	 0.6134840983	-0.5425243084	-1.3154319819	-0.053351
C	 1.8425541864	-1.2687350621	-0.724250105	 0.378838
N	 2.7900871554	-0.8671385849	 0.0109222565	-0.556927
N	 1.437318955	-2.4769613869	-1.2930437887	-0.395327
C	 0.1355369007	-1.9521514253	-1.6998965199	 0.375953
C	-1.205955888	-2.5369855295	-1.4147634437	-0.315067
C	-0.7006111133	-2.4075783331	-2.847067572	-0.338649
H	 1.224337512	 1.2727211062	 0.5107527021	 0.151799
H	 0.3809504378	 2.0515048708	-0.8585725888	 0.10292
H	-0.4810928108	 1.7887483137	 0.6829321913	 0.123725
H	 0.8622504582	 0.0996882003	-2.1740411174	 0.086549
H	 3.4073804876	-1.6330948472	 0.2895150357	 0.207986
H	 1.615211702	-3.398267135	-0.9158184293	 0.237735
H	-1.2517762034	-3.5330224048	-0.9854749455	 0.111498
H	-1.97921093	-1.8592416907	-1.0703048332	 0.136573
H	-1.1495687761	-1.6565303457	-3.4891918749	 0.122026
H	-0.4049634069	-3.3167484959	-3.3607767607	 0.115706
