15
gdb 2247	4.6898	2.67486	2.17646	2.3383	55.94	-0.2266	0.0755	0.302	641.0189	0.125807	-345.633122	-345.62692	-345.625976	-345.662734	24.294	
O	 0.0562321434	 1.4109564253	-0.2212882446	-0.467313
C	 0.0088579577	 0.0415903541	 0.0319503602	 0.366687
C	-0.374580819	-0.9280382702	-1.0732029169	-0.39012
C	-1.3022691258	-0.6691613474	 0.1031548976	 0.080389
O	-1.3229632566	-1.5776310441	 1.1688312318	-0.255309
C	 0.0281391052	-1.7778543155	 1.5982588889	-0.089338
C	 0.8202265943	-0.5165255551	 1.1950676571	-0.301415
H	 0.8420452793	 1.5899451246	-0.7493255993	 0.282846
H	-0.6763489376	-0.4754469347	-2.0118922594	 0.11661
H	 0.1352972463	-1.8814075644	-1.1655218587	 0.113951
H	-2.2535185429	-0.1755280381	-0.052865725	 0.112282
H	 0.0136607733	-1.9559518725	 2.6766240286	 0.114388
H	 0.4445432066	-2.6724482161	 1.1144685598	 0.099602
H	 1.8606830858	-0.7513135433	 0.9485155211	 0.098639
H	 0.81623366	 0.2342698172	 1.9917666989	 0.118102
