20
gdb 66833	2.64441	1.93999	1.45944	1.5191	82.37	-0.212	0.0902	0.3021	986.9855	0.171303	-365.931905	-365.924133	-365.923189	-365.963608	31.293	
C	-0.0909192141	 1.5261459948	-0.0314134266	-0.531238
C	 0.0009307106	 0.0360657043	 0.0260050142	 0.279847
C	-0.0315720804	-1.0498147843	-1.0484342259	-0.18684
C	 1.0881998439	-1.8954101318	-0.4004412286	-0.073586
C	 0.3531212566	-2.9679564603	 0.4244821815	-0.189086
N	-0.3113723886	-1.8395331925	 1.1791443701	-0.188372
C	 0.8931572697	-0.9435367611	 0.828519458	-0.070205
C	-1.0318985798	-1.0551020868	 0.1206983807	 0.320664
C	-2.5211359517	-1.043560273	 0.0027389458	-0.515934
H	 0.8404571751	 1.9739219679	-0.3970599361	 0.121747
H	-0.8940429296	 1.840536018	-0.7069083021	 0.122154
H	-0.3023455602	 1.9521620358	 0.9562043595	 0.125269
H	-0.3300999272	-0.9771445466	-2.0864362755	 0.081808
H	 2.0250260387	-2.0520638134	-0.9352974992	 0.064372
H	-0.3289297395	-3.6593660709	-0.0810462308	 0.096899
H	 1.0096918631	-3.519572348	 1.1045627144	 0.102165
H	 1.6247135809	-0.7237930908	 1.6050335449	 0.072753
H	-2.988168574	-0.7055265999	 0.9335114125	 0.128011
H	-2.842121949	-0.3768213625	-0.8045311035	 0.117485
H	-2.9056419543	-2.045524139	-0.2220589134	 0.122087
