20
gdb 82394	2.46732	1.67839	1.13458	1.4028	80.58	-0.2258	0.0157	0.2415	1115.4059	0.171833	-403.130478	-403.122011	-403.121066	-403.163244	33.149	
C	 0.7497419649	 1.2023607832	 0.029548826	-0.465698
C	 0.1007750372	-0.1529761075	-0.0435898432	 0.257889
C	-0.0651128008	-0.8193228121	-1.1885184842	-0.160526
C	-0.7474337575	-2.1556375668	-1.2959852652	-0.206648
N	-0.8546533034	-2.9329528508	-0.0567807221	-0.107029
C	 0.3756199141	-3.1281933278	 0.7049074043	-0.264368
C	-0.6930448296	-2.2141497414	 1.2074275857	-0.027424
C	-0.4327133853	-0.7170369485	 1.2580338686	 0.017619
O	 0.3951007031	-0.3982212814	 2.3796171305	-0.426746
H	 1.621423487	 1.1943394391	 0.690912276	 0.127757
H	 1.061168236	 1.5438074216	-0.9610083674	 0.114801
H	 0.0590261878	 1.9446119195	 0.4494183329	 0.126695
H	 0.2826413163	-0.3792693058	-2.1218403421	 0.082373
H	-1.7682641047	-2.0185696841	-1.6816205876	 0.119461
H	-0.2333797751	-2.7836233424	-2.0349595095	 0.112764
H	 0.5026364282	-4.1156028139	 1.1402733883	 0.115917
H	 1.2887078759	-2.6725908504	 0.3251037379	 0.108982
H	-1.3360224942	-2.5735388617	 2.008140572	 0.095533
H	-1.3789797463	-0.2064837732	 1.4866578247	 0.100505
H	 1.1819034363	-0.9515102356	 2.3141315144	 0.278143
