21
gdb 59174	2.53474	1.39128	1.10421	3.3043	78.26	-0.237	0.0608	0.2978	1187.5769	0.182238	-424.193919	-424.184865	-424.18392	-424.227369	35.363	
C	-0.0903260838	 1.6187184628	 0.0559370524	-0.38902
C	 0.0142925771	 0.0974799703	 0.0150933144	 0.11453
O	 0.7050978926	-0.3102040358	 1.1853129038	-0.448211
C	-1.3714595819	-0.5410931278	-0.0672475741	-0.00575
C	-1.9691291188	-1.2283867395	-1.2627959656	-0.082974
C	-0.9199440012	-2.0442788145	-2.0314616506	-0.288435
C	-0.6553295058	-2.8709295039	-0.725490871	 0.108342
O	 0.6409157739	-2.8686879886	-0.1410893736	-0.428193
C	-1.6646511334	-2.0191864733	 0.0246907972	-0.10553
H	 0.9060495521	 2.0668604908	 0.091872889	 0.117277
H	-0.6158358266	 1.9971372409	-0.8263674498	 0.108137
H	-0.6374984901	 1.9351907703	 0.9502567524	 0.118802
H	 0.5964055578	-0.1844555046	-0.8738727652	 0.055341
H	 0.8676756548	-1.2566893517	 1.0716929227	 0.289849
H	-2.1181835143	 0.0185925825	 0.4948055782	 0.085544
H	-2.9394466348	-0.956851425	-1.6601270065	 0.08812
H	-1.3524774481	-2.6612200432	-2.8224939894	 0.102824
H	-0.0678745032	-1.4949685786	-2.441959099	 0.103977
H	-1.0089381133	-3.9027700606	-0.8420060662	 0.079857
H	 1.2438357572	-3.361672146	-0.7066635882	 0.28886
H	-2.3495317	-2.4039203245	 0.7704405193	 0.086653
