17
gdb 93185	2.89031	1.38262	0.96893	7.1307	70.94	-0.2421	-0.0331	0.209	1182.3105	0.13766	-455.215328	-455.206944	-455.206	-455.248482	31.34	
C	-0.0289020103	 1.5640843158	 0.0135914206	-0.412066
C	 0.0121857891	 0.0386386701	-0.0227321353	 0.051705
C	 0.6949817509	-0.4865519664	-1.2832654032	-0.155427
N	 0.8380376984	-1.9297992903	-1.1941105956	-0.342779
C	 1.2179785111	-2.5947872044	-0.0589754768	 0.319744
O	 1.4923990773	-3.7721243898	-0.0368653156	-0.334683
C	 1.2536537296	-1.7422442104	 1.2362352669	 0.314521
O	 1.7157775058	-2.1882634815	 2.2607261657	-0.334288
N	 0.7517949542	-0.4719832231	 1.1271971986	-0.342403
H	 0.981717134	 1.9826687001	-0.0180745088	 0.135249
H	-0.5962258486	 1.9522101628	-0.8371335998	 0.130903
H	-0.5180956952	 1.9170280784	 0.9269120936	 0.129135
H	-1.0193410014	-0.3469899215	-0.0111736701	 0.098487
H	 0.0834826056	-0.2473091244	-2.1577012237	 0.122349
H	 1.6684146557	 0.0124904468	-1.4052562801	 0.117086
H	 0.917299182	-2.4712827738	-2.0433646441	 0.253656
H	 0.6826013319	 0.0242693416	 2.0057882478	 0.248809
