18
gdb 125652	3.12472	1.53436	1.05589	2.8651	79.03	-0.19	0.0303	0.2203	1127.5879	0.15127	-398.144416	-398.136477	-398.135533	-398.176954	30.038	
C	 0.0152624941	 1.5003674355	-0.0603940362	-0.499009
C	-0.007636151	 0.0097785347	 0.0481697152	 0.232669
N	-0.0291358104	-0.7580076292	-1.0504889312	-0.295517
N	-0.0381655181	-2.0408205745	-0.6075085616	-0.339488
C	-0.0296209696	-2.1049284976	 0.7428797502	 0.352786
C	-0.0031077999	-0.8132048423	 1.1961910519	 0.155175
N	-0.0230536081	-0.7134198976	 2.6145905228	-0.419424
C	-0.2509862291	-2.1202516206	 3.0648682744	-0.159224
C	 0.0273518082	-3.0970638075	 1.8611074208	-0.365253
H	 0.962854686	 1.9200406512	 0.2980692048	 0.120858
H	-0.1150570229	 1.7991256235	-1.1026607725	 0.138298
H	-0.7832447082	 1.9524623443	 0.537818461	 0.130262
H	-0.1051212363	-2.7812789683	-1.2834482647	 0.266978
H	 0.8559706206	-0.35733738	 2.9777487022	 0.225914
H	 0.3583770949	-2.3477848614	 3.942724444	 0.105855
H	-1.3022678703	-2.2167926042	 3.3565819662	 0.120357
H	-0.7288750355	-3.8867209468	 1.8197037327	 0.116114
H	 1.0078794555	-3.5885557492	 1.9291537001	 0.112649
