16
gdb 43580	3.55715	1.24125	1.01645	3.0717	74.94	-0.2395	-0.024	0.2155	1138.3813	0.124387	-400.714047	-400.706256	-400.705312	-400.746478	30.04	
O	 0.0614396642	-0.0155025658	-0.0266674349	-0.321236
C	 0.0116437781	 1.1869371793	-0.0582777731	 0.442987
C	-1.2566218677	 2.046708345	-0.1371899625	-0.35043
C	-0.8218922505	 3.3291577395	-0.9034199552	-0.182344
C	-1.5745777206	 4.528832512	-0.5646135395	 0.328789
C	-2.1937444089	 5.5212153162	-0.2888016376	-0.450475
C	 0.683583574	 3.4366111518	-0.6134809238	-0.044019
N	 0.9938259606	 3.2826408425	 0.8037286932	-0.321696
C	 1.1857872284	 2.12296117	-0.1215890986	-0.170188
H	-2.0696017849	 1.5044551309	-0.620389296	 0.13338
H	-1.5669561908	 2.3011658112	 0.8802050716	 0.158024
H	-0.9282541118	 3.1396005711	-1.9798914079	 0.115284
H	-2.7405481192	 6.3967814279	-0.0397859897	 0.198009
H	 1.2939682253	 4.0840293866	-1.2337462463	 0.107535
H	 1.9080336039	 3.6842336898	 0.9991458356	 0.245906
H	 2.1796233598	 1.7406475222	-0.3199624052	 0.110475
