15
gdb 64835	2.98495	1.2709	1.20929	4.6001	73.76	-0.272	-0.0505	0.2216	1084.1993	0.110792	-420.639182	-420.631002	-420.630058	-420.67182	30.923	
C	-0.0061095308	 1.5442343924	-0.0269333421	-0.414027
C	 0.0021357994	 0.0082155696	 0.018814503	 0.12581
O	 0.7690173326	-0.4793901834	-1.1032027216	-0.239602
C	 1.8420408807	-1.2217582677	-0.6658873449	 0.407734
O	 2.6269882578	-1.7214869909	-1.4178788466	-0.337165
C	 1.7977272571	-1.2387853077	 0.818020547	-0.228335
C	 0.7441118444	-0.5396834588	 1.2245429998	-0.092254
C	-1.358056496	-0.5326414386	-0.046708654	 0.348306
C	-2.4813268323	-0.9565470317	-0.0708785031	-0.480288
H	 1.0196551231	 1.9182887221	 0.0164367157	 0.1351
H	-0.4735588737	 1.8801919329	-0.9546865519	 0.150401
H	-0.5729105395	 1.9442929843	 0.8177404097	 0.133122
H	 2.5397877505	-1.7568474157	 1.4072038712	 0.141369
H	 0.4043066233	-0.3508051238	 2.2339991626	 0.139283
H	-3.4716455267	-1.339831963	-0.1061918447	 0.210548
