18
gdb 75751	2.30045	1.57552	0.98025	3.4397	75.92	-0.2139	-0.0081	0.2058	1198.0659	0.146291	-439.139123	-439.129673	-439.128728	-439.173119	34.548	
C	 0.0943028625	 1.5294276356	 0.0911394199	-0.502472
C	-0.0457180465	 0.0459541714	 0.0457399671	 0.254148
C	-1.1288666704	-0.7372258174	-0.0769509764	 0.174492
C	-2.5659192947	-0.3591165633	-0.2145982363	-0.504361
C	-0.682288204	-2.1765613994	 0.0230990098	-0.061361
O	-1.1300051901	-2.9973821337	-1.0355274469	-0.434537
C	 0.8540734139	-2.0717580779	 0.0263162366	 0.385152
O	 1.6297910621	-2.989475698	-0.1287705001	-0.382436
N	 1.1368478774	-0.7386881219	 0.180163369	-0.381471
H	 0.7602019714	 1.8877232587	-0.7042630456	 0.134711
H	-0.8723258239	 2.019335596	-0.0325531059	 0.143753
H	 0.5247110354	 1.8570735607	 1.0453050662	 0.139278
H	-2.7027538648	 0.7213317993	-0.3077501237	 0.118689
H	-3.0023916141	-0.8345950164	-1.1003993791	 0.146874
H	-3.155803032	-0.6980311177	 0.6473011715	 0.125686
H	-0.9934663971	-2.5979265767	 0.9980804529	 0.094266
H	-0.4708910403	-3.7002798188	-1.119939401	 0.293895
H	 2.0684626852	-0.3736416705	 0.053319102	 0.255695
