20
gdb 107191	3.56787	1.22826	1.12789	0.4538	78.73	-0.2124	0.0619	0.2744	1178.404	0.169495	-403.033376	-403.02452	-403.023576	-403.066935	33.667	
C	-0.0590576027	 1.3710366858	-0.1020290034	-0.254999
O	 0.0454161422	-0.0425744975	-0.0107326608	-0.278445
C	 0.6667445164	-0.5058450156	 1.1246031175	 0.430721
C	 0.1438735652	-1.6937088784	 1.8473905127	-0.356089
C	 0.3443508921	-0.3811157384	 2.6005406327	-0.114643
N	 1.7458361244	 0.0882532469	 2.9395325454	-0.158122
C	 2.8030254536	-0.892969692	 2.5817728122	 0.028739
C	 2.8546660825	-2.377086188	 2.9261830658	-0.439674
C	 2.1239637089	-0.1402335986	 1.493528355	-0.15745
H	 0.9216661371	 1.8522757095	-0.2098530241	 0.117074
H	-0.6539994684	 1.583291412	-0.9928483857	 0.129775
H	-0.5598817745	 1.7899647779	 0.7804890456	 0.118015
H	-0.9122268307	-1.8471386878	 1.6389207513	 0.121423
H	 0.6927318267	-2.6092609334	 2.0066430453	 0.113736
H	-0.4654037499	 0.087335915	 3.1442474562	 0.105573
H	 3.7527425756	-0.4077933303	 2.810902725	 0.10181
H	 2.0704905768	-2.6610349415	 3.6312020216	 0.142628
H	 2.7770610771	-3.01800863	 2.0437463382	 0.136497
H	 3.8130036548	-2.5968006669	 3.4047732778	 0.119156
H	 2.6515308227	 0.6352643915	 0.9439797316	 0.094276
