20
gdb 59513	3.61858	0.75451	0.68158	4.2253	77.22	-0.2407	-0.0188	0.2218	1664.1324	0.168256	-440.263796	-440.253483	-440.252539	-440.300478	36.353	
C	-0.1341718456	 1.4916259951	-0.3061952048	-0.411613
C	 0.0435689447	 0.0506586158	 0.1716059448	 0.143624
O	 0.8383502704	-0.0269595006	 1.351650789	-0.431585
C	-1.2951184005	-0.632547077	 0.3765006054	-0.045164
N	-1.9289620928	-1.2350241033	-0.8060816508	-0.34014
C	-1.503382853	-2.103354267	 0.3096049346	-0.034781
C	-0.4094969242	-3.1145906386	 0.0234505455	-0.279134
C	-0.9524752753	-4.2914678481	-0.7608428831	 0.15584
O	-0.8436847794	-5.4458339266	-0.4351143608	-0.240638
H	 0.8391797775	 1.9682120812	-0.4488156019	 0.126413
H	-0.6840581491	 1.5185801438	-1.2516867849	 0.132629
H	-0.6989643279	 2.0788905543	 0.4297080079	 0.102847
H	 0.6065357481	-0.5024530378	-0.5858898582	 0.09609
H	 0.4269369918	 0.5286854859	 2.0228345907	 0.277251
H	-1.947922362	-0.1025950767	 1.073514519	 0.075978
H	-2.9349594681	-1.0946372183	-0.7950241197	 0.236147
H	-2.2922032889	-2.487974135	 0.9551281569	 0.095791
H	 0.3709421479	-2.6470284895	-0.5875070289	 0.12692
H	 0.0452833291	-3.478375324	 0.9488440446	 0.127758
H	-1.4853767427	-4.0027759935	-1.6947735652	 0.085766
