17
gdb 11876	4.71302	1.52509	1.3106	3.7689	68.55	-0.2369	0.0374	0.2743	948.1923	0.144044	-363.898201	-363.891058	-363.890114	-363.929692	27.576	
O	-0.1172129461	 0.1350230556	-0.7061710964	-0.378971
C	-0.093468237	 1.2547198431	-0.2464742113	 0.414008
C	-1.2125405395	 1.9733511598	 0.5186143059	-0.426624
C	-0.7358883357	 3.4152391837	 0.6118132816	 0.366507
C	-1.530251943	 4.5331407097	-0.0144724003	-0.302034
C	-1.3816771533	 4.4475683777	 1.4875685719	-0.3193
C	 0.785244906	 3.3655464428	 0.4319394392	-0.23208
N	 0.9666747221	 2.1225793089	-0.2967420193	-0.308883
H	-2.1680389002	 1.8481690412	 0.0049650773	 0.130556
H	-1.3032188064	 1.4965998836	 1.5028977419	 0.128289
H	-0.992169092	 5.3181076425	-0.5361733515	 0.113707
H	-2.4950461325	 4.2899533502	-0.4475416956	 0.117896
H	-2.2457120373	 4.1522789894	 2.0737066123	 0.117106
H	-0.7420951495	 5.175236205	 1.9779095835	 0.112914
H	 1.1631809341	 4.2241910026	-0.1342446154	 0.111386
H	 1.3073637756	 3.3469022065	 1.401012119	 0.105432
H	 1.8593580546	 1.8053981077	-0.6400394828	 0.25009
