17
gdb 46302	3.04826	1.40234	1.26465	3.1365	75.84	-0.2196	-0.0278	0.1918	1056.6043	0.13543	-421.833469	-421.825636	-421.824692	-421.866254	29.53	
O	 0.2820379022	 0.0570128834	 0.1505583654	-0.290234
C	 0.0630906116	 1.2292894896	 0.1044406536	 0.343421
C	-1.1958676869	 2.1033666693	 0.2519250783	-0.346708
C	-0.2584422974	 3.3013113586	 0.5743303097	-0.296696
C	 0.9864823987	 2.4988323833	 0.057538986	 0.314909
O	 2.1218535947	 2.4785177042	 0.890275536	-0.309574
C	 3.3124864526	 2.6835695528	 0.1258470719	-0.136691
C	 2.8280278239	 2.9474220053	-1.2703043013	-0.102563
C	 1.5041070167	 2.8453450246	-1.309158032	-0.1377
H	-1.7305670831	 2.2053565215	-0.6982639166	 0.130505
H	-1.906633623	 1.7853562892	 1.0174000128	 0.134926
H	-0.4631998751	 4.2440719751	 0.0653725302	 0.10833
H	-0.1638233637	 3.4777812253	 1.6474549331	 0.127976
H	 3.8798767973	 3.5251185729	 0.5499420055	 0.111687
H	 3.9529265706	 1.7908860997	 0.1861067114	 0.12012
H	 3.4871687179	 3.1809693197	-2.0963334214	 0.114244
H	 0.860895983	 2.9718909957	-2.1702056726	 0.114048
