15
gdb 48826	2.65187	1.60702	1.14205	2.2674	66.71	-0.254	-0.04	0.214	1031.2991	0.111441	-457.773974	-457.766191	-457.765247	-457.806588	28.527	
O	-1.0009384181	 1.3925752348	 0.0467327704	-0.273764
C	 0.1124843163	 0.9706860206	 0.2558373983	 0.070956
C	 1.3440308026	 1.750254057	-0.005219208	 0.073251
C	 1.2415584701	 3.2923271446	-0.0827578863	-0.348093
C	 1.5738752852	 2.5497122246	-1.3067044306	 0.092022
O	 2.9120282373	 2.4536198888	-1.7004775821	-0.254127
C	 3.683431087	 1.8564261043	-0.6645863814	-0.198008
C	 2.693866495	 1.2071295511	 0.3170817679	 0.305054
O	 2.9658249708	 0.3688447077	 1.1388446194	-0.310111
H	 0.2889643077	-0.047790085	 0.6555102057	 0.107747
H	 0.2181987849	 3.6354027797	 0.0271211585	 0.164183
H	 2.0054339168	 3.875788322	 0.4185902058	 0.139351
H	 0.8752124052	 2.4724990049	-2.1312792944	 0.141685
H	 4.3481738259	 1.1034295237	-1.0972294079	 0.152615
H	 4.3021764534	 2.5986570312	-0.1404837854	 0.137239
