15
gdb 79670	2.85563	1.51819	1.22107	5.3694	70.72	-0.2419	0.0021	0.244	1009.2048	0.113403	-416.727878	-416.720727	-416.719783	-416.759372	28.319	
O	 0.1042296766	 1.4215814819	-0.0590426058	-0.4116
C	-0.038361992	 0.0627617062	 0.0485343841	 0.097615
C	-0.4296616999	-0.7434706192	 1.2524614703	-0.174316
C	-1.6187812482	-0.1771681169	 2.0628267636	-0.044438
N	-2.0401310148	 1.1244371554	 1.4657024973	-0.371307
C	-2.4871683627	-0.1635443892	 0.8739472645	-0.109647
C	-1.3524834169	-0.7327764923	-0.0245613941	 0.107799
C	-1.5781689567	-1.7815693392	-0.9538342562	 0.197531
N	-1.7683033944	-2.6361682747	-1.71360155	-0.349218
H	-0.6178332618	 1.7996691843	 0.4759803597	 0.307725
H	 0.729696242	-0.4436026391	-0.5325827632	 0.134584
H	 0.1501042178	-1.5881059842	 1.6030022333	 0.121707
H	-1.8410878402	-0.4150953598	 3.093507403	 0.120599
H	-2.8078030137	 1.4929580246	 2.0246725354	 0.248538
H	-3.5355224851	-0.3994866578	 0.7548704281	 0.124429
