17
gdb 49853	3.3586	1.1679	0.95398	2.2582	73.33	-0.2449	-0.0344	0.2105	1197.3768	0.135966	-421.854405	-421.846531	-421.845587	-421.887471	29.595	
O	-0.1266614096	-0.0185530142	 0.0386295081	-0.244457
C	-0.0014777901	 1.1770038078	-0.0088444105	 0.161695
C	 1.3208734549	 1.912952533	 0.0279979505	-0.082542
C	 1.5304946905	 2.8383104942	-1.1933418834	-0.382371
C	 2.3398167737	 4.0382445601	-0.6613471058	 0.423699
O	 3.0716600305	 4.7303166573	-1.3205216913	-0.321694
C	 2.1075525239	 4.137274423	 0.8125842798	-0.148359
C	 0.6460657818	 4.1114645389	 1.2402671789	-0.293676
C	 1.4398370419	 2.8432497231	 1.2473086774	-0.060386
H	-0.8916528245	 1.8457700593	-0.083223856	 0.071961
H	 2.1127162679	 1.1599293586	 0.0729598356	 0.106511
H	 2.0598874501	 2.356977564	-2.0164089307	 0.146179
H	 0.5782994156	 3.2060622605	-1.5981232779	 0.132933
H	 2.8290685635	 4.6725994126	 1.4156123119	 0.115352
H	 0.4308476837	 4.5686156813	 2.1990411316	 0.134806
H	-0.1203357256	 4.2774335462	 0.4913604768	 0.128006
H	 1.6862044019	 2.3912195041	 2.200510565	 0.112342
