13
gdb 129123	2.90249	1.68344	1.0729	3.9311	71.3	-0.2523	-0.1061	0.1462	1018.8058	0.090611	-448.938032	-448.930849	-448.929905	-448.970419	26.001	
N	-0.049919839	 1.3023775033	 0.2247229033	-0.531971
C	 0.0359215631	 0.0481070809	 0.037763797	 0.458631
N	 1.237802044	-0.6427629359	-0.1621547251	-0.283075
C	 1.2098394499	-1.9286191641	-0.1056575966	 0.000144
C	-0.0118392766	-2.6731854392	 0.0919424433	-0.016695
N	-1.1600914972	-2.0827724046	 0.1162767351	-0.113904
N	-1.1557413863	-0.7388120706	 0.0242339848	-0.126923
C	-2.4362163426	-0.1116635162	-0.0725627678	 0.184043
O	-3.4670138271	-0.7140423202	-0.0125313361	-0.253597
H	 0.8815791798	 1.7090526001	 0.1524400033	 0.238941
H	 2.1482394635	-2.4656094743	-0.2424576971	 0.140528
H	-0.0165051735	-3.7544588657	 0.1703249023	 0.145598
H	-2.318732948	 0.9696582363	-0.2110780364	 0.158281
