21
gdb 88074	3.20523	1.29858	1.22259	1.3674	83.	-0.2245	0.0846	0.3091	1149.3508	0.183296	-387.072858	-387.064651	-387.063707	-387.105312	32.744	
C	-0.0496285768	 1.5384222601	 0.0905131441	-0.402125
C	-0.0146361972	 0.0257986038	 0.0704398785	-0.078403
C	 1.2870716019	-0.7134111948	-0.2191967446	-0.373394
C	 0.6653871837	-0.7477376647	 1.1562312204	 0.463151
O	 1.2671089959	 0.0042339626	 2.1911769511	-0.299082
C	 1.8159000944	-0.913130561	 3.1390451515	-0.105636
C	 0.9174600069	-2.1364187404	 3.0873792084	-0.052037
C	-0.565820878	-1.86992752	 3.0892000678	-0.298945
C	 0.1688874963	-2.0208218394	 1.7782272846	-0.119202
H	 0.8555855547	 1.942969014	 0.5491518552	 0.130952
H	-0.1327434222	 1.9415416984	-0.9247463292	 0.110623
H	-0.9044200297	 1.9055840144	 0.668768803	 0.115589
H	-0.9119701127	-0.4427318646	-0.3276093534	 0.083603
H	 1.2631239313	-1.6050106985	-0.8382304223	 0.103184
H	 2.1790651058	-0.1049327703	-0.328148923	 0.114111
H	 2.8476173892	-1.1896618308	 2.8701771155	 0.093205
H	 1.8337032333	-0.4017253533	 4.1071035813	 0.106004
H	 1.301024511	-3.083226602	 3.448222932	 0.088592
H	-1.2153258485	-2.6844576477	 3.3898688508	 0.108679
H	-0.9133206095	-0.8808417464	 3.3707417013	 0.122578
H	-0.0181866298	-2.8776045994	 1.1426324668	 0.088552
