21
gdb 30651	3.65786	0.93737	0.90163	3.3273	85.01	-0.2132	0.0384	0.2516	1423.858	0.183614	-383.323309	-383.313859	-383.312915	-383.359097	34.739	
C	-0.0458337221	 1.5185259539	 0.1359632695	-0.390619
C	 0.088158531	-0.0049178815	 0.0532604834	-0.170525
C	 0.7342648282	-0.5207628656	-1.2548975957	-0.073927
C	 2.1877053085	-0.0434628505	-1.4298580831	-0.401328
C	 0.6247313347	-2.0148707389	-1.3541393972	 0.340335
N	-0.149754239	-2.6761151333	-2.189005207	-0.306871
C	 0.0532961112	-4.0108558404	-1.9174042579	-0.091403
C	 0.9612114328	-4.1637316215	-0.9064130389	-0.114407
N	 1.3203736735	-2.8798891061	-0.5525203211	-0.277719
H	 0.9270509956	 2.019204655	 0.1525201768	 0.11728
H	-0.608087698	 1.9103163004	-0.718995471	 0.120071
H	-0.5794821545	 1.8112475202	 1.0455005388	 0.114735
H	 0.6691617309	-0.3695652568	 0.9121367764	 0.080567
H	-0.9047100578	-0.4599411442	 0.1425738896	 0.11309
H	 0.1414746797	-0.1431219039	-2.0951665332	 0.105057
H	 2.2433825418	 1.047221144	-1.4788563519	 0.122293
H	 2.8212010022	-0.3645142614	-0.5934780473	 0.098904
H	 2.621029366	-0.4440673929	-2.3505142946	 0.128873
H	-0.4646639164	-4.7815686623	-2.4677590377	 0.102746
H	 1.3788778377	-5.0285339158	-0.4183769212	 0.122116
H	 1.9788101541	-2.6285239984	 0.1650436033	 0.260733
