15
gdb 1547	6.26668	1.34602	1.18019	5.659	58.7	-0.2603	0.0201	0.2804	982.5598	0.125038	-341.829025	-341.82112	-341.820176	-341.861375	27.429	
C	-0.2035341346	 1.399391227	-0.0913185013	-0.321082
N	 0.0021525228	-0.0472854883	-0.0668599758	-0.301789
C	 0.90373538	-0.5428885094	-1.1004281213	-0.166817
C	 0.697810527	-2.0708009131	-1.2091384551	-0.011979
O	-0.6694973208	-2.3724492267	-1.3427508679	-0.420307
C	 1.4379370914	-2.6068232835	-2.3616149781	 0.284154
N	 2.0551962493	-3.0063692262	-3.2521373633	-0.31635
H	 0.7264985946	 1.9830642285	-0.0006371009	 0.110854
H	-0.6868326847	 1.6805528913	-1.032246196	 0.137856
H	-0.8699981426	 1.6837752799	 0.727348462	 0.130843
H	 0.3456989419	-0.3250218836	 0.8477665232	 0.229355
H	 0.6119733255	-0.087328252	-2.05237516	 0.135061
H	 1.9668722801	-0.3121652774	-0.9301459132	 0.110593
H	 1.1207172274	-2.5475671667	-0.3064814631	 0.10815
H	-1.1061026773	-1.6730009097	-0.8264388292	 0.291457
