18
gdb 22886	2.15204	1.58414	1.08038	1.8094	76.91	-0.2458	-0.0083	0.2375	1152.7298	0.146558	-439.049312	-439.040264	-439.039319	-439.08301	33.952	
C	-0.0066917228	 1.6062736722	 0.0096629088	-0.38712
C	 0.0256533458	 0.0681188721	 0.034049731	-0.113277
C	 0.754637378	-0.5516823711	-1.1373663673	-0.070793
C	 1.7743148444	-1.3305428955	-0.7746746969	-0.123525
C	 1.9722783386	-1.3693884943	 0.7213293175	 0.003467
O	 3.2521370561	-0.8918364023	 1.1283359838	-0.418676
C	 0.7945188762	-0.5229911019	 1.2092137851	 0.339109
N	 0.415672048	-0.3145607485	 2.4050911395	-0.215948
O	 1.2216053981	-0.975333089	 3.3385010057	-0.379381
H	 1.0064529773	 2.0194864534	-0.0284036327	 0.11032
H	-0.5540685603	 1.9702718799	-0.8660910465	 0.113549
H	-0.4976539057	 1.9874938944	 0.9085564649	 0.136752
H	-1.0132067309	-0.2880416521	 0.0666644243	 0.104328
H	 0.4484089878	-0.3584955881	-2.1603300771	 0.10173
H	 2.4361704221	-1.8667580145	-1.4450539048	 0.104532
H	 1.915966462	-2.3798992449	 1.1411112964	 0.112337
H	 3.3632948043	-0.0129396605	 0.7485533029	 0.275893
H	 0.7994193109	-0.7439715892	 4.1728494555	 0.306703
