18
gdb 9787	2.99328	1.5732	1.41034	1.3754	73.22	-0.2628	0.0318	0.2946	986.7435	0.151041	-347.753323	-347.744257	-347.743313	-347.786565	33.801	
C	-0.0391174652	 1.5217697879	 0.3636814061	-0.485643
C	 0.0058134758	 0.0330077168	 0.0858338052	 0.390022
C	 1.2770130669	-0.5750831374	-0.4532878066	-0.300651
C	 0.8535994006	-0.844469957	 0.9711951897	-0.316584
C	-1.3044050994	-0.5788692319	-0.4116384204	-0.12108
O	-2.3526587704	-0.4697166451	 0.5504669074	-0.422647
C	-1.7120719996	-0.0179199426	-1.7058949791	 0.311981
C	-2.0634003635	 0.4768142154	-2.7441196028	-0.464217
H	 0.9338700427	 1.8819277319	 0.7099774011	 0.116509
H	-0.3069238474	 2.0856380247	-0.5363252027	 0.127616
H	-0.7711448133	 1.753529394	 1.1457148403	 0.115054
H	 1.1965069695	-1.383284083	-1.1731586075	 0.113952
H	 2.1196177348	 0.0855812845	-0.6262698346	 0.111204
H	 1.4096393755	-0.3671331638	 1.7709555007	 0.110978
H	 0.4840471991	-1.833750502	 1.2196517267	 0.116534
H	-1.148281909	-1.6579277177	-0.5336890574	 0.109652
H	-2.7299526677	 0.4126554329	 0.4721471875	 0.287356
H	-2.3729768893	 0.8965036123	-3.6694641738	 0.199964
