20
gdb 64709	3.69885	1.09011	1.01902	1.533	83.74	-0.2339	0.0464	0.2803	1242.9843	0.169666	-365.932863	-365.92395	-365.923006	-365.966154	34.656	
C	-0.0094663556	 1.6480987325	 0.1560681207	-0.460971
C	 0.0342516936	 0.1261179884	 0.0591991819	 0.317649
C	-1.3767535729	-0.4594401619	-0.1808706698	-0.41541
C	-1.963248601	-0.0571284531	-1.4540266273	 0.305742
C	-2.4204419924	 0.2770898699	-2.5146677142	-0.443895
C	 1.0860097597	-0.5324853064	-0.8845032423	-0.213036
N	 1.6429043743	-1.3925955468	 0.221913468	-0.128025
C	 2.1929760938	-0.4442210171	 1.2060379327	-0.256898
C	 0.7326764847	-0.6468183951	 1.1873145514	-0.06758
H	 0.9846699295	 2.0699820922	 0.3264140674	 0.112992
H	-0.4079798699	 2.0819829986	-0.766366058	 0.133761
H	-0.6551133563	 1.9684018467	 0.9822831944	 0.114118
H	-1.3202861204	-1.5544414541	-0.1381051817	 0.140091
H	-2.0361984514	-0.1521807388	 0.6422530318	 0.126008
H	-2.8375641963	 0.5662738472	-3.4473200254	 0.195958
H	 0.6511345102	-1.1484048272	-1.6738949073	 0.118682
H	 1.8302047276	 0.138186603	-1.3273996006	 0.100006
H	 2.7512941082	-0.9320696069	 1.9995949163	 0.121772
H	 2.6297254712	 0.4882099792	 0.8549500363	 0.110369
H	 0.2127620935	-1.1646624302	 1.9896866956	 0.088667
