19
gdb 73333	2.61169	1.98929	1.38635	1.5771	80.6	-0.222	-0.0022	0.2198	965.2648	0.161187	-385.849846	-385.842726	-385.841782	-385.88075	30.03	
O	 0.0811010112	 1.3581851343	-0.0117819942	-0.470103
C	-0.0408511776	-0.0370762911	-0.0210515396	 0.399801
C	 0.7834368015	-0.7810604074	-1.1168265817	-0.28296
C	-0.2242365043	-1.8042548458	-1.7713440796	-0.263988
C	-1.0463365591	-2.0016393069	-0.5208957407	 0.123358
C	-0.6738793989	-2.8218482855	 0.4727134236	-0.113366
C	-0.5344045924	-2.0685286106	 1.7849567526	-0.270656
C	-0.6510329273	-0.6191454359	 1.306844547	-0.110078
C	-1.4070046072	-0.6256980164	 0.009124022	-0.168329
H	 0.8899718278	 1.583000551	 0.4600811065	 0.281531
H	 1.1351909691	-0.0280430517	-1.8296671654	 0.10522
H	 1.6537763366	-1.3157945608	-0.7233917674	 0.098955
H	-0.7673506596	-1.3348417349	-2.5974244495	 0.104103
H	 0.2667294685	-2.7096315029	-2.1351941217	 0.100396
H	-0.1949642294	-3.783517137	 0.3153956092	 0.088898
H	-1.296127723	-2.2872410528	 2.5482444856	 0.104776
H	 0.4354631669	-2.3118021566	 2.2397248505	 0.103033
H	-0.8496685129	 0.1651959142	 2.0320500662	 0.079517
H	-2.3298193897	-0.1052637031	-0.2210092134	 0.08989
