20
gdb 77819	2.33876	1.49596	1.29657	3.9631	79.36	-0.2344	0.0325	0.2669	1108.6777	0.171637	-403.193569	-403.184714	-403.18377	-403.226668	33.857	
C	-0.0836275669	 1.5641444457	 0.0205552745	-0.426032
C	 0.0571470692	 0.0578400508	 0.0758050633	-0.04877
C	 1.3458775073	-0.7000889257	-0.2218479899	-0.22794
C	 2.6346825363	 0.0738923359	-0.1410775569	 0.413347
O	 3.4559698837	 0.2431848687	-1.0162157866	-0.386869
N	 2.7210833537	 0.5581211474	 1.1436182133	-0.311141
C	 1.7087489173	 0.0746840813	 2.0637785447	-0.237805
C	 0.7413447663	-0.7163694634	 1.1725504608	 0.313469
C	 0.0847189445	-1.9324322601	 1.7803761403	-0.487303
H	 0.8091575837	 2.0804271382	 0.3796403412	 0.132345
H	-0.2648543884	 1.8939927857	-1.0075757208	 0.127874
H	-0.9334827295	 1.8931598163	 0.6290709676	 0.115563
H	-0.8147497481	-0.4620740076	-0.3171383979	 0.089296
H	 1.3238239043	-1.5458113263	-0.8977124491	 0.102357
H	 3.5229947882	 1.0960864163	 1.4299861074	 0.249046
H	 2.1422411414	-0.5847149916	 2.8286289264	 0.107303
H	 1.2071828507	 0.9005559991	 2.5859832191	 0.110113
H	-0.5634557704	-1.6553704845	 2.6205880003	 0.121319
H	-0.5356568969	-2.4526111516	 1.0443806842	 0.122397
H	 0.8291321837	-2.6443027347	 2.1549894483	 0.12143
