15
gdb 2054	4.46379	2.6302	1.80077	2.7361	62.18	-0.2363	-0.0119	0.2244	701.2872	0.126398	-308.555419	-308.549155	-308.548211	-308.58569	23.581	
O	 0.0172559231	-0.0803135333	-0.0460982164	-0.309991
C	-0.0112594886	 1.1233032558	 0.0562239542	 0.391024
C	-1.3031578802	 1.9187584116	 0.1213455131	-0.298428
C	-1.3216912329	 2.8681638484	 1.3363365808	-0.257989
C	-0.0252330694	 3.6214599049	 1.4780151312	-0.054493
C	 1.1182438028	 3.2254603992	 0.9212171065	-0.050646
C	 1.2631748942	 1.9605435289	 0.1138013973	-0.349226
H	-1.3590719235	 2.5253084838	-0.7932544044	 0.121221
H	-2.1470900785	 1.22568045	 0.1240632435	 0.118918
H	-2.1587524222	 3.5694445905	 1.2411443711	 0.111981
H	-1.5206145159	 2.2958880804	 2.2538376594	 0.124309
H	-0.0449396756	 4.5294420659	 2.0753145104	 0.091714
H	 2.0212809314	 3.8152176388	 1.0582527115	 0.093406
H	 2.0684403504	 1.3248021389	 0.4988383695	 0.134396
H	 1.5497858549	 2.2011329662	-0.9223011675	 0.133806
