15
gdb 25638	3.67159	0.98354	0.77951	2.8483	81.47	-0.1917	0.0267	0.2183	1414.6911	0.112843	-416.825279	-416.816484	-416.81554	-416.860128	31.173	
C	 0.0246807209	 1.4516425002	 0.0048288225	-0.510247
C	 0.0142548299	-0.0028254384	-0.0199278017	 0.209493
C	-0.0238550434	-1.2104140956	-0.0461864979	-0.162118
C	 0.000923966	-2.6219704943	-0.0632695376	 0.057494
C	 1.1238667655	-3.3954683984	 0.1458586968	 0.29334
O	 2.4090636618	-3.0930117065	 0.4035601585	-0.427653
N	 0.7285387131	-4.6969673027	 0.0478774424	-0.297576
C	-0.6249733888	-4.6752456877	-0.2183490333	-0.018669
N	-1.0887977333	-3.459207039	-0.2907932161	-0.307405
H	 0.6925198158	 1.8667336143	-0.759082478	 0.144556
H	-0.9791305662	 1.846372264	-0.187592031	 0.15641
H	 0.3489763471	 1.8396071414	 0.9775515577	 0.144559
H	 2.4710954353	-2.1290840289	 0.4313594364	 0.312604
H	 1.3271083398	-5.4991684	 0.1530682712	 0.275451
H	-1.1932646735	-5.5839878285	-0.3443354798	 0.12976
