17
gdb 38405	4.27253	1.31214	1.20573	1.6202	71.01	-0.2524	0.0807	0.3331	1032.2189	0.135622	-421.735655	-421.728635	-421.72769	-421.767151	27.977	
C	-0.0048882637	 1.5702192114	-0.0552827928	-0.335086
C	 1.5275747495	 1.5142335014	-0.1134427434	 0.03784
O	 1.9668903747	 0.8322727799	 1.0691122571	-0.247393
C	 1.5266717657	 0.0441893018	-0.0431199234	-0.069001
C	-0.0066329735	 0.0050721026	 0.0142214819	 0.349479
C	-0.72147692	-0.8623199796	 1.1056255337	-0.335071
C	-1.4207465951	-1.6215735081	-0.0299488685	 0.037833
O	-2.1533528978	-0.6528384175	-0.7924054949	-0.247392
C	-0.7533520574	-0.8036734326	-1.0554257501	-0.069006
H	-0.4143794031	 2.1020347377	 0.8064009832	 0.115068
H	-0.4726977941	 1.9389358576	-0.9714609248	 0.116067
H	 2.2282949516	 2.1976627084	-0.5783556706	 0.106396
H	 2.2175852139	-0.695683929	-0.4328087863	 0.101367
H	-0.0121637345	-1.4671756761	 1.6758869562	 0.116071
H	-1.3915198479	-0.338006304	 1.790570037	 0.115068
H	-1.7731640891	-2.6457191176	-0.0639441697	 0.106396
H	-0.4602387892	-1.0265716962	-2.0757358345	 0.101366
