15
gdb 44312	3.24913	1.95579	1.44539	4.1853	68.89	-0.2427	-0.0196	0.2231	867.3354	0.113243	-420.526761	-420.520708	-420.519764	-420.557059	25.098	
O	 0.0483756757	 0.073509915	-0.1867456127	-0.31297
C	 0.0400978676	 1.2596335316	-0.0205202609	 0.318495
C	-1.1897754847	 2.2311320125	 0.0496676347	-0.336598
C	-0.5047913254	 3.6064072445	 0.2795860619	-0.114634
C	 0.7451673527	 3.5766775037	-0.6282758235	-0.089256
C	 1.8137808101	 3.8976828818	 0.444910999	-0.004805
O	 2.5204156561	 2.5819008871	 0.2980844158	-0.384651
C	 1.1167678601	 2.2837940125	 0.1809561517	 0.356873
C	 0.6432765256	 3.3101370453	 1.2703920789	-0.089275
H	-1.7590785935	 2.1745089427	-0.8835043645	 0.134606
H	-1.8531951503	 1.9288921739	 0.8661498059	 0.134591
H	-1.1438614081	 4.4847789001	 0.3685882504	 0.081227
H	 0.8344783227	 3.6735164314	-1.7098437591	 0.100141
H	 2.4554768017	 4.7637260715	 0.6009268367	 0.106116
H	 0.6171335995	 3.1049737958	 2.3401434399	 0.100138
