15
gdb 124348	4.36929	1.13947	0.91397	0.8813	70.41	-0.2869	-0.0742	0.2127	1235.3711	0.11145	-450.145628	-450.137012	-450.136068	-450.179879	29.521	
C	 0.0025685083	 1.4637822526	-0.0582277614	-0.48561
C	-0.0510849149	-0.0343186601	 0.0788431035	 0.443491
O	-0.1232112915	-0.6528432113	 1.0989182533	-0.260158
N	-0.0069224704	-0.7411188345	-1.1809240557	 0.028947
N	 0.073992626	-0.114280032	-2.3677471006	-0.106193
N	 0.09244171	-1.0416550305	-3.2676952683	-0.247037
C	 0.021238071	-2.2409233815	-2.599306196	 0.402227
C	 0.0174675379	-3.5623712541	-3.282216893	-0.478652
N	-0.0424670791	-2.0736816107	-1.2922394109	-0.257294
H	 0.9180032382	 1.7710510731	-0.5701277365	 0.170173
H	-0.8340959038	 1.8254233088	-0.6612884144	 0.170174
H	-0.0361533638	 1.8932145649	 0.9420659366	 0.155313
H	 0.9346362036	-3.6962576629	-3.8634143921	 0.15452
H	-0.0593350217	-4.3636958831	-2.5466002961	 0.155586
H	-0.8237626699	-3.6315736585	-3.9780402784	 0.154513
