21
gdb 91627	2.90497	1.67053	1.46619	1.5497	80.05	-0.2542	0.0889	0.343	1005.333	0.186001	-387.093577	-387.086431	-387.085486	-387.124707	30.26	
C	-0.2292980444	 1.5565364547	-0.0296666999	-0.419379
C	 0.0387247212	 0.0527884014	 0.000819463	 0.058401
C	 0.9211227368	-0.4966782006	-1.1721590952	-0.240501
C	 1.9889381684	-1.3066775988	-0.3957952051	 0.059009
O	 1.2493533452	-1.7750310305	 0.7438799357	-0.26454
C	 0.8306836846	-0.489221263	 1.2253408343	 0.032099
C	 2.1524885239	 0.269955379	 1.3645377697	-0.03507
C	 3.3763710694	-0.5635076708	 1.6498943185	-0.317954
C	 2.9711764985	-0.3076574456	 0.2224239611	-0.039778
H	 0.6991759512	 2.1337862369	-0.0819470013	 0.117234
H	-0.8316660567	 1.8254116861	-0.9034344102	 0.116107
H	-0.7796397536	 1.8823792747	 0.8603562859	 0.112358
H	-0.9224636116	-0.4717463	-0.0082699912	 0.076538
H	 0.3446519652	-1.1375446534	-1.8436587422	 0.099132
H	 1.3682848556	 0.3043683465	-1.7688786585	 0.093503
H	 2.4211628123	-2.1601141118	-0.9199064217	 0.075217
H	 0.2439561911	-0.6182720639	 2.136743775	 0.072349
H	 2.1477901294	 1.3263236188	 1.5996281698	 0.088832
H	 4.2475219713	-0.0242549739	 2.0054705398	 0.105634
H	 3.2498635618	-1.5586992588	 2.059996352	 0.125342
H	 3.5786205704	 0.3107185732	-0.4276931896	 0.085467
