14
gdb 132781	2.32218	1.86566	1.0355	3.4033	68.84	-0.2159	-0.0078	0.208	1049.3662	0.101895	-478.023074	-478.015495	-478.014551	-478.054777	29.414	
N	-0.0563271011	 1.3989235447	-0.1419800037	-0.599736
C	 0.0077774226	 0.0135749302	-0.0556603088	 0.163902
C	-1.1470514923	-0.7607791507	-0.0788991996	 0.12241
F	-2.3586137092	-0.1602248732	-0.1154099673	-0.104434
C	-1.0969667681	-2.1476257398	-0.0565719505	 0.234211
O	-2.2219754944	-2.9050421829	-0.0772395722	-0.435488
C	 0.1644623571	-2.7434220191	-0.0063273689	-0.081041
N	 1.2887432522	-2.0295643493	 0.0240011603	-0.262962
C	 1.2146852553	-0.7017998872	 0.0004964054	-0.070552
H	 0.7400775964	 1.8821433031	 0.2467313635	 0.256618
H	-0.9314267895	 1.7993864172	 0.1628600981	 0.256994
H	-2.9843476996	-2.3150678214	-0.1181943286	 0.304799
H	 0.24226229	-3.826093074	 0.0115364437	 0.117134
H	 2.1544984805	-0.1537934377	 0.0243093186	 0.098145
