15
gdb 97513	2.5775	0.93342	0.72202	1.6821	72.62	-0.2665	-0.0651	0.2014	1506.3524	0.109831	-457.707557	-457.698115	-457.697171	-457.74377	31.757	
O	-0.6307040062	 1.2852170695	 1.2635796498	-0.395757
C	-0.3695167874	 0.0407376518	 0.6405636197	-0.2013
C	-1.5500358465	-0.5700305752	 0.0347761995	 0.063449
C	-2.5414708516	-1.0198815568	-0.4879434869	 0.041286
C	-3.7169536368	-1.5910746742	-1.1088967988	 0.213069
O	-3.7250474243	-2.6924055511	-1.6172545967	-0.287939
C	-4.9576947151	-0.7416551903	-1.0883974972	-0.00913
C	-5.3525520233	-0.0128487905	 0.1351268712	-0.187072
O	-4.7904725642	 0.6708481687	-0.9740815371	-0.219035
H	-1.0520336596	 1.8575140642	 0.6131384647	 0.296293
H	 0.4162028784	 0.1198943803	-0.1282363034	 0.135778
H	 0.0248857909	-0.6163923627	 1.4237999626	 0.155682
H	-5.7275004883	-1.0822842881	-1.7779069189	 0.124632
H	-6.4123541223	 0.1602401055	 0.3138805396	 0.133527
H	-4.7193588739	-0.0695730611	 1.0183002918	 0.136518
