11
gdb 53724	3.68633	0.69128	0.64817	5.0642	71.31	-0.2934	-0.1234	0.17	1633.8401	0.063667	-451.55021	-451.540983	-451.540039	-451.58643	30.089	
N	 0.1349728083	 1.2377776894	 0.3742368867	-0.522116
C	-0.1033913971	 0.1466943145	-0.3961612828	 0.292892
O	 0.6120679482	-0.24423295	-1.2941619615	-0.312616
C	-1.3388376083	-0.5664637289	-0.0655484258	 0.02762
C	-2.3345563504	-1.2199811577	 0.1367622804	 0.06999
C	-3.5160174151	-1.9982411137	 0.3902710353	 0.197247
O	-3.5864374546	-2.8961430878	 1.1956176487	-0.237695
C	-4.679988506	-1.6055794265	-0.422786871	 0.231575
N	-5.5996245835	-1.2979118843	-1.0523048383	-0.3075
H	 0.9723296083	 1.7709938561	 0.2021419802	 0.28127
H	-0.4842699298	 1.5130147486	 1.1171227781	 0.279333
