26
gdb 10224	2.13179	1.15032	0.81106	0.0469	89.28	-0.2945	0.0909	0.3854	1561.9638	0.244963	-315.490766	-315.479656	-315.478712	-315.527417	39.853	
C	-1.9143335213	 1.5297098595	 1.5523521247	-0.378453
C	-1.8157374738	 0.0028077301	 1.4846675107	-0.171526
C	-1.4345354356	-0.5093456137	 0.0897915559	-0.175555
C	-1.3303954629	-2.0437670428	-0.0358922011	 0.060157
C	-2.7287538164	-2.6969090739	-0.0593409669	-0.180311
C	-2.7376385626	-4.1996736443	 0.2411968879	-0.387686
C	-0.5088091593	-2.4466575227	-1.2787354914	-0.181434
C	 1.0004323513	-2.2138465829	-1.1518201529	-0.38772
H	-2.1750117666	 1.870251467	 2.5594959475	 0.109119
H	-0.9638724492	 2.0008513548	 1.2773028661	 0.112158
H	-2.6792713669	 1.9079849283	 0.8648951461	 0.112608
H	-1.0690967344	-0.3475885059	 2.2097698812	 0.09325
H	-2.7711783966	-0.4331083409	 1.8012058078	 0.097476
H	-2.1645183491	-0.143188839	-0.647151659	 0.086945
H	-0.4768441191	-0.0523362629	-0.1887773313	 0.088225
H	-0.7991345398	-2.4191768021	 0.8530866147	 0.058899
H	-3.3766561285	-2.1961517121	 0.6691275674	 0.092083
H	-3.1849926965	-2.5130460075	-1.0421982726	 0.090285
H	-2.1401673891	-4.7693760051	-0.4775694112	 0.117097
H	-2.3331475357	-4.402232264	 1.2393304662	 0.112867
H	-3.7558087899	-4.6005496572	 0.2089409864	 0.109908
H	-0.676022635	-3.5078039628	-1.4964267653	 0.091496
H	-0.8965363521	-1.8978848569	-2.1484258751	 0.090232
H	 1.2443577948	-1.1615470481	-0.9743627957	 0.116983
H	 1.418157091	-2.7932024279	-0.3206712554	 0.112814
H	 1.5228793333	-2.5197785974	-2.0639198947	 0.110081
