26
gdb 101836	4.22008	0.60411	0.55797	1.0385	94.27	-0.2292	0.0841	0.3133	2105.9413	0.239263	-369.59108	-369.580005	-369.579061	-369.628236	40.373	
C	-0.2898134889	 1.4736685492	-0.0074444855	-0.392044
C	-0.0736787362	-0.0380939247	-0.1308554304	-0.164608
C	 0.8759704126	-0.4715922525	-1.2653119524	 0.043268
C	 2.308842282	 0.032308979	-1.0340788359	-0.390672
C	 0.8226070164	-2.0011289491	-1.4362132723	-0.178043
C	 1.5686388814	-2.5396415439	-2.6585453854	-0.156695
N	 1.3843152355	-3.9832735731	-2.7798436024	-0.056889
C	 0.2260369599	-4.4230505747	-3.5499317153	-0.218142
C	 1.6027467656	-4.5535950548	-4.1028066405	-0.220925
H	 0.6310829939	 2.003771627	 0.2537260004	 0.117627
H	-0.6612755196	 1.8975631117	-0.9475872313	 0.11141
H	-1.0264537008	 1.6993082192	 0.7702072264	 0.111272
H	 0.3053993976	-0.4341575934	 0.8215927999	 0.092119
H	-1.0466726482	-0.5200837746	-0.2906433492	 0.089947
H	 0.5038218212	-0.0176068178	-2.1971152752	 0.064291
H	 2.9698248425	-0.2203432658	-1.8681448755	 0.114116
H	 2.3398872173	 1.1193191938	-0.9182304152	 0.112906
H	 2.734339543	-0.4124486931	-0.1260302695	 0.111892
H	 1.2198696778	-2.490650853	-0.5376262378	 0.101691
H	-0.2272907062	-2.3119604077	-1.5145745662	 0.090879
H	 1.2277472257	-2.0061509733	-3.5672793744	 0.072225
H	 2.6449713676	-2.3565094437	-2.5677177234	 0.103658
H	-0.3018958	-5.2910578531	-3.1653057346	 0.114682
H	-0.4134730492	-3.6590175457	-3.9910505792	 0.1057
H	 1.8772030873	-3.8772766187	-4.9114989172	 0.105902
H	 2.101378292	-5.5185366172	-4.128427218	 0.114431
