16
gdb 7995	3.35615	1.86914	1.32238	2.9183	61.28	-0.2676	0.0056	0.2732	934.4691	0.129549	-420.932076	-420.924227	-420.923282	-420.964408	28.379	
C	-0.0903665105	 1.5699216366	 0.184983988	-0.403262
C	 0.0623106292	 0.0863783326	-0.0430476938	 0.225606
O	 1.0240621892	-0.1707375143	-1.0381244614	-0.264877
C	 1.6360615058	-1.4127846022	-0.7130184829	-0.02442
C	 3.089835421	-1.4454657291	-1.147261254	-0.403094
C	 1.448225666	-1.505775819	 0.8020458263	 0.416915
O	 1.9779145614	-2.2449240412	 1.5774148771	-0.335553
O	 0.5375234318	-0.5620331252	 1.1511675951	-0.232429
H	 0.8694515167	 1.9999956974	 0.4804199545	 0.13822
H	-0.4273720551	 2.0468207405	-0.7390099411	 0.137753
H	-0.8279433272	 1.7565422616	 0.9690606712	 0.138152
H	-0.8990098725	-0.386753621	-0.3031014532	 0.087567
H	 1.0806965241	-2.248524509	-1.1724951311	 0.107276
H	 3.6345417867	-0.5994281036	-0.7203632782	 0.133807
H	 3.5491297606	-2.3725823916	-0.7954525846	 0.146968
H	 3.1654609828	-1.3996995426	-2.2361935118	 0.131373
