18
gdb 83667	2.33076	1.67841	1.3047	5.2764	75.02	-0.2611	0.0239	0.2849	1036.6586	0.148344	-401.927772	-401.919608	-401.918664	-401.961051	30.457	
C	-0.6047737166	 1.3933139019	 0.128916781	-0.42403
C	-0.0833123217	-0.0253942976	-0.0363445668	 0.003102
C	 0.7621889469	-0.4024934483	-1.2895073496	-0.101741
C	 1.7912597035	 0.6381233228	-1.7675015318	-0.08508
O	 2.781533172	 0.1590598568	-0.8203134799	-0.272308
C	 1.9196847103	-0.8901194425	-0.3771585981	 0.117262
C	 1.094297088	-0.5246010523	 0.9007791238	-0.21928
C	 1.6963890479	 0.4397494644	 1.8024186464	 0.303377
N	 2.1504460667	 1.2196941905	 2.5251997028	-0.33729
H	 0.2004672455	 2.132891352	 0.1248550751	 0.145569
H	-1.3032371049	 1.64100291	-0.6774836632	 0.119476
H	-1.1365882563	 1.500476069	 1.0793754804	 0.133264
H	-0.9156142193	-0.7279096244	 0.0603598791	 0.092436
H	 0.2770060304	-1.0118133286	-2.0503252979	 0.085375
H	 2.1326920195	 0.4897707961	-2.7987464606	 0.110943
H	 1.552102378	 1.696127008	-1.6192214547	 0.116115
H	 2.3954144704	-1.8735050616	-0.3955867906	 0.0902
H	 0.8078850399	-1.4116898062	 1.4728710746	 0.122609
