20
gdb 91975	2.18829	1.74336	1.15951	2.02	83.64	-0.2374	0.0553	0.2927	1120.8165	0.171367	-365.963069	-365.954438	-365.953494	-365.996553	33.683	
C	 0.1207781938	 1.5740658156	-0.1502656223	-0.409651
C	 0.0899655704	 0.0548945242	-0.0158265648	 0.033663
C	 0.6334399536	-0.7113909002	-1.2516948706	-0.221255
C	 1.1638313573	-2.0300023328	-0.706278242	-0.041369
N	 2.5031107961	-1.8843293925	-0.1029997426	-0.316894
C	 1.3177107859	-1.9236593546	 0.7680225555	-0.048768
C	 0.8452614753	-0.538148455	 1.2382844469	-0.210117
C	 1.9272833501	 0.2885755227	 1.7620432388	 0.388687
C	 2.8000402759	 0.9734112497	 2.2254043268	-0.508937
H	 1.1459703106	 1.9353872202	-0.2705925516	 0.134024
H	-0.4605213899	 1.8931953189	-1.0219904358	 0.106936
H	-0.3023405786	 2.0639542837	 0.7325427667	 0.11463
H	-0.9534064656	-0.258412132	 0.1142535173	 0.075602
H	-0.1553471241	-0.8619495832	-1.9949872933	 0.094909
H	 1.4454658844	-0.1572809401	-1.7340745477	 0.114945
H	 0.9024935286	-2.9685506775	-1.184976434	 0.085544
H	 2.9709114198	-2.787170971	-0.0709511141	 0.229464
H	 1.1815922822	-2.7720510709	 1.4307363954	 0.088501
H	 0.1143051725	-0.6726587393	 2.0449688222	 0.099825
H	 3.5827371519	 1.5697626941	 2.623749139	 0.190262
