15
gdb 96699	2.80686	1.1332	0.92428	1.7593	72.48	-0.2627	-0.0389	0.2238	1280.9293	0.109343	-453.947722	-453.937874	-453.93693	-453.983319	34.211	
C	-0.4404353829	 1.8371310953	 0.2192175462	-0.333283
N	-0.7751967233	 0.4311553544	 0.1476799409	-0.235021
C	-0.052667234	-0.4300978284	 0.7150567871	 0.273716
O	-0.5067178402	-1.7433646703	 0.6881684167	-0.252627
C	 0.3242569815	-2.6843587528	 0.1228790617	 0.491981
N	-0.2029369163	-3.9210129239	 0.3362273027	-0.557777
O	 1.3505531683	-2.4320651214	-0.4516456675	-0.379432
C	 1.1348161209	-0.2156102759	 1.4876823607	 0.336243
C	 2.1068746306	 0.0028030152	 2.1615390453	-0.509929
H	 0.4673371319	 2.0635349333	 0.7912531976	 0.124592
H	-0.3240815832	 2.2162179457	-0.8019037649	 0.141678
H	-1.2865261621	 2.3752124186	 0.6609209804	 0.137549
H	-1.1561067257	-4.0001120375	 0.6471498227	 0.272597
H	 0.187445468	-4.6728554369	-0.2050949465	 0.274162
H	 2.9772870264	 0.1779687845	 2.7454177367	 0.215552
