17
gdb 10977	2.78876	2.38821	1.96178	0.5233	68.03	-0.231	-0.0024	0.2286	787.5089	0.143009	-363.81356	-363.80661	-363.805666	-363.844123	28.204	
C	-0.0102088519	 1.520231867	 0.0112589355	-0.51943
C	-0.0501853984	 0.0145772812	 0.020885062	 0.238967
N	 0.4108623934	-0.7570642204	-1.2115544154	-0.334719
C	-0.3209612497	-1.8995677058	-0.5307395068	-0.112195
C	 0.547149358	-2.0428661292	 0.7221663066	-0.082967
C	 0.7277442652	-0.7704385846	 1.089816024	-0.108935
C	-1.3785134014	-0.8453647135	-0.0357658816	 0.125715
O	-2.1861067699	-1.0498677214	 1.076407797	-0.431784
H	 1.0161761025	 1.8846780972	-0.0997661021	 0.131449
H	-0.6060677862	 1.92715989	-0.8122367494	 0.117006
H	-0.4170517244	 1.9201089112	 0.9458427062	 0.128342
H	-0.1703779561	-0.4459683399	-1.997646475	 0.205328
H	-0.5684609657	-2.7826406508	-1.1182751511	 0.068719
H	 0.9145393727	-2.960372845	 1.1581270634	 0.110702
H	 1.2866713744	-0.3470092653	 1.9124379484	 0.107466
H	-2.0373272827	-0.5132763236	-0.8449830578	 0.084217
H	-1.6024267101	-1.3488609871	 1.7876959662	 0.272118
