21
gdb 119722	3.03209	1.05055	0.91857	1.2678	79.94	-0.2293	0.0738	0.303	1388.1957	0.180864	-424.171154	-424.161531	-424.160587	-424.206104	34.877	
C	-0.0661790848	 1.4234639143	-0.6794956616	-0.221169
O	-0.0720544165	 0.06922089	-1.0644100454	-0.23476
C	 0.79301166	-0.7261472632	-0.2870780778	-0.17245
C	 0.7041611528	-2.1425188243	-0.7698232268	 0.426739
O	 1.5769503321	-3.0825811873	-0.1259597002	-0.331782
C	 1.8580554576	-3.7114649881	-1.4085647472	-0.098742
C	 0.8565387742	-2.8108431797	-2.1204480873	-0.199812
C	-0.4782532742	-2.8263387802	-1.3807350448	-0.058549
C	-1.1317157646	-4.0602276958	-0.8009591549	-0.424589
H	-0.3922756243	 1.5517040604	 0.3645683328	 0.107381
H	 0.9334891166	 1.8734123578	-0.7843927017	 0.106769
H	-0.7624172003	 1.9515282097	-1.3353079108	 0.128585
H	 1.8340140565	-0.3688938059	-0.3623936831	 0.095081
H	 0.5156041856	-0.6862743403	 0.7816988076	 0.097782
H	 2.8976749174	-3.5263185095	-1.7013202636	 0.10837
H	 1.6678356525	-4.7909977939	-1.3916764727	 0.103369
H	 0.9791514841	-2.3808122727	-3.1054176374	 0.098692
H	-1.1593702036	-2.1024023255	-1.8210506454	 0.106339
H	-0.4198326865	-4.6420088111	-0.210327298	 0.132597
H	-1.9573082371	-3.7817378039	-0.1373618313	 0.116847
H	-1.5395575573	-4.7045537907	-1.5872761803	 0.113302
