19
gdb 77818	2.30666	1.53105	1.31488	2.5286	76.3	-0.2389	-0.0204	0.2184	1087.0125	0.157843	-423.041545	-423.032706	-423.031762	-423.074869	33.221	
C	-0.0390237465	 1.607094066	 0.2385497244	-0.422124
C	 0.0453923691	 0.1022275379	 0.1191161274	-0.073155
C	 1.3295601335	-0.6701294328	-0.2627072037	-0.267418
C	 2.6460518869	-0.0010748823	-0.0627223205	 0.387451
O	 3.519167406	 0.1759712419	-0.8744795276	-0.321864
C	 2.7442616016	 0.3386570417	 1.4297501249	-0.203064
O	 1.5541416679	-0.1183158072	 2.0520752221	-0.299485
C	 0.7154851788	-0.7847724176	 1.1189408138	 0.41069
C	 0.0852181182	-2.0220824775	 1.6926218384	-0.461798
H	 0.7581814631	 2.0186224047	 0.8601017547	 0.133955
H	 0.0087570273	 2.0862803277	-0.7443259623	 0.129438
H	-0.9890761261	 1.8905559195	 0.7035804004	 0.126235
H	-0.8228443874	-0.3491033099	-0.3563101239	 0.09826
H	 1.2642112022	-1.4315126883	-1.0300590871	 0.112263
H	 3.6196103907	-0.1670922543	 1.8591598933	 0.134442
H	 2.8749748897	 1.4181667106	 1.5758766186	 0.13214
H	-0.5105055601	-1.7686205009	 2.5755906504	 0.134806
H	-0.5738090217	-2.4952241335	 0.9596542861	 0.121268
H	 0.8500334769	-2.7441921558	 1.9944851206	 0.12796
