18
gdb 80824	2.04973	1.84216	1.64891	2.3533	72.47	-0.2544	0.022	0.2764	966.2269	0.148311	-439.084038	-439.076069	-439.075125	-439.116081	31.449	
C	-0.0257703276	 1.5522648526	 0.0420548054	-0.497082
C	-0.0298650041	 0.0481265562	-0.0116062893	 0.154336
C	 0.3915430242	-0.81888872	-1.2561993311	-0.282831
C	-0.3277148209	-1.9226233404	-0.4599463482	 0.028295
O	 0.5005199482	-2.0413984238	 0.7401451372	-0.279206
C	 0.734102597	-0.7098914193	 1.0484972923	 0.403531
N	 1.4158929855	-0.2686542093	 2.0102194017	-0.575819
C	-1.346338972	-0.8435834523	-0.0222529268	 0.142403
O	-2.1151139268	-1.0160676991	 1.1213321169	-0.440536
H	 0.9968262641	 1.9404718774	 0.0262292773	 0.136816
H	-0.5745576166	 1.9780966136	-0.8032934156	 0.112635
H	-0.4941099079	 1.8976041856	 0.9683991631	 0.141851
H	-0.1285605444	-0.5275471333	-2.1706228153	 0.114275
H	 1.4580522771	-0.95993462	-1.4368480744	 0.12258
H	-0.5749809637	-2.9154879358	-0.8279357149	 0.095619
H	 1.815338157	-1.0335421236	 2.5579209046	 0.22526
H	-2.0165381617	-0.5393777112	-0.8287465625	 0.100908
H	-1.5637308472	-1.4348404074	 1.7941862497	 0.296965
