21
gdb 96558	2.26186	1.61253	1.15873	2.6542	74.8	-0.2461	0.0692	0.3153	1140.2635	0.183114	-461.354969	-461.346116	-461.345172	-461.38803	34.28	
C	 0.0728760845	 1.5495635917	-0.0378514543	-0.397145
C	 0.0112372163	 0.0288094969	 0.0337582496	 0.087667
O	 0.7123352798	-0.4737934717	-1.1078961569	-0.268593
C	 0.2672485743	-1.6995898483	-1.6598748375	-0.07135
C	-0.0900511519	-2.7850907451	-0.6325086276	-0.099684
O	 0.8195751813	-2.8470860741	 0.4451363744	-0.242176
C	 0.465308259	-2.0145455961	 1.5387665349	-0.113214
C	 0.7141458108	-0.5210143785	 1.2986063531	 0.131176
O	 2.1006198995	-0.2449329317	 1.2230231205	-0.436506
H	 1.1118445117	 1.880974993	 0.0275275676	 0.139849
H	-0.3536368966	 1.9024011056	-0.9801515659	 0.116784
H	-0.4864957735	 1.996507452	 0.7898004924	 0.112152
H	-1.0390102124	-0.2962100496	 0.0126546292	 0.066486
H	-0.6063138538	-1.541764009	-2.3146263038	 0.090276
H	 1.0961870883	-2.0412914852	-2.2877676114	 0.115583
H	-1.1130000215	-2.6399034936	-0.2534994551	 0.094223
H	-0.0708582944	-3.7564942607	-1.1413346303	 0.109157
H	-0.5907186523	-2.1792181779	 1.8135256262	 0.081031
H	 1.0934537357	-2.3351381807	 2.3746731813	 0.117194
H	 0.3368283912	 0.0174298772	 2.178218088	 0.078845
H	 2.3714112942	-0.5578092042	 0.3494433356	 0.288244
