15
gdb 45183	2.91652	1.91971	1.66017	2.8997	63.01	-0.2415	-0.0318	0.2097	839.9412	0.114042	-457.734196	-457.728036	-457.727092	-457.764734	25.064	
O	 0.0300603917	-0.0008830795	-0.0245421895	-0.314922
C	 0.0028249924	 1.2005224843	 0.0118846567	 0.450344
C	-1.2682099452	 2.0600283613	 0.0626623137	-0.331305
C	-0.8732068048	 3.364773736	 0.7513464008	 0.040966
O	-0.1108525335	 3.0106787694	 1.9523520413	-0.300777
C	 1.0942593139	 3.1526586028	 1.2010318168	 0.070232
C	 0.4298431438	 3.9691535987	 0.0962719988	 0.069988
O	 0.9522056309	 3.1579507337	-0.9583518976	-0.298198
C	 1.2329061923	 2.1050830999	 0.0187669382	-0.075697
H	-1.6327376212	 2.2375762465	-0.9553253341	 0.142749
H	-2.0422108516	 1.5277584989	 0.6203723399	 0.139312
H	-1.7042472203	 4.0328954243	 0.982110057	 0.096437
H	 1.9755291236	 3.3906063691	 1.7958033157	 0.106892
H	 0.4870466448	 5.0422017046	-0.084604102	 0.101175
H	 2.1750213533	 1.58878489	-0.1640815857	 0.102804
