16
gdb 97512	4.1269	0.66213	0.59682	2.8967	79.28	-0.2611	-0.0649	0.1961	1809.5352	0.122999	-437.832068	-437.82259	-437.821646	-437.868262	32.295	
O	 0.2286746252	 1.3615592069	 0.4505531273	-0.393154
C	 0.1070098462	-0.0348769573	 0.2494005791	-0.207935
C	-1.2699112693	-0.4934682279	 0.0791016349	 0.148518
C	-2.408521882	-0.8606246783	-0.0888645983	-0.025563
C	-3.7743045139	-1.2909794754	-0.2740021711	 0.224665
O	-4.073594103	-2.460971671	-0.4368287192	-0.327712
C	-4.8111546828	-0.2123154977	-0.2605400068	-0.109971
C	-5.786858034	-0.2287196958	-1.4013958525	-0.219127
N	-6.2042168291	-0.6338369039	-0.0678197083	-0.300555
H	-0.1730376573	 1.8055306228	-0.3037112747	 0.292586
H	 0.701968105	-0.3811429735	-0.6109918621	 0.135135
H	 0.5388987218	-0.5086177664	 1.1382036071	 0.158953
H	-4.5276354675	 0.7337776688	 0.1887860184	 0.109123
H	-6.1887483076	 0.7168366709	-1.7534788707	 0.129314
H	-5.6417816257	-0.9939040181	-2.1589119622	 0.134923
H	-6.1965880958	-1.653945014	-0.0208863109	 0.250799
