21
gdb 74432	2.90356	1.55551	1.25626	0.2917	87.82	-0.2103	0.0273	0.2376	1104.7988	0.182987	-349.941205	-349.933135	-349.93219	-349.973106	33.024	
C	 0.0896737038	 1.4885142561	 0.0702287933	-0.500888
C	-0.0356823875	 0.0011693819	-0.0165251047	 0.331826
C	-0.1324566656	-0.7679297477	-1.108385767	-0.251953
C	-0.0696945213	-2.2337669964	-0.7244061777	 0.291272
C	-0.6543006191	-3.2386491235	-1.6951321389	-0.495937
C	 1.4069848737	-2.4870097907	-0.2024882121	-0.259148
C	 0.936218501	-2.1134714636	 1.1959385465	-0.077547
C	-0.0185412146	-0.8889069534	 1.1863288601	-0.135873
C	-0.5096179874	-2.2492980497	 0.7861610654	-0.112995
H	 1.0445284236	 1.7820808915	 0.5250283789	 0.126368
H	 0.0279404944	 1.9547394988	-0.9169002009	 0.121638
H	-0.6993370769	 1.9202289716	 0.6996451589	 0.121704
H	-0.0841036274	-0.4241634452	-2.1362338129	 0.082076
H	-0.138497493	-3.1983631945	-2.6615383908	 0.114525
H	-0.5640086065	-4.2611635511	-1.3130484723	 0.111256
H	-1.7164144495	-3.0394417772	-1.8770400856	 0.116613
H	 1.6478390397	-3.5536728651	-0.2444731589	 0.096385
H	 2.2103697607	-1.9091684142	-0.6726531097	 0.085046
H	 1.4105189982	-2.405728661	 2.1255835022	 0.081776
H	-0.2626986924	-0.4990801135	 2.1691681418	 0.075223
H	-1.334702584	-2.791655583	 1.2338815246	 0.078632
