22
gdb 6274	3.512	1.0217	0.9485	0.7998	84.55	-0.2559	0.0559	0.3117	1359.2234	0.19731	-313.050656	-313.04036	-313.039416	-313.085833	37.811	
C	-0.0790012316	 1.53445006	 0.1234591869	-0.384651
C	-0.0660485312	 0.0039839772	 0.0013363142	 0.030133
C	-1.499592661	-0.5412485679	-0.0744443539	-0.392008
C	 0.7404019909	-0.4859522707	-1.2157356292	-0.162281
C	 2.2456247616	-0.1163867176	-1.2358481216	-0.174559
C	 3.0293515034	-0.7197944727	-0.0521910747	-0.386056
C	 2.8402442052	-0.5327577053	-2.5059927562	 0.321871
C	 3.3201989327	-0.8968479802	-3.5467793369	-0.464537
H	 0.9228109169	 1.9499825729	 0.2694203311	 0.114126
H	-0.5023523764	 1.9942820283	-0.7778571888	 0.1137
H	-0.6903723896	 1.8513610614	 0.9748137254	 0.110924
H	 0.3927935676	-0.4054453873	 0.9112573153	 0.075782
H	-2.0165661038	-0.1620370454	-0.964132145	 0.113033
H	-1.5088572429	-1.635005804	-0.1261355725	 0.110909
H	-2.083653832	-0.2407707187	 0.8016415543	 0.109166
H	 0.6607104263	-1.5781867775	-1.2843092927	 0.099445
H	 0.2784066294	-0.0891152331	-2.1286136457	 0.101688
H	 2.3333413661	 0.9766546512	-1.1767765863	 0.106312
H	 4.0909984754	-0.470576472	-0.1260504499	 0.124984
H	 2.6556891712	-0.3379733016	 0.9018534523	 0.117471
H	 2.9381448708	-1.8105628543	-0.046777436	 0.123922
H	 3.7479247311	-1.2059741424	-4.4679880899	 0.190626
