18
gdb 36199	3.3601	1.19933	1.05596	5.2996	75.55	-0.2579	0.0255	0.2833	1171.1468	0.147978	-401.931946	-401.923748	-401.922804	-401.965425	30.483	
N	-0.023654434	-1.1581899996	-0.010781481	-0.306115
C	-0.0403331548	-0.0032243084	 0.0117085885	 0.269754
C	-0.0468729462	 1.4590461664	 0.0586532329	-0.426773
C	 1.3531702659	 2.045253389	-0.063411177	 0.465247
C	 2.4087357227	 1.7651611191	 1.034636412	-0.271865
C	 2.7786791476	 3.2828388356	 1.0441222058	-0.22833
C	 1.703711143	 3.5648751211	-0.0405258384	-0.15232
C	 2.1749343186	 3.3230876133	-1.4833844629	-0.083269
O	 1.8922657282	 1.9040099163	-1.3930596288	-0.322642
H	-0.6768164548	 1.8395871213	-0.7522854457	 0.155686
H	-0.4976720265	 1.7750016879	 1.0065196683	 0.150885
H	 1.9868181755	 1.4092318463	 1.9783274124	 0.109476
H	 3.1879039323	 1.0725197956	 0.7129687047	 0.126606
H	 2.568832321	 3.7723978538	 1.9972842567	 0.10997
H	 3.8028774591	 3.5284681275	 0.7522043699	 0.109442
H	 0.984955195	 4.3645839804	 0.1361683348	 0.080324
H	 1.5625906713	 3.7993788773	-2.2590249541	 0.106576
H	 3.2332993062	 3.5230073072	-1.6900711281	 0.107347
