17
gdb 89701	3.6742	1.23367	1.13711	3.2424	72.79	-0.261	0.0043	0.2652	1088.6189	0.138635	-417.991664	-417.984338	-417.983394	-418.023342	29.298	
O	 0.0387196625	 1.3681672136	-0.024112096	-0.444218
C	 0.0104426495	-0.0353881396	-0.0248387747	 0.180648
C	 0.5394941654	-0.685839996	 1.3026454699	-0.283169
C	-0.7881159555	-1.3310005801	 1.7586273277	 0.225784
C	-1.2621632039	-2.0609810828	 0.4660042944	-0.268997
C	-1.429321289	-0.591337614	 0.0218412749	-0.05193
N	-1.7598196104	-0.1988220649	 1.4514054146	-0.374373
C	-0.8485561727	-1.95004048	 3.0648758481	 0.163673
N	-0.9051820963	-2.4608348582	 4.1003165641	-0.334112
H	-0.5514497836	 1.6377364558	 0.6939760172	 0.287867
H	 0.5632718814	-0.3637321863	-0.9074520713	 0.092979
H	 1.324902347	-1.429114413	 1.1533328125	 0.119293
H	 0.8908923744	 0.0773262096	 1.9980350013	 0.129821
H	-0.5499593319	-2.7088746494	-0.0534930817	 0.113108
H	-2.2178729233	-2.570350207	 0.6059560398	 0.120686
H	-2.1138756957	-0.271586167	-0.7617297233	 0.090833
H	-2.7011752779	-0.5296437406	 1.6661602024	 0.232105
