20
gdb 91830	3.18134	1.16311	0.98944	4.452	83.82	-0.2723	0.0328	0.305	1259.864	0.172571	-366.039133	-366.030743	-366.029799	-366.07205	32.631	
C	 0.0398608227	 1.5858227786	-0.0051384904	-0.410003
C	 0.0708002323	 0.0594500692	-0.0076447894	 0.060108
C	 0.8554569365	-0.5686936682	-1.1876437923	-0.24852
C	 1.277603414	-1.9568982798	-0.7089162227	-0.07306
C	 2.5093012355	-2.0685506277	 0.1361099522	-0.315282
C	 1.1558609755	-1.970650074	 0.822566653	 0.199492
C	 0.6952930903	-0.5712280804	 1.2607138675	-0.310889
C	 0.6502206162	-3.1189151175	 1.5156318262	 0.20102
N	 0.2363127398	-4.0417586087	 2.0791294979	-0.353753
H	 1.0529003434	 1.9993279192	 0.0650728318	 0.114006
H	-0.4158633348	 1.9749207089	-0.9215710718	 0.118456
H	-0.5373740077	 1.9716519203	 0.8414935196	 0.119689
H	-0.9598064311	-0.3130667891	-0.0737356052	 0.085869
H	 0.2441401604	-0.6241366874	-2.0923466936	 0.110418
H	 1.7342719146	 0.0407242948	-1.4340541735	 0.102752
H	 0.9683985124	-2.8301073351	-1.2707332055	 0.112664
H	 3.0143903162	-3.0269409146	 0.1760917283	 0.136094
H	 3.1628091076	-1.205552614	 0.2246377235	 0.120107
H	 1.5498192794	 0.0193939117	 1.6124343206	 0.106639
H	-0.0188290533	-0.6255193063	 2.0854213537	 0.124193
