17
gdb 69109	2.51762	1.62882	1.21989	3.4576	72.88	-0.227	0.011	0.2379	1039.538	0.136819	-417.999585	-417.991308	-417.990364	-418.032349	31.509	
O	 0.158117624	 1.3722708344	-0.1354010592	-0.461449
C	 0.019381913	 0.0075980297	 0.0606705377	 0.377763
C	-0.3518883	-0.9424630445	-1.0429385062	-0.383931
C	-1.3170172347	-0.7521195598	 0.1311068142	 0.150014
N	-1.2859326996	-1.7645205965	 1.1773139478	-0.349523
C	 0.1408417177	-1.8757012335	 1.5701713294	-0.196907
C	 0.8396674389	-0.5413357345	 1.2112599801	-0.26408
C	-2.5503053742	-0.068786042	-0.1089418601	 0.192267
N	-3.5127402085	 0.543836898	-0.3075725264	-0.347278
H	-0.5410941778	 1.6878920898	-0.7192845673	 0.297045
H	-0.6696705027	-0.5000950639	-1.9813757691	 0.135915
H	 0.1411221707	-1.9033814777	-1.1478201642	 0.134498
H	-1.8227901138	-1.411436462	 1.964698906	 0.234215
H	 0.2149229189	-2.1225562946	 2.6308738881	 0.119597
H	 0.5954110196	-2.7043115511	 1.0176402267	 0.12233
H	 1.89355634	-0.6829158676	 0.9559653603	 0.118436
H	 0.7831479984	 0.1824276158	 2.0313491823	 0.121086
