17
gdb 29481	3.204	1.63759	1.09103	0.1477	82.59	-0.1687	0.0393	0.208	1075.8164	0.138803	-380.924769	-380.916886	-380.915941	-380.956733	30.638	
C	-0.018038449	 1.5363754551	 0.0157678526	-0.517357
C	-0.0064764395	 0.0392110627	 0.0205593909	 0.119056
C	-0.0280381221	-0.7925559987	-1.0826562187	-0.153412
N	-0.0077539174	-2.1220436264	-0.6935775327	-0.419178
C	 0.0274015605	-2.1683928335	 0.6812529704	 0.334234
C	 0.0286747325	-0.8500305842	 1.1340415789	 0.258829
N	 0.0639552454	-0.8940826212	 2.5107406674	-0.411601
C	 0.0845168829	-2.2190286466	 2.9064489114	-0.068892
C	 0.0625489834	-3.0441088328	 1.7994096049	-0.313747
H	 0.8737852329	 1.9570586423	 0.4978477994	 0.117333
H	-0.0488604983	 1.9232866784	-1.0069445916	 0.12109
H	-0.8886688558	 1.9434965593	 0.5458223583	 0.117282
H	-0.0567273338	-0.5295223826	-2.1289493718	 0.109089
H	-0.0180696157	-2.9053280277	-1.3200487335	 0.254041
H	 0.0736710408	-0.1088448985	 3.1351575588	 0.254977
H	 0.1132395633	-2.4749234063	 3.9537944042	 0.110855
H	 0.0713200498	-4.1223494793	 1.8181777711	 0.087402
