13
gdb 14635	10.00945	0.61375	0.58247	4.3212	84.94	-0.2479	-0.0241	0.2238	1811.1505	0.093622	-324.296643	-324.287707	-324.286762	-324.332961	29.156	
C	 0.005246851	 1.498999673	 0.0100506848	-0.519012
C	 0.0131859617	 0.0479917938	 0.0021714157	 0.265665
C	 0.0172441105	-1.1619361739	-0.0043736766	-0.198214
C	 0.0210097628	-2.5213756354	-0.0117199175	-0.189142
C	 0.0226106713	-3.730034846	-0.0182345187	 0.305337
C	 0.0426827625	-5.1877655759	-0.026266007	-0.508501
C	-1.2999327773	-5.7861176592	-0.0165740238	 0.282981
N	-2.3477863709	-6.2704980979	-0.0091034786	-0.297216
H	 1.0253548667	 1.8988285537	 0.0024928499	 0.160701
H	-0.5162270663	 1.8953812218	-0.8682417571	 0.162003
H	-0.4993767129	 1.8858584564	 0.9023210185	 0.162004
H	 0.5763321195	-5.5596619824	-0.9112053488	 0.186697
H	 0.5932105614	-5.5691010979	 0.8441985693	 0.186697
