21
gdb 116217	2.19721	1.55139	1.03875	1.2558	78.84	-0.2448	0.0741	0.3188	1218.2777	0.182541	-424.200184	-424.191227	-424.190283	-424.234666	33.454	
C	 0.1379585169	 1.3885810632	 0.1360530988	-0.237647
O	-0.1763852555	 0.0292455443	-0.0673518646	-0.238922
C	 0.5328188407	-0.5607284204	-1.1417248212	 0.003855
C	 2.0213742782	-0.8530828934	-0.8021329565	-0.098443
O	 2.306947879	-2.1452357066	-1.3093858002	-0.246347
C	 1.1264459864	-2.9135495354	-1.1184755734	-0.165626
C	-0.0138029775	-1.958947043	-1.4430646406	 0.333222
C	-1.4538094233	-2.3047992034	-1.2063550782	-0.304319
C	-0.931574775	-2.1926996085	-2.6166924122	-0.31368
H	 1.1838482598	 1.53603293	 0.4445890373	 0.10889
H	-0.0386985215	 1.9860376828	-0.772616858	 0.104627
H	-0.5136826749	 1.7557637363	 0.9326662642	 0.128846
H	 0.4534092075	 0.0930248752	-2.0237005722	 0.069037
H	 2.7321040535	-0.1552985041	-1.2515222924	 0.106546
H	 2.1295892642	-0.8206046119	 0.295109987	 0.093838
H	 1.1775478168	-3.7856685427	-1.7761126086	 0.10699
H	 1.0601595166	-3.2642736189	-0.0742517065	 0.090631
H	-1.678886896	-3.2938050594	-0.8191729902	 0.110121
H	-2.0912585088	-1.5162384117	-0.8245837475	 0.126919
H	-1.2330397677	-1.3325923336	-3.2065452508	 0.11152
H	-0.7997660794	-3.1036843689	-3.1922569643	 0.109945
