18
gdb 17455	3.45034	2.11976	1.67144	0.5237	70.88	-0.2249	0.0761	0.301	839.8691	0.154289	-343.904086	-343.896685	-343.895741	-343.935209	28.894	
C	-0.162125008	 1.476781091	-0.1250485255	-0.31305
N	 0.0950958211	 0.0511421201	 0.0239531597	-0.079095
C	 1.4135167029	-0.5197969067	-0.1643920832	-0.076844
C	 2.5481565135	 0.3163105415	 0.41232332	-0.121523
N	 3.1698160805	-0.3525185547	 1.561928014	-0.364373
C	 1.8809527299	 0.3230750458	 1.7657719212	 0.322102
C	 1.7878080053	 1.3791260902	 2.8284187851	-0.483655
C	 0.7382479733	-0.5189518105	 1.1940543141	-0.134684
H	 0.6502643375	 2.1296155977	 0.219490306	 0.113132
H	-0.3446926813	 1.686061209	-1.1839104058	 0.122799
H	-1.0710986216	 1.7299722392	 0.4297540578	 0.122425
H	 1.5251741186	-1.342784691	-0.8634529577	 0.09736
H	 3.1095913034	 1.1038558629	-0.0765383538	 0.099103
H	 3.0665886174	-1.3643894236	 1.5019047915	 0.225809
H	 2.7244499889	 1.9390020107	 2.8897639798	 0.133961
H	 0.9695045371	 2.0780593833	 2.63121812	 0.12042
H	 1.607443516	 0.9239251988	 3.8092385915	 0.123375
H	 0.2378380357	-1.3378642237	 1.7026135252	 0.092737
