16
gdb 16777	3.74315	1.84397	1.76163	0.7612	60.19	-0.2292	0.071	0.3002	816.6188	0.129611	-420.840579	-420.832916	-420.831972	-420.873493	27.442	
O	-0.4538112385	 1.5542752711	-0.0316624985	-0.405814
C	-0.1267022158	 0.1812907945	 0.0019039297	-0.099936
C	-1.4068692	-0.6435150478	 0.0139099928	 0.237057
O	-2.1935156018	-0.3312605276	 1.1542506202	-0.274822
C	-3.5028738838	-0.0452265212	 0.7297767245	 0.065571
C	-3.7016878313	 1.2411928243	-0.0456348387	-0.345045
C	-3.4936938925	-0.0810760561	-0.7555347654	 0.065536
O	-2.1793384374	-0.3869427736	-1.1496607991	-0.274831
H	 0.3624646083	 2.0606240823	-0.0454627217	 0.29317
H	 0.4566543578	-0.1266374524	-0.8793036646	 0.097612
H	 0.4470163111	-0.0852797258	 0.9027559141	 0.097553
H	-1.1313063776	-1.7128681476	 0.0414059194	 0.075261
H	-4.2714695255	-0.474228268	 1.3619227721	 0.104327
H	-4.7002849521	 1.6666760636	-0.0621665603	 0.108137
H	-2.8730223681	 1.9388041298	-0.0572654172	 0.151911
H	-4.2546141228	-0.5402484354	-1.3756558973	 0.104312
