14
gdb 42630	2.74859	1.77177	1.30962	2.8438	73.44	-0.2488	-0.0231	0.2257	950.2792	0.100264	-399.46875	-399.461587	-399.460643	-399.500289	27.779	
O	-0.0112876054	 0.0577920581	 0.0470507602	-0.316968
C	-0.0216715222	 1.249631337	 0.0996841992	 0.448971
C	-1.061279971	 2.3150676448	 0.0462983403	-0.194981
C	-0.4569337251	 3.5252330914	 0.694765142	-0.028681
C	 0.9211284293	 3.1925214477	 1.2407967811	-0.289517
C	 1.0635650976	 2.3475910933	-0.0528085532	 0.076185
C	 2.3069143771	 2.1098370669	-0.7049215085	 0.089837
C	 3.3591823801	 1.8936612642	-1.2448473747	-0.325576
N	-0.0959085814	 3.2288003992	-0.7132375473	-0.167257
H	-2.1077230188	 2.2403678509	-0.2173875238	 0.130979
H	-1.0840275024	 4.374859676	 0.9398026893	 0.120766
H	 1.5728358573	 4.0680706164	 1.208396214	 0.135663
H	 1.0261514751	 2.6749361359	 2.197981268	 0.123628
H	 4.2846931096	 1.696724798	-1.7275481366	 0.196952
