19
gdb 30920	1.91855	1.87123	1.01183	0.5687	80.1	-0.1759	0.0491	0.2249	1192.703	0.159026	-419.223044	-419.213118	-419.212174	-419.258481	35.352	
C	 0.3061091541	-0.3938700229	 1.2403756385	-0.324613
N	-0.217156986	-0.1484706595	-0.1111449239	-0.389799
C	 0.5923678152	-0.6086023334	-1.1652040446	 0.181792
C	 0.7941722047	-1.8727484519	-1.6833569433	 0.256693
O	 0.1764808797	-2.9860689821	-1.1744262278	-0.461582
C	 1.689386081	-1.7712817915	-2.7772534235	-0.306125
C	 2.016301127	-0.4342011531	-2.8942483681	-0.091703
N	 1.3525519672	 0.2687250954	-1.9316546724	-0.014219
C	 1.4491192609	 1.6931552613	-1.6988787073	-0.339945
H	 0.4914438881	-1.4565343966	 1.4518092249	 0.120903
H	 1.2484331168	 0.1475693344	 1.3669092169	 0.121609
H	-0.4066801726	-0.0070004766	 1.9757301599	 0.111113
H	-1.1485797696	-0.5404216971	-0.191107552	 0.234055
H	 0.425820372	-3.7420244123	-1.712798807	 0.293411
H	 2.0479723798	-2.5730651739	-3.4058171183	 0.085452
H	 2.6748836315	 0.0658145951	-3.5865515335	 0.110149
H	 1.4447986944	 2.2293860727	-2.6517721818	 0.129862
H	 0.5862867529	 1.9989389522	-1.105271867	 0.156199
H	 2.3628675229	 1.9571268897	-1.1525233598	 0.126748
