13
gdb 28397	3.32121	1.45403	1.01238	1.1914	66.28	-0.2102	-0.0466	0.1637	1066.1198	0.09028	-489.950435	-489.94294	-489.941996	-489.982273	28.483	
N	 0.0013593554	 1.4014208975	 0.1495470888	-0.585864
C	-0.060220008	 0.0163977287	 0.0468238235	 0.120264
C	-1.1893269789	-0.7448379024	 0.0182729903	-0.082035
N	-1.1915696225	-2.1223914494	-0.0145935535	-0.336306
C	-0.0468795442	-2.6839741146	-0.0184506954	 0.497584
O	 0.0817149949	-4.0103954102	-0.0384957507	-0.385042
O	 1.1498810714	-2.0564454737	-0.007226352	-0.250719
C	 1.2273258456	-0.6560331244	 0.0138643184	 0.414937
O	 2.3141745064	-0.1428021762	-0.0063638592	-0.348822
H	 0.8988735852	 1.7701603807	-0.1353571573	 0.266923
H	-0.7756641799	 1.9015573758	-0.2564593415	 0.253514
H	-2.171233037	-0.2808698138	 0.0237629533	 0.116021
H	 1.0236141315	-4.224781128	-0.0410473448	 0.319545
