17
gdb 131604	4.23794	0.97457	0.85905	3.9199	70.41	-0.2322	0.0263	0.2586	1318.1139	0.137614	-455.155763	-455.147242	-455.146298	-455.189604	31.32	
O	-0.1330044911	 1.4178592467	-0.2260535831	-0.43068
C	-0.0190034406	 0.0479142785	 0.1476974176	-0.099921
C	-1.4214934667	-0.549575847	-0.013729284	 0.014329
O	-1.8856227102	-0.3176271305	-1.3350926748	-0.453511
C	-1.4202436213	-2.0277035237	 0.2229556522	 0.379278
C	-1.2979474913	-2.8059540557	 1.3592183587	-0.331787
C	-1.3278499427	-4.134052508	 0.882518109	-0.002016
N	-1.463362799	-4.1862820759	-0.4404815191	-0.234815
N	-1.5068396698	-2.8946225539	-0.8137366719	-0.228685
H	 0.746773771	 1.7728646416	-0.3796390084	 0.299071
H	 0.6758713467	-0.4915564491	-0.5105575824	 0.104477
H	 0.3222094833	-0.0641981731	 1.1859776423	 0.105268
H	-2.0827615251	-0.0568887764	 0.7165278472	 0.094922
H	-1.5997434177	 0.5797047116	-1.5508804729	 0.295952
H	-1.2081588212	-2.4648198143	 2.3781154076	 0.098541
H	-1.261262077	-5.0507866805	 1.4500222792	 0.109201
H	-1.6532229673	-2.6371228303	-1.7756815172	 0.280375
