17
gdb 115045	2.07935	1.65495	1.00795	2.5386	68.84	-0.2258	-0.029	0.1968	1143.3623	0.136377	-455.151972	-455.143392	-455.142448	-455.185742	31.028	
O	-0.0171431017	 1.3712180624	-0.6456918457	-0.421089
C	 0.1016037374	-0.0270424944	-0.3900228214	-0.096516
C	-1.2550186157	-0.6052501929	 0.0452129587	-0.030349
N	-2.3000960144	-0.2146539764	-0.9194438434	-0.292331
C	-2.5297000226	-1.3239078039	-1.7103782463	 0.064185
N	-2.0943062642	-2.4527360297	-1.2956109178	-0.27053
C	-1.4064785356	-2.1581737444	-0.0237026413	-0.076159
C	-0.1542713801	-3.0016101923	 0.1219079431	 0.149868
O	 0.8259606735	-2.6828955089	 0.7470327522	-0.255236
H	-0.0558216701	 1.825892716	 0.2020898324	 0.288192
H	 0.4120872595	-0.4772653501	-1.3388284291	 0.119815
H	 0.8709980347	-0.2474775901	 0.3550981076	 0.131061
H	-1.5017911481	-0.2267492996	 1.0425371753	 0.085419
H	-2.1531490419	 0.6821969198	-1.3664186216	 0.250097
H	-3.1010997951	-1.2109978195	-2.6275323333	 0.12939
H	-2.0623707092	-2.4925144167	 0.7995307709	 0.119706
H	-0.2324662264	-3.9850348592	-0.3885164102	 0.104477
