13
gdb 1155	3.35412	2.25246	1.91282	4.3801	58.13	-0.3385	-0.0115	0.327	730.2332	0.10053	-303.527274	-303.519632	-303.518688	-303.5586	26.766	
C	-0.0288034785	 1.5480214877	-0.0057011028	-0.398192
C	 0.0029565994	-0.0028885798	 0.0034634405	-0.078679
C	 0.7500141	-0.5361415884	 1.2540435095	-0.398193
C	-1.379932893	-0.5180748443	 0.0062940361	 0.300192
N	-2.4692276818	-0.8989431002	 0.0476778708	-0.318493
C	 0.6864098602	-0.4827803335	-1.2132534624	 0.300187
N	 1.2590420739	-0.8369752089	-2.1513232504	-0.318489
H	 0.9939707845	 1.9315116367	-0.0132134954	 0.148052
H	-0.5543329423	 1.9226387872	-0.8856783575	 0.159736
H	-0.5393942686	 1.9053453175	 0.8914075279	 0.148047
H	 0.2425672806	-0.1864757535	 2.1559415409	 0.148052
H	 0.7720011323	-1.6271779216	 1.2600659766	 0.159735
H	 1.7757402434	-0.1605563389	 1.2509902262	 0.148046
