16
gdb 49854	3.14155	1.3444	1.08285	2.0225	68.88	-0.2536	-0.0432	0.2104	1087.2236	0.123857	-437.888183	-437.880449	-437.879505	-437.921098	28.712	
O	-0.6107121715	 0.8849929355	-0.6500577048	-0.235074
C	 0.1094225816	 1.0815692792	 0.2940239692	 0.157681
C	 1.395780942	 1.887445881	 0.2382989046	-0.067875
C	 1.6815950423	 2.5866521473	-1.095695603	-0.378025
C	 2.243425063	 3.9559868971	-0.6852446812	 0.421331
O	 2.9047166837	 4.6954855012	-1.3649106224	-0.315815
C	 1.8733815266	 4.1719025154	 0.7552617	-0.135609
C	 0.4202222249	 3.9982266001	 1.0587695932	-0.252956
N	 1.3609041379	 2.9128404127	 1.3333851178	-0.11548
H	-0.1322351719	 0.6904186585	 1.3056759686	 0.102467
H	 2.2138549394	 1.2044669069	 0.5035926907	 0.116058
H	 2.4089544319	 2.0595671633	-1.7145487921	 0.145603
H	 0.7747149073	 2.7030085785	-1.6987650698	 0.156708
H	 2.5014282165	 4.8084901127	 1.3682993673	 0.122388
H	 0.0156087412	 4.4841974748	 1.9407224092	 0.139387
H	-0.2757942549	 3.9053661358	 0.2283174128	 0.139212
