21
gdb 103612	2.61988	1.18658	1.0487	1.4326	79.13	-0.2265	-0.0251	0.2014	1288.5604	0.179681	-424.242017	-424.231745	-424.230801	-424.277371	37.601	
C	 0.1655242903	 1.5267701617	 0.0908689411	-0.411911
C	 0.0595586989	-0.000492871	-0.0024121782	-0.236185
C	-1.3767811391	-0.5114155253	 0.0259014285	 0.307224
O	-2.1743816923	 0.0094865577	-1.0371377729	-0.481757
C	-1.6221355217	-2.0453143836	 0.0966313437	-0.291577
C	-2.6687267696	-1.8579603034	 1.2442927429	-0.085258
C	-2.6146322074	-2.7327330912	 2.4895236825	-0.409956
C	-2.168608095	-0.4100463504	 1.3636111752	 0.34003
O	-2.2725643679	 0.4427705249	 2.2011409251	-0.312778
H	 1.2121315813	 1.8434153151	 0.1112328425	 0.118346
H	-0.2981212345	 2.0108290982	-0.7758165922	 0.110997
H	-0.3227270214	 1.8972543348	 0.9965814135	 0.147753
H	 0.5303092988	-0.3584937897	-0.9268819302	 0.106103
H	 0.6070068456	-0.4589673009	 0.8303746221	 0.098762
H	-2.2666687297	 0.9586983487	-0.8970690374	 0.289707
H	-1.9916359795	-2.4787430792	-0.8328570713	 0.117222
H	-0.7335846558	-2.5883152776	 0.4299514987	 0.104973
H	-3.6838621286	-1.8437092667	 0.8295043277	 0.113876
H	-1.602584212	-2.7636598192	 2.9070711179	 0.118289
H	-3.2823315763	-2.3426657345	 3.2635494727	 0.135041
H	-2.9175908842	-3.7599397985	 2.2636023181	 0.121098
