19
gdb 73513	3.0174	1.73066	1.35325	1.3717	81.86	-0.2104	0.0103	0.2208	997.6516	0.159646	-385.836299	-385.828703	-385.827759	-385.867817	30.847	
C	-0.0478089306	 1.6520528651	-0.2595751709	-0.443044
C	-0.0272794276	 0.1524013231	 0.0238102516	 0.377002
O	 0.9731309801	-0.4411077735	-0.8059121181	-0.324974
C	 2.1161872285	-0.6720635561	 0.0443110841	-0.125327
C	 1.5267878918	-0.9005387261	 1.4311354418	-0.246694
C	 0.2874393685	-0.4174985074	 1.3989616105	 0.196308
C	-1.0875905813	-0.8963887008	 1.6827840405	-0.132508
C	-2.1732692805	 0.0696588954	 1.2955406546	-0.297234
C	-1.402149465	-0.5673621117	 0.1785194288	-0.112986
H	 0.946264174	 2.0752026725	-0.0869244681	 0.122514
H	-0.3060954962	 1.8172471429	-1.3103524313	 0.12498
H	-0.7584075159	 2.2029615756	 0.3592981244	 0.111595
H	 2.6324105686	-1.5664044193	-0.3225826053	 0.112119
H	 2.8231113964	 0.1709027719	-0.0237712106	 0.096706
H	 1.9551907164	-1.5871087627	 2.1500767432	 0.097079
H	-1.3087528839	-1.8025339043	 2.2329519508	 0.099994
H	-3.1778896571	-0.3176269104	 1.438846727	 0.120157
H	-2.0865819553	 1.1291513186	 1.5125988657	 0.118548
H	-1.8471674609	-1.2320795831	-0.5511980788	 0.105765
