17
gdb 108459	2.26731	1.68567	1.27431	2.7622	68.12	-0.238	-0.0406	0.1974	1036.6454	0.134834	-458.934783	-458.926413	-458.925469	-458.968223	30.867	
O	 0.5601773801	 0.5145201114	-0.6022279099	-0.419763
C	-0.2976564905	 0.3310420291	 0.5107057353	-0.180098
C	-1.5084887556	-0.4921319882	 0.1409772787	 0.31744
O	-2.4957117295	-0.5803757887	 1.19602689	-0.324112
C	-2.5359737713	-2.0292418552	 1.1120866583	-0.084134
C	-1.6428969916	-2.0351981718	-0.1334838112	-0.147267
C	-2.4103363461	-1.752816714	-1.4558097977	-0.363
C	-2.188625673	-0.2432124644	-1.2283344594	 0.374234
O	-2.3436232991	 0.7363640824	-1.8999226611	-0.307016
H	 0.0996698996	 1.0876270159	-1.2260323778	 0.300482
H	 0.2862623157	-0.1755679406	 1.2859646858	 0.120384
H	-0.6487561751	 1.2840809012	 0.9353139655	 0.115153
H	-2.0889269	-2.4819734766	 2.0051033725	 0.111717
H	-3.5568064786	-2.4084178423	 0.9873805752	 0.109919
H	-0.7943968373	-2.7131511456	-0.1816097275	 0.099814
H	-1.9029435649	-2.0983765169	-2.3615627682	 0.142302
H	-3.4524470826	-2.0832983057	-1.4943535186	 0.133944
