18
gdb 36578	2.87676	0.91862	0.76246	4.1944	83.19	-0.2577	0.0307	0.2884	1480.1947	0.146033	-364.786597	-364.777199	-364.776255	-364.821343	34.495	
C	 0.2306906385	-1.2339228437	-0.0811238099	-0.468875
C	 0.1432355805	-0.0340866031	-0.0500000105	 0.285924
C	 0.0072981204	 1.3990891246	-0.0334708112	 0.162674
C	-1.112877268	 1.9525777128	-0.9068495735	-0.275012
C	-2.4981254635	 1.4383275775	-0.4623542285	-0.337801
C	-3.580076754	 1.9625548215	-1.2908696355	 0.256365
N	-4.423465891	 2.3902176809	-1.9552546177	-0.306519
C	 0.3288185502	 2.1250422179	 1.2682020334	-0.291119
C	 1.2759334371	 2.2263891886	 0.1088080386	-0.309216
H	 0.3201316929	-2.2918514475	-0.1045630068	 0.199443
H	-1.0989468982	 3.0461134676	-0.8613314025	 0.118832
H	-0.9424753001	 1.6721630263	-1.951271659	 0.131941
H	-2.5158053665	 0.3438981653	-0.5038282382	 0.167096
H	-2.687145588	 1.7179418523	 0.5803488629	 0.151876
H	-0.2800765863	 2.9893607579	 1.512107555	 0.122371
H	 0.6197362708	 1.5211476932	 2.1189303779	 0.133168
H	 2.2143148274	 1.6883535644	 0.1644469302	 0.13381
H	 1.318897478	 3.1586196633	-0.4439468448	 0.125043
