21
gdb 114386	3.26505	1.02824	0.95049	1.3909	78.93	-0.2409	0.0752	0.3161	1322.2412	0.180998	-424.182141	-424.172604	-424.17166	-424.216143	36.534	
C	 0.4151668869	 1.7638180984	-0.6891078011	-0.461562
C	 0.4214654491	 0.2748501725	-0.4210319235	 0.413183
O	-0.748877823	-0.3558410205	-0.9024641418	-0.47201
C	 1.6315618519	-0.6176602986	-0.4945133866	-0.126946
C	 2.8736171821	 0.0264664139	 0.1376536471	-0.275334
C	 2.1172198595	 0.1002098054	 1.5075700647	 0.03784
C	 2.08073163	 1.3843543402	 2.3171416314	-0.108915
O	 3.3949367544	 1.6030566298	 2.8166649872	-0.422453
C	 0.8529437109	-0.4394501123	 0.831577563	-0.135267
H	 1.3441920338	 2.2532960527	-0.3943253922	 0.124158
H	 0.2810269238	 1.9444369323	-1.763678729	 0.101677
H	-0.4158211289	 2.2461920709	-0.1646426923	 0.123622
H	-0.7277944081	-0.310335868	-1.8648608589	 0.278665
H	 1.6328691016	-1.4783476988	-1.1533591042	 0.082406
H	 3.7383317283	-0.6380192851	 0.1745350437	 0.108247
H	 3.1984289455	 0.9784316489	-0.2940088262	 0.097184
H	 2.5217144135	-0.675851927	 2.1652737179	 0.089587
H	 1.7469860323	 2.2339853341	 1.7056553229	 0.084268
H	 1.3532725892	 1.2700008434	 3.1383515151	 0.084676
H	 3.3977333559	 2.4310928586	 3.305350502	 0.285781
H	 0.1493134714	-1.1251085509	 1.289109551	 0.091195
