19
gdb 96203	2.71916	1.35816	0.95387	0.8004	86.83	-0.2299	-0.019	0.2108	1233.1801	0.158759	-385.869771	-385.860964	-385.86002	-385.903048	33.669	
C	-0.06393961	 1.5485167759	-0.0207273633	-0.405835
C	 0.0261420709	 0.0174685959	 0.0216280214	-0.105002
C	 0.7301626835	-0.5148204369	-1.2325238609	-0.087802
O	 0.9790914689	-1.905820215	-1.1566228344	-0.246977
C	 1.9042339203	-2.2238095441	-0.1396101291	-0.122975
C	 1.6359680215	-1.5122356564	 1.1531211444	-0.175609
C	 0.758917307	-0.5012274237	 1.2565685998	 0.147026
C	 0.4785508529	 0.1027654566	 2.5149571652	 0.23908
C	 0.2122505699	 0.6260932469	 3.5677076361	-0.420809
H	 0.9335255974	 2.0012390395	-0.0354901511	 0.11908
H	-0.5982220637	 1.8755372422	-0.9188790533	 0.113298
H	-0.5935675949	 1.9357730447	 0.8523667806	 0.134166
H	-0.9952653741	-0.3872032479	 0.0406653607	 0.098419
H	 0.1062722498	-0.3618459295	-2.1179041592	 0.108711
H	 1.6738984497	 0.0371652437	-1.3841772778	 0.087007
H	 1.8399149869	-3.308881007	 0.0085728789	 0.123257
H	 2.9390881509	-2.0132170871	-0.4721041199	 0.101404
H	 2.1793611593	-1.858458524	 2.0272831451	 0.101078
H	-0.011521386	 1.0793252962	 4.5014255169	 0.192483
