21
gdb 88198	3.29323	1.23261	1.05742	0.2704	79.37	-0.2335	0.0917	0.3252	1222.1972	0.183244	-424.210682	-424.202205	-424.201261	-424.243429	33.226	
C	-0.0929212634	 1.5102559211	-0.1144287478	-0.416335
C	 0.0319732795	 0.0105016023	 0.0470912649	-0.071501
C	 1.3541378879	-0.7092091482	-0.1597192087	-0.35163
C	 0.7155477172	-0.6390426437	 1.2089715159	 0.424314
C	 1.3601409273	 0.1321920799	 2.3379287159	-0.15037
O	 2.2728982786	-0.6918290503	 3.0539389078	-0.250571
C	 1.631117684	-1.8612241381	 3.5348000571	-0.075612
C	 1.0020094181	-2.6371071365	 2.3830958434	-0.091469
O	 0.0840090034	-1.8086729486	 1.6768454964	-0.2967
H	 0.813825344	 2.0342123866	 0.202653491	 0.116352
H	-0.2655856378	 1.7686855333	-1.1647068024	 0.121573
H	-0.9305516995	 1.9091818207	 0.4682182605	 0.121902
H	-0.8360967169	-0.5524919207	-0.2865326727	 0.097776
H	 1.3360245705	-1.6654094295	-0.6703443467	 0.115542
H	 2.2401930519	-0.1091328719	-0.3436209896	 0.110763
H	 1.936396997	 0.9840228999	 1.9708625372	 0.106069
H	 0.5777565713	 0.5034160312	 3.0213963611	 0.090896
H	 2.3960225306	-2.4591123319	 4.0398514333	 0.106552
H	 0.8501527409	-1.5952367866	 4.2669152274	 0.091082
H	 1.7905940551	-2.9946871241	 1.7036094983	 0.096657
H	 0.4329104801	-3.4964636349	 2.7504398776	 0.104712
