11
gdb 21782	5.73686	1.64653	1.27935	3.738	60.1	-0.2558	-0.1066	0.1492	848.5008	0.07295	-393.584376	-393.578168	-393.577224	-393.615181	21.62	
O	-0.0667225588	-0.016764753	-0.0015295639	-0.223681
C	 0.0064922202	 1.1819812411	 0.0077490787	 0.11455
C	 1.2836254614	 1.9625878768	 0.0007853384	 0.23184
C	 1.260833015	 3.3590258843	 0.0123159271	-0.029002
N	 2.3864064423	 4.0623942258	 0.0060256421	-0.229519
C	 3.4945134575	 3.3186188515	-0.0120730386	 0.12265
N	 3.5698710263	 1.9811520532	-0.0229411468	-0.166547
N	 2.4426524368	 1.2914821681	-0.0166721876	-0.202649
H	-0.9017023007	 1.8256196415	 0.0224457283	 0.087513
H	 0.3215408902	 3.9094362241	 0.0264894844	 0.142575
H	 4.4474026999	 3.8393302967	-0.0164985922	 0.152271
