13
gdb 12615	3.16323	2.1856	1.35108	3.8648	54.92	-0.2565	-0.0425	0.214	836.7211	0.095489	-435.783362	-435.776208	-435.775264	-435.814955	26.058	
O	 0.2354019999	 1.3248592041	 0.4255981268	-0.419646
C	-0.0054419573	 0.0113078596	 0.0402445096	-0.053428
C	-1.4711488085	-0.3743185228	-0.1624500699	 0.362041
O	-2.4400693528	 0.0656019997	 0.3843348281	-0.273633
C	-1.4785699621	-1.4572201672	-1.2646461203	-0.276549
N	-0.1821165955	-1.2760763813	-1.9032906948	-0.325223
C	 0.6207929037	-0.3474634638	-1.3111655337	 0.380249
O	 1.6405634175	 0.1452876153	-1.7430375221	-0.380239
H	 1.0283892948	 1.5946875822	-0.0623489007	 0.301847
H	 0.3920401545	-0.7193238563	 0.7742374128	 0.122979
H	-1.5982287762	-2.4535735372	-0.8190410838	 0.144902
H	-2.3161775533	-1.2859294792	-1.9480699291	 0.151818
H	 0.0322654753	-1.623976153	-2.8253904529	 0.264881
