16
gdb 102856	1.71429	1.37642	0.83666	4.7585	66.73	-0.2945	-0.0104	0.2842	1329.4601	0.122129	-475.0513	-475.041701	-475.040757	-475.087002	32.693	
O	 0.1496961479	 1.4853201287	 0.0497407128	-0.411346
C	 0.1338712294	 0.0788790315	 0.1527885525	-0.079948
C	-1.2838615763	-0.4834948422	 0.0267967219	 0.072267
C	-2.221823323	 0.0984347864	 1.1008981829	-0.332292
C	-3.5743718186	-0.4386698998	 0.9996853385	 0.258868
N	-4.6321280682	-0.89259678	 0.8988428698	-0.298566
O	-1.7557286001	-0.0933411746	-1.2700178459	-0.210599
C	-2.3880454994	-1.0090454137	-2.0480110245	 0.177621
O	-2.7661772287	-0.7505456577	-3.1465210815	-0.258846
H	-0.1808615576	 1.7087633721	-0.8285750946	 0.303013
H	 0.7652646876	-0.3975250054	-0.6111149026	 0.112479
H	 0.5448304799	-0.1737267268	 1.1356704147	 0.122428
H	-1.2588018857	-1.5781817949	 0.1015461638	 0.108149
H	-1.819686336	-0.1285530748	 2.0942789622	 0.159219
H	-2.2392241703	 1.1869350266	 0.9974199692	 0.178057
H	-2.4957626008	-1.9904155254	-1.5511434891	 0.099497
