23
gdb 100838	3.55141	0.75494	0.65705	3.1056	83.85	-0.2476	-0.019	0.2287	1737.764	0.201358	-425.432698	-425.421208	-425.420264	-425.470387	40.025	
C	-0.1818747712	 1.3628721387	-0.0089028777	-0.239438
O	 0.0284459963	-0.0292810112	-0.0097402255	-0.247601
C	 0.7028085459	-0.5384565357	 1.1375895539	 0.145296
C	-0.2762893936	-0.6972479825	 2.3049902717	-0.414874
C	 1.3660654353	-1.8555365178	 0.6869814683	 0.003055
C	 2.3477136654	-1.6047653193	-0.4674278131	-0.403943
C	 2.065395461	-2.5860079213	 1.85079299	-0.291408
C	 2.5926975625	-3.9425426939	 1.4394476145	 0.163211
O	 3.7070971625	-4.3482915506	 1.6445105982	-0.244159
H	 0.7648233027	 1.9171419058	 0.0872489281	 0.105754
H	-0.6429012085	 1.6181614722	-0.9664453868	 0.128553
H	-0.8549136663	 1.6922263098	 0.7964684971	 0.106299
H	 1.4989668358	 0.1695304028	 1.4281179709	 0.063324
H	-1.0124821444	-1.4779581571	 2.0866864736	 0.122193
H	 0.2384325737	-0.9495769556	 3.2359395802	 0.120912
H	-0.8181536601	 0.2360215414	 2.4814248185	 0.11984
H	 0.5527687764	-2.4978899379	 0.3190185885	 0.085652
H	 3.1917426279	-0.9901977547	-0.1319598209	 0.114323
H	 2.7603915104	-2.5428916012	-0.8519162876	 0.119427
H	 1.8485038114	-1.0856087835	-1.2864534766	 0.135126
H	 2.8945225218	-1.9994718867	 2.2606826527	 0.117195
H	 1.3492309224	-2.7729998742	 2.662171979	 0.120703
H	 1.8382812927	-4.5814652075	 0.9200286328	 0.070559
