25
gdb 115340	3.10109	1.04467	0.88186	1.5527	88.59	-0.2369	0.0778	0.3148	1459.7383	0.228748	-389.511434	-389.501111	-389.500167	-389.546562	38.704	
C	-0.382926673	 1.7838868588	 0.314248463	-0.387848
C	-0.0976518005	 0.2797596004	 0.4035565278	-0.20853
C	-1.2309866451	-0.5821390797	-0.1589302274	 0.01751
C	-1.4549247075	-0.4367031438	-1.6818532338	-0.074547
O	-1.9185477973	-1.697107752	-2.1600786839	-0.278752
C	-2.1329582266	-2.5726763631	-1.0495942251	 0.151993
C	-2.0702044927	-4.0072363558	-1.5467479872	-0.410821
C	-1.1044619771	-2.1192515145	 0.0071210321	-0.039754
C	 0.306814021	-2.6657301527	-0.2367832026	-0.401271
H	 0.4360793628	 2.367319978	 0.7460272115	 0.112854
H	-0.5075604412	 2.109044983	-0.7241090374	 0.121334
H	-1.2996649973	 2.0455107758	 0.854530218	 0.114697
H	 0.8349340346	 0.0573856545	-0.1287094407	 0.1
H	 0.0737425659	 0.0072862735	 1.4528973872	 0.094825
H	-2.1588692074	-0.284052676	 0.3481008971	 0.070628
H	-2.1873789858	 0.3461045311	-1.9186504739	 0.093508
H	-0.5209685885	-0.186330693	-2.2052113727	 0.092296
H	-3.1417065212	-2.3929427728	-0.6357699856	 0.056051
H	-1.1035953247	-4.2269255097	-2.0065600855	 0.123061
H	-2.2372623692	-4.7081828694	-0.7224460748	 0.110261
H	-2.8465197442	-4.174226515	-2.2987994884	 0.123825
H	-1.4343592695	-2.4193692739	 1.0082958845	 0.065043
H	 0.6643109305	-2.4287284108	-1.2440547002	 0.126113
H	 1.0196476675	-2.2489947246	 0.4802111782	 0.11332
H	 0.3301609765	-3.7535351285	-0.1240556599	 0.114201
