18
gdb 15155	8.45067	0.71283	0.69754	0.8754	78.36	-0.241	0.043	0.2839	1658.3229	0.151233	-347.750002	-347.74062	-347.739676	-347.785962	32.03	
C	-0.0301805242	 1.4565539689	-0.073240541	-0.498564
C	-0.1077839409	 0.0116232194	 0.0809001222	 0.126732
C	-0.1780553264	-1.1833075403	 0.2025542951	 0.007229
C	-0.242165587	-2.627790643	 0.3700331774	-0.209298
O	-1.2805429846	-3.1676399666	-0.4399922247	-0.248554
C	-1.3933889044	-4.5496247489	-0.3041112531	 0.163395
C	-2.1941791003	-5.1140300172	 0.8437460087	-0.288822
C	-2.7412234499	-5.1311580602	-0.5713388518	-0.288276
H	 0.9623101552	 1.7696289307	-0.4155037134	 0.148141
H	-0.760552685	 1.8103641744	-0.8091611667	 0.153251
H	-0.2357110446	 1.9720042967	 0.8713710688	 0.147799
H	 0.7248314325	-3.0820160304	 0.0946732299	 0.112826
H	-0.418672855	-2.8812028399	 1.427731695	 0.116534
H	-0.513540317	-5.1066310453	-0.6313492844	 0.081711
H	-1.8774660361	-6.0472441761	 1.2964200064	 0.112099
H	-2.6360254163	-4.399446932	 1.5293118581	 0.121191
H	-3.5303809879	-4.4252151337	-0.8027723223	 0.128647
H	-2.801883208	-6.0750818165	-1.100851244	 0.11396
