17
gdb 75260	2.90963	1.74531	1.36157	2.1616	73.07	-0.2268	0.0173	0.2442	970.2635	0.137905	-417.967815	-417.960575	-417.959631	-417.999018	29.374	
N	-0.057586821	 1.3717944911	-0.0578519996	-0.575779
C	-0.0631160655	 0.0023571826	 0.0266530228	 0.316694
N	-1.1175048506	-0.7001930419	 0.2495297317	-0.297991
C	-0.8095209999	-2.1350242195	 0.0762576633	-0.240227
C	 0.6918918962	-2.2014863093	-0.1576546425	 0.272146
C	 1.6527531676	-2.6135333098	-1.2974541045	-0.287511
C	 2.1645810804	-1.1259855097	-1.3457357747	-0.301516
C	 1.1733840286	-0.8117602061	-0.2054314142	 0.185795
O	 1.4734680692	-1.6663510221	 0.9074624663	-0.283729
H	 0.781932761	 1.836572248	 0.252121289	 0.257465
H	-0.9134615158	 1.8118381611	 0.2502205122	 0.259425
H	-1.1329297106	-2.6952094033	 0.9600813095	 0.120306
H	-1.3614217126	-2.5351200483	-0.783587191	 0.110266
H	 2.3817103699	-3.3833581761	-1.036905536	 0.1154
H	 1.1273526436	-2.9015502121	-2.2104478051	 0.114924
H	 3.2168627584	-0.9502495559	-1.1134389586	 0.113987
H	 1.9073173312	-0.6248993286	-2.2807849188	 0.120344
