18
gdb 78948	2.49963	2.15366	1.60058	1.8596	73.33	-0.2313	0.0745	0.3058	898.392	0.14823	-401.864954	-401.857733	-401.856789	-401.896112	29.519	
C	 0.000314896	 1.4919527847	-0.0157191051	-0.506561
C	-0.0398826379	 0.0011296243	 0.1466731371	 0.304252
C	-1.3193136806	-0.8134868364	 0.4262703683	 0.12833
O	-2.272317356	-0.9790846859	-0.5846952961	-0.447186
C	-0.3413021205	-1.9564594456	 0.7965967254	-0.125952
C	 0.5048914327	-2.1745971179	-0.4713158695	-0.066513
C	 1.6436721643	-1.3604101164	 0.0034476979	-0.057206
C	 0.7521044948	-0.8726496548	 1.174260839	-0.133307
N	 0.6842507201	-0.7591357611	-0.9735820362	-0.199526
H	 1.026310683	 1.8456631732	-0.1589128137	 0.124639
H	-0.5839236027	 1.7908186287	-0.892869606	 0.131758
H	-0.4192402445	 1.9926997402	 0.8626399557	 0.117149
H	-1.8382927639	-0.4345729823	 1.3135467921	 0.089923
H	-1.7899265262	-1.1577242135	-1.4010427233	 0.29393
H	-0.6078977299	-2.8066208625	 1.4203766859	 0.074918
H	 0.464426188	-2.9665606148	-1.2085541315	 0.098825
H	 2.7113867472	-1.4192969836	-0.1706180825	 0.097328
H	 1.0258902361	-0.5949132564	 2.1878873925	 0.075198
