16
gdb 42441	2.87594	0.96304	0.79957	2.2781	71.98	-0.2529	0.0082	0.2611	1413.8754	0.122421	-437.85199	-437.842815	-437.84187	-437.887394	32.388	
O	-0.0931412779	 0.6059623427	 1.2232525253	-0.381912
C	-0.0580615636	 1.1677406928	 0.1431716992	 0.387106
N	 1.0678780541	 1.4001065662	-0.5800227999	-0.318856
C	 2.387904136	 1.0373445605	-0.0913261391	-0.295869
C	 3.3332515232	 2.1482689311	-0.1624544252	 0.288686
C	 4.1119729658	 3.059045248	-0.2468050291	-0.442071
C	-1.3165372579	 1.6964848095	-0.503536236	-0.019606
C	-1.4804455537	 3.1410908339	-0.7388591399	-0.166898
O	-1.2012556886	 2.2482415086	-1.8185035722	-0.236815
H	 0.9613848141	 1.8288691328	-1.4873303298	 0.267906
H	 2.2476228019	 0.7043467128	 0.942306523	 0.176993
H	 2.7850822594	 0.1802929415	-0.6520788101	 0.142349
H	 4.803716255	 3.8627321393	-0.3061568365	 0.204633
H	-2.1979497713	 1.0879211492	-0.3169211846	 0.127345
H	-2.480116627	 3.5704285052	-0.7354474598	 0.133992
H	-0.6711278496	 3.8175229161	-0.4712832453	 0.133018
