19
gdb 34852	3.80744	1.22548	1.13957	0.6028	81.19	-0.2534	0.0498	0.3032	1124.6204	0.160685	-385.842767	-385.835068	-385.834124	-385.874715	30.787	
C	-0.0441146101	-1.1825593082	-0.0722056025	-0.408902
C	-0.0221651601	 0.0194166853	-0.024721709	 0.279421
C	 0.0071154501	 1.466947911	 0.0357977129	-0.19898
C	-0.107803475	 2.0739535936	 1.4768756899	-0.04076
C	 1.435739261	 1.9385965741	 1.5922889386	-0.232565
C	 1.4404451332	 2.1024019598	 0.0471962876	-0.040764
C	 1.3020396245	 3.5913740054	-0.2899344431	-0.075897
O	 0.5837636469	 4.2939685797	 0.7165244935	-0.261999
C	-0.4623583013	 3.5589536843	 1.3393426019	-0.075896
H	-0.0685629542	-2.2429562456	-0.1195436646	 0.189787
H	-0.6843672793	 1.8877686091	-0.704657897	 0.090799
H	-0.7558140603	 1.5660708655	 2.1933475843	 0.078651
H	 1.9680967728	 2.6861672802	 2.1836724277	 0.106809
H	 1.7318929503	 0.9328747788	 1.8929919559	 0.115204
H	 2.2159843592	 1.6206775566	-0.5508630739	 0.07865
H	 2.2857832155	 4.071129389	-0.3390490041	 0.108656
H	 0.819440719	 3.710801129	-1.2745125664	 0.089564
H	-1.4077347489	 3.669877741	 0.782101357	 0.089565
H	-0.5988424634	 4.0181260115	 2.3246658012	 0.108656
