15
gdb 28687	3.57429	1.03613	0.87647	3.7575	74.19	-0.1972	0.014	0.2112	1286.6008	0.113401	-416.850237	-416.841909	-416.840965	-416.883966	30.265	
N	 0.2333413983	 1.2964955412	-0.0500949336	-0.595963
C	-0.046817909	-0.0581911166	-0.0117817625	 0.372828
C	-1.1853736266	-0.7838165055	 0.1865237238	-0.253536
C	-0.7674162125	-2.1573594993	 0.206808683	-0.245985
C	 0.5745389064	-2.1667684355	 0.0218711561	 0.351631
C	 1.6013253461	-3.2448765455	-0.0647464114	-0.450653
C	 2.2171366074	-3.3625359581	-1.3946249478	 0.265182
N	 2.7017604073	-3.447599905	-2.4397682488	-0.307986
O	 1.0310371982	-0.872615918	-0.1106921174	-0.203573
H	 1.0284769938	 1.5185589667	-0.6355250944	 0.262106
H	-0.5683066087	 1.8594039396	-0.2969385985	 0.259948
H	-2.1851273715	-0.3983424659	 0.3015523728	 0.102435
H	-1.397175207	-3.0244922398	 0.3345881543	 0.112596
H	 2.4048576008	-3.0881054481	 0.6668174808	 0.16432
H	 1.1270708668	-4.19906737	 0.1848306734	 0.166652
