17
gdb 92682	2.88466	1.31466	0.99241	2.6944	76.96	-0.2584	-0.045	0.2134	1168.7533	0.137666	-418.030651	-418.022112	-418.021168	-418.064168	31.758	
N	-0.2096629276	 1.5320268849	-0.0811418369	-0.528773
C	-0.0455883566	 0.0805561023	-0.1129053746	-0.116946
C	-1.4400653222	-0.6397723292	-0.1176376888	 0.120956
O	-2.4356411558	 0.2117508835	-0.6427516452	-0.438501
C	-1.2886879545	-1.8416829739	-1.0731355187	-0.266848
C	-0.0487398178	-1.534138744	-1.8649142871	-0.156255
C	 0.6356679536	-0.505405027	-1.349805043	 0.191183
C	 1.8577122707	 0.0264995471	-1.840925472	 0.196316
N	 2.8514639082	 0.5054319293	-2.1965063528	-0.339143
H	 0.6236560759	 1.9854947794	 0.275572828	 0.25017
H	-0.3655752674	 1.8903297514	-1.0182851464	 0.246087
H	 0.5150907728	-0.2036722556	 0.7851271318	 0.101569
H	-1.7040300548	-0.9607241344	 0.8995914204	 0.069471
H	-2.3101929145	 1.0617849546	-0.196846711	 0.288096
H	-1.1701724465	-2.7848804621	-0.5239320508	 0.122126
H	-2.1794938611	-1.9476782346	-1.7002759153	 0.136968
H	 0.2572718578	-2.1028548817	-2.7353108278	 0.123524
