16
gdb 28888	2.45269	1.83378	1.05672	3.3155	75.65	-0.2141	-0.0095	0.2047	1082.0705	0.125559	-434.139479	-434.131055	-434.130111	-434.172162	31.761	
C	 0.028107778	 1.4944376887	 0.0036990713	-0.524282
C	 0.0306267372	-0.0123174589	-0.0173481172	 0.227263
C	 0.1051576174	-0.7130704048	-1.2080942059	 0.237716
O	 0.1784090371	-0.1466619214	-2.454138469	-0.458402
C	 0.0996819164	-2.1215527753	-1.147434341	 0.334288
N	 0.2141264069	-2.862595229	-2.2897114037	-0.567119
N	 0.0166461791	-2.7537857194	 0.0242379984	-0.329999
C	-0.0461064114	-1.9827648658	 1.1120796701	 0.045684
N	-0.0434031973	-0.6578550275	 1.1651475922	-0.321056
H	 0.9408662386	 1.9104262776	-0.4422254443	 0.13168
H	-0.8282882598	 1.9097513479	-0.5438041041	 0.129357
H	-0.0324664689	 1.8351290067	 1.0376637221	 0.156705
H	 0.1440481407	 0.81152609	-2.3727748679	 0.301626
H	 0.0036684329	-2.4085599472	-3.1627779413	 0.268101
H	-0.0255547611	-3.8372892907	-2.2054181669	 0.26093
H	-0.1100024957	-2.5066612809	 2.0628843173	 0.107508
