18
gdb 46488	3.99971	1.16803	0.99642	3.5936	80.72	-0.2394	-0.0527	0.1867	1186.4848	0.149472	-401.959823	-401.952165	-401.951221	-401.992068	30.08	
O	 0.0207200623	-0.0473241992	 0.187485771	-0.329594
C	-0.0145611499	 1.154993669	 0.0204633199	 0.372938
C	-1.3291693164	 1.9275121766	-0.0575322208	-0.323373
C	-1.2297817884	 3.1322899502	-1.0023488034	-0.312407
C	-0.0509370495	 4.0237317906	-0.6487054511	 0.292326
C	 0.0363960807	 5.3747384181	-1.270552552	-0.288385
N	-0.2467079331	 5.2597567779	 0.1632477635	-0.348321
C	 1.1908561522	 3.2876839495	-0.3129442491	-0.045672
C	 1.2158019051	 1.972849912	-0.0532673886	-0.183206
H	-2.1206213819	 1.235495056	-0.3543210842	 0.123119
H	-1.5601611547	 2.2676068343	 0.9616963102	 0.1289
H	-1.0960753831	 2.768274801	-2.0292993689	 0.119574
H	-2.1589744525	 3.713562529	-0.9950834054	 0.09718
H	 1.0052963943	 5.8026428526	-1.5147900684	 0.123054
H	-0.7665521107	 5.6595755309	-1.9467640133	 0.116945
H	-1.2412812163	 5.3926593269	 0.3341967427	 0.234435
H	 2.1067494574	 3.8727416291	-0.2815709307	 0.112414
H	 2.1441291045	 1.4497644155	 0.1533164885	 0.110072
