19
gdb 104278	3.17955	1.10725	0.99407	4.4146	71.96	-0.2427	-0.0288	0.214	1237.6096	0.156292	-460.139684	-460.129926	-460.128982	-460.174679	34.696	
C	-0.3145540461	 1.6286899076	 0.0608449536	-0.477705
C	-0.1109243725	 0.1180706054	 0.0476887825	 0.255005
C	-1.3841747053	-0.6249404053	-0.3469198207	-0.126557
O	-1.7386277736	-0.2114911854	-1.6566060825	-0.423849
C	 1.131713752	-0.4180909691	-0.7055394645	-0.099904
O	 1.5564337033	-1.1833169326	 0.4445354993	-0.270709
C	 0.5742604943	-0.5731031136	 1.2791850865	-0.014588
C	 1.1401747234	 0.3693779835	 2.3200227002	 0.142019
O	 2.2888255617	 0.7167794345	 2.3857494391	-0.239469
H	 0.6035162152	 2.1561889954	 0.3340413927	 0.133901
H	-0.6246263927	 1.9638378578	-0.9320604618	 0.144998
H	-1.0998267506	 1.9192867329	 0.7679670068	 0.115325
H	-1.1973694495	-1.709276498	-0.3082030195	 0.100094
H	-2.1831312122	-0.3957504008	 0.3780267717	 0.087817
H	-2.5168301355	-0.7036522839	-1.9332012648	 0.293666
H	 0.9293199182	-1.0497730387	-1.5760039891	 0.114241
H	 1.8684476988	 0.3491573082	-0.9711873655	 0.110435
H	-0.0569048789	-1.3119717452	 1.7994443104	 0.085505
H	 0.37252054	 0.7398219874	 3.0415888954	 0.069776
