18
gdb 79936	2.9436	1.67386	1.53787	1.601	77.1	-0.2262	-0.0114	0.2148	944.3031	0.14878	-401.867489	-401.860119	-401.859175	-401.899078	29.042	
C	-0.1912836658	 1.5398045476	 0.022615635	-0.311919
N	 0.0877977761	 0.1093102535	 0.0212370488	-0.087658
C	 1.3695953428	-0.477820583	-0.3726275781	-0.061062
C	 2.5508221875	 0.4527828569	-0.3500856026	-0.217016
C	 2.8376679472	 0.754339449	 0.9167581874	 0.14949
C	 3.0005046326	 1.9200165139	 1.864733987	-0.150534
O	 1.7980695746	 1.448277752	 2.5521020965	-0.307757
C	 1.9110013026	 0.1231623724	 1.9046782997	 0.113958
C	 0.8382907084	-0.5560737336	 1.0621376015	-0.103014
H	 0.6481231756	 2.1835323239	 0.3010157191	 0.121338
H	-0.5366430932	 1.820328411	-0.9778858278	 0.116606
H	-1.0061486099	 1.7239611627	 0.7283168594	 0.12963
H	 1.3011139746	-1.3039226461	-1.0754261415	 0.094033
H	 2.9250425241	 0.9468657939	-1.2394064063	 0.105551
H	 3.8728444916	 1.8809232749	 2.5297113911	 0.110975
H	 2.8861420975	 2.9310164079	 1.4617511776	 0.121233
H	 2.3342355156	-0.5891498942	 2.6247527597	 0.083939
H	 0.3800106779	-1.4597267328	 1.4539503434	 0.092205
