17
gdb 41245	2.97184	2.13853	1.6996	0.5963	70.54	-0.236	0.0548	0.2907	837.7128	0.137807	-421.731002	-421.725019	-421.724075	-421.760971	25.94	
C	-0.0163349293	 1.5155698466	-0.1967651487	-0.269262
C	 1.5370764582	 1.5343698073	 0.1031101788	-0.358005
C	 1.2647059888	 0.2587808581	 0.8937473832	 0.400058
O	 1.8876923554	-1.0379932807	 1.0993282919	-0.334215
C	 0.7638118576	-1.2735193556	 1.963762205	 0.034349
C	-0.6671449263	-0.7672817256	 1.2733704085	-0.025271
O	-0.7652278275	 0.2392698479	 2.3151632579	-0.278577
C	 0.6554767158	 0.1832056426	 2.3727101066	 0.003185
C	-0.0118814711	-0.0181954056	 0.1159700328	-0.006264
H	-0.5842572391	 2.084524546	 0.5401037385	 0.130645
H	-0.3193652535	 1.8060130334	-1.202924726	 0.108341
H	 2.1184249979	 1.3528947981	-0.8049815953	 0.12197
H	 1.9582588233	 2.3876896195	 0.6401248829	 0.10706
H	 0.8173218414	-2.164312491	 2.5853518893	 0.100636
H	-1.5576766093	-1.3846942629	 1.1737716406	 0.082744
H	 1.1363681565	 0.6887748957	 3.2086287049	 0.095421
H	 0.1752718912	-0.6330365137	-0.7656782008	 0.087184
