18
gdb 119446	4.87395	0.87503	0.83784	4.3299	74.02	-0.245	0.0107	0.2557	1406.9653	0.146861	-439.064256	-439.055499	-439.054555	-439.098321	31.945	
C	-0.6506144358	 1.3915817797	-0.5888808278	-0.224053
O	-0.7814285077	-0.0101756739	-0.6548129261	-0.237059
C	-0.7489946806	-0.626036496	 0.6115484989	-0.161321
C	-0.8785272999	-2.1075655431	 0.4174346025	 0.358021
C	-0.3815212994	-2.8955895412	-0.7479925021	-0.318027
C	-1.8841167152	-2.8818177108	-0.4181357174	-0.26795
C	-2.0808999599	-3.7564482245	 0.8069939156	 0.43097
O	-2.7142670092	-4.7302382476	 1.094739436	-0.34034
N	-1.1780655619	-2.9714516711	 1.568165974	-0.411772
H	-0.6895684804	 1.7697587599	-1.6128317113	 0.13247
H	-1.4658509492	 1.8490008202	-0.0076306661	 0.111229
H	 0.306748921	 1.6895765618	-0.1339002252	 0.108803
H	 0.1956633982	-0.3894540005	 1.1341843165	 0.091103
H	-1.5718446285	-0.2692845205	 1.2527971686	 0.105184
H	-0.122029318	-2.3191850036	-1.6299379057	 0.142117
H	 0.197541422	-3.8018710259	-0.5951736241	 0.117739
H	-2.6265310307	-2.5245253344	-1.116446358	 0.124749
H	-0.4562265348	-3.3915504084	 2.1451825117	 0.238136
