23
gdb 91155	2.19881	1.75074	1.26323	0.2147	89.95	-0.2297	0.0256	0.2553	1128.2734	0.20739	-351.158858	-351.150278	-351.149334	-351.191693	34.398	
C	 0.8081882179	 1.3118886661	-0.6037867113	-0.405611
C	 0.0938740803	 0.0855210777	-0.0409200866	 0.031176
C	 0.1506989778	-1.1715418285	-0.9653939842	-0.24201
C	 0.9868699424	-1.9188799277	 0.1086420277	-0.055634
C	 2.4839304122	-1.8594301719	-0.0578905961	-0.090408
C	 3.0643274143	-1.0690583711	 0.8456811041	-0.070028
C	 2.0704441742	-0.461574351	 1.8199981262	-0.016765
C	 2.3628727672	 0.9821531147	 2.2518634484	-0.40814
C	 0.7151998789	-0.771515228	 1.1349286848	-0.047434
H	 1.8557108158	 1.1028831952	-0.8388786813	 0.121425
H	 0.318157656	 1.6180488777	-1.5360198058	 0.106882
H	 0.7704710334	 2.164907175	 0.0800414113	 0.112306
H	-0.9343043612	 0.3736195203	 0.200018785	 0.066922
H	-0.827673103	-1.6256107879	-1.1453075822	 0.091619
H	 0.642955754	-1.0216673458	-1.9315776071	 0.090143
H	 0.6405184481	-2.9288157368	 0.3562440888	 0.065598
H	 3.0064946773	-2.417654965	-0.8286894358	 0.086942
H	 4.1327759237	-0.8918844734	 0.9262139031	 0.085316
H	 2.1014017323	-1.0629297881	 2.7438673581	 0.078109
H	 2.5046351875	 1.6530047436	 1.4033659377	 0.12148
H	 1.5478041486	 1.3793084583	 2.8661551191	 0.110327
H	 3.2759936103	 1.0179605441	 2.8562600067	 0.108367
H	-0.0546441077	-0.9977496176	 1.8765026895	 0.059417
