21
gdb 104191	2.42464	1.27382	1.2584	1.3624	74.31	-0.2482	0.0644	0.3126	1163.702	0.179682	-461.351058	-461.340889	-461.339945	-461.385232	38.898	
C	 0.3986832729	 1.5084413207	-0.225799474	-0.442368
C	-0.0315816026	 0.0732006338	 0.0508619071	 0.351549
O	-1.4441972632	-0.027406965	 0.133682925	-0.484087
C	 0.6977540805	-0.9794805914	-0.8410269988	-0.283075
C	 1.68416505	-1.24325928	 0.3277929928	-0.289675
C	 0.6735719056	-0.5494679404	 1.2927596106	 0.402361
O	 1.1877536814	 0.3937127058	 2.2023031469	-0.497536
C	-0.2120815248	-1.5399591947	 2.0442694518	-0.139842
O	 0.6057380652	-2.0794747447	 3.0864206883	-0.44314
H	 1.4866372449	 1.6048990214	-0.2581847571	 0.128697
H	 0.003109482	 1.833603011	-1.1968030946	 0.096099
H	 0.0238635255	 2.1740476272	 0.5550867597	 0.134897
H	-1.8259305118	 0.4793396506	-0.5902445756	 0.275787
H	 0.0451208789	-1.8324261548	-1.0423372653	 0.103654
H	 1.1183980805	-0.6213833192	-1.7839677744	 0.091625
H	 1.9453182896	-2.2792727338	 0.5506417589	 0.104903
H	 2.5991016532	-0.6526337495	 0.2466855654	 0.106458
H	 1.3893589598	-0.1056596076	 3.0050711393	 0.282529
H	-1.0767788727	-1.0050364313	 2.4537878179	 0.110518
H	-0.579946926	-2.3297665025	 1.377043818	 0.097102
H	 0.0335744513	-2.5009842557	 3.733013418	 0.293545
