17
gdb 62456	3.66095	1.1997	1.18042	3.5475	73.53	-0.2457	0.0226	0.2683	1096.111	0.137782	-418.000013	-417.991922	-417.990978	-418.032542	30.579	
N	-0.142616361	 1.4288907746	-0.4095347185	-0.558941
C	-0.0481076711	 0.0154351998	-0.170348606	 0.078926
C	 1.1175597575	-0.4688488337	 0.5336139558	 0.236491
N	 2.0644944849	-0.8311813997	 1.0937942012	-0.343972
C	-1.3420342665	-0.7889154702	 0.0609045533	-0.126975
C	-2.6506594638	-0.0919708334	-0.2789139967	-0.25759
C	-2.5095215557	 0.2770948421	-1.7765088756	-0.065809
O	-1.3408428104	-0.3968207367	-2.2810098392	-0.259437
C	-0.6236417053	-0.9455676006	-1.2328651713	 0.092563
H	-0.022278516	 1.9513712124	 0.4521080484	 0.245798
H	 0.5757981672	 1.7327886357	-1.0589059851	 0.250236
H	-1.3263270348	-1.5525992927	 0.8282103986	 0.116975
H	-3.4733507154	-0.7929784135	-0.1112796194	 0.116733
H	-2.8341566203	 0.7959042235	 0.3307288879	 0.118578
H	-3.3640678405	-0.0500994193	-2.3777202505	 0.10747
H	-2.372312929	 1.3530632992	-1.8994270114	 0.122452
H	-0.0389604598	-1.8131217574	-1.5150512614	 0.1265
