20
gdb 99111	2.75588	1.07792	0.94774	2.9733	76.34	-0.2393	0.0323	0.2716	1342.4997	0.16903	-440.306203	-440.29601	-440.295066	-440.34225	36.121	
C	 0.0808836961	 0.2187749989	 0.843579146	-0.332145
N	 0.1481802596	-0.9318498872	-0.0341279091	-0.296573
C	 0.9883138862	-1.9792880701	 0.1930390784	 0.380696
O	 1.7345808712	-2.0589949841	 1.153247366	-0.378116
C	 0.8920493949	-3.0922780916	-0.8614916319	-0.370115
C	 1.0781600215	-2.6077872241	-2.2908945326	 0.404104
C	 2.4503260226	-2.0824150923	-2.6466844653	-0.457122
C	 0.1892743517	-3.1215227416	-3.3444830614	-0.232175
O	-0.022316558	-1.8161321718	-2.7937708542	-0.279589
H	 0.7674342998	 0.0402273543	 1.6719614579	 0.166814
H	 0.3781124474	 1.1372473034	 0.3243509571	 0.123896
H	-0.9309783417	 0.357346037	 1.2408061402	 0.123089
H	-0.3902066897	-0.941750499	-0.8879682339	 0.264401
H	 1.6568788307	-3.8299396809	-0.608723256	 0.130062
H	-0.0871690968	-3.5741692912	-0.7672044449	 0.117673
H	 3.1989490489	-2.8769388049	-2.5632655482	 0.129861
H	 2.4605669076	-1.694665241	-3.6679499069	 0.127604
H	 2.7430660783	-1.2758124181	-1.9671854061	 0.142822
H	 0.5280752616	-3.132143814	-4.3793825371	 0.118075
H	-0.5705301018	-3.8623557616	-3.0996982581	 0.11674
