20
gdb 77081	2.49337	1.23788	1.03113	4.7414	79.66	-0.272	0.0062	0.2782	1256.2763	0.168473	-403.160172	-403.150281	-403.149337	-403.195187	36.28	
C	-0.3764386579	 1.3109114126	-0.1153616885	-0.424619
C	-0.0131115705	-0.1568794829	 0.0376808094	-0.104979
C	 1.2697621669	-0.6580523633	-0.6781821434	 0.00052
O	 1.7928460797	-1.2222744337	 0.5307378358	-0.32857
C	 0.6843686979	-0.6879683904	 1.3337951033	 0.418427
C	 1.2106055855	 0.3519510986	 2.3132766297	-0.432672
C	-0.0501194136	-1.8176009315	 2.0392323994	-0.430056
C	 1.0884703997	-1.6476726446	-1.7438792345	 0.267128
N	 0.9240221381	-2.4171552474	-2.5904588278	-0.323272
H	 0.4720361425	 1.9703103457	 0.0890863522	 0.124804
H	-0.7189551273	 1.5137656685	-1.1353666649	 0.132997
H	-1.1888978743	 1.5855793111	 0.5648844151	 0.128701
H	-0.8735463588	-0.7804213939	-0.2158555756	 0.103114
H	 1.9083537264	 0.1504018623	-1.0602906233	 0.11687
H	 1.786130234	 1.1298210036	 1.8059453117	 0.121393
H	 0.3903347885	 0.8277380313	 2.8608593543	 0.120273
H	 1.8696516011	-0.1316503131	 3.0407967008	 0.131231
H	 0.6003726321	-2.2938127491	 2.7795363919	 0.12925
H	-0.9355162949	-1.4340954223	 2.5582239698	 0.1189
H	-0.368345485	-2.5800586817	 1.3232935045	 0.130559
