21
gdb 109039	2.92988	1.28023	1.02722	1.3984	84.33	-0.2251	0.0156	0.2406	1244.3947	0.183002	-387.091088	-387.082148	-387.081204	-387.124785	34.443	
C	-0.2649626191	 1.4899638933	-0.0125388379	-0.376331
C	 0.1332139839	 0.0036100777	 0.0255057201	-0.281435
C	 0.8527123251	-0.4505626954	-1.208145944	 0.278813
C	 2.1109472325	-0.8891182009	-1.3169115527	-0.204239
C	 2.431028771	-1.3640934329	-2.6978033505	-0.065368
C	 1.6251293722	-2.5693267937	-3.1417071323	-0.295477
C	 1.1560172546	-1.1718224021	-3.4855343197	-0.064531
C	 0.1384787758	-0.5014241911	-2.5629895854	 0.031217
O	-1.1397614061	-1.1276036118	-2.5077633182	-0.431177
H	 0.6165463325	 2.1299827453	-0.1201553518	 0.115884
H	-0.9382259711	 1.6987359592	-0.8494494382	 0.127741
H	-0.7823907893	 1.7753902956	 0.908483387	 0.111834
H	 0.7559067432	-0.1902632796	 0.9060233451	 0.096188
H	-0.7786624855	-0.5968023968	 0.1391701817	 0.109344
H	 2.8188754237	-0.9583682777	-0.496951451	 0.089576
H	 3.4106096996	-1.1922148266	-3.1291659508	 0.088068
H	 2.0036712247	-3.1654061686	-3.9657697638	 0.11257
H	 1.1173963199	-3.1409062729	-2.3698763589	 0.102167
H	 1.1764235441	-0.8834290055	-4.529185043	 0.087533
H	-0.0823259143	 0.5120513955	-2.9212248927	 0.091162
H	-0.9891438075	-2.0664933312	-2.349580673	 0.276459
