17
gdb 20262	4.02984	2.74737	2.48016	1.6653	69.15	-0.235	0.1025	0.3375	658.0407	0.147153	-326.697403	-326.692455	-326.69151	-326.72604	22.096	
C	-0.0672960313	 1.5578872728	 0.0435049134	-0.230169
C	 1.4866043552	 1.4565562032	 0.0012057715	-0.057359
C	 1.8234548408	 0.7041914265	 1.3064507332	-0.039426
C	 0.7682936199	-0.3468390122	 1.2975200283	-0.039426
C	 0.0283632459	 0.0040133265	-0.0111405619	-0.057359
C	 1.3136128737	 0.1794660264	-0.8863305417	-0.039583
C	 2.3279009925	-0.8428561805	-0.4095012738	-0.176548
N	 2.1836367841	-0.7104461603	 1.051273253	-0.131443
H	-0.5290684081	 2.0139852986	 0.9241965376	 0.093371
H	-0.4918994573	 1.9918911864	-0.866718402	 0.094889
H	 2.1238756194	 2.2922979203	-0.2863339486	 0.06316
H	 2.2342621715	 1.1850923242	 2.1848614155	 0.089002
H	 0.2783500229	-0.7631566494	 2.1683063071	 0.089002
H	-0.8073689388	-0.6274949426	-0.3111519666	 0.06316
H	 1.1626465036	 0.3400868146	-1.9521432214	 0.072389
H	 2.0937353647	-1.8679309184	-0.7165728878	 0.10317
H	 3.3564501412	-0.6101540462	-0.7058816157	 0.103171
