25
gdb 114201	2.59263	1.13219	0.95152	0.2086	93.06	-0.2573	0.0859	0.3432	1411.2348	0.228645	-352.341508	-352.331629	-352.330685	-352.375988	38.378	
C	 0.1256061443	 1.3940261952	-0.567280099	-0.384082
C	-0.0593296649	-0.1215603218	-0.4373503453	-0.177614
C	-1.3665997374	-0.5008471714	 0.2598120836	 0.017748
C	-2.6398645486	-0.3354539566	-0.6308513361	-0.320133
C	-2.6799479373	-1.8586967931	-0.7948413927	 0.38523
C	-3.8405062986	-2.7247611459	-1.1755805545	-0.336182
C	-2.6559044387	-2.5905906845	-2.1074763713	-0.31832
C	-1.6823693015	-2.0365105668	 0.3645568816	-0.05455
C	-0.5661874066	-3.0658373203	 0.2564820876	-0.418195
H	 1.0622022105	 1.6380882754	-1.0784182865	 0.109338
H	-0.691352891	 1.8503575871	-1.1365043914	 0.117036
H	 0.1481975927	 1.8736676682	 0.4177815086	 0.112363
H	-0.0257413065	-0.5802068288	-1.4340695882	 0.097208
H	 0.7872606345	-0.5411698825	 0.1209869149	 0.092423
H	-1.4186745075	 0.0217673875	 1.2211189811	 0.056146
H	-3.499955258	 0.0585630036	-0.0799724373	 0.094265
H	-2.5168902629	 0.2532158852	-1.5456430461	 0.092705
H	-3.9706188487	-3.6682400828	-0.6533466186	 0.106092
H	-4.7715323525	-2.2412046374	-1.4554777756	 0.10677
H	-2.7824892146	-2.0111972447	-3.0170779899	 0.106145
H	-1.994810668	-3.4448057542	-2.2146168423	 0.108906
H	-2.2395955359	-2.2174735041	 1.2925904125	 0.067104
H	 0.0302996938	-2.9329749885	-0.6508205868	 0.117468
H	 0.1111470262	-3.0059391148	 1.1155985997	 0.112151
H	-0.9760483327	-4.0824755542	 0.2372886118	 0.109977
