15
gdb 67208	2.94799	1.51558	1.2216	1.2509	70.42	-0.2326	0.0449	0.2775	1011.9266	0.111102	-420.506401	-420.498937	-420.497993	-420.538187	29.53	
O	-0.0500622705	 1.4839853393	-0.195939018	-0.442809
C	 0.0440305873	 0.1311138549	-0.0697409059	 0.324427
C	 0.1001305503	-1.0430444805	-0.9913973403	-0.040386
O	 1.1914628608	-1.6864345416	-0.3400301529	-0.274665
C	 0.8927544743	-0.890587888	 0.8282681735	-0.022669
C	-0.4609141498	-1.4961482346	 1.3391737371	-0.192924
C	-0.9572658065	-0.8901909632	 2.5580803859	 0.320319
C	-1.3502201746	-0.3881478836	 3.5775114403	-0.4526
C	-1.0512662933	-0.8993841081	 0.0528376409	-0.146365
H	 0.736443461	 1.8078856972	-0.6512162347	 0.297416
H	-0.0537903266	-1.1865159394	-2.0524234795	 0.119146
H	 1.7384940111	-0.7225222146	 1.4907384648	 0.101313
H	-0.4431351083	-2.5889652391	 1.4125794347	 0.105673
H	-1.7033882081	 0.0534176813	 4.4762661283	 0.195549
H	-2.090096297	-0.8177201302	-0.2381535642	 0.108574
