19
gdb 114341	3.36489	1.14916	1.12551	1.9461	71.02	-0.2329	0.0723	0.3052	1194.3172	0.158472	-460.13568	-460.1271	-460.126156	-460.169219	32.399	
C	 0.0798126694	 1.4155585943	 0.1606305258	-0.386909
C	 0.1585231766	-0.1106753503	 0.0697259623	-0.206405
C	 0.7443125592	-0.5788221455	-1.2450569356	 0.221319
O	 2.100820822	-0.1758779575	-1.3649047507	-0.260491
C	 2.7323392414	-1.1414950614	-2.1689570508	 0.001488
C	 3.1445247855	-2.4317988387	-1.4662792324	 0.093307
O	 3.1629520645	-2.5391691978	-0.0875015121	-0.423375
C	 1.8177896659	-2.3405474555	-2.189251068	-0.038586
O	 0.7587681064	-2.0082170074	-1.313005678	-0.288857
H	 1.0740114911	 1.8605002714	 0.0690613349	 0.14178
H	-0.5501157213	 1.8293605171	-0.6343089887	 0.117319
H	-0.3471950605	 1.7242836776	 1.1186044251	 0.11879
H	 0.7839461332	-0.5108167581	 0.8752962329	 0.11055
H	-0.8363638192	-0.5579614096	 0.1697653964	 0.112665
H	 0.1698012246	-0.1922997339	-2.1059109407	 0.075344
H	 3.2631659727	-0.758470822	-3.0342814858	 0.105292
H	 3.9365365782	-3.0025639961	-1.944202789	 0.106829
H	 2.2398768006	-2.4965540472	 0.1975573191	 0.295038
H	 1.5412982698	-2.9269071593	-3.0590292748	 0.104901
