20
gdb 102511	1.69347	1.24763	0.90438	4.5732	75.61	-0.2801	0.0147	0.2948	1391.0215	0.168648	-440.290631	-440.279766	-440.278821	-440.327008	38.14	
C	 0.7865175595	 1.2929132645	-0.2142383867	-0.392533
C	 0.314849797	-0.1654505155	-0.1842290197	-0.224179
C	-1.2057478929	-0.33486379	-0.0157978942	 0.025922
C	-1.9857202372	 0.0433535321	-1.276468846	-0.103407
O	-3.368849219	 0.028581102	-0.9478417293	-0.42504
C	-1.5943650642	-1.7804096533	 0.3857263888	-0.034596
O	-1.1717087717	-2.7571672471	-0.5532551714	-0.420314
C	-1.1034371361	-2.1053309232	 1.7393994098	 0.264208
N	-0.6847700685	-2.3580329851	 2.7868342945	-0.329319
H	 1.8762969969	 1.3436650264	-0.2956624396	 0.120845
H	 0.3688797608	 1.8455563696	-1.0610106716	 0.122175
H	 0.4963173482	 1.816914769	 0.7023698811	 0.127163
H	 0.6392877446	-0.6730032908	-1.102373524	 0.099186
H	 0.8168833386	-0.674204258	 0.6483012472	 0.119755
H	-1.55141091	 0.3202512085	 0.7944912623	 0.103685
H	-1.6765316859	 1.0393738649	-1.6226636293	 0.093871
H	-1.7549941737	-0.6814820573	-2.0702194192	 0.106734
H	-3.8770351904	 0.0912914579	-1.7613374526	 0.293239
H	-2.6863887148	-1.8372213773	 0.3946915309	 0.155474
H	-0.211546971	-2.8265710972	-0.5080432308	 0.29713
