18
gdb 85074	2.28186	1.56494	1.25317	4.5922	74.57	-0.2376	-0.0115	0.2261	1081.9182	0.147993	-439.120871	-439.111981	-439.111037	-439.154927	32.981	
C	 0.0485323608	 1.5968973555	 0.0483206498	-0.382582
C	 0.0672182666	 0.0540852737	 0.0062536055	-0.021392
N	 0.7057868503	-0.4442122304	-1.2042979893	-0.310621
C	 1.9609047549	-0.9616827587	-1.3250294033	 0.418884
O	 2.3958641595	-1.3996658378	-2.3715483665	-0.376461
C	 2.8077347353	-0.9301666843	-0.0458344477	-0.041322
O	 3.534934543	 0.3076887184	-0.118743202	-0.433
C	 1.9745070512	-0.991359436	 1.2068809302	-0.11859
C	 0.73648507	-0.5075496607	 1.2299794763	-0.035794
H	 1.0762855854	 1.9686001156	 0.042854219	 0.145637
H	-0.4786384616	 1.99852931	-0.8227770085	 0.116382
H	-0.4578567742	 1.9571260391	 0.9495907538	 0.116266
H	-0.9724403363	-0.3017691959	-0.0074383832	 0.096091
H	 0.1876654011	-0.3982763076	-2.0697936657	 0.246107
H	 3.499747468	-1.7784168089	-0.1133849466	 0.093681
H	 4.0267301412	 0.4029827565	 0.7041704431	 0.283237
H	 2.4385911176	-1.3849612401	 2.1079273324	 0.098593
H	 0.1599567871	-0.4694142783	 2.1495999025	 0.104883
