19
gdb 34050	2.99042	1.33343	1.14608	5.1798	79.8	-0.245	0.0227	0.2677	1129.7883	0.161732	-382.070041	-382.062139	-382.061194	-382.10238	30.87	
N	 0.0389050482	-1.1404586	 0.0923037978	-0.343537
C	 0.0234544421	 0.012862636	 0.0128896092	 0.263941
C	-0.0478014484	 1.4597661372	-0.0855051319	 0.153919
C	 0.48500471	 2.1019212828	-1.3283030277	-0.270431
N	 1.2747092149	 2.1203172915	-0.1098506234	-0.112891
C	 1.4535761934	 3.4089892347	 0.592638697	-0.149531
C	 0.3459837391	 3.7651665668	 1.5897871656	-0.19783
C	-1.0391075505	 3.552453288	 0.9746825237	-0.222553
C	-1.2369915107	 2.0641672745	 0.6627902599	-0.273057
H	 0.8701352751	 1.4858656997	-2.1364280186	 0.133529
H	-0.0048758615	 3.0212081617	-1.6473002007	 0.116661
H	 2.4182893381	 3.3627863768	 1.1083587926	 0.11842
H	 1.5357904394	 4.1997859436	-0.1634347816	 0.107523
H	 0.4394484651	 3.1394139572	 2.4865908161	 0.110953
H	 0.4832543498	 4.8021061584	 1.9131630006	 0.105359
H	-1.8260232044	 3.879036106	 1.6613768024	 0.108803
H	-1.1470627611	 4.1614349003	 0.0682940038	 0.103028
H	-2.1531798221	 1.8877457076	 0.0892917392	 0.121188
H	-1.3507883165	 1.5210380473	 1.607811686	 0.126506
