23
gdb 68075	2.54541	1.62692	1.21398	1.2737	85.39	-0.233	0.0799	0.3129	1138.5898	0.206235	-388.296828	-388.288188	-388.287244	-388.329088	35.429	
C	-0.089574373	 1.5598888875	 0.0271132288	-0.479365
C	 0.0185502207	 0.0465019737	-0.0088854742	 0.327313
C	 1.1155613501	-0.6248572607	-0.8958411965	-0.315784
C	 1.1307615612	-1.7626120615	 0.1682906637	 0.429706
C	 2.3814862668	-2.5762880246	 0.4098630973	-0.460417
C	 0.6718611562	-0.6930285141	 1.1984797412	-0.279955
O	 0.0594551423	-2.6884017531	-0.039752204	-0.312816
C	-1.0851719022	-2.1260962717	-0.6718414505	-0.075887
C	-1.3278031699	-0.6522399758	-0.2883474584	-0.263592
H	 0.8759255507	 2.018388124	 0.2676425357	 0.107954
H	-0.4200409738	 1.9590083739	-0.9392089328	 0.111543
H	-0.8122820839	 1.8872470261	 0.7841195683	 0.113495
H	 0.8884049657	-0.8774919158	-1.9350907444	 0.09342
H	 2.051083287	-0.059095017	-0.8630105968	 0.0923
H	 3.2300135014	-1.9233500976	 0.6340109153	 0.10737
H	 2.2334090283	-3.2574891579	 1.2538595927	 0.123688
H	 2.6249811951	-3.178387394	-0.4712003906	 0.119331
H	 1.5165264055	-0.1307969689	 1.609237837	 0.085581
H	 0.0221389366	-1.0387573753	 2.0074624095	 0.089081
H	-0.9719363064	-2.2006763956	-1.7632741068	 0.0921
H	-1.9334921742	-2.759175608	-0.3949222517	 0.103642
H	-1.9635531587	-0.5712158708	 0.6017379252	 0.099303
H	-1.8604042153	-0.1570582228	-1.109667078	 0.091992
