17
gdb 87546	2.71971	1.56854	1.20847	4.6318	74.	-0.2415	-0.0195	0.2221	1055.7317	0.135344	-417.947291	-417.939275	-417.938331	-417.9798	30.256	
C	-0.1207193286	 1.5078351528	-0.0094554383	-0.318895
N	-0.0039082318	 0.0552280637	 0.0516785023	-0.125084
C	 1.3154635273	-0.5139116676	-0.1774580976	-0.313111
C	 0.7110273471	-0.4992054646	 1.1844996967	 0.240633
C	 1.253291447	 0.1456442223	 2.4445276568	-0.132854
C	 0.2212222277	 0.1661589582	 3.495043012	-0.250901
N	 0.9420894347	-1.1193986821	 3.2548928928	-0.181603
C	 0.3262176901	-1.6870424373	 2.0493610346	 0.345957
O	-0.1697102388	-2.7551181269	 1.8895582799	-0.299846
H	 0.7686848817	 2.0396349788	 0.3649175967	 0.105664
H	-0.2860858281	 1.8024190761	-1.0495662201	 0.135971
H	-0.9867062354	 1.8255696784	 0.5785996207	 0.131754
H	 1.3454260067	-1.4410772967	-0.7425756107	 0.142083
H	 2.1513120472	 0.1659161511	-0.3446836788	 0.118203
H	 2.2214511311	 0.6175277432	 2.5543861533	 0.120851
H	 0.4684367794	 0.6033204175	 4.4569451099	 0.141973
H	-0.8287639773	 0.2309122532	 3.2204493298	 0.139204
