20
gdb 91560	2.70579	1.25688	1.02096	3.9551	82.75	-0.2667	0.0327	0.2993	1229.6753	0.171001	-366.007443	-365.998553	-365.997609	-366.041339	33.551	
C	-0.1617086585	 1.5359064927	-0.0879033651	-0.414908
C	 0.0741667691	 0.0305759478	-0.0895393026	-0.031448
C	 1.2674444835	-0.5661202924	-0.9168136268	-0.246104
C	 1.783724123	-1.2583130236	 0.350324073	-0.121297
C	 2.0743763277	-0.2288314724	 1.4087343216	-0.321171
C	 0.6487893557	-0.6453593887	 1.1724534755	 0.375487
C	-0.196654901	-1.2804266882	 2.253226836	-0.46043
C	-0.8658495111	-0.2860156667	 3.0984129459	 0.272109
N	-1.3913982563	 0.5129345503	 3.7473959468	-0.315722
H	 0.7442818561	 2.0871759873	 0.1834961442	 0.1169
H	-0.4730113623	 1.8799871538	-1.0802622576	 0.115044
H	-0.9449446794	 1.8114207889	 0.6255987319	 0.136667
H	-0.8511299685	-0.4808328881	-0.3779075352	 0.074441
H	 0.9380302226	-1.2550180197	-1.6972334889	 0.104863
H	 1.9539324702	 0.1624311384	-1.3613172197	 0.099882
H	 2.1940752929	-2.2600794998	 0.4023325079	 0.089375
H	 2.5175133193	-0.6116331486	 2.3231235821	 0.114201
H	 2.4246338247	 0.7624137228	 1.1332206501	 0.114307
H	-0.9671964245	-1.9256167016	 1.8123004484	 0.148297
H	 0.4200255569	-1.9200772322	 2.8954206827	 0.149506
