21
gdb 98466	2.15066	1.42184	0.98532	1.5961	79.87	-0.2661	0.0165	0.2825	1289.9783	0.180906	-424.257974	-424.247868	-424.246924	-424.293307	36.484	
C	 1.4514592862	-0.6452313208	-1.0937612461	-0.380101
C	 0.3152531445	-0.3082110668	-0.1199919747	-0.262397
C	 0.6171461923	-0.6538104411	 1.3301932172	 0.195876
C	-0.5202804107	-1.1503346798	 2.2209816198	-0.295004
C	 0.5303396618	-2.1087686738	 1.7669701392	-0.28008
C	 1.6328365357	 0.1507411358	 2.0776636842	 0.424272
O	 2.0248296075	-0.094101224	 3.1951198653	-0.385485
O	 2.0614443413	 1.2185627201	 1.3695033262	-0.239843
C	 3.0196955162	 2.0478220707	 2.037361168	-0.241861
H	 1.7033905797	-1.710241555	-1.0522936275	 0.113687
H	 1.1629070178	-0.4094004156	-2.1228346006	 0.110093
H	 2.3530145863	-0.0746983602	-0.8575472672	 0.126636
H	 0.0669557595	 0.7556436579	-0.1959187519	 0.107757
H	-0.5859466506	-0.8586445167	-0.4155788203	 0.090561
H	-0.4991221	-0.8385622042	 3.2581655784	 0.135054
H	-1.5036926039	-1.1948526797	 1.7662057171	 0.115918
H	 0.2794896505	-2.8282681587	 0.9951102566	 0.115104
H	 1.255303803	-2.4410873319	 2.4997299105	 0.137378
H	 3.2641311937	 2.8438503326	 1.3337766158	 0.131214
H	 2.596235982	 2.4639104983	 2.9549330602	 0.140295
H	 3.9138769873	 1.4745803229	 2.2943954397	 0.140924
