18
gdb 93644	2.0676	1.62812	1.28407	5.0418	70.76	-0.2432	0.0154	0.2587	1063.4765	0.150194	-435.264199	-435.25548	-435.254536	-435.298187	32.583	
N	-0.1118941601	 1.4635712896	 0.2135552937	-0.533622
C	-0.0731024379	 0.0342236915	-0.0392087552	-0.01537
C	-1.519511089	-0.5661669333	-0.1153834847	 0.131669
O	-2.4884323516	 0.4254402406	-0.3631494875	-0.432946
C	-1.4795880836	-1.553742594	-1.3037647681	-0.19565
N	-0.0710282263	-1.7444033236	-1.6964908964	-0.28123
C	 0.609353906	-0.4946725592	-1.3586354545	-0.204125
C	 0.4741720295	 0.490399086	-2.4443250008	 0.320234
N	 0.3704133806	 1.3109417104	-3.2519677409	-0.330449
H	 0.7673902623	 1.8002103566	 0.5880396344	 0.240819
H	-0.2935871841	 1.9764229276	-0.6450742216	 0.258351
H	 0.4594013243	-0.4392331938	 0.7908980664	 0.087709
H	-1.7388936718	-1.0900867886	 0.8269743475	 0.065673
H	-2.2647022779	 1.1649808327	 0.2204809407	 0.286578
H	-1.9384085541	-2.5200656588	-1.0874078272	 0.11079
H	-2.029899906	-1.093599877	-2.1312794792	 0.142238
H	 0.3466555126	-2.4926345101	-1.1540871942	 0.229689
H	 1.6791963271	-0.6738638366	-1.2156695325	 0.119642
