21
gdb 56261	5.41925	0.59248	0.55935	1.9618	80.49	-0.2646	0.0202	0.2848	2011.6405	0.180559	-424.256027	-424.245679	-424.244735	-424.293629	35.848	
C	 0.009501207	 1.4172180706	-0.1294042008	-0.477906
C	-0.0059930939	-0.0829329919	 0.0468815112	 0.424794
O	-0.0789322308	-0.6656095366	 1.0992128862	-0.349996
O	 0.0740119564	-0.7035793214	-1.1485300451	-0.241529
C	 0.0667157579	-2.1433516531	-1.1110617045	-0.05142
C	 0.1919800381	-2.6442687925	-2.5429173088	-0.232434
C	 0.2073490677	-4.1563833279	-2.612335365	 0.03148
C	-1.0868413511	-4.9341189964	-2.6242280332	-0.254436
C	-0.231698463	-4.8681536473	-3.8656084624	-0.277601
H	-0.0517486016	 1.8977144614	 0.8462021203	 0.146994
H	 0.925254595	 1.7259052395	-0.6414915372	 0.148173
H	-0.8322891247	 1.7304659329	-0.7534999923	 0.148092
H	 0.8966999569	-2.4892528472	-0.4856950176	 0.118366
H	-0.8602779371	-2.4877536488	-0.6417360347	 0.12253
H	-0.6457338674	-2.2533289783	-3.1331613203	 0.102313
H	 1.1070511223	-2.2324618	-2.9862659569	 0.107156
H	 1.0291016746	-4.6205763434	-2.0718565201	 0.085005
H	-1.1358802861	-5.8700092528	-2.079041415	 0.113807
H	-2.0147685043	-4.3709787978	-2.6206549414	 0.111599
H	-0.5860913048	-4.2621928875	-4.693158981	 0.111937
H	 0.307559909	-5.7587643112	-4.1683991813	 0.113076
