18
gdb 112872	2.27284	1.40378	0.93018	3.2131	69.91	-0.2696	0.0168	0.2864	1252.8493	0.147154	-476.240476	-476.231539	-476.230595	-476.274631	32.652	
C	 0.2484223505	 1.5280083348	-0.0482980521	-0.405483
C	 0.0907061119	 0.028837594	-0.1192675546	 0.217173
O	 0.9290271947	-0.5202500898	-1.1055529556	-0.282805
C	 1.2728608811	-1.8374009594	-0.6700533894	-0.003661
C	 2.673528347	-2.1736518016	-1.1636037981	-0.070174
O	 2.7315448645	-2.1960839505	-2.5741307001	-0.419519
C	 1.1450760144	-1.7429675413	 0.8364543808	 0.383472
N	 1.5845169233	-2.5840459694	 1.6650722808	-0.538601
O	 0.4923018088	-0.5811063737	 1.1208933844	-0.24607
H	 1.2901682233	 1.7810075906	 0.162219374	 0.137188
H	-0.0435472672	 1.9723730382	-1.0032755345	 0.136881
H	-0.3898740809	 1.9356254045	 0.739209853	 0.137261
H	-0.9574425678	-0.2620185117	-0.3004718061	 0.086271
H	 0.5562571031	-2.570880183	-1.0703234606	 0.110474
H	 3.3829282278	-1.4517334414	-0.7322991011	 0.096594
H	 2.9433953797	-3.1697417463	-0.8045460111	 0.13905
H	 2.4587232907	-1.3237220726	-2.8796471204	 0.292812
H	 1.3728105251	-2.3046755714	 2.6238672305	 0.229137
