15
gdb 34967	3.28415	1.62431	1.55032	4.3855	68.12	-0.2389	-0.0005	0.2384	888.657	0.114431	-416.736646	-416.730149	-416.729204	-416.767618	25.507	
N	-0.226680799	-1.1981341721	-0.1537276405	-0.325299
C	-0.1371310999	-0.0489049132	-0.0679011217	 0.305117
C	-0.0138764012	 1.3948271655	 0.0484592453	-0.143353
C	-0.2339349916	 2.0564792822	 1.4370365687	 0.084047
O	 0.460070313	 1.352056695	 2.4759693325	-0.290355
C	 1.7295242378	 1.9524067689	 2.1030378054	 0.094632
C	 2.3284846883	 1.262169329	 0.8681872658	-0.199713
N	 1.3776754816	 1.9939181206	-0.0548109349	-0.175666
C	 1.0131646433	 2.91119651	 1.1233325486	-0.051674
H	-0.6380411784	 1.8747535308	-0.7139018545	 0.136279
H	-1.2334427964	 2.3795543151	 1.7322225512	 0.101574
H	 2.3381492886	 2.2038634296	 2.9725498762	 0.095396
H	 3.3457203564	 1.6019194639	 0.6506964387	 0.123787
H	 2.2846616089	 0.1715265839	 0.8256929599	 0.146049
H	 1.0967089287	 3.990093401	 1.0232057793	 0.099179
