19
gdb 94064	4.44062	0.9776	0.84381	3.9672	76.96	-0.2347	0.0212	0.2558	1354.8963	0.16079	-419.218441	-419.20985	-419.208906	-419.251588	32.497	
C	-0.0103413875	 1.5272204587	 0.0757091659	-0.40378
C	 0.0228275327	 0.0102909008	-0.0049107935	 0.129803
C	 0.7075931013	-0.5149670558	-1.2732815644	-0.171504
N	 0.885422462	-1.9716653154	-1.2813591313	-0.305881
C	 1.5042872063	-2.4275162677	-0.0304523569	-0.115806
C	 0.7874199061	-1.8656597082	 1.2202046012	-0.083929
O	 0.7286604473	-0.460027538	 1.1461375174	-0.257281
C	 1.549528019	-3.890999169	 0.0142048353	 0.263793
N	 1.5543139586	-5.0439290168	 0.087427109	-0.313333
H	 1.0052313681	 1.9334626324	 0.0425455663	 0.128181
H	-0.5802479549	 1.9448086762	-0.759725852	 0.119475
H	-0.476634184	 1.8482936932	 1.010508038	 0.130926
H	-1.0068487186	-0.3902137863	 0.0279975846	 0.062943
H	 0.1362507668	-0.2337538863	-2.163507889	 0.111581
H	 1.6990944281	-0.050232597	-1.3554354589	 0.11425
H	-0.0165624606	-2.4287407634	-1.3892239061	 0.227931
H	 2.5362300467	-2.0514545337	-0.0179512062	 0.137234
H	-0.2224516525	-2.304420383	 1.2828330814	 0.098509
H	 1.3338013052	-2.1173364908	 2.1335448392	 0.126888
