16
gdb 47378	2.54292	1.44215	1.16874	3.8235	70.28	-0.2328	0.0037	0.2365	1080.6378	0.124721	-437.871686	-437.863556	-437.862611	-437.90484	30.374	
O	-0.0413854428	 0.1036534885	 0.7336459388	-0.314924
C	-0.0564712805	 1.1530506566	 0.1539502822	 0.397692
C	-1.3523560005	 1.9246257647	-0.1074371958	-0.305672
N	-1.2945232221	 3.0780292558	-1.0003329397	-0.289517
C	-0.0509932771	 3.8049479987	-0.8081689338	-0.196634
C	 1.1697004996	 2.9020965966	-1.0488105488	-0.05638
O	 1.1253394309	 1.7254225605	-0.2047587512	-0.226171
C	 1.2683335617	 2.5025491658	-2.4525973728	 0.336085
C	 1.3126465955	 2.1913333495	-3.612471347	-0.465687
H	-2.0925658367	 1.2048012762	-0.4629066935	 0.148178
H	-1.6953037382	 2.2511077964	 0.8846537324	 0.148564
H	-1.3448341141	 2.7665862466	-1.9659032301	 0.233167
H	-0.0071555052	 4.6628964802	-1.4843977243	 0.127408
H	-0.0131187728	 4.181540216	 0.221122458	 0.12168
H	 2.0904914611	 3.4147942464	-0.7491232079	 0.129054
H	 1.3764729912	 1.9084683417	-4.6348028765	 0.213156
