14
gdb 34552	4.39382	1.30517	1.19787	4.5243	72.92	-0.2546	-0.0582	0.1964	1001.4879	0.102535	-399.515678	-399.509306	-399.508362	-399.546509	25.403	
N	 0.0572310816	-1.1078240096	 0.1583345013	-0.33845
C	-0.0088657902	 0.0452710953	 0.0682077702	 0.204921
C	-0.0526136995	 1.4571605811	-0.0688933535	 0.251678
C	-1.1599529155	 2.2286506966	-0.0902729317	-0.194669
C	-0.7108368137	 3.6615106962	-0.0092955845	 0.039665
O	-0.167735399	 3.7966135521	 1.3737410046	-0.284743
C	 1.1204967752	 3.5630719874	 0.8623060917	 0.107515
C	 0.7417540892	 3.6928257458	-0.5698067209	-0.15743
C	 1.1601735157	 2.3187039234	-0.1012776085	-0.22029
H	-2.1805119542	 1.8904370924	 0.0216000476	 0.134344
H	-1.4205117436	 4.4561129981	-0.2268375991	 0.100274
H	 1.9713249828	 3.8610868137	 1.4614132185	 0.128372
H	 1.1441458466	 4.2440119006	-1.4091216602	 0.115375
H	 2.1358267946	 1.924380347	-0.3524997354	 0.113437
