18
gdb 99936	3.70366	0.70834	0.67871	4.485	87.31	-0.2853	-0.0465	0.2388	1692.9457	0.144821	-401.942107	-401.931778	-401.930834	-401.977575	36.98	
C	 0.0141971895	 1.5389465635	 0.1630111347	-0.401799
C	-0.045570482	 0.0230048591	-0.0409335122	-0.190994
C	 0.6929274601	-0.4713273348	-1.3136597656	 0.097633
C	 0.1112512762	 0.1192903699	-2.6061525694	-0.399814
O	 2.0659391855	-0.0771105438	-1.2966269824	-0.432743
C	 0.6067106679	-1.9414115926	-1.3594804267	 0.157456
C	 0.553412102	-3.1493062074	-1.3608141767	 0.008381
C	 0.4928071573	-4.5132919949	-1.3704364211	 0.199426
N	 0.4404230696	-5.6738858756	-1.3753061001	-0.334192
H	 1.0459683352	 1.8959472248	 0.1121469097	 0.133338
H	-0.5683907185	 2.0767416235	-0.5901711539	 0.125596
H	-0.3931458267	 1.8021939658	 1.1431531524	 0.120123
H	 0.4067770674	-0.4846420143	 0.820433911	 0.103131
H	-1.0845904126	-0.3222483212	-0.0854573968	 0.115782
H	 0.2460360907	 1.2027434104	-2.6017332184	 0.138068
H	 0.6359603042	-0.2907912214	-3.4711979814	 0.142032
H	-0.9529621899	-0.1118124168	-2.6927143058	 0.129908
H	 2.487556704	-0.4839319541	-0.5307798672	 0.288668
