18
gdb 60519	2.378	1.32274	1.12462	2.0998	73.7	-0.2362	-0.0879	0.1483	1167.2671	0.14454	-439.060878	-439.051274	-439.05033	-439.095958	33.808	
C	 0.6919146448	 0.0718756289	-1.2757690833	-0.4474
C	 0.1870715294	-0.9396140013	-0.2324448088	-0.026944
N	 0.3824693947	-0.6388255275	 1.1924489692	-0.103568
C	 1.7360397607	-0.4525797356	 1.7001187444	-0.228283
C	 0.7781616622	 0.6870589476	 1.6466656104	-0.204101
C	-1.3097986671	-1.1956554077	-0.3931520012	 0.316287
O	-1.778096353	-2.1823225474	-0.9087877607	-0.287816
C	-2.3012860166	-0.1312347885	 0.1032751576	 0.087226
O	-2.0257862438	 1.0261962373	 0.2836043841	-0.22059
H	 1.7668334397	 0.2460825622	-1.1661299883	 0.126886
H	 0.5256034127	-0.3291911203	-2.2801265748	 0.134876
H	 0.1683708812	 1.0263491868	-1.1946817348	 0.152923
H	 0.6623472965	-1.908691772	-0.4177902874	 0.110083
H	 1.9580203738	-0.9548440345	 2.6377390755	 0.121864
H	 2.5591178765	-0.4407247816	 0.9873549741	 0.112697
H	 0.9664618572	 1.4624080818	 0.9108064372	 0.122533
H	 0.2785857406	 1.0337047452	 2.5464120745	 0.124042
H	-3.3328831594	-0.5326214231	 0.1979592227	 0.109284
