18
gdb 105623	2.09185	1.34702	1.1869	2.2228	72.19	-0.2678	0.0131	0.2809	1160.6019	0.14649	-439.074967	-439.065606	-439.064662	-439.109188	33.785	
C	-0.4764932647	 1.398944688	-0.0340974406	-0.420728
C	 0.2165616845	 0.0543132962	-0.067220719	 0.119266
O	 1.5442414285	 0.1045728253	-0.6307253607	-0.286786
C	 2.0517984399	-0.8040880442	 0.363037334	-0.105216
C	 0.7851211495	-0.6027008525	 1.2377777974	 0.060865
C	 1.0383400922	 0.350666724	 2.4227617279	-0.12452
O	 1.8789337756	-0.236798759	 3.3916591486	-0.417426
C	 0.1099768932	-1.8014993601	 1.7119118563	 0.223673
N	-0.4238313472	-2.740253323	 2.126683429	-0.342016
H	 0.1044480674	 2.1486457078	 0.5074807926	 0.130895
H	-0.6128565659	 1.7543738084	-1.0600565584	 0.141969
H	-1.4655147412	 1.3097940914	 0.426636148	 0.131953
H	-0.4025557234	-0.6711410626	-0.6142366485	 0.091755
H	 2.1709478541	-1.8221607423	-0.0263835631	 0.118971
H	 2.9885122524	-0.463604522	 0.8125777851	 0.134309
H	 1.5686423382	 1.2319907417	 2.0528868563	 0.1315
H	 0.0810892704	 0.6807586924	 2.8500515414	 0.110651
H	 1.3999528367	-0.9625068597	 3.8084503736	 0.300882
