21
gdb 69927	3.27663	1.48767	1.30094	0.2612	86.84	-0.2335	0.0276	0.2611	1072.9378	0.184375	-349.941916	-349.93425	-349.933306	-349.973568	31.553	
C	 0.0156477885	 1.5800047132	 0.0697679288	-0.502366
C	 0.0230150695	 0.0791734943	 0.0229956152	 0.365807
C	-0.8930185128	-0.7820857637	 0.8441796751	-0.342588
C	 0.5956171692	-0.9452494712	 1.0126618623	-0.112326
C	 1.2195598867	-1.764860365	-0.1310327293	-0.012401
C	 0.649322977	-3.1579303309	-0.4922701467	-0.285148
C	-0.2664496613	-2.8659614344	-1.6655444185	-0.062851
C	-0.2789730383	-1.5795415564	-2.0256124816	-0.082466
C	 0.6198812326	-0.7470229282	-1.1578040418	-0.115284
H	 0.9895288834	 1.9949523637	-0.216731555	 0.112556
H	-0.7340338781	 1.9985356906	-0.6136620301	 0.117196
H	-0.2192145695	 1.9443010259	 1.0756404097	 0.115319
H	-1.3835870641	-0.2660647842	 1.6644384452	 0.103334
H	-1.4998147049	-1.5584432451	 0.3869195496	 0.110634
H	 1.0725056249	-0.7633964001	 1.9698549892	 0.076362
H	 2.3098474592	-1.754793901	-0.0896550139	 0.068403
H	 1.4346879343	-3.8737807055	-0.7671353889	 0.099382
H	 0.102127467	-3.6107737492	 0.3454233319	 0.105392
H	-0.8478236308	-3.647086736	-2.146359683	 0.088011
H	-0.8751231757	-1.1712625901	-2.8352826671	 0.087266
H	 1.3556151733	-0.1614131767	-1.7186597212	 0.065769
