18
gdb 38918	3.1469	1.75112	1.25918	0.7919	78.78	-0.2322	0.006	0.2382	993.9442	0.150095	-401.907924	-401.901011	-401.900066	-401.939017	28.249	
C	-0.0228471996	 1.5192098345	-0.038232454	-0.271839
C	 1.5092556171	 1.576796534	 0.0687454657	-0.101876
N	 2.1649833824	 0.8341655697	-1.0041700283	-0.381847
C	 1.5913094644	 0.0632607662	 0.08730591	 0.341305
C	 2.3009399698	-0.941848964	 0.8765761346	-0.164225
C	 1.5726521242	-1.8405606952	 1.543136352	-0.097578
C	 0.0622534676	-1.8072890283	 1.5445678546	-0.133645
O	-0.4957316777	-0.5561295673	 1.1640746054	-0.263286
C	 0.064001763	-0.0344461986	-0.0220702885	 0.044982
H	-0.5363900697	 1.869144046	 0.8593052645	 0.125971
H	-0.4636615353	 1.9922763974	-0.9217337273	 0.097131
H	 2.0989240954	 2.3095434686	 0.6074516857	 0.099946
H	 1.6098310183	 0.788315184	-1.8585093624	 0.225321
H	 3.3860285054	-0.9415324628	 0.8876618127	 0.101727
H	 2.0397813606	-2.6364896854	 2.1160397451	 0.098524
H	-0.3295148435	-2.6159900946	 0.9010269409	 0.101939
H	-0.3166659724	-2.0003448388	 2.55439395	 0.120095
H	-0.3159386499	-0.5715594654	-0.9065148806	 0.057357
