24
gdb 99861	1.96895	1.34442	1.01482	3.8823	89.	-0.3065	0.0438	0.3503	1347.4783	0.215172	-368.445682	-368.43439	-368.433446	-368.48156	41.687	
C	 0.0506729799	 1.5909706152	 0.1856132946	-0.410614
C	-0.0443776009	 0.0795934628	-0.0463637435	-0.20146
C	 0.6590556159	-0.4561295029	-1.3298822652	 0.095139
C	-0.0240162423	 0.1012110055	-2.6006204612	-0.42312
C	 2.0546171383	 0.019612082	-1.3089505468	 0.289567
N	 3.1485555903	 0.3940548631	-1.2817853651	-0.367525
C	 0.7046078353	-2.0291016211	-1.3099463757	 0.030431
C	-0.6868958573	-2.6771685409	-1.2514240194	-0.418795
C	 1.5117478882	-2.6211829786	-2.4754161079	-0.420035
H	 1.091252624	 1.9231742686	 0.2412118605	 0.146779
H	-0.4445631691	 2.1601657785	-0.6064928837	 0.12071
H	-0.4368272445	 1.8540695939	 1.1290395107	 0.118642
H	 0.380375431	-0.4446176791	 0.8177521395	 0.109523
H	-1.0985349286	-0.2092612887	-0.1026635806	 0.107167
H	 0.0236737587	 1.1917947636	-2.6223030661	 0.136449
H	 0.45731611	-0.2669295993	-3.5088805437	 0.134786
H	-1.0766389924	-0.1933689509	-2.6208083591	 0.123467
H	 1.2304164265	-2.2906560515	-0.382403001	 0.090345
H	-1.2641127903	-2.3641341613	-0.3783937417	 0.119804
H	-1.2759640423	-2.4575881699	-2.1477948153	 0.120316
H	-0.5774559074	-3.7647346068	-1.1967174977	 0.120845
H	 2.5048385532	-2.171063127	-2.5541858585	 0.143058
H	 1.642881063	-3.697375821	-2.3264125212	 0.117161
H	 0.998042071	-2.4876335943	-3.4331999218	 0.117361
