21
gdb 39240	2.92208	1.58753	1.19027	1.2538	81.66	-0.235	0.0794	0.3144	1091.3951	0.185412	-387.06188	-387.054397	-387.053453	-387.093511	31.015	
C	-0.05635533	 1.5250492064	-0.0283070909	-0.300143
C	 1.2710830821	 0.8073553413	-0.0051284083	-0.01057
C	 2.2385459138	 0.8710466058	 1.1735850385	-0.105155
O	 1.7764201172	 0.3048383129	 2.3941684179	-0.247106
C	 1.7354659606	-1.0920700031	 2.3456972823	 0.128255
C	 0.7501039673	-1.7751543851	 3.2421694959	-0.340189
C	 0.5085461552	-1.7256096551	 1.7440050751	-0.033844
C	-0.5165503311	-0.7476183687	 1.2009119479	-0.248605
C	-0.0229137455	 0.0153687605	-0.0242692806	-0.009211
H	-0.3800067832	 2.0008501952	 0.8931938013	 0.114917
H	-0.3450084742	 2.0562403216	-0.9291397254	 0.105255
H	 1.8043372157	 0.8165434226	-0.953411387	 0.081199
H	 3.17991522	 0.3789647811	 0.8805257692	 0.086987
H	 2.4787686959	 1.9136583913	 1.4105316675	 0.10624
H	 2.7096040082	-1.5581714971	 2.1896870978	 0.077865
H	 1.044336904	-2.7129575039	 3.700205087	 0.110633
H	 0.1312203231	-1.1401450273	 3.8671778992	 0.12135
H	 0.6458083598	-2.6457209627	 1.1825849735	 0.07939
H	-1.4496892976	-1.2675331588	 0.9548444431	 0.094981
H	-0.763988329	-0.032917523	 1.9901264024	 0.107616
H	-0.2362881626	-0.471058474	-0.9726984066	 0.080136
