19
gdb 72732	2.71416	1.95503	1.58074	1.7493	74.89	-0.2262	0.0513	0.2776	918.8143	0.16027	-422.917403	-422.910432	-422.909488	-422.948041	30.321	
O	 0.1264030523	 1.3322267645	 0.0777237454	-0.482181
C	 0.1631110988	-0.0851007721	 0.076416553	 0.427179
C	 0.225444311	-0.453545966	 1.600467789	-0.31581
C	-1.3830625706	-0.3470065259	 1.5442665113	-0.335935
C	-1.1870747956	-0.7227833436	 0.0507828733	 0.360263
C	-0.9973553018	-2.2236994897	-0.2458243662	-0.254178
C	 0.0595870964	-2.1117262416	-1.3837548533	-0.214909
C	 0.129766775	-0.5919691819	-1.413625574	-0.057381
O	-1.3443711563	-0.2116516827	-1.3619371979	-0.409406
H	-0.476288429	 1.578623861	-0.6383986754	 0.283368
H	 0.5709993083	-1.4593906925	 1.8344601447	 0.116526
H	 0.7367205702	 0.2779580986	 2.2260549392	 0.123264
H	-1.9749207185	-1.0256801433	 2.1619070515	 0.10495
H	-1.6834212852	 0.6854841973	 1.7102072614	 0.136159
H	-0.6583332269	-2.8072534589	 0.6120583035	 0.103443
H	-1.9430985221	-2.6487333814	-0.5900875031	 0.113002
H	 1.0212320661	-2.5725235432	-1.1408968578	 0.104524
H	-0.2916323389	-2.5153354697	-2.3352870008	 0.112854
H	 0.6602476069	-0.072867809	-2.213385354	 0.084267
