18
gdb 67524	2.46301	1.78192	1.51296	2.1229	75.24	-0.2354	-0.0295	0.2059	967.0441	0.146915	-401.89703	-401.889249	-401.888305	-401.928996	30.705	
C	-0.01126145	 1.5134051353	 0.0184198965	-0.469138
C	-0.0388025596	 0.0028173415	-0.0035669519	 0.21633
C	-1.261611046	-0.6814457126	 0.6400259442	-0.111915
C	-1.1629867376	-2.1820413214	 0.5706049075	-0.319218
C	-0.2774349988	-1.4317219524	 1.5297301004	-0.003554
N	 0.8957058671	-0.7499431421	 0.9275530197	-0.160218
C	 1.5692270979	-1.4515221833	-0.211314776	-0.314326
C	 0.6443479704	-0.7083372307	-1.2022759412	 0.349639
O	 0.5319215688	-0.6627641496	-2.3902497744	-0.290999
H	 0.989013492	 1.8921481858	-0.211228654	 0.127031
H	-0.7091357482	 1.9092275257	-0.7272566405	 0.133974
H	-0.3030431307	 1.8872080179	 1.0046306787	 0.129144
H	-2.1762213082	-0.1616996471	 0.8964300476	 0.097008
H	-1.9832951904	-2.7045290961	 1.0529750783	 0.121467
H	-0.7847408986	-2.6904826106	-0.3104822131	 0.123869
H	-0.2978356384	-1.6155160979	 2.5977219453	 0.099864
H	 2.624097027	-1.1718210599	-0.3030386524	 0.136434
H	 1.4940328432	-2.5435163026	-0.2202628447	 0.134608
