18
gdb 114971	3.02165	1.41915	1.14376	4.004	72.59	-0.246	0.0178	0.2638	1105.0343	0.148309	-439.043175	-439.035195	-439.034251	-439.075965	29.849	
C	 0.1916451252	 1.4015779135	 0.1525323101	-0.23853
O	-0.1479319625	 0.0638240119	-0.1396476069	-0.242826
C	 0.5534022302	-0.4932392107	-1.2290509773	 0.079852
C	 2.0197837789	-0.9554296806	-0.8391622502	-0.188925
N	 1.887803861	-2.2982485586	-0.1970411436	-0.305792
C	 0.7881418957	-2.7058555235	-0.6599396738	 0.435988
O	-0.1750552877	-3.5936758193	-0.2710807736	-0.275727
C	-1.185401386	-2.6604969407	-0.8469404514	-0.122613
C	-0.0521704427	-1.8682889465	-1.5570601098	-0.171521
H	 1.2375459134	 1.5112324119	 0.4712113866	 0.11531
H	 0.0231529985	 2.0570125737	-0.7160876445	 0.10724
H	-0.4557133567	 1.7237365345	 0.9711753368	 0.133514
H	 0.5543894918	 0.2047899461	-2.0793469043	 0.06429
H	 2.6671943396	-0.9912804206	-1.7255552605	 0.105732
H	 2.4797896769	-0.2673064004	-0.1250359478	 0.118538
H	-1.8851621153	-3.1996787203	-1.4861463303	 0.126741
H	-1.6906166685	-2.1247046653	-0.0430986045	 0.148927
H	 0.0225252082	-2.109362115	-2.6191745049	 0.109799
