17
gdb 81857	3.04635	1.44363	1.12442	3.7136	67.92	-0.2604	-0.032	0.2284	1088.2273	0.134269	-458.976217	-458.967908	-458.966963	-459.008872	31.643	
C	 0.0063528699	 1.5018906938	-0.0072989548	-0.484814
C	-0.0616690622	 0.0046493393	 0.0970844134	 0.396502
C	-1.2809881431	-0.7593167636	-0.406932844	-0.38708
C	-1.0523190562	-2.1565725255	 0.159936282	 0.353122
O	-1.4127317789	-3.2113200751	-0.2942146523	-0.315332
C	-0.1601834558	-2.0574621973	 1.4094203275	 0.046372
O	 0.5938993464	-3.217934382	 1.6107418474	-0.436659
C	 0.624194164	-0.7940833634	 1.1351803372	-0.046214
O	 1.1446937506	-0.7223518692	-0.1995759626	-0.288728
H	 0.9444550882	 1.8714525272	 0.4136933125	 0.137604
H	-0.0463503677	 1.8181134496	-1.0546501981	 0.13478
H	-0.8279317021	 1.9683258347	 0.52697517	 0.125613
H	-2.2137276715	-0.3383806828	-0.0091305439	 0.132006
H	-1.3602391124	-0.7865675955	-1.4968457324	 0.143442
H	-0.82349742	-1.8621104539	 2.2755105901	 0.088615
H	 0.1721406387	-3.901898312	 1.0693207674	 0.295708
H	 1.2410106423	-0.3419017243	 1.9070834405	 0.105065
