16
gdb 45717	2.58175	1.46111	1.1633	2.9843	77.42	-0.2552	-0.0091	0.246	1088.2069	0.12391	-400.723519	-400.715321	-400.714377	-400.757167	30.67	
N	-0.1795960558	 1.0488771737	-0.925116127	-0.512445
C	-0.0330487228	 0.0815726011	-0.1232935338	 0.400362
C	-1.2309881482	-0.5832005854	 0.5189356067	-0.343632
C	-0.9863160174	-2.0284300412	 0.8503447489	-0.072552
C	 0.2367229227	-2.4424400459	 1.1544537207	-0.067945
C	 1.3835296093	-1.45894592	 1.1415270767	-0.109095
O	 1.2074204692	-0.4107352202	 0.1673740518	-0.25007
C	 1.6147544218	-0.8909654646	 2.4740568949	 0.343869
C	 1.797593705	-0.4351531036	 3.5707037898	-0.470307
H	 0.7318503411	 1.3794483769	-1.248479156	 0.220252
H	-1.473588378	-0.0345921846	 1.4411062588	 0.151525
H	-2.0812608173	-0.4432679455	-0.150489078	 0.146462
H	-1.8314927497	-2.7092494328	 0.8556965544	 0.110401
H	 0.4663531823	-3.4632100791	 1.4375799808	 0.114467
H	 2.2996930168	-1.9633519286	 0.8143128025	 0.131028
H	 1.9619398512	-0.0280299902	 4.5380416188	 0.207679
