20
gdb 41471	3.20359	1.63439	1.35595	1.4869	77.49	-0.2122	0.0757	0.2878	1006.6585	0.173506	-403.11127	-403.104024	-403.10308	-403.143013	29.287	
C	-0.1277825409	 1.3289726573	-0.1147563777	-0.164478
C	 1.3961322088	 1.6159819965	-0.0210594218	-0.348291
C	 1.5770380748	 0.1061994988	 0.2017146566	 0.360515
C	 2.6043510038	-0.7541532101	-0.5094449942	-0.30987
C	 2.5276084096	-2.0636391611	 0.2914792313	-0.093257
O	 2.274174476	-1.6716427663	 1.6439043851	-0.264273
C	 1.4656250512	-0.5138959933	 1.6237752616	 0.058497
C	-0.0478563759	-0.717087122	 1.3251416045	-0.216427
N	 0.0973517414	-0.1531924929	-0.0545821917	-0.161068
H	-0.7218481467	 1.7152192707	 0.7216851282	 0.098445
H	-0.6073773554	 1.6390235171	-1.0475124317	 0.106807
H	 1.8366573926	 1.9726346683	-0.9553604548	 0.109782
H	 1.7297356465	 2.2682593394	 0.790321837	 0.105455
H	 2.377232916	-0.8878870869	-1.5699898145	 0.110566
H	 3.5969175636	-0.2984485661	-0.4131333265	 0.106055
H	 1.7112098499	-2.6945304569	-0.0898884853	 0.105573
H	 3.4496074121	-2.6499272558	 0.2852263605	 0.109414
H	 1.7177812738	 0.0904120248	 2.4990413171	 0.079721
H	-0.3605471238	-1.7658441236	 1.3195996005	 0.108896
H	-0.7306220773	-0.1500526678	 1.9681271959	 0.097938
