9
gdb 2126	3.86814	3.72985	1.92253	4.3657	40.67	-0.2903	-0.0799	0.2104	581.7938	0.055819	-416.384141	-416.378737	-416.377793	-416.413665	18.463	
O	-0.0538716848	-0.0142516788	 0.0034837598	-0.288861
C	-0.0137140734	 1.1732289289	 0.0101299076	 0.326068
O	-1.0973489859	 1.992068703	 0.0278083404	-0.209639
C	-0.6707321301	 3.3463565853	 0.0299149252	 0.037654
O	 0.7489650156	 3.3618587783	 0.0119566605	-0.209638
C	 1.2182331425	 2.0872187699	-0.0005037501	 0.326067
O	 2.3662108164	 1.7812206755	-0.0172705044	-0.288862
H	-1.0513002549	 3.8489751956	-0.8639917268	 0.15362
H	-1.0284243954	 3.8389988323	 0.9387040078	 0.153592
