13
gdb 49320	2.42638	1.88782	1.06174	2.6054	68.54	-0.2661	-0.1042	0.1618	1025.9918	0.090121	-452.811836	-452.804383	-452.803438	-452.84418	26.906	
N	 0.0949845813	 1.3147577132	 0.0056021299	-0.421486
C	 0.0119550767	 0.0530844635	 0.0018093086	 0.086139
N	-1.2128555285	-0.628654195	 0.0091211556	-0.199021
C	-2.5342061589	-0.1017804468	 0.0202951581	 0.421786
O	-2.8561956642	 1.0522482153	 0.0258144978	-0.297531
C	-3.4366516017	-1.3010045242	 0.0239359421	-0.173115
C	-2.704505721	-2.4142999637	 0.0153630854	-0.197429
C	-1.2588122433	-2.0419687591	 0.0056065487	 0.432768
O	-0.2985980655	-2.7699046241	-0.0037555815	-0.338271
H	 1.076494138	 1.5905958671	-0.0012419482	 0.238177
H	 0.8363099348	-0.6653158664	-0.0071872559	 0.138032
H	-4.5110102711	-1.1851325594	 0.0322996618	 0.155952
H	-3.0205924167	-3.4474624604	 0.0148923678	 0.154002
