18
gdb 37395	2.81674	2.20161	1.76547	0.9588	72.89	-0.2317	0.069	0.3007	837.9822	0.15195	-401.876236	-401.870405	-401.869461	-401.906011	25.893	
C	-0.0570194536	 1.5727070257	 0.032857551	-0.241842
C	 1.4963198935	 1.4733122825	 0.0199553092	-0.10745
C	 2.0085513608	 1.2892410067	 1.4462845416	-0.018037
N	 0.9856222455	 1.3606198134	 2.5247979872	-0.346703
C	 1.4911014432	 0.0554051242	 2.0837439061	-0.020393
C	 0.7229692009	-0.7685610003	 1.0680901878	 0.053869
O	 1.764825553	-1.0948142472	 0.0787148842	-0.300007
C	 1.3110540935	 0.0298727001	-0.6749114431	 0.1328
C	-0.0812562525	 0.0371118281	-0.0277610546	-0.074036
H	-0.5196892382	 2.0959918094	 0.8656690353	 0.129644
H	-0.4319850485	 1.9656106033	-0.9177606745	 0.091189
H	 2.0565721469	 2.2259956641	-0.5355896323	 0.061883
H	 3.0139340891	 1.6254318402	 1.676356598	 0.086597
H	 1.4379315988	 1.6076553379	 3.4011125919	 0.231949
H	 2.1260842272	-0.5190740649	 2.7529845286	 0.091859
H	 0.2513880861	-1.6704527968	 1.4634840684	 0.076602
H	 1.5333524543	-0.030386718	-1.7414977542	 0.079589
H	-0.93620722	-0.5070874085	-0.4304733406	 0.072489
