15
gdb 49392	6.74489	0.94812	0.91985	0.4739	70.97	-0.2553	-0.0447	0.2106	1212.3153	0.111985	-420.57099	-420.563843	-420.562899	-420.603121	26.816	
O	 0.0293330187	-0.1202126128	-0.4321027355	-0.249851
C	 0.0339665703	 1.0490881903	-0.1401270074	 0.150359
C	 1.2739505888	 1.8938749427	-0.0698972394	-0.120238
C	 1.2267225017	 3.3210267384	-0.6778762373	-0.04673
C	 0.4123487197	 3.9236780177	 0.535452764	-0.215074
C	 1.4313501381	 2.8698658558	 1.1266863248	-0.046761
C	 2.3574524051	 3.8357698011	 0.2927804667	-0.201137
C	 1.4706687008	 5.0142630966	 0.6880389369	 0.452485
O	 1.5569622527	 6.1690970767	 0.9672144948	-0.321064
H	-0.9151479961	 1.5810934406	 0.1010693904	 0.073688
H	 2.1505033967	 1.2902496554	-0.3201514013	 0.096521
H	 1.1112657769	 3.6113088105	-1.7214191157	 0.107293
H	-0.6667456564	 3.9428442841	 0.6626321794	 0.108551
H	 1.5542033358	 2.6349394148	 2.1832237216	 0.107312
H	 3.4300603473	 3.7311992582	 0.1450315482	 0.104645
