14
gdb 124261	3.94695	1.26892	0.96588	2.7668	70.32	-0.2471	-0.106	0.1411	1135.2706	0.101096	-432.892788	-432.88509	-432.884146	-432.925733	27.281	
C	 0.0973225168	 1.505830303	 0.0026022268	-0.482775
C	 0.0675928815	-0.0014002202	 0.0404115945	 0.328354
O	 0.0656377996	-0.6470821218	 1.0647312423	-0.280793
C	 0.0388702777	-0.7291681619	-1.2858167091	 0.204623
C	 0.0105680439	-2.128627492	-1.3262522272	 0.004323
N	-0.0149197274	-2.7939821396	-2.4767857562	-0.172229
N	-0.0131180972	-2.0945186978	-3.6115177366	-0.169528
C	 0.014230612	-0.7650589445	-3.5307400622	 0.096611
N	 0.0408030121	-0.0290813109	-2.4146950433	-0.292519
H	 0.9732507682	 1.8539410407	-0.553806929	 0.157132
H	-0.775822785	 1.8889064193	-0.5348783377	 0.157133
H	 0.1160536444	 1.8903852479	 1.0221711377	 0.145501
H	 0.0085829711	-2.7137226985	-0.4141182715	 0.159415
H	 0.0146650724	-0.2352329337	-4.4787855485	 0.144751
