19
gdb 86756	2.89439	1.17145	0.94639	3.76	82.83	-0.2381	0.0006	0.2387	1286.9116	0.159491	-382.095162	-382.086027	-382.085083	-382.129092	33.885	
C	 0.1199043466	 1.6427843895	-0.0237099718	-0.382295
C	 0.0068969617	 0.1188603031	 0.0782105827	-0.053536
N	 0.6508224061	-0.5324740871	-1.078776963	-0.317992
C	 1.3288803256	-1.75706628	-0.6373961021	-0.145699
C	 1.4732962697	-1.5338898029	 0.8528316067	-0.190652
C	 0.7383351948	-0.4997082311	 1.254689368	 0.354503
C	 0.5779098902	 0.0115465398	 2.6498326537	-0.497924
C	 0.5615109769	-2.9930401461	-0.9222554804	 0.247956
N	-0.0545085811	-3.9398718567	-1.1707130138	-0.32956
H	 1.1703022919	 1.9451980398	-0.0621817137	 0.123882
H	-0.3693488514	 1.9990950128	-0.9353480426	 0.118411
H	-0.3638248789	 2.1328953673	 0.8274958997	 0.113298
H	-1.0651260389	-0.139546066	 0.1608803512	 0.082035
H	 0.0141595834	-0.6950822539	-1.8481558027	 0.234005
H	 2.3003650814	-1.8657251913	-1.1403906785	 0.126258
H	 2.0763444648	-2.1826187512	 1.4746976656	 0.11288
H	 1.142497306	-0.5929802431	 3.3636501045	 0.131539
H	 0.9175874898	 1.050072622	 2.7367464301	 0.137437
H	-0.4769265687	-0.0003347949	 2.9515538661	 0.135456
