21
gdb 97973	7.93918	0.44963	0.44189	1.7503	89.71	-0.2418	0.0578	0.2996	2506.5508	0.180631	-387.048777	-387.038252	-387.037307	-387.086538	36.411	
C	-0.0175747143	 1.5844435285	 0.0321288908	-0.362423
C	-0.0124204713	 0.0447382048	 0.0208870534	-0.313162
C	-1.3525013172	-0.5321136268	 0.0718941168	 0.123622
C	-2.4718793325	-0.9753532001	 0.1193883013	 0.003723
C	-3.810574064	-1.5521887663	 0.1654372069	-0.346834
C	-3.8435637001	-3.0342136807	-0.267902733	-0.206431
C	-5.2421369351	-3.5965264933	-0.2291458933	 0.093662
C	-5.529127445	-4.9687459411	 0.2045497363	-0.181805
O	-5.7869289674	-3.8610272403	 1.0688653324	-0.236961
H	 1.00538161	 1.9708327645	-0.0077779243	 0.112217
H	-0.5685038068	 1.9771214226	-0.8268644297	 0.126316
H	-0.4947651716	 1.9641557956	 0.9396472119	 0.127718
H	 0.5051210746	-0.3114030573	-0.8794210456	 0.124927
H	 0.5771380243	-0.324035918	 0.8703276509	 0.126118
H	-4.2198322906	-1.4775154021	 1.180537798	 0.143698
H	-4.4860294816	-0.9719129295	-0.4781101616	 0.122475
H	-3.4414917656	-3.1272371958	-1.2836952102	 0.110734
H	-3.1962307641	-3.6194543355	 0.392840944	 0.114029
H	-5.9545657696	-3.1255118736	-0.9105484098	 0.090427
H	-6.4112915554	-5.4852653872	-0.1715641671	 0.114126
H	-4.7073456067	-5.6166000084	 0.5077246619	 0.113823
