16
gdb 44053	2.68176	1.72163	1.56908	2.3863	67.94	-0.2286	-0.0353	0.1933	915.2483	0.123944	-437.796949	-437.789663	-437.788718	-437.828619	28.457	
O	-0.008815749	 0.0289637329	-0.5756987146	-0.276458
C	-0.0376095338	 1.1557012865	-0.1893205505	 0.367911
C	-1.1773934874	 2.0908766747	 0.3546415704	-0.421613
C	-0.0844298005	 3.1587506325	 0.5954699796	 0.36311
C	 0.7354896045	 3.3132745939	 1.906930275	-0.241165
N	 1.6809081769	 2.2656878664	 1.3918836136	-0.370043
C	 1.0215959582	 2.271275681	 0.0757214946	 0.07133
C	 1.23505667	 3.3974766254	-0.9705991398	-0.152553
O	 0.1143493101	 4.1601541622	-0.4217705616	-0.32669
H	-1.9263342472	 2.3680843977	-0.3917372181	 0.14797
H	-1.6852513758	 1.698534025	 1.2404232915	 0.14167
H	 1.1500231742	 4.3225336017	 2.0049757192	 0.117226
H	 0.2503778924	 3.0284954493	 2.8462075509	 0.114336
H	 2.6736843687	 2.4668706306	 1.4220538463	 0.229547
H	 2.185357264	 3.935540317	-0.8716071833	 0.111631
H	 1.0737293948	 3.1330637533	-2.0210503631	 0.123791
