19
gdb 86114	2.775	1.30794	0.9422	2.9401	77.96	-0.247	-0.0257	0.2213	1250.1989	0.158846	-423.070158	-423.061443	-423.060499	-423.103498	33.234	
C	-0.0779421181	 1.5574104376	 0.0678042801	-0.477312
C	-0.0120668934	 0.056746694	-0.0100388318	 0.303953
C	-0.04180071	-0.5992741364	-1.1735348143	-0.147052
C	 0.0694228815	-2.0967487654	-1.3169978443	-0.365016
C	 0.2355571734	-2.8075095565	 0.0093896923	 0.367881
O	 0.8396784276	-3.8500101451	 0.1455348374	-0.337606
C	-0.4006434825	-2.1318356958	 1.213639007	 0.04552
O	-0.1440229877	-2.852074638	 2.3850338001	-0.442154
C	 0.1066807108	-0.68032099	 1.3056410894	-0.32249
H	 0.7973234719	 1.961155225	 0.5927286183	 0.129072
H	-0.1203592106	 2.0144986417	-0.9241357347	 0.122694
H	-0.957699464	 1.8851992819	 0.6359285377	 0.127609
H	-0.1255324716	-0.0396278186	-2.1022659194	 0.087523
H	-0.8324279491	-2.504222398	-1.8007583311	 0.140804
H	 0.9036543699	-2.3858047559	-1.9672244703	 0.139136
H	-1.4867447615	-2.0920771404	 1.0146882172	 0.094354
H	 0.3623989205	-3.6293895357	 2.0973267722	 0.291146
H	 1.1515144671	-0.696137939	 1.64594017	 0.124503
H	-0.4550106141	-0.1626078954	 2.0911683942	 0.117435
