19
gdb 73010	2.75113	1.46892	1.16541	2.4538	75.29	-0.2327	0.06	0.2926	1105.6952	0.15854	-422.9519	-422.943549	-422.942605	-422.984923	31.254	
C	 0.0017021012	 1.5928427019	-0.0019986423	-0.501816
C	 0.0029282906	 0.0927599654	 0.0248103217	 0.163382
C	-0.7970693088	-0.817144734	-0.9102848446	-0.12736
O	-1.035814168	-1.782987767	 0.1504137792	-0.289825
C	-0.367722428	-0.9320962075	 1.0859660643	-0.019489
C	 1.0584641026	-0.7598823448	 0.6904850603	 0.237823
C	 2.0421402724	-1.795950596	 0.159678938	-0.144286
O	 3.0562034042	-1.3199864511	 1.0778831454	-0.276859
C	 2.19822407	-0.2768379619	 1.5841806068	-0.157602
H	 0.5877373865	 1.9773938973	-0.8454653908	 0.126901
H	-1.0162534767	 1.9867250424	-0.0947445911	 0.12512
H	 0.4361765703	 2.0081552569	 0.9125741731	 0.126761
H	-1.7427297787	-0.3712249252	-1.2406966347	 0.108892
H	-0.2769226352	-1.2578250954	-1.7693594398	 0.106208
H	-0.7660214027	-0.8601171071	 2.0931969716	 0.104056
H	 1.7741104503	-2.8432589994	 0.3399121464	 0.115992
H	 2.3528481779	-1.6749152401	-0.886848112	 0.098325
H	 2.59442361	 0.7230266519	 1.3589281284	 0.099372
H	 2.0385030919	-0.3598293862	 2.6674614202	 0.104405
