18
gdb 85243	2.69585	1.61171	1.16008	4.9532	72.19	-0.2465	0.0073	0.2538	1088.239	0.147579	-439.114651	-439.106235	-439.10529	-439.147392	31.845	
C	 0.1811265603	 1.5383829414	-0.0761204372	-0.402025
C	-0.0227232776	 0.0414351039	 0.0833809592	 0.129075
O	 0.4818084354	-0.6386267117	-1.0942932935	-0.24702
C	 1.2535732116	-1.713119818	-0.7814558206	 0.452789
O	 1.635137335	-2.5025287313	-1.5968597066	-0.351235
C	 1.4966306411	-1.7334137005	 0.7093655439	 0.163776
C	 1.8080055315	-3.0419481316	 1.3751534858	-0.493744
N	 2.1752059884	-0.4624713757	 1.102384919	-0.359695
C	 0.716468799	-0.5986088092	 1.2487147856	-0.133759
H	 1.2484763702	 1.7675389238	-0.0997144783	 0.150344
H	-0.2824068512	 1.8890709317	-1.0014571568	 0.133486
H	-0.2788906819	 2.0700964662	 0.7631802388	 0.11606
H	-1.0916287071	-0.1968984811	 0.1529110797	 0.094632
H	 2.728703338	-3.4650494296	 0.9628583463	 0.152903
H	 1.9326696499	-2.9126502624	 2.4547604762	 0.115252
H	 1.0071909342	-3.7681618449	 1.2063469958	 0.140435
H	 2.6161558669	-0.6154877469	 2.0082775827	 0.235881
H	 0.2615961462	-0.6152207442	 2.2329808302	 0.102844
