13
gdb 123306	2.00708	1.90575	0.97755	2.5085	81.84	-0.2291	-0.0155	0.2135	1112.8641	0.089196	-378.428884	-378.421086	-378.420142	-378.461179	29.559	
C	 0.0288358674	-1.2167322277	-0.0040876109	-0.404318
C	 0.0027429857	-0.0131812011	 0.0029837744	 0.169395
C	-0.0177226446	 1.3971549706	 0.0110330049	 0.005362
C	-1.1237755397	 2.2302298479	 0.0295745762	-0.117986
N	-0.6489870084	 3.4947761793	 0.0305896417	-0.192648
N	 0.690776299	 3.5719707564	 0.0141347838	-0.291451
C	 1.0974033977	 2.2987515191	 0.0019392339	 0.15851
C	 2.4700887569	 1.9542962533	-0.0172784772	 0.25768
C	 3.628660615	 1.6316363058	-0.033620268	-0.40241
H	 0.057083049	-2.2779127849	-0.0104469049	 0.185556
H	-2.1777927597	 2.0058465069	 0.0416177902	 0.154098
H	-1.1801896957	 4.3494942407	 0.0420291212	 0.285703
H	 4.6527225774	 1.3515286138	-0.0478384052	 0.192509
