20
gdb 80840	2.45773	1.74145	1.32774	3.2466	79.11	-0.2141	-0.0063	0.2079	1045.5625	0.170403	-403.139716	-403.131188	-403.130244	-403.172322	33.345	
C	-0.2542636044	 1.4283462408	-0.0403043129	-0.334883
N	 0.0103555859	-0.0026711223	 0.0212302191	-0.137062
C	 1.1624305936	-0.490849559	-0.8263073011	 0.001856
C	 2.1571900092	-0.1145755487	 0.3022338843	-0.292961
C	 0.9078017857	-0.4613205914	 1.1745604847	 0.219398
C	 0.662524902	 0.0008102403	 2.5813153077	-0.5141
C	 0.7938079964	-1.9683128527	 0.8865343428	 0.442415
O	 0.6137147071	-2.864635789	 1.6633348754	-0.33943
C	 0.9830392031	-2.0076638047	-0.6443203836	-0.33227
H	 0.6220991251	 2.0880049078	 0.0749545213	 0.095956
H	-0.7149837106	 1.6521266853	-1.0081903447	 0.123911
H	-0.977041627	 1.6926078109	 0.737590354	 0.127704
H	 1.244088007	-0.0972431168	-1.8394301498	 0.075494
H	 3.068672722	-0.7093335777	 0.4233504254	 0.103302
H	 2.4039326185	 0.94695157	 0.3354811616	 0.113599
H	 0.7724387909	 1.0841970277	 2.6825509139	 0.117109
H	-0.3441126209	-0.2825980092	 2.9043564771	 0.13937
H	 1.3722730322	-0.4828698673	 3.2593320108	 0.136895
H	 0.0929313603	-2.396252954	-1.1437263094	 0.133264
H	 1.8513605639	-2.6081947899	-0.9303420367	 0.120432
