19
gdb 39422	2.49997	2.00634	1.42345	0.7101	74.25	-0.2308	0.086	0.3168	959.4295	0.161517	-422.98304	-422.975946	-422.975002	-423.014096	29.412	
C	-0.0194492061	 1.4582787283	-0.0555702059	-0.328002
C	 1.3225980959	 0.8160686782	 0.1295008829	 0.100041
O	 1.8958310434	 0.9988233139	 1.3934843396	-0.25479
C	 2.6050342684	-0.1086915024	 1.9125103936	 0.004718
O	 2.0108740995	-1.3499859382	 1.6711488895	-0.235702
C	 0.6648029279	-1.5449016849	 2.0200195955	 0.112424
C	-0.222943863	-0.482197478	 2.6141806035	-0.357347
C	-0.3925156299	-0.8898759796	 1.1577881263	-0.069937
C	 0.0920859682	-0.0535911891	 0.0089316207	-0.027641
H	-0.4262211198	 1.9606325779	 0.8151807243	 0.124133
H	-0.2496613686	 1.9292228603	-1.0047566661	 0.111931
H	 2.0340585963	 0.8209387728	-0.6959306814	 0.087397
H	 3.6022886363	-0.1907718343	 1.4592149197	 0.104759
H	 2.6963565033	 0.1066810441	 2.9858261702	 0.102319
H	 0.5202377955	-2.5694919215	 2.3470751203	 0.098589
H	-0.9800434622	-0.8223871685	 3.3133144922	 0.108719
H	 0.1850410336	 0.4931037235	 2.8357024363	 0.144506
H	-1.275585083	-1.4810267312	 0.9331591687	 0.084816
H	 0.0027764543	-0.5657607011	-0.9457114697	 0.089068
