17
gdb 46314	3.12197	1.37289	1.22883	2.7673	69.97	-0.2387	0.0229	0.2616	1057.4261	0.137378	-455.126912	-455.119005	-455.118061	-455.159933	29.348	
N	 0.015592206	 1.1394503973	-0.5449396044	-0.551683
C	 0.0486857578	-0.0375963203	-0.0883423955	 0.325633
N	 0.9631568633	-0.8723084267	 0.5449395968	-0.34281
C	 0.1154478238	-2.0738114261	 0.4585548011	-0.223342
C	-1.0330986962	-1.1339083836	-0.0266986582	 0.327271
C	-2.2433017047	-0.8506018585	 0.8886805929	-0.182921
O	-3.3257572372	-1.4768861956	 0.21558954	-0.23371
C	-3.0131295139	-1.3256874139	-1.1418893692	 0.010307
O	-1.61198257	-1.5197714422	-1.2526671717	-0.286677
H	 0.9176005825	 1.6122627015	-0.4652646124	 0.210482
H	 1.9696040995	-0.8339635853	 0.4803548004	 0.24371
H	 0.4048230563	-2.7861492885	-0.3202327105	 0.122743
H	-0.0309637524	-2.5917385189	 1.4113410049	 0.109949
H	-2.1530627916	-1.2821011537	 1.8870070145	 0.123708
H	-2.4006477172	 0.2344294639	 0.9681154331	 0.124392
H	-3.5308664797	-2.094904116	-1.7210400101	 0.121015
H	-3.2803298463	-0.3183811534	-1.5038521416	 0.101934
