21
gdb 121571	4.92107	0.40197	0.38019	1.8949	85.42	-0.2431	0.0593	0.3024	2792.9859	0.179821	-424.190546	-424.178942	-424.177998	-424.231393	38.924	
O	-0.1059424976	 0.916957083	 1.2676398573	-0.421913
C	-0.0942438592	-0.0244380318	 0.2064432877	-0.074371
C	-1.4074025646	-0.7942037502	 0.25136056	-0.153861
C	-1.4999226575	-1.8548795776	-0.8620185277	-0.358376
C	-2.7525908757	-2.6022717469	-0.8368504514	 0.034268
C	-3.7967754996	-3.2019262177	-0.8074924319	 0.089544
C	-5.0514840251	-3.9411210925	-0.7474419377	-0.324433
C	-5.2803720398	-4.6009427767	 0.6167016559	-0.062543
O	-6.5212280726	-5.2830702353	 0.5447583784	-0.415935
H	 0.7191113562	 1.4100277589	 1.2422647511	 0.285706
H	 0.0107079982	 0.4758928122	-0.7708887132	 0.084366
H	 0.7518883054	-0.7254384493	 0.303246214	 0.08373
H	-1.5056842799	-1.2749206912	 1.2301546265	 0.115703
H	-2.2390279539	-0.0880498028	 0.1602686841	 0.117643
H	-1.3858562087	-1.3682453458	-1.8405386961	 0.125922
H	-0.6547204264	-2.5514756421	-0.774261834	 0.124007
H	-5.900365228	-3.2783944476	-0.9561224814	 0.134275
H	-5.074917587	-4.7231365859	-1.5164692683	 0.134252
H	-4.4490686953	-5.288368306	 0.8335605211	 0.096208
H	-5.2844798469	-3.8280057987	 1.3996393483	 0.09754
H	-6.6868003821	-5.6987362357	 1.3956168076	 0.288269
