17
gdb 46148	4.13612	1.00973	0.86728	2.462	73.13	-0.2357	-0.0347	0.201	1280.0167	0.137684	-418.038034	-418.029887	-418.028943	-418.071143	30.375	
O	 0.0106098091	-0.0873974973	 0.0054474737	-0.294468
C	-0.0184656179	 1.119240652	-0.0269075469	 0.388543
C	-1.3165006494	 1.9187336527	-0.0287407415	-0.322666
C	-1.3011767157	 3.0653538857	-1.0569466916	-0.21109
C	 0.0078945687	 3.8778387838	-0.9267050836	-0.11349
N	 1.2191617067	 3.0600101645	-1.0408877763	-0.29227
C	 1.2518613402	 1.9733232208	-0.054070873	-0.270109
C	 0.0507545046	 4.9580935434	-1.920876534	 0.275054
N	 0.0554280564	 5.7925473318	-2.719359362	-0.310261
H	-2.1526886637	 1.2357002888	-0.1938638116	 0.133131
H	-1.4315515004	 2.3421967395	 0.9800678102	 0.127893
H	-1.3584321774	 2.6607274237	-2.0741073522	 0.125479
H	-2.171038667	 3.7164900947	-0.9218754592	 0.126928
H	 0.0315737344	 4.3487109211	 0.0670182301	 0.132192
H	 1.2782997101	 2.6760242773	-1.9797821424	 0.237446
H	 1.3890820325	 2.4179678699	 0.9429517723	 0.129009
H	 2.1113611086	 1.3285575178	-0.248229632	 0.13868
