16
gdb 78143	2.26977	1.71119	1.25263	5.798	73.78	-0.2232	-0.0274	0.1958	1021.4149	0.124995	-437.90561	-437.897682	-437.896738	-437.937727	31.113	
N	 0.0588240291	 1.3178311234	 0.0400348005	-0.587316
C	-0.0228541923	-0.0334686653	-0.00539241	 0.427755
C	-1.1395551639	-0.8136204774	-0.1021319536	-0.404976
C	-0.7764515641	-2.2285713279	-0.0208522799	 0.417708
O	-1.5094352629	-3.1956044551	 0.0049296642	-0.364604
C	 0.7499872651	-2.2951379436	 0.0090036269	-0.232737
C	 1.4659505001	-1.7194446764	-1.1913760911	 0.128595
O	 0.88812963	-1.4936918197	-2.4283766734	-0.413986
C	 1.2254768047	-0.8503217534	 0.0402050535	-0.220293
H	 0.9480483776	 1.7632287064	-0.1106742756	 0.267374
H	-0.7573909705	 1.8759499996	-0.1478481611	 0.267684
H	-2.15988577	-0.4675060064	-0.1999065622	 0.094767
H	 1.2178663135	-3.0870671636	 0.5803284929	 0.109052
H	 2.4927774371	-2.043630359	-1.3300896236	 0.120466
H	-0.0427340227	-1.2716696672	-2.2918497494	 0.291286
H	 2.063148999	-0.5079763745	 0.638339692	 0.099225
