14
gdb 48395	2.29607	1.70505	1.22033	2.4597	66.38	-0.2728	-0.0541	0.2188	1002.0167	0.099106	-436.655335	-436.647413	-436.646469	-436.688304	28.493	
O	-0.1484694423	 0.0735727348	-0.3862001081	-0.220966
C	-0.0312750631	 1.2162601323	-0.0447079957	 0.124558
C	 1.3105061225	 1.9511633999	-0.0154207346	 0.033658
C	 2.5693530339	 1.1487803298	-0.5161259441	-0.31176
C	 2.6787877434	 2.1312789058	-1.6889652715	 0.052702
O	 1.4370587935	 2.0909055558	-2.4070907575	-0.22449
C	 1.5108514211	 2.9060537857	-1.253516681	-0.024671
C	 1.4902983914	 2.639646633	 1.2505485328	 0.22394
N	 1.6106082162	 3.2004770185	 2.2548051316	-0.321544
H	-0.8996172167	 1.8408087323	 0.2523970639	 0.108586
H	 3.4012294302	 1.2070141961	 0.1862027262	 0.141556
H	 2.3565264448	 0.1134056513	-0.782926754	 0.15507
H	 3.5581639647	 2.4435015108	-2.2375493744	 0.128578
H	 1.2419751505	 3.9530036238	-1.3203516336	 0.134784
