21
gdb 115767	2.61022	0.95562	0.7545	3.8835	80.93	-0.2762	0.01	0.2862	1546.1753	0.181328	-424.24572	-424.23603	-424.235086	-424.281329	34.778	
C	 0.0805840168	 1.4274020449	-0.156660724	-0.388403
C	 0.0061363531	-0.0958845439	-0.2969824409	-0.169449
C	-1.370576473	-0.6522562328	 0.0710579881	-0.026327
C	-2.4746718171	-0.4454914168	-1.014167387	-0.231881
C	-2.2571791157	-1.910820877	-1.4869503957	-0.254534
C	-1.5403793794	-2.1828344748	-0.1507820515	 0.131916
O	-0.3458287609	-2.9560652418	-0.2333886787	-0.184716
C	-0.1909690331	-4.0062235127	 0.5937596395	 0.164072
O	 0.7850591464	-4.6939804013	 0.5935415158	-0.277081
H	 1.0726503253	 1.7993388667	-0.4296272417	 0.117425
H	-0.6496133042	 1.9287771227	-0.8009925978	 0.116711
H	-0.1207076014	 1.7393725229	 0.8742735545	 0.114792
H	 0.2642134601	-0.3883446395	-1.3221988299	 0.102754
H	 0.7609516703	-0.5641504909	 0.3447148138	 0.109549
H	-1.6376587922	-0.3145849165	 1.0782021495	 0.069103
H	-3.465862144	-0.2858230179	-0.5831989661	 0.10575
H	-2.2885178756	 0.3377941355	-1.7519866365	 0.108003
H	-3.1342712	-2.5180351375	-1.720373641	 0.104756
H	-1.5524012154	-1.974384867	-2.3192439078	 0.125926
H	-2.2100287428	-2.6278811686	 0.5947325664	 0.085924
H	-1.0626000874	-4.1569005537	 1.2614429511	 0.075711
