18
gdb 49730	2.40588	1.63807	1.50705	3.7717	77.47	-0.2408	-0.0002	0.2406	988.9207	0.149458	-401.958281	-401.950672	-401.949728	-401.990377	29.366	
O	 0.2272601165	 0.1087540075	 0.4444490413	-0.305176
C	 0.2098718137	 1.2850950806	 0.1732987032	 0.1492
N	 1.242316577	 1.9835697465	-0.4084688824	-0.067988
C	 1.8681433298	 3.2317030874	-0.0507668728	-0.044254
C	 1.6813643839	 3.8755419534	 1.3096675133	-0.228405
C	 1.6584392774	 2.8670097291	 2.4757351315	-0.2812
C	 2.7150338615	 1.804840376	 2.3494661612	-0.066478
C	 3.1615714493	 1.3787548604	 1.1666256555	-0.0244
C	 2.6697827942	 1.9445563534	-0.1151392513	-0.07872
H	-0.6886006522	 1.9242864753	 0.2967660847	 0.076763
H	 1.9755106108	 3.9322647418	-0.8779057914	 0.101272
H	 2.5205677234	 4.5697355828	 1.4447809658	 0.116931
H	 0.7706305245	 4.4841631392	 1.3224221353	 0.111819
H	 1.7673351008	 3.4067366861	 3.4222123651	 0.109107
H	 0.670523936	 2.3851817058	 2.527462441	 0.131383
H	 3.0900057972	 1.3544691601	 3.2636755873	 0.09951
H	 3.9075737644	 0.5934657394	 1.1027792526	 0.09814
H	 3.2894910317	 1.7662405252	-0.9901492499	 0.102495
