15
gdb 34163	3.96544	1.59951	1.40975	1.9125	74.29	-0.2473	0.017	0.2643	913.9589	0.112428	-383.366299	-383.359872	-383.358928	-383.396891	26.793	
C	-0.0276489759	-1.12709865	 0.0497777906	-0.336491
C	-0.0567111294	 0.0745462059	 0.0271995953	 0.050259
C	-0.0684900371	 1.5052676678	-0.0289972293	 0.433433
O	-0.9803534231	 2.1850560863	 0.8736342993	-0.332614
C	-0.8437920415	 3.3181400202	-0.0098470803	 0.061453
C	 0.6553932852	 3.7293769083	-0.0319922222	-0.102811
C	 0.9238310738	 3.0318272278	-1.3476184747	-0.103743
C	 1.2614031262	 2.329997175	-0.0553579461	-0.161817
C	-0.5034495119	 2.420280056	-1.2393210588	-0.171412
H	-0.0083346977	-2.1886566169	 0.0755602951	 0.186603
H	-1.640233226	 4.0539412273	 0.0772962942	 0.087019
H	 1.1498979503	 4.5778932324	 0.4196824989	 0.098142
H	 1.5425854467	 3.3055945459	-2.1885249504	 0.096594
H	 2.2197983412	 2.0779936354	 0.3754199036	 0.101609
H	-1.1924218508	 2.1171494087	-2.0224159152	 0.093777
