25
gdb 120439	4.0112	0.67558	0.66536	1.3823	89.79	-0.2612	0.0809	0.3421	1839.3498	0.227282	-389.487924	-389.477166	-389.476222	-389.523852	40.279	
C	 0.1064211623	 1.5435713646	 0.1390118681	-0.448236
C	 0.0179371814	 0.0251251824	 0.0237718187	 0.353588
C	-1.4136776793	-0.4128155954	-0.2966874013	-0.433467
C	 1.0646083946	-0.6571187337	-0.9157756835	-0.286279
C	 1.3372480918	-1.7241981566	 0.1796604069	 0.044705
C	 2.7798886207	-2.1399406139	 0.4345959974	-0.197331
C	 2.9264702126	-3.1127318128	 1.5979271043	-0.071225
O	 4.305299674	-3.4225442575	 1.7421708714	-0.421128
C	 0.6300433653	-0.7925164026	 1.2066666303	-0.269984
H	 1.1284073961	 1.8667705502	 0.3639407024	 0.10632
H	-0.1999714917	 2.0306795191	-0.7946660125	 0.109623
H	-0.5459375883	 1.919123557	 0.9366792847	 0.109062
H	-1.7516073485	 0.0177496896	-1.2464782605	 0.109638
H	-1.4956548924	-1.5019456084	-0.3783169821	 0.109858
H	-2.1084535243	-0.0850912256	 0.48541497	 0.108931
H	 0.7066715742	-1.0099006921	-1.8876442838	 0.089447
H	 1.9389011538	-0.0183357343	-1.0807413776	 0.091075
H	 0.7281878201	-2.6173302445	-0.0026860087	 0.065919
H	 3.2015720302	-2.6080984466	-0.4640640334	 0.101988
H	 3.3929359599	-1.2534725086	 0.6423594554	 0.09758
H	 2.5230347197	-2.6582923919	 2.5174659278	 0.087136
H	 2.3333276674	-4.0209002062	 1.3982180633	 0.080927
H	 4.4020289828	-4.0217494965	 2.4878669832	 0.283735
H	 1.3550567617	-0.2001771624	 1.7757545171	 0.090114
H	-0.0728276243	-1.2482464037	 1.9104800223	 0.088002
