20
gdb 87489	2.90869	1.41761	1.15559	2.3928	79.73	-0.2444	0.0758	0.3201	1132.4082	0.171673	-403.068631	-403.060528	-403.059583	-403.100899	32.61	
C	 0.0252034171	 1.5345276813	-0.0990376983	-0.392598
C	 0.0206605577	 0.0325294216	 0.0461866669	-0.148562
N	 1.3529434611	-0.6493345139	-0.0719526392	-0.443635
C	 0.6178884849	-0.6634727153	 1.1908641759	 0.444204
C	 1.1370948881	-0.2339791032	 2.5813247692	-0.181247
C	-0.2074314275	-0.7895797697	 3.1355578393	-0.22818
C	 0.2407727695	-1.851965341	 2.0893705801	-0.203478
C	 1.6837740251	-1.6933598515	 2.7070351087	 0.191223
O	 2.8221941975	-2.0775500446	 2.0018860218	-0.457028
H	 0.8905643183	 1.9669113724	 0.4096568006	 0.127086
H	 0.0726540229	 1.8240580043	-1.1540436108	 0.1226
H	-0.8832422076	 1.969767581	 0.3314699903	 0.117883
H	-0.8053131549	-0.4741675363	-0.4518324082	 0.089728
H	 1.233365008	-1.5391147683	-0.5529795552	 0.233384
H	 1.6426279766	 0.6923910206	 2.8538215019	 0.079445
H	-0.2024577217	-1.1070140797	 4.1813958906	 0.096218
H	-1.1045918154	-0.2202017705	 2.8886870001	 0.101207
H	-0.2743200171	-2.7703093459	 1.8038278585	 0.074002
H	 1.783749808	-2.0759310857	 3.7267210645	 0.079658
H	 2.8598219292	-1.5534964655	 1.1906604633	 0.29809
