17
gdb 77024	2.88694	1.07478	0.97631	3.809	79.46	-0.2421	0.0122	0.2543	1253.9401	0.133863	-380.815815	-380.806401	-380.805457	-380.85042	33.89	
C	-1.8056577043	 0.7624938007	-0.8368506601	-0.330554
N	-0.8272463267	-0.2776169584	-0.5385238415	-0.089813
C	 0.3920470891	-0.4015701143	-1.3111990213	-0.004465
C	 0.7741710768	 0.5466713782	-2.442495425	-0.381482
C	 0.0240631368	 0.2773591887	-3.6695427573	 0.270604
N	-0.5745884899	 0.0578211784	-4.6331717616	-0.307102
C	 0.4448126651	 0.0695527973	 0.120984924	-0.224831
C	 0.7931568264	 1.4312617532	 0.422382234	 0.344856
C	 1.0774058366	 2.5668792202	 0.7019512271	-0.459926
H	-1.3815447292	 1.7582524448	-1.0201206233	 0.11804
H	-2.3794274986	 0.4537680651	-1.7146058683	 0.149354
H	-2.4899322418	 0.8410481069	 0.0124220698	 0.135604
H	 0.6794265355	-1.4337188146	-1.5052402011	 0.11723
H	 0.6300099844	 1.5909040615	-2.1537619492	 0.167407
H	 1.8429848527	 0.4285880742	-2.6554241874	 0.161925
H	 0.7512575245	-0.647458687	 0.8798911486	 0.124546
H	 1.3323551123	 3.566274555	 0.9565462226	 0.208604
