17
gdb 15588	2.89754	1.96862	1.3655	4.1344	67.71	-0.2355	0.0296	0.2651	921.8732	0.144901	-360.049144	-360.041279	-360.040335	-360.081837	29.144	
N	-0.0813016514	 1.4585775934	 0.2605829847	-0.517043
C	-0.0581739364	 0.0383960877	-0.01283033	 0.029402
C	-1.455416776	-0.5830851139	-0.1394523593	-0.194756
C	-1.1690904743	-1.942599144	-0.7720377991	-0.163006
N	-0.1273980354	-1.6377525526	-1.7642209443	-0.288417
C	 0.6515782692	-0.476320979	-1.332309281	-0.174916
C	 0.6605702161	 0.5722458925	-2.3706850965	 0.30073
N	 0.6619541508	 1.4195580835	-3.1575359057	-0.335347
H	 0.8564098621	 1.8176933765	 0.4103091861	 0.233433
H	-0.4625141061	 1.9697393737	-0.5313608157	 0.244085
H	 0.46441709	-0.4486765716	 0.8183814469	 0.093388
H	-1.9625094491	-0.650306522	 0.8244269874	 0.114833
H	-2.0715486468	 0.0285442165	-0.8088502879	 0.118425
H	-0.8331636258	-2.6539080562	 0.0005240466	 0.089004
H	-2.0451955096	-2.3781718674	-1.2631165881	 0.112274
H	 0.4458877443	-2.4301350844	-2.015053418	 0.230142
H	 1.7006185785	-0.7186474428	-1.1164356361	 0.10777
