18
gdb 74573	3.47701	1.26346	1.09443	3.0222	79.59	-0.2431	0.0096	0.2526	1155.1319	0.148833	-401.971464	-401.963715	-401.962771	-402.003748	30.049	
C	-0.0323269933	 1.4879237441	-0.0226260915	-0.489389
C	-0.007761095	-0.0067982839	-0.0659633219	 0.328027
C	 0.1544918141	-0.7788774238	-1.1454844214	-0.18157
C	 0.0838685574	-2.2492418484	-0.8307139893	-0.204547
C	-0.2184957919	-2.2747700249	 0.6915684895	 0.106897
C	-0.1760668819	-0.8325454315	 1.1970628973	-0.324967
O	-1.5794216806	-2.7462439174	 0.4044437096	-0.272238
C	-1.3131909018	-2.8418236131	-0.9490045883	 0.438853
N	-2.0172840392	-3.2736480965	-1.8908903694	-0.5489
H	 0.7387917458	 1.8773570133	 0.6543565227	 0.126452
H	 0.1295219916	 1.9235911869	-1.0118607851	 0.12895
H	-0.9940157642	 1.8543054522	 0.3582497927	 0.132182
H	 0.2830449784	-0.4129556447	-2.1574245513	 0.103169
H	 0.8919038338	-2.8589422975	-1.2390912591	 0.103196
H	 0.2990360879	-3.0052538785	 1.3148327185	 0.093036
H	 0.6535352198	-0.6703442664	 1.8982948667	 0.109498
H	-1.0981432699	-0.5907816719	 1.7404056449	 0.125045
H	-2.9296046311	-3.5908093581	-1.5579288646	 0.226304
