15
gdb 27421	2.6827	1.72219	1.21927	4.1611	76.11	-0.2479	-0.0988	0.1491	1016.6133	0.113385	-412.996552	-412.988878	-412.987934	-413.028733	28.553	
C	 0.091197199	 1.4464787203	 0.1704951299	-0.442248
C	-0.1465086095	-0.0132525401	-0.0921415373	 0.343498
N	-1.3130722184	-0.5128623006	 0.0749949188	-0.233633
C	-1.5250180897	-1.8791296684	-0.1485325047	 0.332017
N	-2.3719316573	-2.296631853	-0.9907047485	-0.476643
N	-0.8118742471	-2.7322407534	 0.7399614184	-0.203739
C	 0.463048619	-2.7454959028	 0.6416364007	-0.022311
C	 1.2625922005	-1.8838502625	-0.2473769745	-0.005572
N	 0.9967046061	-0.6742462388	-0.5799108717	-0.229075
H	 0.3899419286	 1.9433569235	-0.7579179655	 0.154251
H	-0.8133345563	 1.9073496831	 0.5655017107	 0.150858
H	 0.9163530835	 1.5758201933	 0.8788993359	 0.139698
H	-2.4317072555	-3.3152663191	-0.9461893489	 0.226746
H	 1.0174178673	-3.4580051415	 1.2581704316	 0.132807
H	 2.2030646199	-2.3035630999	-0.6146085547	 0.133347
