17
gdb 72112	2.68243	1.92152	1.49068	3.0775	71.87	-0.2245	-0.0153	0.2092	925.4803	0.13629	-421.800746	-421.793563	-421.792619	-421.832149	28.588	
C	-0.0779626119	 1.5283505887	 0.0168085733	-0.510656
C	 0.0755119413	 0.0404371718	 0.0442892807	 0.264594
O	-1.1680548669	-0.671509883	-0.1495376405	-0.303375
C	-0.7633078223	-1.9450401667	 0.3909335046	 0.096251
C	-0.469788231	-1.5972564933	 1.865802993	-0.253137
C	 0.6989374507	-0.8248870909	 1.2321142027	-0.104923
C	 0.7835105093	-1.9361471622	 0.0835915846	-0.222634
C	 0.997814329	-0.7851423185	-0.8839192712	 0.448908
O	 1.7383198098	-0.5451155059	-1.7915529031	-0.328649
H	 0.9002135776	 2.0120448728	 0.0869513967	 0.133127
H	-0.5459694292	 1.8388045611	-0.9219877368	 0.145068
H	-0.7042478983	 1.873215399	 0.8448818699	 0.129796
H	-1.4351285709	-2.7366492062	 0.0653204598	 0.09362
H	-1.2443181052	-1.0544972597	 2.4130067277	 0.109056
H	-0.1124343975	-2.4555469057	 2.4394204782	 0.11084
H	 1.5675642637	-0.4340256054	 1.7568000046	 0.094859
H	 1.3697044116	-2.8484082659	 0.1381594455	 0.097255
