18
gdb 128327	3.48075	1.02797	0.80771	2.515	76.17	-0.1839	0.0525	0.2364	1408.6164	0.148403	-435.26931	-435.259929	-435.258985	-435.303905	33.411	
C	-0.3417735721	 1.4092372051	-0.4052027743	-0.322174
N	-0.1499698547	-0.0236646912	-0.2683615307	-0.365953
C	-1.2409172035	-0.8140435668	 0.0652937447	 0.41447
N	-1.0650286589	-1.9382687955	 0.7505897365	-0.337397
N	-2.3230136037	-2.4774948409	 0.824959014	-0.296023
C	-3.249348947	-1.7047444332	 0.2253002992	 0.505888
O	-4.5302179201	-2.1115844096	 0.2355196897	-0.260679
C	-5.443498803	-1.2528626065	-0.4328298238	-0.248074
C	-2.6022558289	-0.5980708231	-0.2921468124	-0.458153
H	 0.6203050929	 1.87511372	-0.6326138886	 0.122621
H	-1.011300897	 1.6198324882	-1.2457077092	 0.128499
H	-0.7614398232	 1.8936248103	 0.4911677301	 0.108709
H	 0.6599378126	-0.279139434	 0.280016611	 0.2379
H	-2.4754067418	-3.3421809596	 1.3119905401	 0.269741
H	-6.4261766326	-1.716652278	-0.3402517607	 0.139229
H	-5.4597172067	-0.2595019196	 0.031435382	 0.131088
H	-5.1818958108	-1.1507886081	-1.4928164202	 0.13221
H	-3.0323441116	 0.2183354126	-0.8442818674	 0.098098
