17
gdb 41181	3.1315	1.82537	1.67024	1.6698	72.38	-0.2216	0.0048	0.2264	870.4876	0.139086	-417.892538	-417.886238	-417.885293	-417.922793	26.725	
C	 0.0349579721	 1.5649725663	-0.1842766779	-0.249232
N	 1.5513520485	 1.516697178	 0.1127177472	-0.389931
C	 1.1930742826	 0.2765681942	 0.9380903066	 0.02832
C	 1.2259515307	-1.2810956741	 1.1766340074	 0.040142
C	-0.3766882581	-1.121670451	 1.1036626048	-0.345764
C	-0.0261286988	 0.036206323	 0.1071417507	 0.269678
N	 0.3267839076	-0.6298120003	-1.1740127524	-0.279691
C	 1.1390585366	-1.5948767009	-1.0849063233	 0.099427
O	 1.6926200447	-2.0399097899	 0.068765731	-0.215334
H	-0.4500519937	 2.1986728311	 0.5610876759	 0.116334
H	-0.2234434799	 1.8769737967	-1.1983522506	 0.119027
H	 1.9963358941	 1.2193306909	-0.7547501995	 0.230267
H	 0.9179616481	 0.6830083368	 1.916427364	 0.099274
H	 1.6991817249	-1.6997363097	 2.0644055616	 0.100922
H	-0.9301221984	-1.9832524471	 0.7225292224	 0.118341
H	-0.7784702758	-0.7906466109	 2.0611594183	 0.122036
H	 1.4666456149	-2.1754392731	-1.9432607764	 0.136184
