11
gdb 130890	3.28845	1.52787	1.04319	4.0505	62.26	-0.2712	-0.1452	0.126	1011.0925	0.06456	-488.668283	-488.661062	-488.660118	-488.701049	25.096	
O	-0.9953542395	 1.3617893324	-0.2494023804	-0.204071
C	 0.1512284815	 1.0538900522	-0.4237523713	 0.11666
C	 1.3395285059	 1.9417636188	-0.1666802211	 0.084793
N	 2.492250487	 1.4165160192	-0.4205857434	-0.267603
C	 3.6022162828	 2.199416283	-0.1973267141	 0.095427
N	 3.6285429694	 3.4125551359	 0.241409409	-0.02439
O	 2.411192225	 3.9887756235	 0.5171923559	-0.243299
C	 1.1914908167	 3.325513093	 0.3436811869	 0.42999
O	 0.186993153	 3.9078470169	 0.6104252898	-0.269434
H	 0.4715981165	 0.0610017567	-0.8014587927	 0.114731
H	 4.5712109418	 1.7625615585	-0.4090066487	 0.167196
