15
gdb 133128	2.4845	1.52353	0.94998	2.5649	70.28	-0.2536	-0.0156	0.238	1144.0806	0.113224	-461.960719	-461.952886	-461.951942	-461.993892	28.554	
O	 0.0060741564	 1.4307714344	 0.0078807148	-0.4173
C	 0.0173625636	 0.016800196	 0.0013988565	-0.171428
C	-1.4025470011	-0.4881626841	 0.012239917	 0.075422
C	-2.5181856694	 0.3500184008	 0.0237827501	-0.043483
N	-3.7849960241	-0.07837098	 0.033337276	-0.278794
C	-3.9865354494	-1.3967690761	 0.0316634838	 0.01012
C	-2.9598133135	-2.3381992839	 0.0206556817	-0.2566
C	-1.6650321574	-1.85319447	 0.0109741497	 0.268954
F	-0.6326010582	-2.7046828618	 0.000100287	-0.07659
H	 0.9166533029	 1.7376220327	 0.001756144	 0.295947
H	 0.5346441626	-0.3792014341	-0.887576838	 0.11251
H	 0.551008082	-0.3872949756	 0.8769160836	 0.112498
H	-2.3636121063	 1.4231961138	 0.0253267505	 0.138112
H	-5.0220164351	-1.7279552177	 0.0395051366	 0.114944
H	-3.1513852331	-3.4040350642	 0.0195866567	 0.115688
