14
gdb 43502	1.89987	1.89239	0.99703	1.9989	64.57	-0.2616	-0.0451	0.2164	1099.4745	0.101323	-473.921021	-473.913398	-473.912454	-473.953942	27.894	
O	 0.0045044292	-0.1056542751	 0.0555186425	-0.284805
C	-0.0115314698	 1.0977415044	 0.0881795181	 0.370658
C	-1.2975573656	 1.9068005362	 0.1237255263	-0.418791
C	-1.2832438866	 3.047835404	 1.1305081598	 0.409935
O	-2.2858483752	 3.52595133	 1.601386345	-0.324957
N	-0.0253558558	 3.5302546804	 1.4825506149	-0.359907
C	 1.2349521964	 3.0820081915	 1.0957204159	 0.409938
O	 2.2368508684	 3.5879661599	 1.5381487565	-0.324975
C	 1.2523466015	 1.9417165086	 0.0881591577	-0.418787
H	-1.4424509477	 2.3590047386	-0.8678879471	 0.164835
H	-2.1566229028	 1.2664758642	 0.3240364993	 0.169184
H	-0.0265019767	 4.2938644433	 2.1495095682	 0.273658
H	 2.1339021379	 1.3252096338	 0.2639684717	 0.16917
H	 1.356967677	 2.3975440303	-0.9068609787	 0.164844
