18
gdb 43741	4.28058	1.05606	1.02548	3.373	72.22	-0.2464	0.0322	0.2786	1199.7935	0.148637	-439.111205	-439.103091	-439.102147	-439.14502	30.269	
O	 0.0866092414	-0.0768821401	 0.1608356189	-0.360321
C	 0.0173479799	 1.1183743316	 0.070697868	 0.441704
C	-1.1173408038	 2.1740456842	 0.0412569285	-0.487966
C	 0.016728573	 3.2352309269	-0.019081087	 0.371967
C	 0.1184769145	 4.2049848821	-1.2132917718	-0.312277
C	 0.9258460998	 5.4000426618	-0.6426288886	-0.076228
O	 1.2150924494	 5.0836359515	 0.7213520709	-0.253545
C	 0.2052917969	 4.1920722528	 1.1601842924	-0.13428
N	 0.9659835083	 2.1069163334	-0.0399184208	-0.359933
H	-1.7619126343	 2.1221262566	-0.837848925	 0.131897
H	-1.7299939824	 2.1936036911	 0.9452967246	 0.132212
H	 0.6028221199	 3.7284327777	-2.0675703647	 0.11936
H	-0.8799252221	 4.5215232853	-1.5269407531	 0.115808
H	 1.8797501548	 5.5627242521	-1.1516108497	 0.113841
H	 0.3454571726	 6.3319413265	-0.7004266836	 0.099062
H	-0.7380254786	 4.7237421462	 1.3755956218	 0.08981
H	 0.5497587645	 3.6968474768	 2.0710865717	 0.116703
H	 1.9721378561	 2.0827680936	 0.0459247475	 0.252184
