19
gdb 82298	2.28546	1.72896	1.35888	2.3436	69.87	-0.2566	0.0615	0.3181	1019.0754	0.158291	-460.150332	-460.141754	-460.140809	-460.182794	33.979	
C	 0.6951348889	 1.3193149861	-0.2683712551	-0.43082
C	 0.0166291557	-0.0310497312	-0.0426509817	 0.317022
O	-1.3818200628	 0.1552719805	 0.1950364658	-0.486151
C	 0.2913538635	-1.0289288181	-1.2085329395	-0.304317
C	 1.4668286536	-1.863408332	-0.7366328293	 0.047964
O	 2.5590403769	-1.0850090081	-0.2267672447	-0.25158
C	 1.6503740199	-1.6838869556	 0.7079980135	 0.021415
C	 0.5567405639	-0.7755701785	 1.2183767951	 0.102587
O	 1.0041525644	 0.0528758207	 2.2697256388	-0.438868
H	 1.7665280725	 1.1905977146	-0.4258389451	 0.153942
H	 0.2701962619	 1.8034361642	-1.1571937533	 0.094488
H	 0.5442481741	 1.9759747706	 0.591218987	 0.112139
H	-1.7113039771	 0.7877019376	-0.4521169542	 0.275665
H	-0.5849025173	-1.6729478665	-1.3405988424	 0.112024
H	 0.4866717471	-0.522984915	-2.1599097647	 0.103489
H	 1.7496740658	-2.7755537676	-1.2556573518	 0.096808
H	 2.0824412521	-2.4362262025	 1.3617429168	 0.101553
H	-0.262956031	-1.427000413	 1.5636578315	 0.081923
H	 0.234346818	 0.5166853436	 2.6158797033	 0.290718
