15
gdb 3364	4.23863	2.79559	2.685	1.5547	60.78	-0.2241	0.0105	0.2346	605.008	0.126718	-308.507517	-308.501684	-308.500739	-308.536745	23.375	
O	 0.0469585203	 1.3822989649	 0.0781435944	-0.426496
C	-0.0421469826	-0.0052585362	 0.0087142212	 0.13148
C	-1.3573065494	-0.7351452528	 0.0046444092	-0.102313
C	-2.5991397482	 0.0893939738	-0.3401105004	-0.2675
C	-2.340331795	 0.5654051688	-1.7554376257	-0.099898
C	-1.1971622545	 0.0744945346	-2.2490752544	-0.084183
C	-0.462676459	-0.7490439785	-1.2488912352	-0.137739
H	-0.4346799973	 1.7424124977	-0.6784994135	 0.282617
H	 0.7613360582	-0.4578880899	 0.5814234762	 0.103761
H	-1.4668190817	-1.615856136	 0.6269769109	 0.085317
H	-3.5179902434	-0.5069906689	-0.2799515988	 0.111027
H	-2.7262608248	 0.931622073	 0.3535620189	 0.12024
H	-3.0148062497	 1.2339431213	-2.2790213323	 0.098165
H	-0.8106315551	 0.2689760742	-3.2433650718	 0.099637
H	 0.104973222	-1.616786246	-1.5670476786	 0.085885
