15
gdb 25696	6.47162	0.75093	0.67611	1.4677	81.84	-0.2016	0.0011	0.2027	1616.1631	0.112692	-416.824541	-416.815716	-416.814772	-416.85989	31.177	
C	-0.0405210533	 1.4520998639	-0.0273442595	-0.511325
C	-0.0022000787	-0.0011373111	-0.0107583583	 0.269885
C	 0.0256823066	-1.206638468	 0.0008265787	-0.166343
C	 0.0548547671	-2.6194878752	 0.015169661	 0.132055
C	 1.1211088204	-3.4336662206	 0.2239540098	-0.148355
O	 0.6827390446	-4.7377542966	 0.1457887795	-0.174481
C	-0.6427031383	-4.6230596287	-0.1074581	 0.44687
N	-1.3304772315	-5.7928682572	-0.302674274	-0.601064
N	-1.0889457005	-3.4109584187	-0.1940529922	-0.384197
H	 0.6179777553	 1.8604687156	-0.8024215159	 0.149949
H	-1.0543858326	 1.8149827476	-0.2282557805	 0.154184
H	 0.2780591681	 1.8716560802	 0.9337185057	 0.149379
H	 2.1654264602	-3.2837492876	 0.4287534675	 0.145657
H	-0.9737572844	-6.586217978	 0.2094550485	 0.264969
H	-2.330153333	-5.6774515459	-0.2273674803	 0.272817
