18
gdb 85260	2.49288	1.62953	1.21211	3.2485	73.31	-0.2568	0.0064	0.2632	1072.3644	0.147759	-439.089115	-439.080932	-439.079988	-439.122027	31.193	
C	 0.7675708973	 1.2867331132	 0.0125255086	-0.397029
C	-0.1668703859	 0.0845932225	-0.0290433395	 0.105467
C	 0.0735249581	-0.8572633985	-1.2260801648	-0.333814
C	 1.0582607533	-1.8511173597	-0.6472662624	 0.342094
C	 1.683707922	-2.9808854881	-1.3308199615	-0.243098
O	 2.4295120909	-1.7897411258	-1.0621283524	-0.267994
C	 0.8145397536	-1.8366311874	 0.8366679229	 0.37008
N	 1.237362516	-2.6999444353	 1.6536709846	-0.546466
O	 0.0574254771	-0.747138895	 1.1431513504	-0.255922
H	 1.8107631666	 0.9711748009	-0.0887615324	 0.144865
H	 0.5344206273	 1.9742955938	-0.8068443957	 0.121392
H	 0.6557698958	 1.8236853721	 0.9580624559	 0.131929
H	-1.2082540966	 0.410212642	 0.0348925119	 0.09444
H	-0.8558395525	-1.3626305031	-1.5075926273	 0.120822
H	 0.4751304844	-0.3444112087	-2.1013896789	 0.128128
H	 1.9691730204	-3.8485789548	-0.7405207638	 0.145633
H	 1.4524098281	-3.1607167612	-2.380169684	 0.114221
H	 0.9718865841	-2.4597428668	 2.6099764383	 0.225252
