18
gdb 114453	4.71123	1.22412	1.14582	1.6705	71.78	-0.2341	0.0831	0.3172	1105.0381	0.149048	-439.006671	-438.99936	-438.998416	-439.038662	28.393	
C	-0.0299243422	 1.3594522225	-0.1572897812	-0.243421
O	-0.0291684543	-0.0397015116	 0.0725924702	-0.242525
C	-1.2989618698	-0.6066893848	 0.0780104952	 0.218986
O	-1.9202707182	-0.5590689562	-1.2218619606	-0.293225
C	-1.9886403598	-1.9186312403	-1.5861311638	 0.144272
C	-2.4360704918	-2.7817913049	-0.3736617014	-0.07783
N	-1.6215747809	-3.9222721254	-0.9307210132	-0.34299
C	-0.7435861012	-2.7045166061	-1.091689311	-0.060168
C	-1.1882588695	-2.107654101	 0.2858606483	-0.109874
H	 1.0080528819	 1.6928780494	-0.0973444916	 0.128255
H	-0.4346065323	 1.599561103	-1.14701116	 0.131833
H	-0.6208530242	 1.8880086056	 0.6058081242	 0.106681
H	-1.9562592809	-0.0743363184	 0.7832771954	 0.071415
H	-2.4030168833	-2.0641472708	-2.5803988604	 0.102584
H	-3.4365838781	-2.9164555368	 0.0393509799	 0.083179
H	-1.2656842212	-4.4862560225	-0.1541996659	 0.21073
H	 0.2576618836	-2.7466991372	-1.518619265	 0.091118
H	-0.7712163179	-2.4872440843	 1.218010431	 0.08098
