16
gdb 20047	5.57894	1.32971	1.17302	2.3527	68.41	-0.2315	0.0025	0.234	1012.7344	0.130688	-383.713652	-383.706327	-383.705383	-383.746106	26.142	
C	 0.2187480744	 1.4769218972	 0.0296571682	-0.185419
O	 1.1633388891	 0.4436933866	-0.2241589775	-0.231365
C	-0.2016915759	 0.061482941	 0.0255823579	-0.032728
C	-0.4639512732	-0.6975955478	 1.2589896197	 0.330757
C	-1.3743773174	-1.6522553404	 1.4419050114	-0.23326
C	-1.3076858091	-2.1649197321	 2.8502123384	-0.100244
O	-0.2526955742	-1.4311293081	 3.4652741655	-0.267404
C	 0.310073196	-0.5054352374	 2.5412574408	-0.15833
H	 0.3400863781	 2.004223391	 0.9740993538	 0.120051
H	-0.0353440403	 2.104839299	-0.8235832714	 0.120726
H	-0.7290584906	-0.2958149369	-0.8587291503	 0.096082
H	-2.0726540256	-2.0268442182	 0.7035833461	 0.10341
H	-2.2482621055	-2.0062008682	 3.4024863626	 0.105812
H	-1.0886996761	-3.2439399824	 2.8935759715	 0.108179
H	 1.3821481472	-0.705865773	 2.4042845949	 0.122872
H	 0.2190435233	 0.5179526797	 2.9391581085	 0.100863
