17
gdb 56046	3.63406	0.88837	0.81668	2.3763	75.12	-0.2372	-0.0672	0.17	1421.9821	0.133843	-455.180924	-455.171339	-455.170395	-455.216035	33.988	
C	-0.2697535557	 0.9290579379	 0.3260055164	-0.470995
C	 0.4934074111	 0.2291222298	-0.7721397081	 0.389365
O	 1.7044444349	 0.2717619236	-0.857786071	-0.307943
C	-0.3296714333	-0.6136992342	-1.756039257	-0.262817
N	-0.4688317805	-1.9742524287	-1.2410769685	-0.2927
C	 0.5615326232	-2.7445170524	-1.3199616924	 0.272257
N	 1.8074341047	-2.4877913876	-1.7964524293	-0.548914
C	 0.3394285256	-4.1595434623	-0.8666737245	 0.142787
O	 1.2073574307	-4.9979255876	-0.8846860487	-0.264506
H	 0.4163841787	 1.3924226875	 1.0354393465	 0.144001
H	-0.9265334786	 1.692443753	-0.1076362405	 0.146634
H	-0.917894815	 0.2073218435	 0.8352083267	 0.160573
H	-1.3315012911	-0.1910428894	-1.8754478439	 0.111017
H	 0.1871992735	-0.592751239	-2.7264881518	 0.121188
H	 2.153740614	-1.5375916657	-1.7676272186	 0.281893
H	 2.4706439423	-3.2409686858	-1.6822453476	 0.268981
H	-0.6930730743	-4.3522883127	-0.5215893378	 0.109179
