20
gdb 88443	2.86457	1.15307	1.04342	2.246	76.23	-0.2246	0.0738	0.2984	1248.753	0.169623	-440.237843	-440.228506	-440.227562	-440.27164	36.015	
C	-0.4912187845	 1.4016195354	 0.1227569894	-0.410502
C	 0.0279630963	-0.0162441082	 0.0909665176	 0.01229
N	 1.4635268985	-0.2242289902	-0.1885723936	-0.366867
C	 0.916799312	-0.6149432676	 1.1257218009	-0.11584
C	 1.5094418474	 0.1533770108	 2.2758972954	 0.424645
O	 2.1460868771	 1.3408526424	 1.9101550058	-0.473414
C	 0.8272028426	 0.1685404938	 3.6194930336	-0.379151
C	 2.1091529981	-0.6190587739	 3.4255910931	 0.023209
O	 2.0599757618	-2.0169896167	 3.3765009079	-0.422057
H	 0.2018254813	 2.0607550853	 0.6469386419	 0.14686
H	-0.6385185176	 1.7797972112	-0.8947285527	 0.114156
H	-1.4580800487	 1.4374705602	 0.6365413883	 0.114968
H	-0.6470196975	-0.7265960075	-0.3865705822	 0.082916
H	 1.6231714559	-1.0321187115	-0.7817866179	 0.237151
H	 0.7958603097	-1.673967662	 1.3310943204	 0.103664
H	 2.45051451	 1.181146393	 1.0012277134	 0.288989
H	 0.8730040683	 1.0900396182	 4.1894130292	 0.123057
H	-0.0938209176	-0.3976754743	 3.7184651794	 0.111319
H	 3.0190714374	-0.1935854862	 3.8469244928	 0.095934
H	 1.8184271093	-2.3375727322	 4.2519625973	 0.288675
