14
gdb 6075	5.20795	1.04309	0.874	16.1685	60.02	-0.1702	-0.0313	0.1389	1216.6476	0.104005	-452.987506	-452.978057	-452.977113	-453.023537	31.711	
N	-0.119362754	 1.2725415958	 0.2933235908	-0.542572
C	-0.0093179067	-0.019961083	-0.0342640894	 0.602345
N	 1.1906000103	-0.5780350469	-0.2177285234	-0.533313
H	 1.2363198695	-1.5544109254	-0.4641124174	 0.30403
H	 2.0452628032	-0.0580380751	-0.1191448841	 0.289512
O	-1.1011324773	-0.6649308327	-0.1557313382	-0.156928
C	-1.1308828384	-2.1322771974	-0.5217687094	-0.280504
C	-2.629089035	-2.656114992	-0.5985777846	 0.368003
O	-3.5059404732	-1.828302881	-0.3596958427	-0.453767
O	-2.5871041603	-3.855533925	-0.9002102912	-0.463197
H	 0.6722313573	 1.8784060743	 0.4148871481	 0.288449
H	-1.0495412994	 1.6393516566	 0.4186059323	 0.31501
H	-0.6415118237	-2.2185016387	-1.4952308555	 0.131446
H	-0.5778092823	-2.6578391496	 0.2608064746	 0.131486
