19
gdb 15877	2.56413	1.86568	1.20248	2.7544	72.9	-0.2244	-0.0283	0.1961	1041.5366	0.163503	-365.048217	-365.039319	-365.038375	-365.082101	31.685	
C	-0.2099738573	 1.4839196383	 0.0954260595	-0.406025
C	-0.0431789544	-0.0298317413	 0.1568607085	-0.011629
C	 0.9612890999	-0.6300071712	-0.8623774402	-0.17286
N	 1.9741159312	-0.7036381566	 0.2056987259	-0.074244
C	 2.8790449634	-1.831231979	 0.2380447228	-0.327371
C	 0.9461991865	-0.5836311417	 1.2474230288	-0.05597
C	 1.3007885774	 0.3200024733	 2.4074622272	 0.143259
O	 0.669962974	 0.3818354803	 3.432143954	-0.251529
H	 0.7593132198	 1.9891337673	 0.0351756136	 0.128093
H	-0.7895708828	 1.765972633	-0.7898231233	 0.117839
H	-0.7383536331	 1.8627817328	 0.9760269793	 0.132589
H	-1.0180650735	-0.5191702296	 0.1784778872	 0.087696
H	 0.6428983478	-1.619083413	-1.2299818758	 0.085989
H	 1.2438435625	-0.0088154323	-1.7205329628	 0.100909
H	 3.5416134556	-1.7994011841	-0.6331943834	 0.124741
H	 3.5045951031	-1.7826793299	 1.1357207924	 0.124105
H	 2.3567583324	-2.8066344329	 0.2365764014	 0.094775
H	 0.5833044425	-1.5448190743	 1.6473770071	 0.078966
H	 2.196541405	 0.956964981	 2.2243705978	 0.080668
