18
gdb 46256	2.9091	1.57639	1.302	2.0959	76.17	-0.2357	-0.0341	0.2016	1023.6144	0.14755	-401.907239	-401.899457	-401.898513	-401.940095	29.977	
O	-0.0246967823	 0.0325237955	-0.2838745467	-0.303673
C	-0.0556338304	 1.2099161671	-0.0587421054	 0.360947
C	-1.159594626	 2.2084109793	 0.3164882071	-0.342397
C	-0.0385848703	 3.2603138045	 0.5861411181	-0.312534
C	 1.0356663538	 2.2947086357	 0.0226004049	 0.259523
C	 2.4269518368	 2.0857005937	 0.6659984961	-0.33733
C	 3.017010553	 2.431199509	-0.6967838271	-0.012867
C	 2.4555777643	 1.58069724	-1.7606137237	-0.245998
N	 1.6507020407	 2.7365791739	-1.2941223258	-0.174821
H	-1.8052074832	 2.4477602234	-0.5342816456	 0.141636
H	-1.7921799405	 1.9105358645	 1.1566923886	 0.130891
H	-0.1200582314	 4.1913206485	 0.0241749248	 0.123836
H	 0.1008085496	 3.4851246833	 1.6461779491	 0.109383
H	 2.629941521	 2.8374726492	 1.4318813181	 0.116858
H	 2.6540378172	 1.0928810584	 1.0646573439	 0.119062
H	 3.8611899663	 3.0915170279	-0.8662593425	 0.097247
H	 2.8330100296	 1.7273751058	-2.7677826351	 0.123224
H	 2.1059523619	 0.5766154805	-1.5388970689	 0.147012
