23
gdb 87868	2.97081	1.21847	1.19398	0.0797	89.4	-0.2481	0.0836	0.3317	1219.2266	0.206326	-351.120495	-351.111788	-351.110844	-351.154134	34.317	
C	-0.1074165208	 1.5533169851	 0.3245733392	-0.405372
C	-0.07476411	 0.0428588758	 0.2489594899	-0.049405
C	 1.1363412144	-0.6743256439	-0.3032606973	-0.365308
C	 0.8075596019	-0.7660061721	 1.1613361351	 0.384354
C	 1.6925513679	-0.2718166125	 2.322317869	-0.322029
C	 1.2948526453	-1.5359194286	 3.1320927906	-0.004496
C	 0.0006536645	-1.3929322434	 3.9794133214	-0.219991
C	-0.8500932869	-1.9447744833	 2.7940278609	-0.221055
C	 0.4284530548	-2.0460282017	 1.9196618537	-0.113586
H	 0.880093929	 1.9592354067	 0.5674951821	 0.115522
H	-0.417849554	 1.9913481176	-0.6306960249	 0.115008
H	-0.8059762574	 1.9028159686	 1.0935429975	 0.113737
H	-1.0337911451	-0.4148216004	 0.0123486601	 0.078572
H	 0.9837719152	-1.5543181786	-0.9210834077	 0.104769
H	 1.9935524184	-0.0711971995	-0.5915963407	 0.103018
H	 2.7567089424	-0.2293579204	 2.0697783968	 0.095817
H	 1.4130853118	 0.6829964755	 2.7815760134	 0.092047
H	 2.1085863093	-2.1153550731	 3.5692744119	 0.060413
H	-0.0207020901	-2.0310946808	 4.8663427669	 0.09764
H	-0.2287212771	-0.3707144367	 4.2953291523	 0.093352
H	-1.3015522672	-2.9165770268	 3.0105494725	 0.094937
H	-1.6321647374	-1.2852026922	 2.4072613061	 0.094373
H	 0.6096950011	-2.9906637455	 1.4023097312	 0.057683
