27
gdb 122137	3.02626	0.6643	0.57159	0.9516	93.76	-0.242	0.0851	0.3271	2095.144	0.249126	-390.697874	-390.685487	-390.684543	-390.736994	43.236	
C	-1.2852580654	 2.3080316811	-0.8189307626	-0.379769
C	-0.8843800392	 0.8337390532	-0.7202532841	-0.164546
C	-2.0857988053	-0.1112202348	-0.6062855813	-0.169144
C	-1.6874894515	-1.5865008215	-0.5086894573	-0.180676
C	-2.8721605346	-2.5514125422	-0.3857596834	 0.116541
C	-2.4148973137	-4.0144505304	-0.3495507763	-0.166965
C	-3.5668057072	-5.0185759596	-0.2757184573	-0.39141
O	-3.5942821399	-2.2599042911	 0.8156208508	-0.252501
C	-4.9327552379	-1.8586901405	 0.6342614438	-0.234653
H	-0.4079300374	 2.9582297661	-0.8944449339	 0.109548
H	-1.9110190607	 2.4903085585	-1.6999616888	 0.11125
H	-1.8575480896	 2.6219386245	 0.0612506395	 0.113362
H	-0.2862993588	 0.5567727577	-1.5988565547	 0.091217
H	-0.2286630864	 0.6893354285	 0.1486509446	 0.095084
H	-2.6762688456	 0.1568746033	 0.2780465747	 0.106416
H	-2.7429864033	 0.035774242	-1.4756277331	 0.083447
H	-1.0976942505	-1.8701121351	-1.3905865456	 0.087135
H	-1.0364967263	-1.7330339759	 0.3634176113	 0.09915
H	-3.5401743695	-2.4091013145	-1.2505125551	 0.060527
H	-1.8027137453	-4.2093113432	-1.2389572647	 0.089793
H	-1.7568213944	-4.1431327457	 0.5189229705	 0.101765
H	-3.1925483261	-6.0460806518	-0.2342586199	 0.109627
H	-4.1722735986	-4.8448923544	 0.618158332	 0.128449
H	-4.2224625272	-4.9402115959	-1.150706965	 0.106915
H	-5.013904064	-0.932069642	 0.0465778692	 0.103595
H	-5.5369557319	-2.6337691415	 0.1393602628	 0.103685
H	-5.3510057498	-1.6760802648	 1.6284334139	 0.12216
