20
gdb 52419	5.8817	0.52121	0.50801	2.4166	77.9	-0.2512	0.0318	0.283	2124.5701	0.170189	-440.288782	-440.278831	-440.277887	-440.326265	34.335	
O	 0.1693527786	 0.716077767	 1.1495698459	-0.323081
C	 0.1405935183	 1.4426852598	 0.1787405018	 0.153613
N	 1.157954736	 1.6133813509	-0.7076482339	-0.274391
C	 2.4523436051	 0.9658510033	-0.5656620258	-0.16651
C	 3.5621442171	 1.9322085349	-0.1372866833	-0.17977
C	 4.9235559662	 1.2371858692	-0.0048012867	-0.220666
C	 6.0175135178	 2.2007687071	 0.3848584068	 0.098404
C	 7.3852215263	 2.0975688622	-0.1362065836	-0.181124
O	 6.4817991857	 3.0819626508	-0.643783089	-0.237882
H	-0.7454606309	 2.049924598	-0.0948667781	 0.072928
H	 1.0268321046	 2.2772262958	-1.4544692796	 0.246799
H	 2.3176833662	 0.1809771022	 0.1827504547	 0.148763
H	 2.7197488865	 0.4820267158	-1.5136671133	 0.107765
H	 3.649953786	 2.7461199676	-0.8678450967	 0.109338
H	 3.2805402074	 2.3923612812	 0.8175346463	 0.113511
H	 4.8642243367	 0.4398675538	 0.7481284272	 0.108687
H	 5.194564368	 0.7618822993	-0.9554134947	 0.102581
H	 5.8828323382	 2.6920983894	 1.3510292653	 0.093133
H	 8.2207698393	 2.4839102192	 0.4459195097	 0.115578
H	 7.6355085669	 1.2930112725	-0.8269741432	 0.112323
