18
gdb 98168	2.71686	1.18932	1.01557	5.5275	72.78	-0.2867	-0.0048	0.2819	1243.6054	0.144676	-439.135337	-439.12493	-439.123986	-439.171271	36.047	
C	-0.0568636737	 1.3571440062	 0.0853453586	-0.244253
O	 0.0220058917	-0.072609658	-0.0288623196	-0.244323
C	 0.6475413853	-0.5270907593	-1.1290872028	 0.488073
O	 1.1199806609	 0.1783687771	-1.9786593582	-0.349501
C	 0.6629537182	-2.0670685583	-1.1291407517	-0.08267
C	 1.4272080842	-2.5844490721	 0.1152581885	-0.413197
C	-0.7894404826	-2.6063634207	-1.1372529506	-0.413193
C	 1.3535683158	-2.527523306	-2.3433167346	 0.303537
N	 1.8835690021	-2.9597007398	-3.2736868017	-0.3358
H	 0.9441517821	 1.7937369899	 0.1121324395	 0.149067
H	-0.6035136884	 1.7781570814	-0.7615802309	 0.149066
H	-0.5855655116	 1.5493073147	 1.0184538926	 0.139378
H	 0.9198544361	-2.2479359981	 1.0209866459	 0.141632
H	 1.4546394757	-3.6767462868	 0.104952075	 0.140611
H	 2.4556028567	-2.2148978665	 0.1265293437	 0.14466
H	-1.3351128101	-2.2524197533	-2.0154644288	 0.144674
H	-0.7784080922	-3.6988240183	-1.1567409621	 0.140616
H	-1.30855732	-2.269901572	-0.2381921127	 0.141625
