14
gdb 4601	5.56237	1.552	1.22263	4.8228	68.17	-0.2315	-0.0566	0.175	939.1595	0.107871	-382.606118	-382.599246	-382.598302	-382.637198	25.613	
C	-0.020033463	 1.545265511	 0.0009771874	-0.49293
C	 0.0005114575	 0.0412521377	 0.0013626697	 0.171942
C	-0.0456436026	-0.6804829969	-1.1400354414	 0.027929
O	-0.0295166462	-2.0222949648	-1.1863404518	-0.219718
C	 0.0382677052	-2.8191038883	-0.0273958298	 0.425867
O	 0.0479858046	-4.011573229	-0.1701611913	-0.343577
C	 0.0889414585	-2.0679440524	 1.2113725136	-0.254103
C	 0.0708075278	-0.7142001692	 1.2209364702	-0.098039
H	 0.8809162356	 1.9569182415	 0.4700413701	 0.136705
H	-0.0765683655	 1.9396444241	-1.0169314866	 0.131176
H	-0.8802996768	 1.9328511053	 0.5585532228	 0.136684
H	-0.1003873434	-0.2466471978	-2.1328240026	 0.134769
H	 0.1416343299	-2.6573199224	 2.1179220493	 0.127463
H	 0.1099298285	-0.1794653489	 2.1665004103	 0.115832
