23
gdb 88966	3.17796	0.9488	0.83446	1.8602	85.76	-0.254	0.0772	0.3311	1486.6849	0.203893	-388.267037	-388.257031	-388.256087	-388.302327	37.603	
C	-0.886297436	 0.635331433	 0.5564182891	-0.419793
C	 0.3005544946	-0.1646570528	 0.0841619806	 0.08301
O	 1.4610904079	 0.5635311948	-0.3315592699	-0.270257
C	 1.5806834534	-0.2990890575	 0.8054892468	 0.073587
C	 1.9205601803	 0.3451809631	 2.1328057154	-0.314517
C	 1.9066555422	-0.6416782273	 3.292724419	 0.385472
C	 0.554694751	-1.2550330079	 3.6086130382	-0.459861
C	 3.1364036088	-1.4991885216	 3.4943626258	-0.297001
C	 2.8374741173	-0.3667459929	 4.448841272	-0.316977
H	-0.5929664355	 1.4405543498	 1.232683823	 0.128699
H	-1.3981859562	 1.0863155163	-0.3003154958	 0.128832
H	-1.6043192018	-0.0121289953	 1.0714807498	 0.121171
H	 0.0417179405	-0.9835915156	-0.5918832269	 0.084038
H	 2.157956701	-1.2048837409	 0.60243083	 0.086503
H	 2.9224400919	 0.7836539622	 2.042294623	 0.104716
H	 1.2385158763	 1.1779493194	 2.3355991363	 0.100114
H	 0.1585326745	-1.8163918128	 2.7552497081	 0.118189
H	 0.6223280322	-1.9439917348	 4.4562190862	 0.112557
H	-0.1787229692	-0.4816982209	 3.8666654677	 0.114201
H	 3.0020398267	-2.5157079026	 3.8491148638	 0.108689
H	 3.9677980863	-1.3781510028	 2.8074603395	 0.110513
H	 3.4656426523	 0.5169309588	 4.4050039301	 0.109832
H	 2.4965159314	-0.6188297817	 5.4475658982	 0.108284
