9
gdb 21445	3.38293	2.57368	1.46166	2.2456	49.95	-0.3165	-0.0974	0.2191	732.6491	0.046269	-466.569063	-466.562679	-466.561735	-466.600591	22.069	
N	-0.013545371	 1.2304152176	 0.3923899863	-0.429383
C	-0.0406498454	 0.0360598758	 0.0110181853	 0.290283
O	 1.1032744738	-0.6114790668	-0.4324162097	-0.25405
N	 1.0798634586	-1.9439140829	-0.8591879801	 0.095153
N	 0.050912654	-2.6049242871	-0.8631621756	 0.096094
O	-1.1834659143	-2.0619264983	-0.4352232083	-0.238937
C	-1.3064095028	-0.7610235967	 0.0113512345	 0.422369
O	-2.3725640401	-0.3697016664	 0.3558484482	-0.242006
H	 0.9271244172	 1.6260730548	 0.3284205495	 0.260477
