21
gdb 62561	1.83267	1.63964	1.58843	0.818	79.23	-0.2149	0.0655	0.2804	1085.9669	0.179313	-424.193994	-424.184023	-424.183078	-424.227737	37.837	
C	 0.0031238436	 1.5564637278	-0.0131717997	-0.467627
C	 0.0519583755	 0.0470666888	-0.0560678204	 0.274377
O	-1.1171563733	-0.5811110164	 0.4201590815	-0.464719
C	 0.6430799376	-0.7781394069	-1.1940189702	 0.157609
C	-0.1146699363	-1.8215055257	-1.9620865492	-0.499357
C	 1.9214835871	-0.0986733086	-1.6671281622	-0.145619
O	 2.4489943758	-0.0296916429	-0.3153952174	-0.325841
C	 1.3142812656	-0.7576359374	 0.1821965729	 0.358139
C	 1.5443636963	-1.7612558643	 1.2626731474	-0.501018
H	 0.9678864213	 1.9923801911	-0.278106909	 0.141014
H	-0.7668794868	 1.9445295906	-0.6877353541	 0.121115
H	-0.2388028995	 1.8967992406	 1.0018641516	 0.103707
H	-1.2215161986	-0.3377963324	 1.3468317626	 0.283713
H	-0.5806362642	-1.3887151018	-2.8560842645	 0.118299
H	 0.5472061529	-2.6297620395	-2.2931298695	 0.1139
H	-0.9094494362	-2.2512988137	-1.3500225229	 0.144137
H	 2.5462613086	-0.751896734	-2.2891468998	 0.105429
H	 1.8451666197	 0.8880373484	-2.1399543513	 0.099125
H	 1.9829677497	-1.2797774294	 2.1450331875	 0.127095
H	 0.5965365575	-2.2213834443	 1.5523050407	 0.129215
H	 2.2304814639	-2.5489263803	 0.9358890961	 0.127307
