23
gdb 115112	2.84287	1.12943	0.89034	0.1687	92.9	-0.2329	0.0223	0.2552	1407.4012	0.206698	-351.168925	-351.159588	-351.158644	-351.203654	35.562	
C	-0.2799004536	 1.7046939406	-0.0484481689	-0.388695
C	-0.0967588189	 0.1967341954	-0.2447813033	-0.186813
C	-1.3061766752	-0.6389086975	 0.2103388799	-0.01991
C	-1.1646362088	-2.1087165665	-0.2330082658	-0.249667
C	-2.3972554621	-2.9624657889	-0.0788174144	-0.051917
C	-3.4622110112	-2.793316606	 0.7059342339	-0.045252
C	-3.7541403212	-1.7316050807	 1.7418898909	-0.313214
C	-2.5774993587	-1.0143561626	 2.3604224169	-0.078405
C	-1.5229375848	-0.5381165736	 1.7037561142	-0.030408
H	 0.6062722434	 2.2568885562	-0.376408276	 0.111071
H	-1.1355746866	 2.0733562682	-0.6252610179	 0.114123
H	-0.4597396346	 1.9578829253	 1.0013403064	 0.118887
H	 0.0955405062	-0.0065119222	-1.3053628051	 0.089227
H	 0.7964502599	-0.1431138115	 0.2976916175	 0.093614
H	-2.1969401737	-0.2392868228	-0.2981403731	 0.080616
H	-0.877339611	-2.1279031525	-1.2936677638	 0.093994
H	-0.3215197463	-2.5700085482	 0.3028986401	 0.107049
H	-2.410677032	-3.8355503248	-0.7301503707	 0.079414
H	-4.2610876954	-3.5269971638	 0.6077018259	 0.081549
H	-4.4517671256	-0.992469137	 1.3111851198	 0.122272
H	-4.3313116739	-2.2071416224	 2.5439288754	 0.107459
H	-2.6222659148	-0.8798358039	 3.438771341	 0.085171
H	-0.7358596412	-0.0499674908	 2.276079087	 0.079834
