15
gdb 29311	3.24168	1.27984	0.92286	3.284	77.69	-0.2137	-0.0204	0.1933	1180.7861	0.112946	-416.864262	-416.855481	-416.854537	-416.897726	31.643	
C	 0.0573576864	 1.5133936759	 0.0770885351	-0.545796
C	 0.0469542791	 0.0181248157	 0.0302686805	 0.048578
C	-0.0039011105	-0.7898051919	-1.1037042097	 0.16834
N	 0.0052415354	-2.1045126685	-0.6983458938	-0.331772
C	 0.0605537527	-2.1657173222	 0.666377829	-0.16538
C	 0.0870628836	-0.8668009393	 1.1365986843	 0.279086
O	 0.1427718606	-0.5392867641	 2.4569032793	-0.444335
C	-0.0573216373	-0.4243663025	-2.4632031771	 0.208786
N	-0.1012669104	-0.1193375149	-3.5821423878	-0.361629
H	 0.9646192044	 1.8999342454	 0.5584784248	 0.133369
H	 0.018253193	 1.9340311751	-0.9304894313	 0.156276
H	-0.8028387914	 1.9099368769	 0.6312448689	 0.133344
H	-0.0245664448	-2.8936010327	-1.3196402325	 0.279719
H	 0.0769540305	-3.1018349594	 1.1980388533	 0.139684
H	 0.1514240988	 0.4192700364	 2.5380954971	 0.30173
