18
gdb 46933	2.87862	1.8357	1.40687	3.5501	76.77	-0.2463	0.0262	0.2725	951.9651	0.15111	-401.938304	-401.93153	-401.930586	-401.969386	27.725	
N	-0.0938021161	 1.2699901007	 0.18658027	-0.529721
C	 0.0090756222	 0.0241203232	-0.0271733632	 0.381836
O	 1.2300421447	-0.5583616173	-0.2296558302	-0.260818
C	 1.3153301451	-1.8555985994	-0.8413927625	-0.087472
C	 0.2212531083	-2.7915845524	-0.3672281091	-0.050992
C	-0.0610861745	-2.7593555944	 1.1745794082	-0.251905
C	-1.3855349251	-2.0542406051	 0.8816451268	-0.067451
C	-1.1918582287	-2.2271698012	-0.6148080278	-0.109391
C	-1.1982155741	-0.8437938992	-0.0262061918	-0.072631
H	 0.8299548743	 1.7058201238	 0.1395382239	 0.214304
H	 1.2784871799	-1.7399298399	-1.934013143	 0.108312
H	 2.3084952466	-2.2271499842	-0.571618208	 0.116426
H	 0.383735847	-3.7952072205	-0.764382148	 0.083898
H	-0.2149238343	-3.7651002935	 1.5716784815	 0.107944
H	 0.6621734405	-2.2331679057	 1.8039493966	 0.113135
H	-2.2947631291	-2.1408567852	 1.4636772364	 0.096392
H	-1.8868216717	-2.5409681709	-1.3835563782	 0.091957
H	-2.107098475	-0.2702550389	-0.1608637019	 0.116177
