22
gdb 98687	3.20565	0.93283	0.88443	3.2649	86.	-0.2421	0.0317	0.2738	1476.4363	0.192579	-404.384524	-404.373916	-404.372972	-404.420338	38.565	
C	-0.1978710533	 1.3607940106	-0.0040679105	-0.33294
N	-0.045104466	-0.0695567398	 0.1665077226	-0.32684
C	 1.0575175404	-0.6301542598	 0.749774011	 0.43598
O	 1.9976901328	 0.0405786677	 1.1535203986	-0.39501
C	 1.0093858562	-2.1232155329	 0.843285744	-0.176613
C	 2.3171023711	-2.8742021909	 1.0038590585	-0.320352
C	 1.3495339201	-2.8572328127	 2.1482518235	 0.343777
C	 1.6953633585	-2.0703956306	 3.3977830589	-0.466863
C	 0.5513569622	-4.121490787	 2.4123927226	-0.444886
H	-0.3707065362	 1.6195428977	-1.0546569415	 0.122454
H	-1.0293513202	 1.7534317408	 0.5933249875	 0.12264
H	 0.7291842912	 1.826670365	 0.3317194637	 0.171555
H	-0.7962356899	-0.6737737576	-0.1208493333	 0.242911
H	 0.2420742333	-2.5995864288	 0.2389539799	 0.068109
H	 2.4466796682	-3.7886318874	 0.4345105084	 0.104698
H	 3.1951675216	-2.242161343	 1.0797137572	 0.136407
H	 2.227970143	-1.1506871325	 3.1548317853	 0.158888
H	 0.7894404603	-1.8061610109	 3.9564544837	 0.10575
H	 2.3235448996	-2.678446592	 4.0592537982	 0.108207
H	 1.10787566	-4.7963078929	 3.0734203264	 0.118718
H	-0.402287006	-3.8926636764	 2.9023570137	 0.114315
H	 0.333988923	-4.6661896266	 1.4880236716	 0.109097
