20
gdb 33234	6.03903	0.679	0.61846	1.8502	82.51	-0.1885	0.0321	0.2206	1808.1059	0.171556	-403.169372	-403.160202	-403.159258	-403.204138	33.747	
C	 0.0243809024	 1.5436931356	-0.0305039709	-0.380118
C	-0.0506163394	 0.0169831612	 0.0447981389	-0.193224
C	 0.7505686757	-0.554538041	 1.2129830784	-0.111807
N	 0.6268951693	-2.0024066518	 1.2787331211	-0.405553
C	 1.3400540516	-2.6675332786	 2.273154283	 0.279665
C	 1.9574964337	-2.1445349892	 3.3750685014	-0.096121
O	 2.4874806526	-3.1513216025	 4.142559664	-0.153432
C	 2.2143755033	-4.313095158	 3.5095700374	 0.018555
C	 1.5157675539	-4.0933182064	 2.3668100701	-0.295186
H	 1.0580115136	 1.8867048472	-0.1484407863	 0.118053
H	-0.5517509995	 1.9261098226	-0.8780651801	 0.11662
H	-0.3762081541	 2.0043976099	 0.878951548	 0.119081
H	-1.0932630848	-0.3075903183	 0.1404549667	 0.110957
H	 0.3245138189	-0.414844546	-0.8936603209	 0.093358
H	 1.8056540725	-0.2332157544	 1.1392262284	 0.088214
H	 0.3671970605	-0.1421721303	 2.1560602864	 0.109818
H	 0.7204439269	-2.442364153	 0.3728192678	 0.227292
H	 2.0936804585	-1.1465182189	 3.7512082814	 0.121601
H	 2.5755982466	-5.2079171172	 3.9897294555	 0.130922
H	 1.1572215577	-4.8379322208	 1.6728647896	 0.101305
