19
gdb 88704	3.41408	0.97349	0.82624	0.5059	83.36	-0.2381	0.0357	0.2738	1419.0514	0.158272	-381.980419	-381.971102	-381.970158	-382.015321	34.6	
C	-0.1991448123	 1.5602490358	-0.050421845	-0.39514
C	-0.0267493144	 0.0637722187	 0.0538478782	 0.004744
N	 1.3124431684	-0.4851308066	-0.2153213817	-0.349858
C	 0.7344943913	-0.6273064016	 1.1328171823	-0.020779
C	 1.4473438036	 0.0908868351	 2.2302320136	-0.005338
N	 0.8151921271	 0.0614523313	 3.5522968991	-0.336341
C	 2.1038024312	-0.6470908014	 3.3619815967	-0.254589
C	 2.0947056926	-2.080486054	 3.4658563678	 0.385638
C	 2.1212528131	-3.2799036626	 3.5475885862	-0.446775
H	 0.6872313038	 2.0907137813	 0.3048222732	 0.121371
H	-0.3639059714	 1.8548009814	-1.0924177434	 0.119841
H	-1.0626068139	 1.8934820757	 0.5352742811	 0.119998
H	-0.872613236	-0.5046513034	-0.3327642449	 0.083073
H	 1.255537013	-1.3641128837	-0.7212681229	 0.233138
H	 0.3651205234	-1.6061070363	 1.4291895142	 0.097445
H	 1.9570420492	 1.0003393028	 1.9219190545	 0.096875
H	 0.9769638883	 0.9333174821	 4.0495137977	 0.237659
H	 2.9947277217	-0.1757924081	 3.7720586356	 0.111134
H	 2.1364242813	-4.3385661263	 3.6280550576	 0.197903
