19
gdb 73174	2.43639	1.45828	1.33482	2.0415	81.24	-0.2382	0.0449	0.2831	1088.1201	0.157668	-385.828617	-385.819899	-385.818955	-385.862061	33.358	
C	-0.3908871963	 1.2885480401	-0.1999572652	-0.47691
C	 0.030803384	-0.1326535912	 0.0623586177	 0.454814
O	-1.0781660091	-0.983889892	 0.4158909454	-0.318118
C	-0.4139917083	-1.4455436663	 1.6161201684	-0.083464
C	 0.8680719657	-0.6791269862	 1.2624689204	-0.138951
C	 1.7957342702	-1.4351576284	 0.2782060652	-0.249289
C	 1.0210869826	-0.823478443	-0.9454599453	-0.245961
C	 0.4667835274	-1.7195457885	-1.9355331634	 0.344562
C	 0.0108088503	-2.4715652986	-2.7557802885	-0.457286
H	 0.4758352395	 1.9298989185	-0.3887755687	 0.116271
H	-1.0434706667	 1.3257789507	-1.0795643315	 0.138324
H	-0.9466638182	 1.6909190647	 0.6521631449	 0.124436
H	-0.9325828099	-1.0913911527	 2.5163233575	 0.099949
H	-0.3354182571	-2.5390347482	 1.6541692689	 0.103661
H	 1.3267900068	-0.0533887137	 2.0271085467	 0.076779
H	 2.8431899361	-1.1303777436	 0.3153073803	 0.108137
H	 1.7452930489	-2.5237525876	 0.3480779841	 0.112247
H	 1.6334268387	-0.0597437597	-1.4380564507	 0.097948
H	-0.4011704447	-3.1329797744	-3.4767660762	 0.19285
