16
gdb 77145	2.74452	1.3114	1.15708	6.3046	66.04	-0.234	-0.0234	0.2106	1095.8671	0.123199	-475.059865	-475.051048	-475.050103	-475.093919	32.302	
N	-0.009747637	 1.2969174499	 0.4472840972	-0.53412
C	 0.0325356532	 0.0345561131	-0.0468172387	 0.46345
O	 1.0826164454	-0.4991895371	-0.3867847242	-0.395619
C	-1.2887602149	-0.6893384182	-0.1738960274	-0.219171
C	-1.6592650158	-0.9417953495	-1.6736075192	-0.351672
C	-1.0601516942	-2.35733309	-1.5316073629	 0.368077
O	-0.6330753367	-3.1561369048	-2.3079630412	-0.288837
C	-1.0791482192	-2.2533142366	 0.0142224589	 0.063043
O	-0.0451918604	-2.7517943349	 0.782119377	-0.419339
H	 0.8538038131	 1.807850058	 0.5372933274	 0.268866
H	-0.8684367228	 1.7385275536	 0.7237129611	 0.266487
H	-2.0748492071	-0.242825818	 0.4370619502	 0.078402
H	-2.7396065686	-0.9595133484	-1.8420867697	 0.133346
H	-1.1874731003	-0.3043012686	-2.4231016957	 0.144347
H	-2.0166803551	-2.687664037	 0.3842559128	 0.116987
H	 0.7624379503	-2.3418178515	 0.4334109044	 0.305754
