17
gdb 15396	3.72463	1.07986	0.90325	5.4262	69.48	-0.2733	0.0301	0.3034	1253.1315	0.141773	-363.860128	-363.851482	-363.850538	-363.894038	30.519	
O	-0.0247239926	 1.4045351877	 0.006580835	-0.417223
C	-0.0177525274	 0.0018184096	 0.2067354649	-0.067329
C	-1.3589620467	-0.5379496112	-0.2822650001	-0.206103
C	-1.4476646542	-2.0418138326	-0.154944227	-0.006045
C	-1.8607472296	-2.6893560248	 1.1341535615	-0.282863
C	-2.7941115292	-2.7526397281	-0.0670957743	-0.185534
C	-4.0159690531	-1.99875963	-0.0569931461	 0.288507
N	-5.0029387589	-1.3944910447	-0.0523406129	-0.341462
H	 0.8076507031	 1.7614287788	 0.3294520736	 0.288223
H	 0.8027008549	-0.4793619042	-0.3517053149	 0.083831
H	 0.1193981075	-0.2544600837	 1.2695552662	 0.089656
H	-2.1625480845	-0.0581038008	 0.2862839218	 0.129528
H	-1.4952996007	-0.2387117655	-1.3278660065	 0.120853
H	-0.7154592182	-2.5907377831	-0.7419203926	 0.101864
H	-1.394186367	-3.6179932844	 1.4414786788	 0.129234
H	-2.1635361861	-2.0409269776	 1.9488435844	 0.141177
H	-2.8756182371	-3.7069083256	-0.5762084418	 0.133686
