17
gdb 51950	3.42118	0.75105	0.65811	2.9366	71.04	-0.2541	-0.0394	0.2147	1643.9685	0.132387	-458.961225	-458.951743	-458.950799	-458.997611	32.208	
O	 1.0486315792	-0.3384323764	-0.3988204511	-0.237197
C	 0.6330019304	 0.7697443735	-0.6155066872	 0.158029
C	 1.2288457714	 2.0450762479	-0.06921582	-0.274305
C	 1.5319718616	 3.0546154288	-1.1809295837	-0.32827
C	 1.7460516872	 4.4631738017	-0.6455815598	 0.363746
O	 1.4336399502	 4.7976824034	 0.4740804783	-0.305119
C	 2.3401301655	 5.4765856913	-1.5857438179	-0.009232
C	 3.6314964093	 5.22629089	-2.2598038599	-0.175811
O	 2.4073152209	 5.1427065819	-2.9731604933	-0.215632
H	-0.2640594225	 0.9286424479	-1.2616474802	 0.070613
H	 0.4999596663	 2.4999298781	 0.6149209027	 0.14631
H	 2.1212810826	 1.8022690369	 0.5128378423	 0.128575
H	 2.3880771662	 2.7458412901	-1.7896999312	 0.138794
H	 0.6955822387	 3.121070528	-1.8929047209	 0.146986
H	 2.0701530737	 6.5052055242	-1.3534852318	 0.125514
H	 4.2638017934	 6.0790975353	-2.4992998509	 0.138103
H	 4.153368066	 4.2840714774	-2.1014110252	 0.128893
