17
gdb 66952	2.55537	1.93237	1.41314	2.6349	71.56	-0.2251	0.0588	0.2839	946.0283	0.135219	-421.725527	-421.718244	-421.7173	-421.75684	29.672	
O	 0.0047954038	 1.3730175835	 0.1099760474	-0.455687
C	 0.0722543717	 0.0071182821	-0.0054629688	 0.239111
C	-0.9188945598	-0.9037605484	 0.7332664184	 0.051448
O	-1.0525677511	-2.113952657	-0.0107418527	-0.28859
C	 0.3912052561	-2.0286056412	-0.2263169697	-0.064439
C	 0.5460736141	-1.0530752042	 1.0028661897	-0.223069
C	 0.5374882367	-0.8331587833	-1.1757554606	 0.373066
C	 0.2930860783	-0.7283212065	-2.6404630071	-0.332825
C	 1.6940613343	-0.5363691904	-2.075773422	-0.354154
H	 0.9027951685	 1.7247023722	 0.095143152	 0.291403
H	-1.7423531513	-0.5464801091	 1.3377321791	 0.11602
H	 0.8754530895	-2.9877700865	-0.3969896871	 0.087104
H	 1.1598531131	-1.0365353274	 1.8924586388	 0.104661
H	 0.0861066349	-1.6368389416	-3.1966000998	 0.117905
H	-0.2265634644	 0.1507312806	-3.0080999839	 0.120536
H	 2.1056883143	 0.4693056717	-2.0765573594	 0.103115
H	 2.4302523112	-1.3138889746	-2.2553035841	 0.114395
