16
gdb 12521	2.89317	2.33825	1.69637	1.6141	75.	-0.2258	-0.0435	0.1823	814.5466	0.13268	-346.615612	-346.608675	-346.607731	-346.646592	27.024	
O	 0.2472821083	 1.298482822	-0.3738984923	-0.431416
C	 0.0539374525	-0.0838603498	-0.054532804	 0.033469
C	 0.7523800276	-0.4810170164	 1.2197393732	-0.109006
C	 0.4040581497	-0.055027316	 2.4533643463	-0.057928
C	-0.7832781488	 0.6659488607	 2.8250905898	-0.110337
C	-1.9687815785	 0.6770986818	 2.1556542355	-0.110336
C	-2.2738485578	-0.0298397179	 0.9411885362	-0.057928
C	-1.4034750618	-0.4607379748	 0.0023581698	-0.109006
H	-0.1511022775	 1.8091575192	 0.3400980242	 0.286332
H	 0.5206937607	-0.6121317501	-0.8899100081	 0.089478
H	 1.6466463558	-1.0901591084	 1.1179592183	 0.098545
H	 1.0856069519	-0.282147288	 3.270957783	 0.095401
H	-0.7552820613	 1.1637754428	 3.791386579	 0.094394
H	-2.8035381407	 1.1830387016	 2.6347671715	 0.094394
H	-3.3290766625	-0.2406239417	 0.7780479591	 0.095401
H	-1.7867650677	-1.0578612351	-0.8208418617	 0.098545
