12
gdb 25868	4.33267	1.13398	0.89875	2.1884	58.61	-0.2611	-0.0497	0.2114	1161.269	0.077515	-509.840608	-509.83296	-509.832016	-509.87329	27.346	
N	-0.1418643805	 1.3218495608	-0.0014766472	-0.540831
C	 0.0448691869	-0.023604076	-0.0049406898	 0.326032
O	 1.1282702449	-0.5776199118	-0.0137596864	-0.358961
C	-1.2018972926	-0.8165802284	 0.0051049964	 0.231643
C	-1.3894626547	-2.1369479586	 0.0042312681	-0.092532
O	-2.7350666668	-2.4010502746	 0.0155894558	-0.201499
C	-3.3962546798	-1.1949486945	 0.0240395742	 0.497374
O	-4.5712622764	-1.0429642482	 0.0350883414	-0.355893
O	-2.4493751522	-0.2044921877	 0.0177417016	-0.259825
H	 0.6696243373	 1.9168610107	-0.0038657605	 0.274478
H	-1.0605294019	 1.7309595569	 0.0108039379	 0.281389
H	-0.7066665541	-2.9672435388	-0.0034257917	 0.198624
