21
gdb 109342	2.8406	1.26039	0.9782	1.8584	84.63	-0.2344	0.0094	0.2439	1288.1706	0.183514	-387.091777	-387.083093	-387.082148	-387.125432	33.116	
C	 0.163637689	 1.5937405828	-0.1006956193	-0.374347
C	-0.0511400329	 0.0775953957	 0.0529529191	-0.28611
C	 0.6473363626	-0.518402286	 1.2509317731	 0.325862
C	-0.0010542486	-0.9492965782	 2.3370890882	-0.159354
C	 0.6808683952	-1.5504107478	 3.5419099754	-0.262366
C	 2.004521554	-2.2580743043	 3.1915881248	-0.234477
C	 2.8280900304	-1.4832922012	 2.1714425705	 0.043296
O	 2.6923639204	-1.8908935421	 0.8037671122	-0.260778
C	 2.1359937502	-0.6201252521	 1.2060502276	-0.051457
H	 1.2230288403	 1.8457388573	-0.2131165852	 0.119302
H	-0.3590791174	 1.9710379883	-0.9851389855	 0.114909
H	-0.2156231502	 2.1312136831	 0.7742081474	 0.11828
H	-1.1248260247	-0.1278442091	 0.1267754021	 0.100362
H	 0.3022955989	-0.4279118278	-0.8558453381	 0.112854
H	-1.0855863229	-0.8641619998	 2.3757154675	 0.082859
H	 0.8628539258	-0.7600745336	 4.2855682199	 0.112562
H	 0.0064362327	-2.260336727	 4.0331624273	 0.105995
H	 2.5923599501	-2.4261784504	 4.0996166223	 0.096639
H	 1.7894261481	-3.2408666721	 2.7595685139	 0.121642
H	 3.8510329467	-1.2328149149	 2.4516220823	 0.087895
H	 2.6696331623	 0.2317240592	 0.7841634243	 0.086433
