15
gdb 67178	3.06505	1.56951	1.50438	3.505	64.75	-0.2366	-0.0032	0.2334	920.1044	0.115272	-453.921634	-453.914911	-453.913966	-453.952583	27.025	
N	-0.2230749548	 1.4550103402	 0.0683495003	-0.623793
C	-0.0039564005	 0.0675127986	-0.016171204	 0.274278
C	-0.9797062165	-1.098068903	 0.0615043828	-0.092462
N	-0.3958481845	-1.73346922	-1.112104494	-0.302587
C	 0.8051574091	-0.8351591896	-1.0156264034	-0.226232
C	 1.8226445177	-1.5477543904	-0.137602785	 0.43277
O	 2.8862915615	-2.0234713142	-0.4071792539	-0.343204
O	 1.2500564485	-1.6618378957	 1.1115797616	-0.227511
C	 0.0792098502	-0.871263734	 1.144934864	 0.050452
H	 0.6130870154	 1.9644518044	 0.3343087684	 0.243297
H	-0.5758738927	 1.8428034232	-0.7998906156	 0.244076
H	-2.0428897325	-1.1316953945	 0.269344468	 0.109834
H	-0.1834798239	-2.7255072192	-0.9992392569	 0.234127
H	 1.1884944162	-0.4611515753	-1.9630051803	 0.100138
H	-0.2080153832	-0.5631267105	 2.140987298	 0.126815
