20
gdb 40241	2.78825	1.64181	1.24555	2.475	79.09	-0.2343	0.0694	0.3037	1063.3042	0.173224	-403.111809	-403.10426	-403.103316	-403.143583	30.885	
C	-0.0069520853	 1.4926386435	 0.0169885595	-0.324935
C	 1.2999203297	 0.7223678831	-0.0100162173	-0.333986
C	-0.0309648778	-0.000062817	-0.0303347562	 0.479377
O	-0.4373213478	-0.6136007546	 1.1617101206	-0.28805
C	-0.0464668631	-1.9790184745	 1.2225477029	-0.090481
C	-0.8203890584	-2.8286782459	 0.2074739638	-0.2092
C	-0.8227739416	-2.1663413518	-1.164602418	-0.040883
N	-1.8537629598	-1.1297508349	-1.3699696852	-0.333107
C	-0.440746774	-0.7296763749	-1.2730426349	-0.116482
H	-0.2988020063	 1.9457104825	 0.9573871748	 0.12621
H	-0.3099555646	 2.0410126107	-0.8682164459	 0.111727
H	 1.9005030016	 0.747463708	-0.9136804249	 0.106837
H	 1.8651747499	 0.6729555381	 0.9135749927	 0.118423
H	 1.0367724787	-2.0637653578	 1.0408710711	 0.087306
H	-0.2458837261	-2.3082769767	 2.2459101086	 0.103737
H	-0.3644257792	-3.8234137095	 0.1492947417	 0.093161
H	-1.8545167549	-2.9552802769	 0.5424388799	 0.119244
H	-0.588436785	-2.8081237115	-2.0104312529	 0.083069
H	-2.1485799322	-1.1176660882	-2.3428866008	 0.227497
H	 0.0627130862	-0.3998809018	-2.1794228397	 0.080538
