21
gdb 58520	2.69096	1.29455	1.22672	2.1427	77.61	-0.2455	0.0596	0.3051	1156.9173	0.181338	-424.194374	-424.185259	-424.184315	-424.227594	36.097	
C	 0.0956579382	 1.525359748	-0.1211700612	-0.418545
C	 0.0579791094	 0.0106547113	 0.1194633658	 0.105178
O	 0.5932096277	-0.3181506556	 1.3929558951	-0.443161
C	-1.3526966277	-0.5817731886	 0.0051014023	 0.377571
O	-2.1400605944	-0.1096503189	 1.1025238939	-0.494767
C	-2.1286431914	-0.5096743676	-1.3556862866	-0.312974
C	-2.2971758508	-2.0347774186	-1.3139747009	-0.041772
C	-0.9481093275	-2.6916793242	-1.2905418883	-0.291319
C	-1.4911066068	-2.108197268	-0.0167881858	-0.060877
H	 1.1172392341	 1.8911258275	 0.0081725443	 0.129788
H	-0.2409224781	 1.7861004971	-1.130220325	 0.114355
H	-0.533322275	 2.058468659	 0.6017599425	 0.09844
H	 0.7063944639	-0.4765403251	-0.6173878834	 0.080909
H	-0.1339236998	-0.1843782407	 2.0156675256	 0.280009
H	-2.3541699483	 0.8157692902	 0.939427253	 0.28029
H	-3.0666397796	 0.0366122629	-1.2312920732	 0.102838
H	-1.5904774543	-0.1094558731	-2.2219130717	 0.092308
H	-3.196284352	-2.5713504702	-1.5890958511	 0.086503
H	-0.9536783526	-3.7762920006	-1.3275430431	 0.115605
H	-0.1032954023	-2.2408009303	-1.8059719637	 0.106865
H	-1.6620460924	-2.7022560144	 0.8715432416	 0.092757
