15
gdb 36016	3.22603	0.90299	0.75864	3.562	75.29	-0.2927	-0.0025	0.2902	1424.6023	0.110784	-379.662918	-379.653494	-379.65255	-379.698079	32.68	
C	 0.0067471894	-1.2471984833	 0.0133002976	-0.441982
C	-0.0148137616	-0.0469482898	 0.0320998598	 0.346733
C	-0.0228644218	 1.4108723501	 0.0205313294	-0.173128
C	 1.4207268832	 1.9861147859	 0.0246551303	-0.354545
C	 2.1689762006	 1.625763278	 1.2254267611	 0.27183
N	 2.7561338499	 1.3544585331	 2.1822000569	-0.291246
C	-0.7809718686	 1.9641244487	-1.21803767	-0.354533
C	-2.1899948738	 1.5820874246	-1.2349805052	 0.271832
N	-3.3082610146	 1.2936047601	-1.2408494315	-0.291245
H	 0.0152826082	-2.30977977	 0.0171330481	 0.217917
H	-0.5339541329	 1.7739828579	 0.9196061299	 0.151741
H	 1.964198077	 1.6233617624	-0.8544249285	 0.166088
H	 1.3791247947	 3.0790979227	-0.0431169146	 0.157226
H	-0.7181251833	 3.0581584739	-1.2267404455	 0.157229
H	-0.3036719361	 1.6008056357	-2.134508148	 0.166085
