25
gdb 81335	2.77105	1.34639	1.21768	0.1164	92.12	-0.2785	0.087	0.3655	1214.4368	0.230122	-352.356532	-352.347468	-352.346524	-352.389227	37.177	
C	-0.1537445788	 1.5473434063	-0.0109928906	-0.436934
C	 0.0154098415	 0.0315187724	-0.0107196715	 0.051075
C	 1.1382610802	-0.5847568192	-0.9034015182	-0.016596
C	 2.1202200116	-0.2518956286	 0.2526291991	-0.249088
C	 0.8816911329	-0.6081510341	 1.1298537466	-0.04234
C	 0.710148571	-2.1344480556	 0.87277028	 0.346242
C	 1.775999934	-2.9836806279	 1.5829981967	-0.446825
C	-0.6668325779	-2.6664352727	 1.2996425923	-0.44764
C	 0.9030484698	-2.0963532372	-0.6947493501	-0.267384
H	 0.7834589246	 2.0919608321	 0.1309699295	 0.116141
H	-0.5883873809	 1.8835670859	-0.9591995719	 0.112807
H	-0.8365340768	 1.8567944613	 0.7883548656	 0.113078
H	-0.9719855719	-0.4178664766	-0.1552601825	 0.055682
H	 1.3114322147	-0.2427610483	-1.925851601	 0.049412
H	 3.0255482877	-0.8550880499	 0.3484486974	 0.086639
H	 2.3915720286	 0.8022842649	 0.3012175653	 0.095996
H	 0.7954796567	-0.2760092069	 2.1673856355	 0.046281
H	 1.6688118216	-2.9130985172	 2.6719221404	 0.106808
H	 1.668409688	-4.0398382944	 1.3106367541	 0.109039
H	 2.7956160112	-2.6845072217	 1.3293757973	 0.111028
H	-1.4954608922	-2.1221383732	 0.8405159364	 0.112424
H	-0.7744639363	-3.720745909	 1.0204307303	 0.109404
H	-0.787812597	-2.601907622	 2.3875467528	 0.10696
H	 0.0171754439	-2.4552814899	-1.2288385331	 0.089059
H	 1.7566308636	-2.6994924687	-1.0208089406	 0.088733
