18
gdb 124798	2.52479	1.49743	0.9904	2.7246	74.8	-0.1916	0.0257	0.2173	1181.8246	0.14909	-435.282772	-435.273819	-435.272875	-435.316183	34.106	
C	 0.0159434899	 1.4129594157	 0.9512140407	-0.38786
C	-0.2126935057	 0.413878322	-0.1782014151	 0.008073
O	 0.8205060536	-0.5919315105	-0.2118063367	-0.430215
C	-1.5651932184	-0.2413928936	-0.1432990386	 0.280943
N	-2.5297565335	 0.1252269199	 0.7023401088	-0.299434
N	-3.5587774101	-0.67856386	 0.4142557248	-0.193406
C	-3.2872641974	-1.5655302814	-0.5890600686	-0.120099
C	-1.9887861271	-1.3097069813	-0.9827149534	 0.135252
N	-1.2326086185	-1.8801841178	-2.0138175328	-0.618424
H	 1.0226086008	 1.8312783624	 0.8724197975	 0.113532
H	-0.7163691269	 2.2228003835	 0.9066425727	 0.132693
H	-0.0932309712	 0.9278480654	 1.9266692113	 0.11486
H	-0.0888214524	 0.9251432015	-1.1415464962	 0.103062
H	 0.7426334278	-1.0972548122	 0.6060500997	 0.278228
H	-4.4128497895	-0.5861146047	 0.9354956248	 0.270604
H	-4.0174916957	-2.2805495471	-0.9324914683	 0.121142
H	-1.5079135328	-2.8259207468	-2.241784119	 0.235994
H	-0.2441526531	-1.842094595	-1.7914437016	 0.255053
