17
gdb 131211	4.43643	0.99539	0.86894	2.5528	75.49	-0.212	0.043	0.255	1317.4332	0.137447	-418.014313	-418.006173	-418.005228	-418.047356	30.932	
O	 0.2150936891	 1.3237275066	 0.2874741364	-0.430798
C	 0.1421716099	 0.0010622806	 0.0221316687	 0.467376
C	 0.4892603712	-0.7775834489	-1.0610084865	-0.476641
C	 0.1375180473	-2.0981157414	-0.6629938159	 0.393981
N	-0.3807511334	-2.1233888631	 0.5609346205	-0.318404
N	-0.3677835256	-0.821001235	 0.9616642111	-0.257375
C	 0.2801141048	-3.3570182528	-1.4196877688	-0.073569
C	 0.0857663547	-3.3878935773	-2.9220020333	-0.268919
C	 1.4595152958	-3.5794360768	-2.3444526935	-0.268927
H	 0.5973950654	 1.7694179756	-0.4745778618	 0.312808
H	 0.9259849465	-0.4444866638	-1.988605481	 0.096213
H	-0.7142455992	-0.5656375442	 1.8699577252	 0.275032
H	-0.0732555311	-4.2191542893	-0.8651111088	 0.095262
H	-0.4216796095	-4.2459106453	-3.3488726843	 0.113913
H	-0.1376149265	-2.4473222457	-3.413839403	 0.113069
H	 2.1746238134	-2.7697246712	-2.4417438397	 0.11307
H	 1.9005374774	-4.5696997679	-2.3725671254	 0.113911
