15
gdb 28752	3.35391	1.17631	0.87848	0.4663	68.81	-0.1961	-0.0377	0.1584	1234.9072	0.112427	-453.990982	-453.982687	-453.981743	-454.024871	29.84	
O	-0.7968197948	 1.1189112907	 0.3630610673	-0.434434
C	-0.1630787209	-0.036899023	 0.0516870047	 0.355593
C	 0.8114790887	-0.4006805663	-0.8412555312	-0.237427
N	 1.0634209496	-1.7544171373	-0.7228599738	-0.308598
C	 0.2611102373	-2.1889283203	 0.2182580831	 0.35765
C	 0.2021454433	-3.5996848373	 0.7104538933	-0.420806
C	-0.9761590605	-3.9920886487	 1.5664705263	 0.165711
O	-1.8125192257	-3.2438313533	 2.0152282321	-0.25617
N	-0.5070051746	-1.1723373835	 0.7311970505	-0.327823
H	-0.4674086586	 1.8112996324	-0.2180839296	 0.310354
H	 1.3372710341	 0.2195242269	-1.5506112609	 0.09695
H	 0.2530335312	-4.292901818	-0.1391279547	 0.159095
H	 1.0928778437	-3.8500883507	 1.3121097893	 0.156403
H	-1.0166221082	-5.0787471076	 1.7957861016	 0.098394
H	-1.2443515844	-1.2956958839	 1.4091945821	 0.285109
