19
gdb 88032	2.29283	1.37466	1.07302	2.7668	80.5	-0.2554	0.0189	0.2743	1201.5918	0.159563	-382.056677	-382.047848	-382.046904	-382.090358	32.972	
C	-0.1029527547	 1.4936707932	-0.099318873	-0.39629
C	 0.0280364803	-0.0039149081	 0.0191686906	-0.071314
N	 1.3916158596	-0.5669320269	-0.116423173	-0.388335
C	 0.7061611691	-0.6642488192	 1.1590450437	 0.344682
C	 1.1735443466	-0.0676936406	 2.4896071405	-0.298025
C	 0.3225680486	-1.1446197683	 3.2215010026	-0.23198
C	 0.2248134567	-1.9477016471	 1.8803749633	-0.23133
C	-1.0542144021	-2.5180459664	 1.4963785574	 0.280456
N	-2.0783504427	-2.947370028	 1.1720663481	-0.337222
H	 0.7490832733	 1.9963925766	 0.3656067564	 0.127431
H	-0.1360389984	 1.794560406	-1.1514716765	 0.127245
H	-1.0229748264	 1.8440851769	 0.3808875644	 0.121129
H	-0.7824578537	-0.5757624427	-0.4312432722	 0.109103
H	 1.3713680531	-1.4560812027	-0.6110012911	 0.234409
H	 2.2482021263	-0.2028868426	 2.6406665439	 0.118512
H	 0.918522215	 0.976049989	 2.6820751163	 0.116331
H	 0.7847331634	-1.6737624941	 4.0551313155	 0.119764
H	-0.6535242528	-0.7682356896	 3.530902206	 0.130588
H	 0.9938669887	-2.7269679455	 1.8383103674	 0.124846
