18
gdb 77119	3.11175	1.14765	0.92082	3.9778	74.77	-0.2469	0.0163	0.2632	1265.7241	0.146174	-439.072175	-439.063321	-439.062376	-439.106345	32.006	
C	-0.3645407389	 1.4136913509	-0.0205195636	-0.405262
C	 0.0247078061	-0.0561978743	 0.0173438291	-0.042084
N	 1.2288449333	-0.4302459014	-0.7570559435	-0.068672
C	 1.9416092509	-1.0490842328	 0.3671494721	-0.254566
C	 0.7783987685	-0.5864331	 1.2559740757	 0.400149
C	 0.765410867	-0.1198412105	 2.6392946848	-0.258049
O	 0.1819565753	-1.3779949944	 2.2533318024	-0.258055
C	 1.4192440723	-0.6428482816	-2.0809166562	 0.133565
O	 2.379614851	-1.2145793782	-2.5531491815	-0.326941
H	 0.4848515284	 2.0499347353	 0.244135214	 0.126416
H	-0.7114980805	 1.7010855866	-1.017802802	 0.130674
H	-1.1813932357	 1.605549006	 0.6829814111	 0.129061
H	-0.8378973141	-0.6928491225	-0.2205676276	 0.10502
H	 2.0344556006	-2.1368805778	 0.2791481142	 0.138824
H	 2.9254634508	-0.6167504654	 0.5725861228	 0.129514
H	 1.6701482078	-0.1911733729	 3.2411115158	 0.12612
H	 0.0558351172	 0.6445403182	 2.951640051	 0.123806
H	 0.5995537	-0.2147492151	-2.6938808886	 0.070479
