18
gdb 89339	1.95421	1.79059	1.13684	2.1282	81.13	-0.2071	0.0296	0.2366	1125.2191	0.144355	-401.859243	-401.849802	-401.848858	-401.893336	35.179	
C	-0.1976031684	 1.4574384288	 0.0896680088	-0.336523
N	 0.0813369809	 0.034792742	 0.007020943	-0.123706
C	 1.1544716152	-0.4324272863	-0.9162914365	-0.22769
C	 1.8419130434	-1.1556757674	 0.2325826328	 0.3306
O	 2.3655092644	-2.4131056902	 0.0526658979	-0.449388
C	 2.1902995126	-0.1987013837	 1.3226238262	-0.413791
C	 0.7181826511	-0.6157138949	 1.1549664794	 0.111031
C	-0.0309329611	-1.2023777773	 2.2102215407	 0.235984
C	-0.6598966886	-1.7032941792	 3.1066024587	-0.412631
H	 0.6848569128	 2.0843035972	 0.3099720098	 0.092136
H	-0.6251190531	 1.7976512892	-0.858847517	 0.122564
H	-0.940573255	 1.6290268285	 0.8744077332	 0.1325
H	 0.7645002213	-1.107413988	-1.6843295114	 0.122928
H	 1.7450719532	 0.3612123865	-1.3930877918	 0.097784
H	 3.0470890757	-2.5686605273	 0.7129272734	 0.29416
H	 2.657983138	-0.6462600861	 2.1958440058	 0.122087
H	 2.5139534631	 0.8186773627	 1.1119219116	 0.114411
H	-1.2213933158	-2.1504428246	 3.8887346755	 0.187543
