19
gdb 119026	2.32492	1.11509	0.84688	4.4109	76.47	-0.2571	0.0328	0.2898	1394.2961	0.158471	-419.183819	-419.174093	-419.173149	-419.219252	34.286	
C	-0.2224466284	 1.4804956924	 1.0330911106	-0.231356
O	-0.1497752739	 0.0945903905	 1.2877398852	-0.242679
C	 0.6460430678	-0.6015194977	 0.3571878819	-0.145255
C	 0.5900689407	-2.0858321111	 0.6764713671	 0.295683
C	 1.3459058567	-2.9762950202	-0.3058917388	-0.400302
C	 0.8878617237	-2.823348188	-1.688435806	 0.273012
N	 0.5288098902	-2.6794306031	-2.7773463805	-0.316581
C	 0.4846960944	-2.5192959222	 2.0903399412	-0.280731
N	-0.6651213361	-2.6534275496	 1.1709605967	-0.339484
H	-0.6466516854	 1.6871096883	 0.0393690291	 0.11836
H	-0.8711485542	 1.9163626173	 1.7959123935	 0.134411
H	 0.7686903108	 1.9547216268	 1.0926376985	 0.112633
H	 0.2783454774	-0.4294402287	-0.6678933409	 0.120375
H	 1.6913030569	-0.2476883808	 0.3931878567	 0.096558
H	 2.4206996898	-2.759650789	-0.2712076745	 0.14891
H	 1.2108457376	-4.0197595124	-0.007466853	 0.164663
H	 0.9314053582	-3.458043239	 2.4075486696	 0.113877
H	 0.4467847718	-1.74192486	 2.8459941996	 0.132397
H	-1.312731188	-1.8886209034	 1.350570964	 0.245509
