18
gdb 122779	5.29721	0.54503	0.49917	3.8247	77.38	-0.2511	-0.0396	0.2115	2080.6744	0.146555	-435.272405	-435.261819	-435.260875	-435.309847	35.679	
O	-0.1569442271	 1.4534981897	-0.0628204852	-0.419015
C	-0.0027402219	 0.0464349341	 0.0116165158	-0.072401
C	-1.3968640724	-0.5675300749	-0.0212625285	-0.206969
C	-1.3625880202	-2.0904978888	 0.0716381474	-0.123859
N	-2.7119069593	-2.6318716333	 0.0360183709	-0.326684
C	-2.9328671061	-3.9745148416	-0.0116118315	 0.302663
N	-1.9826983289	-4.8276381193	-0.1229125033	-0.526225
C	-4.3400663646	-4.3453737476	 0.0534687137	 0.224429
N	-5.4453168279	-4.6804711554	 0.110683947	-0.321441
H	 0.7167892865	 1.8546963696	-0.0493648059	 0.289657
H	 0.5924113984	-0.338443116	-0.832236423	 0.094072
H	 0.5142695842	-0.2525077769	 0.9379720569	 0.092323
H	-1.9757172402	-0.1502518844	 0.812674042	 0.111835
H	-1.8970030022	-0.2590827308	-0.946241804	 0.121631
H	-0.80185036	-2.5246205349	-0.7631873885	 0.137693
H	-0.8485709843	-2.4158493339	 0.9876650656	 0.119781
H	-3.4768305768	-2.0339678936	 0.301463682	 0.263099
H	-2.3465513473	-5.774834092	-0.1841265914	 0.239411
