18
gdb 64009	2.7925	1.54703	1.28937	3.3386	71.39	-0.2491	0.0164	0.2655	1026.4279	0.147632	-439.058519	-439.050498	-439.049554	-439.090562	31.571	
C	-0.0961293351	 1.583282281	-0.1311856744	-0.44141
C	-0.0674675272	 0.0586570459	-0.0221688971	 0.337603
O	-1.3736036691	-0.4836493986	-0.1123355034	-0.479155
C	 0.9458518829	-0.5677870626	-1.0816375941	-0.214325
N	 2.2989849283	-0.5321878209	-0.4511990262	-0.31245
C	 2.0078304151	-0.5324963838	 0.7771235547	 0.436133
O	 2.6328299229	-0.148445049	 1.9307979744	-0.276657
C	 1.2997037876	 0.2505103983	 2.4593202638	-0.133702
C	 0.6069799096	-0.4687731672	 1.2636566097	-0.173268
H	 0.9090222115	 2.0085590596	-0.056179406	 0.139317
H	-0.5037865598	 1.8825184282	-1.1041769321	 0.112579
H	-0.7268944481	 2.0149522714	 0.6512177607	 0.124761
H	-1.7908694723	-0.1328226496	-0.9062957091	 0.280012
H	 0.6335518447	-1.5918811425	-1.3210641479	 0.112128
H	 0.9705410835	 0.0066896304	-2.0133255492	 0.102882
H	 1.131828115	-0.1813248596	 3.4465603796	 0.131676
H	 1.2298828231	 1.3397649639	 2.4855682796	 0.132929
H	 0.1601284574	-1.4216910247	 1.553981637	 0.120947
