13
gdb 130321	3.38883	1.13357	0.88125	0.6824	61.99	-0.2484	-0.0187	0.2297	1208.8554	0.088793	-489.882563	-489.874619	-489.873675	-489.916121	28.216	
N	 0.335636847	 1.3055099485	 0.2569651425	-0.592902
C	 0.1256433517	-0.0419411502	 0.0815778603	 0.364891
N	-1.039763558	-0.6207916529	 0.2689454918	-0.223434
O	-0.8130184448	-1.9960291544	 0.0722764385	-0.168652
C	 0.4692131618	-2.1932508651	-0.2460123726	 0.007074
C	 1.1267490556	-1.0071690651	-0.2538793725	 0.127098
O	 2.4305550782	-0.7107730202	-0.5634004839	-0.231448
C	 3.4008583916	-1.1449273776	 0.3030744572	 0.155567
O	 4.5547403213	-0.9558717599	 0.0952256731	-0.244926
H	 1.0713497649	 1.6929066764	-0.3157615679	 0.269219
H	-0.5077396371	 1.8614753929	 0.250408553	 0.269898
H	 0.775243977	-3.208365343	-0.4450479259	 0.164691
H	 2.9671084208	-1.6730047094	 1.1705042964	 0.102924
