22
gdb 111524	3.31658	1.16047	1.06186	1.0414	87.03	-0.2283	0.0887	0.317	1265.5195	0.194111	-367.15076	-367.142016	-367.141072	-367.18418	34.282	
C	 0.3203705345	 1.483134067	 0.1339237516	-0.37214
C	-0.2564829564	 0.0912063327	-0.1128523843	-0.119047
N	 0.4948190066	-0.5829899723	-1.1675380436	-0.076253
C	 1.7216565032	-1.3105610074	-0.9192738416	-0.042438
C	 1.714838249	-2.1068831078	 0.4069480439	-0.343646
C	 0.4344215316	-2.8139885089	-0.0819000615	 0.38028
C	 0.1557858321	-4.2840799639	 0.0095315939	-0.343095
C	-0.7577330282	-3.2925443184	 0.6961567672	-0.319233
C	 0.4629726217	-2.0139712386	-1.3786036817	-0.139954
H	 1.3531547086	 1.4196507575	 0.492835098	 0.116299
H	 0.32188957	 2.0693040908	-0.7894650526	 0.124202
H	-0.2661244883	 2.0180648627	 0.8873295022	 0.109052
H	-0.2857432546	-0.4739268797	 0.8295566072	 0.09557
H	-1.2928116524	 0.1710269191	-0.4620233919	 0.099079
H	 2.608043884	-1.0418467155	-1.4834257539	 0.090941
H	 2.5662799797	-2.7885506931	 0.4798124498	 0.106714
H	 1.6518108293	-1.520627172	 1.3294863247	 0.099097
H	-0.213492838	-4.7880646507	-0.8787036482	 0.112193
H	 0.8077854485	-4.8935750708	 0.6271990059	 0.110809
H	-0.7153471351	-3.2309341513	 1.7792126609	 0.111505
H	-1.7471040651	-3.1319309161	 0.2799541651	 0.112845
H	 0.1872372892	-2.3916053732	-2.3587907109	 0.087219
