16
gdb 45627	4.7895	1.06578	0.91786	3.5871	72.3	-0.2422	-0.0037	0.2385	1233.2117	0.125902	-434.091529	-434.083825	-434.082881	-434.124272	28.67	
O	-0.0057461336	 0.0658883933	-0.1092898065	-0.359546
C	 0.0211831371	 1.2688704417	-0.0491206547	 0.404492
C	-1.0929929619	 2.3045341992	-0.2679975927	-0.298387
N	-0.4983218049	 3.6215805025	-0.0381159443	-0.308607
C	 0.728306642	 3.4040758883	 0.2577662005	 0.439448
N	 1.121100918	 2.0652959017	 0.2524074348	-0.383143
N	 1.6744378253	 4.3481032717	 0.632742774	-0.160125
C	 2.5948354797	 4.8717176326	-0.3917100484	-0.241269
C	 1.4955647249	 5.7129071928	 0.1584991277	-0.2092
H	-1.4928913498	 2.2208117435	-1.2850042554	 0.145166
H	-1.926178811	 2.1128068144	 0.4179513553	 0.147206
H	 2.0198115888	 1.7159737451	 0.543305875	 0.269811
H	 3.6186172624	 5.0134524224	-0.0604912931	 0.131787
H	 2.4792337655	 4.497482409	-1.4053639849	 0.136856
H	 0.6319933128	 5.897269528	-0.4720114721	 0.154997
H	 1.7198106244	 6.4809526437	 0.8914440349	 0.130514
