17
gdb 58145	1.84408	1.57907	1.24837	4.4107	65.57	-0.2614	-0.0642	0.1971	1100.7507	0.130085	-496.102565	-496.092155	-496.091211	-496.138108	36.478	
C	 0.7986882332	-0.6651286047	-1.1843602101	-0.442318
C	-0.037752575	 0.1799091154	-0.2241069803	 0.138396
O	-0.0683702568	 1.5430094914	-0.6183129296	-0.440762
C	-1.4992952275	-0.3187303505	-0.0764354044	 0.117828
O	-2.2296219265	-0.1807571941	-1.29003027	-0.478845
C	-1.5954547165	-1.7454412819	 0.4591872126	 0.111938
O	-0.8183777942	-2.2312361822	 1.2352374871	-0.233324
C	-2.2127528206	 0.6249975182	 0.9180332548	 0.163145
O	-1.9246044579	 0.7084806322	 2.0766996524	-0.234117
H	 1.7910998727	-0.218271211	-1.2798149922	 0.142662
H	 0.9110688574	-1.6904894877	-0.822839209	 0.142194
H	 0.3549993223	-0.688472221	-2.1880377703	 0.097415
H	 0.4038541581	 0.1574458463	 0.775396073	 0.133752
H	-0.6028548768	 1.5879878516	-1.4211016732	 0.283733
H	-1.9028679348	-0.8233636087	-1.9288374794	 0.295492
H	-2.4725210393	-2.3043816305	 0.0592150234	 0.096303
H	-3.023906818	 1.213533817	 0.4406418354	 0.10651
