16
gdb 34727	3.66694	1.45886	1.43651	3.1898	70.5	-0.2552	0.0289	0.284	937.32	0.127634	-400.760168	-400.75381	-400.752866	-400.790934	25.853	
N	-0.0577957108	-1.1789278082	-0.1401985695	-0.335804
C	-0.0466475061	-0.0257241097	-0.0559960586	 0.275377
C	-0.0216831735	 1.4263647282	 0.04053539	-0.161883
C	-0.4473811715	 2.0006940875	 1.3956596747	-0.111851
C	 0.8127370619	 2.0973132108	 2.259202932	-0.103138
C	 1.9716633074	 1.56551181	 1.4245871209	-0.243164
C	 1.4134447456	 2.0549906296	 0.073260226	 0.040129
O	 1.112557329	 3.4309127774	 0.3132066663	-0.248281
C	 0.3247334117	 3.2967957993	 1.483468477	 0.069413
H	-0.6013889461	 1.8556225807	-0.782269129	 0.131002
H	-1.4395806735	 1.8635334945	 1.8007442765	 0.11153
H	 0.7763279587	 2.0398036276	 3.3377998389	 0.102194
H	 2.922973174	 2.0479863332	 1.6622065628	 0.117208
H	 2.0867787082	 0.4803610243	 1.4678877539	 0.136001
H	 2.023149937	 1.9478010678	-0.819816712	 0.104629
H	-0.044069402	 4.226098047	 1.8917792401	 0.116639
