20
gdb 23432	2.59101	1.1462	0.95175	1.1735	83.61	-0.2282	0.0153	0.2435	1324.0754	0.17	-403.081405	-403.072312	-403.071367	-403.115582	34.419	
C	 0.0498782689	 1.3493140479	 0.3887454949	-0.373016
C	 0.0066887886	-0.0618388289	-0.208894193	-0.21282
C	-1.3671268388	-0.6922409773	-0.0845308189	 0.010646
C	-1.6819347294	-2.1554756077	-0.1125058242	-0.095253
C	-0.5988928952	-2.9954911155	 0.594119178	-0.335759
C	-0.8647297261	-2.1591218485	 1.8413585676	 0.444733
N	-0.5082503576	-2.2073449353	 3.0568273308	-0.268994
O	 0.466769708	-3.2102847413	 3.2496451581	-0.397236
C	-1.9121916837	-1.3311492485	 1.1852448551	-0.168742
H	 1.0416205908	 1.7974154543	 0.2752346342	 0.11193
H	-0.6729963095	 2.0104946151	-0.1022983992	 0.110956
H	-0.1911528461	 1.3265565704	 1.4562654284	 0.12883
H	 0.2849904266	-0.0244066276	-1.2702164838	 0.096702
H	 0.7581398247	-0.685761219	 0.2848301955	 0.110737
H	-2.1452688002	-0.1056966688	-0.5731848372	 0.089351
H	-2.4400004649	-2.5685319802	-0.7659090149	 0.094759
H	-0.899783885	-4.0340798747	 0.7597426307	 0.129907
H	 0.4101799289	-2.9881191111	 0.1733257662	 0.119269
H	 0.6268383015	-3.1529802209	 4.1973458616	 0.304654
H	-2.8319057615	-0.9965597623	 1.6480110201	 0.099344
