19
gdb 8914	3.56726	1.23731	0.982	4.0153	72.52	-0.2481	0.0367	0.2848	1205.1281	0.165372	-361.246633	-361.236838	-361.235894	-361.281193	34.988	
C	-0.0444411889	 1.5701735345	 0.0895823458	-0.395344
C	-0.0214507429	 0.042253431	-0.0001156712	-0.171107
C	 0.7323061566	-0.4809298746	-1.2353658405	 0.037529
N	 2.1563137529	-0.1469757959	-1.2857195663	-0.50328
C	 0.6046088695	-2.0224665976	-1.354317419	-0.130493
N	-0.7980363089	-2.4467255347	-1.3641168125	-0.500219
C	 1.3463948986	-2.5168360296	-2.5351153432	 0.280304
N	 1.833099745	-2.9648793433	-3.4835043915	-0.333722
H	 0.9655075692	 1.9893762381	 0.1483569771	 0.1066
H	-0.5377696879	 2.0109018309	-0.7844282758	 0.116519
H	-0.5894447813	 1.9015252801	 0.9781912664	 0.120106
H	 0.455646664	-0.3758856067	 0.8985014542	 0.0858
H	-1.0418941096	-0.3504596276	-0.0144538649	 0.123086
H	 0.2748256664	-0.0501661517	-2.1370987928	 0.089386
H	 2.2884998174	 0.8336278312	-1.5044055859	 0.238845
H	 2.5896268918	-0.3054837775	-0.3795196492	 0.226032
H	 1.0754227332	-2.4625801723	-0.4653824305	 0.12229
H	-1.2332503438	-2.159021316	-2.2370273324	 0.241436
H	-0.8518702815	-3.4605395785	-1.3439420277	 0.246233
