21
gdb 41540	3.92738	1.52913	1.43538	0.179	85.15	-0.2727	0.0948	0.3675	998.1675	0.186623	-349.907661	-349.901214	-349.90027	-349.938212	28.014	
C	-0.024244484	 1.4975587222	 0.3804857078	-0.23348
C	 1.4494332239	 1.6390459518	-0.108696328	-0.23348
C	 1.4551928997	 0.1388974045	-0.5332861022	-0.033757
C	-0.0232593032	-0.003048334	-0.0425201599	-0.033757
C	-0.7005017011	-0.3611284511	-1.3594537848	-0.004941
C	-0.0640470228	 0.4744796457	-2.5201367682	-0.059018
C	-0.2667696536	-0.7227401228	-3.477130761	-0.243704
C	 0.2323610735	-1.3430006008	-2.1528725576	-0.064856
C	 1.2683381025	-0.1721016155	-2.0130017795	-0.004941
H	-0.1484825545	 1.6572441037	 1.4541420037	 0.09532
H	-0.7567933036	 2.1205777174	-0.1405005426	 0.094278
H	 1.6098457287	 2.3477971802	-0.9260988491	 0.094278
H	 2.156534248	 1.8785500029	 0.6889994506	 0.09532
H	 2.2165884008	-0.4832232931	-0.0565103038	 0.059553
H	-0.2327396875	-0.7183823623	 0.7565341015	 0.059553
H	-1.7795184363	-0.5323756662	-1.3750818754	 0.056808
H	-0.2364835473	 1.5313062544	-2.7339386445	 0.065534
H	-1.2960566226	-0.9492363198	-3.7708124895	 0.085978
H	 0.4076112901	-0.7856668716	-4.3363349474	 0.085978
H	 0.4078435252	-2.3977296828	-1.9292813305	 0.062523
H	 2.137266704	-0.1563259726	-2.6752412898	 0.056808
