15
gdb 34433	3.06682	1.79764	1.30207	1.5474	71.25	-0.2445	0.0249	0.2694	941.9414	0.111854	-420.513735	-420.506864	-420.50592	-420.54483	27.651	
C	-0.0425156995	-1.1788550143	 0.0691800024	-0.386943
C	-0.0291318708	 0.0218995201	 0.0577925157	 0.246991
C	-0.0069541251	 1.4580420119	 0.036665314	 0.329955
O	-0.8652966045	 2.0555230042	 0.9805027566	-0.33037
C	-0.6638549344	 3.4703168136	 0.7624897617	-0.125836
C	 0.3569462422	 3.4614665347	-0.3584135815	-0.115884
C	 1.3328042489	 2.2747659221	-0.0961876274	-0.021623
O	 1.4134066511	 1.9672170176	-1.5218132503	-0.307984
C	 0.0022021818	 2.2774885853	-1.3079773427	-0.021639
H	-0.0527766363	-2.2408969654	 0.0783732194	 0.192765
H	-1.6149498045	 3.9385247253	 0.4842242685	 0.116657
H	-0.2970611017	 3.9358274345	 1.6844407924	 0.116657
H	 0.7393190534	 4.3899790142	-0.776190227	 0.098369
H	 2.2420295226	 2.2248426204	 0.501606435	 0.104443
H	-0.677888793	 2.2308182356	-2.1575885367	 0.104443
