19
gdb 51902	4.73233	0.69153	0.63029	1.8824	84.4	-0.2478	-0.0195	0.2283	1757.5131	0.159837	-419.226566	-419.217642	-419.216697	-419.261234	32.339	
O	-0.8431044496	 1.0778379792	 1.0009268686	-0.298758
C	-0.1749950959	 1.8757266842	 0.3863997312	 0.159268
N	 1.1092925632	 1.6555812088	-0.0499938396	-0.305335
C	 1.815347606	 0.4750061758	 0.1630840536	 0.109984
N	 2.9929320457	 0.3500069474	-0.2808021532	-0.269242
C	 3.7093088313	-0.8775320076	-0.0426666517	 0.085715
C	 3.0373406129	-2.2106529184	 0.4109699028	-0.241947
C	 4.0404715758	-2.9547723925	-0.5114723212	-0.220268
C	 4.2641089653	-1.6273070164	-1.2839614989	-0.215957
H	-0.5322508577	 2.8846494625	 0.1060606343	 0.089791
H	 1.5941033997	 2.3808224101	-0.5598680037	 0.263555
H	 1.2439432291	-0.2636205502	 0.7275573612	 0.140785
H	 4.5455140157	-0.6438666691	 0.6288287339	 0.089048
H	 3.0303836663	-2.4514967983	 1.4764983388	 0.099281
H	 2.016953083	-2.2946961022	 0.023452554	 0.105748
H	 4.9372858012	-3.264295503	 0.0323595947	 0.104764
H	 3.6640140569	-3.8095454266	-1.0763227627	 0.101371
H	 3.5710265499	-1.5308503147	-2.1248084985	 0.103994
H	 5.2721375912	-1.379471669	-1.6233292336	 0.098202
