20
gdb 113960	3.21476	0.89932	0.82581	2.69	75.92	-0.2262	0.0616	0.2878	1456.232	0.16949	-440.212126	-440.202574	-440.20163	-440.247585	34.253	
O	 0.2341680464	 1.3760158648	-0.0497372435	-0.404141
C	-0.1120070696	 0.0845642282	 0.4296033485	-0.115642
C	-1.5566953356	-0.2466964851	 0.1109651048	 0.008015
C	-2.5082612642	 0.7929125664	-0.3714413463	-0.248967
N	-2.1016723677	-0.3076580814	-1.242849678	-0.098268
C	-1.2460756809	-0.0106247198	-2.3888905735	-0.192693
C	-2.1108236654	 0.2368997651	-3.6034857902	 0.106154
C	-2.4011462479	 1.5927675586	-4.0857500707	-0.170759
O	-1.4424157363	 0.7656533073	-4.7491478256	-0.242016
H	 1.188699791	 1.4744714889	 0.0145825946	 0.291971
H	 0.5440320027	-0.6861990883	-0.0062008381	 0.098732
H	 0.0086427769	 0.0279757831	 1.5233710772	 0.098103
H	-1.9376068754	-1.0387290801	 0.755457858	 0.091392
H	-3.5458129559	 0.7867525674	-0.0473866415	 0.108869
H	-2.0868613238	 1.7760794537	-0.5642991165	 0.130244
H	-0.5744928947	 0.8438994549	-2.233427099	 0.114611
H	-0.6212694878	-0.8934298163	-2.5782064793	 0.103286
H	-2.8337305171	-0.5501323	-3.8201480571	 0.096175
H	-3.3159356472	 1.7880101372	-4.6436769099	 0.112864
H	-1.9882260776	 2.4501900456	-3.555109414	 0.11207
