17
gdb 103741	3.28383	1.07627	0.95609	2.9931	67.17	-0.2505	-0.0306	0.2199	1237.3797	0.132315	-496.082444	-496.072836	-496.071892	-496.116711	35.343	
O	 0.0447737027	 1.3172059019	-0.1249544861	-0.436097
C	 0.0272154238	-0.0883083189	 0.1275642993	-0.141057
C	-1.4209413483	-0.4986207421	 0.0135687015	 0.348249
O	-2.2625796796	 0.2250556937	 0.8638237748	-0.478962
C	-1.9718268158	-0.9620699466	-1.3081626363	-0.40139
C	-1.743470157	-1.9632168235	-0.1673770375	 0.283949
O	-0.6956843781	-2.8664253643	-0.2765518523	-0.476948
C	-2.935883068	-2.5256648951	 0.5074589336	 0.109328
O	-2.9387577097	-3.6760451474	 0.8911018556	-0.298443
H	 0.8658024281	 1.6784869499	 0.2200905012	 0.296578
H	 0.6476189537	-0.6413792943	-0.5865928835	 0.115439
H	 0.3842844856	-0.3112055846	 1.1422734994	 0.107511
H	-2.0215616258	 1.1515698196	 0.7268798126	 0.293155
H	-2.9956240271	-0.69619785	-1.5476026755	 0.127557
H	-1.2935167765	-1.0637262975	-2.1477161553	 0.137814
H	-1.0364046653	-3.6792791096	 0.1337454265	 0.296962
H	-3.8019897826	-1.8544462509	 0.6338112721	 0.116356
