21
gdb 66243	2.78159	1.35687	1.20667	1.1766	77.38	-0.2524	0.0874	0.3398	1143.2047	0.182509	-424.216498	-424.207663	-424.206719	-424.250249	33.567	
C	 0.0661107819	 1.5963797065	-0.1162617611	-0.420158
C	-0.0255457382	 0.0710051872	-0.0197905323	 0.346385
C	 0.7857908162	-0.6249631597	-1.1389488214	-0.146058
O	 2.0771011009	-0.7777562337	-0.5666549251	-0.239342
C	 1.8182124096	-1.0896832152	 0.7756852569	 0.017599
O	 0.6793776764	-0.3466443619	 1.1684538815	-0.301748
C	-1.4701456549	-0.3957866541	 0.0370979932	-0.017343
C	-1.8509071374	-1.6935723408	 0.6988211422	-0.280043
C	-2.235500202	-0.3784867524	 1.3336298219	-0.269676
H	 1.1094340044	 1.9047500142	-0.2285842009	 0.123273
H	-0.5040568172	 1.9686976739	-0.9741948141	 0.107928
H	-0.3378753582	 2.0547705337	 0.7900246076	 0.126146
H	 0.3477913001	-1.6030605845	-1.3882998553	 0.096754
H	 0.8814428606	-0.026776468	-2.0470978311	 0.115723
H	 1.6201856155	-2.1703625778	 0.8974405023	 0.082397
H	 2.6820873864	-0.7970022983	 1.3813784737	 0.116067
H	-2.0331939524	-0.1272658957	-0.8537336977	 0.081417
H	-2.6260692469	-2.2967466263	 0.2393813457	 0.107169
H	-1.0640912107	-2.2582017342	 1.1850918009	 0.118862
H	-1.6911823857	-0.0890892207	 2.2249829518	 0.127317
H	-3.2764018682	-0.0754460921	 1.3148602913	 0.107331
