21
gdb 104691	2.49984	1.41519	1.13018	2.1043	78.14	-0.2483	0.0737	0.322	1176.3428	0.181828	-424.177779	-424.168469	-424.167525	-424.211772	34.949	
C	-1.5288967464	-0.728823446	-0.4350194084	-0.25733
O	-0.2026059177	-0.2925123867	-0.1785877898	-0.299702
C	 0.7562498793	-0.7568312843	-1.1022891336	 0.401829
C	 0.680815251	-0.0200432979	-2.4251392019	-0.115284
O	 0.7914857573	 1.3788327648	-2.2372588222	-0.426866
C	 2.1244935397	-1.0579531104	-0.5906913772	-0.117123
C	 2.0730461233	-1.660770477	 0.8169396101	-0.234486
C	 1.1542970872	-2.80472948	 0.2847128783	-0.237953
C	 1.2021306604	-2.1887709188	-1.1220860472	-0.144312
H	-1.9572911811	-0.2561757827	-1.3292515083	 0.115187
H	-1.5747005807	-1.8179793204	-0.5613701975	 0.118216
H	-2.1289434433	-0.44183407	 0.4318244857	 0.128682
H	 1.5042129261	-0.3330433598	-3.0753014639	 0.105782
H	-0.257057246	-0.2749651647	-2.946061387	 0.083581
H	 0.2914306112	 1.5765589107	-1.4359111976	 0.287271
H	 2.9951226468	-0.6052348898	-1.0513837458	 0.093789
H	 3.0442435125	-2.0316540493	 1.1502941464	 0.102
H	 1.6513768706	-1.0140306914	 1.5894720285	 0.110073
H	 1.6464677148	-3.7786581206	 0.3218903442	 0.104963
H	 0.1656503189	-2.896925464	 0.7427130687	 0.099126
H	 1.2659542759	-2.7518709517	-2.0473191214	 0.082558
