20
gdb 73953	2.52945	1.37624	0.93077	4.669	88.43	-0.2488	-0.0288	0.22	1271.1689	0.172512	-366.068398	-366.0596	-366.058656	-366.101766	33.232	
C	 0.0050683749	 1.5536913654	 0.1285945571	-0.502038
C	 0.0009212803	 0.0573653979	 0.0013729905	 0.236237
C	 0.0005677598	-0.5847536734	-1.184182055	 0.079564
C	 0.0241757718	-2.0970791372	-1.3340592791	-0.287318
C	 0.4176197692	-2.8023141211	-0.0318973228	-0.210237
C	-0.3337939121	-2.1953445485	 1.1554018095	-0.2094
C	 0.0075631738	-0.7082063009	 1.3036129708	-0.274829
C	-0.0294672726	 0.1484464731	-2.4117241171	 0.21409
N	-0.0545301005	 0.699503096	-3.4314560866	-0.356308
H	 0.8480287894	 1.8802943315	 0.7505134428	 0.13232
H	 0.0715016618	 2.0565198883	-0.8374981559	 0.155571
H	-0.9055213626	 1.8965191768	 0.6357885276	 0.13464
H	-0.9663560282	-2.4377803	-1.6661529927	 0.122946
H	 0.7148009314	-2.3661317379	-2.1407570929	 0.123657
H	 0.2141530066	-3.8745440429	-0.1162299467	 0.101548
H	 1.4981325868	-2.6964865828	 0.1291413915	 0.104248
H	-1.4138955762	-2.3072408681	 0.9962543948	 0.104922
H	-0.0955702133	-2.7266353221	 2.0824045963	 0.099867
H	 1.0012216447	-0.5910518805	 1.762749646	 0.118993
H	-0.6870560549	-0.2223554537	 2.0009456719	 0.111526
