21
gdb 81482	3.11992	1.47609	1.39696	1.6491	80.66	-0.2426	0.0837	0.3262	1052.3172	0.184981	-387.055684	-387.04837	-387.047425	-387.086975	30.54	
C	 0.0169889343	 1.6415301082	-0.0525814728	-0.424149
C	-0.0159703125	 0.119749785	-0.0815299424	 0.016102
C	 1.2274492509	-0.5531635864	-0.7192900576	 0.052718
O	 1.9470084921	-0.3081638387	 0.5387601772	-0.305798
C	 0.6340679024	-0.5757415278	 1.1429648618	 0.052717
C	 0.5107474765	-2.0923263404	 0.8820848018	-0.006868
C	-0.8506958219	-2.7037275363	 0.4373770376	-0.247764
C	-0.376883054	-2.685696158	-1.0496445489	-0.247764
C	 0.9865827333	-2.0742197586	-0.6112824415	-0.006869
H	 0.9989223555	 2.0003237119	 0.2646775516	 0.136614
H	-0.1992547328	 2.0552612334	-1.0436321101	 0.110928
H	-0.7356201124	 2.0348591545	 0.6395066942	 0.110927
H	-0.9990082286	-0.2367069867	-0.3990830273	 0.068408
H	 1.728757882	-0.1510319757	-1.6011680228	 0.0719
H	 0.530027714	-0.1966430294	 2.160898425	 0.0719
H	 1.0891293269	-2.6726504461	 1.6018432494	 0.073886
H	-1.0208829739	-3.7098557796	 0.8271011802	 0.100805
H	-1.7352236531	-2.1026690587	 0.6659872687	 0.098807
H	-0.2832096904	-3.6817849755	-1.4880216625	 0.100805
H	-0.9703553948	-2.0735633339	-1.7344844363	 0.098807
H	 1.8787749865	-2.6426049013	-0.8763961552	 0.073885
