17
gdb 43931	3.43174	1.60545	1.36967	3.6902	72.57	-0.2444	-0.0171	0.2272	954.0388	0.136955	-421.789817	-421.783127	-421.782183	-421.820728	27.602	
O	 0.0116272066	-0.0252819531	 0.2801369949	-0.283089
C	-0.0363275216	 1.1433469069	 0.0558368337	 0.371812
C	-1.2165510736	 2.1540045887	-0.2087338659	-0.454176
C	-0.1491361764	 2.9919105189	-0.908049359	 0.400508
C	 0.4308997942	 4.3439121617	-1.3397914248	-0.33235
C	 1.2874435409	 3.3257704434	-2.1708349457	 0.073525
C	 2.1383135552	 2.4863512198	-1.1676847021	-0.266841
C	 0.9994738769	 2.2840312067	-0.1416836126	-0.116983
O	 0.0978169035	 2.4882066551	-2.2578010168	-0.312767
H	-2.0652446756	 1.8128582232	-0.8029331885	 0.14066
H	-1.5640972187	 2.5819546147	 0.7363062442	 0.134944
H	-0.2196021537	 4.9219858198	-1.9967960594	 0.119989
H	 0.9104619604	 4.9718313231	-0.5847956096	 0.101306
H	 1.7194288625	 3.5866009221	-3.1369744454	 0.089429
H	 2.4882846041	 1.5695213659	-1.6461538599	 0.129935
H	 2.9980270557	 3.0180503595	-0.7513479388	 0.104171
H	 1.2084074096	 2.7220999236	 0.8410482859	 0.099926
