23
gdb 59560	3.1582	1.18602	1.03533	1.3922	84.97	-0.258	0.0771	0.3352	1266.9979	0.207438	-388.284226	-388.275607	-388.274662	-388.317268	34.594	
C	-0.0394643532	 1.5688726177	 0.0848272395	-0.404059
C	 0.0095900739	 0.0398947188	 0.0602815778	 0.107732
O	 0.7164765391	-0.4618511773	 1.1960646498	-0.433215
C	-1.3820135308	-0.5920051846	-0.0467273883	 0.035812
C	-2.1370453353	-0.335964984	-1.3987658988	-0.242277
C	-2.440035979	-1.7948034698	-1.7978757434	-0.009244
C	-2.8898659628	-2.4176151549	-0.4446833109	-0.23101
C	-1.4078372305	-2.1386255218	-0.0557713796	-0.018384
C	-1.0727270928	-2.4865999464	-1.5363052468	-0.222544
H	 0.9701411288	 1.977619466	 0.1795244278	 0.121766
H	-0.4955394327	 1.9735480984	-0.8238395326	 0.119442
H	-0.632374814	 1.9213489999	 0.93878512	 0.102715
H	 0.6176517413	-0.2814148804	-0.7940937166	 0.085532
H	 0.2405155165	-0.1736796857	 1.9832429416	 0.272816
H	-1.9771314919	-0.218869915	 0.7994690188	 0.049702
H	-3.0413528487	 0.2658111129	-1.2710317215	 0.093323
H	-1.5050458035	 0.1655428853	-2.1398713878	 0.094364
H	-2.9987405737	-1.9512135376	-2.7215615248	 0.055312
H	-3.6772638442	-1.9101340252	 0.1226198206	 0.081538
H	-3.1117011699	-3.4844929321	-0.5244000853	 0.093273
H	-0.9191287395	-2.6379180112	 0.7790186417	 0.064988
H	-1.1033758299	-3.5624284085	-1.7239377581	 0.09428
H	-0.1764361972	-2.0571370044	-1.9928996129	 0.08814
