18
gdb 92305	2.25468	1.94861	1.28053	2.5403	71.4	-0.2419	0.0238	0.2657	1012.9144	0.149346	-439.119343	-439.111444	-439.1105	-439.151979	30.015	
C	-0.77635942	 1.3259765253	 0.1263808796	-0.402392
C	-0.0047438615	 0.0334389649	-0.0183919674	 0.15109
O	 1.1552900691	 0.1508724901	-0.8888285418	-0.310998
C	 1.9990989105	-0.5293596114	 0.0606299039	 0.126769
C	 3.1554261402	 0.3482654596	 0.5629369817	-0.189062
N	 2.5688310755	 1.0406403535	 1.6966761799	-0.309997
C	 1.3471976622	 0.5892037718	 2.1220418394	 0.419277
O	 0.7375554259	 0.9896345758	 3.0902241096	-0.392718
C	 0.8974640129	-0.4858635157	 1.13398452	-0.234761
H	-0.1299255823	 2.1359411784	 0.4728593156	 0.133119
H	-1.2051678484	 1.6120517103	-0.8390915963	 0.123211
H	-1.5912950842	 1.2020695781	 0.8461243182	 0.134113
H	-0.6651917808	-0.7636495924	-0.3869900922	 0.080301
H	 2.3343966662	-1.5013881065	-0.314027612	 0.082898
H	 4.0208178857	-0.2593945823	 0.86050974	 0.106989
H	 3.4696982407	 1.038649439	-0.2273921083	 0.127594
H	 3.052758816	 1.7498175156	 2.2242194462	 0.252903
H	 0.5771417723	-1.391278614	 1.6471357738	 0.101663
