18
gdb 12386	2.95891	2.13557	1.32854	3.7685	68.93	-0.2276	0.0313	0.2589	933.5304	0.156651	-381.160218	-381.152569	-381.151625	-381.192144	29.078	
C	-0.0610918245	 1.5378503149	-0.0210539496	-0.398135
C	 0.0547301165	 0.0159532282	-0.0001753252	-0.064299
N	 0.7381069842	-0.4710596909	-1.2000050706	-0.307722
C	 0.9364813284	-1.9124733729	-1.1642402747	-0.162088
C	 1.9601064029	-2.2124416818	-0.0757366666	-0.13059
N	 1.5538138797	-1.5653558983	 1.1630599014	-0.324665
C	 0.7691806617	-0.4536519454	 1.2769680467	 0.434577
O	 0.5907064027	 0.1000917901	 2.3472224709	-0.384483
H	 0.92651931	 1.9919379083	-0.1399782039	 0.126357
H	-0.6928277315	 1.8626713768	-0.8545342643	 0.100689
H	-0.4989593666	 1.8869051194	 0.9146995471	 0.14601
H	-0.9649439003	-0.4115432152	 0.0883973038	 0.083048
H	 0.2070711671	-0.2021313403	-2.0211791521	 0.221296
H	 0.006248359	-2.4740539311	-0.9555848968	 0.087377
H	 1.323240862	-2.2527939518	-2.1291742317	 0.106337
H	 2.0321913451	-3.2931124455	 0.0907285232	 0.107189
H	 2.9467831616	-1.8519955679	-0.3982359697	 0.114271
H	 2.0276788222	-1.8158575867	 2.0192753223	 0.244832
