17
gdb 40541	4.66104	1.05049	0.97223	3.1413	74.85	-0.2396	-0.0117	0.2279	1215.3498	0.13621	-421.787318	-421.779884	-421.778939	-421.819776	28.511	
C	 0.2661840228	 1.4111818521	-0.0436305192	-0.187446
O	 1.1837238924	 0.3398928925	-0.2241543234	-0.230254
C	-0.1962133831	 0.0098733588	 0.0145003184	-0.018959
C	-0.5110889354	-0.6770167383	 1.2804881923	 0.337668
C	-1.4440968519	-1.6263057244	 1.4413020934	-0.22317
C	-1.4073648702	-2.1665055621	 2.8305062868	 0.010926
O	-0.1428342549	-2.7948125993	 3.1561940805	-0.255754
C	-0.3419375255	-1.4341185912	 3.53729067	 0.03471
C	 0.2501505944	-0.4142790555	 2.57167462	-0.346926
H	 0.384347082	 1.9824528792	 0.8755314293	 0.116123
H	 0.048111966	 2.0018830041	-0.9327169915	 0.119715
H	-0.7152012491	-0.376307328	-0.8628100047	 0.094221
H	-2.1050595242	-1.9971014602	 0.6671608325	 0.100697
H	-2.2756739206	-2.60348836	 3.3134630829	 0.097669
H	-0.3520230267	-1.2438493296	 4.6071127913	 0.096449
H	 1.3284242883	-0.5463774506	 2.435563815	 0.144865
H	 0.093124366	 0.6080270826	 2.9388907166	 0.109466
