21
gdb 53089	4.45684	0.7755	0.6816	0.1332	99.36	-0.2102	-0.0013	0.2089	1713.2237	0.183301	-349.965269	-349.955799	-349.954855	-350.000829	34.592	
C	-0.0944690131	 1.4952785991	 0.0101747888	-0.504741
C	-0.0068752942	 0.0431667078	-0.0097624828	 0.187859
C	 0.0846258773	-1.1609946674	-0.0273365248	-0.102144
C	 0.1157253324	-2.5847391134	-0.0406042259	 0.149556
C	 1.270504035	-3.2639946418	-0.1485849711	-0.135243
C	 1.3730166903	-4.7644024771	-0.132757108	-0.241021
C	 0.0798085742	-5.4372047544	 0.348003703	-0.197659
C	-1.1424583214	-4.7762349077	-0.2979534501	-0.204437
C	-1.2255611634	-3.2918675885	 0.0799283125	-0.289347
H	 0.3908467841	 1.91338951	 0.899781897	 0.147341
H	 0.3920708868	 1.9366900964	-0.8673250925	 0.147618
H	-1.1371967166	 1.8318886681	 0.013838004	 0.146574
H	 2.1965170924	-2.704921865	-0.2527952689	 0.083471
H	 1.6294737805	-5.1203021667	-1.142970536	 0.108688
H	 2.2183458039	-5.065619566	 0.4995521797	 0.103413
H	 0.1062847478	-6.5091933688	 0.1258475375	 0.090426
H	 0.0058024298	-5.3416540586	 1.439067778	 0.099229
H	-1.0676309651	-4.8692605498	-1.3893637321	 0.098931
H	-2.0639502277	-5.2883503393	-0.000961534	 0.091107
H	-1.5928934227	-3.1808947646	 1.1099306904	 0.11139
H	-1.9578209504	-2.7755305424	-0.5507990548	 0.108988
