17
gdb 112455	2.3994	1.36094	0.98248	4.3041	64.62	-0.2675	0.0083	0.2758	1190.3123	0.13553	-496.136757	-496.128067	-496.127123	-496.170462	31.968	
O	-0.0969526264	 1.4559094306	 0.072670887	-0.424208
C	 0.0317196499	 0.0480870327	 0.045146558	-0.073223
C	-1.3316647881	-0.6272659669	 0.0782291492	 0.101281
O	-2.0457512946	-0.237474803	-1.1194964996	-0.248794
C	-2.8136481482	-1.2571800789	-1.5936240005	 0.44216
O	-3.4875468562	-1.1559071121	-2.5747734419	-0.332723
C	-2.6568295396	-2.4540237424	-0.659872798	-0.391673
C	-1.3454669109	-2.1663462696	 0.0763237092	 0.07352
O	-0.215197458	-2.613060266	-0.6549191508	-0.429628
H	-0.5954400418	 1.7067879974	-0.7131599569	 0.295781
H	 0.5849136515	-0.3028866403	-0.8337971666	 0.120808
H	 0.5982055635	-0.2373772715	 0.9373241935	 0.114841
H	-1.8992020673	-0.2499717018	 0.937872838	 0.098842
H	-3.5100402522	-2.4648410756	 0.0285055557	 0.141345
H	-2.6624666702	-3.3913654596	-1.2188351933	 0.134183
H	-1.3316276754	-2.5567828258	 1.1019341246	 0.084493
H	-0.2566177262	-3.5718690171	-0.7244584076	 0.292994
