17
gdb 48597	2.2228	1.86507	1.33642	2.0247	73.95	-0.2456	-0.0466	0.199	996.5999	0.135898	-417.900651	-417.892765	-417.89182	-417.933768	29.581	
O	-0.7926070025	 1.2509209151	-0.183638572	-0.254732
C	 0.3450779923	 0.8542937676	-0.0904209014	 0.016295
C	 1.5047249684	 1.7884815501	-0.0410161866	 0.142839
C	 1.9469643616	 2.7651576194	 1.1047642908	-0.270926
C	 2.9744403751	 2.9037095925	-0.0572585202	-0.119445
N	 2.9543931994	 1.387756777	-0.2680055294	-0.362685
C	 1.7756582838	 2.955833435	-1.013617244	 0.469403
C	 1.5312336215	 3.145112148	-2.440993297	-0.346084
N	 0.9449029305	 4.0568458965	-1.4056675248	-0.401992
H	 0.5861143638	-0.2309399183	-0.0594040789	 0.093626
H	 1.2978662238	 3.6160546009	 1.32526353	 0.124948
H	 2.3171195377	 2.2767346115	 2.0108998337	 0.099547
H	 3.9036718631	 3.4714295263	-0.0840284461	 0.097871
H	 3.306941807	 0.9501514135	 0.5900736026	 0.208993
H	 2.280531866	 3.6083708299	-3.0758186578	 0.128462
H	 0.867969985	 2.4491642121	-2.9475586346	 0.125257
H	-0.0357762866	 3.8267768231	-1.2549928344	 0.248624
