17
gdb 27756	2.13774	1.92233	1.03188	2.3799	77.15	-0.1891	0.063	0.2521	1133.079	0.137412	-418.020362	-418.012155	-418.011211	-418.053568	30.248	
C	-0.0940878996	 1.5014637409	 0.0650789153	-0.489462
C	 0.0319281264	 0.0167758024	-0.0081413336	 0.10031
C	 0.1379229743	-0.8250156547	-1.0799959377	 0.260899
C	 0.2274611412	-1.3079012845	-2.5240437884	-0.385805
C	 0.3277601403	-2.7556401583	-1.9044441	-0.168106
N	 0.2277858667	-2.1069542794	-0.5793133776	-0.065446
C	 0.1760768464	-2.0218537361	 0.7664320357	 0.399628
O	 0.2399524474	-3.1056268146	 1.5603448499	-0.428502
N	 0.058862256	-0.7704871382	 1.1484177024	-0.423954
H	 0.7345704505	 1.9446631788	 0.6289245507	 0.128896
H	-0.0973915437	 1.9413343066	-0.9360877608	 0.1123
H	-1.0199692438	 1.7986117306	 0.5705087943	 0.128907
H	-0.6580070079	-1.1453943497	-3.1437188092	 0.125983
H	 1.1135359682	-0.9970045749	-3.0832380703	 0.125992
H	-0.5068242582	-3.4243039	-2.1270895363	 0.133594
H	 1.2751770968	-3.2747703138	-2.0660074006	 0.133626
H	 0.1817851188	-2.7741171752	 2.4652486461	 0.31114
