23
gdb 84594	2.21528	1.94132	1.30896	0.2079	89.76	-0.2299	0.0228	0.2527	1085.9304	0.207412	-351.163091	-351.154788	-351.153843	-351.195052	34.584	
C	-0.0532871254	 1.5782830034	-0.0273996032	-0.409482
C	 0.0355708333	 0.0419078938	 0.0218860293	-0.04355
C	 0.6990399524	-0.5002311966	-1.2292466261	-0.06818
C	 1.748660722	-1.3148067023	-1.1299482207	-0.074792
C	 2.2247215435	-1.6850616996	 0.2563593655	-0.066564
C	 2.3099389847	-0.3806578907	 1.1051330758	-0.251233
C	 0.7618430554	-0.5069936495	 1.2840227629	 0.327678
C	 0.1465448085	-0.026933971	 2.5887510439	-0.486233
C	 0.9730169723	-2.0458134094	 1.1099503557	-0.254568
H	 0.9394218911	 2.0366503388	 0.0318005224	 0.11831
H	-0.5096084132	 1.9037635623	-0.9681306463	 0.110941
H	-0.6627493726	 1.9766351029	 0.7885563009	 0.114202
H	-0.9988462453	-0.3377572664	 0.0545720391	 0.074351
H	 0.2972331884	-0.1893927881	-2.1904223214	 0.081204
H	 2.2538855479	-1.7164969401	-2.0030518652	 0.08327
H	 3.0757574983	-2.3673964866	 0.2547221836	 0.055112
H	 2.822996405	-0.5459005826	 2.0576595306	 0.088226
H	 2.7147924106	 0.5109064578	 0.6196075232	 0.091718
H	 0.2558176217	 1.0544537863	 2.7205531615	 0.116638
H	-0.9246657316	-0.2602951188	 2.633435626	 0.109481
H	 0.6292451812	-0.512846697	 3.4433270924	 0.107102
H	 0.184302252	-2.6281088572	 0.6254194817	 0.089791
H	 1.2437049799	-2.5103267394	 2.0633781683	 0.086578
