9
gdb 3635	10.2986	2.00602	1.67898	3.7751	55.07	-0.2707	-0.0699	0.2007	657.2493	0.05461	-338.17596	-338.170482	-338.169538	-338.205178	19.651	
C	 0.0751305683	-1.1935588609	-0.0050480716	-0.402032
C	 0.0121503274	 0.0075008331	 0.0022397971	 0.27301
C	-0.0738497435	 1.409774907	 0.0111078644	 0.305192
C	-1.1338469363	 2.2719228449	 0.0305774055	-0.226609
N	-0.6160011977	 3.5399511857	 0.0303057316	-0.102998
N	 0.6426370524	 3.5064164552	 0.0131041551	-0.00903
O	 1.0505837758	 2.1435226317	 0.0008791315	-0.20888
H	 0.132398905	-2.2548587622	-0.0114528632	 0.219034
H	-2.1913546113	 2.0752892355	 0.0438787197	 0.152314
