17
gdb 24698	3.61212	1.59975	1.13992	0.9397	81.2	-0.2374	-0.0446	0.1928	1042.5975	0.140424	-380.943446	-380.93684	-380.935895	-380.97444	26.358	
C	 0.1385606213	 1.4154976997	-0.3763668198	-0.216108
C	 1.4273307208	 1.981988254	 0.2795017513	-0.322409
C	 2.1488253868	 0.7375968317	 0.7311088315	 0.327094
N	 3.4203551913	 0.6540451941	 1.101443032	-0.329721
C	 3.8175005358	-0.5727292767	 1.4726130421	-0.033137
C	 2.960448673	-1.6693177109	 1.4749166956	-0.033138
N	 1.6733272735	-1.5812881274	 1.1060842712	-0.329723
C	 1.2843045726	-0.368574669	 0.7333862002	 0.327093
C	-0.098452732	 0.0297441198	 0.283568464	-0.32241
H	-0.7174856079	 2.0847658826	-0.2690124425	 0.105856
H	 0.3113173821	 1.2782462325	-1.448719567	 0.113708
H	 2.0277880353	 2.594161476	-0.3983050498	 0.123094
H	 1.1912602594	 2.6099027386	 1.1489463966	 0.121605
H	 4.8550304152	-0.6826636899	 1.7766305282	 0.111748
H	 3.3184091518	-2.6487652821	 1.7807373141	 0.111748
H	-0.7630291012	 0.1093659537	 1.1541646733	 0.121606
H	-0.5488001878	-0.7025699069	-0.3914364507	 0.123093
