15
gdb 123636	4.03069	1.57025	1.22934	4.2645	70.61	-0.2387	-0.0113	0.2274	962.1949	0.116218	-416.769625	-416.763501	-416.762556	-416.800081	24.77	
C	-0.0544597002	 1.5546932437	-0.0056814677	-0.365934
C	 1.4529380389	 1.8919166953	-0.0323856558	-0.017989
N	 2.1984199512	 1.444906167	 1.1570919133	-0.32031
C	 2.2707763698	 0.6329442078	-0.0900870517	-0.237638
C	 1.2420638017	-0.4256417403	-0.0764394016	 0.461936
C	-0.0273407956	 0.0473642948	 0.0049848582	 0.153376
C	-0.7977199709	-1.1376068432	 0.0782887851	-0.123121
N	-0.042812142	-2.2166746702	 0.0209424164	-0.1456
O	 1.2868503418	-1.7544242793	-0.0689095819	-0.234358
H	-0.5316114943	 1.986955654	 0.8800149478	 0.131855
H	-0.5606711531	 1.9642443914	-0.8874925613	 0.117066
H	 1.781186092	 2.792044137	-0.5409842229	 0.099479
H	 3.0522370991	 1.9951374588	 1.236074786	 0.236789
H	 3.2040053302	 0.544536524	-0.6323755783	 0.112428
H	-1.8677273086	-1.2731567608	 0.1548345644	 0.132022
