17
gdb 52036	2.83253	0.84442	0.68292	2.6878	73.53	-0.2556	-0.0356	0.22	1575.334	0.134175	-455.174953	-455.165197	-455.164253	-455.211576	32.698	
N	-0.0354850023	 1.3835389933	-0.0048599963	-0.45355
C	-0.0053690754	 0.1173512268	-0.0723115861	 0.097155
N	-1.1536550052	-0.673207778	-0.000366571	-0.06319
C	-1.0445622171	-2.1299769624	 0.0155134645	-0.196825
C	-1.0988543867	-2.7138109981	 1.4406864171	-0.273918
C	-1.1319932634	-4.2258322382	 1.4123012103	 0.154337
O	-0.3060524412	-4.939247116	 1.9195544629	-0.23077
C	-2.4202667991	-0.1123600672	 0.0847537018	 0.162236
O	-3.4252789794	-0.7796253224	 0.1858263259	-0.325988
H	 0.9011411653	 1.7689495154	-0.0967781982	 0.239025
H	 0.8968495185	-0.4923142887	-0.1958452073	 0.108671
H	-1.8720725715	-2.5276401605	-0.5771048244	 0.148292
H	-0.1075679369	-2.40689906	-0.4756071484	 0.127804
H	-0.2446250543	-2.3867879868	 2.0393609512	 0.123772
H	-2.02611295	-2.3621260997	 1.9092327823	 0.152292
H	-2.0027926835	-4.6551566264	 0.8644049785	 0.084722
H	-2.3950938676	 0.9843812789	 0.0451320972	 0.145935
