23
gdb 81688	2.44232	1.41087	1.32642	1.625	84.07	-0.2473	0.0589	0.3062	1142.9451	0.208311	-388.293726	-388.28522	-388.284276	-388.326297	34.433	
C	-0.7151172913	 1.2205361642	 0.0233321067	-0.411109
C	 0.1093234533	-0.0696715998	-0.0318497886	 0.033603
C	 0.8874602192	-0.2050384632	-1.3727615968	-0.222038
C	 2.2116876117	-0.9696239889	-1.2233229828	-0.069504
C	 3.1113382252	-0.2332535352	-0.1923454896	-0.22369
C	 2.3249672229	-0.9886812296	 0.9146663766	-0.069507
C	 1.024656389	-0.2280967259	 1.2167242884	-0.222105
C	 2.1209364467	-2.1032408457	-0.1565275014	 0.164301
O	 1.0616744225	-3.0241997073	-0.1086426752	-0.443903
H	-0.0606951612	 2.0994481206	-0.0035012171	 0.115852
H	-1.4031294132	 1.2903031232	-0.8262304489	 0.112502
H	-1.3094597869	 1.2745424638	 0.9419325091	 0.112495
H	-0.6212018122	-0.8908470123	-0.0004965865	 0.066239
H	 0.2440027439	-0.6942795674	-2.113250398	 0.096802
H	 1.110548729	 0.7910237665	-1.7765523912	 0.097116
H	 2.6377995261	-1.2190919925	-2.1984088664	 0.059347
H	 4.1566993689	-0.5463407147	-0.2505172587	 0.095838
H	 3.0620446473	 0.8593649056	-0.1799904224	 0.088016
H	 2.851468531	-1.2550170057	 1.834700234	 0.05935
H	 1.2901208984	 0.7608460685	 1.612291251	 0.097134
H	 0.4625819299	-0.7309638396	 2.0122921679	 0.096779
H	 3.024793681	-2.7174254606	-0.2099040875	 0.086143
H	 0.2306207788	-2.5440862238	-0.0592301025	 0.280341
