20
gdb 112270	2.36642	1.1814	0.86194	3.297	76.11	-0.229	0.0062	0.2352	1400.4792	0.170224	-440.305262	-440.295435	-440.294491	-440.340696	34.817	
C	 0.290268559	 1.5962196929	 0.0586641503	-0.389479
C	 0.1203718912	 0.0740478037	 0.0430329886	-0.189491
C	 0.4445414125	-0.5331019214	-1.3071482167	 0.112985
O	 1.8777194716	-0.4202051896	-1.6354119431	-0.258995
C	 2.0513383573	-1.7831252806	-1.6375424298	 0.421454
O	 3.0717433188	-2.3867039328	-1.7423096873	-0.328917
C	 0.5485919319	-2.078020312	-1.4195488487	-0.168513
N	 0.0978035031	-2.9002046671	-0.3284092887	-0.286579
C	 0.1735635988	-4.3374977163	-0.5981254625	-0.327576
H	 1.3161548952	 1.87333633	-0.199937476	 0.140388
H	-0.379661283	 2.0761487934	-0.663005787	 0.118302
H	 0.0651981715	 2.005238033	 1.0476241705	 0.118144
H	 0.7662557846	-0.3765270209	 0.8066392199	 0.098886
H	-0.9086833456	-0.2063806655	 0.2968435843	 0.119279
H	-0.1392390055	-0.0605488382	-2.1030244693	 0.093794
H	 0.0979551886	-2.4505728257	-2.3454351363	 0.115802
H	 0.6198457542	-2.6869367374	 0.5143479439	 0.228355
H	-0.4995228915	-4.583302574	-1.4269459598	 0.126621
H	 1.1812318102	-4.6919693935	-0.8598601983	 0.13148
H	-0.1704339828	-4.8837620979	 0.2843361259	 0.12406
