16
gdb 17886	2.83386	2.45605	2.26373	1.5795	63.66	-0.2422	-0.0081	0.2341	727.7763	0.132563	-383.721571	-383.715354	-383.71441	-383.751482	25.528	
O	 0.1806527373	 1.4259663878	 0.166569778	-0.430165
C	 0.0290018614	 0.0509765221	 0.0144526819	 0.125175
C	-1.3692542159	-0.6181807414	-0.1167589066	 0.04132
C	-2.3215770062	 0.2226198268	-0.9795891333	-0.271082
C	-1.6067278402	 0.6290781601	-2.2534382698	-0.082778
C	-0.3528531102	 0.2107189014	-2.4509223604	-0.073812
C	 0.2424529836	-0.6539619475	-1.3598409018	 0.001435
O	-0.7477137689	-1.63990513	-0.9449834173	-0.292851
H	-0.160772922	 1.8434797237	-0.6354422149	 0.281651
H	 0.6130894408	-0.43693725	 0.7960961436	 0.105978
H	-1.8502507553	-1.0376319754	 0.770643665	 0.077504
H	-3.2269425016	-0.3504466826	-1.2159285917	 0.122394
H	-2.651736486	 1.1072407935	-0.4181542061	 0.116701
H	-2.1384363444	 1.2334336094	-2.9830546839	 0.101547
H	 0.2244977352	 0.4689838055	-3.3322567427	 0.099338
H	 1.2047746124	-1.1050384435	-1.60790484	 0.077645
