19
gdb 68741	2.51097	1.7158	1.23959	3.5457	81.56	-0.2346	-0.0485	0.1862	1063.2779	0.158624	-385.922807	-385.914151	-385.913206	-385.955592	33.231	
C	-0.0278262638	 1.5587777375	-0.0433609415	-0.486574
C	-0.0261444323	 0.0514059369	 0.0587920809	 0.255049
C	 1.2250971865	-0.7603277534	-0.2379534879	-0.349551
C	 0.6325458319	-0.7379062986	 1.1683032499	 0.164062
C	 1.4087392579	-0.1688594281	 2.3295312186	-0.482135
C	-0.3004469651	-1.9049428429	 1.4564543977	 0.340348
O	-0.1506368087	-2.7255462723	 2.3333165614	-0.340981
C	-1.4243819548	-1.8097852879	 0.4846942175	-0.204668
C	-1.2775141796	-0.7096649463	-0.265619328	-0.118784
H	 0.9435215248	 1.9770855004	 0.233631345	 0.124184
H	-0.2454452987	 1.8799823937	-1.0685061516	 0.12292
H	-0.7839300417	 2.0025265228	 0.6132198881	 0.126676
H	 1.1335521929	-1.6551118681	-0.8444296601	 0.121906
H	 2.1573369773	-0.2163400855	-0.3659658238	 0.116179
H	 2.1125113725	 0.6044395289	 2.0099491803	 0.111806
H	 0.7397402039	 0.2674371263	 3.0786664539	 0.12511
H	 1.9734223111	-0.9671326219	 2.8203224023	 0.14406
H	-2.2092788387	-2.5516368079	 0.4214300972	 0.11694
H	-1.9453891953	-0.3911868036	-1.0600191799	 0.113452
