21
gdb 102084	2.0293	1.25649	1.00395	3.8526	78.93	-0.2385	-0.0179	0.2206	1306.039	0.179599	-424.215752	-424.205389	-424.204444	-424.251591	37.415	
C	-0.0624530876	 1.579052098	-0.248170581	-0.479082
C	-0.0447588877	 0.0673641323	-0.0905377386	 0.357678
C	 1.2263182787	-0.6601823365	-0.4550880926	-0.301239
C	 0.8319223738	-0.5165503435	 0.9954751698	-0.319554
C	-1.3544949789	-0.6758198043	-0.3875010631	-0.127928
C	-2.5333905078	-0.1839828105	 0.4463590746	-0.111308
O	-3.620010602	-1.0563839274	 0.1714768831	-0.420023
C	-1.6810212725	-0.5901190801	-1.8736107529	 0.179693
O	-1.2767167271	-1.36701519	-2.698567532	-0.257877
H	 0.9291818018	 1.9942143088	-0.0448217252	 0.119388
H	-0.3391326352	 1.8794101748	-1.2651688982	 0.122554
H	-0.7641987943	 2.05703929	 0.4442382511	 0.118471
H	 1.1345696373	-1.6336915231	-0.9226864996	 0.13093
H	 2.0608406671	-0.0701857459	-0.8186369015	 0.111164
H	 1.3976209816	 0.1721002455	 1.6144810923	 0.110825
H	 0.4828668327	-1.3991144649	 1.5211088937	 0.114437
H	-1.2017642414	-1.738201459	-0.1700165874	 0.103886
H	-2.2625755502	-0.1898904048	 1.5128359853	 0.097063
H	-2.7836388951	 0.8536484504	 0.1742042959	 0.091356
H	-4.4040065593	-0.7191536403	 0.6147440714	 0.290515
H	-2.312186144	 0.2811410205	-2.1690756551	 0.069052
