18
gdb 64719	3.92078	1.08979	1.03256	3.1763	75.5	-0.2415	0.02	0.2615	1189.0181	0.148338	-398.087633	-398.079158	-398.078214	-398.120802	32.162	
N	-0.1540846141	 1.5266304836	 0.0154137789	-0.555092
C	-0.0536029133	 0.0769067261	-0.0011383312	 0.277869
C	 0.8675943156	-0.4908392455	-1.1143214705	-0.407301
C	 2.2289641752	 0.0255922851	-1.0002081222	 0.256755
N	 3.2900043201	 0.4660281199	-0.8720213309	-0.3069
C	 0.218360243	-0.5804846566	 1.3821048507	-0.194576
N	-1.0449904493	-1.3991539938	 1.312620068	-0.1267
C	-2.1423022945	-0.4161988278	 1.2522633093	-0.246
C	-1.3871322474	-0.6796618217	 0.0158282992	-0.063646
H	 0.7645665301	 1.940178803	 0.1590304003	 0.245358
H	-0.4950740936	 1.8747385629	-0.8776910586	 0.227109
H	 0.8928399355	-1.5855073771	-1.0729355852	 0.161588
H	 0.4669497903	-0.2150416126	-2.0978063926	 0.143932
H	 1.0954663682	-1.2299404017	 1.4077609728	 0.120264
H	 0.2497875379	 0.111405962	 2.2281552704	 0.116488
H	-3.1220500452	-0.8753112543	 1.3402442128	 0.124233
H	-2.0272228678	 0.5420212594	 1.7513647038	 0.134232
H	-1.8069307206	-1.2095137609	-0.834916415	 0.092388
