17
gdb 91087	3.54764	1.48026	1.27954	2.5032	72.17	-0.2227	0.0054	0.2281	1002.9252	0.13784	-417.961433	-417.954224	-417.95328	-417.99301	28.542	
O	-0.0618287094	 1.3741713917	-0.1393217542	-0.418812
C	 0.0674334147	-0.0079233741	-0.0393313371	 0.052481
C	 0.3034225069	-0.6878719257	 1.3733917935	-0.225788
N	-0.7414257413	-1.691126681	 0.99832073	-0.08081
C	-1.9309615816	-2.1637930471	 1.6618582332	-0.043981
C	-2.9364429117	-1.1475073029	 2.158800586	-0.306409
C	-3.0516236465	-1.6393483131	 0.7368079793	 0.000397
N	-2.444960704	-0.7637662175	-0.2671389735	-0.338153
C	-1.1973632989	-0.849664682	-0.016492598	 0.269819
H	-0.9566229956	 1.6084002285	 0.133422405	 0.294117
H	 0.8116498503	-0.3347495332	-0.769360366	 0.124152
H	 1.2835740191	-1.1202549463	 1.5817259337	 0.120694
H	-0.0045233179	-0.0151331323	 2.1820621891	 0.11426
H	-1.9071074143	-3.1630239232	 2.0779847284	 0.104879
H	-3.6652968196	-1.520732889	 2.8695375779	 0.122308
H	-2.6324222523	-0.1173292722	 2.3180030257	 0.107835
H	-3.9023428777	-2.2329962406	 0.4265697969	 0.103011
