20
gdb 98541	3.4507	1.10876	0.95275	2.2966	80.3	-0.2379	-0.0212	0.2168	1311.0628	0.170231	-403.128074	-403.119017	-403.118072	-403.162379	33.501	
C	-0.2186806824	 1.4915927676	 0.0141247054	-0.379784
C	-0.4001339659	 0.1164764463	-0.6252753465	-0.305204
C	 0.9077025561	-0.4921312609	-1.1077055276	 0.282207
O	 1.9382620235	 0.145465674	-1.1817476787	-0.317663
C	 0.9062313944	-1.9346288726	-1.4807436663	 0.270565
C	-0.2779080181	-2.6929275053	-1.9675178893	-0.276976
N	 0.1983170529	-3.0076748126	-0.6243322599	-0.159201
C	 1.4223126946	-3.8720726443	-0.8165737605	-0.150499
C	 2.1708691438	-2.7760719485	-1.6173073069	-0.314008
H	 0.4125290512	 1.4284674889	 0.9047975312	 0.128141
H	 0.2666533107	 2.1814901944	-0.6799229204	 0.134501
H	-1.1852662144	 1.9105252339	 0.307154185	 0.108811
H	-0.873616013	-0.5950919988	 0.0624522826	 0.14074
H	-1.0740134193	 0.1820768005	-1.4914062448	 0.122754
H	-1.2395989388	-2.190642746	-1.9752487933	 0.127021
H	-0.1356459875	-3.4145940695	-2.7709588862	 0.116771
H	 1.8684935105	-4.0979480075	 0.152966598	 0.120173
H	 1.2009103383	-4.8094048663	-1.3370491125	 0.108953
H	 2.4877833819	-3.0123066756	-2.6362784156	 0.107399
H	 3.0117277813	-2.3411787277	-1.0774221435	 0.135299
