17
gdb 50825	5.37386	0.75837	0.73484	1.9637	74.21	-0.2549	-0.0302	0.2247	1536.2829	0.136718	-455.15353	-455.144702	-455.143757	-455.189279	30.641	
N	 1.0909544015	-0.096401206	-0.3141958902	-0.460575
C	-0.0194633523	 0.4599768175	-0.0515646986	 0.100833
N	-1.1686887291	-0.3096254026	 0.0646857322	-0.324864
C	-2.4167084772	 0.2102099761	 0.3525011186	 0.428298
O	-2.6042777756	 1.3983448127	 0.5232883541	-0.357137
C	-3.5328548435	-0.8066202258	 0.4478501459	-0.176076
C	-4.4043201121	-0.7279169242	 1.7301263704	-0.066369
O	-5.608009075	-0.5466882435	 0.9650673985	-0.267798
C	-4.8583334363	-0.4196674836	-0.2566823987	-0.067439
H	 1.8322887037	 0.5998035828	-0.3660915814	 0.236075
H	-0.2182690297	 1.5213501355	 0.1065047871	 0.143786
H	-1.0496185969	-1.3035670658	-0.0702084368	 0.263659
H	-3.1964853908	-1.8188648796	 0.2155960467	 0.081195
H	-4.4350765679	-1.6335982343	 2.3453874871	 0.108489
H	-4.1779190486	 0.1436556863	 2.3549284304	 0.124057
H	-4.8599567958	 0.6084770045	-0.6354897897	 0.126002
H	-5.2094339645	-1.10880619	-1.0321136556	 0.107865
