22
gdb 110111	2.18507	1.1683	0.92376	4.0227	86.93	-0.2784	0.0319	0.3103	1409.3879	0.193377	-367.23135	-367.221017	-367.220072	-367.267155	37.291	
C	 0.3608471371	 1.5395029482	-0.1960784312	-0.380487
C	-0.1788777531	 0.1342417963	 0.0952949561	-0.205649
C	 0.5310885349	-0.5261485379	 1.2600504866	-0.032345
C	 0.5592521479	-2.0093968993	 1.4925744954	-0.032347
C	-0.118978455	-3.0202695844	 0.5898247774	-0.205652
C	 0.4745155565	-4.4261674201	 0.7387317308	-0.380483
C	 1.8449130794	-1.2910240446	 1.0705931645	-0.198139
C	 2.3689141646	-1.4881364853	-0.2501165838	 0.294846
N	 2.7900625836	-1.6473178639	-1.3171055722	-0.357867
H	 1.4173750167	 1.5022281355	-0.4789000072	 0.133854
H	-0.1897689161	 2.0072241223	-1.0173947207	 0.117868
H	 0.269611274	 2.1896676097	 0.6810774357	 0.112654
H	-1.2502797352	 0.1886356281	 0.3266445565	 0.102488
H	-0.0882403465	-0.4807123621	-0.8048732679	 0.12172
H	 0.5269296679	 0.0793112133	 2.163979057	 0.096425
H	 0.5723064448	-2.3090430671	 2.5383887387	 0.096425
H	-1.188875962	-3.0412547831	 0.8332681475	 0.102487
H	-0.0463684491	-2.7070244458	-0.45578035	 0.121707
H	 0.4027896209	-4.77992839	 1.7732121151	 0.112652
H	-0.0536730557	-5.1427989679	 0.1031549648	 0.117866
H	 1.5304599795	-4.4377788607	 0.4515529765	 0.133865
H	 2.613145715	-1.1582019709	 1.8247617804	 0.128111
