19
gdb 103606	2.22394	1.36365	1.12655	1.624	72.38	-0.2502	-0.0345	0.2157	1188.8397	0.156118	-460.167307	-460.157445	-460.1565	-460.202104	35.637	
C	-0.3734261239	 1.2645996325	-1.1018648676	-0.4107
C	 0.1979209526	-0.0774008757	-0.679738331	 0.036628
O	 1.5561911204	-0.3206585985	-1.1345453299	-0.36083
C	 2.0954926865	-0.4939584876	 0.2182433253	 0.255987
C	 2.6718145451	-1.8836882645	 0.4361792512	-0.440556
C	 3.1156254035	 0.6243661926	 0.4795735974	-0.086959
O	 4.1227059713	 0.5983326741	-0.5098164312	-0.416614
C	 0.6852034976	-0.2346785345	 0.7674870247	 0.285874
O	 0.1900573743	-0.1684843555	 1.8518173722	-0.28948
H	 0.2634553038	 2.0896375544	-0.7711001238	 0.128769
H	-0.4632713046	 1.310791426	-2.1911206864	 0.136423
H	-1.3688194435	 1.3959171991	-0.6664478501	 0.13919
H	-0.4668155893	-0.8957900538	-0.9908848015	 0.110508
H	 3.6084767325	-1.9787244858	-0.119498093	 0.145741
H	 2.8774291546	-2.039620557	 1.4997894469	 0.134615
H	 1.9764318696	-2.6554153644	 0.0970294956	 0.123838
H	 2.6033122374	 1.5982453142	 0.505799622	 0.090433
H	 3.6024496423	 0.4753654319	 1.4481764748	 0.122726
H	 3.6595070199	 0.6300134927	-1.3569520356	 0.294407
