21
gdb 82096	2.69798	1.46429	1.23563	2.259	82.22	-0.2134	0.0779	0.2913	1117.4086	0.183442	-383.186436	-383.177962	-383.177017	-383.219554	32.967	
C	-0.2456546485	 1.7223291204	 0.1399410667	-0.403796
C	-0.2501309235	 0.2011253713	 0.0961349952	-0.013059
C	 0.6744355853	-0.4963388823	-0.9132721931	-0.054169
N	 2.0555944808	-0.07636902	-0.5934540395	-0.32499
C	 1.4331547888	-1.1979180935	 0.1615037158	-0.106822
C	 0.498692132	-0.600634053	 1.2378459215	 0.050899
N	 0.9413269573	 0.1265482335	 2.4086139848	-0.088135
C	 1.9461160756	-0.5082188487	 3.2564855521	-0.230545
C	 2.2832643034	 0.7025734596	 2.4585697679	-0.213305
H	 0.775648826	 2.1076538656	 0.1086106619	 0.136821
H	-0.7952152019	 2.1358746356	-0.7130622393	 0.102285
H	-0.720908849	 2.0808350073	 1.057590551	 0.122796
H	-1.2746855842	-0.1722540054	 0.0068847407	 0.07126
H	 0.4237128877	-0.8458660171	-1.9074542739	 0.089917
H	 2.6682034645	-0.4977226157	-1.2909105077	 0.22809
H	 1.8856082119	-2.182845297	 0.1474668339	 0.086754
H	-0.1620788019	-1.3970590262	 1.5965108035	 0.082084
H	 1.7731926361	-0.4403856056	 4.3273738555	 0.110604
H	 2.3734253364	-1.4536092173	 2.9251593773	 0.103798
H	 2.925661136	 0.5793226673	 1.5944057552	 0.140345
H	 2.344846567	 1.671567811	 2.9471850305	 0.109167
