16
gdb 45738	2.94181	1.58649	1.21108	4.2568	70.04	-0.2248	-0.0204	0.2044	1010.8042	0.125439	-437.901619	-437.893955	-437.893011	-437.934272	28.548	
O	-0.0984354875	 0.015891532	 0.0079742075	-0.372789
C	-0.0715020338	 1.2253735322	 0.0126116351	 0.366875
N	-1.1599747273	 2.0760921982	 0.0306424977	-0.350595
C	-0.7491647301	 3.4185950312	 0.0306262334	-0.030479
C	 0.5848918228	 3.5156756227	 0.0133742003	-0.250282
C	 1.1658150637	 2.1350169242	-0.0001316368	 0.1399
C	 2.2829848058	 1.7506823311	 1.0138028356	-0.103403
O	 3.2476004747	 1.5422435486	-0.0303456547	-0.270401
C	 2.2555153022	 1.7592328593	-1.0466432677	-0.103405
H	-2.1112810606	 1.7486155178	 0.0420031784	 0.264949
H	-1.4948985348	 4.2004746802	 0.0437583686	 0.137306
H	 1.1595817409	 4.429383567	 0.0095488926	 0.117267
H	 2.5802869596	 2.5467190261	 1.7054398981	 0.105881
H	 2.0682434425	 0.8290234136	 1.567716498	 0.121646
H	 2.0259886833	 0.8421772308	-1.6022655795	 0.121646
H	 2.5343647287	 2.5610144848	-1.7393293267	 0.105883
