13
gdb 24805	3.58115	1.22217	0.9112	5.0582	75.96	-0.2401	-0.0717	0.1684	1160.711	0.091751	-415.67495	-415.667762	-415.666818	-415.706801	26.892	
O	-0.0191710526	-0.0962648521	 0.0038035661	-0.382984
C	-0.0332878078	 1.1275370973	 0.0095048289	 0.401095
C	-1.2573144183	 1.9323377816	 0.0310100217	-0.247265
C	-1.2225539641	 3.2849260577	 0.0371701871	 0.030782
N	-0.0392599715	 3.9721624665	 0.0237897401	-0.401907
C	 1.1595426452	 3.2926401558	 0.0035591137	 0.318167
C	 1.1964661954	 1.9343877535	-0.0036406913	-0.334379
C	 2.3370691623	 4.1046377012	-0.0089941235	 0.228147
N	 3.2751205913	 4.7818241724	-0.0188269289	-0.312059
H	-2.2068767243	 1.4123219825	 0.0419842403	 0.126543
H	-2.1124170055	 3.9026375734	 0.0528547436	 0.147214
H	-0.0339813102	 4.9788438129	 0.0286614658	 0.284691
H	 2.1481489202	 1.4191545972	-0.0195104336	 0.141955
