15
gdb 26911	3.06817	1.44724	0.98586	3.2475	76.66	-0.1837	-0.0338	0.1499	1124.4067	0.113188	-453.97507	-453.966866	-453.965922	-454.007619	31.099	
N	 0.0323345393	 1.4737339764	 0.1386020021	-0.603839
C	 0.0127154953	 0.0570570557	 0.0411737927	 0.04809
C	-1.1278182277	-0.6711284092	 0.0175547048	 0.422408
O	-2.3566509062	-0.1197650109	 0.0293440375	-0.419019
O	-1.1597293664	-2.0188123625	 0.0208854328	-0.284013
C	 0.0137034253	-2.8054689906	-0.0241416247	 0.377268
N	-0.0773451229	-4.0716925074	-0.0653962602	-0.540611
C	 1.2419982083	-2.0498847344	-0.0062038729	-0.182548
C	 1.2316400596	-0.6972464949	 0.0387071096	-0.072873
H	 0.490497513	 1.8983350314	-0.6618492301	 0.242797
H	-0.9086169897	 1.8457226143	 0.190304165	 0.250466
H	-3.0046490344	-0.8349883069	 0.0292792152	 0.311022
H	-1.0510594218	-4.3725399757	-0.0643522975	 0.21565
H	 2.1561840522	-2.6270818703	-0.0177293349	 0.121237
H	 2.1641867062	-0.142499855	 0.0770737006	 0.113964
