19
gdb 103113	2.20547	1.32849	1.25901	1.0154	79.07	-0.2306	0.0389	0.2695	1161.7753	0.154954	-422.96164	-422.951342	-422.950398	-422.996292	37.753	
C	-0.342555044	 1.2346224985	 0.0965391544	-0.255853
O	 0.3073629054	-0.0227989171	-0.0480981534	-0.277113
C	 0.8198911672	-0.5442328452	 1.1366685974	 0.376187
C	 2.0722843865	 0.115982024	 1.6676841718	-0.463167
C	-0.1747391811	-1.1751621267	 2.0819662961	 0.063577
O	-1.5363280307	-1.1221164955	 1.8217344898	-0.426581
C	 0.7273325754	-2.0748656352	 1.2233827124	-0.380267
C	 0.0938518443	-2.8148371051	 0.1777534423	 0.326104
C	-0.5075053738	-3.4335899765	-0.6625266865	-0.426045
H	 0.3624925306	 2.0321259838	 0.3680768288	 0.107074
H	-0.7718495919	 1.471232357	-0.8797250098	 0.127596
H	-1.1415787325	 1.184837647	 0.8436702694	 0.134942
H	 1.8901441744	 1.164440047	 1.9253818904	 0.125313
H	 2.4249679172	-0.3881390573	 2.5722140956	 0.120538
H	 2.8703403532	 0.0788097555	 0.9191527075	 0.132325
H	 0.0300945893	-1.1437763567	 3.1485910825	 0.10756
H	-1.7035485541	-1.6168670588	 1.0074195799	 0.293304
H	 1.548095034	-2.576614905	 1.7271341245	 0.115464
H	-0.9961544994	-3.9792301439	-1.4313221531	 0.199043
