20
gdb 19819	3.45524	2.02958	1.7395	0.2526	77.19	-0.23	0.0804	0.3105	862.0805	0.178718	-311.814801	-311.807798	-311.806854	-311.845483	28.852	
C	-0.3981275905	 1.5574241247	-0.0224860008	-0.414143
C	 0.0048150249	 0.089105886	 0.0098703441	 0.038503
C	 1.0430776688	-0.4806579749	-1.0226130029	-0.281387
C	 1.81132808	-1.1792731163	 0.144118805	-0.00838
C	 3.0338434322	-0.4776629823	 0.7837707597	-0.057099
C	 2.9227394698	 1.0152152786	 0.7376788305	-0.286678
C	 2.0967315036	 0.2685045362	 1.7520258236	-0.059777
C	 0.8761787156	-0.4860710757	 1.1729098706	-0.036603
H	 0.4598185681	 2.2283954395	 0.0676520361	 0.120486
H	-0.9163273176	 1.799864342	-0.9574368761	 0.110909
H	-1.0819013681	 1.7896201649	 0.8020859513	 0.111664
H	-0.9072258932	-0.5161176967	-0.0491240751	 0.070376
H	 0.6126322063	-1.1672711172	-1.7558284427	 0.092622
H	 1.6188840341	 0.2717805458	-1.5684069528	 0.098201
H	 1.8802691135	-2.2660088037	 0.1014166189	 0.063989
H	 3.9789792311	-0.9664058912	 0.9905911227	 0.080222
H	 3.7697689188	 1.5421411125	 1.1677102291	 0.108532
H	 2.4880448935	 1.531576052	-0.1101618006	 0.108245
H	 2.2324586563	 0.4627069461	 2.8099046562	 0.080127
H	 0.3541891827	-1.0724554502	 1.9311537132	 0.060192
