16
gdb 127439	3.21628	1.29583	0.93448	2.6086	82.54	-0.2411	-0.0294	0.2117	1225.2798	0.12378	-396.936362	-396.927378	-396.926434	-396.970495	31.714	
C	-0.179947521	 1.3807878952	-0.0242600908	-0.32916
N	-0.0666371171	-0.061189324	 0.0227408104	-0.022858
N	-0.1462943322	-0.7996456838	-1.1033439546	-0.285407
C	-0.0003370545	-2.0459350657	-0.6605027942	 0.330665
C	-0.021455273	-3.2264462306	-1.5718354593	-0.495108
N	 0.1679945399	-2.146223708	 0.6845439292	-0.354412
C	 0.1222623283	-0.8816643608	 1.0909747687	 0.209039
C	 0.2460010374	-0.4118350015	 2.4192043207	 0.264221
C	 0.3490507233	 0.0066728002	 3.5426781001	-0.409234
H	-0.0872062175	 1.7674276421	 0.9908868174	 0.156937
H	 0.6125161579	 1.7974081109	-0.6508833008	 0.154772
H	-1.1495569444	 1.6659532106	-0.4399131523	 0.15477
H	 0.9180823269	-3.7833753523	-1.5036466588	 0.141784
H	-0.826844595	-3.913525662	-1.2946763087	 0.14179
H	-0.1691065037	-2.9029884641	-2.6034309876	 0.139314
H	 0.4417724545	 0.360903794	 4.5399073006	 0.202887
