16
gdb 115133	3.1463	1.28354	0.94349	4.9291	66.76	-0.2294	-0.0702	0.1592	1193.5328	0.124052	-475.054726	-475.046098	-475.045154	-475.088601	30.663	
C	-0.0971959833	 1.4613900316	 0.0459550631	-0.251597
O	 0.0011277082	 0.0636569755	-0.1959000703	-0.238309
C	-1.1864715169	-0.642376076	 0.0159794675	 0.014833
C	-1.0767727099	-2.0528714021	-0.5958278649	-0.20812
N	-1.8467869129	-2.8857793495	 0.3194907785	-0.324639
C	-2.0939389668	-2.3604648087	 1.5567262648	 0.329115
O	-2.624062378	-2.8978704799	 2.499059355	-0.348752
C	-1.5432783895	-0.9171008296	 1.4855181404	 0.283463
O	-1.404421489	-0.1805456184	 2.4225171085	-0.282275
H	 0.8741567592	 1.8887189789	-0.2108555933	 0.133065
H	-0.8685119088	 1.9166596031	-0.5939879525	 0.107336
H	-0.3283286523	 1.6740987321	 1.0936044429	 0.150618
H	-2.0517982415	-0.1168356937	-0.427822891	 0.103863
H	-1.4809497133	-2.1019952558	-1.6102120978	 0.127023
H	-0.0188196073	-2.3390011966	-0.6294482952	 0.140069
H	-2.0642710679	-3.850786551	 0.1224994542	 0.264307
