16
gdb 46680	3.07676	1.73863	1.34982	2.6712	68.44	-0.2343	-0.0046	0.2297	936.9858	0.126907	-437.804588	-437.798158	-437.797214	-437.835358	26.018	
O	-0.0640516697	-0.0363327012	-0.030269715	-0.333992
C	 0.0219940711	 1.1533888936	 0.0069202065	 0.362232
O	-1.0850863363	 1.9652535485	 0.1870514299	-0.251283
C	-0.7957284207	 3.4001637637	 0.1176508052	-0.137306
C	 0.5863271227	 3.4389520898	-0.5331712009	 0.018954
N	 1.9864370069	 3.8851350049	 0.0294500378	-0.173158
C	 1.6867153342	 2.9064423517	 1.1755452799	-0.197808
C	 1.1730816843	 2.1233888548	-0.0641088284	 0.111485
C	 2.4892352395	 2.6158988192	-0.7181819696	-0.244554
H	-1.5748768206	 3.8454403477	-0.5033208281	 0.131785
H	-0.8650193401	 3.8214445615	 1.1227534413	 0.134794
H	 0.5305302768	 3.6135785359	-1.6102089693	 0.096745
H	 2.5827317455	 2.5216548894	 1.6661197395	 0.117346
H	 0.9740483618	 3.2784445772	 1.9109645153	 0.12035
H	 2.5053071008	 2.7225101066	-1.804544665	 0.12232
H	 3.4365178839	 2.2417733867	-0.3266799891	 0.122089
