14
gdb 1327	4.96076	1.91479	1.70558	4.5946	58.65	-0.2794	0.0275	0.3069	753.5324	0.112066	-324.580268	-324.572915	-324.571971	-324.611244	26.907	
C	-0.0674069437	 1.5665216511	-0.0540444515	-0.454399
C	 0.003261166	 0.059112572	-0.0016193846	 0.406014
O	-1.1728687019	-0.6018135429	-0.3789420277	-0.459225
C	 1.2967378596	-0.6616131812	-0.2521531067	-0.336302
C	 0.6880597859	-0.6502617271	 1.152975648	-0.207233
C	 1.3195912751	 0.0933211369	 2.2039808001	 0.290176
N	 1.829875477	 0.7027749304	 3.0450751415	-0.344047
H	 0.8409503806	 2.0256122898	 0.3428938758	 0.144639
H	-0.1936429915	 1.9041800664	-1.0894017178	 0.115501
H	-0.9202375529	 1.9237352791	 0.5301276908	 0.141817
H	-1.3231681317	-0.4277180442	-1.3152291794	 0.288393
H	 1.2523043615	-1.6096436891	-0.7748644607	 0.131191
H	 2.1978227662	-0.0795232102	-0.4070890968	 0.137833
H	 0.2039862398	-1.567375091	 1.469110759	 0.145644
