19
gdb 119845	4.41008	1.00512	0.87585	0.9525	77.39	-0.2348	0.0354	0.2702	1370.7296	0.160465	-419.199272	-419.190914	-419.18997	-419.232737	31.087	
C	 0.0473551944	 1.4875354532	-0.0926903567	-0.391701
C	-0.0241707601	-0.025607187	-0.0332760881	-0.03688
O	 0.6849818856	-0.5387186981	-1.1765599283	-0.251661
C	 0.7550066145	-1.8600871199	-1.2670187525	 0.443803
N	 0.2498450704	-2.7026107412	-0.4511024371	-0.344553
C	 0.6055975924	-4.0361845205	-0.9501361951	-0.185987
C	 1.3157007886	-3.7896382045	-2.2859234627	-0.029382
C	 0.5844339221	-3.0418163514	-3.3333453533	-0.24925
N	 1.4949598432	-2.321775024	-2.4009534524	-0.164792
H	 1.085526339	 1.8298388347	-0.0637426068	 0.132234
H	-0.4137914022	 1.8650929877	-1.0096652242	 0.129782
H	-0.4825903776	 1.9166570834	 0.7628052046	 0.121626
H	 0.436919942	-0.4266008737	 0.8752211272	 0.123916
H	-1.0556778541	-0.392503671	-0.0638881819	 0.119456
H	 1.2772492209	-4.5348833606	-0.2402991846	 0.113084
H	-0.2866495234	-4.6666961904	-1.043092378	 0.11201
H	 2.1721096982	-4.3965172847	-2.5601486344	 0.103048
H	 0.930270075	-3.0662373516	-4.3616781149	 0.126218
H	-0.483277799	-2.8833098603	-3.2056748608	 0.12903
