23
gdb 101752	4.96394	0.49209	0.46416	1.4405	92.09	-0.2398	0.0636	0.3034	2393.068	0.202486	-388.271331	-388.259323	-388.258378	-388.310981	41.01	
C	-0.0423299189	 1.5198017343	-0.0530364835	-0.496981
C	-0.0117207816	 0.0637884788	-0.0471290699	 0.10969
C	 0.0253808515	-1.139925882	-0.0435361644	 0.025911
C	 0.0351927659	-2.5991041792	-0.0348498294	-0.369696
C	-1.3764734502	-3.2056580983	 0.1093840503	-0.1789
C	-1.4067363138	-4.7412603478	 0.0453615738	 0.04193
C	-0.6622185161	-5.4081381191	 1.2101164634	-0.39355
C	-2.8567382017	-5.226430307	-0.0171560562	-0.085967
O	-2.8552346636	-6.632604421	-0.2212530858	-0.423977
H	 0.3680525048	 1.9327381477	 0.8753749726	 0.144473
H	 0.5448972582	 1.9283893208	-0.8831691639	 0.144945
H	-1.0657875599	 1.8974847775	-0.1570737422	 0.144209
H	 0.4924854031	-2.9706520453	-0.9622783207	 0.122903
H	 0.678423072	-2.9526611911	 0.780113385	 0.128272
H	-1.812560056	-2.8643481594	 1.057017337	 0.102225
H	-2.0076756849	-2.7933058122	-0.6868073882	 0.101368
H	-0.932936351	-5.05852992	-0.8948880225	 0.080365
H	-1.0573121538	-5.0604940043	 2.1730059584	 0.106029
H	-0.7876360216	-6.4919861451	 1.1649140881	 0.134534
H	 0.4090561327	-5.1887069274	 1.1901181563	 0.111208
H	-3.3735843348	-4.9618529824	 0.9209571892	 0.082057
H	-3.3816111902	-4.7112222944	-0.8375383648	 0.082588
H	-3.7644330203	-6.942842323	-0.1891545327	 0.286364
