15
gdb 22696	2.72807	1.3135	1.02689	4.1828	75.44	-0.2577	0.0127	0.2704	1143.805	0.112825	-416.716598	-416.708824	-416.70788	-416.749031	29.349	
O	-0.0949791773	 1.3397453273	 0.0087068105	-0.395094
N	 0.0371333734	-0.0664948228	-0.0001275001	-0.30852
C	-1.0853257716	-0.6302704996	 0.0069362971	 0.473651
C	-2.5927745905	-0.4273083779	 0.0216401143	-0.15906
C	-2.6335902695	-1.5631540888	-1.0606359397	-0.254867
C	-1.5890398573	-2.0680258361	 0.0036671856	 0.131366
C	-2.6141678701	-1.5748535116	 1.0920679886	-0.254867
C	-0.8416513638	-3.2962320851	-0.0097502894	 0.175678
N	-0.2533638989	-4.2910425871	-0.0204637161	-0.345412
H	 0.8257173473	 1.6234198	 0.0019413101	 0.31187
H	-3.1496695896	 0.5035561723	 0.031723317	 0.117343
H	-3.5593907024	-2.1412354217	-1.1008927235	 0.121022
H	-2.2417051603	-1.3288852762	-2.0504357083	 0.132934
H	-2.2044652397	-1.3513171406	 2.0771236492	 0.132934
H	-3.5391477998	-2.1534291922	 1.1427373247	 0.121022
