17
gdb 48167	3.86181	0.7131	0.62902	1.8391	70.12	-0.2537	-0.0967	0.157	1702.6898	0.132499	-458.956628	-458.947126	-458.946181	-458.993177	32.224	
O	-0.9115494178	 1.6566854269	-0.2093439073	-0.216344
C	 0.1446314956	 1.1058350187	-0.372068557	 0.094236
C	 1.5019471421	 1.8168055223	-0.2573687416	 0.280252
O	 2.5017167711	 1.1511381265	-0.4021908621	-0.276047
C	 1.480274338	 3.2967598406	 0.0312948426	-0.299875
C	 2.8748991301	 3.9084192554	 0.1765002779	-0.22741
C	 2.8073772298	 5.3947764319	 0.4254607008	 0.08925
C	 3.7610096372	 6.3353973873	-0.1730800488	-0.17899
O	 2.4364630121	 6.2056446469	-0.6943468237	-0.23705
H	 0.2460101718	 0.0265805677	-0.6141442374	 0.108581
H	 0.9210053887	 3.790005158	-0.7752249722	 0.159701
H	 0.8635945477	 3.4551116637	 0.9264703205	 0.139964
H	 3.4110105167	 3.4221084268	 0.999889634	 0.116572
H	 3.4543682723	 3.7157265877	-0.7315413622	 0.121204
H	 2.3232024433	 5.693227654	 1.3580936651	 0.092693
H	 3.9781947613	 7.2799786344	 0.3235109568	 0.116958
H	 4.55488991	 5.9555641712	-0.8150908853	 0.116306
