15
gdb 15648	3.39667	1.76555	1.22347	2.625	62.64	-0.2164	-0.0021	0.2144	939.9165	0.119321	-399.83509	-399.82743	-399.826486	-399.867336	27.867	
O	-0.0395893737	 1.452533323	 0.0096878863	-0.425934
C	 0.0426483212	 0.0362772125	 0.0315179812	-0.076711
C	-1.3851629269	-0.5044743663	-0.0521661223	-0.159647
C	-2.1003737195	-0.2719474661	-1.359285959	-0.138954
C	-2.4919907893	-1.4526905197	-1.8465026765	-0.030113
N	-2.1099952757	-2.505170869	-0.9966340699	-0.323858
C	-1.406388729	-2.0390793585	 0.0975290907	 0.403204
O	-0.9064726166	-2.712805425	 0.9699645235	-0.37827
H	 0.8540564729	 1.8052844571	 0.0515269575	 0.289211
H	 0.6317524772	-0.3452047205	-0.8166777753	 0.092454
H	 0.5007903976	-0.3374480138	 0.9581771186	 0.1128
H	-1.9417237826	-0.0733792964	 0.7911657817	 0.126578
H	-2.2652725099	 0.6959368418	-1.8048334347	 0.11888
H	-3.0358448632	-1.6788943894	-2.752616473	 0.128833
H	-2.2527982724	-3.4857587498	-1.171664529	 0.261528
