19
gdb 42008	3.17362	1.57131	1.13801	3.0732	76.09	-0.2236	0.031	0.2547	1080.0866	0.1635	-419.217163	-419.209713	-419.208769	-419.249484	29.016	
C	-0.0082008512	 1.3639570714	-0.1657612511	-0.158566
C	 1.4693711282	 1.8333144475	-0.0730824973	-0.259196
C	 2.1229680152	 0.696367698	 0.726727556	-0.06409
N	 3.5291662967	 0.3827510721	 0.4285330379	-0.327103
C	 3.768928444	-1.0363688062	 0.1509655375	-0.173058
C	 2.858430357	-1.8858491243	 1.0243648542	-0.076402
O	 1.482319733	-1.7055935306	 0.6537751171	-0.249724
C	 1.1394999856	-0.4281335588	 0.4147995524	 0.404813
N	 0.0037454196	-0.1002595852	-0.0471300311	-0.299504
H	-0.6134179704	 1.791554285	 0.6454098573	 0.106694
H	-0.4850594335	 1.662123438	-1.1044888453	 0.108474
H	 1.9121630861	 1.8680587369	-1.0763138408	 0.100473
H	 1.5886256651	 2.8174858501	 0.3851908388	 0.10695
H	 2.037311508	 0.9125380696	 1.8042941149	 0.100714
H	 3.8553553765	 0.9513338747	-0.343054485	 0.221763
H	 3.5782056274	-1.3198886256	-0.8982058636	 0.102214
H	 4.8146013078	-1.2823072722	 0.3731919737	 0.109891
H	 3.0609972003	-2.9495642347	 0.889121648	 0.126239
H	 2.9947734544	-1.6350452957	 2.0846647064	 0.119419
