18
gdb 36746	9.50878	0.51719	0.51094	2.6738	87.5	-0.2331	0.0141	0.2472	2130.1842	0.144435	-401.88397	-401.874196	-401.873252	-401.921488	34.266	
C	-0.0046098866	-1.1689065702	 0.1184526431	-0.40859
C	 0.0367091623	 0.0295973865	 0.0708936721	 0.288389
C	 0.0430890659	 1.482487336	 0.0155806676	-0.22504
O	 1.3755547574	 1.9453362682	-0.2148619746	-0.207383
C	 1.5563726463	 3.2763838075	-0.0522602353	 0.126476
N	 2.6577061458	 3.8079006744	-0.3453691148	-0.210851
C	 2.8106299195	 5.2036640679	-0.1294145064	 0.073688
C	 4.176549315	 5.6927116209	 0.2954423589	-0.272003
C	 3.685589037	 5.9618022249	-1.10132245	-0.272404
H	-0.0316451331	-2.2298680585	 0.1610531326	 0.20813
H	-0.6191324069	 1.8297545138	-0.7904938741	 0.140099
H	-0.3435159324	 1.8935999427	 0.9594982319	 0.136655
H	 0.6851435164	 3.8118653923	 0.3554211719	 0.076736
H	 1.9500126629	 5.7404003788	 0.2771459657	 0.071532
H	 4.2230683724	 6.5148975169	 1.0007817908	 0.111116
H	 4.9391539834	 4.9339704303	 0.4231419756	 0.126454
H	 4.1201957454	 5.3830530673	-1.9074041173	 0.126048
H	 3.3912063594	 6.9710951002	-1.3665485778	 0.110948
