17
gdb 30598	4.38696	1.03528	0.85402	4.4891	80.04	-0.2172	-0.0118	0.2054	1328.6968	0.137871	-418.0775	-418.068875	-418.067931	-418.11145	31.229	
C	 0.0306124476	 1.4079291311	-0.1417933827	-0.320838
N	-0.0319405418	-0.0439467862	-0.0986191968	-0.349309
C	-1.2520511665	-0.6676839126	 0.0951073214	 0.315789
O	-2.2725154905	-0.0447650499	 0.3353032123	-0.378562
C	-1.2190629544	-2.1370308854	 0.01972701	 0.226548
C	-2.2639598801	-3.01424744	-0.1949222823	-0.189681
C	-1.7318043565	-4.3262730726	-0.2020011294	-0.145792
C	-0.3747616031	-4.2207615845	 0.0212282051	-0.082861
N	-0.0668627421	-2.8930741229	 0.1332472178	-0.325344
H	 1.0573780636	 1.7343007927	 0.0422040067	 0.117859
H	-0.3078287871	 1.8175877374	-1.1024531154	 0.126865
H	-0.6214802745	 1.8037330044	 0.6372507113	 0.162926
H	 0.6375092875	-0.5374522656	-0.6691094785	 0.236839
H	-3.2887395913	-2.7156373991	-0.348113256	 0.119047
H	-2.2758344566	-5.2453744064	-0.3552473281	 0.102158
H	 0.3880750175	-4.9773951939	 0.115115815	 0.123717
H	 0.8158456782	-2.5332840864	 0.4539142797	 0.26064
