19
gdb 99191	5.19597	0.76797	0.71625	3.1168	73.02	-0.268	0.0053	0.2733	1595.2344	0.158227	-460.184125	-460.174825	-460.173881	-460.219498	33.176	
O	-0.02336416	 1.4867764605	-0.1607778055	-0.419611
C	-0.0479897753	 0.13444699	 0.1959939488	-0.145331
C	-1.4239335117	-0.4604164568	-0.0467373002	 0.405494
O	-2.3435679474	 0.1924171693	-0.4847580376	-0.376485
O	-1.4847840835	-1.7544957297	 0.2777948524	-0.246246
C	-2.7542691263	-2.4032940986	 0.0950095365	 0.168537
C	-3.1112110246	-2.9186624104	-1.3157350793	-0.238673
C	-3.6364204058	-4.2155636216	-0.6354089698	-0.221158
C	-2.7991775623	-3.8456592624	 0.6235587219	-0.255918
H	-0.9191673175	 1.6887724394	-0.4702950108	 0.296405
H	 0.6854011174	-0.4477505312	-0.3819797277	 0.123791
H	 0.2048605681	-0.0073680481	 1.2576404608	 0.124425
H	-3.5365468396	-1.7630370413	 0.50763487	 0.107911
H	-3.7987127492	-2.3179307126	-1.9122743311	 0.117441
H	-2.2023972482	-3.1101345932	-1.8932993035	 0.11234
H	-4.710808497	-4.16996831	-0.4409973194	 0.112695
H	-3.4103258718	-5.1643992095	-1.123776403	 0.109463
H	-1.8023663017	-4.2933443823	 0.5872235746	 0.117943
H	-3.2317735235	-4.0139554117	 1.6116081529	 0.106976
