16
gdb 32968	4.55432	0.82279	0.7278	1.2632	67.72	-0.2188	0.0229	0.2418	1490.9107	0.124531	-475.054401	-475.045801	-475.044857	-475.08859	30.767	
O	-0.0178774451	 1.3796361104	-0.1796661179	-0.417554
C	 0.0516958302	-0.0358882537	-0.1557678808	-0.069771
C	-1.3581373286	-0.5509295499	 0.1516481362	-0.301975
C	-1.4483901289	-2.0302336067	 0.2005258016	 0.318844
C	-1.708912244	-2.9576487417	 1.1479581628	-0.201115
N	-1.6534041575	-4.242816927	 0.599489873	-0.380765
C	-1.3625993769	-4.0137168514	-0.6376697229	 0.468184
O	-1.1846620952	-4.8878410234	-1.626092672	-0.399185
O	-1.217251264	-2.7282964194	-0.9854515512	-0.204235
H	 0.8535153646	 1.7213139063	-0.3995160125	 0.288977
H	 0.3872083841	-0.4422641444	-1.1215294692	 0.103231
H	 0.7486048506	-0.396789662	 0.6165988911	 0.092901
H	-1.6779611488	-0.1535455833	 1.1198498108	 0.127732
H	-2.0426975486	-0.1444667477	-0.6030466336	 0.128273
H	-1.9376766208	-2.799940357	 2.1901081386	 0.123951
H	-1.3189305711	-5.7648877791	-1.244593224	 0.322507
