15
gdb 46430	4.04768	0.86357	0.75707	3.1755	68.09	-0.2601	-0.0117	0.2485	1436.5649	0.110245	-457.726592	-457.717842	-457.716897	-457.761319	30.504	
O	 0.1660247082	 0.1421186178	-0.4158272441	-0.318436
C	 0.1133759374	 1.2868726634	-0.1007296797	 0.435677
O	-0.9606021888	 1.9861473756	 0.3865622137	-0.235912
C	-0.1545476655	 3.1906259089	 0.6113532808	-0.113998
C	 1.0662343507	 2.5047199656	-0.017463574	-0.036831
O	 2.1649245067	 2.3983258216	 0.8351895912	-0.252409
C	 3.2258768559	 1.6198149137	 0.2752617772	-0.22807
C	 4.3552625808	 1.6133596581	 1.1910317177	 0.285074
C	 5.3019878802	 1.5908549199	 1.9287166505	-0.410697
H	-0.574573501	 4.0457388035	 0.0807172162	 0.132431
H	-0.0428015469	 3.3935452474	 1.677306419	 0.145521
H	 1.3472143038	 2.8855867992	-1.0109071514	 0.106194
H	 2.8817043225	 0.5940098542	 0.0847032497	 0.159126
H	 3.5290426056	 2.0480364554	-0.6944008459	 0.125856
H	 6.1369943903	 1.5709730255	 2.5848809493	 0.206474
