14
gdb 34890	2.35022	1.75301	1.21503	3.7249	65.74	-0.2777	0.012	0.2897	995.2192	0.099986	-436.621911	-436.614566	-436.613622	-436.654029	27.384	
N	-0.1811467191	-1.2059340888	-0.0164964157	-0.326454
C	-0.0966359466	-0.0533380122	 0.0016620941	 0.294151
C	 0.0275449194	 1.3935249742	 0.0152139915	-0.291449
C	-0.2285244189	 2.1295734676	 1.3566058393	 0.024671
O	 0.7775564493	 1.7142086032	 2.2699005979	-0.219337
C	 1.1071296411	 2.7512814568	 1.3331425289	-0.092867
C	 1.4567311361	 2.0314129448	 0.0397861391	 0.439855
C	 2.726715662	 1.5711437831	-0.5051118945	-0.256226
O	 1.9860010046	 2.6654084355	-1.0927900492	-0.26836
H	-0.5416787497	 1.8372211163	-0.8071855026	 0.149359
H	-1.1759724334	 2.4754351424	 1.749559318	 0.132598
H	 1.4657995296	 3.6992502842	 1.7134626646	 0.134696
H	 3.6575887174	 1.8497741583	-0.0160959028	 0.13429
H	 2.7538171081	 0.6605341347	-1.0994999985	 0.145073
