21
gdb 98536	3.44319	1.07783	0.9092	2.6641	84.45	-0.2357	-0.0093	0.2264	1363.1217	0.181717	-387.092469	-387.083226	-387.082282	-387.127115	34.417	
C	 0.0126177655	 1.5358386898	 0.1347353829	-0.377223
C	-0.1839940785	 0.0500063953	 0.4230812202	-0.291874
C	-1.4204282194	-0.535960595	-0.2474319044	 0.265585
O	-2.1995863855	 0.1607008867	-0.8697204124	-0.33738
C	-1.6408091796	-1.9954002587	-0.0988025503	 0.278757
C	-2.4889267663	-2.7299433356	-1.1189795254	-0.308437
C	-2.9937965898	-2.6689753809	 0.2755903596	-0.071677
C	-2.2548371111	-3.6698673345	 1.1696255241	-0.223229
C	-0.8913438984	-3.0064302664	 0.7836108758	-0.315288
H	 0.9027937438	 1.9154524812	 0.6442955636	 0.105412
H	 0.1251294393	 1.7127711167	-0.9381014225	 0.129247
H	-0.8532469815	 2.1134638337	 0.4669659905	 0.132383
H	 0.6875677662	-0.5397313103	 0.1064101526	 0.119522
H	-0.2693100627	-0.1323563229	 1.5036423957	 0.121537
H	-2.9778084338	-2.068608426	-1.8250594271	 0.141565
H	-2.1149921377	-3.66584037	-1.528764192	 0.106837
H	-3.9100267708	-2.147363274	 0.5238045764	 0.105791
H	-2.4854591855	-3.55266454	 2.2301876064	 0.108599
H	-2.3815422836	-4.7232221668	 0.8996770026	 0.102776
H	-0.1652708843	-3.64103631	 0.2648487587	 0.099177
H	-0.3978564663	-2.5526799622	 1.645290045	 0.107919
