18
gdb 19434	3.98207	1.92219	1.61943	1.66	71.18	-0.2296	0.078	0.3076	847.3374	0.156781	-343.937749	-343.931154	-343.93021	-343.968226	26.776	
C	-0.0354317343	 1.4882356561	 0.0002210053	-0.3035
N	 1.2265561559	 0.7207286708	 0.0010102932	-0.359268
C	-0.0635313064	 0.0087251045	 0.0259273238	 0.379853
C	-0.37198789	-0.843370774	 1.2525854078	-0.323452
C	-0.2937525066	-2.2865399509	 0.6942961434	-0.155835
N	-0.5759889589	-2.2386729337	-0.7590837167	-0.097182
C	-1.7996051081	-1.5006987828	-1.0941368464	-0.256327
C	-0.4778366323	-0.8205565997	-1.1589843339	-0.098808
H	-0.2263754192	 2.053473354	 0.9088461231	 0.117617
H	-0.3422409766	 1.9909611574	-0.9140818303	 0.110894
H	 1.6200655995	 0.7027643447	-0.9379661986	 0.227222
H	 0.3498541172	-0.659161807	 2.0499174005	 0.120681
H	-1.3684810685	-0.6156147391	 1.6444812045	 0.105828
H	 0.7194491003	-2.6847380927	 0.8083998947	 0.115714
H	-0.9829948049	-2.9792914605	 1.1858994502	 0.105589
H	-2.2826080996	-1.8227356837	-2.0121460088	 0.116388
H	-2.4862362317	-1.2208758687	-0.2987585893	 0.11095
H	-0.0186685258	-0.6042993748	-2.1216523225	 0.083637
