13
gdb 130379	7.19493	0.83921	0.75707	8.3597	67.18	-0.2281	-0.0318	0.1963	1385.4664	0.090142	-486.098629	-486.090577	-486.089633	-486.131692	28.63	
N	-0.0829346977	 1.3764963702	 0.0495097118	-0.486137
C	-0.0962908787	 0.0399191753	-0.0746632329	 0.147957
N	-1.1478379122	-0.6564598161	 0.1954632615	-0.373872
C	-1.0161798664	-2.0197060433	 0.1482946132	 0.500539
N	 0.0666168078	-2.7194083689	 0.3253542764	-0.221216
O	-0.34808969	-4.0770686707	 0.1893312013	-0.236929
C	-1.6948835544	-4.1439283253	-0.0465983215	 0.509036
O	-2.327610772	-5.1503058134	-0.1979089273	-0.398766
N	-2.1080772696	-2.8225156536	-0.0641891814	-0.437205
H	 0.7163529885	 1.9168251581	-0.2267205663	 0.280625
H	-0.9089432334	 1.8548811917	 0.3716074536	 0.278238
H	 0.8417276189	-0.4046688969	-0.4173583392	 0.152747
H	-3.0526101908	-2.517830697	-0.2215476593	 0.284983
