21
gdb 65518	3.56657	1.1719	1.15197	1.3268	82.26	-0.248	0.0703	0.3183	1188.2531	0.182599	-387.045005	-387.036566	-387.035622	-387.077845	33.838	
O	 0.0507699112	 1.4402614388	 0.1012285325	-0.479036
C	 0.0613222625	 0.0216083815	 0.075308204	 0.371287
C	 0.2106835472	-0.699014268	 1.468756343	-0.311259
C	-1.1871127224	-1.2953859172	 1.2778224423	-0.031656
C	-2.1955893864	-0.1946001155	 1.1250301868	-0.292727
C	-1.3486305552	-0.5636267766	-0.0588101206	-0.057099
C	 1.009163336	-0.5239021678	-0.9777231491	-0.007712
C	 1.1541176564	 0.1685779735	-2.306352284	-0.268247
C	 2.3004870344	 0.1741864426	-1.3230592944	-0.299865
H	 0.8886576519	 1.73531757	 0.4730259722	 0.278656
H	 1.0182249663	-1.4348423667	 1.4700003347	 0.100606
H	 0.3289454626	-0.0345935195	 2.3316930284	 0.087953
H	-1.4730805669	-2.3100365896	 1.5251534397	 0.081728
H	-3.2312425161	-0.5128808233	 1.0613966288	 0.107754
H	-2.0457955823	 0.7620021609	 1.6171553191	 0.116054
H	-1.7736448832	-0.9148768039	-0.9913633858	 0.081223
H	 1.0396660365	-1.609953057	-0.9969438665	 0.083489
H	 1.2401978773	-0.4365543381	-3.2018138826	 0.106732
H	 0.6157269958	 1.1009669682	-2.4303830042	 0.126483
H	 2.530696261	 1.1179457832	-0.8393441611	 0.09505
H	 3.1720238734	-0.4364602054	-1.5308733132	 0.110583
