20
gdb 100631	2.49353	1.09243	0.9612	4.0361	75.09	-0.2732	0.0337	0.307	1315.5447	0.16846	-440.29391	-440.283361	-440.282417	-440.329153	38.669	
C	-0.1206237066	 1.5782059493	 0.0832947882	-0.431396
C	 0.0299476224	 0.0400247094	 0.031574206	 0.042005
C	 0.6988728181	-0.4732127944	 1.328030671	-0.41736
C	-1.319086752	-0.5497288351	-0.0497965526	 0.286363
N	-2.3786403527	-1.0098140755	-0.0817289682	-0.338958
C	 0.8220772814	-0.4457693868	-1.2220816513	 0.094662
O	 0.1764057145	-0.0860239534	-2.4404241765	-0.43811
C	 2.2901994017	-0.003448784	-1.291742286	-0.087765
O	 2.8925533892	-0.5278126047	-2.4538305786	-0.418832
H	 0.8561185966	 2.058735537	 0.1811039325	 0.132128
H	-0.620223686	 1.9678054429	-0.8086321451	 0.127938
H	-0.7291985136	 1.8674538505	 0.943547203	 0.145855
H	 0.0626456962	-0.2649567288	 2.1916290064	 0.140985
H	 0.8675374527	-1.5526851051	 1.2840537551	 0.140614
H	 1.6589927934	 0.0243579955	 1.4862301599	 0.130721
H	 0.8059467412	-1.5407620566	-1.2222464161	 0.118307
H	 0.1346132998	 0.8761046745	-2.4924372631	 0.287772
H	 2.351777743	 1.0990442461	-1.2725378009	 0.080652
H	 2.8587432017	-0.3800360926	-0.436700144	 0.11572
H	 2.233363349	-0.4381657681	-3.1545269097	 0.288699
