19
gdb 75750	2.28362	1.5427	0.96901	2.752	79.3	-0.2402	-0.0243	0.2159	1224.0814	0.157013	-423.068439	-423.058921	-423.057977	-423.102639	35.005	
C	 0.0997765106	 1.5120744357	 0.0292580535	-0.493035
C	 0.0131409175	 0.0181958055	 0.0233552909	 0.20041
C	-1.0892215529	-0.7513161366	 0.0115099224	 0.196407
C	-2.5278885249	-0.3475587572	-0.0236449767	-0.501015
C	-0.7341669158	-2.2220229269	 0.0910599003	-0.024015
O	-1.4648413744	-3.0565145317	-0.7778311034	-0.442857
C	 0.7566562069	-2.2009781392	-0.2571976683	 0.358713
O	 1.3218988584	-3.1186102347	-0.7966786794	-0.318733
C	 1.2878474382	-0.806413803	 0.0386419991	-0.411503
H	 0.610792688	 1.8723160677	 0.9316548973	 0.128589
H	 0.6890841443	 1.8714465926	-0.824141082	 0.130262
H	-0.8817235447	 1.9887546155	-0.012745496	 0.129029
H	-3.0393457908	-0.8724948003	-0.8375187936	 0.151433
H	-3.0392037492	-0.6371367651	 0.9037799951	 0.128389
H	-2.661832007	 0.727139648	-0.1633569545	 0.121363
H	-0.8461549441	-2.5788635053	 1.1343485098	 0.089681
H	-0.8197694384	-3.6773164187	-1.1465040428	 0.293021
H	 2.0339275623	-0.5001667598	-0.7039609644	 0.131381
H	 1.7932968259	-0.7889709066	 1.0158772127	 0.13248
