23
gdb 87901	2.5038	1.36981	1.13301	0.1359	90.64	-0.2329	0.0301	0.263	1227.9291	0.205956	-351.162436	-351.153267	-351.152323	-351.196085	35.898	
C	 0.0493956458	 1.4598269342	-0.3408682422	-0.410601
C	 0.2303070281	-0.0313142721	-0.1562886317	-0.039543
C	 1.5997883375	-0.6324740524	 0.0495893595	-0.342571
C	 0.594042409	-0.6341845993	 1.1788466772	 0.354877
C	 0.8610758662	 0.2287743909	 2.423926405	-0.337623
C	 0.7839671809	-0.7753302418	 3.547459031	-0.073653
C	 0.3367635611	-1.9594072089	 3.1358204336	-0.062278
C	-0.0055567637	-1.9755373627	 1.6623395126	-0.113778
C	-1.5225065769	-2.1215776656	 1.4405602958	-0.386163
H	 0.7635436263	 2.0295400089	 0.2615817114	 0.115756
H	 0.2004041388	 1.7455860023	-1.3878461222	 0.114319
H	-0.9579041063	 1.781226727	-0.0517953889	 0.114639
H	-0.4459682175	-0.6295591039	-0.7628678303	 0.076017
H	 1.8304710388	-1.5751235649	-0.4378798927	 0.102638
H	 2.4453619099	 0.0459858666	 0.1266045132	 0.101127
H	 1.8332130606	 0.7350241632	 2.380609807	 0.101302
H	 0.1112802509	 1.022869686	 2.5578552242	 0.10373
H	 1.0482498151	-0.5249320465	 4.5692601929	 0.088452
H	 0.1741433012	-2.8239026943	 3.7713850269	 0.08653
H	 0.488480154	-2.8157097648	 1.1548348908	 0.071983
H	-2.0663237707	-1.2867667971	 1.894410831	 0.115475
H	-1.7727561907	-2.1522654134	 0.3753089492	 0.111118
H	-1.8921674184	-3.0479834515	 1.8935498667	 0.10825
