15
gdb 29615	3.26357	1.1468	0.86934	1.5093	70.93	-0.2056	0.01	0.2156	1260.8075	0.113036	-453.949151	-453.940818	-453.939873	-453.982873	30.323	
N	 0.2300370974	 1.4241283007	 0.2303076363	-0.617634
C	 0.0711153609	 0.0453485391	 0.0867568758	 0.128691
C	-1.0312123258	-0.7441611616	 0.2305483397	-0.072039
O	-0.7002036366	-2.0660156193	 0.0777735908	-0.147178
C	 0.627305961	-2.1271745771	-0.1755854419	-0.10542
C	 1.1468029807	-0.8689808903	-0.17519846	 0.240238
O	 2.4254166389	-0.4445960851	-0.4245935937	-0.227073
C	 3.4396481435	-1.0568237102	 0.2468202136	 0.106446
N	 4.6298561877	-0.8027552697	-0.0716202714	-0.430011
H	 1.0504758405	 1.7639868368	-0.2546160062	 0.25958
H	-0.583291783	 1.9608401749	-0.0377492282	 0.249816
H	-2.0666252575	-0.5385294343	 0.440012476	 0.13043
H	 1.0488724181	-3.102145541	-0.3505506427	 0.143537
H	 3.075103355	-1.7289875514	 1.0325365235	 0.103826
H	 5.2690621691	-1.3135581514	 0.5337463184	 0.236792
