22
gdb 107458	2.54232	1.36056	1.18626	2.5897	81.2	-0.2351	0.0707	0.3058	1179.9517	0.193738	-404.306046	-404.296775	-404.295831	-404.339354	36.393	
C	-0.0303718937	 1.5725860185	-0.1863285255	-0.451903
C	 0.0137406241	 0.0615664033	 0.0395315131	 0.245491
C	-1.3662594739	-0.5518958815	-0.2126812923	-0.446944
C	 1.1351296725	-0.7500886049	-0.6808547738	-0.207115
N	 1.6617064711	-1.3185845635	 0.6108050528	-0.186077
C	 2.1166163722	-0.1442418169	 1.3860617186	-0.283426
C	 0.6684774382	-0.4314138654	 1.3536900807	 0.267284
C	-0.0276550155	-1.0026992183	 2.5706241873	-0.162317
O	 0.8089944657	-1.9334326789	 3.2307794542	-0.419029
H	 0.9392110308	 2.0461224289	-0.0114934128	 0.114595
H	-0.3295444899	 1.799318771	-1.2161408806	 0.115377
H	-0.7595285814	 2.0472742321	 0.480276923	 0.116963
H	-1.6815231743	-0.3514547126	-1.2426579533	 0.115036
H	-1.3604339991	-1.637001599	-0.0716109694	 0.123432
H	-2.1253510033	-0.1273219096	 0.4537424211	 0.116707
H	 0.7583038363	-1.5484409707	-1.3241432654	 0.10771
H	 1.8853451975	-0.1723746847	-1.2321399959	 0.100534
H	 2.6432593357	-0.4200758423	 2.2932706884	 0.132987
H	 2.5365804422	 0.7014562073	 0.8473079082	 0.108857
H	-0.2589435092	-0.2111176905	 3.293711265	 0.109371
H	-0.9819915033	-1.4653989496	 2.2763136347	 0.088273
H	 1.2007597071	-2.4735817428	 2.5293654718	 0.294195
