21
gdb 71612	2.8176	1.76682	1.61035	1.3846	81.1	-0.2298	0.0887	0.3185	969.4947	0.185324	-387.096665	-387.089493	-387.088549	-387.127674	30.401	
C	-0.1090556795	 1.5061725309	-0.0007781036	-0.496938
C	 0.0737587911	 0.0153938861	 0.0120108729	 0.43538
C	 1.0094104084	-0.7765654515	-0.9373631844	-0.277305
C	 0.7238410271	-1.9004518719	 0.0840005067	-0.081934
C	 0.6867403366	-0.8074083123	 1.2031744366	-0.055721
C	-0.3066639647	-1.2397805963	 2.2896308557	-0.239889
C	-1.1975609092	-2.2823728828	 1.5496599051	-0.210813
C	-0.8191848739	-2.0318577445	 0.0885959702	 0.107012
O	-1.1888870067	-0.6576618397	-0.1975542689	-0.326937
H	 0.8525736935	 2.0139122235	 0.1165460948	 0.115153
H	-0.5585460558	 1.8272082207	-0.9459739909	 0.128186
H	-0.7711733471	 1.822070052	 0.8118211345	 0.124754
H	 0.6736446071	-0.8982051841	-1.9703179864	 0.094018
H	 2.0481533186	-0.4394723943	-0.900883299	 0.093939
H	 1.309604285	-2.8163067578	 0.1579198584	 0.06574
H	 1.6558810273	-0.4367767611	 1.5384608076	 0.065416
H	 0.2060303983	-1.675694977	 3.1518459204	 0.094968
H	-0.8947198834	-0.3935354301	 2.6578590146	 0.105014
H	-0.9498955884	-3.3086016584	 1.846093318	 0.09001
H	-2.2669186088	-2.130813558	 1.7154498752	 0.103583
H	-1.2698859956	-2.7007499433	-0.6480333376	 0.066362
