17
gdb 110158	1.9204	1.48702	0.96374	3.019	75.09	-0.2678	0.0027	0.2706	1239.3253	0.13553	-418.045758	-418.036635	-418.035691	-418.080775	31.912	
C	-0.2497734054	 1.5130939604	-0.0793832704	-0.382705
C	 0.1910572127	 0.0511205703	 0.0203968516	-0.168837
N	 0.82503488	-0.4413313561	-1.1854238582	-0.065655
C	 0.3018640045	-0.7000934088	-2.5304403073	-0.130925
C	 1.7280616602	-1.2190814324	-2.9131380909	-0.397167
C	 2.1071893385	-0.8714677727	-1.4550887271	 0.423043
O	 3.0950976073	-0.9234618212	-0.776596433	-0.356619
C	-0.7843750382	-1.6815071048	-2.5845317071	 0.285694
N	-1.6511578358	-2.4453153749	-2.6134541055	-0.316416
H	 0.6040564019	 2.1657815302	-0.2822272008	 0.133876
H	-0.9888099199	 1.6541020814	-0.8747846291	 0.124576
H	-0.7111799253	 1.8302241187	 0.8603673247	 0.131365
H	 0.9331860062	-0.0775561989	 0.8139022115	 0.149657
H	-0.6649293871	-0.5912459418	 0.2633395871	 0.131492
H	-0.0072745761	 0.2013794502	-3.0706891797	 0.133183
H	 1.780249005	-2.2810701462	-3.1539770759	 0.158055
H	 2.2378697015	-0.6331297733	-3.6785329898	 0.147384
