19
gdb 92665	2.38862	1.76878	1.44385	1.751	70.77	-0.2321	0.0582	0.2903	989.644	0.16034	-460.129541	-460.12153	-460.120586	-460.162305	30.889	
O	-0.5051133981	 1.3112640493	 0.8784683643	-0.412997
C	-0.1109057321	 0.143656486	 0.1890220596	 0.058283
C	 0.4969612241	-0.9761692294	 1.0853703853	-0.282885
C	-0.8402988396	-1.7744074697	 1.0219735448	 0.074144
O	-1.6028566891	-1.8176971609	 2.2086605094	-0.266519
C	-2.4033028064	-0.6591119012	 2.4212780559	-0.114321
C	-3.3240290041	-0.4380016322	 1.2344930865	-0.055979
O	-2.6205851983	-0.220981362	 0.0137586694	-0.264429
C	-1.3433732045	-0.7850234531	-0.0829352884	 0.113245
H	 0.2937634232	 1.7586985275	 1.1761219713	 0.285706
H	 0.4687318308	 0.3993607219	-0.7077567832	 0.067013
H	 1.3418702944	-1.5040212264	 0.6351359671	 0.101497
H	 0.773603539	-0.6517454919	 2.0917061527	 0.105883
H	-0.7391217401	-2.8127369963	 0.6955253541	 0.084522
H	-2.9941497897	-0.858659413	 3.3200609796	 0.105821
H	-1.7830631275	 0.2297043296	 2.5898185906	 0.116644
H	-3.9799407183	-1.3155769267	 1.1278930096	 0.095544
H	-3.9519140063	 0.445207301	 1.394690623	 0.107521
H	-1.2521990972	-1.2373879227	-1.0775142016	 0.081308
