23
gdb 89423	2.53515	1.45494	1.19513	0.3113	91.19	-0.2208	0.0264	0.2472	1184.9317	0.207157	-351.167987	-351.15921	-351.158265	-351.200631	35.461	
C	-0.195134435	 1.541323767	 0.0604104429	-0.389919
C	-0.0212889045	 0.0085879382	 0.0136966181	-0.039524
C	 0.4578687078	-0.5123726039	-1.36520824	-0.282487
C	 1.9586779037	-0.7017585929	-1.5612829991	 0.33988
C	 2.3067776576	-1.4623038794	-2.8271254803	-0.459842
C	 2.9640524309	 0.3144054817	-1.0893324859	-0.329577
C	 2.7769983738	-0.9928709443	-0.3195472339	-0.100176
C	 2.0862641928	-0.9479539791	 0.9895370803	-0.053107
C	 0.8417605582	-0.4920452707	 1.1454746779	-0.087966
H	 0.7456803144	 2.0678790991	-0.1206497987	 0.121542
H	-0.9157440341	 1.867995913	-0.6976650782	 0.109208
H	-0.5685597262	 1.8613011737	 1.0389623557	 0.111009
H	-1.028096555	-0.4045946973	 0.1686191678	 0.077404
H	-0.0007706807	-1.49628678	-1.5285495667	 0.096435
H	 0.0621921015	 0.1375937864	-2.1567921221	 0.091007
H	 1.9743204006	-0.9171331901	-3.7190739915	 0.113322
H	 3.3870569318	-1.6149282382	-2.916384107	 0.11028
H	 1.8265339348	-2.4477818499	-2.8429307635	 0.113779
H	 3.8690301869	 0.4315926747	-1.6777044641	 0.104285
H	 2.6345140437	 1.219621719	-0.5947901542	 0.11629
H	 3.5796827161	-1.7192490845	-0.4084833263	 0.075878
H	 2.6486716455	-1.2892241795	 1.8552273852	 0.082134
H	 0.4048114352	-0.4517753329	 2.1406455935	 0.080145
