21
gdb 103657	2.51298	1.42259	1.17486	0.7046	80.47	-0.2482	0.0127	0.261	1179.259	0.180201	-424.23673	-424.227067	-424.226123	-424.27106	36.26	
C	 0.4472827958	 1.2896598643	 0.1070757116	-0.250307
O	 0.3668634722	-0.1149093103	-0.0627990678	-0.271763
C	 0.6092166095	-0.5983558735	-1.3753765942	 0.426349
C	-0.3676255729	-0.0167018561	-2.39807379	-0.441844
O	 1.933697263	-0.2912688125	-1.8010055646	-0.296009
C	 2.7810724857	-1.4426702366	-1.6930538018	 0.064547
C	 3.8290157349	-1.2566719539	-0.5932997622	-0.39058
C	 1.8239873093	-2.5771331536	-1.4375477927	-0.094525
C	 0.5968919245	-2.1064395395	-1.2673943604	-0.131555
H	 1.3773143467	 1.6907666127	-0.3122613551	 0.123591
H	-0.4052460555	 1.8157491461	-0.3441059208	 0.104697
H	 0.4335190936	 1.4725902634	 1.1843177678	 0.121999
H	-0.1776996505	 1.0479095475	-2.5538443739	 0.12759
H	-0.2418883533	-0.5252840879	-3.3565938311	 0.124079
H	-1.3987346882	-0.1468283217	-2.0571454341	 0.120081
H	 3.2914325887	-1.5606344655	-2.6602896305	 0.083074
H	 3.3363785069	-1.1245469918	 0.3736507828	 0.131796
H	 4.490637235	-2.1278815851	-0.5377580999	 0.10989
H	 4.440997286	-0.3744768643	-0.8016356342	 0.122646
H	 2.1415686141	-3.6109280612	-1.3801846192	 0.107133
H	-0.3025399254	-2.6592934504	-1.0322907697	 0.109109
