15
gdb 12601	3.1285	2.09133	1.31618	2.2819	61.65	-0.2465	-0.0362	0.2102	887.9761	0.11882	-399.867035	-399.859323	-399.858379	-399.899599	27.626	
C	-0.1823814594	 1.5838219889	 0.0099215786	-0.392119
C	 0.0777870254	 0.0774050207	-0.0023518249	-0.240418
C	 0.8843186179	-0.4283257839	-1.1922433287	 0.393426
O	 0.7743141322	-0.0909518374	-2.339907487	-0.297766
C	 1.9139885121	-1.4482202979	-0.6754963991	-0.273837
N	 1.7985726285	-1.3202482366	 0.7612615222	-0.324857
C	 0.8477519424	-0.442753095	 1.2165743237	 0.41816
O	 0.6568628929	-0.1465216336	 2.3742795763	-0.374623
H	 0.7574762307	 2.1435388925	 0.0095537301	 0.127521
H	-0.7533428112	 1.8758375373	-0.8740179513	 0.137275
H	-0.7380619793	 1.8537607994	 0.910264159	 0.14483
H	-0.8841762948	-0.4564760581	-0.0196524425	 0.139954
H	 1.660430026	-2.452298353	-1.0425087777	 0.140466
H	 2.9105407359	-1.1946019591	-1.0563359755	 0.143813
H	 2.4184878705	-1.7730935444	 1.4144467469	 0.258173
