18
gdb 10744	3.0378	1.65784	1.40207	1.1045	73.45	-0.2637	0.0352	0.2989	975.3184	0.150923	-347.755019	-347.746074	-347.74513	-347.787954	33.905	
C	 0.157221652	 1.4155329306	 0.0898930659	-0.393865
C	-0.0421282917	-0.1047309995	 0.0081903112	 0.144697
O	 0.5747103301	-0.6415807591	 1.1852082895	-0.450037
C	-1.4753276336	-0.4383188181	-0.0001879627	 0.317195
C	-2.6392464984	-0.7402162721	-0.002355545	-0.491363
C	 0.6152997095	-0.6601205113	-1.2617803034	 0.028136
C	 2.0988142897	-0.9071900766	-1.299530119	-0.276789
C	 1.1350696803	-2.0696723099	-1.3243850134	-0.278613
H	 1.2269855686	 1.6316057215	 0.1490935152	 0.127607
H	-0.2556794599	 1.9060855088	-0.7950544998	 0.120373
H	-0.3362154473	 1.8128073824	 0.979406658	 0.128215
H	 0.1711096037	-1.497338099	 1.3625680867	 0.288502
H	-3.6695232013	-0.9987426452	-0.0032187186	 0.19915
H	 0.1591395713	-0.2776315283	-2.1701107346	 0.089974
H	 2.6404158766	-0.6553326773	-2.204342901	 0.107746
H	 2.6469681554	-0.7520692208	-0.3775665033	 0.126979
H	 1.0795083	-2.6777835716	-0.4281197452	 0.100763
H	 1.0007084252	-2.6234868944	-2.2465851405	 0.111333
