13
gdb 11156	6.60101	1.31256	1.10246	3.2492	75.17	-0.2448	-0.0615	0.1833	999.0942	0.095785	-361.456419	-361.449522	-361.448578	-361.48752	25.761	
N	-0.0014574088	 1.3109418285	 0.0108220734	-0.553998
C	-0.026695647	 0.0453702929	 0.0035795058	 0.437355
O	 1.0843190185	-0.7704178381	-0.0073551281	-0.248389
C	 0.6814635204	-2.1369604916	-0.0133737174	-0.181629
C	-0.8328182448	-2.0972272573	-0.0048097688	 0.166227
C	-1.214736149	-0.8097681901	 0.0046485858	-0.294999
C	-1.6186761117	-3.2663567553	-0.0076102024	 0.209486
C	-2.2494531318	-4.2927951118	-0.0102832907	-0.381443
H	 0.9610186308	 1.6516224944	 0.0076374784	 0.225688
H	 1.0777845292	-2.6345981557	-0.9071641011	 0.138332
H	 1.0875113414	-2.6452440213	 0.8699906366	 0.138312
H	-2.2191494441	-0.4158662317	 0.0122102268	 0.139827
H	-2.8204033231	-5.188647683	-0.0122916483	 0.20523
