15
gdb 43891	2.79938	1.50173	1.15625	3.3558	71.96	-0.2854	-0.0131	0.2723	1048.2276	0.113314	-416.801394	-416.793916	-416.792972	-416.833597	28.23	
N	 0.0524203491	 1.1456381528	 0.5354749929	-0.537249
C	 0.0018863923	-0.0168982626	 0.081374361	 0.437534
O	 1.0136878397	-0.8377000973	-0.415910808	-0.286757
C	 0.0647940461	-1.905690665	-0.7127818784	 0.31153
C	-0.0674018552	-2.9174394023	 0.4541015843	-0.283733
C	-1.2043789964	-2.0467621186	 1.0718875853	-0.232541
C	-1.0919155361	-1.0383863179	-0.1132585002	-0.221404
C	 0.1544185725	-2.3713662087	-2.0791634478	 0.232656
N	 0.1967729512	-2.7720175323	-3.1624345219	-0.327773
H	 1.0010276667	 1.5231326485	 0.5241151999	 0.239763
H	-0.3988680138	-3.9042493414	 0.1269358155	 0.137649
H	 0.8526540068	-3.0184479086	 1.0312536845	 0.136965
H	-2.1674162725	-2.5580023811	 1.092401104	 0.12934
H	-1.0129109389	-1.6169377938	 2.0556044005	 0.135814
H	-1.9888271514	-0.7395276917	-0.6494139718	 0.128206
