17
gdb 41552	3.38718	1.89327	1.71173	3.1041	69.07	-0.2314	0.0599	0.2913	841.7196	0.138735	-421.758135	-421.752187	-421.751242	-421.788222	25.241	
C	 0.0367900178	 1.5595457176	 0.262624505	-0.087329
O	 1.4344086653	 1.589732276	-0.1161489927	-0.291012
C	 1.3869798622	 0.2226647678	-0.5550612494	 0.135695
C	-0.0621970817	 0.0402796762	-0.0425554367	-0.085585
C	-0.8420907115	-0.5327179374	-1.2144305934	-0.107438
C	-0.7189245242	 0.1378611728	-2.5690336904	 0.095381
O	 0.3561308364	 1.0732853399	-2.5810452816	-0.292231
C	 1.2490697962	 0.0306369927	-2.0744971096	 0.047096
C	 0.1450413917	-1.0435894533	-2.2672817461	-0.167257
H	-0.0913672846	 1.8351657222	 1.3154382862	 0.096589
H	-0.5732418881	 2.2095701002	-0.3716445012	 0.112824
H	 2.1934720335	-0.3866722908	-0.1287121045	 0.075082
H	-0.1775440173	-0.577176128	 0.8498319307	 0.082379
H	-1.7461420849	-1.1075668662	-1.0454241984	 0.090942
H	-1.5384107135	 0.2934686669	-3.2610551734	 0.107687
H	 2.170370184	-0.0221597712	-2.6558002014	 0.085477
H	 0.2125563988	-2.0357790954	-2.689321083	 0.1017
