17
gdb 22956	2.78069	0.89124	0.71203	0.8034	82.49	-0.2346	0.001	0.2356	1586.3564	0.133867	-417.9062	-417.896432	-417.895488	-417.942572	33.909	
C	 0.0532119332	 1.5242271542	-0.2867320058	-0.499719
C	 0.0109695076	 0.0822897338	-0.0971150518	 0.089204
C	-0.0322862131	-1.1093476894	 0.0671302856	 0.130251
C	-0.0795521488	-2.549315827	 0.2483144767	-0.292065
N	-0.0567570561	-3.0432509195	 1.6705177381	-0.30928
C	-1.2025003949	-3.9668159251	 1.4277134128	-0.263373
C	-1.4081671436	-3.286144679	 0.0954856858	 0.4174
N	-2.281942851	-3.2376572551	-0.8124918177	-0.230292
O	-3.3575788163	-4.0947941715	-0.5221176275	-0.389613
H	 0.9640149704	 1.8336400224	-0.8110731826	 0.147249
H	-0.8037138486	 1.8698626453	-0.8753701377	 0.151797
H	 0.027581438	 2.0489155797	 0.6746532737	 0.151718
H	 0.689530305	-3.0252515194	-0.3804270608	 0.108851
H	 0.8093546058	-3.5109243018	 1.9132136768	 0.223744
H	-0.9487234128	-5.0315971043	 1.3304633771	 0.118146
H	-2.017644142	-3.8692277188	 2.1523909165	 0.136195
H	-3.946729173	-3.9409388145	-1.2686276393	 0.309788
