16
gdb 29183	3.08105	1.38288	0.9601	3.889	78.56	-0.1978	-0.0397	0.1581	1169.7216	0.124207	-437.919333	-437.911113	-437.910169	-437.951925	31.341	
C	-0.0344879067	 1.5143626323	 0.0620240272	-0.481751
C	-0.0051753423	 0.0152219424	-0.0027598919	 0.249194
C	-0.0221423405	-0.6793200582	-1.1618824087	-0.238642
C	 0.0065230454	-2.127373488	-1.2155739345	 0.383712
N	-0.0091549686	-2.7899766047	-2.3021017331	-0.5469
O	 0.0534889079	-2.7808283567	 0.0120261877	-0.241477
C	 0.0706089237	-2.0846800054	 1.1804347575	-0.058831
C	 0.0440737905	-0.7414278161	 1.2337000739	 0.19342
O	 0.0601563025	-0.0103425736	 2.3900281272	-0.435418
H	 0.8498334146	 1.898113249	 0.5817941072	 0.145288
H	-0.0721528749	 1.9476229609	-0.9392564255	 0.129839
H	-0.90265532	 1.8617302883	 0.6321209328	 0.145296
H	-0.0585986136	-0.1806809313	-2.1225088382	 0.120845
H	 0.0168842836	-3.7918247212	-2.1111036842	 0.216639
H	 0.1075862972	-2.7396470705	 2.0430575052	 0.11841
H	 0.0930732411	-0.6050551073	 3.1468646573	 0.300374
