14
gdb 16690	4.47302	1.77564	1.65923	4.2798	57.05	-0.2622	0.0095	0.2717	787.7978	0.108472	-419.682439	-419.676202	-419.675258	-419.712631	24.445	
O	-0.0003468508	 1.3918760087	-0.1266163856	-0.432501
C	 0.0237676665	-0.0051710476	-0.0331773067	 0.128562
C	 0.0181217374	-0.6171475246	 1.4030476782	 0.048439
C	-1.4629762565	-0.199057361	 1.5088584402	-0.245987
C	-1.4275123656	-0.6022187615	-0.0084279982	-0.206317
C	-1.0530529085	-2.0688679524	 0.1336951853	 0.448752
O	-1.437397292	-3.0633796216	-0.3995578969	-0.345368
O	-0.0623760342	-2.0373586983	 1.0958023578	-0.243581
H	 0.903095775	 1.7166069971	-0.0536361162	 0.294663
H	 0.7336606213	-0.4624917885	-0.7340116872	 0.094089
H	 0.7786284797	-0.4458351653	 2.1622082022	 0.096365
H	-2.0982677676	-0.7793517012	 2.1802733015	 0.120469
H	-1.5974097442	 0.8719437834	 1.6466694008	 0.135405
H	-2.1915061806	-0.3480319772	-0.7369989551	 0.10701
