17
gdb 50321	3.72576	1.27699	1.07754	4.2287	76.18	-0.2362	-0.0249	0.2113	1113.214	0.138582	-418.030499	-418.023094	-418.02215	-418.062613	28.331	
O	 0.3055221966	 0.2026371195	 1.0701847606	-0.311773
C	 0.2206885949	 1.328629121	 0.642134951	 0.165572
N	 1.1233268353	 1.9246043573	-0.2177706809	-0.106639
C	 0.8403632278	 3.2547110676	-0.7684130391	-0.192984
C	 2.1089946138	 3.9518287997	-1.209472096	-0.055382
C	 3.3359615662	 3.9707099445	-0.340749395	-0.296629
C	 3.2806867793	 3.0633737299	-1.5579580077	 0.019798
N	 3.1999935967	 1.6502105292	-1.3540871477	-0.259815
C	 2.2102562744	 1.1844999114	-0.7086196403	 0.093873
H	-0.6021704306	 2.0197314497	 0.9091905603	 0.083972
H	 0.1745315947	 3.1576717687	-1.6367006037	 0.126807
H	 0.3038821268	 3.8339019954	-0.0081374107	 0.125141
H	 1.9304945589	 4.8177677844	-1.839518715	 0.098444
H	 3.9777284094	 4.8436554097	-0.3801446006	 0.122887
H	 3.2936402038	 3.482981281	 0.627550487	 0.130691
H	 3.9028429791	 3.3342970163	-2.403538685	 0.101472
H	 2.1427790829	 0.1269335749	-0.4730539772	 0.154565
