19
gdb 51616	5.7442	0.70788	0.68134	1.6738	77.25	-0.2513	-0.0252	0.2261	1625.1508	0.157272	-423.00138	-422.99246	-422.991516	-423.036308	32.413	
O	-0.2079450681	 0.0145996118	-0.1323054241	-0.237368
C	-0.0004938288	 1.197514628	-0.0449735819	 0.160903
C	 1.3531156951	 1.8531492155	-0.2069538434	-0.298048
C	 1.3595741954	 2.8836483681	-1.3387743	 0.024847
C	 0.5316123506	 4.1996937493	-1.1677922868	-0.337079
C	 1.7284011433	 4.9477251787	-1.7575447322	 0.469265
C	 1.7525913137	 5.9255422991	-2.8459290777	-0.265538
O	 2.0614455468	 6.2928397533	-1.4912357459	-0.269037
C	 2.6468076269	 3.7459748433	-1.5270407643	-0.340966
H	-0.835552279	 1.9081134154	 0.1590128714	 0.075796
H	 1.5984251354	 2.3603697758	 0.7376761935	 0.115325
H	 2.0981225496	 1.0702166208	-0.3793235304	 0.123224
H	 1.0960650862	 2.393967261	-2.2813595872	 0.090986
H	-0.4279404981	 4.2759048985	-1.6840535022	 0.111951
H	 0.3897624156	 4.4605251015	-0.1133596393	 0.114211
H	 2.5942281726	 5.9485911867	-3.5373377623	 0.117442
H	 0.8182991339	 6.328414349	-3.2353926776	 0.117302
H	 3.2057265476	 3.8512096841	-0.5912499569	 0.115538
H	 3.3378309912	 3.46386546	-2.3244931129	 0.111245
