17
gdb 88890	3.21993	0.94713	0.79038	5.8879	78.07	-0.2275	-0.0284	0.1991	1426.6973	0.134605	-455.141822	-455.132747	-455.131802	-455.176622	32.677	
O	-0.0334743289	 1.426638759	 0.4322706095	-0.434637
C	 0.0631680718	 0.079216757	 0.1189196893	 0.139243
C	-0.409363978	-0.975444504	 1.0774386535	-0.341803
C	-1.2116098637	-0.6908524133	-0.1925158074	 0.001348
N	-2.3742839287	 0.0941792518	-0.0247511395	-0.184744
C	-3.4161952468	-0.1472959611	-0.6945172598	 0.081996
N	-4.5728354853	 0.631649634	-0.6278976947	-0.324364
C	-4.7529699438	 1.8503742807	 0.0043208368	 0.166392
O	-3.9324726709	 2.4587255238	 0.6395590919	-0.268708
H	-0.9792291233	 1.6233158067	 0.5207621548	 0.303342
H	 0.939284456	-0.1347878099	-0.4859522176	 0.10015
H	 0.1203699837	-1.9206874517	 1.1279147904	 0.112596
H	-0.8513764818	-0.6365980819	 2.0073597603	 0.129247
H	-1.2073770357	-1.4408225162	-0.9856976416	 0.076119
H	-3.5215680893	-0.987131582	-1.3938076581	 0.099584
H	-5.3625945874	 0.2916810467	-1.1547094501	 0.259671
H	-5.788361268	 2.2123529904	-0.1583863877	 0.08457
