15
gdb 131205	3.23496	1.5837	1.08086	1.6255	67.36	-0.194	0.0314	0.2253	1043.7427	0.114938	-453.943298	-453.935726	-453.934782	-453.975349	28.279	
O	 0.1640322919	 1.3410655045	 0.2281396066	-0.435817
C	 0.0937893021	 0.0120718906	-0.020532398	 0.270715
C	 0.2342288039	-0.7951897257	-1.1220284929	 0.174882
O	 0.5192395752	-0.6828816711	-2.4532251993	-0.312411
C	 0.2380676762	-2.0088422377	-2.9953250945	-0.09678
C	 0.2126343997	-3.0382419812	-1.8168278569	-0.359383
C	 0.0301921059	-2.0968093784	-0.6620530409	 0.272867
N	-0.2220560475	-2.1617920345	 0.6357503315	-0.343194
N	-0.1709604236	-0.8491044679	 1.0101078244	-0.25346
H	 0.3318839413	 1.7958522018	-0.6035198928	 0.317238
H	-0.7404909089	-1.9679184599	-3.4880967403	 0.115259
H	 1.0033813424	-2.2218304137	-3.7438530977	 0.11981
H	-0.594726677	-3.7640724818	-1.9432883055	 0.127456
H	 1.1536153771	-3.5955228567	-1.7442186257	 0.126685
H	-0.3684469686	-0.5905142981	 1.961217562	 0.276133
