18
gdb 107522	2.12509	1.61348	1.12434	3.2102	76.44	-0.2644	0.0257	0.2901	1130.2206	0.147047	-401.922887	-401.91417	-401.913225	-401.95659	32.039	
C	 0.0550808667	 1.3266232367	 0.2966118131	-0.264959
O	-0.0162559534	 0.0126212035	-0.2483907495	-0.282379
C	-1.2483375534	-0.5714587814	-0.1257734554	 0.450308
C	-1.7873092455	-1.1102947775	 1.1686164428	-0.347483
C	-1.5760121998	-2.0475251502	-0.0029425594	-0.137025
C	-2.7393493896	-1.9048295905	-0.9888176839	-0.244345
C	-2.3817896438	-0.379659085	-1.1655551696	-0.227637
C	-3.4110907866	 0.6091886948	-0.8803506133	 0.268042
N	-4.2281637375	 1.3873261723	-0.6249636775	-0.336579
H	 1.0837152676	 1.6664190606	 0.1628261871	 0.133314
H	-0.6222222938	 2.0163988906	-0.223421832	 0.12983
H	-0.1950075558	 1.3263517216	 1.3652481756	 0.120889
H	-1.036352997	-1.1921064592	 1.9476001542	 0.126104
H	-2.7881826515	-0.870986366	 1.5200305872	 0.126971
H	-0.8985595142	-2.889227765	 0.0549500618	 0.107456
H	-2.6083662465	-2.4555590281	-1.9211829557	 0.122995
H	-3.7346777458	-2.1081669188	-0.58595845	 0.122386
H	-1.9588888602	-0.1944490184	-2.1556848458	 0.132112
