23
gdb 101830	4.86751	0.62727	0.60285	2.245	83.35	-0.2439	0.0759	0.3198	1916.6287	0.203255	-425.397587	-425.38677	-425.385825	-425.434619	38.718	
C	 0.336415382	 1.3708721579	 0.3730590732	-0.386949
C	 0.026129094	-0.0779103368	-0.0190362391	 0.016799
C	-1.4728933252	-0.3012217276	-0.2198053232	-0.078711
O	-2.129771992	-0.0333263117	 1.0104266004	-0.422536
C	 0.7900594144	-0.5023536508	-1.2720043173	-0.064538
O	 2.1801097599	-0.4318258312	-1.0008466308	-0.252512
C	 2.9737931994	-0.7725522724	-2.091688831	 0.151705
C	 3.296859286	 0.2764642424	-3.1267300322	-0.288183
C	 4.3436819305	-0.1805194918	-2.1281413829	-0.288087
H	 1.4069951481	 1.5005871118	 0.5449432645	 0.124723
H	 0.0356368065	 2.0610185446	-0.4257144625	 0.099688
H	-0.2075627523	 1.64633677	 1.2787551003	 0.129559
H	 0.3443750317	-0.7394900679	 0.7971082466	 0.092852
H	-1.8430213694	 0.3630931426	-1.0191156253	 0.082032
H	-1.655103967	-1.3387660114	-0.544547913	 0.081801
H	-3.077313007	-0.1110399955	 0.8686621014	 0.286321
H	 0.5167799269	-1.5314559743	-1.5606434089	 0.081208
H	 0.5370998558	 0.1534070431	-2.1217476353	 0.085794
H	 2.8449441907	-1.8003593598	-2.4355770393	 0.080217
H	 3.3947181207	-0.0226085098	-4.1645925604	 0.110898
H	 2.8712725523	 1.2617783769	-2.9728164792	 0.1192
H	 4.5914816474	 0.5049851275	-1.3259129195	 0.12565
H	 5.1664470564	-0.7967202259	-2.4724953566	 0.113068
