23
gdb 83233	2.39965	1.50847	1.30223	1.4168	84.44	-0.2239	0.0776	0.3016	1142.1854	0.20544	-388.284373	-388.274981	-388.274037	-388.31785	36.529	
C	-0.0684618428	 1.7762838847	-0.2215182895	-0.423869
C	 0.1357583771	 0.2804762071	-0.1040486077	-0.065854
C	 1.4417452575	-0.4182561216	-0.3853800865	 0.080975
O	 2.6254800312	 0.3409551962	-0.3687631429	-0.263481
C	 2.8327349885	 0.8887868666	 0.9349223926	-0.125235
C	 1.8954721653	 0.1499837921	 1.9325196228	 0.27389
C	 2.6668751155	-0.9825930697	 2.637841849	-0.427496
C	 1.3036354861	 1.1063517993	 2.9774170169	-0.43602
C	 0.8644869503	-0.4885455648	 0.9988126693	-0.113543
H	 0.8497987306	 2.3425285901	-0.0629810193	 0.130686
H	-0.4225374056	 2.0213044141	-1.2289399906	 0.118232
H	-0.8207729385	 2.1380744255	 0.4878420572	 0.116834
H	-0.7246992792	-0.2851786042	-0.4585767515	 0.083948
H	 1.5067182989	-1.2520874094	-1.076350566	 0.091997
H	 3.8916821597	 0.7629953177	 1.1887793207	 0.101064
H	 2.6218230087	 1.9658236001	 0.928214449	 0.092051
H	 3.4616029253	-0.575620402	 3.272585342	 0.109493
H	 2.0024173221	-1.5762158658	 3.2749761701	 0.110504
H	 3.1276359305	-1.6566708183	 1.908742326	 0.123035
H	 0.734708943	 1.9138765474	 2.5093616467	 0.118756
H	 0.6316632545	 0.5721016951	 3.6573828416	 0.113184
H	 2.0943565783	 1.559776785	 3.586710413	 0.110912
H	 0.3835909428	-1.3909036153	 1.3625220371	 0.079938
