15
gdb 24453	3.5444	1.70962	1.19123	3.7235	66.54	-0.1837	0.0369	0.2206	968.1702	0.116317	-453.965013	-453.958387	-453.957442	-453.995942	26.177	
C	-0.0086446305	 1.3850437635	 0.0260398215	-0.110011
C	 1.4376950022	 1.9065995151	 0.042586109	-0.104156
O	 2.1510093517	 1.4954290976	 1.2074402776	-0.264464
C	 1.9059190092	 0.1709807258	 1.4289929665	 0.259768
C	 0.8863179919	-0.5172124683	 0.8376692734	 0.311499
N	 0.974029585	-1.8010408824	 1.3174016532	-0.364364
C	 2.0506888829	-1.81209446	 2.1709647473	-0.01446
N	 2.6291480216	-0.6315540767	 2.2564509232	-0.326664
O	-0.0553447238	-0.0520391596	-0.020093376	-0.279515
H	-0.5370316703	 1.7320948258	 0.9231864447	 0.124266
H	-0.5311638516	 1.7401158379	-0.8647117735	 0.123966
H	 1.9590422384	 1.549062857	-0.8566369666	 0.117181
H	 1.4349940406	 2.999341677	 0.0420324878	 0.123013
H	 0.3760293483	-2.5718032871	 1.0725569621	 0.272152
H	 2.3603075143	-2.7065128058	 2.68749825	 0.131789
