12
gdb 130556	3.75816	1.30233	0.96717	4.7159	68.04	-0.2754	-0.095	0.1803	1095.2115	0.077653	-431.655419	-431.648054	-431.647109	-431.687902	26.257	
O	 0.0196342491	-0.0687598	 0.002895349	-0.297455
C	 0.0186802306	 1.1363235878	 0.0059856186	 0.323048
C	 1.2156732458	 1.9445449345	 0.000109281	 0.213301
C	 2.2389736973	 2.5752841123	-0.0050572437	-0.368719
N	-1.1853629252	 1.8715778019	 0.0158847905	-0.124252
C	-1.3979916804	 3.2393212307	 0.0207971562	 0.050717
N	-2.6672764299	 3.5062999223	 0.0299797792	-0.217996
N	-3.3508123783	 2.2872975241	 0.031384048	-0.224675
C	-2.4627132609	 1.3411579723	 0.0230103635	 0.063368
H	 3.1489878254	 3.1265071126	-0.0095834767	 0.233079
H	-0.591872159	 3.9545341903	 0.0172641657	 0.168436
H	-2.6428379244	 0.2790080912	 0.0214720587	 0.181147
