25
gdb 93682	3.01903	1.10025	1.01761	0.2226	95.26	-0.2361	0.0289	0.265	1369.4321	0.229374	-352.389801	-352.380129	-352.379185	-352.423421	38.643	
C	-0.1485829177	 1.5641845223	 0.0301076283	-0.400783
C	-0.0145633126	 0.0343090306	 0.0152398719	-0.002319
C	 0.6442128271	-0.4704332081	-1.2782211364	-0.219065
C	 1.0131863502	-1.954164363	-1.1763126108	-0.237908
C	 2.0208694863	-2.2456190427	-0.0392932219	 0.254646
C	 1.9815624465	-3.7473527816	 0.3087026773	-0.420393
C	 3.4587931167	-1.8801494896	-0.4709867323	-0.408115
C	 1.646716033	-1.4445769303	 1.1908805085	-0.074788
C	 0.7466869006	-0.4628819564	 1.2214072059	-0.070899
H	 0.8363948678	 2.043285514	-0.0006812693	 0.115487
H	-0.7218452329	 1.9158252986	-0.8342946406	 0.109561
H	-0.6594871891	 1.9100140836	 0.9351318264	 0.109569
H	-1.0344235347	-0.3815526257	 0.0641060308	 0.07836
H	-0.0267877239	-0.3042782518	-2.1289790055	 0.087336
H	 1.5444484606	 0.126688794	-1.4740084358	 0.095983
H	 0.0976563192	-2.5316961504	-0.9917922767	 0.089304
H	 1.4204485725	-2.315452955	-2.1283818714	 0.085111
H	 2.224855983	-4.355517167	-0.5700283178	 0.107843
H	 2.7066981463	-3.9899885703	 1.093576689	 0.106644
H	 0.9894955479	-4.0448732421	 0.6633766593	 0.112691
H	 3.5327525836	-0.8343104254	-0.7823293144	 0.114197
H	 4.1641205419	-2.0279907953	 0.3540151427	 0.108711
H	 3.7839853223	-2.5111993886	-1.3062740139	 0.106573
H	 2.1649511767	-1.7219974033	 2.1083962633	 0.07524
H	 0.5337896586	 0.0355011833	 2.1660878833	 0.077014
