21
gdb 42122	2.23111	1.60525	1.03229	1.4082	84.82	-0.2444	0.0253	0.2697	1198.1598	0.184597	-387.054256	-387.045677	-387.044733	-387.087065	33.361	
C	 0.1169129352	 1.279812827	-0.4101200876	-0.17721
C	 0.955371581	 2.5744361909	-0.3661998694	-0.197094
C	 1.169514967	 3.2513727249	 0.9936054209	-0.060681
O	-0.0481586461	 3.7633009607	 1.5387404424	-0.24512
C	-0.3805568887	 3.2840712473	 2.8378642168	-0.201622
C	-0.4771654986	 1.8230962998	 2.8130282589	 0.001333
C	-0.3647671019	 0.7000333281	 2.3893293126	 0.109117
C	-0.1166628241	-0.4492577481	 1.5304955334	-0.343373
C	 0.7194047588	 0.0444460405	 0.3136418864	-0.183485
H	-0.8761677894	 1.4980265243	-0.0059110774	 0.118603
H	-0.0334752807	 1.0321939131	-1.4667400969	 0.090979
H	 1.9522928072	 2.3775049548	-0.785810357	 0.090112
H	 0.484528117	 3.3090623674	-1.0309943839	 0.10417
H	 1.6445244239	 2.5589555445	 1.6973681961	 0.103193
H	 1.8537803821	 4.1003956603	 0.8565374721	 0.093888
H	 0.3600828302	 3.6128777205	 3.584500309	 0.113421
H	-1.3327777647	 3.7591237498	 3.0945042503	 0.132766
H	 0.4173798639	-1.251979763	 2.0519682171	 0.122112
H	-1.0650479288	-0.8786235617	 1.1827025515	 0.127582
H	 0.8241426825	-0.7926557735	-0.3852799257	 0.096561
H	 1.7300791641	 0.2741487525	 0.6700762104	 0.104749
