17
gdb 60829	4.03639	0.97637	0.91271	3.1632	65.46	-0.2677	-0.0402	0.2275	1281.5124	0.132982	-496.073868	-496.064624	-496.063679	-496.108619	33.019	
O	 0.2247352412	 1.5132287222	 0.0408843463	-0.435195
C	 0.0781457105	 0.1216847788	 0.0268885262	 0.028035
C	 0.6874827333	-0.4556443706	-1.2376685268	 0.145536
O	 1.1408393544	 0.2554399796	-2.0995814459	-0.257904
C	 0.7465226612	-0.5045834533	 1.2701629843	 0.064627
O	 2.1280540443	-0.2281620891	 1.2706749022	-0.435073
C	 0.0936575855	-0.0187855314	 2.5583966188	 0.070354
C	 0.826506153	-0.0593809924	 3.8277948727	-0.18633
O	 0.6569199636	 1.1700926536	 3.1075425954	-0.230575
H	 0.6176283315	 1.7409426282	-0.8175364232	 0.298662
H	-0.9903858898	-0.1698993642	 0.0233415896	 0.091002
H	 0.6807950929	-1.560463807	-1.3310877821	 0.100264
H	 0.6351732826	-1.5958452303	 1.2093733331	 0.097384
H	 2.1940093481	 0.7201137119	 1.4530962953	 0.300611
H	-0.9962241785	-0.0586337755	 2.5787527146	 0.098213
H	 0.2761628861	-0.126449267	 4.764223388	 0.119638
H	 1.8416506	-0.4479842534	 3.8362654615	 0.130751
