16
gdb 52365	6.19538	0.57983	0.5337	1.7222	75.79	-0.2655	-0.068	0.1975	1937.2006	0.12061	-437.855513	-437.845421	-437.844477	-437.893035	33.496	
N	-0.1874492279	 1.3243100431	 0.0109503181	-0.438249
C	-0.0863458051	 0.0667205966	 0.0037911313	 0.127694
O	-1.1961562177	-0.697605996	 0.0082397937	-0.189136
C	-0.9838720456	-2.1096666354	-0.0015712235	-0.084943
C	-2.3571299136	-2.7622584328	 0.0088684225	-0.316381
C	-2.2715698006	-4.2756822614	 0.0001337158	 0.226535
O	-1.2168699868	-4.8748698553	-0.0133697101	-0.29153
C	-3.5466551029	-4.9713746888	 0.0091732954	 0.242813
C	-4.6133650993	-5.5286704747	 0.0168703404	-0.373128
H	 0.7385809888	 1.7467056434	 0.0062390719	 0.230315
H	 0.8468817236	-0.513764996	-0.0061943503	 0.08886
H	-0.423100555	-2.4100548223	-0.8944305813	 0.126767
H	-0.4050764217	-2.4197416375	 0.8763463787	 0.126749
H	-2.9286414114	-2.4433776025	 0.8893512942	 0.152255
H	-2.9463171953	-2.4342790289	-0.856484041	 0.152259
H	-5.5470316997	-6.0374326216	 0.0235145141	 0.219121
