15
gdb 48606	2.60516	1.43084	1.09703	4.2573	71.5	-0.2718	-0.0606	0.2112	1085.5786	0.11268	-416.748606	-416.740828	-416.739884	-416.781606	28.335	
O	-0.6079960662	 0.7965203283	 0.6810111328	-0.231903
C	 0.3286711696	 0.7874745473	-0.0754836883	 0.031499
C	 1.4481905892	 1.7801469535	 0.0000720496	 0.248033
C	 1.8241647424	 2.767646673	 1.1328907929	-0.283469
C	 2.8957909835	 2.8946679254	 0.0151783126	-0.02579
N	 2.9087078643	 1.386327227	-0.1776400622	-0.343397
C	 1.7386531203	 2.9380852245	-1.0281435099	-0.180281
C	 2.0278275334	 2.5892957044	-2.4074270383	 0.287328
N	 2.2169546799	 2.3628887931	-3.5248085702	-0.320852
H	 0.429010799	 0.042341801	-0.8928886958	 0.112392
H	 1.1610517722	 3.6150316079	 1.3247930739	 0.118399
H	 2.163873704	 2.2994373418	 2.0587845452	 0.116549
H	 3.8109922358	 3.4848003625	-0.0032589769	 0.11503
H	 3.2363854159	 0.9410239847	 0.6853712946	 0.221884
H	 1.0653471967	 3.7937247056	-0.9659170501	 0.134577
