17
gdb 44370	3.35752	1.59288	1.31524	3.0159	70.21	-0.2298	-0.0131	0.2167	967.6082	0.137292	-421.814228	-421.807314	-421.80637	-421.846409	27.476	
O	-0.0270815962	 0.3097836907	-1.0685779401	-0.311139
C	 0.0001754421	 1.1344617053	-0.1861207112	 0.389183
C	-1.2841932104	 1.6287628452	 0.4786020172	-0.329912
C	-1.2376190535	 3.0696661784	 0.9779457524	-0.079808
C	-0.5328238002	 3.4287682187	 2.2530088794	 0.090318
O	 0.5148412663	 2.490741499	 2.5090931196	-0.306494
C	 1.1753529464	 2.8796969387	 1.2604829214	 0.096113
C	 1.329778598	 1.7025699519	 0.3150767487	-0.323321
C	 0.0538504693	 3.8714344208	 0.9401672196	-0.17082
H	-2.0907535435	 1.4835636748	-0.2434227302	 0.12759
H	-1.4811832477	 0.9475201421	 1.3175447285	 0.141369
H	-2.1217466172	 3.6683819057	 0.7786021779	 0.100745
H	-0.9569862145	 3.9636388382	 3.0942592416	 0.107185
H	 2.1351557292	 3.3525385167	 1.4913602566	 0.09115
H	 1.8754442971	 0.8920765031	 0.814156825	 0.14368
H	 1.9256121688	 1.9826030484	-0.560831789	 0.132786
H	 0.1610555163	 4.8465595924	 0.4863191826	 0.101374
