15
gdb 27572	3.26933	1.27437	0.92216	5.6038	82.67	-0.2711	-0.0626	0.2085	1205.4898	0.114241	-379.75398	-379.746149	-379.745205	-379.78735	28.378	
C	-0.049600367	 1.5014188851	-0.0123036244	-0.473368
C	 0.0064516237	-0.0026301921	 0.0228684425	 0.322217
N	-0.1159358612	-0.6282417133	-1.1525629818	-0.360431
C	-0.0712343552	-1.9654219117	-1.1628884012	 0.209763
C	 0.0956919257	-2.7515192316	-0.0200680649	-0.167853
C	 0.2222175007	-2.0954406277	 1.1976751474	-0.072042
C	 0.1773736182	-0.7072963415	 1.2211472857	-0.156742
C	-0.2064355922	-2.6061187169	-2.4472661663	 0.238459
N	-0.3117143073	-3.1531414412	-3.4608973044	-0.326806
H	 0.0578750048	 1.9340665797	 0.9848414297	 0.122601
H	 0.7445208122	 1.8946300762	-0.654385705	 0.150505
H	-1.0000476507	 1.8346135315	-0.4402721693	 0.150503
H	 0.1233836684	-3.8312180802	-0.0970860861	 0.129419
H	 0.3538586257	-2.659885437	 2.1144423975	 0.121992
H	 0.2732591741	-0.1666971293	 2.1561294206	 0.111784
