19
gdb 93041	2.77224	1.45241	1.10545	1.4337	75.21	-0.2511	-0.0047	0.2464	1113.2036	0.160516	-423.007484	-422.999559	-422.998615	-423.039698	31.508	
O	 0.1876494466	 1.2868560192	-0.3443396041	-0.431421
C	 0.0634260408	-0.0786290891	 0.0331434142	 0.134276
C	 0.8054892648	-0.3879097895	 1.3614271292	-0.280763
C	 0.0180104529	-0.0984219208	 2.6215566224	-0.071971
C	-1.0521190246	-0.8052249777	 2.990752105	-0.08827
C	-1.5566935718	-1.9503589076	 2.1800412456	 0.019057
O	-2.8601832447	-1.8337720793	 1.5872415934	-0.260568
C	-1.7165605282	-1.8129042496	 0.7222707466	 0.034453
C	-1.4229137789	-0.4858094719	 0.0496579399	-0.251844
H	-0.3298135223	 1.8111218613	 0.2770590611	 0.279458
H	 0.5881241317	-0.6219956171	-0.7606427998	 0.090372
H	 1.0881450837	-1.4471291064	 1.3494263712	 0.112508
H	 1.7371688531	 0.1837975813	 1.3466478536	 0.111244
H	 0.3541343088	 0.7219474611	 3.2513895805	 0.096117
H	-1.5808799056	-0.5803426495	 3.913892718	 0.099167
H	-1.3660633927	-2.9451173403	 2.5895605031	 0.096447
H	-1.6105231326	-2.7092252764	 0.110163891	 0.091165
H	-1.980596627	 0.2744339063	 0.606308514	 0.110582
H	-1.808230614	-0.475473244	-0.9747154249	 0.109991
