14
gdb 25188	2.60192	1.78698	1.11141	3.3339	77.9	-0.2322	-0.0793	0.1529	1019.0302	0.103341	-432.891883	-432.884617	-432.883673	-432.924304	27.091	
N	-0.0216331038	 1.2076193819	-0.5582417367	-0.424077
C	-0.0199585996	 0.0124789802	-0.1105197218	 0.15292
C	 1.2192680723	-0.6775935939	 0.3276011459	-0.068796
N	 1.5793058778	-1.9009145508	 0.2127182624	-0.215106
C	 0.7896469452	-2.9225049829	-0.2607758092	-0.040681
C	-0.558164255	-2.990818838	-0.314773208	 0.012903
N	-1.4751766891	-2.0136456384	 0.0073742396	-0.357181
C	-1.3849849666	-0.6252875915	 0.071166399	 0.384898
O	-2.3776874068	 0.0283282085	 0.2856704655	-0.319189
H	 0.9352271518	 1.57480953	-0.5891299382	 0.231763
H	 1.9588064341	 0.0064766636	 0.75429918	 0.123172
H	 1.3356372454	-3.8175491719	-0.5383966284	 0.118764
H	-1.0172019694	-3.9301852056	-0.6028335992	 0.13306
H	-2.4411628064	-2.3060460313	 0.078812769	 0.267548
