23
gdb 75158	2.75128	1.18457	0.93302	0.042	94.36	-0.2236	0.0265	0.2501	1378.0129	0.206056	-351.179894	-351.170449	-351.169505	-351.213857	36.493	
C	 0.0641345379	 1.5971209899	 0.0594332347	-0.462315
C	 0.0376475449	 0.0895693346	-0.026076413	 0.318594
C	 0.0187213814	-0.5127357317	-1.2199174311	-0.138749
C	-0.041266559	-1.988508354	-1.5644101432	-0.365634
C	-0.9309463387	-2.8536575264	-0.6858279353	 0.345432
C	-2.0007433671	-3.6441533984	-1.3877210058	-0.478507
C	-0.7471960897	-2.903280102	 0.6339341704	-0.155775
C	 0.3089357287	-2.1006499673	 1.3476145096	-0.266508
C	 0.0331786982	-0.5875764297	 1.3281857265	-0.264859
H	 0.9634496311	 1.9502191138	 0.5811599376	 0.117185
H	 0.0385189329	 2.0627473558	-0.9292017896	 0.115647
H	-0.7925879645	 1.9741902564	 0.6338682088	 0.118374
H	 0.0544360173	 0.1384089803	-2.0921222906	 0.072444
H	-0.3768729297	-2.0743760481	-2.6033213368	 0.097642
H	 0.9784994519	-2.4072507905	-1.5641111826	 0.11988
H	-1.568719102	-4.3086494157	-2.1479179662	 0.120052
H	-2.5766483409	-4.2571054506	-0.6889289283	 0.116853
H	-2.6983613063	-2.9820520415	-1.9174997948	 0.122658
H	-1.3989381811	-3.5298336099	 1.2390735027	 0.072819
H	 0.3870650063	-2.42766594	 2.3895342105	 0.092265
H	 1.2938285245	-2.2812079265	 0.8949438627	 0.104126
H	 0.7815570961	-0.0834830849	 1.9571401101	 0.093879
H	-0.9315691223	-0.3877579935	 1.8187181338	 0.104497
