13
gdb 20430	6.32925	1.58971	1.34143	1.7532	59.97	-0.247	-0.0192	0.2279	865.2679	0.097326	-394.745974	-394.739716	-394.738772	-394.77695	22.581	
C	-0.1937023697	 1.2913968455	-0.316189779	-0.22225
C	 1.234550751	 1.0406044816	 0.0403377229	-0.221901
N	 0.245221196	-0.0233719266	 0.1451318299	-0.136234
C	-0.1416835758	-0.4855763577	 1.3848324134	 0.414378
N	 0.7024768392	-0.7092013535	 2.3668775032	-0.201728
O	-0.1209341364	-1.2600486086	 3.3673827959	-0.15468
C	-1.351961738	-1.2816917708	 2.8622254867	 0.120369
N	-1.4534739691	-0.8259477935	 1.656450658	-0.312725
H	-0.787459011	 1.8902798944	 0.3686127414	 0.136611
H	-0.5018131861	 1.3320148583	-1.355775932	 0.134065
H	 1.975364198	 0.9032294596	-0.7405798379	 0.133226
H	 1.6077581236	 1.4642392381	 0.9680695853	 0.145345
H	-2.1366681617	-1.6716791067	 3.4945102921	 0.165525
