21
gdb 81591	3.38551	1.15676	1.00325	1.4043	82.29	-0.2507	0.0759	0.3265	1255.2718	0.183475	-387.014564	-387.006363	-387.005419	-387.047537	32.709	
O	-0.1516249794	 1.3516331844	-0.4483270987	-0.452718
C	-0.1105868327	-0.0153173542	-0.1504689162	 0.19712
C	 0.1308347648	-0.5333917661	 1.3023192242	-0.114105
C	-1.3384574236	-0.1275291748	 1.6234009987	-0.265692
C	-1.4042227848	-0.8148333581	 0.2264109868	-0.113863
C	-0.453329166	-1.9040730848	 0.8256428871	 0.035495
C	 0.3522247392	-2.8491762095	-0.0417585925	-0.044142
C	-0.2951606594	-4.1062719513	-0.5729563273	-0.274146
C	 0.1163863399	-3.0157483014	-1.5255005049	-0.253595
H	-0.6761256207	 1.8091867935	 0.2160309704	 0.280641
H	 0.5151077908	-0.4622279713	-0.9209707616	 0.092933
H	 1.0118501985	-0.380939625	 1.9289999882	 0.067855
H	-1.8206514936	-0.6563598366	 2.4498069814	 0.095622
H	-1.576897768	 0.9388548222	 1.680285053	 0.075091
H	-2.2941801482	-0.9751256063	-0.3854312992	 0.06927
H	-0.91735074	-2.4556883019	 1.6508436866	 0.070708
H	 1.3844099524	-2.967485719	 0.2803071416	 0.085733
H	 0.2739031824	-5.02925907	-0.5591133524	 0.108978
H	-1.3572694282	-4.2357786922	-0.3888492998	 0.109503
H	-0.6705902318	-2.4264466319	-1.9836692708	 0.118148
H	 0.9741519585	-3.1825600158	-2.1681709445	 0.111163
