18
gdb 9731	2.7443	1.90006	1.61646	2.8433	70.9	-0.2663	0.029	0.2954	901.9288	0.156072	-344.01249	-344.004427	-344.003483	-344.045219	29.981	
N	 0.1125037394	 1.5754809828	-0.3681286836	-0.541348
C	-0.049052888	 0.1807275612	 0.0471328879	 0.123747
C	 0.4780116453	-0.0543838911	 1.4822806703	-0.220483
C	-0.2401198503	-1.3292841066	 1.9711605652	-0.213025
C	-1.5517398561	-1.4258713137	 1.134256549	-0.212886
C	-1.5401598729	-0.2049340479	 0.1909804257	-0.220531
C	 0.6206110626	-0.7530104733	-0.8905901268	 0.246338
N	 1.1551886107	-1.4490418164	-1.6446982191	-0.350296
H	 1.1006183224	 1.8072674279	-0.4297388722	 0.239671
H	-0.2650990894	 1.7053856566	-1.3032399604	 0.23967
H	 1.5678118243	-0.1269625963	 1.5260967861	 0.109666
H	 0.1755512427	 0.8228815465	 2.0629564266	 0.117958
H	 0.3842536981	-2.2102483061	 1.8001764463	 0.120257
H	-0.434283963	-1.2838163276	 3.0454157192	 0.106684
H	-1.5665802383	-2.3551548293	 0.5586382631	 0.120166
H	-2.4462052219	-1.4290549906	 1.7617278701	 0.106732
H	-2.0329770212	 0.6587999318	 0.6484976287	 0.117983
H	-2.0222576746	-0.396093668	-0.771242646	 0.109696
