21
gdb 89534	4.09203	1.19092	1.10107	1.467	83.22	-0.2341	0.0965	0.3306	1199.8518	0.183235	-387.033844	-387.025932	-387.024988	-387.066439	31.762	
C	-0.7386960025	 1.3495129491	 0.1709001886	-0.396883
C	 0.0169636819	 0.0442681997	 0.0227616893	 0.143538
C	 0.8108674409	-0.1972122668	-1.2790413015	-0.411603
C	 2.0348385064	-0.2640988578	-0.3522309549	 0.551807
O	 1.2382972934	 0.0226698385	 0.8054645576	-0.353626
C	 3.0870472596	-1.4020364718	-0.3023301175	-0.125667
C	 3.7485337424	-0.7042832156	-1.526399167	-0.229089
C	 3.3921059439	 0.4535525976	-0.5484789361	-0.122472
C	 3.9325666572	-0.452400492	 0.6011511117	-0.232353
H	-0.112570989	 2.1965250055	-0.1269470183	 0.11793
H	-1.6390351072	 1.3438744063	-0.4535779657	 0.114132
H	-1.0448432221	 1.4988932036	 1.2110648227	 0.126474
H	-0.6254930071	-0.8005514281	 0.3052487965	 0.074264
H	 0.5720179997	-1.113391572	-1.8223951994	 0.10989
H	 0.8055954418	 0.6455064627	-1.9750097729	 0.10799
H	 2.9051531934	-2.4686732839	-0.1622891647	 0.068593
H	 4.8149426024	-0.8973189826	-1.6621754469	 0.094306
H	 3.2128890112	-0.7424527534	-2.4787877423	 0.092028
H	 3.56148997	 1.5218301086	-0.6920488427	 0.067715
H	 3.5475498851	-0.2567436701	 1.602128577	 0.116176
H	 5.0114274787	-0.6292034873	 0.6041856864	 0.086851
