21
gdb 41195	3.11588	1.69561	1.4227	1.6361	81.22	-0.2344	0.0848	0.3192	1002.9424	0.185806	-387.068857	-387.061829	-387.060885	-387.099743	29.964	
C	-0.0792564903	 1.5306376018	-0.0750169649	-0.247546
C	 1.4683556515	 1.6047548179	 0.165989625	-0.312376
C	 1.417921923	 0.1300965421	 0.5636941191	 0.462911
C	 2.3945360944	-1.0106597291	 0.4201980602	-0.300327
C	 1.5279946638	-2.3086792165	 0.4077630306	-0.203693
C	 0.2162122789	-2.1921881438	 1.240178153	-0.204544
C	-0.2699166672	-0.7351492361	 1.2968211312	 0.085228
O	 0.8230645499	 0.0113411361	 1.9042654766	-0.344863
C	-0.0119472092	-0.0311524089	-0.0338885406	-0.082437
H	-0.6706203767	 1.9683935801	 0.731066658	 0.112894
H	-0.4197750585	 1.9434304378	-1.0263902616	 0.09819
H	 2.0196845691	 1.7613839376	-0.7667727763	 0.098252
H	 1.8359446857	 2.2973489076	 0.9268402313	 0.106268
H	 2.9840958024	-0.9441969379	-0.5009830616	 0.091682
H	 3.0912077331	-0.998239758	 1.2653802232	 0.108399
H	 1.2597847306	-2.5178869177	-0.6333182935	 0.103398
H	 2.1134339864	-3.1683346942	 0.7462942064	 0.097779
H	-0.5519575961	-2.8524138119	 0.8195397233	 0.089907
H	 0.3862294567	-2.5081127817	 2.2751096707	 0.107694
H	-1.2164762712	-0.6076792628	 1.8342738448	 0.065067
H	-0.2227496962	-0.5513431024	-0.9689196349	 0.068118
