19
gdb 64679	4.6439	0.85607	0.81453	0.3097	89.09	-0.2428	0.0327	0.2755	1438.3212	0.155579	-348.680591	-348.67067	-348.669726	-348.715179	37.329	
C	-0.083583403	 1.7052939869	 0.195174742	-0.462246
C	-0.0629102711	 0.1970429661	 0.0678889733	 0.340241
C	-1.3763554059	-0.4252317666	-0.4113285203	-0.427754
C	-1.7479504025	-0.0164917168	-1.7632174497	 0.32395
C	-2.0389537819	 0.3291869977	-2.877066501	-0.456014
C	 1.2102649153	-0.4846311783	-0.338823436	-0.310571
C	 0.712295799	-0.6281530684	 1.0965635964	-0.269987
C	 1.4140913093	-0.0100956084	 2.1819897439	 0.325749
C	 1.9987302563	 0.4995993261	 3.1021927541	-0.446882
H	 0.8697192895	 2.0840473017	 0.5696248705	 0.129564
H	-0.2858176866	 2.1654612267	-0.7768817091	 0.131333
H	-0.8660888346	 2.028233604	 0.8914419156	 0.118495
H	-1.2990994707	-1.519196706	-0.3755591869	 0.12731
H	-2.1811722821	-0.1526865098	 0.2848869975	 0.133719
H	-2.3035077143	 0.6285614173	-3.8608151037	 0.196847
H	 1.1554075951	-1.3636950995	-0.9720136579	 0.11945
H	 2.0899480291	 0.1295694525	-0.4930143948	 0.124801
H	 0.272904801	-1.5916631735	 1.3423035169	 0.108467
H	 2.5159314583	 0.9485138982	 3.913310909	 0.193528
