21
gdb 88054	2.24521	1.28831	1.02347	2.8998	83.66	-0.2416	-0.0196	0.222	1276.8473	0.180946	-387.079302	-387.069814	-387.06887	-387.114927	34.73	
C	-0.1111477163	 1.393691427	-0.2133109514	-0.406473
C	 0.1393537358	-0.0925550386	-0.0895068728	-0.057638
C	 1.5463106315	-0.6377248374	-0.0477301449	-0.347577
C	 0.6895143474	-0.6799942059	 1.1866234829	 0.344527
C	 0.957698745	 0.031971401	 2.5198661262	-0.301776
C	 0.5575114658	-1.2759064287	 3.2626083554	-0.240149
C	 0.2150398402	-1.9706712554	 1.9028021305	-0.163364
C	-1.2479329277	-2.2580946609	 1.7037976081	 0.172587
O	-1.700588095	-3.255942841	 1.2025905783	-0.264535
H	 0.6376768407	 1.9695443511	 0.3402033018	 0.116852
H	-0.066524122	 1.7137025777	-1.259892804	 0.121883
H	-1.0973764221	 1.6689203972	 0.1771551208	 0.117859
H	-0.5825083736	-0.7164789871	-0.6126560282	 0.095826
H	 1.7595163182	-1.5712626531	-0.5590590225	 0.116728
H	 2.3662180605	 0.0755865485	-0.0571251911	 0.109847
H	 1.9891738466	 0.3586085219	 2.6779953917	 0.104444
H	 0.297193316	 0.8801800832	 2.7239617976	 0.10464
H	 1.3736135454	-1.763963993	 3.7971950309	 0.115952
H	-0.290197179	-1.1782429941	 3.9462678742	 0.107571
H	 0.7899945298	-2.8694962455	 1.6689975106	 0.087755
H	-1.9208869474	-1.4370198967	 2.0517237361	 0.065042
