22
gdb 10077	3.18331	1.1531	0.95256	2.7274	78.7	-0.2472	-0.0192	0.2279	1299.7871	0.197933	-350.225572	-350.215385	-350.214441	-350.261525	35.862	
C	 0.1954044596	 1.0668291889	 0.5707482192	-0.394534
C	-0.114237765	-0.4165557668	 0.3452592983	-0.17064
C	-1.564693756	-0.713646612	-0.0840540177	 0.020352
C	-1.977539042	-0.0421651006	-1.4142869159	-0.188
C	-1.242552539	-0.5316519472	-2.6683174919	-0.384906
C	-1.7996306214	-2.2432929087	-0.106999433	-0.282705
C	-3.2363434205	-2.6009142754	-0.3991805884	 0.157569
O	-3.6120155736	-3.2623000819	-1.3337494878	-0.24563
H	 1.209754372	 1.1951908444	 0.9610826568	 0.115165
H	 0.1259374853	 1.6477171418	-0.3538072235	 0.12248
H	-0.4970877583	 1.5106487541	 1.2949744963	 0.114413
H	 0.5806237161	-0.8288924152	-0.3970469517	 0.10166
H	 0.0846221296	-0.9652354875	 1.2746998394	 0.093129
H	-2.2222853316	-0.2970134692	 0.6940507071	 0.072069
H	-3.0546675888	-0.1929216515	-1.5599639336	 0.103827
H	-1.8453579934	 1.0407732822	-1.3139540256	 0.098259
H	-0.1580186252	-0.4054341848	-2.5867730629	 0.115563
H	-1.4461034364	-1.5877309937	-2.8682674253	 0.134638
H	-1.571467501	 0.0344319324	-3.5450981121	 0.116175
H	-1.1584236047	-2.7410259088	-0.8398933935	 0.120345
H	-1.554849634	-2.6478928818	 0.8854446636	 0.112027
H	-3.9686180417	-2.1877950987	 0.3359452222	 0.068744
