21
gdb 105970	4.02826	1.11997	1.1162	0.168	86.7	-0.2132	0.088	0.3011	1240.4164	0.181084	-349.857693	-349.849051	-349.848107	-349.89074	33.829	
C	 0.1551667701	 1.5287307718	-0.1769234471	-0.371556
C	-0.0848784159	 0.0382109335	 0.1012576272	-0.32621
C	 0.6571399121	-0.4680187755	 1.2971108664	 0.398911
C	 2.1288088638	-0.8339412014	 1.4648881303	-0.146291
C	 2.0631060082	-0.4470811111	 2.9703048879	-0.143522
C	 0.5922074701	-0.0768142658	 2.8116934952	-0.223748
C	 0.9828748199	-1.4967117339	 3.2029511535	 0.368111
C	 0.6481879391	-2.2910237097	 4.4217957033	-0.522972
C	 1.0482727109	-1.8863112558	 1.6896387214	-0.242492
H	 1.2157376479	 1.7265174612	-0.3620348801	 0.117885
H	-0.4118828198	 1.8639922536	-1.0509076852	 0.108261
H	-0.1521411471	 2.1424440776	 0.6764807204	 0.117654
H	-1.1611175235	-0.1415842818	 0.2327098135	 0.098289
H	 0.2161431494	-0.5547327609	-0.7728390636	 0.097996
H	 2.9303493477	-0.8171978074	 0.7374742617	 0.07901
H	 2.8002892549	-0.0550313246	 3.6593295721	 0.079218
H	 0.0007879004	 0.6479484555	 3.3576321146	 0.076949
H	-0.3679725014	-2.7004413063	 4.3694069453	 0.118597
H	 1.3399688056	-3.130916737	 4.5586825661	 0.119227
H	 0.7066210615	-1.6636616934	 5.3184490696	 0.119342
H	 0.871531286	-2.8173784287	 1.1651329475	 0.07734
