22
gdb 119061	2.21654	1.27882	1.08378	1.8995	79.	-0.2225	0.0573	0.2798	1259.3094	0.193192	-441.445602	-441.435493	-441.434549	-441.480628	37.695	
C	 0.1797965751	 0.9941133807	-0.5740393307	-0.308158
N	 0.7245970462	-0.3452236506	-0.3798548757	-0.111512
C	 2.1411788321	-0.4678136243	-0.0598748181	-0.303982
C	 1.0999248567	-0.8025553374	 0.9627272156	 0.307808
C	 0.9571946413	 0.1295353635	 2.1616445586	-0.143958
O	-0.3834361229	 0.4252820827	 2.4963350279	-0.43217
C	 0.7774702562	-2.2792627686	 1.1909407113	-0.253437
C	-0.7061236293	-2.6250743466	 1.2661085794	-0.088941
O	-1.2335166242	-2.2093335891	 2.5345582085	-0.414914
H	 0.7304342028	 1.7896263562	-0.0511634882	 0.103071
H	 0.1964544473	 1.2220439776	-1.6449074773	 0.113631
H	-0.8536858593	 1.0174740592	-0.221157084	 0.132977
H	 2.6875373882	-1.2569711159	-0.5725021366	 0.105146
H	 2.7098996849	 0.4504879633	 0.0868787855	 0.102936
H	 1.5002364479	-0.3169887796	 3.0119202868	 0.084045
H	 1.4381796511	 1.088927053	 1.9518292095	 0.098151
H	-0.8178457598	-0.4224254261	 2.6882667433	 0.28895
H	 1.1905203977	-2.8503508355	 0.3532539861	 0.104989
H	 1.2730402991	-2.6392430283	 2.1014828869	 0.10503
H	-1.2347048288	-2.1330596313	 0.4390905161	 0.116901
H	-0.8337465289	-3.7110628315	 1.1603502939	 0.097232
H	-2.1842259733	-2.3581171713	 2.5312085313	 0.296205
