21
gdb 115066	3.06179	1.29574	1.0135	0.7798	84.16	-0.2253	0.0211	0.2464	1233.0118	0.183797	-387.081271	-387.072776	-387.071832	-387.114482	32.879	
C	-0.1972228387	 1.2957983712	-0.0473401659	-0.23633
O	 0.0455723535	-0.0913037593	-0.0347515168	-0.246558
C	 0.7420271986	-0.5608979513	 1.1139560366	 0.122904
C	-0.1634175441	-0.5831883625	 2.3645034125	-0.295204
C	 0.3787606139	-1.4425410861	 3.4785078848	-0.08662
C	 1.1849538161	-2.4811156883	 3.2530605353	-0.043095
C	 1.6095047459	-2.8807614609	 1.8895101693	-0.082484
C	 0.5384133827	-3.1839169704	 0.8493690593	-0.283165
C	 1.3280623701	-1.9096414007	 0.7629749474	-0.039396
H	 0.7316398275	 1.8730957311	 0.0879602005	 0.10064
H	-0.6210293	 1.5395582942	-1.0251122417	 0.124833
H	-0.9115440575	 1.6109680838	 0.7275246745	 0.104438
H	 1.5863087637	 0.1204929668	 1.3177389545	 0.064007
H	-0.3169044169	 0.4398684544	 2.7244793939	 0.101497
H	-1.1551295225	-0.9398398406	 2.051792607	 0.120164
H	 0.0646307213	-1.2051938533	 4.4909570706	 0.084987
H	 1.5403206895	-3.086718759	 4.0823277401	 0.08607
H	 2.5221505378	-3.4642789887	 1.8264780259	 0.082723
H	 0.7427947631	-3.9550653365	 0.1146670948	 0.11119
H	-0.4932925022	-3.1409919641	 1.1792062979	 0.120887
H	 2.0664987682	-1.8595404297	-0.0311384503	 0.088512
