17
gdb 53231	2.79389	0.92194	0.84881	1.2237	79.37	-0.2405	-0.0336	0.2069	1467.5056	0.132324	-421.801006	-421.791092	-421.790148	-421.838103	33.706	
C	-0.079378094	 1.4047929001	 0.3140601097	-0.50007
C	-0.0101319788	-0.0407057025	 0.1703823719	 0.0899
C	 0.0536913821	-1.2378434859	 0.0537720841	 0.092892
C	 0.0938896385	-2.6751485835	-0.0954340841	-0.187052
O	 0.3592519169	-3.4145678112	 1.1293916929	-0.297218
C	-0.8717517077	-4.1785862684	 1.0785673641	 0.032627
C	-1.7559412271	-3.9960006172	 2.3000983439	-0.401303
C	-1.2677678516	-3.4249351049	-0.1961357086	 0.329533
O	-2.2048032786	-3.3987155561	-0.9276797895	-0.267898
H	 0.5705290238	 1.9086848864	-0.409335187	 0.1541
H	-1.1004413086	 1.7705544957	 0.1607447062	 0.155313
H	 0.2370659642	 1.7118448175	 1.3168510049	 0.156746
H	 0.7886009419	-2.9746772671	-0.8934063638	 0.127599
H	-0.6714339327	-5.243749552	 0.8930498602	 0.107447
H	-1.9760595644	-2.9380975329	 2.4652952747	 0.135343
H	-2.69711797	-4.5371753999	 2.1626388386	 0.135194
H	-1.253816434	-4.3900775981	 3.1882170216	 0.136845
