17
gdb 3593	4.94053	2.04791	1.76532	1.6213	64.11	-0.2616	0.0883	0.35	774.9869	0.148152	-309.683859	-309.676681	-309.675736	-309.714988	26.616	
C	 0.2467431731	 1.557091357	-0.0666644244	-0.417826
C	 0.0831693637	 0.055457525	 0.0340042987	 0.006649
C	 1.2825395829	-0.8618091743	-0.002077256	-0.300812
C	 0.4854446554	-0.7215799618	 1.270957443	-0.040891
C	 1.0792626263	-0.0544991053	 2.4728557334	 0.0646
C	 2.3580703087	-0.4895349799	 3.0548860805	-0.17578
O	 2.2702650133	 0.7170143658	 2.2934040589	-0.227679
H	 1.1549671566	 1.8947009779	 0.4374744989	 0.147938
H	 0.3065385972	 1.8688085637	-1.1154451006	 0.113015
H	-0.6039857545	 2.0808398958	 0.3843474084	 0.110634
H	-0.8053661855	-0.326674127	-0.4633028499	 0.080751
H	 1.2220962183	-1.7925309915	-0.5551919699	 0.105168
H	 2.2581496612	-0.3872231663	-0.0096497158	 0.12771
H	-0.1640603882	-1.5522928298	 1.5381771122	 0.085275
H	 0.3610196034	 0.4125508619	 3.1498401077	 0.091603
H	 2.5482723537	-0.3544066406	 4.1185382433	 0.113741
H	 2.9071532143	-1.2993942106	 2.5773912816	 0.115904
