19
gdb 65161	2.74977	1.20774	1.06245	4.5928	80.59	-0.2629	0.0153	0.2782	1211.7551	0.159197	-382.043863	-382.034944	-382.034	-382.077797	33.599	
C	 0.0945537921	 1.5208265317	-0.0584261516	-0.486228
C	 0.0729356351	 0.0042368598	-0.0382362856	 0.369289
C	 1.1829397406	-0.7479387289	-0.7391386537	-0.29345
C	 1.1462267447	-0.7034666542	 0.7664914746	-0.306971
C	-1.2705888676	-0.6707417736	-0.0460278089	-0.078174
N	-2.4473609144	 0.0703981963	 0.3972785732	-0.32242
C	-2.3971767445	-0.3871224108	-1.0046225235	-0.199819
C	-2.3470258346	 0.6166600858	-2.0394344002	 0.341801
N	-2.3204113535	 1.382110475	-2.9058652477	-0.343483
H	 1.1258275506	 1.8792752287	 0.0120725553	 0.109204
H	-0.3352516985	 1.9254178107	-0.9783206411	 0.15029
H	-0.4708346396	 1.9285516808	 0.7837544744	 0.133603
H	 0.9407152306	-1.6862766337	-1.2277865129	 0.110837
H	 1.9342216047	-0.1622340905	-1.2570751391	 0.121345
H	 1.8721843215	-0.0853115432	 1.2829424116	 0.117443
H	 0.8819475339	-1.6121537759	 1.2981056185	 0.108254
H	-1.220533874	-1.7256988042	 0.2263213496	 0.091792
H	-3.0891514517	-0.5091215971	 0.9306071509	 0.246897
H	-3.0052232454	-1.2438160268	-1.2862749838	 0.12979
