23
gdb 68404	2.13095	1.80852	1.50545	1.2291	84.65	-0.2545	0.0719	0.3265	1055.2702	0.206082	-388.294044	-388.28521	-388.284265	-388.326355	36.431	
C	-0.0398856344	 1.512697856	 0.0412082146	-0.51262
C	 0.0218230604	 0.0020311171	 0.0456915129	 0.343265
C	 0.8648020501	-0.798967516	-1.0005959824	-0.263035
C	 0.7382016643	-1.9350734177	 0.0500503198	-0.022775
C	 0.8096424339	-0.8128894816	 1.1208095068	-0.275304
C	-0.7708374751	-2.237576136	 0.0204889145	-0.271427
C	-1.3271595625	-0.7688297367	-0.0208303275	 0.393777
C	-2.3166867021	-0.4437019798	 1.0975482584	-0.469785
O	-1.9216234438	-0.4487567153	-1.281923369	-0.489203
H	 0.9639593452	 1.9470934363	-0.0056301941	 0.10728
H	-0.6075201	 1.8695441618	-0.8237647094	 0.131958
H	-0.5243676046	 1.9001336719	 0.9447393666	 0.110731
H	 0.4330003815	-0.9502116685	-1.9911917279	 0.104515
H	 1.8844267827	-0.4124083288	-1.0784710383	 0.085877
H	 1.418645483	-2.7870553184	 0.0637128446	 0.054758
H	 1.8212655217	-0.422206854	 1.2582647525	 0.093319
H	 0.3486525742	-0.9915953266	 2.0972380036	 0.082885
H	-1.0779618794	-2.7881256113	-0.8736518493	 0.091366
H	-1.104485221	-2.7931444526	 0.9033251856	 0.086915
H	-1.8799116929	-0.5835407016	 2.090001898	 0.118658
H	-2.6666083739	 0.5891324645	 1.0124840087	 0.123319
H	-3.19162916	-1.1030338852	 1.0335091401	 0.103369
H	-2.7751546376	-0.8914192875	-1.3278303187	 0.272157
