20
gdb 67621	2.85341	1.70246	1.4187	1.579	82.05	-0.2152	0.086	0.3012	1021.4787	0.171557	-365.970914	-365.963135	-365.962191	-366.002584	31.506	
C	-0.0710569717	 1.5211284075	 0.0500724942	-0.517318
C	 0.0316911763	 0.0277802012	 0.0057465006	 0.357875
C	-0.0139599444	-0.8503751229	-1.2261342272	-0.139567
C	 1.0324964759	-1.9393555848	-1.0955264003	-0.177815
N	 1.0607416682	-2.157428335	 0.3576970771	-0.162642
C	 0.7737330956	-0.8768981492	 1.0360609238	-0.190983
C	-0.2846101446	-1.9197936223	 0.9191362426	 0.356476
C	-0.8983904635	-2.8725290951	 1.8943568421	-0.515131
C	-1.0383195773	-1.0421745043	-0.1273418927	-0.201135
H	 0.9041820204	 1.9940306658	-0.1195684363	 0.119956
H	-0.7569115043	 1.8913378939	-0.7187713162	 0.11976
H	-0.443010188	 1.870336545	 1.0202933864	 0.120228
H	-0.3122270024	-0.4284625874	-2.1788877768	 0.085228
H	 0.7544761861	-2.8686805293	-1.6039329913	 0.103204
H	 2.0238364929	-1.6291059467	-1.442765039	 0.10318
H	 1.3929840986	-0.5549472265	 1.8655569104	 0.084239
H	-1.6630189605	-2.3761224301	 2.5017972065	 0.118162
H	-1.3761332528	-3.7129555406	 1.3764240091	 0.11998
H	-0.1333384046	-3.2771212957	 2.5621817493	 0.132427
H	-2.1088480597	-0.9403110035	-0.2432309423	 0.083876
