18
gdb 10531	2.83385	1.56318	1.15093	2.3821	64.62	-0.255	0.0667	0.3217	1077.1499	0.151807	-422.032815	-422.023858	-422.022914	-422.066643	31.759	
C	 0.2240794892	 1.3742738642	 0.2030297186	-0.230687
O	 0.1809921844	-0.0359525527	 0.1667097821	-0.252012
C	 0.5491485221	-0.5669038777	-1.0963780239	-0.142496
C	 0.5545697334	-2.0792662479	-1.0137489917	 0.379467
C	-0.5530149853	-2.7001024688	-0.1685205236	-0.144464
O	-1.7987816808	-2.0531315245	-0.3479383634	-0.422313
C	 1.1980994265	-2.8296387238	-2.0985610803	-0.230717
O	 1.8327577912	-2.6992676511	-0.8230295448	-0.271389
H	 1.2400818682	 1.7489961028	 0.0100096855	 0.115939
H	-0.4562536795	 1.8218616556	-0.5379286703	 0.110366
H	-0.0847632738	 1.684573486	 1.2036911251	 0.133894
H	-0.1700362075	-0.2374264472	-1.8632755119	 0.105532
H	 1.550738356	-0.2201160975	-1.3899456049	 0.107858
H	-0.6871029892	-3.7492581303	-0.4473807173	 0.111181
H	-0.228275237	-2.6744483001	 0.8809885593	 0.111762
H	-1.696283649	-1.183263655	 0.0574754252	 0.290056
H	 0.8343869023	-3.8259222148	-2.346276746	 0.117373
H	 1.6867681788	-2.3006432173	-2.9171648777	 0.110651
