20
gdb 17252	4.0716	1.82446	1.79992	0.2069	78.41	-0.2572	0.1009	0.3581	857.0914	0.180118	-311.847382	-311.84089	-311.839946	-311.87759	27.563	
C	-0.0418066382	 1.4746950442	-0.0185444737	-0.342431
C	 1.2819165742	 0.7361153425	-0.0097595347	-0.342431
C	-0.010894203	-0.0254746934	-0.019374749	 0.443577
C	-0.5054223169	-0.89776492	 1.1590631037	-0.298271
C	-1.1388527233	-2.0428115117	 0.3396253419	-0.014126
C	-0.0570256004	-2.2989688327	-0.7523190003	-0.22355
C	-0.4727447676	-0.8673343602	-1.2056254387	-0.08191
C	-1.9138977723	-1.262928073	-0.7646344699	-0.223549
H	-0.346846537	 1.9838846381	 0.8905465442	 0.106031
H	-0.331638334	 1.9871031286	-0.9310884572	 0.106313
H	 1.879397734	 0.7534570162	-0.9164105659	 0.106314
H	 1.8661941886	 0.7490951138	 0.9052386782	 0.106031
H	 0.3112703282	-1.2466422683	 1.7996107643	 0.094639
H	-1.2376756727	-0.3824093947	 1.7893168547	 0.09464
H	-1.5981381725	-2.8593376795	 0.8982141702	 0.056629
H	 0.9769812306	-2.4568463469	-0.4314709801	 0.088658
H	-0.3562317416	-3.0702892933	-1.4660268645	 0.091602
H	-0.2519150398	-0.4834016414	-2.2029910557	 0.051576
H	-2.4059107034	-1.9266771467	-1.4796160885	 0.091601
H	-2.5944920531	-0.4641435217	-0.4551608991	 0.088657
