17
gdb 98881	4.06755	0.9929	0.92071	3.3198	70.82	-0.2409	-0.0343	0.2066	1289.2584	0.13463	-458.967967	-458.959316	-458.958371	-459.002464	30.94	
O	-0.020239503	 1.4258400584	-0.063999407	-0.418934
C	 0.026927017	 0.0461196985	 0.1357761741	-0.137525
C	-1.3583903506	-0.5760094145	 0.0329355232	 0.34361
O	-2.327174895	 0.1344609973	-0.1027424807	-0.313622
C	-1.4604511775	-2.1090218729	 0.0888991387	-0.028966
O	-2.7343896867	-2.5212251803	 0.5383809144	-0.252234
C	-3.4747878577	-3.0983990971	-0.538368221	-0.11488
C	-2.482265904	-3.234297325	-1.6577671335	-0.083064
C	-1.3246341337	-2.6893195816	-1.3039700148	-0.100491
H	-0.9658789521	 1.6369290155	-0.1292781131	 0.295178
H	 0.6946166937	-0.4381174463	-0.5960542788	 0.11485
H	 0.4307681262	-0.209952966	 1.1317023332	 0.118629
H	-0.6890763539	-2.4857442492	 0.7792445237	 0.101271
H	-3.8866986026	-4.0631119227	-0.2106568033	 0.114383
H	-4.3202366899	-2.4497890654	-0.8124049922	 0.124206
H	-2.7128906919	-3.7080277116	-2.6031955361	 0.117913
H	-0.4203354084	-2.6191186472	-1.8933227568	 0.119675
