22
gdb 60212	3.70969	0.95811	0.84562	2.0836	83.41	-0.2246	0.0776	0.3022	1454.8844	0.193013	-404.296951	-404.287505	-404.286561	-404.331858	35.605	
C	-0.0166517395	 1.5437758693	 0.0429387868	-0.38844
C	-0.0012790727	 0.0199795733	-0.010191989	 0.149847
C	 0.592551202	-0.5941417509	 1.2611750786	-0.387878
O	-1.3497916952	-0.3856233734	-0.2266111965	-0.263937
C	-1.5382151504	-1.6979943118	-0.6639949338	 0.176442
C	-1.7783016822	-2.8769425889	 0.3669218782	-0.261455
C	-3.0919440195	-3.1623924489	-0.3644262568	-0.054438
N	-3.9101113744	-1.9430968847	-0.1792450902	-0.320504
C	-2.905934333	-1.9922754308	-1.2714278795	-0.095924
H	 0.9972008017	 1.9375785568	 0.161870819	 0.108734
H	-0.4472288293	 1.9530022679	-0.8746065269	 0.119299
H	-0.6232029404	 1.8864614128	 0.8871592791	 0.125389
H	 0.6054966282	-0.302937516	-0.8744325608	 0.060412
H	 0.6306516501	-1.6853419747	 1.2024610189	 0.117661
H	 1.6138566657	-0.231734689	 1.4182225315	 0.109809
H	-0.0109546669	-0.317719402	 2.1316796696	 0.124103
H	-0.7453843091	-1.9878360812	-1.3703310491	 0.065517
H	-1.027550767	-3.6668152586	 0.2944147144	 0.095803
H	-1.90656861	-2.5657494476	 1.4051530386	 0.113242
H	-3.5480782154	-4.1220694373	-0.5705064734	 0.09253
H	-4.8143681229	-2.1155376329	-0.6190135766	 0.226334
H	-3.2072967599	-1.8425638114	-2.3013118221	 0.087456
