21
gdb 106688	2.40425	1.45016	1.16649	1.6219	82.44	-0.2484	0.07	0.3184	1162.1338	0.182244	-387.044909	-387.035965	-387.035021	-387.078456	34.618	
C	 0.0599927875	 1.4961970352	 0.0750724994	-0.491078
C	-0.006394068	-0.0070480839	 0.0757237062	 0.289494
C	 1.175736858	-0.8867318352	-0.2496922937	-0.381664
C	 0.5380045965	-1.0208808411	 1.1135427655	 0.277334
C	 1.2887871382	-0.7618894707	 2.387982391	-0.170927
O	 2.1739738347	-1.8193025921	 2.7486169702	-0.414021
C	-0.7444505095	-1.8204103376	 0.9973790521	-0.126668
C	-1.9434751224	-0.9653148451	 1.3179260467	-0.297563
C	-1.2825874133	-0.8156769922	-0.028180903	-0.103949
H	 1.0364250427	 1.8567924341	 0.414405011	 0.118619
H	-0.1007193129	 1.8941381806	-0.9342838918	 0.121122
H	-0.7054995158	 1.9312701537	 0.7270385625	 0.117274
H	 1.0830946903	-1.6894962449	-0.9766629852	 0.101451
H	 2.1417796435	-0.3889121673	-0.261410327	 0.110403
H	 1.9253995538	 0.1228759574	 2.2787301918	 0.104548
H	 0.5788886389	-0.553004446	 3.2046551605	 0.084277
H	 1.6448133496	-2.6174677273	 2.8452712987	 0.28082
H	-0.8132838431	-2.9018442382	 0.9407866449	 0.081716
H	-2.9003081007	-1.4795665815	 1.3147247653	 0.108399
H	-1.8683899176	-0.1718953381	 2.0572862405	 0.106641
H	-1.8107358303	-1.0395097798	-0.9489585654	 0.083769
