16
gdb 126048	3.87621	1.17703	1.06041	3.0819	71.84	-0.2652	-0.0268	0.2385	1149.5613	0.125659	-434.043717	-434.036011	-434.035067	-434.076658	28.183	
C	-0.0036584129	 1.535842189	-0.2508847464	-0.411301
C	 0.0170423159	 0.0522640501	 0.017391339	 0.012384
N	 1.3018640657	-0.6382201755	-0.0711610523	-0.321872
C	 0.6303782977	-0.5779361529	 1.2382041419	-0.174184
C	 1.2853299803	 0.1698915444	 2.3213590161	 0.484069
N	 1.0969377566	-0.0086024576	 3.5998719403	-0.328018
C	 1.923006179	 0.9437107225	 4.1386003091	 0.035132
N	 2.5829163191	 1.6666624515	 3.2768444369	-0.112597
O	 2.1579008875	 1.1468886748	 2.0454149611	-0.196038
H	 0.8960079934	 2.0183681614	 0.133166488	 0.156777
H	-0.0561753263	 1.718442113	-1.3292307114	 0.126961
H	-0.8804933607	 1.9990321389	 0.2132581361	 0.12371
H	-0.8576924949	-0.4866836673	-0.3469881648	 0.09736
H	 1.2038725492	-1.569211784	-0.4664703238	 0.243866
H	 0.1378293407	-1.4662311251	 1.6223600887	 0.116756
H	 2.0372066897	 1.1005318768	 5.2014798616	 0.146994
