17
gdb 23032	3.98503	1.0419	0.83888	0.9948	76.97	-0.2379	-0.0357	0.2022	1339.0388	0.135493	-455.124535	-455.115535	-455.11459	-455.159315	31.595	
C	-0.0361827923	 1.5052557386	 0.0125482363	-0.484453
C	 0.1113825839	 0.0109004173	-0.0013816688	 0.263731
N	 0.2364030434	-0.7268432848	 1.0418961528	-0.163257
O	 0.2182317118	 0.0374132631	 2.202424085	-0.37935
C	 0.1174156015	-0.6956137904	-1.2921999997	 0.396184
N	 0.003512542	-0.1122241237	-2.4215178621	-0.321566
C	 0.0573836265	-1.1651296075	-3.4421138757	-0.188831
C	 0.228154119	-2.4803619123	-2.6389655691	-0.113231
O	 0.2530341676	-2.0455645586	-1.2621686249	-0.249644
H	 0.8261736456	 1.9624937283	 0.5079445563	 0.144204
H	-0.1240062694	 1.8850507957	-1.0036251531	 0.15738
H	-0.9189481777	 1.7893109714	 0.594077191	 0.144203
H	 0.3186335249	-0.630271453	 2.8901851193	 0.313601
H	-0.8601836827	-1.151749529	-4.0403581374	 0.12005
H	 0.8910675829	-0.9776525402	-4.1275582434	 0.120048
H	-0.6032036258	-3.180179438	-2.7617451734	 0.120469
H	 1.1649144487	-3.0040091268	-2.8493516431	 0.120462
