17
gdb 128468	3.82288	1.04108	0.86683	3.9326	70.63	-0.2649	-0.036	0.2289	1317.3163	0.134166	-455.112106	-455.103185	-455.102241	-455.146697	31.389	
C	 0.0412785536	 1.3922061639	 0.0214843987	-0.237226
O	-0.1089125145	-0.0054589642	-0.0991262725	-0.251804
C	 0.6506881979	-0.5948646342	-1.1428896432	 0.022481
C	 2.1416954269	-0.7167889976	-0.8049174174	-0.405749
C	 0.0264070522	-1.9354452954	-1.3836754875	 0.250186
C	-1.0508543302	-2.5248959671	-0.8049207075	-0.037324
O	-1.2276554735	-3.7282489288	-1.3483312521	-0.163799
N	-0.196657105	-3.8835738231	-2.3207330593	-0.006434
N	 0.5020810629	-2.8365894424	-2.3101343349	-0.193537
H	 1.0548667977	 1.6815750148	 0.3311374256	 0.115102
H	-0.1944456419	 1.9066082708	-0.9226733437	 0.1111
H	-0.6630871895	 1.7222095594	 0.788481927	 0.132837
H	 0.5454197483	 0.0113000388	-2.0591629184	 0.089982
H	 2.6585226913	-1.2589691539	-1.6010180145	 0.147042
H	 2.6051547063	 0.26822724	-0.705139028	 0.118876
H	 2.2686266171	-1.2649824555	 0.1328469276	 0.129695
H	-1.7364921594	-2.2108649954	-0.0377259801	 0.178571
