15
gdb 131671	2.77538	1.45175	0.95879	2.9634	72.93	-0.2381	-0.0686	0.1695	1144.4706	0.112548	-453.922261	-453.914204	-453.91326	-453.955204	29.505	
O	 0.0110464679	 1.4078484001	-0.0470059108	-0.42169
C	-0.007299494	-0.0041515792	-0.0960983448	-0.162388
C	-1.421767764	-0.4822546993	 0.0122209074	 0.209448
C	-2.4879148842	 0.3295810418	 0.1359581842	-0.207543
C	-3.7951367144	-0.2626481398	 0.2306742236	 0.03213
N	-4.0463833506	-1.5250132899	 0.2076512581	-0.072004
O	-2.9449772422	-2.3710466232	 0.0795612141	-0.284472
C	-1.6387893285	-1.9238014123	-0.0202928823	 0.369256
N	-0.6804436085	-2.7514747578	-0.1350203264	-0.534883
H	 0.9241833636	 1.6983135714	-0.1177652067	 0.298147
H	 0.4212022951	-0.3985553479	-1.0306358689	 0.130454
H	 0.5763459185	-0.4613627078	 0.7180562385	 0.130455
H	-2.3689659035	 1.4047430627	 0.1640060721	 0.143119
H	-4.6824154205	 0.3553660351	 0.3315772949	 0.140127
H	-1.0253819946	-3.712307144	-0.1389078731	 0.229843
