17
gdb 41597	2.96222	1.81962	1.70949	2.0881	65.8	-0.2394	0.0549	0.2943	868.5627	0.138378	-458.9131	-458.906503	-458.905559	-458.944183	25.997	
C	 0.227605896	 1.5750229942	-0.1360484524	-0.092673
O	 1.5577224358	 1.4104437037	 0.4283221626	-0.290564
C	 1.3197422407	 0.017361798	 0.7106014586	 0.064624
C	-0.0343635654	 0.069070043	-0.0606597447	-0.113813
C	 0.6244050703	-0.7598327985	-1.2170342081	 0.050023
O	 1.0659052418	-0.0585811107	-2.3620798282	-0.267306
C	 2.4387247889	 0.2859722164	-2.1900459188	 0.024824
O	 2.9746228634	-0.5322892645	-1.1685139979	-0.252334
C	 1.904729296	-0.9525199347	-0.3653317254	 0.090338
H	-0.4065708065	 2.1761907167	 0.5263575646	 0.105474
H	 0.2494556258	 2.0197520609	-1.135272097	 0.120828
H	 1.4536985824	-0.2286926115	 1.7675571786	 0.076762
H	-0.9872926172	-0.2921543236	 0.3213212791	 0.078482
H	 0.0642195531	-1.6422817257	-1.5344754524	 0.09019
H	 2.973070531	 0.0766921677	-3.1236319293	 0.112075
H	 2.5304503137	 1.3439626336	-1.9178730701	 0.113832
H	 2.11045699	-1.9553147151	 0.0179673208	 0.089238
