24
gdb 57451	2.75373	1.25911	1.16035	1.4762	88.03	-0.2258	0.0739	0.2997	1234.4907	0.216742	-368.370401	-368.360822	-368.359878	-368.404068	37.89	
C	-0.3333301679	 1.5392488683	 0.3380058086	-0.419992
C	 0.012783883	 0.0477922142	 0.1696270556	 0.228763
C	 0.8704333847	-0.4025952536	 1.3683457992	-0.400956
C	-1.3002606445	-0.7606745361	 0.1388680018	-0.399213
C	 0.7841202498	-0.2996400957	-1.1185508987	 0.092866
C	 0.3023362853	 0.0633629317	-2.5543724585	-0.311479
C	 1.7313480191	 0.5489336532	-2.7953723868	-0.014103
C	 2.059760801	 1.648469684	-1.8768632122	-0.236978
N	 2.1694562299	 0.2632599621	-1.3661147586	-0.16636
H	 0.559013713	 2.1507704354	 0.4946055257	 0.12259
H	-0.879834923	 1.9372873413	-0.5235262336	 0.108441
H	-0.9742303843	 1.6715345729	 1.2168110003	 0.107377
H	 0.3631480892	-0.1832094533	 2.3140386934	 0.103161
H	 1.0642392878	-1.4801746282	 1.3334805151	 0.107989
H	 1.837332813	 0.1089649107	 1.3696395771	 0.130441
H	-1.9405367454	-0.454448943	-0.6957582496	 0.112122
H	-1.1055228034	-1.8338831081	 0.0372923385	 0.109275
H	-1.8666060078	-0.6107495074	 1.0641113109	 0.109886
H	 0.9436825426	-1.3832807524	-1.0855356123	 0.081982
H	 0.0044110903	-0.8068728306	-3.1412100489	 0.107984
H	-0.469256895	 0.8323798081	-2.6586373494	 0.10268
H	 2.3550536184	 0.276945446	-3.640523978	 0.093071
H	 3.0356002814	 2.115235569	-1.9720245499	 0.117586
H	 1.276100013	 2.3140465015	-1.5326131695	 0.112866
