20
gdb 97590	3.33859	0.73314	0.65609	2.7251	84.82	-0.2372	0.0312	0.2684	1784.3604	0.16957	-403.090371	-403.079925	-403.078981	-403.1277	36.539	
C	-0.7112832286	 1.1562656742	-0.2665594488	-0.363889
C	 0.4694415983	 0.2150184917	 0.0341514566	-0.317685
C	 1.0235709946	-0.4101310761	-1.1622807605	 0.071067
C	 1.4616296443	-0.9039606918	-2.1708241513	 0.034122
C	 1.9976857381	-1.539130869	-3.3772806367	-0.064102
O	 1.451232834	-2.8470551194	-3.5673861267	-0.432279
C	 1.6983301157	-0.7176337509	-4.628125115	 0.027383
C	 1.6150472105	-1.3795610636	-5.9495225226	-0.249624
N	 0.4011770089	-0.8488766759	-5.2931821815	-0.317446
H	-0.4026366972	 1.9647423082	-0.9343548678	 0.133284
H	-1.5270854749	 0.6133090715	-0.7508486854	 0.131941
H	-1.0905338877	 1.5979168467	 0.659634679	 0.115924
H	 1.2624950704	 0.7701294746	 0.5513425528	 0.133024
H	 0.1480338365	-0.5678278992	 0.733227216	 0.130883
H	 3.0934890809	-1.6117370278	-3.2769470105	 0.101217
H	 1.2664295946	-3.2120873807	-2.6971983933	 0.293344
H	 2.0743500631	 0.3005804406	-4.5633858587	 0.097431
H	 1.9266739217	-0.8438711158	-6.8417102862	 0.111913
H	 1.7472391066	-2.4560438056	-5.9818540138	 0.127624
H	-0.0870153098	-1.6325706217	-4.8624932455	 0.23587
