17
gdb 127166	4.20858	1.10859	0.88235	3.7207	79.82	-0.1985	0.0114	0.21	1266.8518	0.13845	-414.209344	-414.200888	-414.199944	-414.243066	30.824	
C	 0.0623427094	 1.4698309485	-0.0112937715	-0.350963
N	 0.0130791143	 0.0164697222	-0.0064557098	-0.158276
C	-0.0443476402	-0.6736536889	 1.1866644359	 0.086811
N	-0.0564298523	-0.0812299362	 2.3175257558	-0.498584
C	 0.0244373364	-0.656081825	-1.2255691589	 0.480491
N	-0.0181138675	-1.9868142637	-1.2959724926	-0.333019
N	 0.0104301437	-2.2461935872	-2.6239482875	-0.186166
C	 0.0686763244	-1.1326383068	-3.3822405781	-0.014319
C	 0.0802974213	-0.0622081076	-2.5129543122	-0.33097
H	 0.9790309445	 1.8275799034	-0.4938131053	 0.125213
H	-0.8000610105	 1.887759197	-0.5430344105	 0.125203
H	 0.0448234056	 1.8016980661	 1.0252644622	 0.17559
H	-0.0764133663	-1.7526308414	 1.0286781793	 0.132906
H	-0.1010180724	-0.7693884121	 3.0650818814	 0.221556
H	-0.0145976369	-3.2037503078	-2.9272924908	 0.277073
H	 0.0974982616	-1.1771687268	-4.4594183074	 0.137628
H	 0.122583925	 0.9819047164	-2.76921181	 0.109825
