21
gdb 110640	2.4004	1.48178	1.12429	2.1761	83.83	-0.1991	0.0677	0.2667	1197.5818	0.180982	-383.163921	-383.154922	-383.153978	-383.197459	34.939	
C	-0.1711932438	 1.5258191233	 0.6202144878	-0.374875
C	 0.1389321433	 0.1929937006	-0.064758725	-0.090286
N	-1.093286886	-0.5946967419	-0.1932003431	-0.116949
C	-1.6128335051	-1.3515341339	-1.2944913401	-0.120682
C	-0.6090663735	-2.3763161993	-1.936740449	-0.074528
N	 0.719813851	-2.2124683061	-1.2985176823	-0.333917
C	-0.3511327648	-2.9800148057	-0.6175960837	-0.124586
C	-1.3687438911	-1.9755622241	 0.0605180858	 0.326009
C	-2.3004595347	-2.4097948324	 1.1529348836	-0.488278
H	 0.7386514055	 2.1276820795	 0.7240610019	 0.099797
H	-0.9000566646	 2.1016709757	 0.0411717593	 0.111609
H	-0.5917287439	 1.3642596574	 1.6179050193	 0.110153
H	 0.5758011837	 0.3628599008	-1.0521200211	 0.107956
H	 0.8820535197	-0.3679824802	 0.5085909479	 0.105822
H	-2.5408866569	-1.0532092059	-1.7736312927	 0.087918
H	-0.7237335488	-2.8475637269	-2.9040567293	 0.091785
H	 1.3433008864	-2.8947292094	-1.7307287387	 0.228643
H	-0.2216249065	-4.0193104932	-0.343485188	 0.08936
H	-1.7652058809	-2.5257510277	 2.1037416646	 0.119433
H	-3.0873526001	-1.6648179976	 1.2952213554	 0.130547
H	-2.7663155787	-3.3733818731	 0.9167505677	 0.115069
