21
gdb 119997	3.15466	0.84259	0.78834	2.3108	76.84	-0.2309	0.0658	0.2966	1575.893	0.179602	-461.308218	-461.297614	-461.29667	-461.344834	37.069	
C	-0.297182056	 1.3878002096	-0.069827827	-0.224281
O	-0.2294142452	-0.0158465294	-0.1101080838	-0.232566
C	 0.7743825111	-0.4859043273	-0.9872547039	-0.058038
C	 0.744678375	-1.9916538773	-0.9523607264	-0.141075
C	 0.0187034258	-2.7960515433	-2.0208462938	 0.092416
O	-0.5493643259	-2.1482236473	-3.1172501626	-0.429845
C	 1.527732811	-2.8227100418	-1.9372211366	 0.036491
O	 2.1979154324	-2.1252816926	-2.9521592149	-0.256163
C	 2.636433115	-2.9820853354	-3.9974067758	-0.245006
H	 0.6494408879	 1.8353500414	 0.2750974465	 0.099434
H	-0.5359697558	 1.8156988945	-1.0567637837	 0.103528
H	-1.0903048598	 1.6578644862	 0.631850668	 0.124946
H	 0.5983156203	-0.1140337472	-2.0070720278	 0.086323
H	 1.7630736301	-0.1113024816	-0.671737659	 0.087551
H	 0.7053219784	-2.3923948352	 0.0567020693	 0.098713
H	-0.5632805909	-3.6610116794	-1.719863144	 0.102125
H	 0.1817010438	-1.7499572272	-3.6082064658	 0.292309
H	 2.055134104	-3.7086585508	-1.5838905804	 0.088633
H	 1.7972097823	-3.5106242929	-4.4690478168	 0.123864
H	 3.1331333469	-2.3528039548	-4.7391488535	 0.132885
H	 3.3528650596	-3.7262856483	-3.6217216679	 0.117755
