20
gdb 114780	3.39866	1.3744	1.29809	2.7134	77.84	-0.2246	0.0775	0.3021	1075.1666	0.172882	-403.095622	-403.087992	-403.087048	-403.127711	30.134	
C	 0.0103018861	 1.4266605786	 0.0067248659	-0.235633
O	-0.1474176316	 0.0313819646	-0.1032358566	-0.239704
C	 0.6239574635	-0.5550054083	-1.1401466087	 0.108617
C	 2.1172622308	-0.8045188238	-0.7707995466	-0.241539
C	 2.1621769267	-2.3027416095	-0.4532427905	-0.067575
C	 1.1109550404	-2.6471000517	 0.6312865847	-0.150883
N	 0.0837589964	-3.01074694	-0.4070760365	-0.146148
C	 1.1656185848	-2.9517690623	-1.450174809	-0.054606
C	 0.0858444212	-1.9444952579	-1.451439746	-0.046238
H	 1.0397779757	 1.7163042385	 0.267176535	 0.103959
H	-0.2621225644	 1.9391016188	-0.9296717162	 0.104046
H	-0.6582838595	 1.7660058078	 0.8016378911	 0.129156
H	 0.5446576918	 0.0753630332	-2.0396882754	 0.064399
H	 2.7634385325	-0.5701896221	-1.6241519324	 0.097869
H	 2.4324983986	-0.1828611115	 0.0734192158	 0.102543
H	 3.1597709111	-2.7276097852	-0.3440450732	 0.0685
H	 1.3522758425	-3.5512250839	 1.1953425812	 0.104032
H	 0.8052877677	-1.8492648959	 1.3131659561	 0.11365
H	 1.3303878989	-3.7329211587	-2.1832141916	 0.090495
H	-0.7659684732	-2.0371577808	-2.116121197	 0.09506
