15
gdb 131463	4.84228	1.26484	1.15799	2.1585	71.71	-0.2356	0.0028	0.2385	1035.9207	0.114563	-416.74561	-416.738888	-416.737944	-416.77666	26.514	
O	 0.0365606506	 1.1773874276	-0.2504822247	-0.419856
C	-0.0643395641	-0.1894435253	-0.0304326847	 0.098308
C	-0.5064992754	-0.6261876141	 1.3569760013	-0.072727
C	-1.4888415173	-0.6712059883	 0.1773691984	-0.23559
C	-1.4187765851	-2.1772907213	 0.3087744849	 0.275254
C	-1.2523366538	-3.4470786739	-0.2020513146	-0.328707
C	-0.2960681097	-4.0214466298	 0.6880327428	 0.005703
N	 0.1594932785	-3.172891146	 1.6173589798	-0.282978
N	-0.6145624439	-2.087393554	 1.4064960249	 0.063206
H	 0.9294211127	 1.4576886298	-0.0215625131	 0.299352
H	 0.6304858386	-0.8230721707	-0.5824028903	 0.120765
H	-0.4971452234	 0.001971432	 2.2371589182	 0.129455
H	-2.3412819692	-0.0330261674	-0.0042784856	 0.125442
H	-1.7269623089	-3.9191674003	-1.0460640414	 0.109315
H	 0.0576609203	-5.0436540479	 0.688930124	 0.11306
