17
gdb 66635	3.47863	1.84642	1.67802	2.3667	68.85	-0.2622	0.0905	0.3527	861.5529	0.138358	-421.801537	-421.795351	-421.794407	-421.831812	26.083	
C	-0.0079561772	 1.5231693246	-0.0365535559	-0.524743
C	-0.0106701588	 0.0248525558	 0.0000668641	 0.349854
C	 0.5070376255	-1.0245209426	-0.9664876455	-0.158388
C	 1.1369258362	-0.8776178496	 0.4052787577	-0.148958
C	 0.4940513443	-2.0076849213	 1.2713622837	 0.133453
O	 0.0492035979	-2.9635794255	 0.3160810512	-0.236725
C	-0.5811210763	-2.0280086191	-0.5505298683	 0.034007
C	-1.1359560539	-0.9225059758	 0.47444481	-0.043455
O	-0.7223317588	-1.429835342	 1.7363984545	-0.234677
H	 0.9441732975	 1.90657483	-0.4176181622	 0.122929
H	-0.8032782539	 1.9098393031	-0.6834570231	 0.12156
H	-0.1583006555	 1.9395745161	 0.9656271679	 0.132012
H	 1.0327436877	-0.9371580214	-1.9087508402	 0.09284
H	 2.1422518328	-0.5090325165	 0.5505373762	 0.094593
H	 1.0578242446	-2.469923174	 2.0764004035	 0.0942
H	-1.231633968	-2.5142246064	-1.2715198327	 0.087169
H	-2.1797125441	-0.6197263755	 0.4772933292	 0.084329
