19
gdb 38901	2.71221	1.78347	1.46474	0.5262	73.29	-0.225	0.0547	0.2796	966.9734	0.160411	-422.976465	-422.968915	-422.967971	-423.009905	29.583	
C	 0.1884154925	 1.6289976078	 0.0932308942	-0.382029
C	 1.373774021	 0.6841805368	-0.0238035062	 0.084961
O	 2.2776028335	 0.4706932519	 1.0208699102	-0.262309
C	 1.7701011268	 0.0100844984	 2.2567998973	 0.091021
C	 1.3670748219	 1.0867622981	 3.3077713353	-0.25108
C	-0.07524783	 0.5019015475	 3.3606476267	-0.2511
C	 0.3193157152	-0.5782569539	 2.3100353624	 0.091043
O	-0.4420381237	-0.6323970455	 1.1206522054	-0.262304
C	-0.0096768785	 0.1230680015	 0.0269585	 0.08496
H	 0.022931257	 2.1229509315	 1.0427128338	 0.123747
H	-0.0843731311	 2.2232124317	-0.7728088719	 0.116146
H	 1.9126939273	 0.6606101959	-0.9652274947	 0.104738
H	 2.5153703414	-0.6972473129	 2.6308757409	 0.088751
H	 1.928672838	 1.0327512893	 4.2429516011	 0.10261
H	 1.4410434871	 2.105893856	 2.9234523265	 0.112373
H	-0.3807887873	 0.0963412107	 4.3276221363	 0.10261
H	-0.8613095014	 1.1722728071	 3.0077918162	 0.112373
H	 0.3017225251	-1.5949311161	 2.712201453	 0.088752
H	-0.4381265147	-0.2928556357	-0.8789702667	 0.10474
