17
gdb 26760	3.53214	1.0831	0.83755	5.1305	87.29	-0.2172	-0.0178	0.1994	1341.6623	0.136336	-380.943925	-380.934714	-380.93377	-380.978746	32.604	
C	-0.0318632503	 1.4885845375	 0.1262792409	-0.509785
C	-0.005654265	 0.0037660255	-0.0300444118	 0.224054
C	-0.0054201628	-0.7925736336	-1.1700471922	 0.224045
C	-0.0339264842	-0.324400185	-2.5952435301	-0.508285
C	 0.0490290228	-2.1396185967	-0.7367226062	-0.323746
C	 0.0814775272	-2.1420376542	 0.6472517286	 0.218118
N	 0.0487554884	-0.8238468197	 1.0564972712	-0.363944
C	 0.1263948018	-3.2067209779	 1.5692101745	 0.198261
N	 0.1643235511	-4.0725835122	 2.3406628475	-0.35535
H	 0.9573354423	 1.8951072185	 0.3715105543	 0.141861
H	-0.3585113594	 1.9639908954	-0.8010280606	 0.144288
H	-0.7211172476	 1.7993364078	 0.9194905019	 0.132829
H	 0.9743475259	-0.2075106956	-3.0109678651	 0.132828
H	-0.5639488033	-1.0402295683	-3.230489373	 0.131583
H	-0.5392544358	 0.6408362607	-2.696736469	 0.124171
H	 0.0575006927	-3.0205004257	-1.3601236643	 0.116706
H	 0.0478429461	-0.5268834564	 2.0178897733	 0.272366
