17
gdb 52975	4.82765	0.90136	0.84272	3.0107	84.79	-0.1974	0.03	0.2275	1409.2986	0.134861	-380.733447	-380.724969	-380.724025	-380.768272	31.434	
C	-0.0067658466	 1.4771362968	-0.0608683633	-0.51049
C	-0.0279570332	 0.023404223	-0.014051048	 0.273873
C	-0.0474125745	-1.1828790216	 0.017764072	-0.220599
C	-0.0379810421	-2.5978656337	 0.0852670952	 0.224291
N	-0.3281214711	-3.4798914077	-1.087283986	-0.348869
C	-1.1598987956	-3.5879309725	 0.1220353656	-0.133056
C	-0.393828483	-4.4203884714	 1.1980291266	-0.054769
N	 0.9194495072	-4.8251860174	 0.6384531794	-0.306407
C	 0.7246601637	-3.4568931247	 1.1616102848	-0.139748
H	 0.7955642418	 1.8776749043	 0.5687670703	 0.151736
H	 0.1629132048	 1.8410882921	-1.0805205713	 0.151085
H	-0.9507793783	 1.9066593749	 0.2934333436	 0.147952
H	-0.845956807	-2.8962870895	-1.7457921001	 0.234495
H	-2.2263248964	-3.4047745282	 0.1103970967	 0.105569
H	-0.8487515546	-4.9349620453	 2.033414541	 0.09821
H	 1.3966615085	-5.3471709798	 1.3747644561	 0.230574
H	 1.3275937464	-3.0405301195	 1.9572557474	 0.096153
