20
gdb 54117	3.24817	1.27745	1.07455	3.1687	79.73	-0.2403	0.0347	0.275	1180.068	0.171093	-403.158749	-403.149707	-403.148763	-403.19243	34.643	
C	 0.0341623546	 1.4738442594	-0.1159063706	-0.510334
C	 0.1436859462	-0.0395184533	-0.1001999924	 0.197921
C	 1.4675024978	-0.7796603639	-0.2462902224	-0.05615
C	 2.6249720726	-0.0158198608	 0.4064998678	-0.258687
C	 1.8543773319	-0.0581798742	 1.7679180167	-0.258533
C	 0.7186097923	-0.8196137614	 1.0756766952	-0.05482
C	-0.9709451235	-0.826580871	-0.7549403976	 0.376911
N	-1.9896597838	-0.0971045201	-1.3000474269	-0.557861
O	-0.978191964	-2.0463924264	-0.7878094268	-0.380679
H	 0.8737355333	 1.9489305393	 0.3933889522	 0.129961
H	 0.0267859255	 1.8650841613	-1.1406300003	 0.117235
H	-0.8771713733	 1.813233554	 0.3899569497	 0.121309
H	 1.5525830403	-1.5679292174	-0.9825142304	 0.105051
H	 3.540869853	-0.6097533624	 0.4379844288	 0.108773
H	 2.8708479659	 0.9673676019	-0.0073401626	 0.095132
H	 2.3684338328	-0.6757077809	 2.5075507504	 0.108786
H	 1.6017265908	 0.8972243117	 2.2388438628	 0.095507
H	 0.1511367767	-1.6422876247	 1.48995387	 0.105972
H	-1.9698037412	 0.9027119199	-1.3774680148	 0.256383
H	-2.7042714378	-0.6078966009	-1.7914193586	 0.258123
