15
gdb 85724	2.54222	1.39334	1.0276	5.0298	69.67	-0.2991	-0.0049	0.2942	1123.4741	0.112796	-416.818449	-416.810058	-416.809114	-416.851866	30.384	
O	 0.6032838983	 0.528431871	-1.0395198698	-0.412798
C	 0.0712811317	-0.3097773206	-0.0749718144	 0.158974
C	 0.1452396334	 0.0598623286	 1.4299525159	-0.282325
C	-1.2562013111	-0.5971743481	 1.6141985787	-0.158106
C	-2.1956465304	 0.0019494688	 2.543248819	 0.291487
N	-2.9356613695	 0.4822188837	 3.2897760897	-0.311837
C	-1.5013460339	-0.4471598712	 0.0667016598	-0.236711
C	-2.1573070795	 0.788127589	-0.3211373847	 0.289347
N	-2.599136108	 1.8019306501	-0.6598353095	-0.317593
H	 0.1804510066	 1.3947989354	-0.9776748201	 0.301983
H	 0.4933448775	-1.3015977398	-0.2574417491	 0.117693
H	 0.9684231254	-0.3395866795	 2.0224291017	 0.133166
H	 0.0858637389	 1.1423657004	 1.5701002165	 0.142047
H	-1.1575771334	-1.6609463146	 1.8458334851	 0.14423
H	-1.974982786	-1.2960499333	-0.4292337588	 0.140442
