18
gdb 13192	5.03568	1.15287	1.05333	3.2819	68.11	-0.25	-0.0192	0.2308	1163.4731	0.152397	-384.937846	-384.929092	-384.928148	-384.972702	30.028	
C	-0.4387206592	 1.4765988585	-0.1108377941	-0.378317
C	-0.1133003282	-0.0118001976	-0.2002350889	-0.284658
C	 0.8421315871	-0.3656404636	-1.3307981979	 0.369739
O	 1.3755562327	 0.4787291512	-2.0145159086	-0.298776
C	 1.0611299336	-1.8495047908	-1.5719758516	-0.145367
C	 0.0629602806	-2.4994712215	-2.5780239339	-0.070582
O	 1.1236266932	-2.8387396347	-3.4808139069	-0.266545
C	 2.118567489	-2.2373697188	-2.6212431429	-0.085772
H	 0.4731002279	 2.0655280516	 0.0131184494	 0.136037
H	-0.9280004827	 1.8255406272	-1.0240778865	 0.130935
H	-1.1021012974	 1.6779461616	 0.7347122962	 0.111688
H	 0.3429522198	-0.3744035332	 0.7325226041	 0.125644
H	-1.0229110467	-0.6174272844	-0.3194510686	 0.121692
H	 1.1222802754	-2.386463396	-0.622749387	 0.090733
H	-0.4683866679	-3.3832601563	-2.2043486217	 0.105793
H	-0.6621102771	-1.8094944348	-3.0296959847	 0.108346
H	 2.6054868838	-1.3777852075	-3.0919076041	 0.129062
H	 2.8690217763	-2.965588411	-2.2938023724	 0.100349
