14
gdb 132383	1.95437	1.79732	0.9368	3.3849	68.68	-0.229	0.0034	0.2324	1135.7643	0.102299	-478.053159	-478.0458	-478.044855	-478.084757	29.105	
N	-0.0419487908	 1.4006293677	 0.202293281	-0.590357
C	-0.0005008912	 0.0304522831	 0.0688411608	 0.411715
C	-1.1869333103	-0.7238059934	 0.0504192616	-0.385217
C	-1.0560280866	-2.0962116936	-0.0333594231	 0.352965
F	-2.1636828789	-2.8343148451	-0.0537152811	-0.076303
N	 0.0753163816	-2.770334369	-0.0997534146	-0.440019
C	 1.1901214477	-2.0363852255	-0.0818560779	 0.458292
O	 2.3574790221	-2.7078347763	-0.150740961	-0.421467
C	 1.2213874349	-0.6498720566	-0.0015748611	-0.319547
H	 0.7823967723	 1.910595798	-0.0725052888	 0.257604
H	-0.9046759644	 1.857809786	-0.0460604772	 0.25731
H	-2.1654426206	-0.2646972464	 0.1044350218	 0.098416
H	 2.1226646907	-3.6446492205	-0.2003240739	 0.300126
H	 2.1695137534	-0.1272778083	 0.0099162735	 0.096481
