21
gdb 82988	3.55848	1.54459	1.43308	1.49	80.89	-0.2313	0.0874	0.3187	1013.4075	0.185847	-387.089858	-387.082723	-387.081779	-387.120974	29.873	
C	-0.1372003481	 1.5969426443	-0.026765609	-0.431587
C	 0.0275363899	 0.087553306	 0.0190874713	 0.026882
C	 1.1918423006	-0.5949807599	-0.7492034098	 0.075077
O	 2.3513805695	 0.1020735409	-0.2612630805	-0.292862
C	 2.1931621908	-0.1004910286	 1.17142058	 0.098332
C	 3.0599455922	-1.3095692665	 1.5269156584	-0.21016
C	 2.4029825793	-2.4335173712	 0.6704754889	-0.24049
C	 1.0738083742	-1.8005307276	 0.2375914991	-0.024789
C	 0.732893119	-0.6193951651	 1.209343633	-0.091744
H	 0.8297791385	 2.0991135779	 0.0556882038	 0.132283
H	-0.5984010514	 1.9121547052	-0.9693175978	 0.111769
H	-0.7804849711	 1.9482166665	 0.7876081686	 0.110563
H	-0.9178910465	-0.4214556754	-0.1951226402	 0.069443
H	 1.2446032362	-0.6878593057	-1.834314189	 0.069499
H	 2.4163624984	 0.8256441345	 1.7047775496	 0.068402
H	 4.1090662602	-1.1340443348	 1.2770339269	 0.104555
H	 2.9984678483	-1.5300917312	 2.5992555012	 0.090621
H	 3.0209894769	-2.6998204282	-0.1919500699	 0.10675
H	 2.2401338253	-3.3476722086	 1.2484347036	 0.096023
H	 0.2534992936	-2.4811713703	 0.0106636443	 0.068168
H	 0.2723576242	-0.7576221022	 2.1878857278	 0.063265
