17
gdb 81668	3.70709	1.33051	1.26381	5.725	67.9	-0.2827	0.037	0.3196	1043.3899	0.137104	-458.995144	-458.987843	-458.986899	-459.026805	28.597	
C	-0.2275325335	 1.4111695681	-0.0280799772	-0.433716
C	 0.0597970195	-0.0844560298	 0.019555969	-0.014917
C	 1.2870163806	-0.5815621158	-0.7951962083	 0.111895
C	 2.1758277229	-0.2880823861	 0.435316462	-0.279521
C	 0.8873086619	-0.593746458	 1.2331666423	 0.111895
O	 0.7335847839	-2.0243831114	 1.3153759128	-0.267902
C	 0.8919114228	-2.7341531616	 0.1676150714	 0.463503
O	 0.7859388677	-3.9208434818	 0.1396033457	-0.36328
O	 1.1792340451	-2.010797992	-0.9461170919	-0.267901
H	 0.6618487468	 2.0224187903	 0.1508509912	 0.12377
H	-0.6301029713	 1.6915275097	-1.0066054447	 0.132878
H	-0.9718696544	 1.6811081775	 0.7277447365	 0.132878
H	-0.8561978926	-0.6534383302	-0.1643669408	 0.101091
H	 1.517747926	-0.1858888271	-1.7837834148	 0.098269
H	 3.0389886642	-0.9345413617	 0.6015267474	 0.128561
H	 2.468323928	 0.759731842	 0.4992499866	 0.12423
H	 0.7248465424	-0.2100594719	 2.2398887528	 0.098269
