16
gdb 50023	3.04264	1.09321	0.99093	2.5376	73.14	-0.2599	-0.0607	0.1992	1220.4102	0.12259	-437.874437	-437.866037	-437.865093	-437.90825	30.269	
O	-0.2434515475	 0.542643103	 0.8612439785	-0.251153
C	 0.3099303298	 0.8446583869	-0.1649080732	 0.182559
C	 1.4783790199	 1.7684305185	-0.2350514421	-0.189966
N	 2.2751503468	 1.6704217848	-1.4642916315	-0.372776
C	 1.4802359496	 2.8631094285	-1.2724710983	 0.238381
C	 0.3693096485	 3.4369251472	-2.1719260499	-0.33031
C	 0.8207708072	 4.8807811226	-1.7714402725	-0.345508
C	 1.9981468838	 4.2593145329	-0.9947053203	 0.349442
O	 2.9809882864	 4.6728622954	-0.4499601178	-0.304848
H	-0.0124903068	 0.4565768312	-1.1556107327	 0.09146
H	 1.963705204	 1.9944786424	 0.711299483	 0.128644
H	 3.2543230548	 1.8709894888	-1.2642840802	 0.260501
H	 0.5224499266	 3.2056135525	-3.227677522	 0.130975
H	-0.6516122384	 3.1748685143	-1.8917589957	 0.125921
H	 1.1168270418	 5.5444076654	-2.5874152899	 0.141876
H	 0.1236678334	 5.4173784655	-1.1216584152	 0.144799
