19
gdb 76826	2.80585	1.56974	1.27177	1.6367	77.41	-0.2377	0.0016	0.2393	1053.6944	0.159488	-422.995235	-422.987041	-422.986096	-423.027702	31.761	
C	 0.0570266507	 1.5605100898	 0.1828364386	-0.402696
C	-0.0028877223	 0.055687443	-0.0084305442	-0.091234
C	 0.7931369618	-0.6018526838	-1.224939283	 0.087685
O	 1.9254676205	 0.1247296493	-1.6110481815	-0.431499
C	 1.1699379783	-1.791233983	-0.2604408809	 0.040546
O	 2.5339910349	-2.152110352	-0.1195144589	-0.288044
C	 2.9121144633	-1.823540981	 1.2414791679	-0.11621
C	 1.8993006134	-0.7788864327	 1.6886438324	-0.231171
C	 0.8677662694	-0.8396655907	 0.8533576401	 0.198283
H	 1.0877931588	 1.9100559507	 0.0893257393	 0.133575
H	-0.5467516119	 2.0735436506	-0.5726777972	 0.118436
H	-0.3244365423	 1.8466897451	 1.1683556083	 0.115233
H	-1.0391363209	-0.3001094497	-0.0493614697	 0.0828
H	 0.1804966333	-0.8498546249	-2.0994305577	 0.071833
H	 2.6884580774	-0.3956314004	-1.3189587039	 0.291707
H	 0.5296460476	-2.6722521127	-0.3873622102	 0.083587
H	 2.9134381588	-2.7397382468	 1.8518966485	 0.11162
H	 3.9347409682	-1.4291922464	 1.2288633064	 0.11783
H	 2.1127032909	-0.0404545043	 2.4505239956	 0.10772
