17
gdb 117118	2.73382	0.92751	0.74627	4.3838	70.58	-0.2424	-0.0581	0.1842	1513.1283	0.133461	-455.148357	-455.138344	-455.137399	-455.184442	34.46	
C	 0.0051951623	 1.4339239404	 0.011241925	-0.313516
N	-0.2168305347	 0.0168660685	-0.2289608733	-0.281905
C	 0.6920647832	-0.5629193366	-1.1841015378	-0.234153
C	 0.6773627025	-2.0691785719	-1.1250091601	 0.35516
O	 0.2172923694	-2.7006724097	-0.2042314088	-0.310076
C	 1.349526022	-2.8655403535	-2.2795298859	-0.07551
O	 1.4180646472	-4.2178073431	-1.9575422353	-0.404557
C	 0.5975248237	-2.6264083683	-3.5303963524	 0.261292
N	 0.0104436308	-2.419305713	-4.5038304409	-0.312149
H	 1.0321293511	 1.6816589771	 0.3359105863	 0.097847
H	-0.1971598961	 2.0004716639	-0.9047656096	 0.129663
H	-0.6910335065	 1.7840658053	 0.7775856412	 0.130393
H	-0.1890404913	-0.5177791762	 0.6314984931	 0.237078
H	 0.445566266	-0.2398250319	-2.2050965171	 0.156312
H	 1.7586753397	-0.2764683929	-1.0369818156	 0.112689
H	 2.3626225875	-2.4611356441	-2.4265156522	 0.145043
H	 0.8475299932	-4.323526574	-1.1765133968	 0.306389
