22
gdb 56030	3.856	0.84214	0.77376	3.2964	82.16	-0.2429	0.0356	0.2785	1549.7885	0.194881	-404.408654	-404.398454	-404.39751	-404.447159	35.796	
N	 0.1143064422	 1.2743732505	 0.2423799997	-0.524373
C	 0.2039477599	-0.0656887495	-0.0083319372	 0.415571
O	 1.2697820714	-0.6133130293	-0.2173979525	-0.361713
C	-1.1366498202	-0.8010672759	-0.0435989183	-0.3501
C	-0.9956498651	-2.3061507194	 0.1695244512	 0.074428
C	-0.5801879131	-2.7275746966	 1.5893441713	-0.204141
C	-0.8751097786	-4.2408807071	 1.63239244	-0.204539
C	-2.0439760092	-4.4705121148	 0.6264003207	-0.206547
C	-2.2964097473	-3.0998474467	-0.0483153516	-0.223687
H	 0.963281813	 1.8148914879	 0.2661730784	 0.25848
H	-0.7558484873	 1.7255163315	 0.4617360784	 0.255853
H	-1.8224826752	-0.3692267465	 0.6976948391	 0.095906
H	-1.585279623	-0.6005017218	-1.0266981522	 0.122924
H	-0.2297758362	-2.6670861935	-0.5274469325	 0.094081
H	 0.4617849893	-2.4855378468	 1.8105783011	 0.112437
H	-1.2056183981	-2.1977518042	 2.3218312319	 0.08097
H	 0.00974131	-4.8020917016	 1.3155179337	 0.102005
H	-1.1188716451	-4.5856682015	 2.6410699518	 0.09211
H	-1.7653184104	-5.2222692121	-0.1181229435	 0.098908
H	-2.9450329798	-4.8436352456	 1.1212393748	 0.094595
H	-3.1252531062	-2.5799833683	 0.4506558134	 0.086698
H	-2.5682609811	-3.1887498987	-1.1048562877	 0.090134
