23
gdb 59118	3.16267	1.26127	1.0985	0.2479	88.31	-0.2422	0.0838	0.326	1231.0569	0.206425	-351.111023	-351.102444	-351.1015	-351.144151	34.323	
C	 0.0067883021	 1.5920376527	 0.1325326284	-0.390864
C	 0.0389530996	 0.0642067357	-0.0173656431	 0.007461
C	 0.8084309686	-0.5879066623	 1.1397755388	-0.388755
C	-1.3830547398	-0.4946357341	-0.1118662169	 0.062998
C	-2.2776794739	-0.2220932565	-1.3243439525	-0.093249
C	-2.0317045629	-1.3377811225	-2.3573943465	-0.060334
C	-0.9912491838	-2.2929201491	-1.7779231815	-0.233713
C	-1.6554836214	-2.0068192055	-0.4017092854	-0.097359
C	-2.9574241522	-1.5611650528	-1.1861462552	-0.089652
H	 1.0193916113	 2.0075470465	 0.1685928721	 0.106923
H	-0.5195748477	 2.0657697894	-0.7023950808	 0.112636
H	-0.5045685293	 1.8840238977	 1.0579730825	 0.108561
H	 0.566065828	-0.1659313958	-0.9518396371	 0.071479
H	 0.8762328881	-1.6738689689	 1.0174064517	 0.112817
H	 1.8284685737	-0.1954254768	 1.2084538815	 0.107292
H	 0.3131513073	-0.3915600404	 2.0986288615	 0.108959
H	-1.9360685079	-0.2189217414	 0.7967141095	 0.060933
H	-2.731824933	 0.7136002379	-1.6261495851	 0.079378
H	-2.3044827365	-1.194852892	-3.3954086254	 0.080149
H	-1.1872374109	-3.3203250492	-2.0983882376	 0.095312
H	 0.0755470763	-2.074323974	-1.9002157105	 0.08782
H	-1.6076749611	-2.7405202123	 0.4004434622	 0.065286
H	-3.9985789346	-1.8407020563	-1.1218030106	 0.085923
