19
gdb 108538	2.7858	1.76035	1.31118	1.4621	74.45	-0.239	0.0798	0.3188	1009.0186	0.160205	-422.966659	-422.959102	-422.958158	-422.99879	29.706	
C	 0.0240490251	 1.335083285	 0.1508483354	-0.262885
O	-0.0563503801	-0.0432646977	-0.1670190841	-0.303815
C	-1.3253786356	-0.58798535	-0.0765350644	 0.424851
C	-2.412123069	-0.1575819482	-1.0732775454	-0.156068
O	-3.4869962561	-1.0130800707	-0.6716668947	-0.280493
C	-2.9071741278	-1.7506595925	 0.3928865176	 0.143274
C	-1.4391999595	-2.138447754	 0.0626465593	-0.148907
C	-1.0934412638	-2.0171297988	 1.5655945288	-0.263648
C	-2.0522291477	-0.8309813959	 1.3071185598	-0.163197
H	 1.0817623901	 1.6050458947	 0.1205879179	 0.132096
H	-0.5189837649	 1.9585592326	-0.572547843	 0.115244
H	-0.3685545143	 1.5411075895	 1.1560562152	 0.115161
H	-2.7114252762	 0.893215517	-0.9786241142	 0.099632
H	-2.1257067448	-0.3534130912	-2.1140890379	 0.106629
H	-3.6117212804	-2.4704902159	 0.8040120565	 0.091753
H	-1.093819992	-2.8759320997	-0.6623167782	 0.076313
H	-1.4604068	-2.8119302705	 2.2205653594	 0.091536
H	-0.0593588994	-1.7574619579	 1.7939257437	 0.111193
H	-2.4184975033	-0.0807650354	 2.0087256482	 0.07133
