22
gdb 29768	2.36246	1.48332	0.93231	1.7567	92.19	-0.1839	0.0563	0.2402	1324.6875	0.192685	-367.268314	-367.257627	-367.256683	-367.303991	38.086	
C	-0.0306295266	 1.4448859934	 0.0357094345	-0.334383
N	-0.0028829434	 0.0001816877	 0.0258783094	-0.04293
C	 0.0015816821	-0.7863759512	-1.1021196577	-0.214414
C	 0.0303858788	-2.1059866578	-0.7224505142	 0.197939
C	 0.0447676274	-3.29857592	-1.6294671924	-0.500194
C	 0.044157794	-2.1255808316	 0.7097310294	 0.111294
C	 0.0757780714	-3.3634627536	 1.5549951979	-0.507206
C	 0.02310022	-0.8124622373	 1.142811355	 0.208727
C	 0.0248139518	-0.2334479843	 2.5197128803	-0.505662
H	 0.8537141148	 1.8619229753	 0.5311184113	 0.132666
H	-0.0470748208	 1.8052694829	-0.994411769	 0.137313
H	-0.9210866338	 1.8277359122	 0.5474995084	 0.132664
H	-0.0161646494	-0.3377404621	-2.083803532	 0.10593
H	 0.9381404716	-3.9182948079	-1.4800771873	 0.117704
H	-0.8209770853	-3.9522880061	-1.4632545662	 0.117702
H	 0.0288529192	-2.9951556339	-2.6806606748	 0.113699
H	 0.9654814376	-3.9732358832	 1.3521541424	 0.119223
H	 0.0812964111	-3.1297933917	 2.6234159057	 0.113642
H	-0.7935650309	-4.0069262801	 1.3686170719	 0.119224
H	 0.8963853962	 0.4084790845	 2.7043316641	 0.122221
H	-0.8676095057	 0.373863458	 2.7211041037	 0.122226
H	 0.0475581101	-1.0315611331	 3.2643058495	 0.132616
