18
gdb 106910	4.14429	1.11613	0.99436	4.2484	78.18	-0.2317	-0.0564	0.1754	1223.2727	0.147875	-401.951415	-401.943166	-401.942221	-401.984382	31.358	
C	-0.3745385595	 1.4751334966	-0.0906788963	-0.379844
C	 0.144823327	 0.0434332593	 0.1012511307	-0.293691
C	 0.8787650396	-0.4955930176	-1.104198656	 0.303133
N	 0.129688014	-0.9384684222	-2.3162141528	-0.359458
C	 0.9170993984	-1.9195605156	-1.5037842356	-0.249383
C	 2.2927609509	-2.185073758	-2.0940326335	 0.432642
O	 2.7331666368	-3.2519042886	-2.4492687172	-0.329683
C	 2.9897527308	-0.8656974849	-2.0900886	-0.203658
C	 2.214998976	 0.0656848215	-1.5203965397	-0.084472
H	 0.4437588639	 2.1790671148	-0.2730052152	 0.123809
H	-1.0594115341	 1.5364137452	-0.942200709	 0.127095
H	-0.9098778642	 1.8152011074	 0.8003635647	 0.120773
H	 0.8112853762	 0.004635888	 0.9718420543	 0.113221
H	-0.6942735007	-0.6261275788	 0.3273344989	 0.101786
H	-0.8530117213	-1.0601661158	-2.0627091322	 0.230307
H	 0.3973272807	-2.709018999	-0.9738921496	 0.107608
H	 3.9737674831	-0.7282263768	-2.5189476282	 0.120288
H	 2.4694383725	 1.1124041847	-1.3979037431	 0.11953
