21
gdb 109954	2.31323	1.45731	1.07023	1.6423	79.42	-0.2467	0.0655	0.3121	1212.4615	0.181361	-424.1866	-424.177241	-424.176297	-424.221033	35.286	
C	 0.2750914254	 1.4720158295	-0.1798305891	-0.248707
O	-0.141853268	 0.134666276	-0.4069582133	-0.249616
C	 0.7153050983	-0.5810545101	-1.2653878998	 0.018904
C	 1.9577754431	-1.2419669115	-0.5597330198	 0.112121
O	 1.8698971789	-1.1759672258	 0.8432611313	-0.442714
C	 1.5474654548	-2.6111185427	-1.1874909197	-0.337736
C	 0.2139663172	-1.9820113703	-1.6156718496	 0.329462
C	-1.1622610481	-2.4876664593	-1.287961168	-0.307863
C	-0.7163164832	-2.3709312355	-2.7253037075	-0.337428
H	 1.2527390016	 1.5104483505	 0.3172114529	 0.128599
H	 0.3322032043	 2.0339694517	-1.1232470098	 0.112646
H	-0.473972032	 1.9360707816	 0.466005147	 0.129751
H	 0.9816806952	 0.030156822	-2.1399938976	 0.063971
H	 2.9423330833	-0.8667357568	-0.8527731717	 0.074774
H	 0.9511112478	-0.9513924006	 1.0458185762	 0.288473
H	 2.1856572459	-2.9127102833	-2.024250997	 0.097136
H	 1.4927302832	-3.4291159419	-0.4648392564	 0.107308
H	-1.2450403322	-3.4788614645	-0.8536209551	 0.111611
H	-1.8791648156	-1.7651435416	-0.9148580209	 0.126226
H	-1.1481112022	-1.5802083972	-3.3314059979	 0.111382
H	-0.4978415178	-3.2831745201	-3.2715312542	 0.111702
