20
gdb 55154	3.46669	1.21671	1.01619	3.8274	79.72	-0.2305	0.0352	0.2657	1217.9822	0.172173	-403.183678	-403.175135	-403.174191	-403.21725	32.205	
C	-0.2388120917	 1.378132454	-0.5445641419	-0.497056
C	-0.1281837583	-0.1166806719	-0.2816035427	 0.389665
O	 0.8602657655	-0.7592952061	-0.5977069592	-0.375133
N	-1.2014356435	-0.7090751555	 0.3234247907	-0.088415
C	-2.4001058089	-0.0441099206	 0.8359656432	-0.186076
C	-3.3966715329	-1.1756786245	 1.0122961927	-0.042057
C	-3.6189115967	-2.0740429301	-0.1782181248	-0.284688
C	-2.6372592675	-2.4781094827	 0.8915832451	-0.047013
C	-1.1801017683	-2.1410563333	 0.6387241046	-0.168906
H	 0.6957847143	 1.7084785739	-0.9965290466	 0.145421
H	-1.0661430213	 1.603530966	-1.225929034	 0.136001
H	-0.412963573	 1.9389585955	 0.3794727839	 0.13363
H	-2.2130720656	 0.4487192279	 1.802560834	 0.105761
H	-2.7469634285	 0.7228497452	 0.1357611657	 0.11586
H	-4.1919317671	-1.0427517711	 1.7356503785	 0.09187
H	-4.5582173928	-2.6134266667	-0.2238836821	 0.115309
H	-3.2296700594	-1.7622778873	-1.1430835723	 0.119481
H	-2.8627999553	-3.3251558866	 1.5277443885	 0.092449
H	-0.7259654239	-2.6847740073	-0.1935050071	 0.134965
H	-0.5717986752	-2.3426252188	 1.5317416238	 0.108931
