14
gdb 44709	3.51858	1.36587	1.16313	3.6483	61.98	-0.2497	-0.0523	0.1974	1015.53	0.101468	-473.874185	-473.866925	-473.865981	-473.906947	26.831	
O	-0.0174195269	 0.016037161	-0.4803117185	-0.27403
C	-0.0110675975	 1.1545275386	-0.1239973474	 0.393674
C	-1.0844124719	 2.1303970909	 0.4015570394	-0.379254
C	 0.0127866695	 3.2217718858	 0.5262618674	 0.093274
O	 0.3782813489	 3.5336893942	 1.8645650878	-0.242685
C	 1.4836654056	 2.8086359858	 2.2470186522	 0.475234
O	 1.9327353071	 2.8214719916	 3.3556315347	-0.375724
N	 1.9536473067	 2.1233475333	 1.1473814218	-0.356758
C	 1.1077818607	 2.236943772	-0.0081074317	-0.145928
H	-1.8692077671	 2.3401653171	-0.331480984	 0.147576
H	-1.5535552224	 1.8474571984	 1.3477806625	 0.159229
H	-0.1561667481	 4.1471771276	-0.0224971603	 0.113809
H	 2.6636401181	 1.4210107014	 1.2673661534	 0.276705
H	 1.6470769373	 2.4766111722	-0.9292611875	 0.114877
