18
gdb 88506	2.44149	1.36382	1.15656	1.8697	77.98	-0.2416	0.0382	0.2799	1140.7383	0.146027	-401.858888	-401.849943	-401.848999	-401.892721	34.268	
O	-0.0860827796	 1.0244927849	 1.4052670463	-0.421936
C	 0.0073203596	 0.0157229813	 0.4420994602	 0.114646
C	-0.6248499327	-1.29048971	 0.8257916931	-0.342827
C	-1.2477661771	-0.4478635079	-0.2642736803	-0.113284
C	-2.5558074586	 0.2911492355	-0.1038996136	 0.061932
C	-3.729598568	-0.4129888137	 0.5084898075	-0.265618
N	-3.0677428485	 0.6706516411	 1.2309207999	-0.338944
C	-2.7777380876	 1.277401034	-1.137809285	 0.337438
C	-2.9245297973	 2.0787369161	-2.0221789894	-0.445723
H	-0.3333817259	 1.8439499862	 0.9621324626	 0.300395
H	 0.9446473242	-0.0038046076	-0.1126633798	 0.092975
H	-0.1453718659	-2.2199532255	 0.5411293445	 0.118939
H	-1.0980721167	-1.3138186453	 1.8023829456	 0.121619
H	-1.1020319218	-0.8109317034	-1.2776725883	 0.099384
H	-4.7323831054	-0.1865884246	 0.159403301	 0.127232
H	-3.5651070405	-1.4408500461	 0.822112696	 0.117302
H	-2.437419518	 0.324162806	 1.9488439007	 0.241789
H	-3.0731104701	 2.792582449	-2.7941345209	 0.194679
