21
gdb 71050	2.33914	2.08429	1.30848	1.2146	90.13	-0.2018	-0.0251	0.1767	1039.5819	0.181807	-349.86258	-349.854246	-349.853302	-349.894668	33.676	
C	-0.1527002542	 1.4586986232	-0.0388041412	-0.483542
C	-0.0484227705	-0.0468118997	 0.0144973244	 0.268045
C	-0.4002551712	-0.8806839976	-1.2861846331	-0.30262
C	-0.5271263804	-2.0178925952	-0.2739477046	 0.047599
C	 0.5875377866	-2.7510390638	-0.078734658	-0.110682
C	 1.3649274966	-2.1770738824	 1.0930494995	-0.303125
C	 0.6552098291	-0.8090511225	 1.2474028262	 0.280399
C	 1.0727155657	 0.0366506656	 2.4316220076	-0.488088
C	-0.7735776395	-1.0399126298	 0.8879650074	-0.189154
H	 0.6907560223	 1.8910197307	-0.5902916967	 0.119919
H	-1.0707457372	 1.7557424473	-0.559666636	 0.117484
H	-0.1729508203	 1.9221677503	 0.9497300398	 0.120217
H	-1.329741418	-0.4714790623	-1.7031431702	 0.096674
H	 0.3443156208	-1.0008616026	-2.0796365585	 0.094744
H	 1.1166066762	-3.2169458171	-0.9061335546	 0.091127
H	 1.3296536428	-2.7189414355	 2.0510343893	 0.10134
H	 2.4248900534	-2.1091258219	 0.8138697527	 0.103489
H	 2.0549473865	 0.4973574714	 2.2741392333	 0.118646
H	 0.3618255316	 0.8338605227	 2.6597937163	 0.119712
H	 1.1479281507	-0.5944490364	 3.3251194176	 0.117435
H	-1.6632781108	-0.9265176146	 1.4965317889	 0.080382
