17
gdb 4108	2.9404	1.8522	1.19536	1.1276	67.37	-0.2483	0.0035	0.2518	991.4155	0.141808	-400.964629	-400.956594	-400.95565	-400.997039	29.593	
C	-0.2398384357	 1.5219708568	 0.0546106399	-0.404127
C	 0.0336263691	 0.0213431701	 0.0036972112	-0.079694
C	 0.9398239846	-0.458159844	-1.1467056029	-0.09009
O	 1.4720268986	-1.7067185169	-0.7194687458	-0.254692
C	 1.7417052734	-1.6036454878	 0.6715224017	-0.158425
C	 0.798075287	-0.5393377394	 1.1837437829	 0.3603
N	 0.6574970661	-0.117152559	 2.3726169929	-0.221861
O	 1.5059961883	-0.8176087685	 3.2525927532	-0.396217
H	 0.6962639245	 2.0877468467	 0.0993978195	 0.120581
H	-0.7960249105	 1.8480814529	-0.8299878153	 0.114089
H	-0.824652817	 1.7755145306	 0.9418634332	 0.138804
H	-0.9180514655	-0.5233972207	-0.0700113951	 0.104234
H	 0.4090988838	-0.6239482709	-2.0871089199	 0.113466
H	 1.7462450499	 0.2739551867	-1.323978109	 0.090768
H	 1.5803481089	-2.5775556682	 1.1440248464	 0.135581
H	 2.7847680772	-1.3069635143	 0.8679425758	 0.119371
H	 1.3118076772	-0.4028689841	 4.0995889313	 0.307912
