16
gdb 45655	3.17058	1.7578	1.14695	2.0345	79.36	-0.2172	-0.0407	0.1765	1012.4546	0.127879	-396.969184	-396.962298	-396.961354	-397.000619	26.77	
N	-0.1524498837	 1.2820915157	-0.0092720004	-0.55672
C	-0.0326501384	 0.0157062371	-0.0167555317	 0.319719
C	 1.1804360974	-0.9450901996	-0.0242136916	-0.278084
N	 0.6550030444	-2.3237637204	-0.0314086964	-0.361137
C	-0.6166498077	-2.1737431345	-0.028363534	 0.412388
C	-1.7914706179	-3.0435390231	-0.0314034883	-0.186567
C	-2.8870825899	-2.2687144712	-0.0250559263	-0.077059
C	-2.5345783269	-0.7938499206	-0.0171711182	-0.231564
N	-1.0932686328	-0.8650515326	-0.0200454737	-0.078308
H	 0.7641844362	 1.727406511	-0.0082372004	 0.218104
H	 1.8093752494	-0.7690739048	-0.9051744265	 0.137375
H	 1.8120845085	-0.7792978263	 0.8568107812	 0.137383
H	-1.7457003248	-4.122302582	-0.0377118078	 0.132847
H	-3.9137384126	-2.6109950285	-0.0253326928	 0.125447
H	-2.9249335937	-0.263845776	-0.896620937	 0.14309
H	-2.9219260375	-0.2740247141	 0.8696538839	 0.143087
