18
gdb 97111	3.05194	1.24393	1.03149	2.4052	75.39	-0.2482	0.0094	0.2576	1215.9045	0.146985	-439.054953	-439.046132	-439.045188	-439.08939	31.102	
C	 0.0819944412	 1.528208496	 0.1007645934	-0.341452
N	 0.2381126824	 0.0857750829	-0.0244256174	-0.331542
C	 0.5389826127	-0.5920586288	 0.9795924309	 0.41811
O	 0.7517335333	-0.2266799485	 2.3035488978	-0.278293
C	 1.0723926975	-1.6006457274	 2.678508341	-0.133882
C	 0.7847494693	-2.0724139724	 1.2388334186	 0.275514
C	-0.2475960009	-3.1444158441	 0.8403833941	-0.35124
C	 0.9136306194	-3.7454411556	 0.0248383121	-0.071575
O	 1.8255924202	-2.7366099807	 0.5230649842	-0.302549
H	 0.7422302349	 2.0204242923	-0.6212744878	 0.131115
H	-0.9445598771	 1.8011241481	-0.1681612752	 0.128448
H	 0.2986329886	 1.9172675843	 1.1022234183	 0.128431
H	 2.1193023975	-1.7012188261	 2.9754629595	 0.130298
H	 0.4036549937	-1.9639006508	 3.4634543293	 0.116989
H	-0.6041702149	-3.7600731068	 1.6679959043	 0.117145
H	-1.0937101213	-2.7695752782	 0.2645364661	 0.135692
H	 1.236971674	-4.7544886925	 0.3018064191	 0.108591
H	 0.8020793194	-3.6837755218	-1.0626639082	 0.120199
