18
gdb 46372	3.50163	1.16221	0.91976	4.1904	72.7	-0.2323	0.0064	0.2387	1251.9053	0.148363	-439.076029	-439.067914	-439.06697	-439.109708	29.482	
O	 0.0384768447	 0.1418053126	 0.3911738759	-0.327037
C	-0.0371862036	 1.2852395417	 0.0770068573	 0.47397
O	-1.1411349044	 1.9769788644	-0.3425159015	-0.238951
C	-0.3879079056	 3.2325796354	-0.4309618235	-0.095174
C	 0.9036069923	 2.4999485477	-0.0145851776	-0.168968
N	 1.491249432	 2.8766366279	 1.2393611035	-0.080019
C	 2.4703527563	 3.9871275288	 1.2676563309	-0.164724
C	 3.2750314995	 3.2031382456	 2.3313549474	-0.230535
C	 2.482105108	 1.9610494215	 1.8583849237	-0.153326
H	-0.4250446961	 3.6329581839	-1.4454772325	 0.123583
H	-0.7556038603	 3.9545039996	 0.2996621581	 0.131872
H	 1.6349301547	 2.3958024744	-0.8376249225	 0.087189
H	 3.0258875744	 4.0903051156	 0.3204702476	 0.087199
H	 2.0535429926	 4.961871974	 1.5401968874	 0.106402
H	 4.3583026137	 3.17688672	 2.2153018299	 0.11008
H	 3.0239051058	 3.499985691	 3.3508766031	 0.119111
H	 2.0677524336	 1.2825952105	 2.6079179391	 0.122202
H	 3.0407736324	 1.3695925853	 1.1168968238	 0.097125
