19
gdb 94066	4.58112	0.99142	0.85632	0.5795	78.96	-0.2377	0.0317	0.2694	1353.8992	0.158328	-422.989912	-422.981114	-422.98017	-423.02314	33.58	
C	-0.0003565023	 1.5232329808	 0.051682171	-0.408976
C	 0.0218266257	 0.0053350895	-0.0091110955	 0.126383
C	 0.7274600239	-0.5318012558	-1.2540521769	-0.076559
O	 0.8137615936	-1.9492048997	-1.2283232043	-0.266281
C	 1.4971525457	-2.4030692179	-0.0619432114	-0.066867
C	 0.7810736051	-1.8731175952	 1.1931825688	-0.093645
O	 0.7033993975	-0.4629119345	 1.1544576738	-0.264695
C	 1.5505677584	-3.8585726182	-0.0732632686	 0.293619
C	 1.5928342264	-5.0580081985	-0.0286604264	-0.415465
H	 1.0180534769	 1.9233395365	 0.0334313304	 0.126215
H	-0.5540738342	 1.936272972	-0.7968959934	 0.11865
H	-0.4809720828	 1.8558967455	 0.9750982653	 0.130722
H	-1.0075864971	-0.3917938629	-0.0018708787	 0.073332
H	 0.1724460388	-0.2758888218	-2.1612296539	 0.111186
H	 1.7350615768	-0.087290869	-1.3186058842	 0.091205
H	 2.52314103	-1.9954571496	-0.0621604408	 0.099648
H	-0.2217905105	-2.324805437	 1.2423861955	 0.103624
H	 1.337666513	-2.1418995844	 2.0947550814	 0.118338
H	 1.6354601752	-6.1189479197	-0.0040247623	 0.199566
