16
gdb 123338	6.95113	0.71548	0.6816	4.2114	77.16	-0.255	-0.0049	0.2501	1577.8157	0.124897	-396.897147	-396.888741	-396.887797	-396.93147	30.164	
C	 0.012033581	-1.2488601806	 0.0730240227	-0.430587
C	-0.0237210251	-0.0476938231	 0.0821583582	 0.290896
C	-0.0235130581	 1.4087744334	 0.0879350336	-0.344253
C	 1.4000810407	 1.9987872296	-0.103783072	-0.322906
C	 1.41413444	 3.4919979902	-0.1021886048	 0.337072
C	 1.4472462338	 4.434209716	-1.106073558	-0.152966
N	 1.4088404099	 5.6810236655	-0.558107621	-0.182277
N	 1.3522713359	 5.5742157886	 0.7368244938	-0.114946
N	 1.351884335	 4.255525346	 1.0199350649	-0.232252
H	 0.0256939093	-2.310681364	 0.0656065856	 0.201505
H	-0.6764658998	 1.7887672415	-0.7065748704	 0.146926
H	-0.4481471253	 1.7760451653	 1.0305198507	 0.132575
H	 2.0556929613	 1.6062796606	 0.681276463	 0.127691
H	 1.8051880137	 1.6416342579	-1.0540695651	 0.140947
H	 1.5019449021	 4.2850601821	-2.172627381	 0.123733
H	 1.3285989155	 3.962032911	 1.9839807598	 0.27884
