23
gdb 115587	2.52394	1.02581	0.94476	2.1265	81.8	-0.2507	0.0703	0.3211	1409.7147	0.203825	-425.413634	-425.403097	-425.402153	-425.448926	39.269	
C	 0.0034664036	 1.642529987	-0.0867862899	-0.416713
C	 0.006348058	 0.1159727906	 0.05924781	-0.210372
C	-1.3957459672	-0.5104394013	 0.0369927958	 0.374336
O	-2.2046764351	 0.0027554768	 1.0820619924	-0.48795
C	-2.0345604774	-0.5535540878	-1.3900136548	-0.286169
C	-1.6004963292	-2.0394112395	-1.50183898	-0.231223
C	-1.4219990282	-2.0663165137	 0.0384334677	 0.031492
C	-0.2903420987	-2.8679865196	 0.6480299634	-0.119065
O	-0.588891236	-4.2433213588	 0.4388214311	-0.424488
H	 1.0250952843	 2.0314308935	-0.1252636159	 0.119842
H	-0.5060146229	 1.9632400215	-1.0019722745	 0.121443
H	-0.4881071934	 2.127792819	 0.7639216279	 0.113241
H	 0.6060162009	-0.3223965605	-0.747218403	 0.097824
H	 0.4967422706	-0.1531189003	 1.0022395353	 0.102296
H	-2.2812236238	 0.9556776076	 0.9664213442	 0.274707
H	-3.1199312054	-0.4482097445	-1.3175546259	 0.103982
H	-1.6558664763	 0.1459011397	-2.1403801669	 0.088466
H	-2.3153955801	-2.7424400057	-1.9309823237	 0.105623
H	-0.6467223625	-2.1548414382	-2.0260109537	 0.09673
H	-2.3589983749	-2.3728070683	 0.5133277703	 0.092639
H	 0.6682633987	-2.600045958	 0.1759048661	 0.077366
H	-0.2054764515	-2.6377007926	 1.7225741195	 0.091384
H	 0.1309725966	-4.7651736266	 0.8050237345	 0.284608
