17
gdb 2936	5.92009	1.91663	1.57773	1.4309	66.13	-0.2295	0.0185	0.248	819.6131	0.148569	-309.726463	-309.719311	-309.718367	-309.757828	26.074	
C	-0.1350065691	 1.5235538794	 0.0515868516	-0.380248
C	-0.023943833	-0.002590423	 0.0309577158	-0.173097
C	 0.8625857855	-0.547456236	 1.158030147	 0.102881
O	 0.3304082209	-0.1719345844	 2.4362033382	-0.277133
C	 0.1268595307	-1.3206606812	 3.2529804727	-0.112386
C	 0.5197592365	-2.4885170693	 2.3927163602	-0.09653
C	 0.945357704	-2.0500114419	 1.2145608158	-0.092827
H	 0.8461442572	 1.9929917907	-0.0829156006	 0.110321
H	-0.7899916012	 1.8835027868	-0.7475834685	 0.107583
H	-0.5399745618	 1.8633533841	 1.0083411855	 0.135502
H	-1.0172094712	-0.4579617591	 0.123598662	 0.097599
H	 0.3934795174	-0.3390092019	-0.9272736646	 0.08879
H	 1.867566296	-0.1001838439	 1.0536743423	 0.075161
H	 0.7423834838	-1.2492631417	 4.1647854667	 0.102688
H	-0.9241197242	-1.367911619	 3.5788442552	 0.104349
H	 0.457618788	-3.5172637404	 2.7244633822	 0.10455
H	 1.3035403905	-2.6482302393	 0.3861758082	 0.102798
