15
gdb 52835	2.72042	1.00997	0.95045	4.1197	70.8	-0.2549	-0.0126	0.2423	1322.7021	0.109897	-457.752269	-457.742784	-457.74184	-457.78864	32.209	
C	-0.0100157413	 1.5142194054	-0.090766333	-0.500819
C	 0.0354724652	 0.0615877675	-0.0370065726	 0.034498
C	 0.0740201593	-1.1413422993	 0.0136845874	 0.05238
C	 0.0963998554	-2.5927971533	 0.0250644335	 0.051357
O	 1.040742071	-3.1557815408	-0.8577083436	-0.44425
C	 0.1386762118	-3.2938524694	 1.4031330776	-0.095928
O	-1.2095682701	-3.8238082293	 1.1993221281	-0.237396
C	-1.315993216	-3.2656622503	-0.0447345583	 0.409913
O	-2.2047660274	-3.358003315	-0.8244515616	-0.321962
H	 0.9365505314	 1.9246340029	-0.458192138	 0.157999
H	-0.8082490671	 1.8602688071	-0.7558102419	 0.160926
H	-0.1940926287	 1.9373900449	 0.9024379885	 0.159239
H	 0.917677847	-2.7423190932	-1.7200399345	 0.297454
H	 0.8734422603	-4.0981191008	 1.455781267	 0.140581
H	 0.1772897693	-2.6437888463	 2.2766933313	 0.136008
