18
gdb 46692	2.79209	1.79032	1.37759	2.571	74.15	-0.2023	-0.013	0.1893	962.7293	0.150922	-401.92498	-401.917952	-401.917008	-401.956544	28.26	
O	 0.0439098469	-0.0554842678	 0.1379289135	-0.327584
C	-0.0232036122	 1.1464879687	 0.013979979	 0.403826
C	-1.3672465496	 1.8755241598	-0.0678637021	-0.278865
N	-1.415237844	 3.061894811	-0.9435905958	-0.322155
C	-0.1502958061	 3.6887208843	-1.2710854644	 0.026962
C	 0.8798836377	 4.2048627435	-0.3057902576	-0.06826
C	 1.0678974092	 3.3127829328	 0.9200962562	-0.258359
C	 1.1832972489	 2.0531561065	-0.012847171	-0.132756
C	 1.1849554578	 3.0090729479	-1.2378040419	-0.116537
H	-2.1264715277	 1.1550207583	-0.3781975174	 0.125947
H	-1.6231601148	 2.1696098274	 0.9617115529	 0.131251
H	-1.8452136298	 2.7862186119	-1.8188092091	 0.225714
H	-0.2751389368	 4.3623620999	-2.1147423973	 0.098956
H	 1.2354419479	 5.226790642	-0.3765044021	 0.087639
H	 2.0287937972	 3.4977802089	 1.4049280791	 0.115524
H	 0.2871960767	 3.3195593235	 1.6863935874	 0.10589
H	 2.0911612179	 1.4680880722	 0.1281698099	 0.091762
H	 1.8607198908	 2.9250507594	-2.0805245094	 0.091045
