15
gdb 35302	5.75436	0.99556	0.93227	4.414	77.87	-0.2639	-0.0159	0.248	1210.5942	0.112103	-379.598921	-379.590945	-379.59	-379.631486	29.997	
C	-0.060137005	-1.2188365433	-0.2395829287	-0.456751
C	-0.0250111488	-0.0259884058	-0.0929481713	 0.353113
C	 0.0200578221	 1.4075222724	 0.1057327737	-0.140961
C	-0.244657262	 1.9695380769	 1.5387505209	-0.325593
C	 1.1727230832	 2.5419249181	 1.481182382	 0.207573
C	 2.1670060911	 1.4849826096	 1.1711081516	-0.267389
N	 1.4065030164	 2.0466329389	 0.0493535692	-0.151436
C	 1.5360206689	 3.8559929185	 1.9174465543	 0.206258
N	 1.8081736879	 4.9127637087	 2.3017425378	-0.332304
H	-0.0965368466	-2.2707260422	-0.3844194035	 0.211357
H	-0.5962383292	 1.9124181126	-0.6411371313	 0.131909
H	-1.0201582629	 2.7349731436	 1.5460700915	 0.141676
H	-0.433910949	 1.2462173765	 2.3336330024	 0.131431
H	 3.2107968945	 1.779520515	 1.1540171009	 0.15044
H	 1.9731887396	 0.4644726207	 1.4913234904	 0.140677
