13
gdb 133173	3.22903	1.37752	0.97142	4.539	65.26	-0.2613	-0.0709	0.1903	1109.525	0.087423	-497.846529	-497.838891	-497.837947	-497.879013	27.753	
C	 0.0412029194	 1.5045610804	 0.0325044215	-0.468643
C	-0.05585457	 0.0132300334	 0.0273346503	 0.4285
C	-1.1766078435	-0.7153218558	-0.1759196418	-0.345976
C	-1.1227531985	-2.1581818741	-0.153363735	 0.291604
O	-2.0425808407	-2.936650928	-0.3186297773	-0.348351
C	 0.2681156977	-2.6259286228	 0.1107820946	 0.238401
F	 0.4483708318	-3.9258668552	 0.1557533396	-0.023563
N	 1.3188491105	-1.9182834397	 0.3011487333	-0.115486
O	 1.1525408009	-0.5438961819	 0.2581334023	-0.267478
H	 0.7425884854	 1.8423393742	-0.7368435062	 0.162625
H	-0.9362714638	 1.9502580815	-0.1543953226	 0.150458
H	 0.4179088303	 1.8574267565	 0.9976476037	 0.162625
H	-2.1244430095	-0.2254569186	-0.3573727425	 0.135284
