17
gdb 81528	2.25058	1.9496	1.25087	1.117	68.97	-0.2411	-0.0146	0.2266	1003.2263	0.13299	-458.890107	-458.881616	-458.880672	-458.922926	32.062	
C	-0.0897789772	 1.5253617082	-0.0014997096	-0.481393
C	-0.0458472621	-0.0006814318	-0.0055297091	 0.273631
C	-1.419411782	-0.5402027665	-0.348958443	 0.083894
O	-2.2858712456	-0.6900631184	 0.4789930794	-0.282849
C	 1.2465578227	-0.6702995823	-0.5919042329	-0.033047
O	 2.0014612611	-0.1811535449	 0.5812608254	-0.306311
C	 0.7390800813	-0.7063697771	 1.1410843078	-0.039322
C	 0.9577668882	-1.9486442719	 0.2194426057	 0.111171
O	-0.1094571486	-2.7306055842	-0.2358361543	-0.415386
H	 0.8949275134	 1.924775181	 0.2463247087	 0.146463
H	-0.3902883893	 1.9106763446	-0.982315491	 0.121335
H	-0.8197080045	 1.8793477229	 0.7325482144	 0.137907
H	-1.6173003272	-0.6993595235	-1.4315813005	 0.080199
H	 1.7089012092	-0.5582092235	-1.5728469458	 0.100145
H	 0.597817159	-0.6436166181	 2.2199011123	 0.102504
H	 1.8505138129	-2.5267981711	 0.4761717327	 0.099324
H	-0.5330721113	-3.1641665535	 0.5131433698	 0.301735
