19
gdb 40317	2.82857	1.40842	1.09967	2.5915	74.67	-0.257	0.0802	0.3373	1145.688	0.158214	-422.962408	-422.953906	-422.952962	-422.996132	31.904	
C	-0.4387242397	 1.3198294292	 0.0151598141	-0.251699
C	 1.0412980141	 1.0593913483	 0.1388497594	-0.280163
C	 0.0767261849	-0.0958539705	 0.0946126439	-0.081411
C	-0.1967941104	-0.9099468126	 1.3270291214	 0.364113
C	 0.9079236206	-1.4851497909	 2.1130851149	-0.21881
O	 0.2057800321	-0.3225246211	 2.5670033605	-0.264617
C	-1.5354751429	-1.595478507	 1.3516903098	 0.003441
C	-2.3059199853	-1.7522823962	 2.5889590095	-0.173922
O	-2.6670685041	-0.7651642764	 1.6179387378	-0.234232
H	-0.9541613654	 1.7045108625	 0.8871533434	 0.135418
H	-0.8302429613	 1.6683978828	-0.9336562261	 0.111533
H	 1.6735460367	 1.2273129003	-0.7257201466	 0.108233
H	 1.5014967922	 1.280150235	 1.0950082411	 0.12809
H	 0.0428612801	-0.6777330455	-0.8229773005	 0.08653
H	 0.7435925932	-2.3837148324	 2.7057050462	 0.112968
H	 1.9325806942	-1.3101610714	 1.7907918159	 0.119089
H	-1.6904920959	-2.3117237001	 0.5421988725	 0.093047
H	-2.9989761977	-2.5866349491	 2.6877202483	 0.11092
H	-1.8930994855	-1.357248645	 3.5135474345	 0.13147
