17
gdb 51082	3.90998	1.13724	1.05636	3.1957	72.48	-0.2455	-0.0295	0.2159	1156.0571	0.134725	-421.783999	-421.776173	-421.775228	-421.817494	29.558	
O	-0.5902039139	 0.5986507708	 0.6118532778	-0.242826
C	 0.1559835796	 0.9047329944	-0.2823650819	 0.159107
C	 1.3373588583	 1.845728766	-0.1232458913	-0.408686
C	 1.3243384732	 2.9461176658	-1.1589787705	 0.35947
C	 2.5138598954	 3.9185729863	-1.4491527434	-0.263379
C	 1.7393419053	 3.9049457087	-2.8009298719	 0.013778
O	 1.4560430066	 2.4880541634	-2.5536226062	-0.318675
C	 0.4059256682	 4.566007349	-2.4001518489	-0.080009
C	 0.1187964329	 3.9116035545	-1.2747920826	-0.119612
H	 0.0247188277	 0.5051324792	-1.3103929513	 0.10422
H	 1.3247144273	 2.2613418259	 0.8885058425	 0.126933
H	 2.2564273415	 1.2583114544	-0.2489992202	 0.131411
H	 2.5787131945	 4.8521656053	-0.8872521407	 0.10288
H	 3.4739720797	 3.3991927705	-1.5057648468	 0.107574
H	 2.1930856446	 4.1152660259	-3.7676523028	 0.086924
H	-0.1166792157	 5.357311311	-2.9165721513	 0.116174
H	-0.7109071253	 3.9958463288	-0.5881838903	 0.124716
