23
gdb 92535	2.77206	1.43599	1.13574	1.7376	84.02	-0.241	0.0703	0.3113	1180.7123	0.207334	-388.291243	-388.282493	-388.281548	-388.324694	34.233	
C	-0.6830876221	 1.3861954777	-0.0153863019	-0.414093
C	-0.0007318632	 0.019416394	-0.0178428298	 0.046578
C	 0.9371304347	-0.2315794577	-1.2191851372	-0.241531
C	 1.710058719	-1.5014846233	-0.8284269184	-0.067313
C	 3.243750822	-1.4198770806	-0.6975866506	-0.08624
O	 3.1658112399	-1.3145848928	 0.7397928705	-0.289385
C	 1.7296837883	-1.5138757809	 0.7226216028	 0.126366
C	 0.8736590336	-0.3217594225	 1.2274311916	-0.037667
C	 1.7296698809	 0.8402418709	 1.7460950441	-0.384906
H	 0.0460746454	 2.2026746928	-0.0241260177	 0.11836
H	-1.3188124421	 1.5038306708	-0.8995269316	 0.110542
H	-1.3187430033	 1.5151194159	 0.8674053608	 0.1125
H	-0.7884470735	-0.7469003993	-0.0639583118	 0.06956
H	 0.3878707739	-0.3343621505	-2.1596830291	 0.094689
H	 1.6221854825	 0.6169079366	-1.3417920023	 0.097761
H	 1.3290411571	-2.396465381	-1.3228560598	 0.07278
H	 3.7855746849	-2.3238013544	-1.00413738	 0.096721
H	 3.7258427985	-0.5444270319	-1.1519671509	 0.096415
H	 1.4688857395	-2.4563629735	 1.2181584675	 0.068936
H	 0.2247889653	-0.6526309627	 2.0461993606	 0.063279
H	 2.3490638355	 1.281301742	 0.9600223726	 0.115774
H	 1.098183481	 1.6290053161	 2.1653734162	 0.105735
H	 2.4093557221	 0.4943622943	 2.5287622842	 0.12514
