16
gdb 49772	2.16501	1.63272	0.99461	3.4324	80.01	-0.2275	-0.0131	0.2143	1157.9525	0.124898	-396.904237	-396.895763	-396.894819	-396.938219	30.505	
N	-0.0358738128	 1.3096085964	 0.025372869	-0.46497
C	-0.045891324	 0.0404238372	-0.0769562217	 0.083145
N	-1.2158837598	-0.6854782251	-0.0309902207	-0.052615
C	-2.4998255344	-0.1706522946	 0.1159813136	 0.090376
N	-3.4575555872	-1.0084164815	 0.1420811131	-0.262064
C	-2.8736696531	-2.3443458129	-0.0243860896	-0.182523
C	-1.3091875319	-2.1568634101	-0.0631786716	-0.189316
C	-0.6601649963	-2.7516597393	-1.2242558658	 0.329642
C	-0.1278907447	-3.2579565031	-2.1753438918	-0.452698
H	 0.9161555999	 1.6612603553	-0.0403709043	 0.229963
H	 0.8297596142	-0.6019939237	-0.2174302723	 0.108397
H	-2.6055108307	 0.9038495766	 0.1956728903	 0.1706
H	-3.1721794329	-2.9958881933	 0.8012890715	 0.126604
H	-3.2375362614	-2.7958748659	-0.9521412576	 0.133433
H	-0.8558480587	-2.5714531019	 0.8463574822	 0.123073
H	 0.3380641938	-3.7030092339	-3.0199675242	 0.208952
