18
gdb 49593	2.97658	1.45871	1.18381	3.6793	75.27	-0.2335	-0.0137	0.2198	1062.7618	0.149318	-401.921222	-401.913835	-401.912891	-401.953463	29.081	
O	-0.0708460535	-0.0228186231	 0.0233441034	-0.258988
C	 0.0010307236	 1.1796892666	 0.0692729495	 0.160147
C	 1.297634095	 1.9628525865	 0.0101973676	-0.087487
C	 1.4051035239	 2.8688731047	-1.2309857768	-0.076165
C	 0.4491726626	 4.017641937	-1.459406964	-0.293505
C	 1.7728307232	 4.2755820835	-0.7867247291	-0.037242
C	 1.7828794648	 4.2680764714	 0.7265774671	-0.044792
N	 0.4764814408	 3.9554214305	 1.3440249445	-0.33547
C	 1.4925450331	 2.8912744883	 1.2141290444	-0.074457
H	-0.9081152169	 1.810868455	 0.159159997	 0.091207
H	 2.1139154465	 1.233978974	-0.0098384607	 0.092912
H	 1.8608497929	 2.4244544323	-2.1084569724	 0.097377
H	 0.3389012749	 4.3466732648	-2.4870801648	 0.109159
H	-0.4387752106	 4.1099525096	-0.8480103505	 0.14519
H	 2.5404852278	 4.8475456827	-1.2937491983	 0.087467
H	 2.463958822	 4.9265810394	 1.2539817332	 0.090936
H	 0.4554018157	 4.2887802911	 2.3041872561	 0.235575
H	 1.9341452344	 2.4813108157	 2.1168937337	 0.098136
