19
gdb 13016	2.52371	2.47297	1.60566	2.0679	70.57	-0.2267	0.0672	0.2939	876.5432	0.166279	-365.047592	-365.039776	-365.038832	-365.079188	30.476	
C	-0.2047998683	 1.4305311123	 0.025803866	-0.487322
C	-0.0176504258	-0.0647648026	 0.0102842676	 0.362952
C	-0.7692330512	-0.9578163992	 0.9312101286	-0.288327
N	 0.665689968	-0.7111772348	 1.1496189574	-0.139291
C	 1.5290432661	-1.7766838178	 0.5983515685	-0.154123
C	 1.0889348013	-2.0438846627	-0.8563639769	-0.288353
C	 0.4464797381	-0.7079279862	-1.2920711526	 0.073981
O	-0.6547998285	-0.8412354525	-2.1796344009	-0.438425
H	 0.7232090028	 1.9453042323	-0.249147937	 0.112711
H	-0.9786201582	 1.7206841986	-0.6926664481	 0.129295
H	-0.5027258755	 1.7779330097	 1.0181294861	 0.122808
H	-1.4181550672	-0.5154821582	 1.6818191412	 0.110729
H	-1.0951186058	-1.9315315872	 0.575965494	 0.113073
H	 2.5595166912	-1.405911066	 0.6310487306	 0.106476
H	 1.4816432001	-2.6678731867	 1.2323229379	 0.106863
H	 1.9229378739	-2.3425653198	-1.4972132882	 0.095828
H	 0.3310088104	-2.8302695945	-0.9190760362	 0.113767
H	 1.2102459117	-0.051939232	-1.740385851	 0.06358
H	-0.3169039132	-1.1183065926	-3.0368115468	 0.28378
