17
gdb 80030	3.32708	1.51837	1.32099	0.2167	72.33	-0.2434	-0.0019	0.2415	985.7332	0.136486	-421.761579	-421.754534	-421.75359	-421.792636	29.068	
O	 0.1166802849	 1.4862836466	-0.091199877	-0.43965
C	 0.0531732093	 0.1039751291	-0.0375087947	 0.182026
C	 0.1698435898	-0.6622716104	 1.3464052773	-0.234386
C	-1.0337971373	-0.0705959464	 2.0826922539	-0.10164
C	-2.0075698014	-0.0618538456	 1.1597458372	-0.101614
C	-1.3423083822	-0.6484799514	-0.086948305	-0.234395
C	-0.5385835615	-1.8020232752	 0.5684163208	 0.542199
C	-0.0396332868	-3.0621887836	 0.029897336	-0.30494
O	-1.0338614401	-3.0016039826	 1.0793780536	-0.285818
H	-0.5072696526	 1.8177507335	 0.5702332784	 0.276449
H	 0.756212359	-0.2760229584	-0.7828359119	 0.096311
H	 1.114366798	-0.7941030568	 1.8710072174	 0.072287
H	-1.0641673793	 0.2303042962	 3.1198898123	 0.108978
H	-3.0387572654	 0.2480566688	 1.24834815	 0.10898
H	-1.9178555545	-0.7664388433	-1.0032134368	 0.072287
H	-0.403261031	-3.4314076171	-0.9278422053	 0.121464
H	 0.9325754511	-3.4435930636	 0.3383666036	 0.121463
