13
gdb 3148	4.2823	2.77443	1.96983	1.2613	55.68	-0.2499	-0.0309	0.219	655.0597	0.100607	-344.431636	-344.425383	-344.424439	-344.461754	23.	
O	 0.0138125713	 0.0247744055	-0.2623381081	-0.287935
C	-0.0004238604	 1.2038184458	-0.072777908	 0.275831
C	-1.0476934778	 2.2735162075	 0.2874684585	-0.192045
O	-0.0045137216	 3.2783910372	 0.256882005	-0.312081
C	 1.001753529	 2.3183631794	-0.0785621	 0.335699
C	 2.4075215479	 2.3519934411	 0.4473840989	-0.323953
C	 2.1402796255	 2.5846855527	-1.0202445058	-0.323953
H	-1.8229238354	 2.445728936	-0.4676643501	 0.13663
H	-1.5051801871	 2.168995148	 1.2777437185	 0.136628
H	 2.6644077628	 3.2131129223	 1.0544664648	 0.138994
H	 2.8465075695	 1.4109203161	 0.7610980887	 0.138595
H	 2.3924585809	 1.806269121	-1.7324364141	 0.138595
H	 2.2191426956	 3.6008131176	-1.3908276885	 0.138995
