18
gdb 14713	9.7007	0.57965	0.55445	1.4338	91.21	-0.2394	-0.0078	0.2315	1968.0764	0.151197	-310.627892	-310.618257	-310.617312	-310.662894	33.932	
C	-0.0564213757	 1.5633968675	 0.0769894797	-0.387678
C	-0.0011919833	 0.0349219965	 0.0077743077	-0.160537
C	 0.7123585098	-0.4780579014	-1.2464505995	-0.154433
C	 0.7626101343	-2.0202386708	-1.306523579	-0.396099
C	 1.4367226903	-2.5275493011	-2.4909769122	 0.340375
C	 2.0013816655	-2.9287396589	-3.483828661	-0.198353
C	 2.6361357308	-3.3801678925	-4.5996797168	 0.289121
C	 3.1996731549	-3.7806052643	-5.5900486267	-0.558426
H	 0.9501564222	 1.99563528	 0.0835757236	 0.117578
H	-0.5888238963	 1.9793735035	-0.7853240221	 0.117578
H	-0.5706473206	 1.9025331571	 0.9814278158	 0.114742
H	 0.5069257294	-0.3555354048	 0.8995660793	 0.097765
H	-1.0208751682	-0.3716810695	 0.0369797901	 0.097766
H	 0.2076005193	-0.1034182444	-2.1446739842	 0.111104
H	 1.7360554156	-0.0872356217	-1.2817272974	 0.111103
H	 1.2671741973	-2.4038246067	-0.4091580758	 0.135319
H	-0.2601078401	-2.4200004564	-1.2714606688	 0.135323
H	 3.6948315848	-4.1323676621	-6.4605281926	 0.187754
