22
gdb 115793	3.17956	1.21594	1.0685	1.0195	81.45	-0.2297	0.0777	0.3073	1232.6385	0.195172	-404.337398	-404.328426	-404.327482	-404.370653	35.094	
C	 0.0927394263	 1.4793977669	 0.0441728911	-0.474095
C	-0.0666791809	-0.0195269131	-0.008536799	 0.353773
C	-0.9720185841	-0.7342227683	 0.9267396257	-0.319611
N	 0.4984415506	-0.8188663812	 1.1005359934	-0.154224
C	 1.1221564545	-2.021885354	 0.5033499355	 0.051055
C	 1.0073179584	-3.2555863362	 1.3993547064	-0.091528
O	-0.3226439153	-3.721306289	 1.5837742952	-0.417629
C	 0.5500804891	-2.1803660517	-0.9239007883	-0.254759
C	 0.2080606016	-0.734433585	-1.3316850456	-0.276786
H	 1.0938925975	 1.7785212803	-0.2867299529	 0.11603
H	-0.6368240575	 1.9716698854	-0.6091396534	 0.11543
H	-0.053100533	 1.8515576029	 1.0614665602	 0.124077
H	-1.475035025	-0.1758937748	 1.7122290067	 0.108006
H	-1.518396883	-1.6012562389	 0.569509637	 0.121888
H	 2.1941577075	-1.7877755503	 0.436596297	 0.075805
H	 1.5552903341	-4.0828563552	 0.9343161032	 0.107218
H	 1.48634385	-3.042826411	 2.3654023095	 0.098924
H	-0.7586249262	-3.1117690417	 2.1863574895	 0.294278
H	 1.2669150281	-2.6506460804	-1.6018353791	 0.098075
H	-0.3392174287	-2.8157971025	-0.9043758105	 0.122068
H	-0.6352177067	-0.6718377765	-2.026917125	 0.102382
H	 1.0653301128	-0.256468166	-1.8213089065	 0.099624
