18
gdb 98784	4.05045	0.99423	0.91731	3.1664	72.43	-0.2448	-0.0223	0.2225	1323.8461	0.147003	-439.117138	-439.108125	-439.10718	-439.152387	31.47	
C	-0.3274264847	 1.5099989059	 0.0661714948	-0.3779
C	 0.056441558	 0.0361867809	-0.036603774	-0.294093
C	 0.7002153197	-0.3323319256	-1.3642668856	 0.362766
O	 1.0134235654	 0.4811154643	-2.1977917351	-0.291168
C	 0.8902167979	-1.8329330002	-1.6026357167	-0.010158
C	-0.3819236023	-2.4814114224	-2.2498527005	-0.199864
N	 0.0566986596	-2.8857171908	-3.5920586088	-0.256571
C	 1.2889147887	-2.6053365137	-3.6549458817	 0.130255
O	 1.9142539713	-2.0514987095	-2.5875638684	-0.205307
H	 0.5452632989	 2.147875735	-0.0912267507	 0.139666
H	-1.0656143761	 1.7758085021	-0.6951707424	 0.132047
H	-0.7502571533	 1.7318214467	 1.0496013567	 0.114027
H	 0.7696029827	-0.2428947955	 0.7530464904	 0.130273
H	-0.8109992648	-0.6193265079	 0.1248845422	 0.123586
H	 1.1909901246	-2.3331468986	-0.6775330316	 0.103761
H	-0.7345067564	-3.3529894982	-1.6893554834	 0.12425
H	-1.2173514626	-1.7773943096	-2.3259311153	 0.126124
H	 1.9336556035	-2.7783405627	-4.5086378198	 0.148307
