20
gdb 116012	1.8325	1.72903	0.93362	1.0851	76.72	-0.2529	0.0268	0.2797	1269.7927	0.171981	-440.301455	-440.292245	-440.2913	-440.335723	33.626	
C	 0.036949813	 1.3228676497	-0.0420658201	-0.239083
O	-0.0214762353	-0.108487916	-0.0289797226	-0.270897
C	-1.2545816656	-0.647423807	-0.0250429077	 0.422359
N	-2.3332051761	 0.0227896651	-0.0275571692	-0.31659
C	-3.4476876865	-0.9344351901	 0.0012578333	-0.162274
C	-2.8493804719	-2.3336766827	-0.3116619609	-0.249547
C	-1.3462139149	-2.1612593814	-0.0072919854	-0.120329
C	-0.3965616872	-2.8574598469	-0.9935167507	-0.069577
O	 0.9615031981	-2.7439615918	-0.6252921707	-0.427687
H	 1.0967736398	 1.5791705849	-0.0446196195	 0.130894
H	-0.4592096636	 1.7174707038	-0.9326110624	 0.142326
H	-0.4575420764	 1.7311509037	 0.8429354686	 0.143489
H	-3.9167184959	-0.9046987704	 0.99349701	 0.10742
H	-4.2163991413	-0.6346883686	-0.7179356821	 0.108647
H	-3.3128347922	-3.1376896637	 0.2638496643	 0.107425
H	-2.9838173186	-2.5694999166	-1.3737015811	 0.107811
H	-1.0902404083	-2.5164327991	 0.9997922718	 0.101364
H	-0.6231432141	-3.9289070384	-1.0175392874	 0.108892
H	-0.5809670904	-2.4644032831	-2.0081240717	 0.084093
H	 1.1402522774	-1.8022887513	-0.5155139863	 0.291265
