21
gdb 85250	2.78973	1.32136	0.99934	2.8824	83.62	-0.2344	-0.011	0.2234	1252.2556	0.182878	-387.126176	-387.117508	-387.116564	-387.159378	33.797	
C	-0.0793662507	 1.5419316573	-0.0035159482	-0.403868
C	 0.0641317563	 0.0226999186	 0.0249505432	 0.027272
C	 0.8337041601	-0.5764987941	-1.167729002	-0.331439
C	 1.3347172873	-1.9321218676	-0.6671897467	 0.349164
O	 1.706727666	-2.8597552241	-1.3462166944	-0.343141
C	 1.270453376	-1.9137210432	 0.8336107953	 0.256968
C	 0.7766909245	-3.1910385945	 1.5033707881	-0.293107
C	 2.2150823105	-2.8038847037	 1.6083957047	-0.310272
C	 0.832638725	-0.5209438898	 1.2566773564	-0.324187
H	 0.903456483	 2.0276190224	-0.0193053977	 0.114049
H	-0.6297812261	 1.874754953	-0.8896171703	 0.116493
H	-0.6167507706	 1.9059648121	 0.8788789667	 0.114229
H	-0.938587389	-0.4257760359	 0.0352282062	 0.081501
H	 0.2600481613	-0.6761479182	-2.0920677021	 0.12305
H	 1.7176104378	 0.0368310116	-1.3981123945	 0.123169
H	 0.1388972125	-3.0717517881	 2.3729181079	 0.115994
H	 0.5216475306	-4.0134608212	 0.8440830102	 0.134549
H	 2.9310326124	-3.3659233256	 1.0180141407	 0.134557
H	 2.5835211511	-2.4248912002	 2.555810219	 0.115679
H	 1.7084633662	 0.1140292775	 1.4496449706	 0.099192
H	 0.221890856	-0.5139301063	 2.164385017	 0.100149
