18
gdb 55298	2.48552	1.49593	1.09699	1.199	72.2	-0.2386	-0.0238	0.2148	1132.7489	0.145848	-439.051193	-439.042218	-439.041274	-439.085872	32.262	
C	 0.7750800196	 0.3097863633	-0.6119213326	-0.474208
C	-0.4918888752	 0.735005645	 0.0874395397	 0.348909
O	-0.6376113745	 1.8090273682	 0.6298208488	-0.313887
C	-1.6426989432	-0.260243866	 0.1333862395	-0.034868
O	-1.3838058683	-1.549314059	-0.4542165092	-0.295784
C	-1.7291512038	-2.2506612358	 0.7688571867	-0.130875
C	-1.9079177035	-0.9224524996	 1.4949551604	 0.271991
C	-1.5073981864	-0.4697253276	 2.8412577227	-0.302803
N	-2.9330265774	-0.6117142521	 2.4670208151	-0.357475
H	 1.5033517921	 1.1208833547	-0.5853587347	 0.138404
H	 1.1836867659	-0.5851441159	-0.1307630174	 0.148957
H	 0.5561265033	 0.021370691	-1.6454923488	 0.153848
H	-2.5313696536	 0.2206538958	-0.301386489	 0.107854
H	-2.6501999786	-2.8352434901	 0.6615846465	 0.118804
H	-0.9150776078	-2.8995002337	 1.1113073369	 0.112284
H	-1.1564103854	-1.1911919742	 3.574314968	 0.122563
H	-1.0900877052	 0.5289001329	 2.93110865	 0.143524
H	-3.337102358	 0.3028688833	 2.2761226476	 0.242761
