26
gdb 7390	3.36001	0.98624	0.81405	0.0034	89.16	-0.2941	0.0839	0.378	1545.6439	0.244627	-315.49024	-315.479198	-315.478254	-315.526677	40.338	
C	-0.0015445079	 1.6376084185	-0.0030132791	-0.378706
C	-0.0574185554	 0.1071128069	 0.0233442224	-0.172211
C	 0.8267442372	-0.4999115936	 1.1209060252	-0.167584
C	 0.7933901769	-2.041740894	 1.2087473501	 0.052406
C	 1.5374727034	-2.655260606	 0.0105996659	-0.40851
C	 1.3447896833	-2.5492863989	 2.5704317264	 0.044794
C	 0.4290325111	-2.1630073957	 3.7442162443	-0.393617
C	 1.5696427167	-4.0700891733	 2.5988673038	-0.398743
H	 1.017982306	 1.993156724	-0.1900837831	 0.11265
H	-0.6458422548	 2.0485770411	-0.7867419884	 0.109166
H	-0.3274535971	 2.0629362205	 0.9529549508	 0.1121
H	-1.0949427327	-0.2177346693	 0.1789256321	 0.093059
H	 0.2360680158	-0.2782558139	-0.9602759402	 0.097233
H	 1.8675691847	-0.1784574981	 0.9683485269	 0.086439
H	 0.517665507	-0.0629459868	 2.0767713279	 0.089676
H	-0.2594784826	-2.3602835288	 1.1496452262	 0.060982
H	 1.3929630207	-3.7362499294	-0.0554617348	 0.113908
H	 1.1907607846	-2.2258051891	-0.9334681395	 0.110981
H	 2.6155866668	-2.4646737313	 0.0822602173	 0.109342
H	 2.3213537555	-2.0658545676	 2.727047717	 0.065909
H	-0.5540131088	-2.6383300098	 3.6389830182	 0.109996
H	 0.856475227	-2.5005210177	 4.6941811362	 0.108311
H	 0.2687584039	-1.0850116978	 3.8247557898	 0.113636
H	 2.3307854925	-4.3937462845	 1.8850892671	 0.113523
H	 1.895335165	-4.3893230565	 3.5944403888	 0.106243
H	 0.6420539916	-4.609191769	 2.3690036587	 0.109018
