17
gdb 1659	4.70923	1.7022	1.34704	2.8996	60.84	-0.2611	-0.0237	0.2374	921.8894	0.145785	-346.883127	-346.874562	-346.873618	-346.916362	30.113	
C	 0.0232578547	 1.5304896474	-0.0516285471	-0.377678
C	-0.1350423052	 0.0404442949	 0.2481374087	-0.285056
C	-1.5578142948	-0.4588345153	 0.0915567865	 0.363944
O	-2.503033661	 0.2950746378	-0.0213113417	-0.327004
C	-1.8134659084	-1.9703087978	 0.0602071722	 0.064719
C	-1.288411576	-2.6816480627	 1.3154827348	-0.40245
O	-3.1849096248	-2.2150345959	-0.097058239	-0.438885
H	 1.0553914369	 1.8490150456	 0.1167995644	 0.114539
H	-0.2399937603	 1.7516895381	-1.0896130966	 0.130231
H	-0.6346300316	 2.1254187384	 0.5856180432	 0.139194
H	 0.5215894336	-0.5718540051	-0.3829932707	 0.123317
H	 0.1733793179	-0.1811308195	 1.2795150224	 0.137272
H	-1.258487238	-2.3577427238	-0.8139673123	 0.087029
H	-1.7448975375	-2.2580324493	 2.2153464459	 0.127027
H	-1.5615329594	-3.7382366962	 1.2619450313	 0.138037
H	-0.1999451757	-2.6107616913	 1.3987938861	 0.114201
H	-3.5919033005	-1.3359073153	-0.1684291381	 0.291563
