11
gdb 132253	3.78036	1.20897	0.91602	2.2982	65.56	-0.3007	-0.0955	0.2052	1112.0429	0.067429	-455.756823	-455.750227	-455.749282	-455.788284	23.951	
F	 0.0121229717	 0.0542453653	 0.0031591702	-0.044048
C	-0.0152104294	 1.3721737358	 0.0104381847	 0.380347
C	-1.2472710895	 2.0202317138	 0.0308442889	-0.325476
C	-1.173652897	 3.4091458589	 0.0370630986	 0.244647
N	-0.0106359877	 4.0805694499	 0.0244649797	-0.297691
C	 1.0834144993	 3.3283900169	 0.0053866847	 0.073855
N	 1.142399026	 1.9913118681	-0.0023723794	-0.29006
C	-2.3845387041	 4.1895092746	 0.0578786708	 0.257496
N	-3.3736304364	 4.7873275774	 0.0746750237	-0.30512
H	-2.1841022838	 1.4804435028	 0.0409871853	 0.156952
H	 2.0346421209	 3.8525560365	-0.0050097771	 0.149099
