16
gdb 14107	3.22232	1.7469	1.53428	1.4181	60.9	-0.2393	0.0544	0.2937	882.3828	0.129128	-420.82395	-420.816206	-420.815262	-420.855963	29.183	
O	-0.0098165418	 1.2925735704	-0.1567744692	-0.434464
C	 0.0444629165	-0.0850473356	 0.0303082011	 0.054658
C	-0.4785104582	-0.7027800182	 1.3219013221	-0.395113
C	-1.2668599898	-0.8143800073	 0.058537021	 0.357504
O	-2.4426193211	-0.0218570475	-0.1550667613	-0.317721
C	-2.9023598545	-0.9457493613	-1.178858133	-0.112866
C	-1.7743152188	-1.950803516	-0.8242069374	-0.001409
O	-0.9425525792	-2.4464968332	-1.8333902115	-0.422059
H	-0.940694061	 1.5038778473	-0.3243673697	 0.293401
H	 0.9084449256	-0.5478643846	-0.4406746999	 0.104281
H	 0.0094726699	-1.5943095262	 1.7038004194	 0.122884
H	-0.8585485538	-0.0176372171	 2.0731145671	 0.130108
H	-3.9351602315	-1.2579143185	-1.0015524741	 0.119743
H	-2.8077742128	-0.5233508833	-2.1873231548	 0.104731
H	-2.1323765849	-2.8200256007	-0.2676149302	 0.110711
H	-0.5226150947	-1.6960249083	-2.2698005296	 0.28561
