19
gdb 76969	2.82174	1.1032	0.93323	3.2233	78.57	-0.2473	0.0055	0.2529	1305.6297	0.158682	-419.170751	-419.161558	-419.160614	-419.205291	33.054	
C	 0.0197558371	 1.4010482296	 0.3059679147	-0.407923
C	-0.119568268	-0.0609349307	-0.0478238889	-0.018196
C	 0.5955843947	-0.7148202373	-1.2174157138	-0.068179
C	 1.5123102573	 0.0339572792	-2.1308673809	 0.011703
C	 2.1140663141	-0.6698737242	-3.2941551088	-0.246961
N	 1.0673393899	 0.3434079271	-3.4989310134	-0.315362
N	 0.9654254812	-0.9949347449	 0.1560642624	-0.071915
C	 2.1679078098	-0.7875985425	 0.7942386125	 0.144736
O	 2.3010659976	-0.2172057677	 1.8516039835	-0.305719
H	 0.9754949612	 1.8202551235	-0.013108614	 0.133114
H	-0.7837342442	 1.9742773757	-0.1669132585	 0.125421
H	-0.0492659371	 1.5316672148	 1.3889167403	 0.151392
H	-1.0943450169	-0.4832330049	 0.1965304838	 0.104106
H	 0.0731250849	-1.535849926	-1.7134017224	 0.093701
H	 2.0829337171	 0.8344893197	-1.6674045841	 0.105763
H	 3.1011742675	-0.3876682358	-3.6482381452	 0.128371
H	 1.863390102	-1.7185718822	-3.4350094775	 0.117376
H	 0.1742349916	-0.1083126552	-3.6854913515	 0.234148
H	 3.0044078103	-1.2791530982	 0.2598817018	 0.084424
