17
gdb 117116	2.59686	1.01168	0.79983	3.1822	71.22	-0.2672	-0.0058	0.2615	1451.2497	0.132201	-458.956112	-458.94593	-458.944985	-458.992443	35.416	
C	-0.1480121774	 1.4619491786	-0.0768188466	-0.392784
C	-0.0218915011	-0.0456750304	 0.0041218354	-0.050716
O	-1.3613312452	-0.5979276681	-0.0326034861	-0.231532
C	-1.4528032115	-1.9210569659	 0.034817978	 0.42897
O	-0.5247307587	-2.6912064899	 0.0900065111	-0.372212
C	-2.9130197503	-2.4100961344	 0.0411670151	-0.135621
O	-2.9378701963	-3.7914764394	-0.2115731245	-0.407063
C	-3.5387231919	-2.0487899888	 1.3208959252	 0.337854
C	-4.0494212928	-1.7687893504	 2.3714313969	-0.47675
H	 0.8467865126	 1.9160327468	-0.0505504034	 0.128548
H	-0.6405040007	 1.7636897747	-1.0052286453	 0.134711
H	-0.7279565123	 1.8505773036	 0.7645458682	 0.137551
H	 0.5470956398	-0.4601774214	-0.8332502265	 0.13067
H	 0.4613773431	-0.3722383459	 0.9296131542	 0.131619
H	-3.4436563089	-1.8944302857	-0.7700137111	 0.134052
H	-2.0515073778	-4.1117906472	 0.0169931416	 0.298396
H	-4.5082059306	-1.5240294561	 3.2976305779	 0.204306
