17
gdb 14682	11.23179	0.63299	0.62545	3.1312	76.48	-0.2499	0.0157	0.2656	1755.4421	0.13908	-363.820534	-363.810911	-363.809967	-363.856198	32.379	
C	-0.0637727892	 1.3835408916	-0.0071044531	-0.249727
O	-0.0052333836	-0.0368928334	 0.054810035	-0.190871
C	 0.5697212336	-0.6423813119	-1.000416032	 0.127257
N	 0.6834635225	-1.8950464925	-1.0397560062	-0.207605
C	 1.3153427516	-2.4711201026	-2.208478837	-0.152297
C	 2.5486019068	-3.2977659171	-1.7845750189	-0.332174
C	 3.186413754	-3.9653888815	-2.9111288808	 0.29747
C	 3.6904540921	-4.5017537455	-3.8615977273	-0.451665
H	 0.9393198261	 1.8261083127	-0.0348944786	 0.128594
H	-0.6342005302	 1.7245659507	-0.8795038161	 0.128779
H	-0.5722071739	 1.7091928611	 0.9009151125	 0.148521
H	 0.9092303009	 0.0436403003	-1.7934675609	 0.075197
H	 0.6025666266	-3.1434145709	-2.699934988	 0.120264
H	 1.6208248445	-1.717699668	-2.9535842631	 0.092145
H	 3.2661405395	-2.6354726541	-1.284667328	 0.128248
H	 2.2327812554	-4.0311234403	-1.0337280069	 0.144466
H	 4.1451897832	-4.9845425987	-4.6905192607	 0.193395
