16
gdb 37404	2.91248	2.25242	1.81382	0.4409	65.1	-0.2352	0.0494	0.2846	791.5874	0.127921	-437.803628	-437.798032	-437.797088	-437.833278	24.328	
N	-0.0368516272	 1.4980802146	 0.0257098031	-0.304042
C	 1.4485033636	 1.4365401496	 0.0119141847	-0.104077
C	 1.9839536369	 1.2662707975	 1.4397631682	 0.050674
O	 0.9794660715	 1.3431461022	 2.4715129753	-0.260347
C	 1.4648523898	 0.0558701593	 2.0845182252	 0.057559
C	 0.7098607562	-0.7945641831	 1.0728114813	 0.004088
O	 1.7511781691	-1.1151693986	 0.0867619219	-0.296924
C	 1.3032932331	-0.0053829302	-0.6867250333	 0.119796
C	-0.0781918264	 0.0383481997	-0.0343445895	-0.049158
H	-0.4064636969	 1.9059115658	 0.8801854053	 0.233072
H	 1.9428284264	 2.2360601131	-0.5432478402	 0.072747
H	 2.9487437077	 1.6862035834	 1.7080273386	 0.104291
H	 2.0283767433	-0.472498201	 2.8506052569	 0.10818
H	 0.2451972118	-1.6973749772	 1.4726860928	 0.078469
H	 1.5361571181	-0.0726675045	-1.7482178614	 0.097171
H	-0.984185327	-0.4347193507	-0.416166759	 0.088502
