21
gdb 91823	3.39161	1.22731	1.02983	2.0106	84.12	-0.2397	0.0058	0.2455	1247.5481	0.182401	-387.096499	-387.087756	-387.086812	-387.1296	34.216	
C	 0.2429707737	 1.6349985629	-0.0344867486	-0.398866
C	-0.0240922195	 0.1237715316	-0.0165443589	-0.039616
C	 0.545783019	-0.5537482146	-1.2819115855	-0.233933
C	 0.645736714	-2.0697403512	-1.1737042923	-0.043976
O	 1.9277702299	-2.5957866192	-0.7983977248	-0.297503
C	 0.8319364786	-2.702649997	 0.1414644142	 0.39124
C	 0.3694872704	-4.1149736745	 0.4109790243	-0.474945
C	 0.9044199331	-1.7888753772	 1.3170488797	-0.144228
C	 0.5067669014	-0.5193845392	 1.2462131858	-0.041477
H	 1.3187101412	 1.8408705962	-0.0063000732	 0.122298
H	-0.1632046953	 2.0939307722	-0.9417565212	 0.113552
H	-0.2168852678	 2.1300562622	 0.8272135998	 0.112758
H	-1.1170859705	-0.0149251406	-0.0174699318	 0.087052
H	-0.0646286111	-0.2793489254	-2.1491201659	 0.096076
H	 1.5557926987	-0.1707454911	-1.4685389279	 0.117238
H	 0.1517945654	-2.6479565806	-1.9553031547	 0.083296
H	 0.3543553423	-4.6969061843	-0.5139514431	 0.126817
H	 1.045709114	-4.6114409026	 1.1161267298	 0.124889
H	-0.6339846942	-4.120798457	 0.8498018684	 0.122827
H	 1.272864298	-2.2063582137	 2.251013836	 0.087434
H	 0.5466169488	 0.1084987731	 2.1342595502	 0.089067
