18
gdb 38209	3.2515	1.74862	1.40492	1.7167	77.67	-0.2326	0.001	0.2336	947.2713	0.150466	-401.865085	-401.858495	-401.857551	-401.895756	27.58	
C	-0.0399562595	 1.6186348822	 0.1101985859	-0.230428
C	 1.437686153	 1.2044538761	-0.0097173857	-0.092129
N	 1.1223793233	 0.0942570761	 1.0048352996	-0.377122
C	-0.0015132432	 0.06011243	-0.0283195362	 0.328343
C	-1.1168133384	-0.8552665503	-0.3339521609	-0.265912
C	-1.328017886	-1.0323531611	-1.6434284657	-0.062901
C	-0.4929136751	-0.4115766695	-2.7529201024	-0.138154
O	 0.4713478893	 0.5752815582	-2.3692070965	-0.276845
C	 1.0381475804	 0.2078027179	-1.1365645827	 0.113092
H	-0.3441976469	 1.9928816685	 1.0875547054	 0.103045
H	-0.4727830235	 2.161518618	-0.7279648018	 0.112133
H	 2.3337720132	 1.8170704608	 0.0917274044	 0.083352
H	 1.7523489015	-0.7007554408	 0.8395240097	 0.204624
H	-1.7518081006	-1.2972897086	 0.4274267506	 0.103153
H	-2.1413972213	-1.6601086215	-2.000011717	 0.102978
H	 0.009307696	-1.2280721469	-3.3021370636	 0.109453
H	-1.155664025	 0.0836783506	-3.4717925594	 0.126085
H	 1.7230298826	-0.6477340795	-1.2488764535	 0.057234
