17
gdb 51523	4.33927	0.8546	0.75729	5.5688	74.42	-0.2543	-0.0478	0.2065	1441.0875	0.135663	-418.001968	-417.993124	-417.99218	-418.036626	31.167	
O	 0.2156291119	 0.1566098969	-1.0334771452	-0.239284
C	 0.3510657751	 0.8678334305	-0.0668981449	 0.145633
C	 1.4094515864	 1.9464832322	 0.0141713373	-0.294209
C	 0.9839310832	 3.1625997286	-0.841478252	 0.044249
C	 2.1458098623	 4.1370585297	-1.1719150461	-0.266221
C	 2.1663411285	 3.4601994093	-2.5760592157	-0.109318
N	 0.8341347289	 2.8903855652	-2.288343446	-0.307437
C	 2.2305599303	 4.3355333898	-3.74779491	 0.292221
N	 2.3007976206	 5.0351039994	-4.6649041482	-0.320427
H	-0.3393189289	 0.7837740527	 0.800487829	 0.094623
H	 1.5629045261	 2.2622001048	 1.0516831523	 0.114429
H	 2.3480085812	 1.5364675008	-0.3749183325	 0.128457
H	 0.0918359816	 3.6220906279	-0.4020226304	 0.093268
H	 1.8335671376	 5.1800783478	-1.2152681011	 0.140103
H	 3.0568154609	 4.045455265	-0.5802668424	 0.121432
H	 2.9743145857	 2.7211080588	-2.6629002653	 0.117033
H	 0.6972293486	 1.9164696708	-2.5419659489	 0.245448
