13
gdb 20521	5.05805	1.60252	1.22612	2.8941	60.79	-0.2565	-0.0527	0.2037	912.4895	0.096953	-394.80808	-394.801057	-394.800113	-394.839939	24.523	
C	-0.0568016948	 1.5015229063	 0.0095327836	-0.484297
C	 0.0304120586	-0.008838123	 0.0023873383	 0.306189
O	 1.0845655603	-0.6100064255	-0.008802121	-0.302361
C	-1.2433339433	-0.7651324268	 0.0095749112	 0.22105
N	-2.4520730718	-0.1853117419	 0.0218425732	-0.271242
N	-3.2772701517	-1.2131146306	 0.0243221987	-0.062782
N	-2.7284986232	-2.4272496537	 0.0147342096	-0.192936
C	-1.4258628069	-2.1636964763	 0.0051168991	-0.105413
H	 0.9498698531	 1.9198677732	 0.0026912141	 0.139548
H	-0.6188359189	 1.8537646093	-0.8614037697	 0.149395
H	-0.60372833	 1.8462621484	 0.89300835	 0.149394
H	-4.2778654033	-1.0887503948	 0.0330457932	 0.300333
H	-0.6866536381	-2.9470065848	-0.0042378503	 0.153122
