18
gdb 99396	4.63257	0.60447	0.57009	3.2849	70.01	-0.2474	-0.0382	0.2092	1884.0636	0.144061	-476.22368	-476.213336	-476.212392	-476.261142	34.873	
O	 0.0848878759	 0.9136284344	 0.9659970019	-0.416463
C	-0.0263538639	-0.1675130484	 0.091048343	-0.127185
C	-1.4711975856	-0.6175290384	-0.0630359662	 0.346707
O	-2.3366165863	-0.0882166453	 0.602856243	-0.320052
C	-1.798105586	-1.7095349554	-1.0810893251	-0.273318
N	-3.1383305561	-2.2531366809	-0.9941599456	-0.285861
C	-3.363073004	-3.1405682675	 0.1418718462	-0.233134
C	-4.6724279309	-3.8966294238	-0.0248341731	 0.151201
O	-5.3252029993	-4.3286175542	 0.8875239833	-0.233327
H	-0.8093537185	 1.0514527671	 1.3165640867	 0.296514
H	 0.374334768	 0.0842252329	-0.904354074	 0.119171
H	 0.5565338471	-1.0372891843	 0.4428477392	 0.117524
H	-1.6439166793	-1.2658279173	-2.0763021817	 0.139932
H	-1.0614893225	-2.5186533947	-1.0010275035	 0.130402
H	-3.7907307742	-1.4761272128	-0.9386685842	 0.236219
H	-2.5702123726	-3.9040589545	 0.1428775594	 0.131807
H	-3.3512885902	-2.6592554533	 1.130053904	 0.132858
H	-4.9727211316	-4.0328860438	-1.0884823132	 0.087005
