25
gdb 73858	2.4278	1.21246	1.00081	0.2226	96.05	-0.2154	0.0387	0.2541	1383.1762	0.227215	-352.397723	-352.387224	-352.38628	-352.4324	40.308	
C	-0.0388362481	 1.5229561348	 0.1185618496	-0.499997
C	 0.0267490727	 0.0315727106	 0.0017733347	 0.231506
C	 0.0130059786	-0.7218109673	-1.1066664738	 0.231505
C	-0.0717382586	-0.2806737125	-2.5350855959	-0.499998
C	 0.0469178306	-2.1964678061	-0.7681102758	-0.331669
C	 0.4383141513	-2.2509375151	 0.7377107353	 0.328134
C	-0.3028785901	-3.3562054344	 1.4981284366	-0.439515
C	 1.9574117935	-2.4607120383	 0.8614555358	-0.419138
C	 0.071910453	-0.8263857295	 1.2476670413	-0.331668
H	 0.8346378874	 1.9148244959	 0.6561003477	 0.121314
H	-0.0853376251	 2.0216288044	-0.8526389399	 0.119584
H	-0.9196088523	 1.8338293714	 0.6962741108	 0.121517
H	-0.1075101641	 0.8063620574	-2.6406384169	 0.119584
H	 0.7879197691	-0.646257264	-3.1119757488	 0.121314
H	-0.9657056202	-0.6932046353	-3.0217010471	 0.121517
H	-0.939193728	-2.6525274974	-0.9448216098	 0.09114
H	 0.7531589608	-2.7565640291	-1.3960390335	 0.088222
H	-0.0552415703	-4.3467614827	 1.0993973746	 0.107724
H	-0.0371132338	-3.352964554	 2.561552199	 0.107724
H	-1.3884440136	-3.2287769743	 1.4249771396	 0.107022
H	 2.5039199842	-1.678906297	 0.323302429	 0.113089
H	 2.2750880344	-2.4336075903	 1.9098446587	 0.105863
H	 2.256928437	-3.4291044007	 0.4451880769	 0.105863
H	 0.7951087536	-0.4568948536	 1.9874234699	 0.088221
H	-0.9057398217	-0.8185975582	 1.7534067392	 0.09114
