19
gdb 62397	2.50515	1.7727	1.34176	1.1754	80.48	-0.2512	0.0351	0.2863	1013.2582	0.159763	-385.842433	-385.834452	-385.833508	-385.874286	32.652	
O	-0.0330067329	 1.3679290441	-0.0856824316	-0.49156
C	 0.0367004717	-0.0501026283	-0.0452390609	 0.289876
C	 0.9735099842	-0.5366804409	-1.0504032718	 0.257589
C	 1.777767579	-0.9050177422	-1.8662257509	-0.449696
C	 0.1124633476	-0.6454019154	 1.413061663	-0.081108
C	-1.3851711343	-0.2383094634	 1.5346602452	-0.250876
C	-1.4116780021	-0.6386347916	 0.0291072601	-0.050715
C	-1.1495662389	-2.1527647687	 0.0979584999	-0.223885
C	 0.0139666428	-2.1582997603	 1.152146352	-0.22336
H	 0.8684788788	 1.7031672882	-0.0360675308	 0.28184
H	 2.47763138	-1.2316522035	-2.595437144	 0.19251
H	 0.8740768573	-0.2915893915	 2.1094936763	 0.059548
H	-2.0060608236	-0.8254103758	 2.2162672554	 0.086266
H	-1.5284452575	 0.827365742	 1.6951920034	 0.119777
H	-2.1730329405	-0.2744008081	-0.6601397397	 0.071853
H	-2.0334158551	-2.6972396015	 0.4404118846	 0.097016
H	-0.8420872437	-2.5701869214	-0.8635036656	 0.109693
H	 0.9388407321	-2.5758874178	 0.7478121514	 0.108758
H	-0.240838045	-2.7093797842	 2.0613984237	 0.096472
