13
gdb 132787	2.45753	1.87617	1.06437	1.3651	64.69	-0.2323	-0.0083	0.224	1011.5469	0.090886	-494.098445	-494.091128	-494.090183	-494.130035	28.017	
N	 0.0269271905	 1.3637325278	 0.1856501304	-0.56987
C	 0.008361442	 0.0065296059	 0.0655513615	 0.304943
C	-1.1993309678	-0.6931966752	 0.0127299285	 0.098873
F	-2.3616106675	-0.0218033003	 0.0322660814	-0.078037
C	-1.146669843	-2.074162102	-0.0674390421	 0.327481
O	-2.2823531784	-2.7852335539	-0.1228836984	-0.404751
N	 0.0177710853	-2.7278009021	-0.093204578	-0.362934
C	 1.1131035611	-1.9718076577	-0.0433300074	 0.060285
N	 1.1823543199	-0.6484236162	 0.0312563823	-0.336439
H	 0.9079565291	 1.8130945944	-0.0030467927	 0.267496
H	-0.8123551454	 1.8733346917	-0.0327149627	 0.268539
H	-2.0097295748	-3.7124961572	-0.1742996641	 0.304581
H	 2.061922799	-2.5018421353	-0.0692518686	 0.119833
