16
gdb 44735	3.10533	1.76179	1.56062	4.7266	69.65	-0.2402	-0.024	0.2162	893.1363	0.127338	-437.898868	-437.892395	-437.891451	-437.929806	26.4	
N	-0.0704119057	 1.2922745032	 0.441391665	-0.546101
C	-0.0075876029	 0.1074420133	 0.0156926888	 0.465548
O	 1.1820284497	-0.5359827819	-0.2033330971	-0.289297
C	 1.1690690533	-1.8128790532	-0.898795347	 0.072215
C	 0.0434730654	-2.6560009536	-0.2954444484	-0.25716
C	-1.1172805711	-1.8428098171	-0.8753881045	 0.079478
O	-1.1663139186	-0.5743066509	-0.1775901496	-0.258808
C	-0.6573704952	-1.6031446175	-2.3069271537	-0.079517
C	 0.6762012702	-1.5872017125	-2.3205326422	-0.08064
H	 0.8707380551	 1.658761862	 0.5673018905	 0.224713
H	 2.1817644485	-2.1994655943	-0.7929490724	 0.092683
H	 0.0530039407	-3.6744768352	-0.6887258607	 0.117612
H	 0.0541066134	-2.6738604526	 0.7962005014	 0.124166
H	-2.1143754116	-2.2637109146	-0.7549670922	 0.095894
H	-1.3284207092	-1.3771387677	-3.1253255915	 0.120596
H	 1.3248036878	-1.3461311775	-3.1527317564	 0.118618
