18
gdb 24637	4.32504	1.11957	0.95654	2.4081	86.45	-0.2379	-0.0173	0.2206	1241.1231	0.150873	-364.859521	-364.852191	-364.851247	-364.891771	28.633	
C	-0.1453211505	 1.430212873	-0.2021873362	-0.266391
C	 1.2668742701	 1.0076997662	 0.0719028654	-0.266405
C	 0.1625263402	-0.033101863	 0.0567641893	-0.100616
C	-0.283278647	-0.7174996705	 1.2984052803	 0.303892
C	-0.3349275464	-0.0811246941	 2.5466849404	-0.082381
N	-0.7287795888	-0.662574642	 3.6793998721	-0.264299
C	-1.1007098216	-1.9444564353	 3.6181352162	-0.004771
C	-1.0925008876	-2.6812689628	 2.4386996699	-0.110181
C	-0.67845729	-2.0568479537	 1.2682702501	-0.178533
H	-0.6812528289	 1.9693935328	 0.571329156	 0.124159
H	-0.4147490164	 1.7157135415	-1.2129910876	 0.117744
H	 1.9751510213	 1.0006747218	-0.7491461842	 0.117743
H	 1.7017379509	 1.25646133	 1.0338166845	 0.12416
H	 0.1402992744	-0.6752127561	-0.8185236488	 0.083828
H	-0.0400270098	 0.9626568874	 2.6375854408	 0.098849
H	-1.4182571954	-2.3990060852	 4.5533933263	 0.105225
H	-1.4034250368	-3.7203528276	 2.4376759737	 0.098857
H	-0.6601153476	-2.6037183424	 0.3297906818	 0.099121
