13
gdb 2885	6.54707	1.99577	1.68387	4.9261	59.28	-0.2395	-0.0034	0.236	720.7529	0.103611	-303.503801	-303.497559	-303.496615	-303.534201	22.486	
N	-0.0183176394	-1.1712685222	-0.0841843209	-0.325709
C	-0.0202117567	-0.0159699437	-0.0673568068	 0.290486
C	-0.0230693795	 1.4641010218	-0.0828277916	-0.164142
N	-0.6417004334	 2.0197148707	 1.1263167813	-0.299944
C	 0.2015016604	 3.0991921559	 1.6652237559	-0.202348
C	 1.4879476117	 2.9498995536	 0.9025976232	-0.06405
C	 1.3776282557	 2.0456958476	-0.0622519604	-0.05524
H	-0.5438197318	 1.7577079923	-1.0107053067	 0.118637
H	-1.5998151162	 2.2981539452	 0.9740828553	 0.233234
H	-0.233690627	 4.1006387899	 1.5126053583	 0.106003
H	 0.3488210965	 2.9834742196	 2.7485999909	 0.121877
H	 2.3745727949	 3.5268923381	 1.133603427	 0.115712
H	 2.1385234449	 1.7310521313	-0.7634556356	 0.125485
