15
gdb 86849	3.5245	1.15967	0.93267	5.0656	67.13	-0.2692	-0.0104	0.2588	1202.5929	0.113357	-453.999804	-453.991448	-453.990504	-454.033488	29.077	
C	-0.075720305	 1.4175808979	-0.0153967593	-0.341951
N	-0.0266708276	-0.0269165405	-0.0842882281	-0.14109
C	-1.1836170847	-0.8571621309	 0.1510118788	-0.209762
C	-0.5421877351	-2.2647189424	 0.0265352397	-0.016598
O	 0.8560929143	-2.0573299172	 0.2310463293	-0.245741
C	 1.1467630205	-0.7134201537	 0.1060579463	 0.498794
O	 2.2633349662	-0.2841126755	 0.1516263889	-0.383415
C	-1.0625961051	-3.2271541441	 0.9997507441	 0.276274
N	-1.5108054252	-3.9804569663	 1.7510995985	-0.301407
H	 0.9454446304	 1.7874451486	-0.1160341865	 0.175717
H	-0.6903078186	 1.8219616588	-0.8260285704	 0.134219
H	-0.4881349362	 1.7606407149	 0.9428402307	 0.131432
H	-1.6171374309	-0.6935001708	 1.1474985502	 0.136382
H	-1.9675905904	-0.7061232928	-0.5968917315	 0.138557
H	-0.6916260525	-2.6712376659	-0.9806914007	 0.14859
