11
gdb 1027	8.37541	2.0182	1.62631	4.5223	56.2	-0.2497	-0.0566	0.193	687.6518	0.080641	-339.483894	-339.478286	-339.477342	-339.513413	19.894	
O	-0.1620165394	-0.0219782473	-0.0006161812	-0.266682
C	-0.0367245549	 1.1827856076	 0.007688114	 0.070473
C	 1.2361523515	 1.880423077	-0.0007673928	 0.213088
C	 2.5455689719	 1.4326748384	-0.0186053087	-0.119521
N	 3.4200140781	 2.4770237367	-0.0201769142	-0.245446
C	 2.6646470303	 3.5626900574	-0.0035997974	 0.030165
N	 1.345547987	 3.2627105907	 0.0093540842	-0.305705
H	-0.9281177272	 1.8541089057	 0.0227589507	 0.056435
H	 2.8770772081	 0.4058823475	-0.0303378574	 0.144239
H	 3.0273879596	 4.5798969246	 0.0002320645	 0.146367
H	 0.5803929751	 3.9178950016	 0.0232931784	 0.276589
