19
gdb 79639	2.21937	1.91473	1.56754	3.0116	73.96	-0.2075	0.0595	0.267	960.9913	0.160889	-419.134664	-419.126755	-419.125811	-419.166781	31.308	
C	-0.4430498891	 1.4826294872	 0.2401588973	-0.324663
N	 0.026885748	 0.1340244252	-0.0393722635	-0.07992
C	 0.5239342639	-0.4340974919	-1.2682469371	-0.047214
C	 1.2583505104	 0.366494449	-2.3385809934	-0.048435
N	 1.4863249834	 1.8068987472	-2.0592179888	-0.34843
C	 2.55718534	 0.8293990193	-1.7953372477	-0.090503
C	 2.6299227032	 0.4662077708	-0.3043372834	 0.121137
O	 2.7982567989	 1.5974183993	 0.5291490758	-0.43775
C	 1.3699537046	-0.3889969307	-0.0171782894	-0.079436
H	 0.070924616	 2.2832103549	-0.295454469	 0.127187
H	-1.5060592727	 1.5282853706	-0.0211763038	 0.115525
H	-0.3610911644	 1.6470739734	 1.3190997776	 0.124005
H	 0.0178823958	-1.3327777089	-1.6173590194	 0.0857
H	 1.1471929805	 0.0566085731	-3.3724469581	 0.087734
H	 1.6732645871	 2.2957416823	-2.9309300989	 0.23735
H	 3.4680658668	 0.883421278	-2.3826784702	 0.093353
H	 3.5049565917	-0.1705050288	-0.1313751277	 0.085394
H	 2.2205851493	 2.2797432421	 0.1656304632	 0.292966
H	 1.5186385966	-1.2492247723	 0.6343176366	 0.086001
