15
gdb 45190	2.99157	1.95402	1.65332	4.7275	63.49	-0.2513	-0.0099	0.2414	837.4201	0.114961	-457.751012	-457.745035	-457.744091	-457.781291	24.544	
O	 0.0144736898	 0.023184002	-0.211314605	-0.3378
C	 0.0291843316	 1.2013578667	-0.0065321314	 0.45708
O	-1.1210083986	 1.9272545637	 0.1205572497	-0.228012
C	-0.9160057302	 3.2287668804	 0.6850970971	 0.052633
C	-0.1524213654	 3.0804646388	 2.0242224525	-0.267577
C	 1.1432794368	 3.1811431937	 1.1994954559	-0.100297
C	 0.3858930891	 3.9095377577	 0.0657583985	 0.11666
O	 0.9704214058	 3.1234230514	-0.967099502	-0.280556
C	 1.249177483	 2.1103983113	 0.0506594476	-0.067167
H	-1.8739917821	 3.7437007545	 0.64666649	 0.102964
H	-0.270285129	 3.9628056597	 2.6594856556	 0.11986
H	-0.3628929487	 2.1783621111	 2.6037554238	 0.126926
H	 2.0894826146	 3.5086816056	 1.6276676818	 0.094119
H	 0.3548999094	 4.9810367302	-0.133955498	 0.097174
H	 2.1796568738	 1.5717220333	-0.1210311862	 0.113993
