23
gdb 114695	3.65635	0.96309	0.86785	1.5444	85.04	-0.2366	0.0766	0.3132	1441.9293	0.206083	-388.293051	-388.283816	-388.282872	-388.326914	36.26	
C	 0.1070251131	 1.5251085011	-0.0838031831	-0.385093
C	 0.003620486	-0.0004216785	 0.0134442676	-0.186547
C	-1.43291792	-0.5290992907	-0.0009577455	 0.068544
C	-2.2298806468	-0.2409471819	-1.3052943517	-0.243055
C	-3.2797061624	-1.3453118809	-1.3916162939	-0.12117
C	-2.8340250966	-2.6890968326	-1.9455166175	-0.307007
C	-2.8597379546	-2.4756280811	-0.467828458	 0.418462
O	-3.775850991	-3.2548798519	 0.2429768683	-0.471281
C	-1.5478350186	-2.0604886133	 0.20960953	-0.325104
H	 1.1499906781	 1.8547591077	-0.0465057052	 0.111152
H	-0.3247912153	 1.898631033	-1.0179935656	 0.118963
H	-0.4241895914	 2.0103879079	 0.7429866278	 0.111817
H	 0.5586259455	-0.4611814362	-0.8156735788	 0.091391
H	 0.4992458172	-0.3378533608	 0.9331237229	 0.0926
H	-1.9825082159	-0.0477650304	 0.8211541092	 0.061778
H	-2.6875606162	 0.7521914444	-1.2871891741	 0.099166
H	-1.5599852675	-0.2619300942	-2.1758390051	 0.094611
H	-4.3270023017	-1.0873842749	-1.5035238127	 0.083667
H	-3.6128815494	-3.3294507652	-2.3450991157	 0.115618
H	-1.8771730472	-2.7564153096	-2.4562929274	 0.102584
H	-4.0879876077	-2.7364727178	 0.9930358581	 0.275685
H	-0.6897534512	-2.5834164083	-0.2320639913	 0.098445
H	-1.5661365765	-2.3292941261	 1.2704123815	 0.094772
