16
gdb 18894	4.36059	2.34166	1.98324	1.3554	65.86	-0.2164	0.0724	0.2888	712.5223	0.132118	-346.550598	-346.544775	-346.543831	-346.579945	25.034	
O	-0.1221140181	 1.3236400952	-0.0949975588	-0.479023
C	 0.0247237705	-0.0569892381	-0.0612261637	 0.38318
C	 1.0761617185	-0.7769647749	-0.8920753095	-0.294864
C	 0.7121409109	-2.1992829417	-0.5296624653	-0.073753
C	 0.1746503422	-2.2788424745	 0.8937089538	-0.088035
C	-0.7836471403	-2.3240577867	-0.2800066777	-0.085388
C	-1.2394263638	-0.879843623	 0.0337508415	-0.112616
C	-0.2782209894	-0.8364613232	 1.2141356213	-0.157088
H	 0.6175254163	 1.7145163549	 0.3831642954	 0.283474
H	 0.9604457358	-0.564793244	-1.9604820569	 0.104743
H	 2.0968250892	-0.5117681555	-0.5892387562	 0.088403
H	 1.250036693	-3.0482231387	-0.9337308855	 0.085133
H	 0.4371131253	-3.052836742	 1.6021254021	 0.084651
H	-1.3996383905	-3.1367471222	-0.6398191619	 0.085157
H	-2.2285851884	-0.4547595844	-0.0617353097	 0.091734
H	-0.4062696611	-0.3749437713	 2.183724751	 0.084294
