22
gdb 36970	5.50905	0.60338	0.5723	2.3783	84.46	-0.2436	0.0783	0.3218	1987.3838	0.193943	-404.291707	-404.282036	-404.281091	-404.327999	34.834	
C	-0.0273490591	 1.415419738	 0.3608416758	-0.06381
O	-0.0524537962	 0.0295447843	 0.0777921508	-0.245991
C	-1.2940494114	-0.5743436646	 0.3677370596	-0.075064
C	-1.1929595452	-2.0524995705	 0.1093727923	 0.018817
C	-2.3886699186	-2.791525356	-0.3667922211	-0.247093
N	-1.2438882611	-2.5711029929	-1.2642315697	-0.30422
C	 1.3507350413	 1.9498132774	 0.0881152023	 0.013357
C	 1.7429256653	 2.336624575	-1.3136732027	-0.245639
C	 1.5266475981	 3.4041803266	-0.2710645497	-0.273565
H	-0.7683072983	 1.9484490535	-0.2618191901	 0.076711
H	-0.3101570474	 1.5897168837	 1.4138556838	 0.084873
H	-1.574649231	-0.3918634827	 1.4203514806	 0.089047
H	-2.0943125329	-0.138316472	-0.2587367522	 0.073197
H	-0.4738804741	-2.5691141855	 0.741248887	 0.098379
H	-2.5457671291	-3.8233435481	-0.0664157265	 0.12006
H	-3.3032924896	-2.2265563091	-0.5319984114	 0.108457
H	-1.4440618025	-1.8099404384	-1.9093506518	 0.23088
H	 2.1260384017	 1.501641305	 0.702381206	 0.090938
H	 2.7558729497	 2.1285580435	-1.6387822379	 0.114527
H	 0.9954650412	 2.2279957612	-2.0924411662	 0.112238
H	 0.6367802591	 4.0202880866	-0.3515151894	 0.11026
H	 2.3903108803	 3.926934685	 0.1239785205	 0.113642
