17
gdb 50299	3.22751	1.452	1.10919	5.1657	74.69	-0.248	-0.02	0.2281	1079.5961	0.138364	-418.039961	-418.03242	-418.031476	-418.072141	28.824	
N	-0.1451948292	 1.2353257357	-0.3625454249	-0.542772
C	-0.0607676088	-0.0041926438	-0.1291352563	 0.393679
C	-1.2112602359	-0.8958351127	 0.1852595851	-0.092787
C	-1.3970387525	-2.0726783644	-0.7546762827	-0.288558
C	-0.653193416	-2.2592573249	 0.5332105489	-0.058815
C	 0.8612637464	-2.1581407791	 0.4703821032	-0.199852
N	 1.1097518418	-0.8279565427	-0.1075700202	-0.123625
C	 2.364936337	-0.424081674	-0.47806122	 0.157149
O	 2.6656521563	 0.6816564636	-0.8735635387	-0.315368
H	 0.777051408	 1.6300098396	-0.5488679687	 0.25137
H	-2.069977638	-0.4519521842	 0.6690356245	 0.118701
H	-2.3970497795	-2.4859140595	-0.8166141042	 0.128063
H	-0.8466061248	-2.0784481236	-1.6903407538	 0.128103
H	-1.0850223107	-2.8632054748	 1.3207943034	 0.105756
H	 1.2934278147	-2.2268101158	 1.4762333038	 0.126311
H	 1.316819207	-2.9380754933	-0.1498650372	 0.126345
H	 3.1055351142	-1.2418693262	-0.3775258922	 0.086299
