14
gdb 4604	5.6107	1.5363	1.20826	5.0666	69.29	-0.1903	-0.0348	0.1555	930.4354	0.110071	-378.786048	-378.779248	-378.778303	-378.816797	26.289	
N	 0.0333255556	 1.4626354237	 0.1523202794	-0.594705
C	-0.003353736	 0.0561464416	 0.0374282501	 0.220886
C	-1.1593523901	-0.6658767661	 0.0072176768	-0.037972
N	-1.1263696678	-2.0369647911	-0.0084679855	-0.358868
C	 0.0242253079	-2.8350473156	-0.0285162402	 0.416427
O	-0.0593538828	-4.0547862512	-0.0580000883	-0.410052
C	 1.2423550808	-2.0427166323	-0.0078873313	-0.237695
C	 1.2211582788	-0.6842755344	 0.0322999302	-0.083132
H	 0.7389165974	 1.8823934164	-0.4408231398	 0.246496
H	-0.8593921579	 1.8973869136	-0.0440084503	 0.241402
H	-2.1430888204	-0.2116426951	 0.0062886513	 0.116894
H	-1.9915313482	-2.5579536953	-0.0223501942	 0.258652
H	 2.172257852	-2.597692824	-0.0170817895	 0.116933
H	 2.1551257308	-0.1287955701	 0.0669392114	 0.104735
