25
gdb 112714	2.76546	1.09675	0.98105	1.0606	88.87	-0.244	0.0752	0.3193	1392.802	0.229038	-389.505462	-389.495366	-389.494422	-389.540282	38.444	
C	 0.4939249204	 0.9325699946	 0.5077333494	-0.236954
O	 0.3661618834	-0.4003462991	 0.076392701	-0.243085
C	 0.5459855541	-0.5804993596	-1.3264629535	 0.142536
C	 2.0354831434	-0.5756704011	-1.7561879851	-0.24452
C	 2.4694784606	-2.0554845336	-1.7474489399	 0.010262
C	 2.8645420383	-2.5325516701	-0.3423531624	-0.399355
C	 1.211295628	-2.7476272075	-2.335447327	 0.051443
C	 1.1363138871	-4.2676937644	-2.1986276889	-0.416216
C	 0.0294979774	-1.9941574552	-1.6834777434	-0.247289
H	 1.5042404494	 1.3379069005	 0.3463866888	 0.103498
H	-0.2233923973	 1.5941115975	-0.0043541241	 0.101258
H	 0.2830216607	 0.947640474	 1.5802416894	 0.124316
H	-0.0151046624	 0.2083478132	-1.8494981404	 0.056992
H	 2.1106254727	-0.175070606	-2.7743599476	 0.089701
H	 2.6500249842	 0.0622103219	-1.1137707122	 0.093256
H	 3.3259170412	-2.2103657663	-2.414454754	 0.057508
H	 2.0583936463	-2.3756696637	 0.3797525121	 0.134679
H	 3.1350280835	-3.5928898367	-0.3354072911	 0.107722
H	 3.7343706525	-1.9703875794	 0.0144614197	 0.105251
H	 1.206881474	-2.5095044724	-3.4087099736	 0.06432
H	 1.0910777178	-4.5765405466	-1.1492493786	 0.118258
H	 0.2413599546	-4.6597705711	-2.6939757973	 0.10983
H	 2.0054384793	-4.7543283504	-2.6550984346	 0.1085
H	-0.2781710903	-2.4779195041	-0.7511087997	 0.114469
H	-0.8493148386	-1.9639098644	-2.333480697	 0.093619
