18
gdb 38564	2.7561	2.32979	1.81136	1.4945	72.6	-0.2257	0.0746	0.3004	823.9596	0.152112	-401.924559	-401.91876	-401.917816	-401.954435	25.212	
C	-0.0592992339	 1.4782434297	 0.2701982335	-0.250914
C	 1.3426606207	 2.0074182541	-0.0077065856	-0.034463
C	 2.3097638102	 0.8702759388	-0.0974926684	-0.070099
C	 1.47427964	-0.3847426405	-0.306959213	-0.108086
C	-0.0211087734	-0.0296621821	-0.0317932564	 0.096168
O	-0.3945441426	-0.3192433825	-1.3947967687	-0.298371
C	 0.992173902	-0.3730734732	-1.7889615064	 0.090879
C	 1.4950623124	 0.9696935771	-2.3482497383	-0.17854
N	 2.0896274779	 1.7547369631	-1.2532150871	-0.113809
H	-0.2816846669	 1.6589773172	 1.3289677075	 0.10428
H	-0.8464024657	 1.9608515278	-0.3180114239	 0.119005
H	 1.6141192824	 2.9543934169	 0.4519518066	 0.092228
H	 3.2929479898	 0.8440224033	 0.3611657728	 0.088278
H	 1.8623510942	-1.3154990678	 0.1004123834	 0.076857
H	-0.6004714915	-0.6346438775	 0.6711858879	 0.08021
H	 1.1868186685	-1.2282643638	-2.4428102716	 0.079743
H	 2.2905505464	 0.806739473	-3.0844495556	 0.10725
H	 0.6825552995	 1.5133710463	-2.8391295266	 0.119383
