17
gdb 4921	6.71745	1.21354	1.0437	1.4593	72.67	-0.1834	0.0347	0.2182	1136.5039	0.142332	-363.888167	-363.879959	-363.879015	-363.92075	29.973	
C	-0.0369099126	 1.4459192811	-0.0557832511	-0.324526
N	 0.0515262624	 0.0000155807	 0.0339111189	-0.381791
C	-1.146615302	-0.7112471024	 0.0347658215	 0.288723
C	-2.4153341587	-0.2411388968	 0.2166844418	-0.117481
O	-3.3081912575	-1.2865900437	 0.216710009	-0.192749
C	-2.5990985362	-2.4256239644	 0.0178129031	 0.395122
C	-3.3684985032	-3.697242847	-0.0288239078	-0.488046
C	-1.2743656267	-2.138860345	-0.0980209458	-0.392966
H	 0.9691705592	 1.8691287144	-0.1032415148	 0.120741
H	-0.6120967558	 1.7987746401	-0.9280089706	 0.108294
H	-0.5228837081	 1.8383486753	 0.8446956188	 0.132062
H	 0.7343754475	-0.3938768022	-0.5977427601	 0.232416
H	-2.8360031966	 0.7367265916	 0.3685636219	 0.118451
H	-4.103778676	-3.6925099685	-0.8417162475	 0.136011
H	-2.6900951578	-4.5386701389	-0.1860795656	 0.131866
H	-3.9165796815	-3.8682623838	 0.9047298222	 0.137192
H	-0.4752594663	-2.8485307206	-0.2503595942	 0.096681
