17
gdb 34641	3.07615	1.38894	1.02612	3.969	80.96	-0.239	-0.0459	0.193	1135.184	0.138241	-380.868959	-380.861395	-380.86045	-380.901146	29.012	
N	 0.0639487271	-1.1451016134	 0.0939809804	-0.33348
C	-0.0089353864	 0.0108743036	 0.0745497817	 0.217318
C	-0.0560480524	 1.4380563294	 0.0495682943	 0.165464
C	-1.2168050752	 2.1089578548	-0.0046521733	-0.138297
C	-1.2296288261	 3.6118761694	-0.0209692288	-0.256135
C	-0.0420754486	 4.1760193514	 0.7703494375	-0.16157
N	 1.2419143063	 3.605260681	 0.3236999424	-0.096512
C	 1.9083147907	 2.6787703883	 1.2413624701	-0.239177
C	 1.2419023704	 2.1772111601	 0.0064370682	-0.11657
H	-2.1578214437	 1.569061494	-0.0277092981	 0.121445
H	-1.1977596269	 3.9683283147	-1.0602364987	 0.137532
H	-2.1656536438	 3.9891808153	 0.4026646875	 0.12045
H	 0.0149790419	 5.2626726335	 0.6493228681	 0.1145
H	-0.2134250789	 3.9760322958	 1.8368322234	 0.104303
H	 2.9916080937	 2.7488507597	 1.284917051	 0.125099
H	 1.4203551689	 2.4682114997	 2.1912793131	 0.118321
H	 1.872776033	 1.9090475926	-0.8402278389	 0.117311
