16
gdb 45173	2.96333	1.95441	1.65931	3.6313	68.79	-0.248	0.0073	0.2552	854.2035	0.127215	-437.852059	-437.845964	-437.845019	-437.882371	25.437	
N	-0.0913398975	 1.257881901	-0.1258385859	-0.551836
C	-0.0387209971	 0.0043747872	 0.0110043065	 0.446347
O	 1.1245361507	-0.7208981749	 0.0668695332	-0.249374
C	 0.9330972378	-2.0254124304	 0.6273257546	 0.043468
C	 0.1940663401	-1.8929107791	 1.9831765644	-0.265986
C	-1.1162327525	-1.9872667104	 1.1807977573	-0.102504
C	-0.381217977	-2.6990548572	 0.0247838572	 0.118553
O	-0.9832054437	-1.9007692185	-0.9868248557	-0.283938
C	-1.242839607	-0.896875666	 0.0489218158	-0.005228
H	 0.8516260152	 1.653234541	-0.1531276079	 0.223845
H	 1.8905784441	-2.5395621025	 0.5650645555	 0.096015
H	 0.3277289972	-2.7800773905	 2.608677479	 0.115581
H	 0.4102999023	-0.9946226418	 2.5666782228	 0.121395
H	-2.0537462879	-2.3218096527	 1.6223441804	 0.08989
H	-0.3545784937	-3.7685540377	-0.1876553274	 0.091333
H	-2.178880081	-0.3608569676	-0.0942607301	 0.11244
