18
gdb 61036	2.74333	1.18156	0.86571	3.7853	73.26	-0.2473	-0.0394	0.2079	1305.31	0.145221	-439.085634	-439.076269	-439.075325	-439.120629	33.155	
C	 0.0579758986	 1.3798212406	 0.240406948	-0.404293
C	-0.0445710869	-0.1320832712	 0.0459439528	-0.071399
C	-1.4822905016	-0.6327926491	 0.0807740137	 0.131991
O	-2.4396936321	 0.0783102016	 0.2550504007	-0.24212
C	 0.6320605914	-0.5926816299	-1.2570816636	-0.106892
N	 2.1055936368	-0.3707804561	-1.3257221909	-0.326423
C	 2.379370136	-1.7620810086	-1.7753368547	-0.280104
C	 0.91609344	-2.0958284286	-1.4538794958	 0.38448
O	 0.2735435865	-3.0962478319	-1.3407827279	-0.283782
H	 1.1063747096	 1.6885577772	 0.2373242047	 0.124572
H	-0.4716900563	 1.9118631216	-0.5559505361	 0.12394
H	-0.3950498763	 1.6793629103	 1.1882455893	 0.133311
H	 0.4774307913	-0.6492594871	 0.8658213616	 0.102304
H	-1.5956496748	-1.7271952497	-0.0691827274	 0.10947
H	 0.082436967	-0.1896848155	-2.1229829517	 0.104408
H	 2.3832853419	 0.3392233003	-1.9923259726	 0.231053
H	 2.6033570879	-1.8861016629	-2.8439388755	 0.129195
H	 3.1404683409	-2.292216271	-1.1931131446	 0.14029
