17
gdb 14067	3.58872	1.63705	1.37033	3.6359	70.1	-0.2443	0.0358	0.2801	952.8322	0.142026	-363.874857	-363.86674	-363.865796	-363.907734	29.385	
C	-0.0665383632	 1.5293206499	-0.0402747424	-0.407857
C	 0.0190151221	 0.020355332	 0.0118604938	-0.051257
C	 1.3294344658	-0.6855173137	-0.2227543196	-0.346976
C	 0.7189407554	-0.670385773	 1.1506135804	 0.1787
C	 1.2568201227	-0.1164784343	 2.4833739659	-0.240765
N	 0.7246281648	-1.3420169293	 3.0954810701	-0.34835
C	 0.209017486	-1.8712877599	 1.930316392	 0.396127
O	-0.3986300233	-2.8782069235	 1.6780987979	-0.376051
H	 0.8511216569	 1.9933731455	 0.3363600248	 0.114845
H	-0.2145410328	 1.8760296056	-1.0685890135	 0.125153
H	-0.9019651089	 1.9039038453	 0.5611305772	 0.12277
H	-0.8640557975	-0.5037887198	-0.3457870927	 0.108026
H	 1.3267191124	-1.6319271843	-0.7532479356	 0.132868
H	 2.2120991412	-0.073681867	-0.3835312099	 0.114601
H	 2.3454285358	-0.0193482746	 2.5524937212	 0.113578
H	 0.7797560842	 0.8041889266	 2.8367162226	 0.113598
H	 0.6740229485	-1.6488366355	 4.0543366778	 0.250991
