18
gdb 115126	2.93879	1.25615	0.95311	5.8046	74.84	-0.2332	-0.06	0.1731	1243.5796	0.147599	-439.14611	-439.137008	-439.136064	-439.18183	31.897	
C	-0.1630012212	 1.5500365189	-0.051743021	-0.382929
C	 0.100704457	 0.0412009958	-0.0227766366	-0.157545
N	 0.7599816627	-0.4521109277	-1.2189900803	-0.079798
C	 0.0500596417	-0.6147101121	-2.4828805169	-0.179172
C	 1.091548321	-1.1936858195	-3.4598679264	-0.352733
C	 2.384086657	-1.2825206223	-2.6588045815	 0.319162
O	 3.4568230584	-1.6568706063	-3.0425196955	-0.27982
C	 2.0807090635	-0.7995359802	-1.228283274	 0.297398
O	 2.858138148	-0.7446936501	-0.3000949046	-0.373586
H	 0.7762916306	 2.1024445411	-0.1428070565	 0.14059
H	-0.813700159	 1.834395588	-0.8847817403	 0.119314
H	-0.6547831559	 1.8601230515	 0.875034542	 0.1273
H	 0.7606136328	-0.2113740833	 0.8111839802	 0.150019
H	-0.8410546649	-0.5075285557	 0.1075739549	 0.107933
H	-0.8083469979	-1.2847551264	-2.3475869859	 0.119445
H	-0.3440754965	 0.3470373843	-2.8318961065	 0.122604
H	 0.8192475327	-2.1897753386	-3.8196144021	 0.151544
H	 1.2442234601	-0.5650741175	-4.3408683589	 0.150273
