23
gdb 60010	2.92984	0.76109	0.69566	1.9357	88.53	-0.2564	0.0575	0.3139	1739.2445	0.201946	-388.266604	-388.255241	-388.254297	-388.30381	41.531	
C	-1.7366303948	 1.6908769891	-1.2351206989	-0.402008
C	-1.8096197897	 0.168087799	-1.3591349492	 0.125429
O	-0.9558091518	-0.3056810557	-2.3994003756	-0.424235
C	-1.5128669399	-0.5323997483	-0.0245867973	-0.203866
C	-1.5644117184	-2.07007102	-0.0623456441	 0.039154
C	-0.9196887761	-2.670146751	 1.1923629494	-0.404204
C	-3.0198404441	-2.5756202937	-0.2332549694	-0.362125
C	-3.1223149998	-4.0198429936	-0.4059069447	 0.305465
C	-3.1904465739	-5.2110003542	-0.5552597426	-0.445776
H	-1.9287251895	 2.1596559737	-2.2038880469	 0.124467
H	-2.4694344581	 2.0668216397	-0.51369885	 0.115941
H	-0.742385346	 2.0056736314	-0.8930933376	 0.105833
H	-2.8160203683	-0.1020563146	-1.7009622582	 0.091445
H	-0.0540435761	-0.0482034603	-2.1757039538	 0.275669
H	-0.5080797819	-0.2239900055	 0.300490446	 0.078801
H	-2.2042925437	-0.1551428756	 0.7419195676	 0.09118
H	-0.9987040967	-2.3981807821	-0.9413568608	 0.098039
H	-1.4352951143	-2.3332128326	 2.1003323802	 0.107996
H	-0.9602286508	-3.7624052259	 1.1703677853	 0.130999
H	 0.1296265695	-2.3689267257	 1.2759151668	 0.107014
H	-3.6094471712	-2.2709090907	 0.643277893	 0.121614
H	-3.4836466212	-2.0876248708	-1.0983497644	 0.131494
H	-3.2610838532	-6.2617594123	-0.6890527246	 0.191672
