21
gdb 86912	4.27632	0.76857	0.70562	2.7258	79.48	-0.2525	0.0772	0.3298	1624.4433	0.181718	-424.188543	-424.179294	-424.17835	-424.22353	34.357	
O	-0.3299256054	 1.4793764405	 0.049103539	-0.431403
C	-0.1494793966	 0.0823802836	 0.0268214255	 0.145596
C	 0.3256222911	-0.640077684	 1.3194496565	-0.294334
C	-0.7398200348	-1.7358080273	 1.0334714569	 0.045771
C	-1.5095585528	-2.3348535659	 2.2067155922	-0.248989
C	-2.5778665072	-3.3082059202	 1.7693216887	 0.105291
C	-3.8618521753	-3.4420163557	 2.46751439	-0.183345
O	-3.7766207743	-2.7480389014	 1.2216537467	-0.230992
C	-1.460308413	-0.7227031648	 0.0968484173	-0.234926
H	 0.5344249222	 1.8979071333	-0.0147036872	 0.27978
H	 0.4584725512	-0.2253312508	-0.8367697271	 0.062525
H	 1.373992756	-0.9400589928	 1.4007774957	 0.088007
H	 0.0507100125	-0.0418700474	 2.1945990958	 0.102279
H	-0.2937123734	-2.5435338363	 0.4405267579	 0.067664
H	-0.8126813272	-2.8578132225	 2.8769141043	 0.098257
H	-1.9763713296	-1.5325615156	 2.7910308482	 0.098998
H	-2.215117451	-4.1784610872	 1.2171222839	 0.087325
H	-4.4012341786	-4.3880463848	 2.4412259921	 0.112032
H	-4.0655363363	-2.8176898632	 3.336991723	 0.111732
H	-2.215372258	-0.1516185736	 0.6445069137	 0.116935
H	-1.8987982193	-1.0867956938	-0.8338537431	 0.101799
