19
gdb 124604	2.5418	1.39756	1.12272	2.5419	77.88	-0.213	0.0424	0.2554	1170.4899	0.15943	-419.235652	-419.226451	-419.225507	-419.269948	34.019	
C	-0.0444163369	 1.5571042234	 0.0434491072	-0.38008
C	-0.0210744773	 0.0251036141	 0.0355517888	 0.031674
C	 0.7304019381	-0.5521348027	 1.2396048159	-0.380056
N	-1.3853664722	-0.5025332517	-0.0110592013	-0.01825
N	-2.2603853518	-0.2494218572	 1.0013886007	-0.280793
C	-3.3786246968	-0.8651679232	 0.6414537907	 0.0238
C	-3.2574136641	-1.5249852447	-0.6001073033	-0.395132
C	-1.9543905003	-1.2599901668	-0.9762492341	 0.451621
O	-1.2174804901	-1.6034963819	-2.0591703583	-0.434908
H	 0.97683928	 1.9495431226	 0.0525658027	 0.112804
H	-0.5559416567	 1.9445754277	-0.8422068894	 0.119645
H	-0.5692298558	 1.9214658885	 0.9300414911	 0.144487
H	 0.4515362418	-0.3242038494	-0.8864714898	 0.112092
H	 0.7623616062	-1.6443831423	 1.1931589321	 0.119601
H	 1.7577989695	-0.1764111075	 1.2580825272	 0.112804
H	 0.2330949216	-0.2623399815	 2.1685525355	 0.144473
H	-4.2447451702	-0.8176301182	 1.2860446812	 0.108044
H	-3.9929518827	-2.1004724809	-1.1383414622	 0.095684
H	-1.7632280922	-2.1410226384	-2.6407992449	 0.312491
