11
gdb 130569	3.78417	1.2802	0.95658	6.8662	64.03	-0.2996	-0.1017	0.1979	1092.1963	0.067812	-447.76056	-447.753451	-447.752507	-447.792999	24.587	
O	 0.0214779356	-0.0371443674	 0.0034778369	-0.260122
C	-0.0650592252	 1.1648894472	 0.0068462015	 0.227407
C	 1.1512814059	 2.0048032022	 0.0007313459	 0.261368
N	 2.1381947804	 2.6061562714	-0.004418782	-0.319021
C	-1.3391439061	 1.9085402524	 0.0171807661	 0.280777
N	-1.3649608695	 3.2389707393	 0.0204421882	-0.244654
N	-2.6790865223	 3.491855308	 0.0298875388	-0.169693
C	-3.385621477	 2.3332196829	 0.0319781848	 0.031816
N	-2.5651731762	 1.3086265491	 0.0240761989	-0.278577
H	-3.0063088083	 4.4461183306	 0.0342948226	 0.300744
H	-4.4646436973	 2.2987540844	 0.0391847984	 0.169957
