15
gdb 29091	3.12679	1.44161	0.99281	5.0347	73.09	-0.2159	-0.0464	0.1695	1130.6695	0.113512	-453.999459	-453.991486	-453.990542	-454.032059	29.813	
C	-0.1290914135	 1.5379985512	 0.0568999192	-0.49299
C	-0.0223462817	 0.0483834118	-0.0387706327	 0.302424
C	 0.2171805927	-0.610977265	-1.1757902307	-0.067387
O	 0.3104321112	-1.9893278334	-1.2331821883	-0.213829
C	 0.162071383	-2.7548715377	-0.1240029812	 0.383693
O	 0.2453005571	-3.9489967593	-0.1981457302	-0.320144
C	-0.112551903	-2.0518489779	 1.1929127739	 0.235811
N	-0.2677435856	-2.6804771517	 2.2886456124	-0.513877
N	-0.1845540926	-0.6777647065	 1.1327369233	-0.398112
H	 0.625673678	 1.9446325768	 0.7404387717	 0.142931
H	 0.0159820394	 1.997224348	-0.9222738772	 0.14705
H	-1.1136413226	 1.8397332672	 0.433554481	 0.142951
H	 0.3592290191	-0.1535648288	-2.1415013352	 0.140389
H	-0.174905314	-3.6797555401	 2.1039293212	 0.246591
H	-0.3668514876	-0.2050081145	 2.005820073	 0.264501
