16
gdb 78415	3.36661	1.34986	1.21966	2.9432	69.02	-0.2554	0.0204	0.2757	1038.1448	0.124636	-437.825128	-437.817912	-437.816968	-437.856683	28.668	
O	-0.0152433754	 1.2876395636	-0.0758154206	-0.435658
C	-0.028373696	-0.1083847336	-0.0359929842	 0.080337
C	-0.4701156204	-0.7146079435	 1.2797681036	-0.124947
C	-1.4065548823	-0.6661880035	 0.050145298	-0.074963
C	-1.4204194547	-2.217921884	-0.0048823405	-0.174853
C	-0.4921799149	-2.2469144373	 1.2198342437	 0.085806
O	 0.5610401086	-2.8896398624	 0.4154572288	-0.279885
C	-0.2666977594	-2.9180751599	-0.7039671744	 0.423604
N	-0.0676274934	-3.4000201485	-1.8432640511	-0.550359
H	 0.804625912	 1.5883488061	 0.3301859165	 0.291441
H	 0.7351705751	-0.5953479332	-0.6402944232	 0.111744
H	-0.4860653415	-0.1145559467	 2.1809519573	 0.096278
H	-2.26812825	-0.036515453	-0.126601614	 0.112771
H	-2.3977067207	-2.6937343795	-0.0282944506	 0.108384
H	-0.6924392808	-2.8015088782	 2.1350348496	 0.101981
H	 0.8612511939	-3.8202033063	-1.9135538688	 0.228319
