17
gdb 88039	2.43307	1.34603	1.05567	3.8065	73.25	-0.2606	0.0076	0.2682	1178.3975	0.135221	-417.975353	-417.966694	-417.96575	-418.008961	31.606	
C	-0.0353644004	 1.5490707318	-0.1296799704	-0.420799
C	 0.0144705247	 0.0516089109	 0.001050004	-0.010579
O	 1.3232748736	-0.5703343828	-0.0693939191	-0.281583
C	 0.6258741616	-0.6246526525	 1.1425672696	 0.401632
C	 1.1190243803	-0.1066965385	 2.4944182579	-0.258617
N	 0.3693201367	-1.2187057766	 3.1412780354	-0.314505
C	 0.2167629891	-1.9368529541	 1.8512528193	-0.221115
C	-1.1148929875	-2.4799106888	 1.586876762	 0.309737
N	-2.1645340554	-2.8998195031	 1.346371054	-0.33033
H	 0.7511449997	 2.0230788661	 0.4631378822	 0.129186
H	 0.0962736946	 1.8462890849	-1.1747277809	 0.138661
H	-1.0067313674	 1.9252617733	 0.207891521	 0.136335
H	-0.7503357033	-0.5011821481	-0.5453925734	 0.119475
H	 2.2117441626	-0.1723826118	 2.5776763698	 0.11626
H	 0.7920126435	 0.8897813886	 2.8062536941	 0.124436
H	 0.8805474465	-1.7361420831	 3.8465912263	 0.235953
H	 0.964230451	-2.7199440661	 1.6624872784	 0.125853
