20
gdb 22284	2.56243	1.2344	0.97885	2.3204	78.25	-0.2407	-0.0007	0.2399	1269.2765	0.169334	-440.235534	-440.225906	-440.224961	-440.270872	35.719	
C	-0.2294743089	 1.3381024076	 0.2040611807	-0.496474
C	 0.0388242782	-0.1176827151	-0.0570818161	 0.369002
N	 0.4402775968	-0.959052864	 0.8187951544	-0.184903
O	 0.6112674452	-0.4066322839	 2.095671786	-0.393757
C	-0.1294027499	-0.6196462613	-1.4722155656	-0.087031
C	 1.2307012392	-0.9116075192	-2.2049672692	-0.246988
C	 1.0026276352	-2.4392042712	-1.9796607794	 0.151172
O	 1.7364607311	-3.0030805453	-0.9227569162	-0.440378
C	-0.4853265155	-2.1275719614	-1.6455240687	-0.257123
H	 0.1007813817	 1.6421732353	 1.1955722673	 0.157445
H	 0.2755132441	 1.9489517053	-0.5523901927	 0.137699
H	-1.3028728369	 1.5418719782	 0.1096730671	 0.141176
H	 0.8959261106	-1.1676698108	 2.6122065772	 0.307517
H	-0.7877833632	 0.0730186798	-2.0021736361	 0.071944
H	 1.1961222988	-0.6277712061	-3.2603130617	 0.098228
H	 2.1349595787	-0.5017826184	-1.7493296578	 0.105504
H	 1.1789161736	-3.0764704649	-2.8500336034	 0.07699
H	 1.4759851028	-2.5267548993	-0.1183908013	 0.282384
H	-0.8888605326	-2.6427932714	-0.7718591621	 0.11027
H	-1.1505280189	-2.2845348738	-2.4988816023	 0.097322
