19
gdb 62242	5.24919	0.53749	0.5038	3.2324	79.76	-0.2495	-0.0212	0.2283	2081.2606	0.155062	-422.996801	-422.986106	-422.985162	-423.034031	37.04	
O	-0.2958951946	 1.3144033726	 0.1022050168	-0.415883
C	-0.0154039284	-0.0834364043	 0.0472997053	-0.061524
C	 0.7210980867	-0.4711583439	-1.2507916524	-0.191676
C	-0.0642629239	-0.0756518158	-2.50415902	-0.195642
C	 0.6923586521	-0.3967098488	-3.803760958	-0.281335
C	-0.053757225	 0.0938312385	-5.0237774392	 0.160674
O	-0.3637081761	-0.5866594622	-5.9669424216	-0.236619
C	 0.7259083791	-0.5302350881	 1.2293777827	 0.28917
C	 1.3748557279	-0.8642233622	 2.184723044	-0.433745
H	 0.5201027608	 1.7629546433	 0.3509698913	 0.286544
H	-1.0029051666	-0.562688268	 0.04339229	 0.120689
H	 1.7055608844	 0.0152780725	-1.2502885951	 0.099441
H	 0.9071922271	-1.5514893161	-1.2378449311	 0.114592
H	-1.0305355411	-0.5965645556	-2.5089467066	 0.111212
H	-0.2903812416	 0.9951526149	-2.455855825	 0.121575
H	 1.6661502748	 0.1155549959	-3.7876768423	 0.117603
H	 0.8779590583	-1.469216776	-3.9152129003	 0.12155
H	-0.3160594429	 1.1783143938	-4.9899209173	 0.070885
H	 1.928658669	-1.1679417206	 3.0388200086	 0.20249
