17
gdb 85366	2.53373	1.52674	1.10965	3.4288	71.11	-0.2694	-0.057	0.2124	1102.0128	0.135895	-459.007072	-458.998684	-458.99774	-459.040025	31.5	
C	-0.0380882355	 1.5301786188	-0.0438680939	-0.398199
C	-0.0230550215	 0.0173193439	 0.0786305233	 0.092325
O	 0.5216620714	-0.495105425	-1.1603424191	-0.25579
C	 0.7663416064	-1.8277893862	-1.2732287898	 0.393368
O	 0.9516715342	-2.3138911733	-2.358601165	-0.332191
C	 0.8810043854	-2.5962731051	-0.0096395569	-0.17244
C	 0.9147104538	-1.9973206866	 1.1827093592	-0.102878
C	 0.7661615834	-0.5002920531	 1.2870932214	 0.06601
O	 2.0368149119	 0.1183113817	 1.4557203666	-0.425707
H	 0.9809851221	 1.9196333601	-0.0864260809	 0.137188
H	-0.5738452709	 1.8274140596	-0.9480848611	 0.134116
H	-0.5387826641	 1.9716984394	 0.8229041882	 0.121864
H	-1.0493157932	-0.3644742778	 0.1716161134	 0.094298
H	 1.0266411594	-3.6621085068	-0.141962036	 0.129623
H	 1.1107908705	-2.5576093442	 2.0922524232	 0.122384
H	 0.2026171019	-0.2381547819	 2.1891956045	 0.105017
H	 2.5866211447	-0.1405239232	 0.7065998227	 0.291013
