18
gdb 91046	2.19354	1.89181	1.5591	1.7842	71.05	-0.2287	0.057	0.2857	961.2646	0.146839	-438.998612	-438.990727	-438.989783	-439.030415	31.483	
C	-0.2194336735	 1.5651398931	-0.0895118265	-0.418868
C	 0.0689548267	 0.0831995983	 0.0122507526	 0.095863
O	 1.1448139955	-0.3908665987	-0.8530554145	-0.305914
C	 1.7568217222	-1.143047886	 0.206397058	 0.036109
C	 2.912631328	-0.4568293189	 0.9838164746	-0.074696
N	 2.631701281	 0.9943963643	 1.0159941809	-0.321794
C	 1.9347904139	 0.1058976691	 1.9673914475	-0.0998
C	 0.7493383427	-0.5799764394	 1.2442051938	 0.337535
O	-0.004834595	-1.3235700564	 2.1448988801	-0.480524
H	 0.6809314094	 2.1453565544	 0.1072269283	 0.153995
H	-0.5922387937	 1.8087744721	-1.0898705789	 0.119911
H	-0.9970674933	 1.8374441021	 0.6331645198	 0.11184
H	-0.8486565117	-0.4871590312	-0.219303073	 0.054507
H	 1.8838510478	-2.2077712357	-0.0067858285	 0.077059
H	 3.9199658551	-0.8276224599	 1.1288360098	 0.095101
H	 3.3978286382	 1.4313398729	 1.5276376332	 0.234873
H	 2.0052566651	 0.2416753814	 3.0394628557	 0.1006
H	-0.6188131083	-1.8745860416	 1.6467723072	 0.284201
