20
gdb 70558	2.63684	1.46846	1.18597	1.7551	78.95	-0.2299	-0.0175	0.2124	1120.8891	0.171198	-403.154284	-403.14576	-403.144816	-403.187959	32.709	
C	 0.0663946982	 1.5378925374	 0.0235195725	-0.448953
C	-0.0521087486	 0.0283547259	 0.0241875545	 0.312723
C	-0.8992031272	-0.6463418165	 1.0456435996	-0.283542
N	 0.557411203	-0.6379766367	 1.1887065531	-0.121497
C	 1.2582847345	-1.9235882104	 1.0515085141	-0.164863
C	 1.620410595	-2.322188482	-0.3965309427	-0.299093
C	 0.4498662871	-2.074859205	-1.3257924778	 0.378268
O	-0.0935920792	-2.9376646743	-1.9743164208	-0.311539
C	 0.0324316706	-0.6139635736	-1.3629650317	-0.369139
H	 1.0377647211	 1.8531080039	-0.3745639474	 0.116061
H	-0.7144365734	 1.9882320551	-0.600061453	 0.117827
H	-0.0277224126	 1.9306958814	 1.0385024827	 0.128124
H	-1.4517774442	-0.0679185136	 1.7828923597	 0.110841
H	-1.3784937317	-1.5833187307	 0.7598980626	 0.114446
H	 2.1798560643	-1.8706066612	 1.6413134772	 0.114746
H	 0.6427703251	-2.7120077602	 1.4996254224	 0.117011
H	 2.4585212911	-1.6997348855	-0.736256175	 0.118675
H	 1.9235990612	-3.370100898	-0.4463035213	 0.122926
H	-0.9122773058	-0.5153134305	-1.9050194563	 0.126327
H	 0.8001383514	-0.0853873857	-1.9468546523	 0.120654
