14
gdb 130704	4.39635	1.09267	0.92882	3.1344	64.66	-0.2264	-0.0026	0.2238	1187.6669	0.102559	-470.021439	-470.013954	-470.01301	-470.053954	27.43	
O	-0.0192855465	 0.3148142863	 0.9685608071	-0.414807
C	-0.0616801624	 1.3612295102	 0.3636635599	 0.460999
N	-0.8524264528	 1.7398142231	-0.7053206746	-0.295261
N	-0.5989349576	 3.0066562029	-1.1774575782	-0.279938
C	 0.331097743	 3.4531435856	-0.3891108103	 0.409543
N	 0.6859337241	 2.5314008036	 0.5643237981	-0.40627
C	 0.9308648789	 4.7954892331	-0.4700682816	-0.019137
C	 1.1036997789	 5.6377430865	 0.7279732972	-0.180607
O	 2.2074244086	 4.9278072164	 0.164503737	-0.238005
H	-1.5172109069	 1.1501525621	-1.1741916694	 0.284119
H	 1.4710692623	 2.6018586456	 1.1892379814	 0.286196
H	 0.8248608895	 5.2763022362	-1.4396617332	 0.129499
H	 1.1340969545	 6.7194942218	 0.6127023049	 0.13532
H	 0.7543220663	 5.2751217865	 1.6928042916	 0.128348
