16
gdb 95536	2.25106	1.67802	1.22627	2.771	70.76	-0.2508	0.0138	0.2646	1037.3876	0.124078	-437.847547	-437.839176	-437.838232	-437.880486	31.227	
O	 0.0315982696	 1.4236707773	-0.0422113581	-0.41792
C	 0.0356306557	 0.0131804674	 0.0085947532	 0.059544
C	 0.7447894312	-0.5030721904	 1.2591809763	-0.104942
O	 0.6755403477	-1.9355441842	 1.3300404785	-0.222913
C	-0.4522350569	-2.4951929959	 0.8360849663	 0.140494
N	-1.4410204472	-1.9642172922	 0.2511796059	-0.264595
C	-1.4153473086	-0.5051741771	 0.0350991267	-0.17538
C	-2.2304559281	 0.1706535605	 1.0455639896	 0.392741
C	-2.9014836251	 0.7053624139	 1.8862663025	-0.486841
H	 0.9205232685	 1.7247173578	-0.2565914751	 0.290787
H	 0.5149334408	-0.4213455635	-0.8813947555	 0.087567
H	 1.8085882334	-0.2497816403	 1.2583302597	 0.11061
H	 0.2746989127	-0.0683290571	 2.1483714143	 0.13854
H	-0.4255164362	-3.5713958324	 0.9966301766	 0.131713
H	-1.864994555	-0.3184684954	-0.9471030378	 0.121387
H	-3.5002401926	 1.1832839414	 2.6216336271	 0.19921
