20
gdb 121330	3.09592	0.99223	0.78689	2.0375	76.86	-0.2314	-0.0188	0.2126	1474.4841	0.170691	-440.2927	-440.283387	-440.282443	-440.32764	33.486	
C	-0.0129744551	 1.355840134	 0.1246563845	-0.227874
O	-0.0027138074	-0.0486407714	 0.0247649359	-0.245753
C	 0.6484131597	-0.5111089863	-1.1410672107	-0.062098
C	 0.5434151767	-2.0245090154	-1.1578701108	-0.094844
N	-0.8107526712	-2.5111789354	-1.3980373091	-0.307127
C	-0.691731137	-3.8929987839	-1.8788805612	-0.171481
C	 0.4726257191	-3.7961094573	-2.8728543778	-0.309838
C	 1.3444313075	-2.6836082088	-2.2885616597	 0.410876
O	 2.4540382458	-2.3732481066	-2.6353631944	-0.319052
H	 1.0071002105	 1.769849106	 0.1575703053	 0.106808
H	-0.54419293	 1.8211240065	-0.7204591489	 0.106805
H	-0.5292170967	 1.6146866854	 1.0523730604	 0.125918
H	 0.1693306099	-0.0983398222	-2.0431120448	 0.092094
H	 1.7099307515	-0.2184370625	-1.1484796313	 0.104292
H	 0.9828608645	-2.3992464508	-0.2110311016	 0.090255
H	-1.3977492984	-2.4223584906	-0.5783214786	 0.232712
H	-0.4402514638	-4.6140194377	-1.0806451649	 0.087944
H	-1.6271621928	-4.2203986922	-2.3405784997	 0.109033
H	 1.0429831554	-4.7164030331	-3.012021693	 0.129805
H	 0.1252087318	-3.4624080676	-3.8575928695	 0.141522
