16
gdb 43693	6.69794	0.6622	0.6407	3.0122	71.24	-0.2573	-0.0356	0.2216	1651.8361	0.121806	-437.886594	-437.877754	-437.87681	-437.921607	31.074	
O	 0.1468881732	 0.1455713593	-0.3265284499	-0.277638
C	 0.0320098126	 1.2901745776	-0.0048536351	 0.399807
C	-1.1701343339	 2.2124621781	 0.2514397793	-0.372107
C	-0.1968232226	 3.1994398497	 0.9397741044	 0.136718
C	 1.0316883178	 2.3829653596	 0.4172216872	-0.3778
O	-0.3478930671	 4.5140875206	 0.4552685937	-0.244403
C	 0.5413524325	 5.425344035	 1.0575439038	-0.196658
C	 0.306324813	 6.7616156101	 0.5039975096	 0.266815
N	 0.1453260141	 7.8253671327	 0.0858990096	-0.287538
H	-1.5591599509	 2.6370084869	-0.6802154642	 0.155467
H	-1.9981582041	 1.8043909089	 0.8339333105	 0.139448
H	-0.2721524223	 3.1830886645	 2.0355988232	 0.087898
H	 1.8135738301	 2.0875571368	 1.1202178431	 0.134102
H	 1.4880197972	 2.8597002687	-0.4576427613	 0.145228
H	 0.3983761981	 5.4650824043	 2.1495711151	 0.144851
H	 1.5923170123	 5.150471407	 0.875878681	 0.145812
