13
gdb 13158	4.3447	1.42422	1.17666	2.6072	59.51	-0.2728	-0.0962	0.1766	961.7501	0.094685	-398.586701	-398.57907	-398.578126	-398.620491	25.37	
O	 0.2271066925	-0.0704665215	 0.5211744712	-0.258609
C	 0.0185827083	 1.0834777821	 0.2465205658	 0.289388
C	 1.133684335	 1.9666013876	-0.1672812517	 0.224014
N	 1.9866968279	 2.6771444848	-0.490863012	-0.291779
C	-1.32605872	 1.7591131708	 0.2505310271	-0.159643
C	-1.9538285984	 1.9663791259	-1.1633795499	-0.076245
O	-3.0111528112	 1.0450631715	-0.8627970094	-0.25981
C	-2.5434702194	 0.8482958115	 0.4890670923	-0.095026
H	-1.2695867946	 2.6722736724	 0.8478749937	 0.127469
H	-2.318593337	 2.9829141128	-1.3492937194	 0.123186
H	-1.3425887824	 1.641723152	-2.0139458351	 0.125159
H	-2.2993110358	-0.1973009601	 0.6974834738	 0.138273
H	-3.2585351848	 1.2212065201	 1.2304756935	 0.113624
