16
gdb 87542	2.7994	1.49985	1.15777	4.6963	69.88	-0.2482	-0.0307	0.2175	1071.5249	0.122767	-437.838591	-437.830572	-437.829628	-437.871267	29.805	
C	-0.0184499585	 1.5773140078	-0.0406204403	-0.419109
C	-0.0815378664	 0.0796164425	 0.0927184794	-0.024755
O	 1.1435362806	-0.6482443277	-0.1033291345	-0.282554
C	 0.5834330092	-0.6384059207	 1.1884706746	 0.320004
C	 1.2985192287	-0.1787797542	 2.4467069171	-0.133452
C	 0.3564235985	-0.1900022517	 3.5752760351	-0.253702
N	 0.956134202	-1.4935984525	 3.1606343978	-0.182524
C	 0.2326073055	-1.9129010651	 1.9576190997	 0.333363
O	-0.3047838617	-2.9456721028	 1.7215664993	-0.291414
H	 0.859304844	 1.9812668976	 0.4701184537	 0.131326
H	 0.0339233663	 1.8644655632	-1.0955134034	 0.141481
H	-0.9162079976	 2.0345409871	 0.3884076433	 0.130999
H	-0.9455297629	-0.4098460839	-0.3582936735	 0.115834
H	 2.3066442993	 0.2120623811	 2.486597797	 0.132732
H	 0.7030958679	 0.1288318022	 4.5529149764	 0.146727
H	-0.7026375849	-0.0230560028	 3.3928670882	 0.135043
