23
gdb 86536	2.61172	1.19154	1.18329	2.3645	81.3	-0.2464	0.0635	0.3098	1234.482	0.204101	-425.421641	-425.411798	-425.410854	-425.455459	38.981	
C	-1.4464652235	-0.2988727461	-0.0712569392	-0.394829
C	 0.0797160879	-0.1499197001	-0.0157635483	 0.342113
C	 0.4492427593	 1.2792582056	 0.4178407593	-0.40696
O	 0.513798018	-1.0769539032	 0.980184687	-0.486636
C	 0.6775101501	-0.4659744254	-1.4053700205	-0.00527
C	 2.2320579613	-0.4047777626	-1.5597036358	-0.259544
C	 2.2861079424	-1.9459733043	-1.580382779	 0.112606
O	 2.7141588403	-2.3926963855	-0.2936253572	-0.427232
C	 0.7453598972	-1.9815463036	-1.7774081503	-0.271927
H	-1.8964167522	 0.4584744365	-0.7205968484	 0.103123
H	-1.7291315103	-1.28852989	-0.4416343674	 0.111632
H	-1.861628499	-0.1858828037	 0.9341666568	 0.119785
H	-0.0139059618	 1.5018090038	 1.3833342889	 0.117313
H	 1.5310413522	 1.3898543988	 0.535169407	 0.109482
H	 0.1070989257	 2.0234124408	-0.3100569132	 0.101307
H	 1.4207826369	-1.3591323585	 0.789942393	 0.282308
H	 0.1503426186	 0.149337188	-2.1397229078	 0.068475
H	 2.5385192548	 0.0407072397	-2.5088304181	 0.102878
H	 2.8150002427	 0.0530047654	-0.7570692158	 0.11377
H	 2.8956217137	-2.4168275234	-2.3609675288	 0.071587
H	 2.4548321143	-3.315427377	-0.1927403253	 0.28959
H	 0.2064603856	-2.6656238301	-1.1172381407	 0.109023
H	 0.4612917459	-2.1824006851	-2.8136476661	 0.097407
