18
gdb 53594	2.8935	0.8455	0.71244	3.6469	82.32	-0.2467	0.0032	0.2499	1609.6916	0.145366	-401.9184	-401.908405	-401.907461	-401.955675	33.923	
C	-0.1334573664	 1.2241826901	 0.4774252004	-0.497161
C	-0.0771797218	-0.2192001018	 0.2949024076	 0.076492
C	-0.0205358357	-1.4127105367	 0.1468718163	 0.057797
C	 0.016389295	-2.8608240555	-0.0380803698	-0.37941
C	-1.3513602076	-3.4546037385	-0.3474396798	 0.005233
C	-1.6675421248	-4.8687590843	 0.0543635513	-0.255174
N	-2.2863767502	-3.7476348314	 0.7214132623	-0.05439
C	-2.1409592539	-3.4498956328	 2.0651009884	 0.130532
O	-2.1319430389	-4.2677660408	 2.9532121311	-0.292161
H	 0.4510823792	 1.7453463855	-0.2885602146	 0.150156
H	-1.1635309922	 1.5919005303	 0.415838404	 0.151266
H	 0.2647077534	 1.5164531948	 1.4551754305	 0.152121
H	 0.6945684155	-3.1147096256	-0.8637542162	 0.138501
H	 0.4260405009	-3.3474141718	 0.8569485258	 0.14004
H	-1.8149817597	-3.0609722556	-1.2500218169	 0.112325
H	-2.3180300302	-5.4769722208	-0.5676737513	 0.129512
H	-0.9168384625	-5.4195048742	 0.6166148146	 0.136333
H	-2.1025076901	-2.3588383111	 2.2382456164	 0.097988
