17
gdb 106058	2.73151	1.61373	1.30022	2.4295	66.62	-0.2429	0.063	0.3059	997.6914	0.136094	-458.884791	-458.87711	-458.876166	-458.917063	29.948	
O	 0.0626831649	 1.3257898656	 0.2660065476	-0.42131
C	 0.0232342532	-0.0620163772	-0.0374326381	-0.191565
C	-1.3896686728	-0.5574051892	-0.0548277366	 0.232361
C	-2.2012158438	-0.955293892	 1.1805871029	 0.044238
O	-3.5866329146	-0.6721528676	 0.9261881762	-0.30796
C	-3.3534008672	-1.2174445399	-0.408575615	 0.003593
C	-2.0447445878	-1.939349685	 0.071060429	-0.223599
C	-2.4654884665	-0.1191596638	-1.0504631313	 0.107012
O	-2.9171072998	 1.2088504061	-1.0048278013	-0.447091
H	-0.6274945704	 1.7501105596	-0.2587178682	 0.291692
H	 0.5051919076	-0.271369328	-1.0069283981	 0.090896
H	 0.6160818525	-0.5703490827	 0.7319282997	 0.1068
H	-1.833509407	-0.9270849273	 2.1973778752	 0.121946
H	-4.244670975	-1.634008305	-0.8717772999	 0.093703
H	-1.666963964	-2.9489957912	 0.0022905528	 0.111642
H	-2.1888043029	-0.3565233525	-2.0809453674	 0.096574
H	-3.3684584765	 1.2899886703	-0.1514904275	 0.291067
