15
gdb 50126	4.83148	1.04829	1.0044	3.5782	74.81	-0.2425	-0.0377	0.2048	1173.4212	0.109613	-420.547051	-420.538875	-420.537931	-420.580071	30.282	
O	-0.2788083933	 0.1409803339	-0.5449663464	-0.23889
C	-0.0300368805	 1.2026960423	-0.0384225595	 0.145703
C	 1.2991594952	 1.9161969038	-0.127296837	 0.023262
O	 2.3919965964	 1.1283017433	-0.6328937504	-0.306263
C	 2.6341721968	 2.086077645	-1.6808079432	 0.335235
C	 1.4402869387	 2.1613782683	-2.5897433575	-0.337527
C	 1.4171612456	 2.9223441508	-1.2849385998	-0.21436
C	 3.9699545865	 2.4346030029	-2.0095469147	 0.200494
C	 5.1028301727	 2.723294023	-2.2921319447	-0.403235
H	-0.8015892927	 1.7842867168	 0.5194938992	 0.078507
H	 1.5520639885	 2.3622069595	 0.8440806748	 0.108676
H	 1.565224919	 2.7845015502	-3.468489531	 0.136102
H	 0.8379873831	 1.2673751174	-2.7184620701	 0.151452
H	 1.3126671186	 3.9951174182	-1.2100286434	 0.122896
H	 6.1041078657	 2.9756704645	-2.5406275263	 0.197949
