16
gdb 128025	4.75457	0.99148	0.82458	4.3098	76.97	-0.2236	-0.0071	0.2165	1349.2854	0.127083	-430.281642	-430.273576	-430.272632	-430.314638	29.264	
C	 0.0905084615	 1.5486877599	 0.0728989557	-0.319454
N	 0.006013766	 0.1081974141	-0.0532449506	-0.237273
C	 0.3914390689	-0.5964706712	 0.9324812859	 0.113133
N	 0.3597804535	-1.969388851	 0.9328925352	-0.428111
C	-0.0796766994	-2.7689339133	-0.1020193386	 0.508417
N	-0.0971323788	-4.0903656591	-0.0717687777	-0.364718
C	-0.6052002265	-4.3895751815	-1.3023900773	 0.032476
N	-0.8953830519	-3.356313826	-2.0717168177	-0.225201
N	-0.5472108737	-2.3073113729	-1.2749675842	-0.237598
H	 0.7274092033	 1.9546480428	-0.7213752047	 0.132811
H	-0.9035151516	 1.9920943804	-0.0560636789	 0.132811
H	 0.4935718361	 1.8813346965	 1.0422858051	 0.102391
H	 0.7826277044	-0.181080511	 1.8691506986	 0.101357
H	 0.680946033	-2.4686971695	 1.7460258574	 0.27743
H	-0.763819361	-5.4044466657	-1.6348751384	 0.123185
H	-0.629884674	-1.3333593926	-1.5324761497	 0.288344
