19
gdb 85368	2.21727	1.59107	0.97028	3.4754	86.94	-0.2382	-0.0697	0.1685	1216.2686	0.160285	-385.929359	-385.921047	-385.920103	-385.962438	31.921	
C	 0.0477964464	 1.6334125098	 0.0345538627	-0.404892
C	-0.0475719697	 0.1009960794	 0.0064471396	-0.047799
C	 0.5272096406	-0.4610100059	-1.310141324	-0.307233
C	 0.0256980416	-1.84797161	-1.6924047722	 0.351349
O	-0.3580653026	-2.068565543	-2.827465697	-0.325476
C	 0.0399951437	-2.9474510429	-0.7065955215	-0.167391
C	 0.4127471585	-2.9237883305	 0.5900627758	-0.062945
C	 0.8240396237	-1.8127271863	 1.4334332776	-0.094996
C	 0.6204184963	-0.5044883794	 1.2144657738	-0.051394
H	 1.0906457069	 1.9620952968	-0.0395047646	 0.12162
H	-0.5033911291	 2.0754836178	-0.8000733301	 0.1221
H	-0.3660863342	 2.035533652	 0.9649568875	 0.116938
H	-1.1156614647	-0.1703511514	 0.0455989231	 0.102725
H	 0.2775643413	 0.1935828418	-2.149352399	 0.119342
H	 1.6234467369	-0.4986457216	-1.2395438069	 0.119865
H	-0.2647640273	-3.8944598414	-1.1430319781	 0.107822
H	 0.4047971506	-3.8846871018	 1.1022908787	 0.106882
H	 1.293917814	-2.100875601	 2.3704138304	 0.096484
H	 0.9464449969	 0.1932972877	 1.9831450142	 0.097
