21
gdb 122310	4.77801	0.73315	0.70052	1.1123	80.33	-0.232	0.0791	0.3111	1686.5362	0.181174	-424.17063	-424.161185	-424.160241	-424.205846	34.206	
C	 0.028889545	 1.3622068647	-0.0109147411	-0.229076
O	-0.0547975747	-0.0405049672	 0.0499043128	-0.231516
C	 0.7099784317	-0.5895916292	 1.1008155552	-0.049522
C	 0.5141545253	-2.1042573186	 1.0902912696	-0.321243
C	 1.2769121032	-2.774631294	 2.1877521398	 0.488972
C	 2.7185214672	-3.1905483617	 2.1731748595	-0.329657
C	 1.6431398149	-4.2074359924	 2.5115085705	-0.202628
C	 1.0987928798	-3.8974783278	 3.8990035868	-0.08418
O	 0.8671998812	-2.5079242395	 3.5418625374	-0.327964
H	 1.0626402555	 1.7045475462	-0.1801083684	 0.101511
H	-0.5924911081	 1.6924143151	-0.8471415381	 0.124964
H	-0.338976615	 1.8349308815	 0.9137759117	 0.104416
H	 1.7778722709	-0.3418350029	 0.9743709313	 0.086517
H	 0.3926437583	-0.1758173642	 2.0716701917	 0.106242
H	-0.5549224222	-2.3220738424	 1.1907551053	 0.115037
H	 0.8421879722	-2.5018589467	 0.1237263747	 0.110362
H	 3.1616954631	-3.3154502457	 1.1898529054	 0.114121
H	 3.3948269492	-2.8265870007	 2.9424049973	 0.112099
H	 1.49074231	-5.1201974	 1.951372866	 0.100419
H	 0.1505694784	-4.3985842264	 4.1246752591	 0.108335
H	 1.7827364041	-4.0001665481	 4.7503482937	 0.102792
