15
gdb 130318	3.16138	1.2845	0.91636	4.7911	71.13	-0.2138	0.001	0.2148	1193.5221	0.114657	-450.115915	-450.107866	-450.106921	-450.148756	29.936	
N	 0.1660256189	 1.3925063363	 0.0851154787	-0.605441
C	 0.0352569406	 0.003292443	 0.0149420375	 0.313672
N	-1.1270787833	-0.6040421005	 0.0194414757	-0.211336
O	-0.8347804817	-1.9650768012	 0.0166542943	-0.180916
C	 0.5018770735	-2.1385115434	 0.0008502499	 0.03029
C	 1.1201933115	-0.926432003	 0.0102811797	 0.177692
N	 2.4625058007	-0.5576123342	 0.0353101293	-0.414177
C	 3.5193822173	-1.430341028	 0.0054492524	 0.075355
N	 3.3648779598	-2.6871693952	-0.1474948982	-0.458311
H	 0.6781728093	 1.771212801	-0.7047030084	 0.25268
H	-0.7443818647	 1.836575799	 0.1323934552	 0.26277
H	 0.8756105925	-3.1457527487	-0.0132084848	 0.178655
H	 2.6476334559	 0.3892191569	 0.3259430986	 0.257985
H	 4.4776557255	-0.9100371624	 0.1134227462	 0.094846
H	 4.267735434	-3.1542920096	-0.1711103759	 0.226236
