17
gdb 31686	4.817	0.91658	0.77743	3.0103	78.04	-0.2403	-0.0488	0.1915	1431.2509	0.13655	-418.071706	-418.063238	-418.062294	-418.105451	30.458	
C	-0.8587492491	 1.0209054563	 0.1543107425	-0.388374
C	 0.5569571192	 0.4604817121	 0.0041722478	-0.277655
C	 1.0312701504	-0.3340167653	 1.1796990699	 0.278225
C	 0.3909468668	-0.6300639355	 2.344981401	-0.193189
N	 1.2853445621	-1.398365556	 3.0924263059	-0.05338
C	 1.0769348488	-1.9371687082	 4.3608706799	 0.180054
O	 1.8904102544	-2.5926322061	 4.9541504763	-0.27938
C	 2.4271444251	-1.5193766575	 2.3197507503	 0.029138
N	 2.3079397447	-0.9010129827	 1.1829925782	-0.315928
H	-0.932362658	 1.690968652	 1.0174239992	 0.119745
H	-1.1456529675	 1.5899088673	-0.7339877993	 0.119617
H	-1.5925929451	 0.2189327927	 0.2874384514	 0.119653
H	 0.6188266564	-0.1732657417	-0.8897482086	 0.123776
H	 1.2692918561	 1.2765928087	-0.1718252135	 0.123839
H	-0.5866173886	-0.3855351455	 2.7242620589	 0.144542
H	 0.074703275	-1.6882749837	 4.7528795247	 0.104904
H	 3.2806815595	-2.0743852971	 2.6755761353	 0.164413
