20
gdb 15725	2.64063	2.0173	1.34666	0.618	71.08	-0.2539	0.086	0.3399	994.5766	0.177308	-386.151082	-386.142433	-386.141489	-386.184301	31.321	
C	 0.5261300129	 1.2480816908	 0.2655419125	-0.239878
O	 0.5476499696	-0.1605450715	 0.1416561258	-0.247192
C	 0.441453969	-0.6111512722	-1.185988001	 0.22486
O	 1.5425056526	-0.214827286	-1.9728540861	-0.267619
C	 2.5580269927	-1.2325558284	-1.9388480678	-0.079055
C	 1.9874690541	-2.3948013758	-1.1115138497	-0.243167
C	 0.4693616746	-2.1447953452	-1.1840672305	-0.00809
C	-0.3653622658	-2.8221926393	-0.1018257711	-0.408041
H	 1.3655071287	 1.7111956528	-0.2661719223	 0.124414
H	-0.4118572247	 1.6695080552	-0.1283478588	 0.102578
H	 0.5976014611	 1.4787845565	 1.3308698163	 0.122153
H	-0.4517383119	-0.1715814461	-1.6550604153	 0.064191
H	 2.7688105731	-1.5296354462	-2.9736357739	 0.10036
H	 3.4778229991	-0.8181294239	-1.511739225	 0.103408
H	 2.2798226943	-3.3712222709	-1.5050702147	 0.099643
H	 2.3199080095	-2.3319952006	-0.0710709451	 0.115487
H	 0.1108938154	-2.4580697138	-2.1729304678	 0.079108
H	-0.045770848	-2.5015649808	 0.8921669728	 0.134669
H	-1.4271459972	-2.5764087631	-0.2085650121	 0.11259
H	-0.268539809	-3.9108854815	-0.1645243562	 0.109581
