20
gdb 65782	3.14431	1.03859	1.00135	2.2799	77.02	-0.2563	0.0198	0.2761	1293.0476	0.170705	-440.286395	-440.277256	-440.276312	-440.321397	33.602	
C	-0.0390572966	 1.6144915758	-0.0369864641	-0.4391
C	-0.00489015	 0.0871774571	 0.0095033586	 0.375234
C	 0.7653736737	-0.5135320408	-1.1964992358	-0.28466
C	 1.8977587738	-1.3296862544	-0.5500320996	-0.08439
O	 2.0975671716	-0.7350171917	 0.7283757359	-0.245076
C	 0.8028527345	-0.4624193896	 1.221608148	-0.128712
O	-1.342640151	-0.4512786672	-0.0435198657	-0.231986
C	-2.1509315064	-0.2573140632	 1.0153033974	 0.115132
N	-3.3413334707	-0.6792392192	 0.9819832327	-0.445145
H	 0.983762187	 2.0021546678	-0.0099837806	 0.133736
H	-0.5193032072	 1.9583919663	-0.9575776587	 0.134029
H	-0.5835058286	 2.0360397732	 0.8137767621	 0.116236
H	 0.091495462	-1.1195768354	-1.8035531189	 0.131691
H	 1.1684753149	 0.2845203973	-1.8241111157	 0.110764
H	 1.6073961563	-2.3860685023	-0.4378155995	 0.100245
H	 2.8443223384	-1.285738938	-1.0927586459	 0.11367
H	 0.9004559382	 0.2450622851	 2.0491402424	 0.109329
H	 0.3149867768	-1.3806044678	 1.5879906707	 0.101632
H	-1.6802236127	 0.2702584112	 1.8547183465	 0.090068
H	-3.8095589241	-0.461966894	 1.8593427002	 0.2273
