19
gdb 92275	3.87014	1.29863	1.08337	1.2852	86.12	-0.2145	-0.0196	0.1949	1153.1162	0.160755	-385.906798	-385.899201	-385.898256	-385.93879	30.186	
C	 0.0926903649	 1.5551178242	-0.0368336192	-0.390452
C	 0.0105926703	 0.0365592722	 0.0574563361	 0.108861
O	 0.6527652729	-0.5385150227	-1.1002345526	-0.293583
C	 1.2787940757	-1.73674028	-0.6846880425	 0.078119
C	 2.6813237293	-2.0839516853	-1.2253505095	-0.307907
C	 3.3383522771	-2.6673300706	 0.0184206137	-0.070741
C	 2.6706068931	-2.3658733618	 1.148530993	-0.186678
C	 1.5087891437	-1.5644008624	 0.7987982955	 0.332937
C	 0.7470853461	-0.5670264742	 1.2447185605	-0.314682
H	 1.1363032108	 1.8816690811	-0.0162711347	 0.12042
H	-0.3618206479	 1.8979010584	-0.9707347528	 0.12555
H	-0.4409350552	 2.0221910816	 0.7972723602	 0.111251
H	-1.0535978239	-0.2633420822	 0.0581633115	 0.075112
H	 0.6113855623	-2.5983332401	-0.8688655743	 0.074392
H	 2.6731777415	-2.7715352121	-2.0759795289	 0.107135
H	 3.201440147	-1.1699882756	-1.5436022989	 0.123896
H	 4.2765954961	-3.2101163818	-0.0196727097	 0.102051
H	 2.987219171	-2.6124118742	 2.1542561235	 0.104452
H	 0.6858394553	-0.1578473445	 2.244792649	 0.099867
