17
gdb 80327	2.19894	1.53807	1.33655	5.6771	72.52	-0.2438	0.0068	0.2506	1053.8946	0.135832	-417.966008	-417.957526	-417.956581	-417.998922	32.002	
C	-0.0698423951	 1.5647960358	-0.0551857397	-0.503148
C	-0.0061505996	 0.0697629132	 0.0385395341	 0.255115
C	-0.8683622791	-0.7810330866	 0.9604033791	 0.110151
O	-1.6735682665	-1.831271879	 0.5508018954	-0.429249
C	 0.6147334202	-0.9087087802	 1.0570676724	-0.141113
N	 0.9998670977	-1.8567996496	-0.0181730147	-0.353528
C	 0.6200476984	-0.8306426559	-1.0443140351	-0.190756
C	-0.2151705026	-1.315606	-2.1478202144	 0.30156
N	-0.8480562276	-1.6776051375	-3.0443048621	-0.323409
H	 0.9007372371	 2.0001230194	-0.3204875127	 0.119476
H	-0.7982306607	 1.8780265243	-0.8122336211	 0.142921
H	-0.3803616766	 2.0003884896	 0.8994531102	 0.129948
H	-1.3375713622	-0.1925292433	 1.7446096617	 0.1103
H	-1.0755060383	-2.5285797113	 0.2411710749	 0.301468
H	 1.2273695621	-0.7628291713	 1.9392958473	 0.104343
H	 1.993951214	-2.0516382652	-0.041648935	 0.24032
H	 1.5001423489	-0.3399479324	-1.4746790703	 0.125601
