17
gdb 33510	2.70889	1.18603	0.97944	4.957	72.98	-0.2523	-0.0011	0.2512	1236.0645	0.135512	-417.961381	-417.952745	-417.9518	-417.995573	31.241	
N	 0.2356015939	-1.1932854794	 0.3584441609	-0.329373
C	 0.077002669	-0.057231987	 0.2185252489	 0.271886
C	-0.1754605237	 1.3667163607	 0.0558588409	 0.270401
C	-1.5603509855	 1.7363883606	-0.4510502277	-0.336804
C	-1.8423286865	 1.1925181513	-1.8365277047	 0.028079
C	-2.5897019796	 2.0194918502	-2.8162114935	-0.24813
N	-1.1537591025	 1.7599282892	-3.0040512296	-0.303036
C	 0.622043487	 2.3039326559	 0.8728092222	-0.212406
O	 0.913573178	 2.1068523649	-0.5087264666	-0.246725
H	-2.3098476654	 1.3656193595	 0.2590628441	 0.128976
H	-1.6242967431	 2.8302236251	-0.4563319486	 0.111246
H	-1.9502592956	 0.1106321758	-1.8841610959	 0.117226
H	-3.2407389757	 1.5453263229	-3.5447872092	 0.125754
H	-2.9101002602	 3.0106277871	-2.502967324	 0.110091
H	-0.6016421063	 2.5663043882	-2.7217311515	 0.238413
H	 0.1827592768	 3.2658454586	 1.1319653742	 0.130343
H	 1.3630877194	 1.9151288663	 1.5674341599	 0.144057
