18
gdb 35936	2.3159	1.52359	1.29078	3.3812	76.74	-0.2521	0.0011	0.2533	1070.1772	0.149092	-401.960346	-401.952171	-401.951227	-401.99326	30.81	
N	 0.0768113396	-1.1566131539	-0.4087014347	-0.329945
C	 0.0448326626	-0.0181022916	-0.2139168084	 0.263506
C	-0.0064667851	 1.4448458312	 0.018902175	-0.014968
C	-0.8925699142	 1.7855399921	 1.2338753	-0.271504
C	-0.460739005	 1.2091897265	 2.5612105097	-0.056908
C	 0.7670857407	 1.2573965828	 3.0774654891	-0.050018
C	 1.9837145741	 1.8745987191	 2.4298680364	-0.255681
C	 2.2230364438	 1.475518594	 0.9719692745	-0.086735
O	 1.2798615327	 2.0231960458	 0.0523579057	-0.248942
H	-0.4780844806	 1.8859625316	-0.8671792703	 0.135126
H	-0.9227080072	 2.8823676443	 1.2867544082	 0.129227
H	-1.9106269294	 1.4570783679	 1.0004615036	 0.122546
H	-1.2474161998	 0.7438267926	 3.1487448472	 0.097892
H	 0.918109859	 0.8276698149	 4.0646257771	 0.095987
H	 1.9224701828	 2.9713896919	 2.4806556061	 0.122116
H	 2.8789996689	 1.5937826695	 2.9959372997	 0.109975
H	 3.1859959385	 1.8724185182	 0.6379428668	 0.114951
H	 2.2535358086	 0.3818565331	 0.8763597941	 0.123376
