17
gdb 63130	2.32562	1.59522	1.19836	5.3886	71.08	-0.2382	-0.0265	0.2117	1072.1828	0.133026	-458.920044	-458.911241	-458.910296	-458.953192	32.781	
C	-0.0324540247	 1.5771439184	 0.0861783358	-0.463494
C	 0.042365161	 0.070651624	 0.0307145277	 0.319309
O	-1.1298647432	-0.5637061542	-0.4105301322	-0.461839
C	 1.2840710802	-0.7192984449	-0.3035875394	-0.24702
C	 2.5117407517	-0.1155834131	 0.3634326212	-0.111445
O	 1.8397175125	-0.0457701748	 1.650471019	-0.303634
C	 0.7120081404	-0.7358995241	 1.1325002673	 0.330008
C	 0.0670634783	-1.8118414703	 1.9052602725	 0.060089
O	 0.4151921835	-2.1441071609	 3.0125912695	-0.269084
H	 0.8114467641	 1.9973084641	 0.6355132911	 0.149245
H	-0.0426566489	 2.0045553513	-0.9233042932	 0.113531
H	-0.9550864764	 1.8727852927	 0.5933694603	 0.138835
H	-1.202852539	-0.4304245542	-1.3624477314	 0.290924
H	 1.2704504365	-1.5168511217	-1.0351673529	 0.114307
H	 3.3613539658	-0.804569534	 0.4149056006	 0.126734
H	 2.8493030096	 0.8664444017	 0.0143688001	 0.11286
H	-0.7787849513	-2.2911566602	 1.3746058441	 0.100676
