14
gdb 19781	3.25634	2.59599	1.74211	3.9737	60.98	-0.2221	-0.0334	0.1887	738.3068	0.10927	-378.671129	-378.665153	-378.664209	-378.701117	23.69	
O	 0.0012366207	 0.0115147422	-0.0337746175	-0.319239
C	-0.0147025026	 1.2155259644	 0.0096802225	 0.473794
C	-1.2592016212	 2.0829748115	-0.0685228908	-0.176247
N	-1.382941139	 3.1235987297	 0.9881092009	-0.302115
C	-0.8156900767	 3.4838975746	-0.316626697	-0.043146
C	 0.7133484408	 3.5049673982	-0.3395623154	-0.043145
N	 1.3291822843	 3.1609704601	 0.9474266314	-0.302116
C	 1.2025231801	 2.1168962463	-0.1054493762	-0.176246
H	-2.1533742909	 1.6374678252	-0.4899707151	 0.107522
H	-2.3594083642	 3.4125451851	 1.0148485299	 0.239535
H	-1.3581051544	 4.1471920726	-0.9808980329	 0.097174
H	 1.2171206372	 4.1826774524	-1.019527577	 0.097174
H	 2.2976830842	 3.4767135508	 0.9449894264	 0.239535
H	 2.0955878417	 1.696015747	-0.5537066593	 0.107522
