19
gdb 92770	4.27875	1.07363	0.93224	1.5562	78.38	-0.2265	0.043	0.2695	1302.7629	0.160188	-419.204053	-419.195492	-419.194548	-419.238378	31.219	
C	-0.414262131	 1.403756787	-0.1500947676	-0.396295
C	 0.144835835	 0.0272610914	 0.1672102091	 0.108908
C	 1.021280701	-0.6045417896	-0.9545235209	-0.193656
N	 2.3346045724	-0.8270705172	-0.344412147	-0.339126
C	 2.2455592837	-0.3821656573	 0.8460383279	 0.455226
O	 1.0642066336	 0.1240136644	 1.2872388365	-0.26696
N	 3.2681843592	-0.2885442274	 1.7715366561	-0.136985
C	 3.2831147057	-1.1846042586	 2.928144273	-0.228428
C	 4.2707167086	-1.3380629161	 1.8181852039	-0.211458
H	 0.3899263173	 2.0840637582	-0.4474834033	 0.129998
H	-1.1304221899	 1.3344487718	-0.9757316752	 0.120214
H	-0.9278175842	 1.8301411001	 0.7160431076	 0.128194
H	-0.6616534077	-0.6452953782	 0.4798568114	 0.086902
H	 0.6057802549	-1.5491775988	-1.3224712281	 0.107876
H	 1.110491662	 0.0657666164	-1.8192889181	 0.106439
H	 3.5728664941	-0.7226197581	 3.8665977486	 0.128211
H	 2.4899065053	-1.9235692637	 3.000953644	 0.131058
H	 4.1406671712	-2.1689705475	 1.1317244808	 0.144163
H	 5.2914220888	-0.9928264069	 1.9492332213	 0.125717
