19
gdb 71125	2.85765	1.91534	1.62987	1.8985	73.14	-0.2291	0.0839	0.3129	914.2812	0.16121	-423.035023	-423.027902	-423.026958	-423.066147	29.368	
C	-0.06825638	 1.4814191706	 0.068799685	-0.448957
C	 0.0492231307	-0.0206719049	-0.051662017	 0.427109
C	 0.5912192005	-0.5816922128	-1.3893316448	-0.264173
C	 0.0773502051	-2.0080153855	-1.3238786162	-0.125322
C	 0.1672882496	-2.6116123887	 0.0710808603	-0.114481
C	 1.0012877311	-1.8847476481	 1.1093582232	-0.089036
O	 0.8753177426	-0.4629156751	 1.0115288822	-0.294357
C	-1.0967298657	-1.934291522	-0.3793878923	 0.096097
O	-1.2468033905	-0.6081280024	 0.0758020348	-0.275367
H	 0.9178548435	 1.9422747712	-0.0233024882	 0.126266
H	-0.7241035686	 1.8707561272	-0.7127947707	 0.122948
H	-0.4843332806	 1.7371783774	 1.0457083835	 0.135887
H	 0.1592695618	-0.0502728373	-2.243486541	 0.104726
H	 1.6794241614	-0.4888209972	-1.4275925023	 0.109671
H	 0.0805104331	-2.6439900417	-2.2003051776	 0.088826
H	 0.1672702809	-3.6940735688	 0.1504964456	 0.090663
H	 0.6860826347	-2.1804341287	 2.118876788	 0.109068
H	 2.0632440465	-2.1513763701	 1.0059901968	 0.099702
H	-2.039681226	-2.4498281632	-0.5083053594	 0.100728
