15
gdb 77788	2.78583	1.36173	1.08724	2.8179	72.44	-0.2571	-0.053	0.204	1099.7682	0.111401	-416.782755	-416.774626	-416.773682	-416.815599	29.922	
C	-0.1153689919	 1.5161866672	 0.0092064989	-0.333599
N	 0.1014987309	 0.0735375985	 0.1035746123	-0.11175
C	 1.3675063717	-0.5679313117	-0.200896131	-0.215268
C	 2.537466988	 0.2424823861	 0.3461278138	 0.419826
O	 3.5825773892	 0.5907129183	-0.1140327498	-0.287106
C	 1.9366061167	 0.284943955	 1.7757098287	-0.425833
C	 0.7649055441	-0.5531543967	 1.2177115319	 0.185745
C	 0.1279513367	-1.6305759583	 1.9156021071	 0.237745
N	-0.3667873932	-2.4901822569	 2.5099036727	-0.334111
H	 0.7173099572	 2.1409563341	 0.3544954359	 0.126792
H	-0.3113880193	 1.753554232	-1.0392640182	 0.14923
H	-1.0074401781	 1.7644897303	 0.5898605318	 0.147496
H	 1.3935958851	-1.3562689411	-0.9453099211	 0.138823
H	 2.5776350709	-0.2733463441	 2.4632357575	 0.160809
H	 1.6883828921	 1.2520371275	 2.2173471396	 0.141201
