23
gdb 95559	2.29813	1.44697	1.05463	0.3949	94.11	-0.2152	-0.0098	0.2053	1253.979	0.207845	-351.172389	-351.163647	-351.162703	-351.205235	34.961	
C	 0.1006725071	 1.6032358468	 0.0268182449	-0.399653
C	 0.0221158968	 0.0701172638	-0.0230448275	 0.03871
C	 0.6637847757	-0.4362552319	-1.3272864704	-0.180857
C	 0.7272548914	-1.971459594	-1.4569571445	-0.26964
C	-0.6152752655	-2.6228905565	-1.2885111652	-0.054435
C	-1.1425998594	-2.9799549347	-0.1105532208	-0.083254
C	-0.5065000488	-2.8670835355	 1.2047231368	-0.085082
C	 0.2669791931	-1.9036989393	 1.7280471944	-0.055888
C	 0.6624174141	-0.5280502695	 1.2464995842	-0.247007
H	 1.1415766278	 1.9426935843	 0.0958857382	 0.109913
H	-0.333405783	 2.0514939599	-0.8731567236	 0.108571
H	-0.4366464229	 2.0028434964	 0.8933425729	 0.10881
H	-1.036585201	-0.211666849	-0.0298785353	 0.08667
H	 0.1025840006	-0.0226417749	-2.1751213933	 0.090384
H	 1.6821332879	-0.0320998809	-1.4078327883	 0.087688
H	 1.1499756324	-2.2278727792	-2.4351074374	 0.091951
H	 1.4136427931	-2.3641202224	-0.6976922672	 0.111858
H	-1.2001009412	-2.7937156417	-2.1900537042	 0.083027
H	-2.1101531469	-3.479945834	-0.1122337843	 0.08319
H	-0.7027744213	-3.7182104875	 1.8575804765	 0.08402
H	 0.6521122799	-2.1073297878	 2.7276587791	 0.083595
H	 1.7603456749	-0.4892942858	 1.1563000517	 0.104061
H	 0.442867765	 0.1507740834	 2.0839736032	 0.103368
