19
gdb 57799	3.95929	0.62344	0.597	3.3997	81.87	-0.2476	-0.0181	0.2295	1940.2469	0.154554	-423.018445	-423.007218	-423.006274	-423.057962	37.999	
C	 0.9057597898	 0.0295108228	-0.4101939862	-0.383589
C	-0.1443845328	 0.2852473953	 0.6809377318	-0.008779
O	-0.7803563154	 1.5499594562	 0.5082799901	-0.417147
C	-1.1280293674	-0.800415615	 0.7460883478	 0.128821
C	-1.9730139204	-1.6575439382	 0.7346396428	 0.028641
C	-3.0073489389	-2.676240509	 0.7149121641	-0.489091
C	-4.0926816432	-2.4562808444	-0.3579124637	 0.392244
C	-5.2108305653	-3.4832831235	-0.352655871	-0.478282
O	-4.055723117	-1.5396784526	-1.1381610766	-0.269994
H	 1.6111185428	 0.8642030881	-0.4373061997	 0.123563
H	 1.4540571121	-0.8968792963	-0.2144814271	 0.120294
H	 0.4242832713	-0.0585156015	-1.3890941646	 0.121812
H	 0.3676168215	 0.3644844544	 1.6480293435	 0.113532
H	-1.4152905848	 1.4532494818	-0.2107085091	 0.288415
H	-2.5741764535	-3.6721711644	 0.5425216416	 0.150181
H	-3.5097296271	-2.7508426314	 1.6898342991	 0.149023
H	-5.7561216481	-3.4435998908	 0.5972746106	 0.143596
H	-5.8980652759	-3.282225692	-1.1747387411	 0.147427
H	-4.8071093176	-4.4974986795	-0.4458301424	 0.139332
