17
gdb 45570	3.23406	1.45958	1.28173	4.2379	67.59	-0.241	0.0598	0.3008	1008.8459	0.139839	-455.197986	-455.190695	-455.18975	-455.230006	28.129	
O	 0.0047741977	-0.0741749453	 0.1143325774	-0.403057
C	-0.0132379025	 1.1290900643	-0.0069375537	 0.428084
N	-1.1326919087	 1.9414709208	-0.1027802197	-0.33791
C	-0.8294169492	 3.349545157	 0.0538107185	-0.011525
C	-1.1585844249	 3.933912655	 1.4448848137	-0.097533
O	-0.0173367581	 3.6851611775	 2.2472458466	-0.232725
C	 1.094494235	 3.9645363617	 1.4142458308	-0.097533
C	 0.7436274027	 3.3709333459	 0.0324147379	-0.011527
N	 1.080695813	 1.9715680483	-0.1329008922	-0.33791
H	-2.0152110278	 1.5529187205	 0.1852424361	 0.252963
H	-1.274609741	 3.9470990438	-0.7474790493	 0.091964
H	-1.3490489796	 5.0169753128	 1.3594622579	 0.092181
H	-2.0228526841	 3.4612808921	 1.9183820298	 0.113711
H	 1.2530682496	 5.0523428801	 1.3240826686	 0.092181
H	 1.9838385021	 3.5157331469	 1.8638928245	 0.113711
H	 1.1504576279	 3.98008105	-0.7804570359	 0.091964
H	 1.980962218	 1.6072552784	 0.1308536589	 0.252963
