21
gdb 70595	2.09363	1.84162	1.42617	2.2014	77.28	-0.2297	0.0614	0.2911	1041.7189	0.182072	-424.232487	-424.223612	-424.222668	-424.26499	35.953	
C	-0.0230078079	 1.5718939463	-0.0423084912	-0.456604
C	 0.0670701078	 0.0496132723	-0.0146184531	 0.309353
O	-1.2534164815	-0.5226685957	 0.1043265781	-0.495096
C	 0.8136165205	-0.5810749597	-1.2099878143	-0.26623
C	 1.3168653839	-1.9559696908	-0.7057471146	-0.217915
C	 1.525524945	-1.7636636755	 0.7875810506	-0.111843
C	 2.2769062775	-0.5188557844	 1.236322474	-0.358777
C	 0.783980884	-0.5111657543	 1.212720565	 0.463352
O	 0.1188822422	-0.3687142918	 2.4243976734	-0.490374
H	 0.9720846505	 2.0233389241	-0.0890995717	 0.123107
H	-0.5874752874	 1.9195835961	-0.9166214502	 0.101382
H	-0.5209376834	 1.9318276316	 0.8623756249	 0.13096
H	-1.8433319414	-0.0370427736	-0.4804516311	 0.280613
H	 0.1560167213	-0.6661489904	-2.0797808199	 0.090899
H	 1.6523079417	 0.0582268693	-1.5042569876	 0.100627
H	 0.5499738126	-2.7206968927	-0.8679260873	 0.10724
H	 2.219597737	-2.2784355039	-1.2363216168	 0.092984
H	 1.5573402179	-2.627466444	 1.441439816	 0.085252
H	 2.7115569684	-0.5632392848	 2.2287893011	 0.121592
H	 2.8496862042	 0.0663916053	 0.5234122217	 0.104174
H	-0.7956046431	-0.6227589335	 2.2405321933	 0.285303
