14
gdb 19040	4.34083	2.24201	1.91263	3.9028	60.59	-0.2443	0.0032	0.2474	705.7755	0.110365	-378.704343	-378.698789	-378.697845	-378.733821	22.539	
O	-0.0113903265	-0.0077898131	 0.1153866292	-0.371071
C	-0.0204027222	 1.1946748224	-0.006132443	 0.409921
N	-1.1412567269	 2.0085605307	-0.1184022637	-0.307705
C	-0.7544009797	 3.3986696316	 0.0812437177	-0.059289
C	-0.0582858959	 3.5745889348	 1.4597556072	-0.156787
N	 1.2872849947	 3.2979501885	 0.8564538747	-0.149375
C	 0.6826741519	 3.4665498977	-0.5008951762	-0.031669
C	 1.162289459	 2.1289005043	-0.1022167207	-0.147769
H	-2.007953047	 1.658136922	 0.2670167187	 0.249349
H	-1.5195110645	 4.104168307	-0.2366587516	 0.096744
H	-0.0515197019	 4.6094726408	 1.8104257144	 0.122001
H	-0.3674691302	 2.9025488525	 2.2671513511	 0.112492
H	 1.0876667157	 4.1064784443	-1.275057254	 0.109827
H	 2.1233053535	 1.7321427465	-0.4000448739	 0.123331
