21
gdb 114348	3.14101	1.04303	1.02639	0.673	77.59	-0.2467	0.0718	0.3185	1281.3326	0.183552	-424.212525	-424.203631	-424.202687	-424.24644	34.203	
O	 0.0246006702	 1.3265724893	-0.1399904777	-0.426056
C	 0.0271688377	-0.0873555809	 0.0144585601	-0.098452
C	-1.4151045216	-0.5653233424	 0.0350653935	 0.06597
C	-2.2011175315	-0.2558139364	-1.266131978	-0.226541
C	-3.2373608068	-1.3699211765	-1.3983021481	-0.109812
C	-2.7567681556	-2.6954370003	-1.9450010748	 0.093281
O	-1.4840967936	-2.8205361353	-2.51246452	-0.412466
C	-2.8373248262	-2.5029989056	-0.4593921565	-0.082045
C	-1.5510684833	-2.0936506036	 0.2579017197	-0.261022
H	 0.9371525912	 1.625616073	-0.1866370098	 0.284489
H	 0.5582634563	-0.5787632738	-0.8178480246	 0.088037
H	 0.5337139743	-0.3829631027	 0.9478874675	 0.081504
H	-1.9228589749	-0.0511292234	 0.860817725	 0.077225
H	-2.6741410886	 0.727273229	-1.2254450162	 0.106026
H	-1.5184309378	-0.2429579917	-2.1248412235	 0.083482
H	-4.278372081	-1.10626118	-1.5514524981	 0.079244
H	-3.5109149678	-3.3416024322	-2.3949849871	 0.078308
H	-1.4970734594	-2.3873483523	-3.3725178537	 0.288463
H	-3.5798690811	-3.0747322161	 0.0857907432	 0.082588
H	-0.6902713778	-2.6240165016	-0.1640142022	 0.114135
H	-1.5985203429	-2.3426409867	 1.3216061112	 0.093641
