11
gdb 3154	4.65999	2.74027	1.97677	3.9226	47.31	-0.2787	-0.0192	0.2595	620.8066	0.078248	-380.379743	-380.373998	-380.373053	-380.409415	20.488	
O	-0.0188257567	 0.0598577769	 0.2541327125	-0.319862
C	 0.0248489906	 1.2243956099	 0.0374890058	 0.412152
O	-0.992784986	 2.0613428918	-0.3738173624	-0.246474
C	-0.1163924114	 3.2328566004	-0.4488780604	-0.154947
C	 1.0275648933	 2.3701271512	 0.0761244219	 0.228771
C	 2.1348295794	 2.6190471122	 1.0008086551	-0.245037
O	 2.3493447528	 2.3296517398	-0.3866464905	-0.238108
H	-0.0034473459	 3.5761152971	-1.4791476545	 0.143896
H	-0.4771942478	 4.0334605342	 0.1993395191	 0.135755
H	 2.3511101506	 3.6416120251	 1.304363785	 0.135101
H	 2.4355152213	 1.8349116814	 1.6922574384	 0.148753
