15
gdb 43453	2.91739	1.5758	1.11402	2.2384	68.74	-0.2638	-0.0073	0.2565	1045.5304	0.113892	-453.99691	-453.989506	-453.988562	-454.028922	28.426	
N	-0.1230524113	 1.3101199502	 0.0132719346	-0.552226
C	-0.0165652165	 0.0470122506	 0.0050143117	 0.334326
N	 1.0878707046	-0.7929649396	-0.0069253892	-0.439409
C	 0.7437431131	-2.1420129821	-0.0129049597	 0.474133
O	 1.4808846697	-3.0825046098	-0.0231426769	-0.374311
O	-0.6142192647	-2.2172614145	-0.0048635124	-0.271108
C	-1.1642470862	-0.906025375	 0.0064553337	 0.373877
C	-2.4296141375	-0.6551681293	 0.7709856386	-0.309612
C	-2.4390493381	-0.6460910273	-0.7391330187	-0.309612
H	 0.7811998842	 1.7803978596	 0.0104542795	 0.219965
H	 2.0523828419	-0.5046034058	-0.0112150503	 0.274743
H	-2.864814107	-1.5113621133	 1.2731566325	 0.140044
H	-2.4935428138	 0.2919341247	 1.2942574203	 0.149573
H	-2.509443421	 0.3072267136	-1.2501444869	 0.149573
H	-2.8805525374	-1.4962205221	-1.2460827668	 0.140044
