17
gdb 62205	5.42995	0.63757	0.60701	5.0411	76.73	-0.2457	0.0101	0.2558	1755.9175	0.133853	-417.960586	-417.950496	-417.949552	-417.996774	35.286	
O	-0.4667349682	 1.1123604998	-0.1959138673	-0.418466
C	 0.1451942225	-0.1768003144	-0.2423687618	-0.065126
C	 1.2857740272	-0.1855132741	-1.2957305925	-0.169011
N	 0.8926993124	 0.3026661662	-2.6076765023	-0.282262
C	 0.0449723961	-0.6120373083	-3.3655397719	-0.278773
C	-0.2243875032	-0.0802126417	-4.7056288568	 0.264765
N	-0.4584281023	 0.3411121412	-5.7550667952	-0.297397
C	 0.6375906724	-0.6090121573	 1.0628099777	 0.286918
C	 1.0988639419	-0.9248285486	 2.1273468617	-0.42831
H	 0.0847809793	 1.6776917012	 0.3570872746	 0.29114
H	-0.6541557688	-0.8538792696	-0.567772484	 0.120774
H	 2.0947620278	 0.4521441735	-0.9204213513	 0.114173
H	 1.6925206756	-1.1988133944	-1.3882787045	 0.119219
H	 0.4171883764	 1.193247724	-2.4948265287	 0.239347
H	 0.5732787571	-1.5670210113	-3.477026004	 0.156692
H	-0.9297566534	-0.8437190978	-2.9020400872	 0.138486
H	 1.4833557671	-1.2179970883	 3.0734174534	 0.207831
