17
gdb 31748	4.28324	0.95837	0.81894	1.4527	72.17	-0.2088	0.0061	0.2148	1397.2768	0.136373	-455.156095	-455.147013	-455.146068	-455.19107	31.756	
C	 0.0694409173	 1.3661296539	 0.2124463573	-0.235802
O	 0.0373574921	-0.0518124931	 0.0659491504	-0.272587
C	-1.1785574331	-0.6107470163	-0.0217829261	 0.34775
C	-1.4569598924	-1.9288489034	-0.1995775265	-0.176185
O	-2.8296339183	-2.0425147009	-0.2232932473	-0.180966
C	-3.2910767511	-0.7853308563	-0.0670006361	 0.430845
C	-4.7703817811	-0.5960225277	-0.036118863	-0.264614
N	-5.3888200207	-1.1481630302	-1.2483171291	-0.510546
N	-2.3560108988	 0.1083543724	 0.0593928443	-0.393706
H	 1.1263181951	 1.6330514246	 0.2555399199	 0.128871
H	-0.4086190126	 1.8635724907	-0.6372066432	 0.134706
H	-0.4345422676	 1.6819865691	 1.1312081404	 0.133088
H	-0.8798787479	-2.8260983509	-0.3207225139	 0.144283
H	-5.1587208006	-1.0288676383	 0.9033003398	 0.105132
H	-4.9524048528	 0.4807532024	 0.003973329	 0.139778
H	-5.2038037634	-2.1460101001	-1.2918394837	 0.238205
H	-6.3973058041	-1.0469865758	-1.1845052422	 0.231747
