14
gdb 128885	6.59806	1.05652	0.9214	7.4706	77.6	-0.2582	-0.0246	0.2336	1188.1742	0.103923	-395.730164	-395.723189	-395.722245	-395.761896	25.736	
N	 0.0680783625	-1.1398674776	-0.3373046574	-0.342229
C	 0.0090292807	 0.0024401336	-0.1596162771	 0.23563
C	-0.011292214	 1.4071436704	 0.0612846304	 0.251162
N	-1.1904542099	 2.073724892	 0.1244080396	-0.340069
N	-0.7672994519	 3.3116153247	 0.3353652785	 0.088569
C	-1.1448012921	 4.71963958	 0.5429279512	-0.168784
C	 0.4142419996	 4.9869784071	 0.6401327013	-0.375751
C	 0.5618848837	 3.4874656171	 0.4096685229	 0.40398
C	 1.1341650065	 2.2455082552	 0.2342301448	-0.476562
H	-1.6520706825	 5.1678661168	-0.3137962652	 0.149821
H	-1.7162868183	 4.8905394884	 1.4574302038	 0.149831
H	 0.8126365968	 5.6295571213	-0.1470757955	 0.144485
H	 0.749492856	 5.3514121506	 1.6128841693	 0.144457
H	 2.1661117131	 1.9406037903	 0.2225510335	 0.135461
