20
gdb 66638	3.25824	1.84183	1.68334	1.5229	80.75	-0.2319	0.0994	0.3313	912.9197	0.174389	-365.992966	-365.986379	-365.985435	-366.023433	28.401	
C	-0.0520192029	 1.5036565153	-0.0251511362	-0.517925
C	 0.0499855748	 0.0113076303	 0.019150658	 0.368029
C	 0.4449236229	-1.0046489059	-0.9830880435	-0.110953
C	 0.9177330626	-1.9912025948	 0.0941399873	-0.062848
C	-0.2246169358	-3.0184352678	 0.1059425564	-0.21145
C	-1.3140288323	-1.9602696854	 0.3701647906	 0.001766
C	-0.8586159473	-1.3936016559	 1.72826055	-0.220302
C	 0.4897732403	-0.8974230674	 1.1857248105	-0.115022
N	-0.9913242382	-0.8473491116	-0.6129170667	-0.168976
H	 0.9277007751	 1.9702782079	 0.1258156489	 0.116249
H	-0.4445331182	 1.8278757053	-0.9930734326	 0.132348
H	-0.7268888055	 1.877965817	 0.7534241537	 0.119911
H	 0.7388323396	-0.926227428	-2.0249569637	 0.082733
H	 1.9490035679	-2.3378353067	 0.0907357813	 0.066824
H	-0.33449682	-3.5244372882	-0.8579907737	 0.099784
H	-0.1649046265	-3.7681760644	 0.9007872479	 0.093032
H	-2.3537619911	-2.2696009226	 0.2726164065	 0.06935
H	-1.4859618867	-0.5732439892	 2.0908035568	 0.099082
H	-0.791375362	-2.1607378216	 2.5056709332	 0.092827
H	 1.2484868433	-0.5428067863	 1.8809929451	 0.065541
