14
gdb 11182	3.71633	1.59265	1.43818	1.685	62.53	-0.2487	-0.0298	0.2189	889.7967	0.10589	-382.520362	-382.513066	-382.512122	-382.552295	26.911	
O	-0.017254936	 0.0495163951	-0.3170650386	-0.292257
C	-0.0169747676	 1.2245189208	-0.0720964567	 0.378507
C	-1.2441417037	 2.1019573079	 0.192838959	-0.184091
O	-0.7434157436	 3.3593099027	 0.6101833533	-0.244306
C	 0.550043326	 3.5498903735	 0.009137951	-0.093313
C	 1.1971795394	 2.1517974003	 0.0348345668	-0.34276
C	 0.441171207	 4.0898473266	-1.34976484	 0.352171
C	 0.343414749	 4.5154887315	-2.4693981309	-0.47436
H	-1.8381901865	 2.1761303835	-0.7311591358	 0.133718
H	-1.8766703002	 1.6859174694	 0.9815880617	 0.142602
H	 1.0747969229	 4.2655722676	 0.6474412247	 0.123333
H	 1.6827054024	 1.9754202597	 1.0009285963	 0.143119
H	 1.9185639173	 1.9630802592	-0.7600077064	 0.149268
H	 0.2583161336	 4.9029611722	-3.4549495642	 0.208368
