25
gdb 95164	2.45868	1.36286	1.03064	0.2013	92.33	-0.2509	0.0805	0.3314	1305.8413	0.230617	-352.375231	-352.366072	-352.365128	-352.408393	36.999	
C	-0.0160367258	 1.5675496614	 0.0045566747	-0.403407
C	 0.0026139875	 0.036842447	-0.0346306268	 0.054936
C	 0.682852024	-0.501705046	-1.3003095252	-0.199795
C	 0.5038594472	-2.021682539	-1.417912553	-0.233383
C	 0.8692949944	-2.7688922878	-0.1470206779	-0.038391
C	 2.1935351012	-2.5511578647	 0.5440743863	-0.328999
C	 0.9171575193	-2.0568396379	 1.1924310723	 0.358071
C	 0.418308812	-2.8049118639	 2.413905239	-0.470274
C	 0.6744306189	-0.5406010806	 1.2255032016	-0.280922
H	 1.0031631212	 1.9722349248	-0.0090849031	 0.110403
H	-0.5489715813	 1.9813531888	-0.8582329685	 0.107368
H	-0.5063394124	 1.9385603167	 0.9113179312	 0.108094
H	-1.0396118897	-0.3167591409	-0.0508743241	 0.065751
H	 0.264867573	-0.0167602536	-2.1902246036	 0.088027
H	 1.7494445851	-0.2369190082	-1.2812913991	 0.091282
H	-0.5502482287	-2.2264779726	-1.6500606654	 0.093208
H	 1.0852184218	-2.4105457855	-2.2637677992	 0.091424
H	 0.4974910968	-3.7906391161	-0.1168160132	 0.072251
H	 2.6928892627	-3.4125029859	 0.9767321663	 0.099288
H	 2.8725923671	-1.8089378165	 0.1346116453	 0.101729
H	 0.6328510351	-3.8763528576	 2.3426557489	 0.10839
H	 0.8943033335	-2.4310524803	 3.3287921027	 0.111985
H	-0.6656725846	-2.6891949227	 2.5355845131	 0.110753
H	 1.6275739161	-0.0175308436	 1.3857451088	 0.092077
H	 0.0534005857	-0.2988227754	 2.0961045487	 0.090133
