16
gdb 34811	4.26129	1.30568	1.23501	5.1394	71.86	-0.2687	0.0246	0.2934	1018.5718	0.126441	-400.702058	-400.695424	-400.69448	-400.733001	26.867	
N	 0.0386786045	-1.1964813159	 0.0148006749	-0.322201
C	 0.0134832829	-0.0410562792	 0.0120062167	 0.279088
C	-0.0667197088	 1.4082588813	-0.0420642015	-0.187772
C	-0.0760962749	 2.0878080301	 1.3617043744	 0.06215
O	 1.361367075	 1.7946223786	 1.437153282	-0.292203
C	 1.3230484262	 2.1145681299	 0.003934698	 0.062159
C	 1.0148243131	 3.6230973538	 0.0232031152	-0.049183
C	-0.3711001489	 4.1190090012	-0.3022967123	-0.306588
C	-0.0773631838	 3.6022086249	 1.0830918275	-0.049183
H	-0.800851733	 1.7005638816	-0.7928044001	 0.118403
H	-0.6531938537	 1.6945053555	 2.1959411813	 0.106546
H	 2.1817044151	 1.7487206828	-0.5551241156	 0.10655
H	 1.8502001402	 4.3107251394	 0.0585947468	 0.112028
H	-0.4669795662	 5.1980030604	-0.3798329896	 0.123402
H	-1.0248720707	 3.5914688104	-0.9863895051	 0.124776
H	-0.080445707	 4.2738007654	 1.9321453374	 0.112027
