16
gdb 26049	3.38057	1.20516	0.91677	0.8629	77.14	-0.2065	0.0158	0.2223	1220.3812	0.124401	-400.740606	-400.732169	-400.731225	-400.774105	31.838	
O	-0.9179730426	 0.5554954093	 0.089805538	-0.418228
C	 0.0821580294	-0.4503787381	-0.1282217131	-0.207557
C	 0.9435536209	-0.1354149919	-1.2712485894	 0.333164
C	 1.6346641036	 0.1537597604	-2.2105028913	-0.448967
C	 0.8786621423	-0.6984300304	 1.12311086	 0.306404
C	 2.2095918591	-0.9646132193	 1.3561903304	-0.235529
C	 2.3648988415	-1.1658374659	 2.7560311953	-0.148835
C	 1.125436059	-1.012217885	 3.3339410271	-0.091249
N	 0.2294705684	-0.7401686428	 2.3337062818	-0.288576
H	-0.4502446527	 1.3851188278	 0.2457926809	 0.28583
H	-0.5122031355	-1.3405370547	-0.3782411357	 0.130475
H	 2.2437747781	 0.402866078	-3.0443785153	 0.202659
H	 2.9770039829	-1.0145321793	 0.599958314	 0.103362
H	 3.2820219072	-1.3926018409	 3.2774938353	 0.094997
H	 0.8104031709	-1.0638184985	 4.3638630679	 0.117187
H	-0.7421027327	-0.5052118285	 2.4465675942	 0.264862
