21
gdb 108468	2.14975	1.55347	1.21981	2.3896	78.16	-0.2353	0.0602	0.2956	1141.7689	0.181693	-424.192044	-424.182845	-424.1819	-424.226134	34.617	
C	-0.6627153675	 1.3288496538	 0.1127027588	-0.412753
C	 0.0385615133	-0.0073322351	 0.0003209038	 0.128268
O	 1.1767396043	 0.0091894974	-0.9073833248	-0.321034
C	 2.0240252276	-0.6420252571	 0.0585492099	 0.054615
C	 2.8979904692	 0.3524980662	 0.8539787181	-0.230477
C	 1.7655272484	 0.4732224168	 1.9220788453	-0.288442
C	 0.912789923	-0.5738626456	 1.146724398	 0.315515
C	 0.3671696634	-1.7485725029	 1.9132427221	-0.203479
O	-0.6910884578	-1.2595618813	 2.730844219	-0.425127
H	 0.026873482	 2.1253062729	 0.4045862628	 0.119249
H	-1.1035179899	 1.6024500812	-0.85127691	 0.122649
H	-1.4647721906	 1.264911926	 0.8551293904	 0.129824
H	-0.6839499129	-0.7681249598	-0.333344428	 0.068129
H	 2.4754225827	-1.5603367427	-0.3306508472	 0.067205
H	 3.8204509446	-0.0869072864	 1.243973608	 0.097464
H	 3.144101724	 1.2576259719	 0.294853688	 0.109309
H	 2.0595490122	 0.11767885	 2.9125575226	 0.103895
H	 1.3161306584	 1.4601530218	 2.0434951122	 0.105791
H	 0.0051832029	-2.5179696372	 1.2113701931	 0.086497
H	 1.1630016456	-2.2066982257	 2.5232680132	 0.083395
H	-1.0576226228	-1.9978350045	 3.2265270448	 0.289504
