19
gdb 89510	2.548	1.54788	1.16365	1.9459	78.47	-0.2277	0.0123	0.24	1103.6038	0.15896	-423.001057	-422.992592	-422.991647	-423.033791	33.15	
O	-0.2233615749	 1.4399460942	-0.0655861242	-0.426071
C	-0.0073044022	 0.0546246753	-0.0236209239	 0.028352
C	 0.2930954946	-0.6546519826	 1.3644953348	-0.336867
C	-0.6929065416	-1.7973358064	 0.9275992911	 0.356924
O	-0.0101584542	-2.8618933693	 0.2726827456	-0.495763
C	-1.9373807806	-2.2519179538	 1.7236729685	-0.286896
C	-3.1355214705	-1.8724817065	 0.7930890591	-0.245915
C	-2.569348915	-0.7551218365	-0.0800617791	-0.221091
C	-1.2433399141	-0.7988786404	-0.0553981488	 0.270742
H	 0.6247447418	 1.875545853	-0.1926877149	 0.285629
H	 0.7359902948	-0.2663980747	-0.7658683372	 0.090056
H	 1.3296239637	-0.946531255	 1.5584402148	 0.086549
H	-0.0995913434	-0.0487331166	 2.1840664739	 0.10936
H	 0.4879365093	-3.3408729655	 0.9439831906	 0.274353
H	-1.9021822129	-3.3193882174	 1.9599867075	 0.091187
H	-2.018738111	-1.7000179657	 2.6656721607	 0.10004
H	-3.4782400876	-2.7288717247	 0.1974822665	 0.113907
H	-4.0029222272	-1.5294876527	 1.3672825473	 0.103076
H	-3.1880839491	-0.0008315047	-0.5517282522	 0.102427
