16
gdb 23486	4.10845	1.32106	1.17197	1.9815	71.27	-0.2315	0.0011	0.2326	1038.2931	0.125254	-437.803262	-437.796366	-437.795422	-437.834545	27.758	
O	-0.1094955768	 1.3109529446	-0.1028039409	-0.388549
N	 0.016250941	-0.086314326	-0.0377920257	-0.258001
C	-1.1221456399	-0.6463369562	 0.0305173065	 0.478763
C	-2.5126270387	-0.038255575	 0.0838950191	-0.324772
C	-3.3846265327	-1.2256290709	 0.4871363571	-0.103277
C	-3.247208593	-2.5112374623	-0.3082259684	 0.103809
O	-2.0608931022	-2.4973467302	-1.1029003432	-0.303472
C	-1.2846430652	-2.1356202184	 0.0977063945	-0.024548
C	-2.5239195177	-2.3737087044	 0.994979809	-0.156653
H	 0.8097393891	 1.5979088855	-0.1277250432	 0.308426
H	-2.5491187841	 0.7620388299	 0.8301038756	 0.130884
H	-2.7879269326	 0.4051736434	-0.8785742425	 0.135641
H	-4.3432309784	-1.0537195356	 0.9633859655	 0.095303
H	-4.0711121306	-3.133847291	-0.636297266	 0.107801
H	-0.3805076936	-2.7315198344	 0.2033549658	 0.094673
H	-2.5880351144	-2.886001599	 1.9440903967	 0.103971
