23
gdb 94679	2.34933	1.58347	1.1606	1.1418	85.1	-0.2478	0.0795	0.3273	1172.6303	0.20549	-388.304176	-388.294777	-388.293833	-388.337317	37.387	
C	-0.0255701439	 1.5574334001	-0.0067243961	-0.403809
C	 0.0393428775	 0.0291346795	 0.0148684503	-0.012797
C	 0.781132539	-0.5797963646	-1.201406639	-0.241573
C	 1.2939015053	-1.9545753696	-0.72626099	-0.279475
C	 1.5200207403	-1.7755734633	 0.7679624103	 0.368806
O	 1.551367994	-2.9217493419	 1.5677767397	-0.47674
C	 2.263063156	-0.5403327112	 1.2202552074	-0.41229
C	 0.7382523545	-0.573884772	 1.237257981	 0.314841
C	 0.0225116626	-0.558019203	 2.5658790432	-0.484033
H	 0.9795204624	 1.9922028688	 0.0342461144	 0.112192
H	-0.5095107522	 1.9189005772	-0.9206284515	 0.109105
H	-0.5926903293	 1.9478124926	 0.8446645762	 0.113194
H	-0.9899985233	-0.3588934785	 0.0200866804	 0.067726
H	 0.1366587287	-0.6521798981	-2.0818663566	 0.09665
H	 1.6228191093	 0.0630687185	-1.4834686756	 0.098752
H	 0.5294211248	-2.7293306856	-0.8585387611	 0.104906
H	 2.1894308748	-2.2815306188	-1.2680995362	 0.085508
H	 2.4317533308	-3.3067422562	 1.503735836	 0.28077
H	 2.7417490227	-0.6101654404	 2.1917308896	 0.105795
H	 2.7968235167	 0.0741559965	 0.5016254359	 0.102584
H	-0.0371260176	 0.4548403464	 2.9801477911	 0.111854
H	-1.0015520321	-0.9364116927	 2.4636244076	 0.1121
H	 0.5384002892	-1.1934896537	 3.2903465129	 0.125932
