15
gdb 115143	2.94527	1.2553	0.96476	2.5589	62.53	-0.2454	-0.1105	0.135	1166.1638	0.110804	-494.907311	-494.898797	-494.897853	-494.941513	30.065	
O	-0.0203379943	 1.4030839184	-0.1730393524	-0.413186
C	 0.038738011	 0.001080028	-0.0797948467	-0.059344
C	-1.3559317113	-0.5780802991	 0.2106248957	-0.041757
O	-2.2817305731	-0.1318226274	-0.7966356588	-0.287487
C	-2.5627979523	-1.1590872145	-1.7466824201	-0.202992
C	-2.1817241804	-2.47612795	-1.0972377978	 0.297786
O	-2.4129879925	-3.5919623891	-1.4695247353	-0.261925
C	-1.3815474224	-2.090510141	 0.1775102973	 0.288252
O	-0.8627507971	-2.8618437969	 0.9370470701	-0.27446
H	-0.734716276	 1.6054300497	-0.7899173505	 0.293525
H	 0.4429913368	-0.4536838899	-0.9998138454	 0.090562
H	 0.7125524075	-0.2552530635	 0.7429917835	 0.137168
H	-1.7081859359	-0.1961845858	 1.1745810482	 0.135551
H	-3.6268621006	-1.1312225616	-2.0009380254	 0.156963
H	-1.9872941592	-1.0231296972	-2.6752949124	 0.141343
