18
gdb 65399	3.91573	1.06665	0.95165	1.8789	74.	-0.254	-0.0484	0.2056	1249.6771	0.145684	-439.044595	-439.035614	-439.03467	-439.078376	32.689	
C	 0.0965318822	 1.6967048159	 0.2900733866	-0.476224
C	-0.0480754399	 0.2063125848	 0.0945056462	 0.356806
O	 0.8465025567	-0.4006086325	-0.830292246	-0.264609
C	 1.0122940771	-0.7518165666	 0.5456089947	-0.104429
C	 2.2581710472	-0.3046099506	 1.2395991526	 0.141887
O	 3.0017559835	 0.5589767654	 0.8486750076	-0.248327
C	-1.4618490399	-0.3092099287	 0.0246836233	-0.064385
C	-2.1548020626	-0.3475653359	-1.2879854197	-0.23472
N	-1.7489733753	-1.5951521121	-0.614261998	-0.325678
H	 1.1467978908	 1.9857692419	 0.3271433377	 0.166767
H	-0.3854667465	 2.2205480303	-0.5413059288	 0.135046
H	-0.3989291574	 2.0102649889	 1.2148477589	 0.125934
H	 0.6884213773	-1.7603571303	 0.8064970952	 0.112159
H	 2.4454246567	-0.8459331744	 2.1942242934	 0.085922
H	-2.0493318652	-0.1086184529	 0.9184744821	 0.100604
H	-3.225573471	-0.1756249153	-1.3422485859	 0.122999
H	-1.5906223716	-0.0349162868	-2.1624886764	 0.126259
H	-0.8933182621	-1.9231499612	-1.0617663535	 0.243989
