19
gdb 36294	3.53058	1.08186	1.03513	0.9517	85.55	-0.2301	0.0171	0.2472	1236.8359	0.159586	-348.716396	-348.708216	-348.707272	-348.749517	32.051	
C	 0.0233549563	-1.1300523958	 0.347581768	-0.452977
C	-0.0016266675	 0.0390350428	 0.06896423	 0.305681
C	-0.0080464496	 1.4588406396	-0.2700316596	-0.382009
C	 1.3663870222	 2.0972321245	-0.1313272592	-0.000657
C	 1.5922162168	 3.5877152745	-0.0804676115	-0.091316
C	 0.4305491752	 4.5180426624	 0.280416463	-0.270887
C	 0.0640263005	 4.1086041785	 1.6922884384	-0.078368
C	 0.8737572996	 3.1555811515	 2.1623721822	-0.070202
C	 1.8838723807	 2.7325408243	 1.1519925146	-0.085525
H	 0.0354332719	-2.1621980918	 0.5954138143	 0.191397
H	-0.3610598435	 1.5838717229	-1.3026530482	 0.126423
H	-0.7306579245	 1.9794499094	 0.3674604206	 0.135357
H	 2.1325930509	 1.558169852	-0.6823213945	 0.095359
H	 2.3994039897	 3.9886973102	-0.682524604	 0.084853
H	 0.7385500948	 5.570833201	 0.2343153769	 0.107722
H	-0.4191529505	 4.4221454403	-0.4095762046	 0.108868
H	-0.7778095594	 4.5381639039	 2.223952054	 0.09396
H	 0.8076173988	 2.7058940557	 3.1465664627	 0.097079
H	 2.8915919175	 2.4868197843	 1.4691673669	 0.085242
