18
gdb 100490	4.48076	0.59396	0.54309	4.0368	82.22	-0.2607	0.0148	0.2756	1997.0131	0.144495	-401.918841	-401.908174	-401.90723	-401.957277	35.839	
C	 0.1275697449	 1.2704369291	 0.3560387106	-0.232264
O	 0.0129209263	-0.1075890912	 0.0761017511	-0.242209
C	 0.5477727996	-0.4902405789	-1.1857374404	-0.040799
C	 2.0811225653	-0.6021211445	-1.1610852464	-0.393245
C	-0.0632656698	-1.7682858467	-1.5573936598	 0.079164
C	-0.5361814861	-2.8250001377	-1.8793903705	 0.120127
C	-1.1300998019	-4.1044709427	-2.257883679	-0.476648
C	-0.132021222	-5.1206615052	-2.6188927281	 0.279993
N	 0.6422252712	-5.9268777265	-2.907722707	-0.300348
H	 1.1710787416	 1.5963195487	 0.4725384965	 0.110297
H	-0.3413435858	 1.8843174676	-0.428930097	 0.107045
H	-0.39605965	 1.4448326257	 1.2987403416	 0.133647
H	 0.2595533389	 0.2615715986	-1.9408198959	 0.094582
H	 2.5342937283	 0.3640305496	-0.9237901409	 0.120247
H	 2.3876736503	-1.3328607008	-0.408948768	 0.139765
H	 2.4534576009	-0.9243487933	-2.137174482	 0.132665
H	-1.7380854971	-4.4989500024	-1.4334977585	 0.186247
H	-1.8129652046	-3.9787702393	-3.1080415764	 0.181735
