18
gdb 37426	2.90308	2.12435	1.75664	2.8049	73.1	-0.2331	0.0592	0.2924	844.3422	0.151338	-401.887028	-401.881064	-401.880119	-401.916995	26.045	
C	-0.012252582	 1.5557792426	 0.0163266728	-0.24121
C	 1.5350450624	 1.5360242615	 0.0074453092	 0.111127
O	 2.1213619112	 1.3979067639	 1.3206341592	-0.293464
C	 2.0868659748	-0.050459883	 1.2541609868	 0.106591
C	 1.0208246245	-0.715172089	 2.1303088642	-0.057984
N	-0.0774683775	 0.1763234671	 2.5506962145	-0.312379
C	-0.2665244171	-0.696718646	 1.3779239929	-0.051081
C	-0.0319160213	-0.0139816441	 0.026962797	-0.050317
C	 1.5200671563	 0.003141723	-0.1875724919	-0.108
H	-0.4724287537	 2.0519426677	 0.8708249401	 0.127711
H	-0.4144667744	 1.9582443595	-0.9180986104	 0.091962
H	 2.0735201065	 2.2651453216	-0.6015697256	 0.072336
H	 3.0834995475	-0.4755821743	 1.4113470961	 0.071027
H	 1.3049085052	-1.5395190176	 2.7765387193	 0.082914
H	-0.5432828146	-0.2333122369	 3.3575819224	 0.230746
H	-0.9782634564	-1.5136970396	 1.4446645642	 0.082601
H	-0.6312236305	-0.4675534234	-0.7634503039	 0.067763
H	 1.9874245891	-0.5516462831	-0.999320517	 0.069656
