17
gdb 81832	2.26087	1.67284	1.19508	3.9663	72.86	-0.228	0.0089	0.2369	1063.5398	0.134881	-417.961076	-417.952479	-417.951535	-417.994045	32.327	
C	-0.2464936656	 1.4949076332	-0.0559910081	-0.333591
N	 0.0638880629	 0.0726499009	-0.0773108157	-0.086107
C	 0.699762613	-0.4965938577	-1.2646028241	-0.09795
C	 2.1497243851	-0.0723347688	-1.4327979801	-0.335702
C	 1.8022473636	-1.1211285083	-0.4255910387	 0.383501
O	 2.4060318644	-2.3523851836	-0.4366820703	-0.450531
C	 1.142289918	-0.470903565	 0.8125214727	-0.200159
C	 1.9538758485	 0.4885976451	 1.5584509911	 0.28368
N	 2.5852242999	 1.2673879739	 2.1350445257	-0.33567
H	 0.609002377	 2.1524154685	-0.2745867741	 0.118859
H	-1.025380063	 1.6843079039	-0.8006955812	 0.128124
H	-0.6432780864	 1.7673570107	 0.9260618957	 0.135735
H	 0.1006349052	-0.8979738202	-2.0739526648	 0.108296
H	 2.6309204606	-0.4795327821	-2.3164046378	 0.132009
H	 2.5004305264	 0.9110452185	-1.1330994824	 0.133482
H	 1.7639135967	-3.0196365642	-0.16730923	 0.293226
H	 0.7283438338	-1.2036318248	 1.516111942	 0.122799
