13
gdb 130236	3.12595	1.52085	1.02432	3.618	66.94	-0.226	-0.066	0.1601	1060.6992	0.090233	-486.055256	-486.047716	-486.046772	-486.08744	28.577	
N	 0.0956599987	 1.401225286	 0.0837410981	-0.548706
C	-0.0161660367	 0.0358785203	-0.0362825862	 0.458516
N	-1.204819783	-0.4760167115	-0.1017688175	-0.199435
O	-1.2443319469	-1.8732762622	-0.3465644896	-0.278092
C	-0.1243480284	-2.6348947302	-0.4596582279	 0.357389
N	-0.1489671787	-3.8821234611	-0.6841560918	-0.508195
C	 1.1426034874	-1.8935355363	-0.2966644377	 0.387313
O	 2.2453750496	-2.6231827679	-0.3607539651	-0.358495
N	 1.2015892024	-0.6260760925	-0.1025759644	-0.390452
H	 0.9303134493	 1.7109341628	 0.5571358817	 0.264125
H	-0.7527066034	 1.8764475117	 0.3530099802	 0.268217
H	-1.1134821926	-4.2101827593	-0.7655774736	 0.236279
H	 2.9916222524	-2.0146975799	-0.2439619962	 0.311536
