21
gdb 108212	3.0319	1.39514	1.28283	2.5235	76.89	-0.2437	0.0767	0.3204	1087.9101	0.18527	-424.240785	-424.232917	-424.231973	-424.272935	31.818	
O	-0.0080372778	 1.3940384188	-0.1330707101	-0.424515
C	 0.001292268	-0.0158305558	 0.0057054387	-0.141414
C	-1.4029099558	-0.5715993479	 0.1239645188	 0.398127
C	-2.2516387911	-0.0942567081	 1.3229742414	-0.231588
C	-3.4662659456	-1.0765750586	 1.2797115272	-0.222075
C	-3.1507556488	-1.9523131001	 0.0434530897	-0.043282
C	-3.2439910524	-1.05630766	-1.201289299	-0.072082
O	-2.1095435707	-0.1789743858	-1.0799559395	-0.330125
C	-1.6160315645	-2.0935573029	 0.1460225727	-0.276963
H	-0.6138954837	 1.581102519	-0.8600151736	 0.29255
H	 0.5071263834	-0.4990771671	-0.8450740817	 0.086444
H	 0.5731040472	-0.2421354027	 0.9117768637	 0.103498
H	-1.6922859747	-0.1748793275	 2.2601630753	 0.096624
H	-2.5354894892	 0.950999022	 1.1936462699	 0.110925
H	-3.5164172485	-1.6890925933	 2.1847505784	 0.097488
H	-4.425750868	-0.5605352114	 1.1818483394	 0.098382
H	-3.7299476576	-2.8738780901	-0.0299768566	 0.066957
H	-3.1650201104	-1.6264425613	-2.1367679604	 0.095143
H	-4.1688615827	-0.466964134	-1.2329665662	 0.096771
H	-1.1572496064	-2.5969853223	-0.7092481926	 0.100561
H	-1.2861706406	-2.5666284507	 1.0748379844	 0.098575
