15
gdb 71510	3.18705	1.56598	1.41473	2.5552	64.44	-0.2519	-0.0111	0.2408	938.3761	0.112274	-457.737894	-457.730996	-457.730052	-457.769115	27.103	
C	 0.058096097	 1.4872573557	-0.1245502421	-0.530427
C	 0.0015589799	 0.0020463006	 0.0090048564	 0.421146
O	 0.6052114964	-0.8434644412	-1.0348297777	-0.34409
C	 0.0441256243	-1.8030021811	-0.085362817	 0.045578
C	 0.5594800936	-0.9576829701	 1.1047580623	 0.018039
O	-0.3445977632	-1.032771526	 2.2044144923	-0.240785
C	-1.5835583113	-1.0335779249	 1.5890329872	 0.452998
O	-2.6175071448	-1.0812863332	 2.1796733636	-0.332451
C	-1.2505825873	-0.9543563982	 0.1162734114	-0.275235
H	 1.0976784553	 1.8178010089	-0.2075306439	 0.145565
H	-0.4848752552	 1.8163446333	-1.0150359447	 0.145908
H	-0.3906805315	 1.9606538575	 0.7539871709	 0.147344
H	 0.1392853849	-2.8658926099	-0.3011307708	 0.11545
H	 1.6000731616	-0.9516529053	 1.416591675	 0.119476
H	-2.0505542897	-0.9377032861	-0.6174515529	 0.111483
