20
gdb 19968	3.60878	1.50594	1.18652	1.7316	75.22	-0.2389	0.0838	0.3227	1073.3296	0.177096	-348.974566	-348.966257	-348.965312	-349.008	30.719	
C	-0.3071290545	 1.5046766888	 0.0113290141	-0.404977
C	-0.0079895851	 0.0109474733	 0.0102510998	-0.052044
C	 1.235677778	-0.4269456954	-0.7932782853	-0.076867
O	 1.9516522932	-0.7752205315	 0.407445488	-0.295656
C	 0.7710025551	-0.577937301	 1.2260373775	 0.134221
C	 1.0308798462	 0.2526913087	 2.4449904156	 0.021543
C	 0.106565376	 0.1291929493	 3.635387764	-0.272402
C	 1.5062022841	-0.4182991669	 3.7108408039	-0.272123
H	 0.5966292377	 2.096047783	 0.1902176394	 0.122277
H	-0.7162212621	 1.8130014409	-0.9568801813	 0.114094
H	-1.039041819	 1.7661121965	 0.7822300446	 0.121481
H	-0.9151876965	-0.5501506517	-0.2290702782	 0.073306
H	 1.0860639091	-1.2949818761	-1.4495093775	 0.092713
H	 1.7462282626	 0.361625956	-1.3609236025	 0.096489
H	 0.3610782052	-1.5511158375	 1.5410554047	 0.058368
H	 1.4383186883	 1.2388807171	 2.2473748163	 0.083362
H	-0.1309106632	 1.0288895803	 4.1915691515	 0.112978
H	-0.7129364428	-0.5793241715	 3.5692408807	 0.111467
H	 1.6343469021	-1.4954242414	 3.6926222099	 0.117775
H	 2.2338593353	 0.1054200092	 4.3202181847	 0.113995
