15
gdb 128912	7.02849	0.74147	0.69393	6.6718	71.22	-0.2758	-0.0055	0.2703	1517.3854	0.115296	-413.035021	-413.02706	-413.026116	-413.069026	27.878	
N	 0.0103996914	-1.1550348944	 0.0761055255	-0.305771
C	 0.0076859112	-0.0015308637	 0.1452618708	 0.256966
C	 0.0228561516	 1.4565929883	 0.2247329637	-0.334797
C	 1.3570460055	 2.0590986621	-0.2722173562	-0.299733
C	 1.3715032001	 3.5452090773	-0.1134176831	 0.345496
N	 1.6292105671	 4.3701447756	-1.1175882417	-0.262182
N	 1.5457711225	 5.5830586055	-0.5198790223	-0.177143
C	 1.2417377191	 5.4425775872	 0.7843544467	 0.019768
N	 1.1233119502	 4.1643326024	 1.0812707257	-0.301658
H	-0.8117033367	 1.8497573716	-0.3659772439	 0.155948
H	-0.149147901	 1.7623372608	 1.2615107483	 0.176051
H	 2.1774946317	 1.6194840553	 0.3049633243	 0.143145
H	 1.522653353	 1.8102776994	-1.3223955542	 0.144106
H	 1.7019631107	 6.419554952	-1.0581307133	 0.287122
H	 1.1215681037	 6.2761872107	 1.4599054894	 0.152682
