16
gdb 124281	2.66961	1.54003	0.98846	2.4555	72.59	-0.2524	-0.0491	0.2033	1149.3645	0.124403	-434.106907	-434.098155	-434.097211	-434.141061	30.651	
C	-0.0811944141	 1.5220439924	-0.0715996447	-0.480251
C	 0.0296617868	 0.0120991243	-0.0582426087	 0.310629
O	 1.0990476587	-0.565683942	-0.0972002443	-0.319897
C	-1.226139892	-0.7622264908	 0.0048846223	 0.161493
N	-2.43560677	-0.1842882083	 0.0500032204	-0.270544
N	-3.2554469732	-1.2109923161	 0.0973734855	-0.075165
N	-2.7022402414	-2.424798444	 0.0879712104	-0.254867
C	-1.3949650545	-2.1719344732	 0.028828274	 0.249895
C	-0.3742124968	-3.2572559017	-0.0021548833	-0.486859
H	 0.9187443367	 1.9539202176	-0.119610627	 0.137187
H	-0.6771412485	 1.8529616138	-0.9280341684	 0.148063
H	-0.6020911895	 1.8739919891	 0.824466789	 0.148067
H	-4.2552941164	-1.0899994116	 0.138906704	 0.297565
H	 0.2385225088	-3.1882877621	-0.9052301838	 0.149832
H	 0.3135033344	-3.1676735958	 0.8432911113	 0.149834
H	-0.864696819	-4.2320219917	 0.0303901633	 0.135018
