17
gdb 10547	2.98195	1.49272	1.13069	4.6332	70.02	-0.2689	0.0352	0.3041	1089.6281	0.141159	-363.852077	-363.843452	-363.842508	-363.885712	30.366	
C	-0.147600259	 1.3727013709	-0.0685734729	-0.22714
O	-0.2703545039	-0.0216399201	-0.2367868051	-0.229998
C	 0.7985953555	-0.5840997299	-0.9567005096	-0.128555
C	 0.6394815532	-2.090373233	-0.9599940819	 0.168975
C	-0.355963466	-2.709438611	-1.9279123081	-0.275648
C	 1.1113913063	-2.8707632818	-2.1795997262	-0.3036
C	 0.7940315442	-2.7223587444	 0.3270507377	 0.243294
N	 0.9322328458	-3.2348401573	 1.3547863593	-0.345658
H	 0.7693510449	 1.6370428285	 0.4801819489	 0.112289
H	-0.1359579964	 1.9012596794	-1.034991651	 0.104464
H	-1.0137310527	 1.7064953256	 0.5065734458	 0.135939
H	 0.8072082663	-0.2212421285	-1.9988856313	 0.087476
H	 1.7641678075	-0.3063450915	-0.5033637092	 0.105307
H	-0.9170870706	-3.5695350202	-1.5842992374	 0.144189
H	-0.9185437579	-2.0136572754	-2.5395090412	 0.135157
H	 1.5720977832	-2.2951162986	-2.9746988232	 0.129586
H	 1.5621261095	-3.8394072927	-2.0020031346	 0.143924
