19
gdb 127073	2.54241	1.4825	1.02087	4.0968	79.42	-0.1969	0.0078	0.2048	1198.8378	0.159522	-415.381303	-415.371927	-415.370982	-415.415824	33.674	
C	 0.0571841206	 1.4645966409	-0.2504473345	-0.316774
N	-0.031564851	 0.0425091423	 0.0597716936	-0.158078
C	 0.6255339597	-0.2996276333	 1.3173848872	-0.336588
C	-1.2965987434	-0.5214132443	-0.1330093007	 0.286975
C	-1.626777304	-1.8633418549	-0.2416426907	 0.253625
C	-0.8130991134	-3.1104878087	-0.203911738	-0.515144
N	-2.9685577937	-1.8235400027	-0.4514932788	-0.224608
N	-3.4440443399	-0.569764416	-0.5029907769	-0.133991
N	-2.4278730941	 0.224206544	-0.2971049324	-0.270122
H	 1.1133658517	 1.7507416884	-0.281197013	 0.109393
H	-0.3922672286	 1.6574690867	-1.2257789437	 0.13884
H	-0.4568694016	 2.0989151644	 0.4884039086	 0.116081
H	 0.1681859655	 0.2026342037	 2.1872527527	 0.10965
H	 0.5879989105	-1.3775897957	 1.4883488526	 0.120518
H	 1.6780027826	-0.0027837121	 1.2666653707	 0.120905
H	-0.7346838582	-3.5346429824	 0.8049047657	 0.140135
H	-1.2352111163	-3.883558885	-0.8540634883	 0.129404
H	 0.20104051	-2.8962522262	-0.5529380247	 0.154868
H	-3.6023602065	-2.594649429	-0.5906007893	 0.27491
