20
gdb 91215	2.00965	1.63597	1.52338	1.8748	78.71	-0.2301	-0.0274	0.2027	1061.051	0.169335	-403.131356	-403.122293	-403.121349	-403.16513	33.995	
C	 0.2498390442	 1.5824223112	-0.1785784403	-0.416248
C	 0.0283829083	 0.0923447524	 0.0421357269	-0.029054
C	 0.767560032	-0.9254520578	-0.8678295795	-0.193078
N	 1.2859117578	-1.6962900815	 0.3118445685	-0.159815
C	 2.6886538076	-1.312962897	 0.6581847924	-0.309315
C	 2.1592564876	-0.17680442	 1.5526468734	 0.357308
O	 2.6484926884	 0.6761513244	 2.2327121175	-0.298195
C	 0.7150906502	-0.6237075338	 1.2435369435	 0.208562
C	-0.1258664192	-1.0330959887	 2.4323546968	-0.471483
H	 1.3141843567	 1.8344173478	-0.2155822441	 0.125846
H	-0.2043031254	 1.9025028575	-1.1226074402	 0.118713
H	-0.2011902393	 2.1738235328	 0.6251491784	 0.126671
H	-1.0459999112	-0.1169055227	 0.0722718452	 0.082618
H	 0.132926012	-1.5347827247	-1.516777834	 0.109674
H	 1.5616184734	-0.4823109974	-1.4820531834	 0.098517
H	 3.2087144845	-2.0970319906	 1.2206672055	 0.136222
H	 3.3229764039	-1.0127453988	-0.1833676862	 0.127965
H	-0.4146492381	-0.1468765547	 3.0080639102	 0.133867
H	-1.0339022529	-1.5474809276	 2.1029010975	 0.125143
H	 0.4242171795	-1.7045794808	 3.0991740817	 0.126082
