15
gdb 9480	3.06976	1.6794	1.57316	3.7053	61.66	-0.2762	0.0046	0.2808	883.6961	0.117255	-399.78856	-399.780359	-399.779415	-399.821392	29.297	
C	 0.182499255	 1.4285581363	-0.0731675918	-0.430726
C	 0.0282894349	-0.0822016371	 0.0200467803	 0.2232
O	 0.8124554621	-0.7783872101	-0.976014186	-0.302792
C	 1.6583335739	-1.3960212785	 0.0209016988	-0.087847
C	 0.8372887298	-0.8012980268	 1.17202742	 0.018846
O	 1.5966942879	 0.0047144643	 2.0238511053	-0.408048
C	-1.3824460929	-0.4885624469	-0.0443437158	 0.253053
N	-2.4906971669	-0.8174814621	-0.0521424113	-0.335413
H	 1.2281636994	 1.6981180708	 0.0824260442	 0.143515
H	-0.1389842148	 1.7687387992	-1.0607577555	 0.147098
H	-0.4284025898	 1.9300394097	 0.6834400886	 0.129623
H	 1.6632979586	-2.4869359132	-0.0629174072	 0.121859
H	 2.6840093519	-1.0129445421	-0.0140780778	 0.122907
H	 0.2306559416	-1.5287055311	 1.7201257448	 0.106031
H	 1.0659382892	 0.2395206577	 2.7917198933	 0.298694
