16
gdb 56073	6.70234	0.5457	0.50778	1.5708	90.39	-0.2472	-0.0249	0.2223	2069.1626	0.121162	-400.70123	-400.691306	-400.690362	-400.737303	34.508	
C	 0.0149916103	 1.4514163871	-0.1189340745	-0.460923
C	-0.0315041728	-0.0424835261	 0.0683527353	 0.407143
N	-0.0935763363	-0.7142799074	 1.143274854	-0.514793
O	 0.0024291667	-0.6594826498	-1.1343108778	-0.233861
C	-0.0365897057	-2.0945875613	-1.0926500886	-0.275157
C	 0.0061728914	-2.602456661	-2.4515671736	 0.349141
C	 0.0399010643	-3.0697175851	-3.566382804	-0.165493
C	 0.0781694372	-3.5881668382	-4.8235860191	 0.294786
C	 0.1120468409	-4.0500257427	-5.9386117791	-0.560626
H	 0.92613341	 1.7351716638	-0.6540088526	 0.151662
H	-0.8328681092	 1.7807677565	-0.7269374547	 0.151664
H	-0.0115761648	 1.9653862029	 0.8429980852	 0.128808
H	-0.1113497254	-0.1003333974	 1.9538456032	 0.223322
H	 0.8088160334	-2.467378252	-0.5022322502	 0.155338
H	-0.9458218865	-2.4217833581	-0.5744718777	 0.155362
H	 0.1419373263	-4.4541432312	-6.9199707859	 0.193626
