21
gdb 89070	4.03952	0.67555	0.6413	2.1621	79.61	-0.2541	0.0805	0.3346	1787.8359	0.181266	-424.181714	-424.172111	-424.171167	-424.217341	35.151	
O	-0.2664792074	 1.4936119032	 0.5260410513	-0.415992
C	-0.0991839235	 0.1333669342	 0.2455041988	 0.08845
C	-0.7531979273	-0.8986909459	 1.1311472044	-0.327818
C	-1.3024439714	-0.6107380666	-0.2561201504	-0.016469
C	-2.637301733	 0.0848855542	-0.4164514429	-0.198434
C	-3.8272408772	-0.8794247543	-0.2977154806	-0.215569
C	-5.1531770109	-0.1761137381	-0.4480022791	 0.101097
C	-6.3510826143	-0.5787056494	 0.2981456719	-0.182245
O	-5.6076522049	 0.5793976852	 0.68101159	-0.237158
H	 0.2299468443	 1.6950314816	 1.3257455047	 0.288122
H	 0.8648882156	-0.1207130447	-0.1959565826	 0.083092
H	-0.2387943819	-1.8346189097	 1.3209858557	 0.107756
H	-1.3297157606	-0.5171717796	 1.9684929601	 0.115679
H	-1.0954131222	-1.3671648699	-1.0099713417	 0.081585
H	-2.731925793	 0.8744091836	 0.3343595664	 0.126495
H	-2.6709381263	 0.5863084793	-1.3932559795	 0.095602
H	-3.7528136134	-1.6624919237	-1.0651060699	 0.094412
H	-3.8003255327	-1.3827521058	 0.6756892814	 0.103214
H	-5.3050930591	 0.336030163	-1.4010359397	 0.087702
H	-7.3413244694	-0.3860260409	-0.1131694884	 0.111057
H	-6.2932977914	-1.4202749056	 0.9879775801	 0.109421
