19
gdb 78390	2.9058	1.4628	1.14848	1.1446	75.92	-0.2062	0.0611	0.2673	1098.5487	0.157323	-422.924169	-422.915541	-422.914596	-422.95682	34.414	
C	-0.1689438386	 1.5924506473	-0.0469408406	-0.498833
C	 0.0526633914	 0.1020845091	 0.0374792907	 0.355806
O	-1.1542540054	-0.5909907938	-0.2586773715	-0.457623
C	 1.2163414655	-0.7606342944	-0.4180460301	-0.119937
C	 2.6769475775	-0.472469097	 0.028472469	-0.119724
C	 2.9976954027	 0.6576753536	 0.9388352208	 0.086079
O	 2.6550772458	 2.0025470428	 0.7602026354	-0.407868
C	 2.2064232544	-0.4766745383	 1.5167794121	-0.15698
C	 0.7596538239	-0.7686101795	 1.042298569	-0.087241
H	 0.7342145471	 2.1640789116	 0.1338284995	 0.160843
H	-0.533459115	 1.8414767684	-1.0530041028	 0.095414
H	-0.9471853513	 1.8832351959	 0.666808439	 0.11456
H	-1.4218478886	-0.3226494848	-1.1446349857	 0.279739
H	 1.0282395896	-1.5387604258	-1.1473221664	 0.089767
H	 3.4795806234	-1.0514045619	-0.4149750305	 0.092692
H	 4.0366098346	 0.5539696242	 1.2669960396	 0.097154
H	 2.577619684	 2.4000313433	 1.634941067	 0.286075
H	 2.6138908113	-1.0556443898	 2.3384712009	 0.089434
H	 0.1849908877	-1.546222271	 1.5291563747	 0.100643
