18
gdb 12379	2.92216	2.10508	1.31059	4.2778	67.83	-0.257	0.0118	0.2689	945.3049	0.155078	-384.993545	-384.985841	-384.984897	-385.025793	28.78	
C	 0.0676727137	 1.5806984312	-0.0199528657	-0.395714
C	 0.100221147	 0.0494595476	-0.0132427075	-0.115709
C	 0.7019852488	-0.5484568692	-1.2924697319	-0.210576
C	 0.8560366267	-2.0590493194	-1.1333705001	-0.23053
C	 1.7655964469	-2.3380265758	 0.0513137438	-0.056853
O	 1.3549419403	-1.6834568801	 1.2636765128	-0.234056
C	 0.7482851701	-0.4700942936	 1.2763140451	 0.417421
O	 0.6690335688	 0.1181857828	 2.3214436827	-0.32464
H	 1.0790731157	 1.9919285597	-0.1043615614	 0.120332
H	-0.5175187185	 1.9436744767	-0.8704519981	 0.108964
H	-0.3715314117	 1.9601223708	 0.903323551	 0.145456
H	-0.9369171569	-0.3136943357	 0.06013358	 0.113739
H	 0.0675245908	-0.2978090869	-2.1489060554	 0.104274
H	 1.6841842273	-0.0959981781	-1.4867952699	 0.104062
H	-0.1237190491	-2.5249852349	-0.970990536	 0.110719
H	 1.2904283555	-2.5190025334	-2.027512929	 0.107698
H	 1.8002339908	-3.4018817698	 0.2997234789	 0.121998
H	 2.7901590339	-2.0124148619	-0.1737323493	 0.113417
