16
gdb 33119	4.74686	0.79422	0.71248	2.5521	67.06	-0.2238	0.0203	0.2442	1517.0969	0.124283	-475.050968	-475.042327	-475.041383	-475.085119	31.118	
O	 0.0975765035	 1.4296881378	 0.1126649478	-0.416427
C	 0.0569724116	 0.0141751785	 0.1695868138	-0.057652
C	-1.3627726474	-0.5391314815	-0.0468032428	-0.327579
C	-1.4052358803	-2.0292949304	-0.0045905885	 0.258849
C	-1.9848174513	-2.8524527157	 0.8964362059	-0.141856
O	-1.7237974515	-4.159892896	 0.5084316677	-0.200086
C	-0.9912622237	-4.0126817477	-0.6150230183	 0.474499
O	-0.5853753432	-5.122632938	-1.2271525936	-0.400974
N	-0.7598181587	-2.8007390732	-0.9835115242	-0.3839
H	-0.0781708182	 1.6924453707	-0.7963863375	 0.282769
H	 0.7425243912	-0.4461473633	-0.5551905436	 0.114696
H	 0.4072374431	-0.2574463375	 1.170766488	 0.112501
H	-2.0303141913	-0.1193194514	 0.7121282674	 0.111961
H	-1.7257551841	-0.1981896617	-1.0257218593	 0.108533
H	-2.572877126	-2.727943807	 1.7880165483	 0.146173
H	-0.9076379238	-5.8833319237	-0.7287269912	 0.318493
