21
gdb 75752	2.22558	1.49059	0.95328	2.8972	86.24	-0.2329	-0.0124	0.2204	1284.2939	0.180327	-387.145103	-387.135178	-387.134234	-387.17994	36.512	
C	-0.1271926022	 1.5890306473	-0.0399607007	-0.395662
C	 0.0118001734	 0.0619849364	 0.0685491199	-0.190002
C	 0.7801455697	-0.5203568987	-1.1282006143	 0.397636
O	 0.5591930553	-0.2721515061	-2.2856875698	-0.316701
C	 1.8841644828	-1.4336743751	-0.5943851208	-0.415242
C	 1.7932939766	-1.2725794357	 0.904092575	 0.197649
C	 2.766697374	-1.9936004874	 1.78446698	-0.492437
C	 0.7828875879	-0.4635065027	 1.2640226309	 0.22233
C	 0.3598632266	-0.0818716787	 2.6497121814	-0.499575
H	 0.8493511704	 2.0780945196	 0.0392841449	 0.116984
H	-0.5600846418	 1.8474405346	-1.0098717413	 0.139787
H	-0.773382957	 1.9884662023	 0.7466817122	 0.115194
H	-1.0030301997	-0.3677863457	 0.0481624739	 0.1016
H	 1.71303872	-2.4672296869	-0.928711333	 0.129884
H	 2.8561149345	-1.1423133079	-1.0151766608	 0.130037
H	 3.7982059463	-1.7042547569	 1.5448544078	 0.127024
H	 2.6031379522	-1.7993181691	 2.8464382118	 0.1245
H	 2.7072899121	-3.0785783782	 1.627509129	 0.126495
H	 0.9682521608	-0.5569783647	 3.4220340704	 0.124253
H	 0.4190014827	 1.0031698441	 2.7995920975	 0.130919
H	-0.6868506944	-0.3617775504	 2.828454546	 0.125327
