21
gdb 83129	1.9503	1.72471	1.38656	2.9914	82.45	-0.2326	-0.0088	0.2237	1099.3868	0.182275	-387.124318	-387.115147	-387.114203	-387.157972	34.669	
C	-0.2482586684	 1.5121168729	 0.0377506499	-0.427474
C	 0.0319701182	 0.0234638432	 0.0562414172	-0.036881
C	 1.3170264412	-0.6321290614	-0.3534817519	-0.109739
C	 2.5830968525	 0.2265624184	-0.4354554143	-0.23785
C	 2.8057691304	 0.814804958	 0.9749795164	-0.333771
C	 1.8219017849	 0.0926372556	 1.9070566839	 0.358896
O	 1.864878061	 0.1193613312	 3.1139266236	-0.332723
C	 0.86129924	-0.7316854415	 1.1002618796	 0.195026
C	 0.2960859656	-1.9625610097	 1.7674380686	-0.477485
H	 0.6334641554	 2.1239036587	 0.2363633967	 0.122823
H	-0.6349097697	 1.8090360705	-0.9435861091	 0.12135
H	-1.0059565422	 1.7737656117	 0.7838328883	 0.128736
H	-0.8474535258	-0.558475488	-0.2144189593	 0.091757
H	 1.260306938	-1.505298572	-0.9954954847	 0.086968
H	 3.4276607137	-0.4085492292	-0.7182279794	 0.110256
H	 2.5014493723	 1.0019762531	-1.2042749901	 0.106205
H	 3.8191829145	 0.6478641987	 1.35022759	 0.131092
H	 2.635325621	 1.8947468981	 1.0348735373	 0.132606
H	-0.2506373952	-1.6861537145	 2.6740935384	 0.137827
H	-0.3875636925	-2.4962160361	 1.1005754437	 0.109934
H	 1.091370445	-2.6543014575	 2.0649007852	 0.122447
