19
gdb 32765	3.12651	1.04859	0.80935	1.5704	81.51	-0.1735	0.0453	0.2188	1425.0669	0.15978	-419.223019	-419.213467	-419.212523	-419.258129	34.512	
C	-0.1952630098	 1.3492795258	 0.1101282197	-0.221735
O	-0.2696717786	-0.0412148053	 0.317410566	-0.241809
C	 0.9175416641	-0.5756818919	 0.8913935285	-0.197081
C	 0.7929060526	-2.0527970435	 0.9715849757	 0.252321
C	 1.1421461028	-2.9604670826	 1.9536879107	 0.156896
N	 1.7724642558	-2.6851000739	 3.1856177165	-0.610653
C	 0.8438007309	-4.2627850981	 1.4545399536	-0.211602
C	 0.3190503834	-4.1091688233	 0.1910055731	-0.08284
N	 0.3166337716	-2.7782836178	-0.1065434074	-0.28742
H	 0.639515172	 1.6213533892	-0.5557391695	 0.103675
H	-1.1342116903	 1.6624570877	-0.3529218766	 0.126621
H	-0.0672637687	 1.8975357584	 1.0570104329	 0.104244
H	 1.7803037495	-0.2623127078	 0.2738153977	 0.094228
H	 1.0883271925	-0.1551912771	 1.8972771251	 0.086931
H	 1.5674979923	-1.752492692	 3.5243843002	 0.233228
H	 1.4956008245	-3.3480578005	 3.8995168981	 0.238506
H	 1.0115519427	-5.1979464182	 1.9673502189	 0.083105
H	-0.0561712236	-4.8397623448	-0.5075134411	 0.112258
H	-0.1444560037	-2.3465804544	-0.888183372	 0.261128
