20
gdb 88559	3.49637	1.14216	1.07131	1.401	78.99	-0.2213	0.0715	0.2929	1206.1999	0.170649	-403.061975	-403.053543	-403.052598	-403.095298	32.305	
C	 3.0594434272	-0.7362247739	 0.3748702676	-0.316444
N	 1.6638645825	-1.1536711926	 0.322263861	-0.08322
C	 1.2250101333	-2.1270489242	 1.3111779673	-0.258268
C	 0.7503508202	-0.714464871	 1.3931812316	-0.133693
C	 1.1567975173	 0.2146342118	 2.4803669345	 0.289417
C	 1.9607832052	-0.1111414626	 3.7292229933	-0.34467
C	 0.5839298065	 0.4525129951	 3.8682531838	 0.038309
O	 0.592882833	 1.8718633864	 3.7301642669	-0.286003
C	 1.0709879539	 1.7414827535	 2.3648159681	-0.131724
H	 3.4890200044	-0.7024492485	 1.3867055582	 0.111604
H	 3.6528299052	-1.4333027023	-0.225391653	 0.12293
H	 3.1553545512	 0.2583516484	-0.0732038781	 0.121426
H	 0.5587592936	-2.9085313617	 0.953932383	 0.115242
H	 1.9484614568	-2.4567524006	 2.0552201464	 0.105918
H	-0.2469835901	-0.5043017935	 1.0058961885	 0.09103
H	 2.0528439904	-1.169463346	 3.9493570509	 0.117679
H	 2.8174562129	 0.4962436199	 4.0107978891	 0.114897
H	-0.2363628221	-0.0054434236	 4.4093286647	 0.109358
H	 2.0017268144	 2.2947719068	 2.1912974118	 0.10579
H	 0.3035336142	 2.0750775185	 1.6566000745	 0.110422
