12
gdb 23690	3.7709	1.976	1.29658	0.9904	62.61	-0.2138	-0.0546	0.1592	837.1207	0.085545	-418.832387	-418.826249	-418.825305	-418.862742	23.463	
F	 0.1041415394	 0.0551022872	 0.0025655636	-0.049135
C	-0.0430347923	 1.367902336	 0.0108929115	 0.373104
C	-1.2428104997	 1.9960161405	 0.0301116896	-0.211165
N	-1.2812522625	 3.37036771	 0.0373116279	-0.210042
C	-0.1781875701	 4.044711235	 0.025703416	-0.066521
C	 1.1677345505	 3.4614933536	 0.004795151	 0.342187
N	 2.3142830352	 4.0306860945	-0.0082005907	-0.552917
N	 1.1198937703	 2.0589107891	-0.0013270844	-0.376771
H	-2.1724064005	 1.4456604605	 0.0399563357	 0.130653
H	-0.2394376889	 5.1313973657	 0.0317204744	 0.12018
H	 2.2051832024	 5.0431327979	-0.0020286613	 0.221354
H	 2.0020177763	 1.56452706	-0.0156773634	 0.279073
