21
gdb 101769	3.7909	0.67255	0.6077	2.7445	76.73	-0.2442	0.0566	0.3008	1833.5057	0.1814	-457.582285	-457.571226	-457.570281	-457.619922	39.238	
C	-0.2880183077	 1.5191032438	-0.1136165352	-0.395658
C	 0.1079173309	 0.0482756569	 0.0585117748	 0.040643
C	 0.7771825512	-0.4973600228	-1.2031714902	-0.076946
O	-0.1381321096	-0.378885499	-2.2826775982	-0.423739
C	 1.0321477688	-0.1727386456	 1.2672938193	-0.172389
N	 0.419876452	 0.1929030334	 2.5332956659	-0.343645
C	 0.2624876976	-0.7288858967	 3.5433247482	 0.450247
N	-0.2058823361	-0.1771465055	 4.7344985523	-0.565894
O	 0.5280074215	-1.9114224465	 3.4313404734	-0.389256
H	 0.600464339	 2.1515983037	-0.2397891012	 0.102681
H	-0.9170773416	 1.6450988905	-0.9969665723	 0.139509
H	-0.8435097774	 1.8840891411	 0.75607964	 0.098923
H	-0.8017526026	-0.5429694291	 0.2244215322	 0.092128
H	 1.7029999277	 0.0685797781	-1.4051434305	 0.080313
H	 1.0641573649	-1.5485927295	-1.0418003976	 0.091202
H	 0.2925831489	-0.7014388992	-3.0792449489	 0.287115
H	 1.2978466953	-1.2288143879	 1.3577884705	 0.145926
H	 1.9638994112	 0.3949725558	 1.1284280381	 0.094833
H	 0.4033748571	 1.1677323017	 2.783033643	 0.240528
H	-0.8374844527	 0.6071981974	 4.6623468812	 0.244093
H	-0.5220204284	-0.8880207504	 5.3771529652	 0.259387
