16
gdb 124014	4.03242	1.58671	1.36144	1.7068	74.51	-0.2324	0.0133	0.2457	937.1049	0.1288	-396.878796	-396.872458	-396.871514	-396.909677	25.099	
C	 0.1296038336	 1.499893807	-0.2293454642	-0.180897
N	 1.5228464321	 1.4803733903	 0.2864475029	-0.304956
C	 1.5093652827	 0.0046935732	 0.4701200336	-0.157623
C	-0.0189169469	-0.0178169258	 0.0534052241	-0.017273
N	 0.4097501426	-0.8709858391	-1.0598072608	 0.090095
N	 0.0894582395	-1.2381477516	-2.3111450406	-0.297534
C	 1.2981789217	-1.5132682368	-2.8275487804	 0.013665
C	 2.3808974518	-1.2453270087	-1.9423236547	-0.37595
C	 1.7338605119	-0.8218551359	-0.7961278496	 0.324913
H	-0.522268113	 2.129826423	 0.3840012241	 0.119673
H	-0.0006588186	 1.7665792751	-1.2826860546	 0.126336
H	 2.2271217481	 1.8070663173	-0.3658894658	 0.229144
H	 1.9097491951	-0.3472902468	 1.4206512362	 0.098498
H	-0.8494131574	-0.3843882815	 0.6534735292	 0.110004
H	 1.3602639679	-1.920364485	-3.827320384	 0.113018
H	 3.4325533488	-1.3757979347	-2.1351008054	 0.108889
