14
gdb 42323	3.54779	1.15056	0.96666	2.3098	62.92	-0.2852	-0.0976	0.1876	1157.8022	0.100488	-473.824722	-473.816491	-473.815547	-473.859296	27.835	
O	-0.0182697321	-0.0506268962	 0.2886197145	-0.251303
C	-0.0673877907	 1.1378764697	 0.1237056911	 0.273832
C	 1.1641483179	 1.940805333	-0.0610558455	 0.21826
N	 2.0991472199	 2.6019264204	-0.222787688	-0.287811
C	-1.3485437116	 1.9634300532	 0.046880634	-0.022832
C	-1.6792703828	 2.349106256	-1.4409116202	-0.131161
O	-3.0160791598	 1.916792378	-1.595095396	-0.223065
C	-3.1772258343	 0.8547401026	-0.6899502552	 0.010821
O	-2.4630590509	 1.2271109129	 0.476675781	-0.225954
H	-1.2318631338	 2.8510846924	 0.6796185108	 0.129902
H	-1.630618854	 3.4238173841	-1.6214206978	 0.1438
H	-1.0088210159	 1.8364725158	-2.145712587	 0.120409
H	-4.2352308084	 0.7487278986	-0.4419590648	 0.135886
H	-2.7722155034	-0.0852090406	-1.0990663969	 0.109214
