20
gdb 52685	3.49236	0.80692	0.69673	2.0653	85.81	-0.2236	0.0345	0.2581	1670.0423	0.167831	-403.082269	-403.071419	-403.070475	-403.120731	37.532	
C	 2.5653913414	-5.9506311653	 2.7894155353	-0.50009
C	 1.6575073211	-5.3481949029	 1.8242147327	 0.110027
C	 0.8938448234	-4.8641107867	 1.0280666496	 0.034492
C	 0.0019823458	-4.2164314952	 0.0623768032	-0.097589
O	-0.6640398153	-3.0828359783	 0.6242366109	-0.420251
C	 0.7752407459	-3.8351915812	-1.1942467412	 0.006458
C	 0.8324202129	-4.7597059843	-2.3628936375	-0.249528
N	 0.1153505729	-3.4949236898	-2.4481299886	-0.08429
C	-1.3383839764	-3.5265319275	-2.5419579781	-0.3105
H	 3.1111281929	-6.7906715992	 2.3459152169	 0.152308
H	 3.3064080572	-5.226150429	 3.1445277577	 0.14979
H	 2.0243184959	-6.3294495954	 3.6633118037	 0.152292
H	-0.8073974797	-4.9058298466	-0.1990522109	 0.112656
H	 0.0134245468	-2.5122148613	 1.004446502	 0.282022
H	 1.6461916587	-3.2157137621	-0.9782658646	 0.087987
H	 1.7359890427	-4.8485243386	-2.9602855875	 0.114869
H	 0.2440388469	-5.6754090782	-2.292607503	 0.105261
H	-1.8064085921	-4.4226801427	-2.1054219753	 0.098912
H	-1.7497577426	-2.6485886329	-2.0373645925	 0.137983
H	-1.6179639584	-3.4884260127	-3.5994396528	 0.117191
