17
gdb 17245	4.70022	1.71406	1.62408	2.0568	67.57	-0.2173	0.0812	0.2984	855.1491	0.142659	-363.764236	-363.757301	-363.756357	-363.795349	26.725	
C	 0.0359271918	 1.288539751	-0.2653113403	-0.25773
O	-0.1050682135	-0.023852339	 0.2584326835	-0.282974
C	-1.3779286481	-0.521306283	 0.1589785245	 0.418443
C	-2.5958304307	-0.2613915401	 1.0332822904	-0.242567
N	-3.191968814	-1.543177487	 0.4786466005	-0.168946
C	-3.4351637424	-1.170821823	-0.9775093992	-0.174558
C	-1.9349717922	-1.1062354904	-1.1725861752	-0.15202
C	-1.7610933217	-1.9574390814	 0.0604799058	-0.113025
H	 1.0836666437	 1.5691850756	-0.1407838325	 0.130894
H	-0.2268841283	 1.3237674875	-1.3312089819	 0.113352
H	-0.593243553	 2.0088391334	 0.2752434576	 0.11554
H	-2.3783890759	-0.3928209149	 2.0965629319	 0.113345
H	-3.2142982826	 0.6308087587	 0.8837896467	 0.095816
H	-3.9054983971	-2.0140033341	-1.4913197807	 0.110347
H	-4.0433227431	-0.2697130291	-1.1192065627	 0.095856
H	-1.3282866921	-1.1013414219	-2.070096944	 0.092416
H	-1.2775568207	-2.8968803023	 0.2856979655	 0.105814
