17
gdb 95657	2.37115	1.63835	1.0827	1.9433	64.23	-0.2692	-0.0073	0.2619	1086.6268	0.136522	-496.132169	-496.123796	-496.122852	-496.165606	31.426	
O	-0.0449979678	 1.4725028498	 0.0082110999	-0.446779
C	-0.0760184051	 0.0646783841	 0.0389119184	 0.13834
C	-1.4813528007	-0.5257158844	-0.073001246	-0.258116
C	-1.3869677082	-2.0335433769	 0.0960929086	-0.077469
O	-0.5085650743	-2.6605345455	-0.8641035115	-0.223137
C	 0.5284526146	-2.0089798487	-1.4124289324	 0.400639
O	 1.2166981606	-2.5570963081	-2.235633378	-0.344603
C	 0.7960964374	-0.5308822901	-1.0723628042	-0.0359
O	 0.5120317802	 0.2153858646	-2.2539989256	-0.449726
H	-0.0399749303	 1.72416133	-0.9243761259	 0.297553
H	 0.3498935809	-0.2341578902	 1.0060108822	 0.090778
H	-2.1297292538	-0.111526556	 0.7043759398	 0.119248
H	-1.9144834621	-0.2754474422	-1.0478268506	 0.123163
H	-1.0224923295	-2.2902503145	 1.0988269118	 0.12125
H	-2.3515755967	-2.5245028599	-0.0475731851	 0.132813
H	 1.8604784314	-0.4477566627	-0.8158709542	 0.105993
H	 0.9911350934	-0.2078012092	-2.9766688372	 0.305954
