19
gdb 120599	3.96982	0.72991	0.69713	3.327	78.01	-0.2685	0.0299	0.2984	1633.26	0.158652	-419.196441	-419.186439	-419.185494	-419.231866	35.975	
N	-0.0349516951	 1.4347999603	 0.1577561272	-0.554379
C	-0.0230068664	 0.0040061612	-0.0132975354	 0.128962
C	-0.6183900053	-0.8207118719	 1.1173939563	-0.304044
C	-1.3643406232	-0.7105371378	-0.1819229137	-0.031262
C	-2.6514198533	 0.0751156193	-0.2959239681	-0.211886
C	-3.8597082371	-0.7406830919	 0.1558584074	-0.065694
O	-5.0098961507	 0.0702098083	-0.0194629862	-0.418985
C	 1.1069646147	-0.560580612	-0.7241612719	 0.234054
N	 2.0227876531	-0.9696336212	-1.3024797193	-0.348636
H	 0.772190688	 1.7349107616	 0.6960109005	 0.245087
H	 0.0108677245	 1.9050880643	-0.7412836543	 0.24549
H	-0.1371027118	-1.7560451262	 1.3761996246	 0.134594
H	-0.9793617417	-0.2333490556	 1.9544781945	 0.133756
H	-1.3086951895	-1.5896024918	-0.8184815006	 0.11008
H	-2.5891843743	 0.9874808796	 0.3021094237	 0.130724
H	-2.8143843935	 0.3837524801	-1.3355432259	 0.110498
H	-3.9292177679	-1.6673215845	-0.4376376951	 0.085166
H	-3.7326206977	-1.0385937224	 1.2090347076	 0.089116
H	-5.779932563	-0.4332080095	 0.2599809188	 0.28736
