16
gdb 8813	4.09202	1.34079	1.02426	1.1249	65.69	-0.2383	-0.0329	0.2054	1134.3064	0.128806	-417.090748	-417.081521	-417.080576	-417.124822	31.771	
C	-0.0160987857	 1.3537419909	-0.0498478558	-0.241185
O	-0.0251764071	-0.0795248781	-0.0724488506	-0.206732
C	-1.2319716693	-0.6376516072	-0.060839539	 0.453729
O	-2.2749413307	-0.0207771774	-0.0399214376	-0.390143
C	-1.191837408	-2.1516403156	-0.0706492558	 0.227998
N	-2.4508278445	-2.6816720546	-0.211593354	-0.549565
N	-0.0774189125	-2.7650804178	 0.0210657987	-0.262862
C	-0.1236178556	-4.2149310201	 0.0050764259	-0.34028
H	 1.0350391774	 1.639996071	-0.0609453375	 0.140077
H	-0.5339205412	 1.7554865454	-0.9245483568	 0.142381
H	-0.5073056891	 1.7276345893	 0.852135545	 0.141818
H	-3.2102241166	-2.0306259109	-0.0796041554	 0.271507
H	-2.6090855745	-3.6350400432	 0.0665510728	 0.2585
H	-0.672075046	-4.6237912694	 0.8703837501	 0.108741
H	-0.6108813089	-4.6050915429	-0.9024473565	 0.117726
H	 0.8923427621	-4.6144028694	 0.0436885964	 0.12829
