21
gdb 80433	2.20645	1.65967	1.20178	2.6928	82.73	-0.2367	-0.0181	0.2185	1129.69	0.181	-387.075621	-387.06642	-387.065476	-387.109198	35.096	
C	-0.0838015949	 1.5373697207	-0.1627257388	-0.437938
C	 0.0684609274	 0.0422442	 0.030488787	-0.00311
C	 1.3211196282	-0.756720158	-0.192529152	-0.065
C	 2.5781139487	-0.0314010028	 0.3128725517	-0.301896
C	 1.9796672794	-0.0326904648	 1.7526625111	 0.24037
C	 2.7096132992	-0.9859056916	 2.7092179165	-0.455456
C	 1.8109990374	 1.2915032465	 2.4570241689	 0.115614
O	 2.3521372118	 2.3245112956	 2.1508290563	-0.260866
C	 0.6821028236	-0.6786873344	 1.2067048243	-0.133046
H	 0.8112065517	 2.0982728222	 0.1095526605	 0.149061
H	-0.3072870977	 1.7586119846	-1.2122516954	 0.11447
H	-0.9127213355	 1.9249807902	 0.4400903175	 0.116246
H	-0.8055177512	-0.508622191	-0.316588009	 0.087982
H	 1.3407219836	-1.6071039453	-0.863622967	 0.086135
H	 3.4833714683	-0.6381046237	 0.2431327286	 0.103229
H	 2.7852271672	 0.9529076048	-0.113389032	 0.118302
H	 3.7251953383	-0.6329613886	 2.9156546729	 0.129693
H	 2.1777021373	-1.0758741116	 3.6636958348	 0.119223
H	 2.7728670804	-1.9845860603	 2.2662848652	 0.126524
H	 1.1241855723	 1.2441835175	 3.3371763017	 0.06839
H	 0.1372114846	-1.4467967998	 1.7453775673	 0.082074
