15
gdb 129651	2.33512	1.91071	1.05576	5.6335	74.32	-0.198	-0.0284	0.1696	1053.6134	0.115666	-450.154765	-450.146808	-450.145864	-450.186826	30.554	
N	 0.0428533898	 1.3921106347	 0.0922859592	-0.588201
C	-0.0227457102	 0.0047041607	 0.0340617634	 0.35905
C	-1.2100778203	-0.6795520588	-0.0137354144	 0.100219
N	-2.4422519182	-0.0011090702	-0.0812235301	-0.615161
C	-1.1978734256	-2.1217334649	-0.0976908239	 0.312285
O	-2.230309271	-2.791410918	-0.2043146242	-0.4308
C	 0.1470167859	-2.6980740375	-0.0490598267	-0.084083
N	 1.2583832486	-2.0297983314	 0.0514814604	-0.196333
N	 1.1522330332	-0.691821615	 0.0786761706	-0.291682
H	 0.8585041532	 1.7935644377	-0.3537648725	 0.251898
H	-0.8066069307	 1.8004945485	-0.2838635665	 0.271062
H	-2.6472978848	 0.5255244239	 0.7626228852	 0.246194
H	-3.1626405184	-0.7117649919	-0.2006979814	 0.260501
H	 0.2426931766	-3.778947555	-0.0717109219	 0.132637
H	 2.0279666919	-0.2110382729	 0.2092824628	 0.272414
