18
gdb 34943	3.56827	1.55855	1.35186	1.8807	81.14	-0.2298	0.041	0.2708	982.1948	0.149565	-364.712586	-364.705779	-364.704835	-364.743474	28.638	
C	-0.0237909548	-1.1886652261	-0.0465350818	-0.426923
C	 0.0284966366	 0.0103347949	 0.0222521973	 0.32226
C	 0.048186103	 1.4640747198	 0.0819426137	-0.151204
C	-0.3930214038	 2.1004396259	 1.4266503897	-0.071092
C	 0.6614417752	 1.4872514966	 2.3825959626	-0.247058
C	 1.6252700715	 2.3374510693	 1.5586744549	 0.017942
C	 0.5212316215	 3.406520895	 1.3386017451	-0.047432
C	 1.0428625757	 3.5235145564	-0.0868158117	-0.187946
N	 1.4364747354	 2.0622487671	 0.026089243	-0.157474
H	-0.0581510198	-2.2480238939	-0.110912419	 0.191959
H	-0.5288144392	 1.8469853329	-0.7655623343	 0.100984
H	-1.4547445169	 2.1323444019	 1.665081998	 0.075055
H	 0.5853194992	 1.8978723376	 3.3935009269	 0.101845
H	 0.7666678635	 0.4014631591	 2.4178219976	 0.120052
H	 2.6631185131	 2.5430414551	 1.813300771	 0.080524
H	 0.3051954366	 4.2303464832	 2.0198692841	 0.071215
H	 0.3785206516	 3.7615294259	-0.9237707408	 0.099404
H	 1.9429173916	 4.1418734092	-0.1473391664	 0.107889
