16
gdb 125034	2.33964	1.84655	1.04033	5.4832	75.46	-0.2205	-0.0252	0.1953	1088.6456	0.125332	-434.099298	-434.091101	-434.090157	-434.131747	31.383	
C	 0.025982141	 1.5439617062	 0.0897214215	-0.548205
C	 0.0240814569	 0.0389966614	 0.0512317843	 0.090696
C	-0.0694390095	-0.6659355292	-1.1688705582	 0.340244
N	-0.1658922427	 0.0148033084	-2.3733856772	-0.561688
N	-0.1308115765	-1.9990363269	-1.2652715964	-0.291998
N	-0.1083757015	-2.7367897986	-0.1598657379	-0.207072
C	 0.0064144662	-2.1545782215	 1.0206918346	-0.052959
C	 0.084072321	-0.7608940955	 1.1809405126	 0.310511
O	 0.1982736055	-0.2936492784	 2.4464816389	-0.427451
H	 1.0205079681	 1.9692441233	-0.0984651262	 0.141003
H	-0.6524630143	 1.9414915155	-0.6714027405	 0.15686
H	-0.3199030264	 1.939361957	 1.0513460006	 0.120617
H	-0.0806709784	-0.6139219475	-3.1612299674	 0.258793
H	 0.4021703336	 0.843180375	-2.4676304893	 0.250269
H	 0.0384681702	-2.8017853743	 1.8907716988	 0.120327
H	 0.2931923366	 0.6646326551	 2.4348352117	 0.300052
