21
gdb 119684	4.30274	0.95204	0.93934	1.5048	82.36	-0.2248	0.0878	0.3126	1383.0262	0.182338	-387.031995	-387.02354	-387.022596	-387.06554	32.678	
C	-0.0505472827	 1.4869956139	 0.0122091853	-0.38513
C	-0.1585253749	-0.0311386624	-0.1450501801	-0.157478
C	 0.8521388583	-0.598434102	-1.1537843226	-0.325047
C	 0.7902763865	-2.0858653032	-1.2603030656	 0.518963
O	 1.1236979005	-2.8786663529	-0.1110008936	-0.334206
C	 1.1526473465	-4.0231741407	-1.0079777311	 0.068572
C	-0.3396811226	-4.2430595851	-1.3671240624	-0.232336
C	-0.2190966638	-2.9048895122	-2.0961778209	-0.157303
C	 1.2939893044	-3.0751802685	-2.2561622314	-0.225988
H	 0.9464090026	 1.7793689484	 0.3605000021	 0.115397
H	-0.2303521037	 1.9999966777	-0.9396182003	 0.110793
H	-0.7790954513	 1.8647680266	 0.7361738009	 0.112243
H	 0.0000668257	-0.520562235	 0.8224467182	 0.118924
H	-1.1722894543	-0.303344823	-0.4634916362	 0.097294
H	 0.6743749723	-0.1706639511	-2.1490248841	 0.100458
H	 1.8688758752	-0.3040479326	-0.8624406874	 0.106999
H	 1.8159432788	-4.819662437	-0.6774124556	 0.084369
H	-0.4701098704	-5.0713107682	-2.068761565	 0.101628
H	-1.0329949076	-4.3357420354	-0.5250491912	 0.098792
H	-0.9131657514	-2.4404102911	-2.7855794213	 0.0873
H	 1.9609735119	-3.0194130562	-3.1054648077	 0.095758
