16
gdb 26992	2.91187	1.20634	0.94964	1.318	76.62	-0.2353	0.0037	0.239	1236.6592	0.123367	-400.753561	-400.744895	-400.743951	-400.787777	31.163	
C	-0.3016061657	 1.5363091057	 0.2925672901	-0.493086
C	-0.037675207	 0.0856847116	 0.0673443133	 0.169606
C	 0.1437211582	-0.604077275	-1.0886825941	 0.277947
C	 0.1460182667	-0.2491774873	-2.5408252167	-0.466578
C	 1.4505618208	-0.4067059001	-3.1851541657	 0.314133
C	 2.5211008832	-0.5383902888	-3.7130524363	-0.449665
O	 0.3602745413	-1.9215130134	-0.7640391134	-0.174312
C	 0.2970020261	-1.9481305736	 0.5841157347	 0.065107
N	 0.0644550502	-0.8065272356	 1.1380433507	-0.303058
H	 0.4907602546	 1.9838665439	 0.901522719	 0.144036
H	-0.3570675785	 2.0865620677	-0.6501089578	 0.122218
H	-1.2440332921	 1.6811754393	 0.8308935253	 0.141479
H	-0.5962473499	-0.8610380947	-3.0712956288	 0.152089
H	-0.1901081788	 0.7892131037	-2.6372678004	 0.149542
H	 3.4689019367	-0.6562401715	-4.1770182889	 0.201356
H	 0.4432336442	-2.9065475419	 1.057443479	 0.149187
