25
gdb 86903	5.08965	0.66419	0.64989	0.1523	94.11	-0.2657	0.0898	0.3555	1874.5347	0.229124	-352.341464	-352.331674	-352.33073	-352.3769	37.316	
C	-0.2156326697	 1.4921955689	 0.1116722962	-0.40637
C	 0.0541237296	 0.0012006109	-0.0176186812	 0.060305
C	 1.2433787725	-0.482631128	-0.8945189791	-0.260095
C	 1.5318535723	-1.5861435209	 0.1607458876	 0.06397
C	 2.9796917483	-1.9295685685	 0.494511566	-0.241057
C	 3.1138710979	-2.9306784118	 1.6240015733	 0.04323
C	 3.0538594698	-4.4120232331	 1.3425031738	-0.254857
C	 4.3551990254	-3.7729217014	 1.7646875394	-0.278577
C	 0.6922585174	-0.7605060401	 1.1782826798	-0.239391
H	 0.6875966453	 2.0285897473	 0.4249962467	 0.108293
H	-0.5444693332	 1.9228592125	-0.8411093725	 0.111478
H	-0.9962812722	 1.6940670947	 0.8541385497	 0.111345
H	-0.8616317211	-0.5143206034	-0.3300487719	 0.067968
H	 1.035281329	-0.7929262246	-1.92221151	 0.089402
H	 2.0468299778	 0.2637219592	-0.9135636737	 0.090179
H	 0.9919044151	-2.5033773828	-0.1022808396	 0.068091
H	 3.4753919178	-2.3294501921	-0.4014227394	 0.08663
H	 3.516724297	-1.0057122336	 0.7538403399	 0.08699
H	 2.6547669511	-2.6127217809	 2.5572818257	 0.082097
H	 2.5434419249	-5.0582335412	 2.0482437959	 0.107554
H	 2.959128924	-4.7260418281	 0.3076370368	 0.107257
H	 5.130516392	-3.660115102	 1.0134363943	 0.10752
H	 4.7320935906	-3.9805375716	 2.7602784618	 0.107676
H	 1.3337786235	-0.0955584519	 1.7696963106	 0.089624
H	 0.0273658849	-1.2969976276	 1.86036612	 0.090736
