20
gdb 8191	2.62429	2.19462	1.60309	1.1715	75.33	-0.2355	0.0748	0.3103	913.665	0.175742	-348.980097	-348.971577	-348.970632	-349.012048	33.315	
C	-0.03700443	 1.5595482707	 0.041805815	-0.461705
C	 0.0718790985	 0.0501212702	 0.0652551502	 0.364698
O	-1.0996301181	-0.5768836321	-0.4138287203	-0.47294
C	 1.3250838916	-0.7368857526	-0.2503776528	-0.169439
C	 2.5809395759	-0.05620494	 0.2962979968	-0.239501
C	 1.9426620824	-0.0633791681	 1.7233596429	-0.292759
C	 0.6949289396	-0.7694320513	 1.1657727037	 0.311084
C	-0.0433419264	-1.851505494	 1.9006755656	-0.494932
H	 0.8495380116	 2.055604152	 0.4418917897	 0.122089
H	-0.1760831904	 1.9166255473	-0.9866496405	 0.103459
H	-0.9040886845	 1.8820867259	 0.6270957162	 0.124472
H	-1.1558262263	-0.4014662749	-1.3593622308	 0.27952
H	 1.2946606589	-1.4985572127	-1.02267055	 0.075871
H	 3.4653190272	-0.6950991842	 0.2415238471	 0.102713
H	 2.8377242565	 0.918206573	-0.1326729419	 0.092539
H	 2.4949477317	-0.7053366158	 2.4143333268	 0.102295
H	 1.7858614469	 0.9043930691	 2.210932813	 0.092686
H	-0.5103972587	-1.4537894074	 2.8108206964	 0.11305
H	-0.8320322999	-2.278456572	 1.278914462	 0.139206
H	 0.6363151733	-2.6554728632	 2.206214831	 0.107594
