13
gdb 132936	3.21506	1.40174	0.97615	3.6253	65.33	-0.2328	-0.0367	0.1961	1076.296	0.091292	-494.09778	-494.090573	-494.089629	-494.129604	27.364	
F	 0.0644664532	 0.0120238009	 0.003430196	-0.073842
C	 0.0052851905	 1.3459507946	 0.0109637851	 0.148963
C	-1.1645645099	 1.9981631077	 0.0290001621	-0.081079
N	-1.1914992555	 3.3788660833	 0.03633196	-0.388546
C	-0.0513117258	 4.1733480986	 0.0261794419	 0.495112
O	-0.093736842	 5.3834526606	 0.0324518955	-0.392154
N	 1.1211736587	 3.4428121525	 0.0074265904	-0.416657
C	 1.2801375698	 2.0530020099	-0.0016198438	 0.310405
N	 2.454511422	 1.5550794236	-0.0189980445	-0.543154
H	-2.1164876654	 1.4838164754	 0.0383476077	 0.153283
H	-2.0639506996	 3.8807608183	 0.0498359075	 0.278118
H	 1.9732460508	 3.9864972504	-0.0006958574	 0.278311
H	 2.3970772132	 0.5379059842	-0.0233776204	 0.23124
