12
gdb 130256	2.39725	1.8687	1.05308	6.3542	58.35	-0.2636	-0.0556	0.208	1014.6639	0.077524	-505.970881	-505.963276	-505.962332	-506.003275	27.229	
N	 0.0974481649	 1.3827745595	 0.0946715402	-0.588986
C	 0.0030148055	 0.0125576998	 0.008134229	 0.476515
N	-1.1049200325	-0.6466260876	 0.0513480766	-0.198385
O	-0.7260790022	-2.0202278185	 0.049336953	-0.240894
C	 0.626039743	-2.1497711228	-0.0456964548	 0.53628
O	 1.2265173905	-3.1737950623	-0.0936467085	-0.342048
N	 1.1179739809	-0.8114026829	-0.058940986	-0.245012
C	 2.4644251636	-0.4125712724	 0.0284515808	 0.170839
O	 3.3978792739	-1.1553575605	-0.0389632379	-0.241644
H	 0.6523952795	 1.8184135776	-0.6318260282	 0.273562
H	-0.8198881882	 1.8079739136	 0.1587493991	 0.283708
H	 2.5435177711	 0.6779738564	 0.1787317968	 0.116065
