18
gdb 100219	2.6544	1.16311	0.98408	3.3106	77.78	-0.2846	0.0161	0.3007	1269.9151	0.144163	-401.931563	-401.921353	-401.920409	-401.966567	37.069	
C	 0.0798208308	 1.5588193614	-0.1027830966	-0.407337
C	 0.0072798905	 0.0356963696	 0.0169206965	-0.18857
C	-1.4285158695	-0.517379518	 0.0740211326	 0.193767
O	-2.0773894353	-0.1208879428	-1.1156679762	-0.437299
C	-1.4071003977	-2.0708614079	 0.1950374175	-0.385471
C	-2.7402137346	-2.6396716251	 0.0529847226	 0.260406
C	-3.8613303086	-3.0470683235	-0.0979364421	-0.401208
C	-2.1392881879	 0.0440178787	 1.254277373	 0.274813
N	-2.6895854576	 0.4820938174	 2.1711192056	-0.34108
H	 1.1220270671	 1.8823714599	-0.1727462201	 0.117818
H	-0.4485093529	 1.9013958835	-0.9952084729	 0.143395
H	-0.3675225983	 2.047236299	 0.7679844758	 0.141448
H	 0.4832141298	-0.433905377	-0.851108329	 0.114276
H	 0.5429061514	-0.306290959	 0.9094301986	 0.113439
H	-2.9377938524	-0.5615863875	-1.1430141054	 0.295803
H	-0.7531195873	-2.4486946065	-0.5990395667	 0.145795
H	-0.9631564899	-2.3592952181	 1.1541464697	 0.14977
H	-4.8451041075	-3.4335504939	-0.2055958229	 0.210234
