15
gdb 17235	5.12231	1.77552	1.56066	1.6315	65.92	-0.2353	-0.0319	0.2034	813.0369	0.119501	-362.589804	-362.583392	-362.582448	-362.620467	24.428	
O	-0.2180602449	 0.3953646604	-0.7634115742	-0.274539
C	 0.1525966159	 1.0531051524	 0.1834635841	 0.036866
C	 1.3851220303	 1.8503949125	 0.208069507	 0.21742
C	 1.9474001638	 2.82194705	 1.2356745538	-0.24488
N	 2.7959635822	 3.450788876	 0.1467763102	-0.170813
C	 3.7394127196	 2.3028267703	-0.1875993299	-0.182285
C	 2.5596517407	 1.5453029388	-0.7705125681	-0.111395
C	 1.8292496543	 2.828462474	-0.8776985527	-0.03946
H	-0.4534320073	 1.1066016255	 1.1164704571	 0.072844
H	 1.2047804252	 3.5469057126	 1.5788645589	 0.11785
H	 2.5177680889	 2.4436431956	 2.090990138	 0.106625
H	 4.4440107121	 2.6304456672	-0.9555123453	 0.121943
H	 4.2834638614	 1.8936594971	 0.6698731799	 0.107257
H	 2.4998629008	 0.6788824887	-1.415299513	 0.122364
H	 1.2662532369	 3.3421729889	-1.6433830556	 0.120202
