19
gdb 108436	2.24186	1.70339	1.21268	3.3855	75.75	-0.2308	-0.031	0.1997	1098.3055	0.158011	-423.014644	-423.005938	-423.004994	-423.048193	32.404	
C	-0.0487620057	 1.6028191402	-0.1647624619	-0.38805
C	-0.1100071997	 0.0692974759	-0.1157897717	-0.287395
C	 0.7708793857	-0.5590689316	-1.1636251606	 0.354879
O	 0.3959885243	-0.2206028608	-2.5300305699	-0.323991
C	 0.3554363077	-1.6145170038	-2.9216918135	-0.080765
C	 0.907334119	-2.0728609158	-1.5666761297	-0.164985
C	 2.4531839064	-1.987264104	-1.455751518	-0.362273
C	 2.3196300761	-0.4999922051	-1.058700405	 0.376533
O	 3.1012296151	 0.3530388516	-0.7559072529	-0.294269
H	 0.9698430273	 1.9560288705	 0.0153878908	 0.145439
H	-0.364272117	 1.9643278038	-1.1471480873	 0.137194
H	-0.7076364021	 2.040673422	 0.5903261247	 0.110379
H	 0.2067003565	-0.2934304079	 0.8705662981	 0.102697
H	-1.1399976037	-0.2763333701	-0.2683037801	 0.103201
H	-0.673287621	-1.931979889	-3.1314803435	 0.107923
H	 0.9800723139	-1.8178770157	-3.7996269511	 0.107055
H	 0.4075016617	-2.8838010343	-1.0411382766	 0.088178
H	 2.8721783066	-2.5772629694	-0.633917165	 0.136449
H	 3.032884489	-2.1969555164	-2.3593550065	 0.131802
