17
gdb 68553	2.45933	1.91922	1.52934	2.8704	72.18	-0.2417	-0.0027	0.239	935.9768	0.134569	-421.754273	-421.74671	-421.745766	-421.785885	30.074	
C	-0.0068721531	 1.5131684358	-0.0613520537	-0.52044
C	-0.0186030756	 0.0178054394	 0.0406051523	 0.265421
O	 0.3397376241	-0.7090570915	-1.1902346412	-0.316939
C	-0.2740925832	-1.8580932291	-0.5300043355	-0.098756
C	 0.6101812779	-2.0286085636	 0.7075734576	-0.089179
C	 0.7850355421	-0.7588035059	 1.0926711254	-0.123963
C	-1.3183030309	-0.8548682888	 0.0341601191	 0.501001
C	-2.550395069	-0.9115676123	 0.8022611917	-0.301211
O	-2.5059459093	-0.483386106	-0.5874474506	-0.284464
H	 0.9770501897	 1.8642246347	-0.3862196633	 0.138159
H	-0.7558780326	 1.8477614903	-0.7833405283	 0.145561
H	-0.2290540466	 1.9664061908	 0.909972836	 0.122147
H	-0.5139842483	-2.6942868128	-1.1832817077	 0.09247
H	 0.935729809	-2.9545322188	 1.158187193	 0.114563
H	 1.2968638331	-0.3453710639	 1.9497999546	 0.112312
H	-3.0488681528	-1.8641585854	 0.9724326058	 0.122306
H	-2.7882602845	-0.1253129028	 1.5166177548	 0.121012
