14
gdb 130693	3.34788	1.65342	1.11452	2.8714	69.06	-0.2545	-0.0259	0.2286	994.2216	0.10555	-432.92038	-432.913673	-432.912729	-432.951626	25.514	
O	-0.0093205305	-0.0696634632	 0.0039204903	-0.389328
C	 0.0169596489	 1.1419739639	 0.0093781914	 0.354781
N	-1.0708043538	 1.999191436	 0.0286992692	-0.35496
C	-0.7598109406	 3.4307277453	 0.0315636933	-0.295497
C	 0.7416232459	 3.3936706378	 0.0109699608	 0.192936
C	 1.156491457	 2.08511885	-0.0012417565	 0.263644
N	 2.5037472011	 2.0873860191	-0.0194445488	-0.341613
N	 2.9968519367	 3.3437820904	-0.0198587458	-0.208721
C	 1.9277537622	 4.1488206197	-0.0013620219	-0.156361
H	-2.0084977609	 1.634116472	 0.039812886	 0.258271
H	-1.1874721725	 3.9330807308	-0.8459413528	 0.133511
H	-1.1633490536	 3.9242786016	 0.9253385431	 0.133514
H	 3.1379291942	 1.3060935999	-0.0319288085	 0.288113
H	 2.075606136	 5.2182132466	 0.0019878502	 0.121711
