21
gdb 80731	3.58839	1.02839	1.02642	0.8611	88.51	-0.2552	0.0548	0.31	1291.0634	0.182996	-349.924172	-349.915168	-349.914224	-349.957999	34.536	
C	 0.3876979973	 1.8743680577	 0.1633142727	-0.425028
C	 0.0259995536	 0.4097052399	 0.0262762847	 0.001671
C	 0.9272261372	-0.7026968521	-0.4656224778	-0.062976
C	 2.4411131416	-0.55508561	-0.4431841147	-0.231467
C	 2.8270002881	-0.1535724162	 1.0176520206	-0.186087
C	 1.6076704317	-0.5686787805	 1.9037127006	-0.23148
C	 0.4192370727	-0.7110395857	 0.9648200223	-0.062973
C	 4.087556048	-0.732217159	 1.4619384996	 0.295368
C	 5.1232623301	-1.2228215295	 1.8269828886	-0.434006
H	 1.4023611291	 2.0459840167	 0.5257721415	 0.121998
H	 0.2981910221	 2.3833333716	-0.8030620864	 0.118941
H	-0.2944130203	 2.3739494205	 0.8605074457	 0.118934
H	-0.9933553982	 0.2884254935	-0.3364325317	 0.081846
H	 0.5178501938	-1.3841425505	-1.2042993069	 0.079986
H	 2.8960443368	-1.5194481786	-0.6892742384	 0.114014
H	 2.826467769	 0.1733972434	-1.1642575408	 0.104523
H	 2.936087633	 0.9341489998	 1.062664504	 0.108622
H	 1.8090461642	-1.5371672481	 2.371682554	 0.114017
H	 1.4492539829	 0.1509454306	 2.7137603586	 0.104521
H	-0.3617816315	-1.398611973	 1.2728048299	 0.079985
H	 6.0401983488	-1.6491115407	 2.1502645339	 0.18959
