20
gdb 46386	3.79009	0.89359	0.76815	2.5777	80.35	-0.2394	-0.0233	0.2161	1495.9939	0.170632	-403.126357	-403.117441	-403.116496	-403.161009	33.036	
O	-0.0089389138	 0.0703406958	-0.4153766991	-0.288625
C	-0.0399417134	 1.2125641006	-0.0688735215	 0.381337
C	-1.1291689469	 2.1853279375	 0.4115814112	-0.28428
N	-0.0428946367	 3.1100962603	 0.8313607073	-0.321483
C	 1.0155768696	 2.3134435627	 0.1409063882	-0.083079
C	 2.2558769816	 1.9750201416	 0.9640028874	-0.208458
C	 3.196688926	 3.149179753	 1.1367143315	 0.020677
C	 2.9219869551	 4.1993535277	 2.1859931052	-0.252553
C	 4.0802783726	 3.2474865928	 2.354063295	-0.278644
H	-1.7628865512	 2.5314943742	-0.4173872405	 0.121875
H	-1.7758993175	 1.8351940502	 1.22348839	 0.133401
H	-0.1448273758	 4.0543110946	 0.4801457863	 0.225706
H	 1.3147831387	 2.7290962426	-0.8353885845	 0.090349
H	 1.9298378797	 1.6124540718	 1.9459237862	 0.100125
H	 2.7735489077	 1.1425098091	 0.4698344464	 0.112661
H	 3.6314689943	 3.5102665644	 0.2069160817	 0.0778
H	 3.139777254	 5.2356126752	 1.9509952802	 0.105941
H	 2.0494812083	 4.058116297	 2.8136437808	 0.124969
H	 3.9932145926	 2.4693274427	 3.1054312213	 0.112051
H	 5.086573095	 3.6323599463	 2.2308525669	 0.110228
