16
gdb 51110	4.47255	1.05408	0.98896	1.5872	70.42	-0.247	0.0135	0.2606	1198.2706	0.122829	-437.787986	-437.780284	-437.77934	-437.820799	29.206	
N	-0.1246769517	 1.3034350026	-0.0471275993	-0.435349
C	-0.1203226846	 0.0543278054	-0.2075831193	 0.101617
O	-1.1238330965	-0.6909629369	 0.3264687393	-0.222455
C	-1.0130240972	-2.0650641941	 0.1783846323	 0.394594
C	-1.1312136144	-2.8019568483	-1.1258318867	-0.344117
C	-2.1377660368	-3.0523471293	-0.0175761874	-0.189747
C	-1.5227735738	-3.9274488505	 1.123081389	 0.027511
O	-0.1679505033	-4.2736456974	 0.7864423712	-0.233185
C	-0.438354776	-2.9753377378	 1.3243219517	-0.059576
H	 0.6803945592	 1.7162616619	-0.5137439944	 0.233438
H	 0.6156863339	-0.546015447	-0.7557238263	 0.100608
H	-1.5274423606	-2.1962392819	-1.9347913629	 0.127918
H	-0.4148949541	-3.5625030446	-1.4094084309	 0.143276
H	-3.194458872	-2.8548676141	-0.1305279835	 0.116297
H	-2.0516006353	-4.5752900432	 1.8103328958	 0.118409
H	 0.0998511232	-2.648293905	 2.2059129912	 0.120761
