20
gdb 35130	4.33093	0.7973	0.79242	4.2741	84.29	-0.2816	0.0343	0.3159	1516.9479	0.171836	-366.007078	-365.998386	-365.997442	-366.041241	32.603	
N	 0.0118943803	-1.2810581814	-0.0140993388	-0.330128
C	 0.0105098044	-0.1250807552	 0.0283151027	 0.27181
C	 0.0183752369	 1.3285787728	 0.0912034402	-0.16301
C	-0.0776419872	 1.8968370975	 1.5471214854	-0.250374
C	 1.4667126122	 2.0889256522	 1.5505227693	 0.046793
C	 1.4503784196	 1.9554936554	 0.0000587377	-0.25038
C	 2.042255036	 3.3316786198	 2.1660639758	 0.010617
C	 2.4424243398	 3.3513958124	 3.6219617432	-0.271834
C	 3.5014346396	 3.3919255572	 2.5499069798	-0.271834
H	-0.7165084539	 1.7124488964	-0.6201053265	 0.120887
H	-0.6062885311	 2.8540560969	 1.5444282665	 0.110196
H	-0.5172973828	 1.2484069646	 2.3059947175	 0.123715
H	 1.9449912202	 1.2061738119	 1.9894472097	 0.084661
H	 2.2274406081	 1.3537820953	-0.4729669111	 0.123717
H	 1.4044221146	 2.9312617661	-0.4913723443	 0.110196
H	 1.6161538439	 4.2558063355	 1.7800944234	 0.076479
H	 2.2538967344	 4.2518292635	 4.1956933146	 0.114278
H	 2.3311512298	 2.4330151992	 4.1892821483	 0.114966
H	 4.1015338441	 2.5007560988	 2.3970845534	 0.114966
H	 4.0382657711	 4.3201092209	 2.389354013	 0.114279
