18
gdb 104956	2.03874	1.57744	1.0491	4.1489	77.86	-0.2891	-0.0834	0.2057	1179.5677	0.145864	-401.965492	-401.956068	-401.955123	-402.000183	34.007	
C	-1.6315340004	-0.7259588603	-0.6886708363	-0.385849
C	-0.2345104434	-0.3266890808	-0.1947728538	-0.293905
C	 0.8803727165	-0.6522043897	-1.1770917852	 0.227349
C	 2.2412096805	-1.1265459402	-0.6379787323	-0.287725
C	 1.3454017872	-2.0966585746	-1.3216118333	-0.279579
C	 1.0180853357	 0.1617805007	-2.4139843292	 0.255303
O	 1.7469151793	-0.1041481509	-3.3435775819	-0.298473
C	 0.2259818797	 1.4131723925	-2.4732538633	 0.232223
N	-0.3794253912	 2.3961641631	-2.5415692748	-0.323847
H	-1.9088691845	-0.1829196727	-1.5970070882	 0.135045
H	-1.6793642838	-1.797181023	-0.9090238807	 0.120266
H	-2.3865550188	-0.5026005269	 0.0705146159	 0.123854
H	-0.2158573633	 0.7432544232	 0.0435655294	 0.125336
H	-0.0195272693	-0.8486663774	 0.7440984666	 0.100998
H	 3.118264	-0.7841473784	-1.1744407002	 0.144844
H	 2.3361922775	-1.1609848189	 0.4414479192	 0.129841
H	 0.8124605734	-2.826563644	-0.7226430672	 0.127128
H	 1.6180389948	-2.4163774117	-2.3203205544	 0.147192
