18
gdb 65050	2.33418	1.53954	1.20741	4.8162	75.88	-0.2625	0.02	0.2826	1091.8968	0.147927	-398.089999	-398.081243	-398.080299	-398.123405	32.907	
C	 0.2670250979	 0.643931825	-1.4097641447	-0.483477
C	 0.0077801134	-0.0411178517	-0.0830853762	 0.209985
C	 1.1448413025	-0.6076496516	 0.685763608	-0.265247
N	 0.4541332278	 0.6103275276	 1.1566963095	-0.357089
C	-1.3654188883	-0.6765884175	 0.0480660201	 0.139072
C	-1.9640217872	-0.9189808093	 1.3937210055	-0.268636
N	-2.4961156719	 0.146731274	 0.5394828749	-0.340398
C	-1.7043333725	-1.5870591151	-1.0277170909	 0.278011
N	-1.9311894245	-2.3267759787	-1.8867263386	-0.348368
H	 1.2780680149	 1.0614593341	-1.4385457979	 0.117337
H	 0.1662053216	-0.05905705	-2.2417711598	 0.159298
H	-0.4471520421	 1.4582998504	-1.5751622607	 0.133859
H	 0.9960544151	-1.4836002093	 1.3098891978	 0.128921
H	 2.1423747711	-0.5084766043	 0.2666963421	 0.123793
H	 1.0037987892	 1.4359325425	 0.9337869798	 0.238364
H	-2.6231348221	-1.7707137935	 1.5271495858	 0.137781
H	-1.353695397	-0.6376320798	 2.2455394358	 0.148918
H	-2.1004134481	 1.032573377	 0.8539351595	 0.247875
