10
gdb 2501	4.48931	2.25385	1.50052	3.1817	46.65	-0.2788	-0.0626	0.2162	719.5108	0.064864	-396.500849	-396.494061	-396.493117	-396.532021	22.07	
O	-0.219424288	-0.0477059636	 0.0033046694	-0.238146
C	-0.1157039872	 1.1413605048	 0.0083863966	 0.176284
N	 1.1300421104	 1.8467131204	 0.0012569901	-0.162895
C	 1.0986806747	 3.2534311878	 0.009056972	 0.186016
O	 0.0960082514	 3.9134567255	 0.0214295298	-0.279761
C	 2.3970424776	 1.2133342323	-0.0133781509	 0.178552
O	 2.5914164188	 0.03578106	-0.022460212	-0.238557
H	-0.9503505578	 1.8570514822	 0.0187284108	 0.151465
H	 2.1142514777	 3.6883135106	 0.0026333968	 0.117469
H	 3.2066029124	 1.96888667	-0.0165468226	 0.109574
