19
gdb 87242	4.40113	0.73109	0.69499	3.2304	73.28	-0.2532	-0.0275	0.2257	1620.388	0.154389	-460.137426	-460.127127	-460.126183	-460.173678	36.324	
C	 0.1079305322	 1.7104912693	 0.2523156606	-0.459142
C	-0.0569193586	 0.2159375141	 0.105966388	 0.418909
C	 1.0979014107	-0.6379342038	-0.393522448	-0.387029
C	 0.6325836852	-0.7152868254	 1.0495126778	 0.047903
O	 1.4022166401	-0.1502193692	 2.0671391323	-0.423116
O	-1.3471136818	-0.2209768498	-0.2410794332	-0.294504
C	-1.739957089	 0.0655223671	-1.5636548638	-0.164859
C	-3.0218209198	-0.6991920407	-1.8446570075	 0.140272
O	-3.6623283468	-0.5782003611	-2.8545460982	-0.238512
H	 1.068817259	 1.9378319466	 0.7164764161	 0.139685
H	 0.0605948017	 2.220710782	-0.715277259	 0.116401
H	-0.6837394464	 2.1105258117	 0.8936957321	 0.129568
H	 0.875682438	-1.4803822632	-1.0393914903	 0.116681
H	 2.0400463957	-0.136452739	-0.5886648451	 0.118081
H	 0.0606743409	-1.5997756051	 1.3273597657	 0.100209
H	 2.1807198532	-0.7027063111	 2.1924068267	 0.291689
H	-1.9237789408	 1.13706177	-1.7306041429	 0.128866
H	-0.9770200362	-0.2516558951	-2.2934839395	 0.123275
H	-3.3132035872	-1.3948029574	-1.0268606819	 0.095625
