13
gdb 11584	6.79147	0.82891	0.77532	2.5515	66.63	-0.261	-0.0318	0.2292	1387.6524	0.094066	-398.570362	-398.561984	-398.56104	-398.604801	28.163	
N	 0.2888142416	 0.4502529254	 1.0561860753	-0.52085
C	-0.0509196057	 0.2008194877	-0.2415329333	 0.264284
O	 0.5895296614	 0.5966423816	-1.1955735137	-0.33097
C	-1.2558812654	-0.6053138783	-0.3874404638	 0.081678
C	-2.2459649742	-1.271212043	-0.5618854823	 0.066027
C	-3.4340899936	-2.0424148569	-0.7980932549	-0.120195
C	-3.5276062497	-3.4582193311	-0.3844207705	-0.157642
O	-4.2007701433	-2.4450803247	 0.3482656287	-0.210971
H	 1.0714239872	 1.0591921629	 1.2318839895	 0.268346
H	-0.3146998732	 0.1882716823	 1.8161926153	 0.270278
H	-4.0374277831	-1.7199341511	-1.6454876197	 0.130735
H	-4.1618463311	-4.1305500358	-0.960181179	 0.128324
H	-2.6778690809	-3.9175238389	 0.1163749984	 0.130957
