16
gdb 16408	3.59588	2.23876	1.77376	4.5629	64.02	-0.2584	0.0173	0.2756	771.7153	0.133559	-383.770925	-383.764775	-383.763831	-383.801123	24.337	
O	-0.0062321865	 0.0118285117	-0.2994738749	-0.33729
C	 0.025662506	 1.1669701111	 0.0202752159	 0.433534
O	-1.1181145576	 1.7857714581	 0.4290056543	-0.240506
C	-1.0912923303	 3.1754082423	 0.8158527593	-0.06955
C	 0.2974331291	 3.7880694134	 0.7048669547	-0.034296
C	 0.9080175191	 3.3976852095	-0.6665473566	-0.234831
C	 1.2617725206	 2.0415331631	 0.0144549371	-0.140642
C	 1.32240283	 2.825484424	 1.3597394432	-0.234831
H	-1.8051168113	 3.6978623815	 0.1686639217	 0.119023
H	-1.4621289741	 3.2242554896	 1.8461185778	 0.119024
H	 0.2752149779	 4.8379121408	 1.0058727545	 0.077863
H	 0.253352236	 3.3815746793	-1.5419976188	 0.112629
H	 1.8098997219	 3.9710524524	-0.8919967022	 0.11088
H	 2.11763153	 1.4611157158	-0.3244795528	 0.095483
H	 2.2982851716	 3.2966709637	 1.4961423904	 0.110879
H	 1.0341602075	 2.3034045536	 2.2760401964	 0.11263
