21
gdb 36953	4.81966	0.82694	0.74507	2.2134	79.32	-0.2453	0.069	0.3143	1551.0275	0.182435	-424.18095	-424.172093	-424.171149	-424.216071	32.325	
C	-0.0897260701	 1.3405011003	-0.1437321457	-0.219966
C	 1.4424759593	 1.5480985578	 0.016425461	-0.252266
C	 1.5059559976	 0.1717953591	 0.7045833054	 0.166703
C	 0.138362062	-0.1840026831	 0.0537215779	-0.24466
O	 2.6484109742	-0.5894473346	 0.3975021016	-0.256171
C	 2.7710451433	-1.7840779414	 1.1152907403	 0.086177
C	 2.113801662	-3.0720214062	 0.5555162404	-0.094924
O	 3.3833088485	-3.7569128562	 0.5768248804	-0.273785
C	 4.0897632539	-2.5313723574	 0.8638500508	-0.103542
H	-0.6510901441	 1.7803344112	 0.6849312004	 0.105829
H	-0.5455095454	 1.6630087538	-1.0812319383	 0.10474
H	 1.9551511647	 1.4993501628	-0.9482935529	 0.115493
H	 1.8030701909	 2.4170637523	 0.5706573444	 0.099554
H	 1.4008605149	 0.2653040519	 1.7968699405	 0.067837
H	-0.5880917652	-0.7499613901	 0.6419381225	 0.094622
H	 0.2994399163	-0.6873013626	-0.9038573855	 0.110581
H	 2.5519833252	-1.622229137	 2.1798893244	 0.077123
H	 1.3635184796	-3.575255135	 1.1758513674	 0.101015
H	 1.7275501809	-2.9452078935	-0.4643686756	 0.101358
H	 4.626590566	-2.1419931016	-0.0109697943	 0.109356
H	 4.7825226356	-2.6387415606	 1.7052480249	 0.104927
