13
gdb 9006	8.32573	0.83092	0.7626	3.8399	69.23	-0.2685	-0.0882	0.1803	1404.8868	0.092207	-361.456944	-361.447877	-361.446933	-361.492872	29.192	
C	 0.0944666028	 1.5028099514	-0.0034563378	-0.499393
C	 0.0304008909	 0.0506568501	 0.0521461082	 0.136607
C	-0.0251611453	-1.1496936886	 0.0974266051	 0.032045
C	-0.1007868749	-2.5970320567	 0.1497493591	-0.474026
C	-1.4761025168	-3.1636056529	-0.1853452548	 0.305042
O	-2.4525823794	-2.529007228	-0.4750570084	-0.238923
C	-1.5303073209	-4.6429642843	-0.1257716485	 0.217411
N	-1.5593962609	-5.7978097937	-0.0757732158	-0.293074
H	 0.8269747023	 1.8395131442	-0.7447743175	 0.153893
H	-0.8775588481	 1.9260818055	-0.2779370475	 0.160202
H	 0.3810461348	 1.9246851302	 0.9657619157	 0.153886
H	 0.6154183861	-3.0700401474	-0.5389912437	 0.173165
H	 0.1710795595	-2.9860271597	 1.1426350858	 0.173166
