19
gdb 95253	2.71207	1.59875	1.26901	2.5987	71.33	-0.2464	0.0716	0.318	1040.276	0.160211	-460.131652	-460.123794	-460.12285	-460.163668	31.293	
O	 0.064399755	 1.3922861542	-0.0434068018	-0.433834
C	 0.0129804589	-0.0212922753	 0.0187988596	 0.122436
C	 0.8299198434	-0.5225390546	 1.217015336	-0.101019
O	 0.326828102	-0.0023888434	 2.447060872	-0.256857
C	-0.7164582471	-0.7573202262	 2.9794259209	 0.079877
C	-1.8731404914	 0.009371378	 3.559462355	-0.347181
C	-2.0521573219	-0.7400201688	 2.2677447437	 0.079879
O	-2.1768175226	 0.0300180911	 1.113066284	-0.25686
C	-1.4469974932	-0.4930941156	 0.0038350888	-0.101025
H	-0.3626517981	 1.701045104	 0.7653736525	 0.288692
H	 0.4960884052	-0.3890374591	-0.8968302718	 0.08308
H	 0.867732078	-1.6214728218	 1.2437945323	 0.088014
H	 1.8506650921	-0.140376923	 1.1240983426	 0.117339
H	-0.4025244743	-1.6827940611	 3.4638539733	 0.089007
H	-2.3557910631	-0.3609582022	 4.4562960702	 0.119504
H	-1.8131475288	 1.0881267343	 3.4731068816	 0.134586
H	-2.6478869534	-1.6537121891	 2.2675027382	 0.089007
H	-1.9313136269	-0.0914858724	-0.8910119278	 0.117339
H	-1.5124456038	-1.5906917491	-0.0243738593	 0.088017
