21
gdb 117250	4.43532	0.72847	0.67812	3.2589	79.42	-0.2492	-0.019	0.2303	1729.4334	0.180797	-424.226181	-424.216112	-424.215167	-424.263116	34.872	
C	 0.2830600243	 1.5841435961	 0.0598704326	-0.38725
C	 0.0997714767	 0.0648004367	 0.0661806309	-0.162534
C	 0.6729106261	-0.6047518757	-1.1824603876	-0.288543
C	 0.4780642115	-2.1128476905	-1.2278849408	 0.360231
O	-0.1809705316	-2.7057460721	-0.4034784022	-0.299941
C	 1.1916891118	-2.8392829857	-2.3556010179	-0.145392
C	 2.6330156974	-3.3211605664	-2.0076172057	-0.070252
O	 2.2691833441	-4.6945447621	-2.1996235316	-0.266631
C	 0.9015322443	-4.3431687671	-2.5101532104	-0.085809
H	 1.3426417633	 1.8599067948	 0.0110663371	 0.11297
H	-0.2163218165	 2.043240342	-0.8009268829	 0.113374
H	-0.1351743061	 2.0350211597	 0.9648043179	 0.117777
H	 0.5751738376	-0.3687683723	 0.9529637373	 0.111079
H	-0.9619153374	-0.1896844457	 0.1475099612	 0.116964
H	 0.2144120803	-0.1904638919	-2.093552408	 0.122502
H	 1.7468869228	-0.392157653	-1.291500524	 0.118147
H	 1.146482988	-2.2551115626	-3.277358612	 0.090428
H	 3.4159603483	-2.9937464019	-2.7024687929	 0.105663
H	 2.9583890014	-3.1174897998	-0.9788096461	 0.108338
H	 0.1970037314	-4.7323665355	-1.7687456901	 0.128847
H	 0.6136986624	-4.6715654871	-3.5151844346	 0.100032
