17
gdb 121685	2.06727	1.10153	0.74269	2.3704	70.99	-0.2627	0.0155	0.2783	1467.01	0.134885	-455.186919	-455.176936	-455.175991	-455.223911	34.016	
O	-1.1061516652	 1.7216583794	 0.0923561671	-0.418371
C	-0.4616122967	 0.4641923336	-0.0656696248	-0.0841
C	-1.5360036368	-0.5998532097	 0.0985190471	-0.145347
N	-2.5921588467	-0.4001512954	-0.8784916999	-0.330118
C	-3.1262673096	-1.4146004134	-1.5916017946	 0.439067
O	-2.805927038	-2.5832352835	-1.4921355318	-0.375972
C	-4.2359549102	-1.0309747163	-2.6006549465	-0.458046
C	-4.5096413191	 0.3924345785	-2.7430202469	 0.265937
N	-4.6918281692	 1.5313693336	-2.8236185796	-0.312049
H	-0.5054476586	 2.4179746225	-0.1873127079	 0.297496
H	-0.0001548299	 0.3738768343	-1.0597867712	 0.102657
H	 0.3216655798	 0.312413344	 0.6919366884	 0.100273
H	-1.1278193572	-1.6013131498	-0.0498546147	 0.147616
H	-1.9448141395	-0.5431077645	 1.1155117404	 0.124541
H	-2.9000034705	 0.5507448249	-1.0226476038	 0.27806
H	-3.9469882999	-1.4538070389	-3.5673924817	 0.183775
H	-5.1466508927	-1.5535428194	-2.2908812195	 0.184581
