27
gdb 59332	3.06187	0.8708	0.82649	0.0276	96.56	-0.2741	0.0819	0.3561	1630.6934	0.250342	-353.569145	-353.558217	-353.557273	-353.604494	42.158	
C	 0.0838472622	 1.4863760148	-0.1498758259	-0.388907
C	 0.0698626501	-0.0335922461	 0.0619077296	 0.017864
C	 0.7958213671	-0.41728188	 1.3584879112	-0.388907
C	-1.3578535704	-0.5799538021	 0.0462754888	 0.081278
C	-2.1829528966	-0.4870743412	-1.2681472631	-0.287922
C	-2.7212077497	-1.9325391256	-1.0172645735	 0.348182
C	-4.1012187917	-1.923529625	-0.354463427	-0.433083
C	-2.7032814647	-2.8756399655	-2.2160414293	-0.448112
C	-1.5723530269	-2.1196530701	 0.0253988495	-0.287921
H	 1.1079853726	 1.8729764753	-0.1820091617	 0.10703
H	-0.4093920137	 1.7661335742	-1.0863432069	 0.114354
H	-0.4381880642	 1.9986497902	 0.6675000265	 0.108949
H	 0.609066358	-0.497583033	-0.7781953512	 0.061803
H	 0.8129346892	-1.5022799299	 1.5034253035	 0.114354
H	 1.8322669135	-0.0635969777	 1.3523463668	 0.10703
H	 0.2991652669	 0.0273225391	 2.2295264977	 0.108949
H	-1.9161945992	-0.1303862801	 0.8772224301	 0.061185
H	-2.9255866021	 0.3121480393	-1.3495619518	 0.088839
H	-1.5323505156	-0.4454106793	-2.1489365268	 0.087967
H	-4.8728305755	-1.5935512671	-1.0598418597	 0.108672
H	-4.3745210211	-2.9257637658	-0.004232021	 0.108673
H	-4.1313511324	-1.2505880771	 0.5090339884	 0.110292
H	-1.7194899069	-2.8890000154	-2.6972211478	 0.104872
H	-2.9422762305	-3.9030576018	-1.9156099483	 0.108877
H	-3.4398865993	-2.5723203616	-2.9699481297	 0.108878
H	-0.7117658116	-2.6394079738	-0.4105552583	 0.087967
H	-1.8319487775	-2.6119473946	 0.9672826998	 0.088839
