19
gdb 91438	2.49045	1.45906	1.04702	3.6211	76.63	-0.2128	-0.0206	0.1921	1172.4079	0.158622	-419.151059	-419.142421	-419.141477	-419.184987	31.935	
C	 0.134133702	 1.5529685166	 0.1234082213	-0.328419
N	 0.0791611527	 0.1090777343	 0.1458871769	-0.067377
C	-1.2218109114	-0.5495829646	 0.4208789032	-0.16223
C	-0.5035284005	-1.5370682309	 1.3654144619	-0.018162
N	 0.2446706139	-2.6037964603	 0.6539967282	-0.33492
C	 1.5316552803	-1.8719486443	 0.786620056	-0.0692
C	 2.3136453234	-1.7165232668	-0.5015957635	 0.169642
O	 3.4809619964	-1.4197370934	-0.5398256548	-0.259138
C	 0.7373544868	-0.6121363274	 1.2544192725	-0.022962
H	 1.1699862746	 1.8834013238	-0.0041363202	 0.130312
H	-0.4422564903	 1.9290280656	-0.7283257617	 0.125372
H	-0.2689147363	 2.0254516746	 1.039988695	 0.088769
H	-1.9244831919	 0.1011858027	 0.9660614024	 0.085103
H	-1.7179259581	-0.9728102379	-0.4583332124	 0.108761
H	-0.993393807	-1.8195347141	 2.2978790125	 0.078561
H	 0.2275555447	-3.5082701549	 1.1083740041	 0.225095
H	 2.2005893859	-2.2382416953	 1.575337007	 0.086416
H	 1.7088371346	-1.8824538164	-1.4175010986	 0.088475
H	 1.1577864002	-0.0002702913	 2.0559757301	 0.075902
