21
gdb 26421	4.00414	0.93519	0.86121	4.018	84.01	-0.2192	0.0323	0.2514	1428.539	0.183764	-383.316432	-383.307252	-383.306308	-383.351224	33.98	
C	-0.1121235841	 1.5383503467	-0.1075258257	-0.391066
C	 0.0141315629	 0.0123326534	-0.0398615072	 0.034091
C	 0.7617718147	-0.5422518055	-1.2592506473	-0.388953
C	 0.7164812556	-0.4576750241	 1.2490720713	-0.175968
N	 0.0165397611	-0.1086641529	 2.4762586958	 0.028115
C	 0.2382238001	 0.9885866368	 3.282549445	-0.132199
C	-0.6922986714	 0.9082178234	 4.2853069284	-0.094454
N	-1.4818450586	-0.205618908	 4.1227274532	-0.27392
C	-1.0301915683	-0.7855080623	 3.0333456263	 0.001934
H	 0.87715851	 2.0119081117	-0.1348275355	 0.10947
H	-0.6478574622	 1.8416709723	-1.0123720865	 0.117446
H	-0.6542329932	 1.9373217191	 0.7538741194	 0.137084
H	-0.9970795286	-0.4162280567	-0.0299237435	 0.087144
H	 1.7854036151	-0.1514829277	-1.3038503021	 0.116519
H	 0.8221264726	-1.6355337121	-1.234394177	 0.114278
H	 0.2588443527	-0.2553250304	-2.1874555202	 0.120524
H	 0.832246943	-1.5465626968	 1.226418265	 0.119961
H	 1.7237628534	-0.0302827329	 1.303567085	 0.118671
H	 1.0253699521	 1.6928444656	 3.0689694243	 0.123921
H	-0.8329610792	 1.5827184535	 5.1163310059	 0.105589
H	-1.4086637677	-1.6999465631	 2.5993131153	 0.121812
