18
gdb 96889	3.73012	0.87432	0.74482	1.9441	81.59	-0.2492	0.0282	0.2774	1521.043	0.145318	-401.912124	-401.90258	-401.901636	-401.947448	33.925	
C	 0.3286915378	 1.5250213421	 0.2354863078	-0.339883
N	 0.3916200366	 0.0696203958	 0.2373863678	-0.323754
C	 0.4594224199	-0.5390918219	-0.8507056532	 0.468026
C	 0.5474934652	-1.992404517	-1.2614322806	-0.411875
C	 0.590861044	-1.4157648008	-2.6935720251	 0.139919
C	-0.5749444485	-1.7587357072	-3.6177001544	-0.366909
C	-0.5555582795	-1.0072287475	-4.8661065036	 0.299243
C	-0.5176395152	-0.3868565451	-5.8940065841	-0.431134
O	 0.4894824055	-0.0598651075	-2.1563618232	-0.270365
H	 1.1629886594	 1.9188051481	 0.8262385648	 0.127373
H	 0.3611721288	 1.9744335913	-0.76369861	 0.128354
H	-0.5931234497	 1.8434353805	 0.7346892756	 0.127335
H	 1.4443527953	-2.5148007023	-0.9253838247	 0.137474
H	-0.3339836549	-2.5914853863	-1.0215409109	 0.133441
H	 1.5452928856	-1.53548389	-3.2133336114	 0.105293
H	-0.5336417204	-2.8358405633	-3.8294018972	 0.137842
H	-1.5147279924	-1.5784366306	-3.0808432435	 0.139089
H	-0.4936117777	 0.1655898817	-6.8004821042	 0.200529
