20
gdb 124448	3.108	1.25923	1.11673	2.4748	79.96	-0.2563	0.0127	0.269	1186.2373	0.171572	-399.3713	-399.362209	-399.361265	-399.405096	34.383	
C	-0.0070990918	 1.5244911857	-0.0191191229	-0.403922
C	-0.0071632337	-0.0197301703	-0.018507805	 0.14982
C	 0.7591076949	-0.5291467301	 1.2215827074	-0.403923
C	-1.4513833738	-0.5446657536	 0.0044097117	-0.398352
C	 0.7118646905	-0.4994993092	-1.2569188071	 0.358163
N	 0.1544051869	-1.2653815675	-2.1842866171	-0.284149
N	 1.1626889783	-1.4283366332	-3.0759827417	-0.187511
C	 2.2615340744	-0.7695420764	-2.6606545587	 0.013541
N	 2.018685063	-0.1694607834	-1.5154349802	-0.305517
H	 1.0133699163	 1.9124910028	-0.0700406737	 0.132125
H	-0.5640876811	 1.9169216422	-0.8761729684	 0.111218
H	-0.4785745668	 1.9031333981	 0.8940194527	 0.105921
H	 0.289041808	-0.1542925364	 2.1370049091	 0.105906
H	 0.7567501447	-1.6232618629	 1.2626908045	 0.111194
H	 1.7984436616	-0.1917464791	 1.2011740777	 0.132165
H	-2.0141929231	-0.1992988786	-0.8670372541	 0.118707
H	-1.477535934	-1.6377254961	 0.0019903461	 0.118635
H	-1.9601701371	-0.1894825171	 0.906529672	 0.101074
H	 1.0170807483	-1.9817413039	-3.903909193	 0.280042
H	 3.1895703044	-0.757430101	-3.2128185191	 0.144863
