20
gdb 119807	4.08351	0.80779	0.70984	3.7687	82.95	-0.2094	0.0049	0.2143	1627.9738	0.170774	-403.21082	-403.20147	-403.200526	-403.245679	34.376	
C	 0.0806028076	 1.5772548867	 0.08764441	-0.379827
C	 0.1048212803	 0.0475680315	 0.06305229	-0.16105
C	 0.5843775486	-0.5135420649	-1.2906255933	-0.307348
C	 0.6163994777	-2.0059925255	-1.3485483062	 0.378634
C	-0.1094024975	-2.8596729757	-2.0837293138	-0.235606
C	 0.3017784844	-4.2707256658	-1.7591086035	-0.380979
C	 1.4069921404	-4.0902393713	-0.7037502712	 0.402911
O	 2.0602367851	-4.9339263103	-0.1353910406	-0.370416
N	 1.5124242144	-2.7217797798	-0.5265909954	-0.368659
H	 1.0775829837	 1.9937455577	-0.094369398	 0.116527
H	-0.5887322597	 1.9745494755	-0.6833374038	 0.118612
H	-0.2657643437	 1.9524416801	 1.0552023639	 0.118108
H	 0.7528428997	-0.3232123008	 0.8670214392	 0.097214
H	-0.8955325389	-0.3483606703	 0.2735103739	 0.109515
H	-0.0729017924	-0.153475185	-2.0891370312	 0.115646
H	 1.5863839255	-0.1156959748	-1.5080163083	 0.10818
H	-0.8687990041	-2.5778241181	-2.7975622348	 0.098559
H	-0.5034266189	-4.8848092674	-1.3382407206	 0.142254
H	 0.7031280794	-4.8284817168	-2.6135462403	 0.142125
H	 2.1790820583	-2.3123557451	 0.106721934	 0.255601
