21
gdb 103387	2.27884	1.45309	1.30043	3.0222	82.5	-0.232	-0.0087	0.2233	1140.4741	0.181386	-387.090195	-387.08094	-387.079996	-387.123852	35.3	
C	-0.2023355348	 1.5154384621	 0.0627813362	-0.389582
C	 0.1242894651	 0.0159117025	 0.0984620659	-0.238524
C	 0.7382493227	-0.5248068051	-1.2002082788	 0.18629
C	 2.095061559	 0.1230065891	-1.5149886867	-0.443005
C	 0.7969789883	-2.0633787469	-1.3854003645	-0.085894
C	-0.5602978552	-2.6670139692	-1.4176106552	-0.306281
C	-0.0482597793	-1.9862963389	-2.6825466008	-0.169031
C	-0.1235434128	-0.5007654715	-2.5045441736	 0.393325
O	-0.5265631558	 0.4003151275	-3.1882349188	-0.338474
H	 0.7019578551	 2.1280449174	 0.0027207636	 0.117387
H	-0.8264800584	 1.7597470114	-0.8014722117	 0.143533
H	-0.7390378075	 1.8120200176	 0.9690584154	 0.10992
H	 0.8170545727	-0.1951196117	 0.9249501503	 0.094175
H	-0.7928109032	-0.5381868703	 0.3261941209	 0.095309
H	 2.7854098805	-0.0093691146	-0.6741735064	 0.114244
H	 2.5519416001	-0.3270207461	-2.4023019913	 0.118763
H	 1.9844307508	 1.1929350564	-1.705236893	 0.138341
H	 1.6934962051	-2.6546239931	-1.2457456056	 0.099029
H	-0.6016874012	-3.7488987362	-1.4952065457	 0.126122
H	-1.3872194428	-2.237282126	-0.8613671585	 0.125496
H	 0.0351379818	-2.5261107542	-3.6175533615	 0.108857
