16
gdb 26862	3.00092	1.43081	0.97709	4.685	79.18	-0.1966	-0.0538	0.1428	1152.2989	0.125828	-434.131536	-434.123282	-434.122338	-434.16423	31.063	
C	 0.0582268965	 1.5383640701	 0.0425399989	-0.510074
C	-0.0267042093	 0.0442426659	 0.0143448731	 0.337462
C	-1.1998650856	-0.6653462271	 0.0651013942	 0.243565
N	-2.4558907572	-0.0308494286	 0.1620435167	-0.582819
N	-1.2016461946	-2.0299222956	 0.097310901	-0.267447
C	-0.0800336974	-2.6853930741	 0.0494848079	-0.118941
C	 1.2385296374	-2.0678052258	-0.0648300582	 0.374878
O	 2.3139123201	-2.6411880611	-0.1418266887	-0.40196
N	 1.1390247178	-0.6751093045	-0.0708399339	-0.40047
H	 0.9698174967	 1.8730197657	 0.5486408101	 0.135292
H	 0.0641492328	 1.9708956659	-0.9665130201	 0.143214
H	-0.8039653241	 1.9451471843	 0.576904078	 0.161688
H	-2.6386492577	 0.6254662131	-0.5872449568	 0.244825
H	-3.1832155508	-0.7357333652	 0.1745723131	 0.249624
H	-0.1060184692	-3.7711569445	 0.0929625636	 0.131892
H	 2.0237860444	-0.1871929986	-0.124905629	 0.259272
