19
gdb 40073	4.47224	1.17354	1.0404	2.3736	83.68	-0.2306	0.0067	0.2373	1182.7128	0.160314	-385.854061	-385.846635	-385.845691	-385.885898	29.945	
C	 0.0204963301	 1.511465126	-0.0303406615	-0.252672
O	 1.1998375669	 0.7115322826	-0.1165159923	-0.276712
C	-0.0767522191	 0.0477441921	-0.0050161179	 0.433392
C	-0.3733112422	-0.7579229314	 1.2841903092	-0.338548
C	-0.5057804273	-2.2005598571	 0.7673844742	-0.045647
C	-1.8074223413	-3.0813617878	 0.740582534	-0.240932
C	-1.6079945228	-3.2621320748	-0.8132372589	-0.317652
C	-0.7322716327	-2.0363373707	-0.7125555888	 0.303751
C	-0.5684829756	-0.7901412059	-1.1493878326	-0.325023
H	-0.1021107538	 2.0723151116	 0.8973711751	 0.105363
H	-0.2434557576	 2.0616023751	-0.9341679634	 0.107402
H	 0.4128855447	-0.6079108577	 2.0279512723	 0.113441
H	-1.3199322814	-0.4129873302	 1.7159316825	 0.106481
H	 0.3621584568	-2.8233670615	 1.0113126457	 0.085907
H	-1.8110918992	-3.9891148349	 1.348179975	 0.103186
H	-2.7007713703	-2.4901973699	 0.9575945009	 0.109775
H	-1.0492353228	-4.1773657108	-1.0349165769	 0.11711
H	-2.4843007889	-3.2145969795	-1.4632653151	 0.113451
H	-0.8142153731	-0.3787031851	-2.1206034916	 0.097928
