21
gdb 13449	3.22531	1.26436	1.11536	3.214	75.81	-0.2275	0.0763	0.3038	1180.1036	0.187485	-366.231676	-366.22217	-366.221226	-366.266187	34.529	
C	-0.127934184	 1.4673789352	 0.6079817283	-0.419201
C	 0.160635884	 0.0186703312	 0.2795472041	 0.00043
C	 0.5247562988	-0.4625232991	-1.09112502	-0.001248
C	 0.6675018809	 0.4507127124	-2.2889212357	-0.415078
N	 1.5072922797	-0.4982931844	-0.0048702452	-0.122936
C	 2.6802699577	 0.3750982343	-0.0064440635	-0.15365
C	 3.4869085774	 0.0661799257	 1.2584508217	-0.043177
O	 3.7774724873	-1.3107001405	 1.3480706325	-0.422223
H	 0.3396335968	 2.1747420953	-0.0790321428	 0.12363
H	-1.2087797127	 1.6395342464	 0.5706855379	 0.125433
H	 0.2083822913	 1.71188693	 1.6218142436	 0.127821
H	-0.4182152661	-0.6689178797	 0.8963615888	 0.088965
H	 0.1742523727	-1.4582619115	-1.3653541452	 0.0876
H	 0.9948117839	 1.4583854145	-2.0266650172	 0.121235
H	 1.394366568	 0.0405293914	-2.998612525	 0.127545
H	-0.2906448014	 0.5341864549	-2.8129416045	 0.123677
H	 3.2856371618	 0.1217964835	-0.884377801	 0.109023
H	 2.4550790832	 1.4498190027	-0.0522249531	 0.084324
H	 4.4383392158	 0.6095308847	 1.2395303982	 0.098266
H	 2.9232191358	 0.4174253643	 2.140602279	 0.077893
H	 2.9570000792	-1.7437750214	 1.0696620892	 0.281671
