14
gdb 24510	4.07186	1.67185	1.18522	2.9587	76.18	-0.2413	-0.0348	0.2065	951.578	0.105557	-399.628847	-399.62304	-399.622095	-399.658911	23.625	
O	-0.0597196579	 1.3291999138	 0.0097810004	-0.206102
C	 1.2173922407	 1.8129869018	 0.0000546358	 0.007738
C	 2.1480937322	 0.8288181777	-0.0140795527	-0.327731
C	 1.4083738469	-0.407612854	-0.0137799076	 0.264041
C	 0.0567156946	-0.0306801617	 0.0012518949	 0.283836
C	-0.9677540306	-0.9642416257	 0.0060001831	-0.088841
N	-0.6857241928	-2.2657568159	-0.003809973	-0.280754
C	 0.6058225385	-2.6442028762	-0.0182826653	 0.013003
C	 1.6908362782	-1.7771356745	-0.0239639913	-0.271181
H	 1.2974414417	 2.8887195392	 0.0050866784	 0.149126
H	 3.2183385968	 0.9616470754	-0.0235749039	 0.126125
H	-2.0127911162	-0.6669831522	 0.0176578954	 0.120416
H	 0.7765482955	-3.7175401122	-0.0257552869	 0.107764
H	 2.7061354724	-2.1568954755	-0.0357563073	 0.102561
