19
gdb 107506	2.50723	1.36174	0.98233	1.2372	79.42	-0.2277	0.0237	0.2514	1257.8385	0.158296	-419.159563	-419.150219	-419.149275	-419.19406	33.772	
C	-0.4266973397	 1.3511896334	 0.0489144577	-0.333838
N	 0.0712301299	-0.0282988152	 0.0911180866	-0.373378
C	 0.7709295514	-0.4292476998	-1.0658112468	 0.186456
C	 0.0275707764	-0.8475082501	-2.3424887441	-0.317161
C	 0.9815329979	-1.7917551803	-1.7055357645	 0.024789
O	 2.333394252	-1.4428518481	-2.0973950135	-0.293008
C	 2.2141500999	-0.210753109	-1.4293552187	 0.422862
N	 3.0734145357	 0.6586247777	-1.1721105727	-0.349893
C	 4.4414437771	 0.4702895073	-1.635942279	-0.340196
H	 0.3632212218	 2.1024356792	-0.0918960192	 0.129543
H	-1.1422192463	 1.448648793	-0.7735112516	 0.126212
H	-0.9550991504	 1.5664191993	 0.9818844002	 0.117996
H	 0.6539792879	-0.1592116999	 0.9112605921	 0.229228
H	-1.0232606028	-1.0499511243	-2.1591741209	 0.131877
H	 0.2682482303	-0.4049492743	-3.3037763826	 0.127284
H	 0.804203946	-2.7971228334	-1.3508281495	 0.127374
H	 5.1261473965	 0.6081354735	-0.792423504	 0.125458
H	 4.6269053478	-0.5107160107	-2.0881215929	 0.129452
H	 4.6812249085	 1.2461272915	-2.3717813866	 0.128943
