17
gdb 126181	3.98674	1.00913	0.86602	2.0106	69.58	-0.276	-0.0315	0.2445	1329.5538	0.135595	-455.146524	-455.137741	-455.136797	-455.18079	31.197	
C	-0.0995895033	 1.5404380076	 0.0089069691	-0.388146
C	-0.0950211828	 0.0148490504	-0.095649162	-0.185246
C	 0.8340986717	-0.4858158486	-1.2198576104	 0.017726
O	 2.1722063311	-0.0650464989	-1.0436053574	-0.423513
C	 0.7393305459	-1.9800130585	-1.3511446119	 0.363618
N	 1.7357587069	-2.7647441844	-1.0400184897	-0.19394
O	 1.2247940181	-4.0509953385	-1.2552123529	-0.153422
C	-0.0277228291	-3.878428726	-1.6774401323	 0.106173
N	-0.4017020275	-2.6425541424	-1.7606997422	-0.308324
H	 0.9152719201	 1.9168668485	 0.1590938881	 0.135817
H	-0.4960767854	 1.9968578425	-0.9048465556	 0.116426
H	-0.7205807531	 1.8730037055	 0.8456008418	 0.11308
H	 0.2412633688	-0.4309126795	 0.8496715477	 0.097233
H	-1.1050911838	-0.3658003528	-0.2845965315	 0.119341
H	 0.4974798452	-0.0467771376	-2.168024127	 0.114649
H	 2.610214287	-0.6961257025	-0.4603619294	 0.29743
H	-0.5958559498	-4.7680974649	-1.9072722544	 0.171099
