17
gdb 88215	3.77403	0.74515	0.67077	3.7702	83.42	-0.2524	-0.0514	0.201	1677.0058	0.132508	-421.79905	-421.789054	-421.78811	-421.835704	34.563	
C	-0.2016832479	 1.3955944373	 0.0247783437	-0.478855
C	 0.1663130009	-0.0742998336	 0.0180316292	 0.247423
O	 0.4488590624	-0.6901812522	 1.0256879973	-0.283118
C	 0.1607817739	-0.715717959	-1.2797744497	 0.08585
C	 0.1714661819	-1.2519803645	-2.3663880577	 0.006895
C	 0.1672642709	-1.9814896368	-3.5876994603	-0.248149
C	 1.3174945765	-2.972567675	-3.8536667266	-0.31961
C	-0.027805599	-3.5013898661	-3.4855620158	 0.161705
O	-0.2759506994	-4.1079357521	-2.2673831562	-0.419316
H	 0.4892009078	 1.9604797257	-0.610248038	 0.146501
H	-1.2053708026	 1.5345609971	-0.3912389022	 0.146914
H	-0.1652090419	 1.774833145	 1.0470099341	 0.144229
H	-0.2608968546	-1.4800657463	-4.4494506917	 0.122938
H	 1.6590581572	-3.0551760318	-4.8794583177	 0.128502
H	 2.0958667171	-3.0172702714	-3.1007612655	 0.139988
H	-0.6280262874	-3.9494917264	-4.2712481814	 0.11908
H	-0.1044579259	-3.4728977499	-1.5591357217	 0.299024
