19
gdb 38745	2.49227	2.27415	1.81653	1.3435	77.5	-0.2361	0.0146	0.2507	863.146	0.163976	-385.897312	-385.891198	-385.890253	-385.927331	26.848	
C	-0.0445915076	 1.5558235973	-0.0214346101	-0.235221
C	 1.5050491025	 1.5536549218	 0.0172791468	-0.04758
C	 2.1606331976	 1.4901723571	 1.418800197	-0.234379
C	 2.1526948501	-0.0299762832	 1.7498649545	 0.023049
O	 2.3724231525	-0.6435083607	 0.4656740149	-0.250627
C	 1.491042167	 0.0469489911	-0.3792158449	 0.116348
C	-0.0390977723	-0.0114912721	 0.0236825002	-0.115051
C	-0.2086299662	-0.5484416441	 1.4154772036	-0.054689
C	 0.8163644624	-0.5124855515	 2.2683074688	-0.07123
H	-0.5662724002	 2.0605786149	 0.7953084912	 0.097424
H	-0.4254432826	 1.9370388539	-0.9732940376	 0.097482
H	 2.0144347863	 2.2601697219	-0.6398286774	 0.068249
H	 3.1943844675	 1.8431101572	 1.3605371681	 0.103198
H	 1.6367701531	 2.0838912019	 2.1716908138	 0.102472
H	 2.9760770227	-0.329442585	 2.4012953535	 0.076973
H	 1.6995970334	-0.2254744717	-1.4140918395	 0.077812
H	-0.7094925377	-0.5027439038	-0.6858531135	 0.066636
H	-1.1806767958	-0.9354119511	 1.7086870539	 0.090238
H	 0.7320973573	-0.8535670837	 3.2950407869	 0.088896
