13
gdb 27467	2.72984	1.762	1.21899	5.6039	69.12	-0.2555	-0.1098	0.1457	964.6437	0.090979	-448.933559	-448.926565	-448.925621	-448.965096	26.437	
O	 0.1779780848	 1.227034042	 0.4887339549	-0.371588
C	-0.0802517067	-0.0380708813	 0.1321539671	 0.449399
N	-1.2264694101	-0.525089693	 0.3981966548	-0.246257
C	-1.5071235411	-1.8515969842	 0.0831854775	 0.329802
N	-2.508208488	-2.1754427243	-0.6213646611	-0.468622
N	-0.672401684	-2.8248020743	 0.7078351923	-0.203683
C	 0.5695852148	-2.8376755751	 0.4099961956	-0.021485
C	 1.273531852	-1.8578992086	-0.4371820619	 0.003105
N	 1.0001276494	-0.6113830746	-0.5637940894	-0.287388
H	 1.0429674161	 1.4571747523	 0.1248557772	 0.312647
H	-2.5890816735	-3.1927538397	-0.6611901473	 0.227123
H	 1.1872122299	-3.6424188371	 0.8173358427	 0.135519
H	 2.1630440163	-2.2180435218	-0.9595933723	 0.14143
