21
gdb 100163	2.43411	0.92653	0.85082	2.651	89.25	-0.2402	-0.0248	0.2153	1539.9079	0.178063	-387.085543	-387.074048	-387.073104	-387.123693	39.646	
C	-0.2387493483	 1.5921257247	 0.0757581449	-0.411043
C	-0.0572366359	 0.0726088452	-0.004602031	-0.184088
C	 0.6823860466	-0.4477061781	-1.2634007846	-0.022424
C	 0.0635967123	 0.0607148645	-2.5882505565	-0.427076
C	 2.1696516059	-0.0460171879	-1.2510136236	 0.159397
O	 2.7283187186	 0.5283421496	-0.3554638398	-0.25216
C	 0.7042243184	-1.9149987043	-1.2656660987	 0.070096
C	 0.7651320902	-3.1187608074	-1.2626258918	 0.05549
C	 0.8204510453	-4.5735340815	-1.2523707389	-0.499289
H	 0.7224718539	 2.1092753174	 0.0347154635	 0.139279
H	-0.8751374222	 1.9753625782	-0.7277869693	 0.112713
H	-0.7191050574	 1.8568297847	 1.0227814081	 0.114457
H	 0.5029678943	-0.2720670385	 0.8695506894	 0.118872
H	-1.034228946	-0.4214481808	 0.0320099453	 0.100468
H	 0.0975410313	 1.1517674644	-2.6469490946	 0.127986
H	 0.602763408	-0.3490476817	-3.4471287173	 0.126419
H	-0.9785856932	-0.2614552067	-2.6609619513	 0.131676
H	 2.7150665499	-0.3607645868	-2.1693291688	 0.084388
H	 0.7312982881	-4.9837837235	-2.2641649525	 0.149777
H	 1.7660356853	-4.9310282843	-0.8302249898	 0.152931
H	 0.008707155	-4.9954931673	-0.6497383827	 0.152132
