20
gdb 31068	2.34448	1.33399	0.86404	1.4827	86.04	-0.1689	0.0486	0.2175	1373.0308	0.169585	-403.186055	-403.17581	-403.174866	-403.221839	36.201	
C	 0.0556658078	 1.40802013	-0.0610637603	-0.239712
O	 0.0350545459	-0.001626557	-0.0247287729	-0.273563
C	-1.202344448	-0.5789185511	 0.0034476696	 0.291136
C	-1.3755839903	-1.9461854555	 0.0369859664	 0.19009
C	-0.3723848278	-3.0472994625	 0.0494401366	-0.512781
N	-2.7433131815	-2.1557448382	 0.058598826	-0.354899
C	-3.4260120806	-0.967369713	 0.0396570923	 0.323693
C	-4.9175465899	-0.9065152304	 0.057016448	-0.503172
C	-2.4857784437	 0.042871787	 0.0048707661	-0.377308
H	 1.1061263038	 1.7058528696	-0.0814839838	 0.124206
H	-0.4458303667	 1.7990237893	-0.957502848	 0.114333
H	-0.4239725577	 1.8447358181	 0.8262032609	 0.11432
H	-0.4451791055	-3.67499429	 0.9477511479	 0.117721
H	-0.4634070475	-3.7118096934	-0.8203007565	 0.117806
H	 0.6299718696	-2.6137823557	 0.0300406758	 0.1483
H	-3.1751170165	-3.06317785	 0.0850325013	 0.2493
H	-5.3436392553	-1.3671018622	 0.9578562319	 0.12324
H	-5.24677347	 0.1349387468	 0.0349594023	 0.134685
H	-5.3659084368	-1.4115754573	-0.8084683526	 0.123177
H	-2.7053385691	 1.0983043755	-0.016770531	 0.089429
