21
gdb 101551	2.77064	0.85183	0.73871	3.6824	83.06	-0.2353	-0.0673	0.1679	1614.7637	0.180351	-420.429782	-420.419047	-420.418103	-420.466227	38.133	
C	-0.0356397519	 1.5566342806	 0.0883545326	-0.380772
C	-0.0441378286	 0.029794798	-0.0224378321	-0.191009
C	 0.7142188021	-0.5148175564	-1.2400497459	 0.069549
C	 0.8431128946	-2.044246365	-1.2118919289	-0.40021
N	 0.0681921449	-0.0536328015	-2.4683091967	-0.319662
C	 0.7246637003	 0.0184864492	-3.6638631808	 0.287765
N	 1.9809242097	-0.1855105009	-3.7977438202	-0.519299
C	-0.1683448227	 0.4067011611	-4.8245006527	 0.107759
O	 0.2441309262	 0.5453152378	-5.9449846626	-0.234698
H	 0.9869783439	 1.9361299735	 0.1862153835	 0.123227
H	-0.4745614176	 2.0222178579	-0.7988877268	 0.116761
H	-0.6023117462	 1.8915107462	 0.9622347541	 0.114535
H	 0.4027034775	-0.4101932758	 0.8762147518	 0.106112
H	-1.0795525568	-0.3413823013	-0.0519984462	 0.088436
H	 1.7221103396	-0.0862222434	-1.2620426852	 0.119987
H	-0.1440098714	-2.5207562851	-1.1970311946	 0.103564
H	 1.3883369708	-2.3932361968	-2.0916912437	 0.145025
H	 1.3887117388	-2.3670885644	-0.3194345307	 0.116321
H	-0.9395541298	-0.0965076382	-2.4969183466	 0.236562
H	 2.2280360009	-0.0143964149	-4.7741677309	 0.233102
H	-1.2452260346	 0.5599376496	-4.5804920374	 0.076945
