13
gdb 1434	8.61868	1.21327	1.07791	2.2415	61.53	-0.2644	-0.0302	0.2341	1066.4659	0.099338	-344.459234	-344.450882	-344.449937	-344.49433	26.489	
C	 0.0972594137	 1.3727544738	 0.0979248544	-0.240097
O	 0.2158511201	-0.0552732489	 0.0537965131	-0.217844
C	 0.4424236985	-0.5668140074	-1.1730230577	 0.260045
O	 0.5429492954	 0.0971800656	-2.1762044723	-0.359236
C	 0.5472408568	-2.0038438049	-1.1225472725	-0.064047
C	 0.6452394957	-3.2041116107	-1.1511769344	 0.222709
C	 0.7648221577	-4.6511214241	-1.1840035643	-0.50845
H	 1.0151259955	 1.8476244889	-0.2579617659	 0.142761
H	-0.7356715109	 1.7104433726	-0.5240258502	 0.142768
H	-0.0811249956	 1.6200732248	 1.1442367706	 0.134514
H	 1.8026642216	-4.9482148944	-1.3699342874	 0.163618
H	 0.4495489588	-5.0992552768	-0.2361963671	 0.160163
H	 0.1495853725	-5.0756757086	-1.9843914364	 0.163096
