23
gdb 68593	2.05352	1.80909	1.57312	1.4359	84.8	-0.2317	0.082	0.3137	1057.2381	0.205599	-388.282916	-388.27397	-388.273026	-388.315448	36.261	
C	 0.1915170901	 1.4423709101	-0.0216648352	-0.501759
C	 0.0162443712	-0.0466403304	-0.1181273647	 0.422481
C	 0.3757722066	-0.9148732923	-1.3499209033	-0.292992
C	-0.4315344922	-1.9752373628	-0.5381060342	-0.108454
C	 0.5035727912	-2.1054416581	 0.6666954612	-0.095652
O	 0.7676392857	-0.7080610849	 0.9309338763	-0.313195
C	-1.3688315042	-0.7954007638	-0.0611664437	 0.308745
C	-2.0386552423	-0.8916460364	 1.3113238398	-0.473187
C	-2.4187906215	-0.3673332877	-1.092013736	-0.468709
H	 1.2460786763	 1.713680013	-0.1318389044	 0.12748
H	-0.3802365441	 1.9504822313	-0.803588392	 0.117719
H	-0.1505201427	 1.8075805129	 0.9520732562	 0.127071
H	-0.0897023908	-0.6056620969	-2.2826868723	 0.101437
H	 1.4407555416	-1.1058585439	-1.5039127924	 0.094477
H	-0.8247125021	-2.8903551396	-0.9821203536	 0.063202
H	 0.0439711026	-2.5779493225	 1.5415001348	 0.096275
H	 1.4385592659	-2.628762569	 0.4333108094	 0.095852
H	-1.3101605256	-0.9488519876	 2.1208310001	 0.13577
H	-2.6651241964	-0.010938436	 1.4917945143	 0.109124
H	-2.6940643146	-1.7689261643	 1.3656470973	 0.108947
H	-3.2737133597	-1.0524460587	-1.0566714268	 0.115295
H	-2.8007470564	 0.6330797556	-0.8579353804	 0.115856
H	-2.0598059485	-0.351582488	-2.1223757403	 0.114219
