23
gdb 58284	2.57197	0.87524	0.82435	2.6853	82.58	-0.2397	-0.005	0.2347	1571.9453	0.201389	-425.457333	-425.445747	-425.444802	-425.494824	41.203	
C	-0.2159116496	 1.4833578273	 0.0313207102	-0.416708
C	 0.0332452871	-0.0242044636	-0.0472168862	 0.11668
O	 0.8020344679	-0.3613286264	-1.2035289962	-0.439092
C	 0.7693111694	-0.6103485562	 1.1700554369	 0.048632
C	 0.6989908316	-2.1446357254	 1.1562727109	-0.411148
C	 2.2254420052	-0.131176005	 1.2576399999	-0.299447
C	 2.8710411823	-0.3486437297	 2.6206762675	 0.379749
C	 4.3801119305	-0.1791874127	 2.6745470106	-0.472853
O	 2.2287662559	-0.6258103799	 3.6089322787	-0.301059
H	 0.7210978879	 2.0472514707	 0.0534578505	 0.122602
H	-0.7845413683	 1.8223556283	-0.8426830929	 0.104335
H	-0.79835632	 1.7381175292	 0.9226624253	 0.12077
H	-0.9481231787	-0.5254626392	-0.0987948991	 0.062589
H	 0.3351503744	-0.0348872937	-1.9786696996	 0.281325
H	 0.2512174923	-0.2550914476	 2.0679535942	 0.090106
H	 1.2009813157	-2.5641933329	 2.0313099179	 0.125572
H	-0.3410607862	-2.4872938727	 1.1729438032	 0.105956
H	 1.1684896081	-2.5427907888	 0.2515439684	 0.124303
H	 2.8399291846	-0.6017881702	 0.481666291	 0.126169
H	 2.3038131026	 0.9475609764	 1.0611254524	 0.11678
H	 4.6927317849	 0.7415023826	 2.17060844	 0.132347
H	 4.7191042738	-0.1749278675	 3.7112327869	 0.139737
H	 4.8592308686	-1.0094046631	 2.1419463195	 0.142655
