21
gdb 40212	2.73433	1.51116	1.14718	1.1905	83.76	-0.2392	0.0185	0.2576	1138.5061	0.1838	-387.077634	-387.069411	-387.068467	-387.110692	32.673	
C	 0.1735098892	 1.4981544892	-0.0191376638	-0.317452
C	 1.3804946767	 0.5809554971	-0.0678288646	-0.326201
C	-0.0158955584	 0.0119667157	 0.0373660189	 0.442507
C	-0.4923961913	-0.635115535	 1.3217701406	-0.25437
C	 0.0684014736	-2.0384197357	 1.5952717255	-0.257061
C	-0.222297393	-3.0996140319	 0.563313959	-0.051147
C	-0.2647592889	-2.9738638344	-0.7632533433	-0.058034
C	-0.0355488137	-1.7387518933	-1.6017898329	-0.13868
O	-0.5867216054	-0.5223959211	-1.1266231874	-0.285851
H	-0.0044928902	 2.0786366952	 0.8795450561	 0.108359
H	-0.114517625	 1.9842807175	-0.9438438099	 0.121005
H	 1.8927094765	 0.4883248044	-1.0187549029	 0.11698
H	 2.0309677679	 0.529469908	 0.7992424852	 0.110744
H	-0.2260923476	 0.012785126	 2.1649830607	 0.090334
H	-1.5873870539	-0.6799537398	 1.2839470342	 0.108183
H	 1.159670887	-1.9661793271	 1.7231708264	 0.11242
H	-0.3143685128	-2.3777220383	 2.5646554798	 0.099397
H	-0.3762079893	-4.098604204	 0.9674780543	 0.086261
H	-0.440262842	-3.8745086335	-1.3494859637	 0.085677
H	 1.0482361623	-1.6177224737	-1.7750802422	 0.097892
H	-0.4958622516	-1.8849659753	-2.58411855	 0.109037
