16
gdb 25656	5.61971	0.75267	0.66653	1.0843	89.94	-0.1746	0.0172	0.1918	1640.6198	0.123896	-400.768046	-400.758826	-400.757881	-400.804339	32.793	
C	-0.0943882727	 1.4562680973	-0.023437538	-0.508324
C	-0.0120121495	 0.0043378921	-0.0133740629	 0.166864
C	 0.0680920429	-1.2017099253	-0.0052305241	-0.063823
C	 0.1454579732	-2.6053508823	 0.0047071903	 0.164314
C	 1.2240823982	-3.4699688098	-0.0188436234	-0.246969
C	 0.7337772884	-4.8041551173	 0.0068246561	-0.281173
C	-0.6416071148	-4.7126244756	 0.0456070647	 0.36639
O	-1.631670246	-5.6368451126	 0.0820851229	-0.438118
N	-0.9996420194	-3.4027891348	 0.0445729268	-0.365227
H	 0.9061310101	 1.9023283494	 0.0055217504	 0.150737
H	-0.5937737765	 1.8295332764	-0.9255052179	 0.144768
H	-0.6476075958	 1.836847494	 0.8433748676	 0.144963
H	 2.2578495867	-3.1642624115	-0.0512371292	 0.098149
H	 1.3119194038	-5.7150759409	-0.0019233164	 0.090176
H	-1.2300477966	-6.5109224671	 0.0780766788	 0.308677
H	-1.9455060119	-3.0629488322	 0.0687493143	 0.268595
