18
gdb 113278	2.59678	1.07703	0.86475	3.2696	81.18	-0.2481	-0.0311	0.2169	1385.0086	0.144477	-401.89974	-401.889914	-401.88897	-401.934896	35.302	
C	 0.017601754	 1.5051972634	-0.0436829117	-0.381639
C	 0.0536410339	-0.0039554515	 0.2280226106	-0.197268
C	-1.3396322362	-0.5950463149	 0.2161542056	-0.019553
N	-1.9070173828	-1.0001064063	-1.056922373	-0.359304
C	-1.6616596667	-2.0611428704	-0.0342414233	-0.011206
C	-0.5542854783	-3.0060760217	-0.4129355057	 0.124293
O	-0.4002978431	-4.0982185382	 0.064051027	-0.244792
C	-2.7771605133	-2.6184969176	 0.6797501915	 0.262115
C	-3.7307668102	-3.0715925627	 1.2544660726	-0.41978
H	 1.0255565538	 1.9292058531	-0.0273552241	 0.120929
H	-0.4216038155	 1.7118894691	-1.0245295913	 0.131822
H	-0.5782361408	 2.0305549275	 0.7107519292	 0.117724
H	 0.6744246449	-0.4963783852	-0.5252067255	 0.111944
H	 0.51298783	-0.1999872986	 1.2043462482	 0.113837
H	-2.01984417	-0.1416674547	 0.9371918259	 0.105933
H	-2.9053711988	-0.8119540669	-1.0998639574	 0.250124
H	 0.1160359758	-2.597428828	-1.1968124802	 0.092882
H	-4.5631140767	-3.4849284366	 1.7685974517	 0.201938
