15
gdb 26876	3.04024	1.42631	0.97676	5.7279	73.3	-0.2123	-0.0571	0.1552	1131.3781	0.112779	-454.011902	-454.00345	-454.002506	-454.045871	30.32	
C	-0.00263668	 1.5316360669	 0.0300605807	-0.505019
C	-0.0658431793	 0.0368898697	 0.0152637908	 0.321529
C	-1.2177380179	-0.6952736673	-0.0871181357	 0.228798
O	-2.4287140576	-0.0611240746	-0.1858684806	-0.454252
C	-1.0837448854	-2.1090388295	-0.0846716448	-0.05437
N	 0.032767441	-2.7746304228	 0.0058826389	-0.320774
C	 1.2267813896	-2.0738488348	 0.1116514111	 0.433657
O	 2.3263820066	-2.5766507857	 0.2018055156	-0.391298
N	 1.0981266751	-0.6664021641	 0.1096196136	-0.400548
H	 0.6040909814	 1.9036155659	-0.8034864403	 0.149579
H	-1.0041606944	 1.9523947082	-0.0525284387	 0.168952
H	 0.4540957091	 1.892506156	 0.9587457964	 0.149591
H	-3.1243487883	-0.7230569539	-0.2492622929	 0.302978
H	-1.998190862	-2.7064066602	-0.1660541368	 0.107078
H	 1.975462232	-0.1700884837	 0.1872138026	 0.2641
