19
gdb 73260	2.4568	1.70585	1.42249	1.6456	76.24	-0.2299	0.0076	0.2376	1005.4179	0.16043	-423.019143	-423.011388	-423.010444	-423.050913	31.291	
O	 0.2303851444	 1.3908513468	-0.123816522	-0.483888
C	 0.1110004927	-0.0188833243	-0.0758924001	 0.365052
C	 0.2489405069	-0.6727624603	-1.4785015625	-0.264706
C	-0.9150453582	-1.636843936	-1.1185837838	-0.279504
C	-1.312379557	-0.639162253	 0.0081003914	 0.075731
O	-1.7754992358	-1.0777243169	 1.2624881085	-0.267929
C	-0.8762031406	-1.9082789064	 1.972391207	-0.130112
C	 0.5594396115	-1.474643451	 1.8830377696	-0.070409
C	 1.0070869753	-0.6194773053	 0.9645682799	-0.160124
H	 0.1642087989	 1.7223585729	 0.7786111359	 0.276418
H	-0.0327193065	 0.0514430221	-2.2469569426	 0.115918
H	 1.2159900146	-1.1107689993	-1.7316532113	 0.10228
H	-1.6628065907	-1.8407331127	-1.8861692256	 0.104123
H	-0.5479106005	-2.5857582341	-0.7212832242	 0.109243
H	-2.0519894404	 0.0814828364	-0.3489181394	 0.09171
H	-1.2118576841	-1.8886868236	 3.0161802977	 0.118304
H	-0.9656769343	-2.9586079449	 1.6402427053	 0.104335
H	 1.2370188884	-1.9177183379	 2.609199505	 0.097792
H	 2.0536201855	-0.3235279423	 0.9305013012	 0.095764
