15
gdb 45008	2.44501	1.85489	1.22882	4.1608	67.5	-0.2661	-0.023	0.2431	986.0705	0.114566	-453.96842	-453.961311	-453.960367	-454.00021	27.292	
N	 0.054219744	 0.6477822134	-1.1283798837	-0.486385
C	-0.0346589924	-0.0385697231	-0.0780286883	 0.410608
C	-1.342315602	-0.6015701064	 0.4175921473	-0.292501
C	-1.1640125882	-2.0020783293	 0.9523289901	-0.038328
N	-0.190995011	-2.8096068018	 0.2233175268	-0.319892
C	 0.1490534678	-2.318841228	 1.5813796773	-0.188888
C	 1.1832251374	-1.24727352	 1.6562355728	 0.467488
O	 2.0732187086	-1.223820834	 2.45572731	-0.314976
O	 1.0750810414	-0.2295599086	 0.7393255292	-0.245398
H	 1.015027356	 0.9646549679	-1.2715172597	 0.235468
H	-1.7280463878	 0.0452697117	 1.2167259002	 0.13734
H	-2.0503808436	-0.5673926299	-0.412289476	 0.151606
H	-2.0442396862	-2.4828105111	 1.3705795313	 0.109204
H	-0.4168971388	-3.7992190055	 0.2763785812	 0.250812
H	 0.2069152749	-3.0252408254	 2.4012781515	 0.123843
