20
gdb 96392	2.03359	1.64894	1.1792	4.5113	78.62	-0.2655	0.0348	0.3003	1136.4379	0.172548	-403.179571	-403.170988	-403.170043	-403.212594	32.735	
C	-0.0377879334	 1.5693292954	-0.0234235079	-0.418185
C	 0.046981336	 0.0425179	-0.0123587951	 0.015696
C	 0.6929766277	-0.5286394239	-1.284602193	-0.210579
C	 0.7939569377	-2.0535616712	-1.2093976694	-0.081713
O	 1.4948639009	-2.4785725157	-0.0494220427	-0.233226
C	 0.8730035964	-2.0568054334	 1.1386980933	-0.089237
C	 0.7926234063	-0.5148940941	 1.2336747475	-0.16976
C	 2.1323913618	 0.0647351626	 1.3716052166	 0.293166
N	 3.1842160781	 0.5311250462	 1.4833799523	-0.337826
H	 0.9579872988	 2.0198866575	-0.0816197163	 0.14516
H	-0.6159333299	 1.9147661782	-0.8862061775	 0.11793
H	-0.5252132714	 1.9476824807	 0.8814841802	 0.115796
H	-0.9728579795	-0.3618256001	 0.0597289657	 0.080082
H	 0.1065517769	-0.2416106063	-2.1649462699	 0.100518
H	 1.6970983496	-0.1055664477	-1.4088408815	 0.127917
H	-0.2162816771	-2.498888318	-1.2173988578	 0.086778
H	 1.347090341	-2.4579775519	-2.0610015254	 0.116332
H	-0.1548836082	-2.452387274	 1.2078272671	 0.093285
H	 1.4581535903	-2.4684591471	 1.964607281	 0.127824
H	 0.2292027982	-0.2519046172	 2.1379941729	 0.120042
