21
gdb 88113	3.24629	1.22458	1.04846	1.2703	83.71	-0.235	0.0334	0.2684	1211.6924	0.183796	-387.090318	-387.081931	-387.080987	-387.122933	33.521	
O	-0.0737075183	 1.4334690897	-0.073912094	-0.423238
C	-0.0475576585	 0.0354403961	-0.005884012	 0.030008
C	-0.4954104491	-0.667462066	 1.2552229732	-0.367962
C	-1.3615593662	-0.6837129044	 0.0041041189	 0.353055
C	-2.6581491768	 0.1064408591	 0.0271131452	-0.272749
C	-3.7741893012	-0.7192890403	 0.686411814	-0.250114
C	-3.7900544422	-2.1414167449	 0.187739588	-0.045076
C	-2.7759463899	-2.7004828036	-0.4716557276	-0.048426
C	-1.4837408109	-1.9839713162	-0.7765252152	-0.325747
H	 0.6297117366	 1.7698969742	 0.4906707812	 0.28669
H	 0.761997738	-0.4267829468	-0.5738396998	 0.078835
H	 0.0146712441	-1.5764472281	 1.5581410304	 0.105233
H	-0.8216098148	-0.0344559318	 2.0751043449	 0.107422
H	-2.5174717816	 1.0611639741	 0.5384185178	 0.104532
H	-2.9478910177	 0.3418059474	-1.0055625155	 0.098278
H	-3.6494656514	-0.7164369806	 1.7796245143	 0.10561
H	-4.7482390884	-0.248793538	 0.5016606991	 0.097991
H	-4.6862701757	-2.7245665975	 0.3876765998	 0.080119
H	-2.8583463662	-3.7268084006	-0.8220736754	 0.080029
H	-1.4234814144	-1.7794528289	-1.8574169982	 0.108278
H	-0.6332890354	-2.6429975229	-0.557882259	 0.097233
