22
gdb 57428	2.45128	1.2446	1.06623	4.0845	86.42	-0.2818	0.029	0.3108	1260.7199	0.192668	-367.227399	-367.217368	-367.216423	-367.261785	38.229	
C	-0.10218161	 1.5510109755	 0.246636146	-0.441693
C	-0.0410980858	 0.0224573456	 0.0729957405	 0.232274
C	 0.5583050268	-0.6208831149	 1.3389749272	-0.405792
C	-1.4766596267	-0.5038608605	-0.1372412836	-0.40188
C	 0.7799160961	-0.4291038028	-1.1426813039	 0.012248
C	 1.080984666	 0.4128270641	-2.3446347318	-0.311255
C	 2.2264882183	-0.0407084877	-1.4481774857	-0.190733
C	 2.9670737605	 0.9113074299	-0.6704778715	 0.30242
N	 3.5926721297	 1.6622420227	-0.04965507	-0.357472
H	 0.8856413465	 1.9990427396	 0.3758353361	 0.149427
H	-0.5932832258	 2.032940545	-0.6049056186	 0.110925
H	-0.6901846966	 1.7917471857	 1.1382252226	 0.114508
H	-0.0642068048	-0.4040046676	 2.2134268907	 0.112004
H	 0.6216650984	-1.7099753651	 1.2367914382	 0.105684
H	 1.5640261621	-0.2401324101	 1.5392785405	 0.135394
H	-1.9177417213	-0.0965011517	-1.0531828274	 0.114111
H	-1.494431764	-1.5967964761	-0.2110470437	 0.108944
H	-2.1181605292	-0.2159907891	 0.7019775444	 0.113761
H	 0.6110146805	-1.4804588753	-1.3661043764	 0.096936
H	 1.0260762159	-0.0282226823	-3.3333736742	 0.12662
H	 0.833100252	 1.4664625002	-2.3062597575	 0.141094
H	 2.8539564314	-0.8399479352	-1.829874862	 0.132476
