18
gdb 111482	2.84666	1.4805	1.08919	4.8367	71.31	-0.2472	0.0127	0.2599	1103.7434	0.14995	-439.113936	-439.106186	-439.105242	-439.146213	30.445	
O	-0.0069135543	 1.491194351	-0.1141378093	-0.42694
C	 0.0855942697	 0.087023501	-0.1017032769	-0.057757
C	-1.3045084471	-0.5694979774	-0.0041539718	-0.152932
C	-1.3675018415	-2.0881542763	-0.0174831694	-0.064793
C	-0.7639768883	-2.8765662709	 1.1307230496	-0.304462
C	-2.2284303519	-2.5130921848	 1.1488109459	-0.011116
N	-2.5778047197	-1.3017951998	 1.8380647499	-0.302695
C	-1.9831536437	-0.1833999831	 1.320636387	 0.403238
O	-1.9584808199	 0.916293675	 1.8467833997	-0.397363
H	-0.5684014798	 1.7272409824	 0.6414247059	 0.297669
H	 0.5682467965	-0.2178961597	-1.0367685495	 0.10394
H	 0.7200762173	-0.2771939395	 0.723715341	 0.082894
H	-1.9113396938	-0.1597618581	-0.8210484225	 0.114369
H	-1.4681640043	-2.5920230259	-0.970506822	 0.103005
H	-0.5020441991	-3.908333075	 0.922774552	 0.122889
H	-0.1131244128	-2.3767150514	 1.8402320619	 0.125615
H	-3.0041416662	-3.2646829613	 1.0642357383	 0.109415
H	-2.9061172011	-1.2906375962	 2.7923371301	 0.255023
