20
gdb 100165	2.47228	0.9557	0.8712	2.0588	86.05	-0.2187	-0.0274	0.1913	1493.7269	0.16676	-403.120309	-403.108956	-403.108012	-403.158166	38.986	
C	 0.0606415031	 1.5106981642	-0.1888386085	-0.329233
N	 0.084415437	 0.0520415511	-0.0598014782	-0.292273
C	 0.722668304	-0.4780430247	 1.1445409659	-0.031115
C	 2.1644136394	 0.0460718816	 1.3086906406	-0.422933
C	-0.0734807524	-0.1696679009	 2.4414282714	 0.152734
O	-1.1777435349	 0.3044100932	 2.451005416	-0.256913
C	 0.7290284988	-1.9468644745	 1.0867209967	 0.055487
C	 0.6944007277	-3.1511773152	 1.102098549	 0.099624
C	 0.6629101922	-4.6062125722	 1.0886117138	-0.501846
H	 1.0603804871	 1.8867884109	-0.4266002447	 0.12114
H	-0.5865655437	 1.7625800615	-1.0333212532	 0.121548
H	-0.3143558525	 2.0450430917	 0.6959065494	 0.115241
H	-0.8701115494	-0.2916822507	-0.0708020849	 0.228342
H	 2.1789744024	 1.1276281047	 1.4668236282	 0.126501
H	 2.6432319423	-0.4338963868	 2.1654289335	 0.128712
H	 2.7399094264	-0.189336766	 0.41081477	 0.143285
H	 0.4512296933	-0.4556859557	 3.3812727146	 0.081632
H	 1.6153078748	-5.0277215323	 1.4278842814	 0.151431
H	-0.1256538163	-4.9931539809	 1.7431512836	 0.152884
H	 0.4723455708	-4.984945439	 0.0786167451	 0.155753
