19
gdb 39730	3.1878	1.65472	1.62799	1.8406	77.32	-0.2501	0.0949	0.345	929.2323	0.162605	-385.879977	-385.873514	-385.87257	-385.910474	27.7	
C	 0.0574362663	 1.4986275171	 0.0137939368	-0.298065
O	 1.2073011846	 0.6340767917	 0.002368379	-0.310739
C	-0.0887861495	 0.0446498563	 0.0073387657	 0.541815
C	-0.5266873361	-0.8348569504	 1.1483225391	-0.151827
C	-1.7556685082	-1.5736142717	 0.6426667936	-0.065022
C	-2.0211382503	-1.0793642761	-0.7805440985	-0.226086
C	-0.5439776435	-0.8240502324	-1.168130334	-0.149254
C	 0.1286660196	-2.170168693	-0.8003175659	-0.22455
C	-0.4055164773	-2.2596153082	 0.6295333745	-0.062949
H	-0.093370135	 2.0578211836	 0.9366766683	 0.111596
H	-0.1046899841	 2.0683170304	-0.900927315	 0.110114
H	-0.3783496279	-0.5689612371	 2.1856978222	 0.088153
H	-2.5472003651	-1.879175814	 1.3140218903	 0.084437
H	-2.4985524017	-1.8357978182	-1.4122191968	 0.095966
H	-2.6260922168	-0.1672014201	-0.8104131499	 0.096795
H	-0.3478070999	-0.4258892169	-2.1619530672	 0.069685
H	-0.2084885024	-2.9965503691	-1.4345958709	 0.092327
H	 1.2200803835	-2.1097951442	-0.8446308433	 0.112802
H	-0.175731036	-3.0828540178	 1.2924913519	 0.084802
