16
gdb 6697	7.31106	0.76953	0.72013	5.3143	79.87	-0.2374	-0.0447	0.1928	1518.1716	0.129266	-342.754385	-342.745511	-342.744567	-342.788228	30.883	
C	-0.0447067225	 1.4729441379	 0.0220131377	-0.316119
N	 0.0313084626	 0.0193856244	 0.0288666002	-0.050113
C	 0.8246718424	-0.4759914975	 1.1459513722	-0.326185
C	-1.3035144559	-0.5684801615	-0.0084381552	-0.320234
C	-1.2844381023	-2.0069971027	-0.2531063244	 0.041137
C	-1.2918002774	-3.1988332537	-0.4489327162	 0.119833
C	-1.297231852	-4.546097587	-0.670763234	 0.204042
N	-1.3022735806	-5.6926739778	-0.8574006911	-0.335736
H	 0.9667031	 1.8870913918	-0.0129679314	 0.128743
H	-0.5828706634	 1.8153903224	-0.8674525131	 0.123735
H	-0.5521231613	 1.8879970508	 0.9138049085	 0.097648
H	 0.3979552889	-0.2070603701	 2.1311477815	 0.096659
H	 0.9044506476	-1.5647351801	 1.0934649933	 0.137991
H	 1.8328981576	-0.0570459218	 1.0864045742	 0.128226
H	-1.8800224173	-0.3827248759	 0.9219893445	 0.122063
H	-1.8684645666	-0.0908642493	-0.8189702966	 0.148311
