13
gdb 27342	3.27227	1.37707	0.9692	6.0742	64.42	-0.2329	-0.0268	0.2061	1097.8135	0.0891	-493.740775	-493.733226	-493.732282	-493.77268	28.72	
O	 0.0450205035	 1.3369337999	 0.0079398437	-0.400646
C	-0.0243044149	 0.0009767008	 0.0009541641	 0.488296
C	-1.1822035687	-0.6936787734	 0.0036274532	-0.394422
C	-1.1886625837	-2.1443455953	-0.0044049855	 0.354768
O	-2.1890431522	-2.8417706534	-0.0024754917	-0.371848
C	 0.1815136682	-2.7328959508	-0.015239005	 0.172437
O	 0.2218510044	-4.0841880974	-0.0228509104	-0.40166
C	 1.2685134628	-1.9423613451	-0.0169852462	-0.086149
O	 1.1908705157	-0.5685320841	-0.0090172202	-0.231426
H	 0.9752611991	 1.5956047256	 0.0041890363	 0.3119
H	-2.1231328748	-0.1612100928	 0.0118848948	 0.129505
H	 1.1368312097	-4.3871146558	-0.0296289803	 0.300687
H	 2.298567841	-2.2734928582	-0.0245549627	 0.128556
