16
gdb 124840	4.43543	0.99295	0.928	6.027	66.58	-0.296	-0.0419	0.2542	1269.6489	0.123746	-467.331734	-467.323202	-467.322258	-467.366	29.92	
C	-0.0320823329	 1.5553678174	 0.1065062301	-0.409541
C	-0.0077385723	 0.0332090535	-0.0256598885	 0.129124
O	 0.7857775603	-0.5899923644	 0.9627469924	-0.414969
C	-1.443658253	-0.5287637664	-0.0260022071	-0.178323
N	-1.4554931429	-1.9797312658	-0.1087171233	 0.182664
N	-1.3366285453	-2.6603417203	-1.2375524307	-0.123216
N	-1.3226617178	-3.9084459397	-0.8798713867	-0.082789
N	-1.4286222515	-3.9814372358	 0.4607214847	-0.085583
N	-1.5075375955	-2.7793538208	 0.9443486869	-0.120005
H	 0.990433205	 1.9394549478	 0.1089011261	 0.143594
H	-0.5765642981	 2.0218276171	-0.720744324	 0.128205
H	-0.5149213429	 1.8599600821	 1.043224791	 0.117114
H	 0.4607475278	-0.2471885987	-0.9756013637	 0.123626
H	 0.4443672645	-0.3545565093	 1.8333521884	 0.2882
H	-1.9640355078	-0.2678728386	 0.89929088	 0.146271
H	-2.0130529476	-0.145703988	-0.8753459554	 0.155629
