21
gdb 105407	2.28992	1.26924	0.97716	3.295	78.54	-0.244	-0.0229	0.2212	1290.3691	0.180358	-424.223816	-424.213937	-424.212993	-424.259565	35.384	
C	 0.5413867733	-1.1246042591	-1.4711652839	-0.401985
C	 0.0944371711	-0.4509837185	-0.1691168005	-0.228358
C	-1.4158576589	-0.461558514	 0.0702786208	 0.418432
C	-2.2222798754	 0.2071473534	-1.0590830231	-0.322033
C	-1.788907014	 1.635973886	-1.2986272065	 0.15403
O	-1.311832934	 2.0388752571	-2.3306236381	-0.248438
C	-2.0173770341	-1.8023922168	 0.5688778203	-0.33379
C	-2.3271564406	-1.0261384124	 1.8629239239	-0.072059
O	-1.7208356012	 0.1761782899	 1.3459391119	-0.325096
H	 1.6323930566	-1.1893510399	-1.512232983	 0.120761
H	 0.1477269915	-2.1442006625	-1.5535924154	 0.114206
H	 0.2117043817	-0.5606632692	-2.3482122955	 0.14173
H	 0.5663801684	-0.9389635832	 0.6912543858	 0.098363
H	 0.436506219	 0.591218827	-0.15297678	 0.115719
H	-2.1264913153	-0.354809085	-1.9921320041	 0.121523
H	-3.2775302843	 0.2134145213	-0.7580062239	 0.114375
H	-1.9322741613	 2.3121408964	-0.4282766234	 0.097467
H	-2.8842054182	-2.1642539407	 0.0135057487	 0.1105
H	-1.2938586576	-2.6131108621	 0.6720742412	 0.112949
H	-3.3913893699	-0.8847599284	 2.0876090052	 0.104075
H	-1.8215017868	-1.3801247294	 2.7686718395	 0.107629
