14
gdb 132365	2.02774	1.79634	0.95814	1.4994	67.04	-0.2587	-0.0347	0.2241	1130.299	0.101345	-478.055827	-478.04827	-478.047325	-478.088405	27.922	
C	-0.0283230766	 1.5097762455	 0.0040495481	-0.467118
C	 0.0033827024	 0.0083666425	-0.0253619674	 0.343179
C	-0.1315781726	-0.7065904933	-1.2138387634	-0.343401
C	-0.0828850349	-2.0882902929	-1.0880142633	 0.356109
F	-0.203162899	-2.8424407983	-2.168833434	-0.057362
N	 0.0773654431	-2.7256846558	 0.0485482068	-0.409266
C	 0.1958472987	-1.9311559109	 1.1227490019	 0.451384
O	 0.3608383202	-2.5431338622	 2.3011186584	-0.387139
N	 0.1687276978	-0.6076113626	 1.1550060934	-0.344474
H	 0.9033835174	 1.893009072	 0.4314719156	 0.152469
H	-0.1655797496	 1.9344345564	-0.9923564572	 0.12538
H	-0.8396095552	 1.8518401787	 0.6540084369	 0.152469
H	-0.265634996	-0.2318215158	-2.175420183	 0.118238
H	 0.3602382443	-3.4929540931	 2.1209213173	 0.309533
