25
gdb 92471	2.33103	1.53246	1.50851	0.0763	90.07	-0.2738	0.069	0.3429	1112.8227	0.233939	-352.396656	-352.388495	-352.387551	-352.429031	33.843	
C	-0.3029216384	 1.5134892545	 0.0110323491	-0.417956
C	 0.035425989	 0.0199932047	-0.0001863061	 0.065726
C	 0.846829642	-0.3972033019	-1.2638051419	-0.221261
C	 1.9705497374	-1.3754698117	-0.8727659676	 0.014443
C	 2.9984096792	-0.6268228493	-0.0032782341	-0.200697
C	 2.2727230974	 0.0240121505	 1.2109059591	-0.210701
C	 0.8080048821	-0.4547112971	 1.2544351583	 0.016475
C	 0.7961450078	-1.9960468976	 1.2786091469	-0.216988
C	 1.3755333472	-2.5409510211	-0.0600314242	-0.201612
H	 0.6003500722	 2.1334240028	 0.0294565782	 0.113697
H	-0.8686293032	 1.7911513455	-0.8852765605	 0.109449
H	-0.9091238332	 1.7798026476	 0.884101661	 0.106609
H	-0.9174956145	-0.525837663	-0.0055808112	 0.061275
H	 0.1862775791	-0.8499653201	-2.011687601	 0.087688
H	 1.2887030626	 0.4891030939	-1.7371020221	 0.08394
H	 2.4581811736	-1.7611417884	-1.7746016318	 0.051186
H	 3.7718340168	-1.3256140085	 0.3351762136	 0.087334
H	 3.5088742691	 0.134779481	-0.6028321533	 0.088657
H	 2.7713602126	-0.2422698701	 2.1491180914	 0.089987
H	 2.3118258879	 1.1160992828	 1.145655279	 0.091998
H	 0.3180446298	-0.0660142897	 2.1547610168	 0.048081
H	 1.388452122	-2.3516387963	 2.1294024263	 0.086625
H	-0.2245971047	-2.3609750963	 1.4363801778	 0.088705
H	 0.5943523982	-3.0364204344	-0.6477486586	 0.088025
H	 2.1457596481	-3.2962176675	 0.1300871248	 0.089313
