18
gdb 58548	2.13507	1.45977	1.4178	2.4711	66.97	-0.2456	0.0014	0.247	1063.9467	0.146694	-476.237593	-476.228228	-476.227284	-476.271552	34.574	
C	 0.002680987	 1.6012352579	 0.041294964	-0.443752
C	 0.0079338914	 0.0747058676	-0.0398397133	 0.09417
O	 0.8004790458	-0.5014670991	 0.9917705268	-0.434979
C	-1.4085101902	-0.5331416854	-0.0157841224	 0.100564
N	-2.2218117179	-0.0157171649	-1.1022508446	-0.567812
C	-1.4581727967	-2.0688691807	 0.1422209887	-0.114615
O	-2.0557205814	-1.92952042	 1.4757582949	-0.239602
C	-2.0230876363	-0.5651780496	 1.4087414948	 0.399824
O	-2.3744915868	 0.217506448	 2.2373019017	-0.345129
H	 1.0322854445	 1.9633684368	 0.1021674192	 0.132901
H	-0.4573027507	 2.0494204892	-0.8440146995	 0.128486
H	-0.543465794	 1.9426487371	 0.9279935698	 0.141772
H	 0.4774867807	-0.2403636111	-0.978603911	 0.104603
H	 0.5724355896	-0.070652058	 1.8240363492	 0.294886
H	-3.133962495	-0.4634791572	-1.1086724874	 0.239659
H	-2.3934293676	 0.9763362745	-0.9692049441	 0.24554
H	-2.1372320075	-2.5900527583	-0.535800786	 0.118865
H	-0.4932754749	-2.5696828767	 0.2099413391	 0.14462
