21
gdb 69832	2.93897	1.56964	1.26417	1.0181	80.99	-0.2243	0.0683	0.2927	1071.5404	0.185428	-383.227937	-383.220191	-383.219246	-383.25956	31.989	
C	 0.0593978279	 1.543964976	 0.034942146	-0.452598
C	-0.0064427572	 0.0323167355	 0.0085421794	 0.331329
C	-1.3037842432	-0.5719866489	-0.530856035	-0.316799
C	-2.1072164096	-1.3053987256	 0.5640666069	-0.141114
N	-1.3844690378	-2.2895179088	 1.3711106842	-0.0937
C	-0.4087182941	-3.1447137316	 0.704152045	-0.272088
C	 0.0531835409	-2.0302786444	 1.5832466771	-0.007561
C	 0.6892157565	-0.7681758484	 1.0632219913	-0.067837
N	 1.2771303461	-0.6313800738	-0.2835179082	-0.374944
H	 1.0091098667	 1.8823210537	 0.4563594405	 0.125846
H	-0.0251224219	 1.9528043866	-0.9787824261	 0.117832
H	-0.7572150156	 1.9619456031	 0.63471949	 0.113519
H	-1.936999654	 0.2191629935	-0.9451726657	 0.105942
H	-1.092948253	-1.2479753096	-1.3679696502	 0.102769
H	-2.5064117023	-0.5639608478	 1.2671264056	 0.108344
H	-2.9676276348	-1.8129817055	 0.1144317226	 0.106647
H	-0.3620926592	-4.1689932051	 1.0651436904	 0.117615
H	-0.2679857437	-3.0540767673	-0.3705760925	 0.102071
H	 0.3856314587	-2.2976952701	 2.5836468414	 0.090514
H	 1.2537149603	-0.2325884929	 1.8230553452	 0.086349
H	 1.1280326595	-1.4857615487	-0.815630368	 0.217863
