20
gdb 115317	2.79949	1.30368	0.9331	4.941	76.74	-0.2479	0.0227	0.2706	1268.041	0.172537	-440.33744	-440.328408	-440.327464	-440.371338	33.226	
C	 0.0293689166	 1.4160391755	-0.0251157017	-0.348467
N	 0.0159464845	-0.0256559552	-0.1097539098	-0.070478
C	-1.2081948942	-0.8085828181	-0.0356638543	-0.17509
C	-0.7499267822	-2.2271777431	-0.4373177558	-0.251538
C	 0.7461465711	-2.2549717289	-0.0863051541	-0.138209
C	 1.6468289361	-3.0922773949	-1.0060458838	-0.063148
O	 2.9925883617	-3.0481098594	-0.5987106717	-0.427942
C	 1.1484332297	-0.7805277361	-0.1235599824	 0.438029
O	 2.2928974767	-0.3480704701	-0.1640789032	-0.426169
H	 1.0680893846	 1.7434090105	-0.0931791407	 0.167813
H	-0.5470155673	 1.8619234415	-0.8441317995	 0.127052
H	-0.3967520779	 1.7631199703	 0.9249375907	 0.126522
H	-1.6279680434	-0.7832625245	 0.9810706542	 0.108814
H	-1.9674633909	-0.4017586375	-0.7129832077	 0.113992
H	-1.3285766962	-3.004691351	 0.0644972006	 0.115073
H	-0.8778389374	-2.3608615397	-1.5172477267	 0.115756
H	 0.9054294381	-2.602048865	 0.9431516494	 0.10875
H	 1.3310220651	-4.1416800225	-0.9810564204	 0.101361
H	 1.5172021122	-2.7394909939	-2.0449878677	 0.080426
H	 3.2003102632	-2.106524988	-0.4842369157	 0.297453
