16
gdb 51988	6.9485	0.62249	0.58873	5.546	71.98	-0.2514	-0.0317	0.2197	1789.2611	0.122562	-471.237407	-471.227516	-471.226571	-471.274106	33.138	
N	 0.2584010802	 1.3589765441	-0.1755979884	-0.396805
C	 0.0377962462	 0.1137431209	-0.1310293809	 0.087179
N	-1.2087204171	-0.4627917299	 0.100428164	-0.378047
C	-2.4565520429	 0.1716980346	 0.1508640398	 0.52897
O	-2.6599125123	 1.3246585476	-0.1408725366	-0.346978
N	-3.460269003	-0.7058383571	 0.5423805985	-0.388619
C	-4.8085820434	-0.2152979974	 0.7373140084	-0.241519
C	-5.8173582637	-0.980573292	-0.1035203538	 0.157079
O	-6.9416317502	-1.2245878524	 0.2448328895	-0.233159
H	 1.2476929623	 1.5248619697	-0.3522553511	 0.229993
H	 0.7946041065	-0.6726345342	-0.2510053043	 0.093309
H	-1.211888185	-1.4692886149	 0.1358619312	 0.248282
H	-3.1984170017	-1.5365666537	 1.0490631368	 0.244515
H	-5.1226767817	-0.2353142149	 1.7865444489	 0.13123
H	-4.8055213915	 0.8304404114	 0.4032191396	 0.182498
H	-5.4203293025	-1.2986892919	-1.0948800016	 0.082073
