13
gdb 123527	4.2038	1.78448	1.25271	0.9876	72.35	-0.2538	-0.055	0.1988	895.3659	0.094821	-411.853633	-411.848057	-411.847113	-411.883564	22.043	
C	 0.0684882244	 1.2975677833	 0.0087729578	 0.042174
N	 1.306729664	 1.784341339	-0.0005023287	-0.265065
N	 2.0417741787	 0.644481385	-0.0138792821	-0.031052
C	 3.3966996959	 0.5295033747	-0.0276017561	 0.108587
N	 3.9848876807	-0.6288446375	-0.0396588899	-0.275865
C	 3.1990428406	-1.7474130036	-0.038222572	 0.008044
C	 1.8281961616	-1.7265065287	-0.0248638391	-0.240959
C	 1.2009936829	-0.4647209481	-0.0118611296	 0.446558
N	-0.0618918418	-0.0509337495	 0.002622857	-0.358532
H	-0.7821401231	 1.9640054119	 0.0206696012	 0.139625
H	 3.9553872085	 1.4591694717	-0.027883242	 0.160396
H	 3.7368349455	-2.6896858238	-0.0486020446	 0.129713
H	 1.231848042	-2.6292968645	-0.0240700318	 0.136376
