19
gdb 96279	2.05392	1.86172	1.13071	4.9978	71.39	-0.2679	0.0277	0.2956	1113.022	0.160003	-460.210429	-460.20195	-460.201006	-460.244198	31.755	
C	 0.2877388044	 1.421832053	 0.3455219647	-0.385575
C	-0.1794582681	 0.0516833627	-0.1330431527	 0.117561
C	 0.7716921103	-0.5741209332	-1.1518720455	-0.216752
C	 0.3195371907	-1.9454599966	-1.6755405095	-0.227756
C	-0.1374498855	-2.8669201839	-0.5408154388	-0.06557
O	 0.7164290133	-2.7487284613	 0.6089310941	-0.239437
C	 0.5526809106	-1.6905110254	 1.4327979951	 0.446161
O	 1.1470930234	-1.6138497229	 2.4656636116	-0.352604
O	-0.3865522384	-0.7862402847	 1.0418018371	-0.274447
H	 1.2816911038	 1.3535455251	 0.7982268463	 0.136911
H	 0.3332560599	 2.1245030991	-0.4927929848	 0.11572
H	-0.402717205	 1.8155538562	 1.0947290129	 0.135363
H	-1.1804492354	 0.1366745814	-0.5727582053	 0.095111
H	 0.8792083522	 0.1253326604	-1.9873776156	 0.110503
H	 1.7666036535	-0.6608850279	-0.6989074423	 0.12991
H	-0.5101154548	-1.8345524225	-2.3837876059	 0.10866
H	 1.1467799984	-2.4057206468	-2.2251617658	 0.115437
H	-1.1666892488	-2.6488922319	-0.2450892054	 0.127965
H	-0.0744558445	-3.9180508407	-0.8296421901	 0.122837
