19
gdb 66101	2.60464	1.48593	1.31686	4.3358	78.18	-0.2472	0.0347	0.2818	1061.9293	0.160836	-382.071668	-382.063507	-382.062562	-382.104037	31.823	
C	-0.0188969175	 1.5269139154	-0.0039293285	-0.433161
C	 0.0280440139	-0.0124450061	-0.0161684629	 0.108824
C	 0.8366068519	-0.6045180777	-1.2107307307	-0.282618
C	 1.4015063164	-1.9301148952	-0.6553364372	-0.164895
N	 1.53972106	-1.793828031	 0.8084431702	-0.088481
C	 2.2291405581	-0.5633110642	 1.2216630784	-0.269806
C	 0.7451849183	-0.6203152333	 1.2017738047	-0.026686
C	-1.3480908231	-0.5351572127	-0.0464643281	 0.264699
N	-2.4312761178	-0.9381058119	-0.0738960436	-0.342833
H	 0.9981839637	 1.9262766388	 0.0302123341	 0.124891
H	-0.5159487092	 1.9102835933	-0.8991922438	 0.137514
H	-0.5645134275	 1.8949120857	 0.8691071987	 0.138278
H	 0.216894657	-0.7479047611	-2.0974223521	 0.128767
H	 1.6320152495	 0.0955088147	-1.4798966588	 0.112682
H	 0.7006253566	-2.751119958	-0.8358415685	 0.130417
H	 2.3611029285	-2.2031850423	-1.1036111145	 0.114078
H	 2.7506383623	-0.635131978	 2.1711869759	 0.125925
H	 2.7451548396	 0.0319989082	 0.4726484057	 0.112006
H	 0.1823841394	-0.6897112545	 2.1276655009	 0.1104
