20
gdb 7175	5.97607	0.75171	0.70098	3.1663	72.51	-0.2488	-0.0209	0.228	1574.0816	0.173922	-386.148286	-386.138128	-386.137184	-386.18446	34.782	
C	 0.0564724936	 1.566498268	 0.1063620126	-0.393275
C	-0.0451424772	 0.0393958366	-0.03509252	 0.004406
C	 0.6219670959	-0.4848497017	-1.3173528751	-0.166128
C	 0.0009354378	 0.0263503811	-2.6130434307	-0.086271
O	 0.6291257838	-0.6642652003	-3.6831625097	-0.419647
C	 0.560449617	-0.6624914311	 1.2005002948	-0.274736
C	-0.2346419199	-0.4037109741	 2.4590306578	 0.158242
O	 0.2086984318	 0.0370309514	 3.4879678589	-0.241231
H	 1.1047403332	 1.8873195554	 0.0968370644	 0.122528
H	-0.4604519033	 2.0847996908	-0.7059100796	 0.118674
H	-0.3823966973	 1.9110881958	 1.0481771243	 0.12667
H	-1.1116131349	-0.2303886006	-0.0768335288	 0.076804
H	 1.6893568284	-0.2296118608	-1.3136312599	 0.106142
H	 0.5645025968	-1.5797631891	-1.3383138148	 0.105249
H	-1.0864321496	-0.1604966905	-2.6016273177	 0.083322
H	 0.1438367254	 1.1130168204	-2.7094181405	 0.089723
H	 0.2848785742	-0.315123637	-4.5102832624	 0.286414
H	 0.5509252886	-1.7495310873	 1.0338488286	 0.116334
H	 1.5976619681	-0.3549911162	 1.3681264713	 0.118854
H	-1.3179014423	-0.6620720907	 2.3695453664	 0.067924
