16
gdb 41118	3.65947	1.95379	1.58625	2.4207	71.35	-0.2196	-0.0125	0.2071	840.1786	0.12663	-400.666559	-400.660622	-400.659677	-400.696469	25.255	
C	 0.1062686851	 1.4796775292	-0.1672527613	-0.17172
O	 1.4912600929	 1.3742269379	 0.2569075186	-0.300054
C	 1.3181240361	 0.0104121477	 0.7251621773	 0.086149
C	 1.7299848447	-1.0645478393	-0.2322602569	-0.094404
C	 0.6054413995	-2.0789690629	-0.4720453992	-0.082112
C	-0.5977971533	-2.1692706167	 0.4125075311	-0.093484
C	-1.0836059961	-0.9358246232	 0.6044847206	-0.204239
C	-0.0784384455	-0.0152488659	 0.0052986686	 0.261828
N	 0.5673482595	-0.7832253951	-1.1566274923	-0.140359
H	-0.4779436847	 2.1026071134	 0.5235765112	 0.101647
H	 0.009222155	 1.8573446246	-1.189691318	 0.120967
H	 1.5058069834	-0.0745916641	 1.7983735644	 0.078437
H	 2.7285593817	-1.2696342723	-0.6069862316	 0.105366
H	 0.8878252003	-2.9263555194	-1.0899567144	 0.101024
H	-0.9816244239	-3.0975853591	 0.8140162519	 0.114197
H	-1.9118396744	-0.6413253748	 1.23479362	 0.116757
