12
gdb 5056	3.89233	2.16098	1.45535	1.6683	66.82	-0.2527	-0.0948	0.1579	787.3565	0.085405	-377.538467	-377.532265	-377.531321	-377.56895	22.731	
O	 0.1154283345	 0.0806137824	-0.7180632946	-0.334722
C	 0.0019425214	 1.2065489549	-0.2684893409	 0.313496
C	-1.274658169	 1.8558053879	 0.0206804511	-0.177127
C	-1.4947562655	 3.1874302656	 0.1947191776	 0.022571
N	-0.6742408493	 4.2485321766	-0.0675344366	-0.233138
C	 0.6136619986	 4.1764284287	-0.1606085781	 0.094819
N	 1.4773195751	 3.1844578654	 0.2250246321	-0.19358
C	 1.2159312336	 1.9300662045	 0.2406341822	-0.042022
H	-2.1155059866	 1.175057838	 0.1252376947	 0.13048
H	-2.5009215762	 3.4926682467	 0.4761803396	 0.129243
H	 1.1240341522	 5.0795504622	-0.4928425152	 0.139074
H	 1.978561051	 1.2617453773	 0.648614828	 0.150906
