18
gdb 69787	2.57542	1.87855	1.29745	3.3323	75.27	-0.2265	-0.0236	0.2028	999.1262	0.148669	-401.935186	-401.927511	-401.926567	-401.967051	30.393	
C	-0.0002270963	 1.5447540875	-0.0075177819	-0.470452
C	 0.0663868283	 0.03703304	 0.0367102081	 0.196569
C	-0.8356573658	-0.7385269205	 0.9895410915	-0.325573
C	 0.6521165056	-0.7836912512	 1.1776003993	-0.08431
C	 1.3762822451	-1.9827975344	 0.5689031069	-0.048164
N	 0.48357183	-2.9272269788	-0.1228409035	-0.336265
C	 1.2515446025	-1.9221311759	-0.9101887852	-0.159522
C	 0.4870380866	-0.6531881226	-1.244487925	 0.387879
O	 0.3890724868	-0.1793766916	-2.3506623823	-0.32984
H	 0.9577695988	 1.9794598205	-0.3111377617	 0.122507
H	-0.7523976663	 1.8716786354	-0.7318830608	 0.138832
H	-0.2663002449	 1.9522077234	 0.9723752247	 0.111122
H	-1.4067601485	-0.1212786184	 1.6754960717	 0.112469
H	-1.3315888022	-1.6368629263	 0.6477921258	 0.151081
H	 1.1066590832	-0.2990198509	 2.0337965952	 0.091307
H	 2.2710480794	-2.357440949	 1.0527278403	 0.095865
H	 0.9495460062	-3.8262435012	-0.2259681891	 0.239942
H	 2.0058510515	-2.2582165961	-1.612322534	 0.106553
