17
gdb 70591	2.61282	1.7826	1.42697	2.9119	67.11	-0.2486	0.0632	0.3118	949.6027	0.135985	-458.917048	-458.909673	-458.908729	-458.948434	29.637	
O	-0.0311708916	 1.3659778359	 0.0255916567	-0.454837
C	 0.0156626802	-0.0335090605	 0.030532388	 0.33044
C	-0.275186707	-0.6951842681	 1.3444253924	-0.328574
C	 1.1258686304	-0.7317850939	 0.7781747453	 0.006778
O	 1.5860975531	-1.9604096429	 0.2952326593	-0.247077
C	 1.755423382	-2.0385460808	-1.1093837769	-0.113021
C	 0.4975546017	-1.6657107615	-1.8715812924	 0.033298
O	-0.7369202872	-2.057834626	-1.267568209	-0.243042
C	-0.4004317271	-0.6691280212	-1.2718897701	-0.038834
H	 0.6819719492	 1.6915163584	-0.5355904107	 0.283125
H	-0.4596709988	-0.0362015915	 2.1846715202	 0.12311
H	-0.8292401664	-1.6256132889	 1.3203749326	 0.143798
H	 1.8891932294	-0.1127280353	 1.2474643482	 0.093515
H	 2.5808355953	-1.3946412512	-1.4595591711	 0.090779
H	 2.0342239614	-3.077330191	-1.3121582864	 0.124758
H	 0.5477787052	-1.7828840802	-2.9542808157	 0.096734
H	-1.0314337998	-0.0382195214	-1.8970478704	 0.099049
