17
gdb 53161	4.769	0.83013	0.77017	1.5886	79.09	-0.2369	0.0464	0.2832	1502.686	0.133713	-421.72219	-421.713182	-421.712237	-421.757744	32.317	
C	 0.0001024069	 1.5177258355	-0.0221099106	-0.502839
C	 0.0164837796	 0.0624600077	-0.0118225884	 0.170587
C	 0.0210373909	-1.1417730479	 0.0037939738	 0.022507
C	 0.0547605174	-2.5862423502	-0.0043629055	-0.230494
C	-0.0427809137	-3.3523999385	 1.3530249983	 0.003638
O	-1.459491872	-2.9634451991	 1.4691712371	-0.304691
C	-1.294995412	-3.3747780233	 0.0608065949	 0.028883
C	-0.5434477297	-4.6177370107	 0.5825975344	 0.090529
O	 0.2721823508	-5.2999118169	-0.3243826892	-0.421464
H	 1.0158633222	 1.9287551983	-0.0167046174	 0.145949
H	-0.5067389999	 1.9034444173	-0.9138452099	 0.147269
H	-0.523795879	 1.915484968	 0.8540702203	 0.149985
H	 0.7839796406	-2.9968473733	-0.7062658742	 0.113762
H	 0.582936333	-3.2560075943	 2.2407936598	 0.096834
H	-2.1618641664	-3.3032914301	-0.5955396512	 0.102346
H	-1.1688624717	-5.2702202332	 1.1998638202	 0.093245
H	 0.7462471732	-5.9902679592	 0.1494239476	 0.293953
