15
gdb 24098	6.98146	0.72448	0.6803	4.5567	71.33	-0.2587	-0.0112	0.2476	1540.4801	0.114133	-416.85696	-416.849031	-416.848087	-416.89079	27.911	
N	-0.0390028203	-1.1647423007	-0.1049270772	-0.304475
C	-0.0364095613	-0.0110570727	-0.0385344934	 0.25552
C	-0.0071475651	 1.4462948023	 0.0489424356	-0.33024
C	 1.4337943259	 2.0091223367	 0.0112385791	-0.319267
C	 1.4339096043	 3.5019703197	 0.0479663046	 0.259234
C	 2.0263368285	 4.3555880927	 0.9178880021	-0.120784
O	 1.740271494	 5.6348378593	 0.526912031	-0.134814
C	 0.9734031291	 5.4812706357	-0.5736102302	 0.079949
N	 0.7533182704	 4.2542347884	-0.9110080552	-0.302888
H	-0.5813158781	 1.8697415586	-0.7811004131	 0.177665
H	-0.5080275416	 1.7546893311	 0.9730645366	 0.153564
H	 2.0105401857	 1.613139667	 0.8516915095	 0.129339
H	 1.9204029391	 1.6603417023	-0.9061825826	 0.143827
H	 2.6416586362	 4.2452557784	 1.7939525708	 0.154859
H	 0.6267539831	 6.3824489412	-1.0545529375	 0.158511
