23
gdb 115149	2.943	1.08494	0.87974	2.8213	85.2	-0.2316	-0.0129	0.2187	1405.175	0.205494	-388.33793	-388.328163	-388.327219	-388.372717	36.715	
C	-0.101808555	 1.6719915146	 0.1205852481	-0.388549
C	 0.0009493804	 0.1426991801	 0.099414499	-0.195792
C	-1.349100241	-0.5619796084	-0.0683214533	 0.033248
C	-2.0576848013	-0.3169497354	-1.4234264573	-0.22705
C	-3.163667337	-1.3803560722	-1.4661602691	-0.324023
C	-2.5988076289	-2.5625153845	-0.6730883815	 0.404796
O	-3.0539781253	-3.6776976321	-0.6486012437	-0.325641
C	-1.3309950172	-2.1062489749	 0.0695038922	-0.11856
C	-0.1156396697	-2.8219309528	-0.5505790766	-0.399165
H	 0.8790983759	 2.1288640223	 0.2833508189	 0.11384
H	-0.495373013	 2.065080945	-0.8222208185	 0.119063
H	-0.7645406039	 2.0129172325	 0.9240608081	 0.114395
H	 0.6793163371	-0.1640695712	-0.706218138	 0.09823
H	 0.4655729261	-0.1968626662	 1.034327379	 0.09577
H	-2.019904612	-0.1822076184	 0.7171286161	 0.070811
H	-2.4425494171	 0.7010539655	-1.5182192246	 0.103606
H	-1.3500515103	-0.4718655312	-2.247711956	 0.102906
H	-4.0644255724	-1.0348230755	-0.9411123333	 0.129021
H	-3.4796583526	-1.6934294293	-2.4641211255	 0.125754
H	-1.4088817595	-2.4201325667	 1.1158223712	 0.092809
H	 0.0332370466	-2.5453638518	-1.5999904828	 0.117238
H	 0.8030416489	-2.5847416758	-0.0075500931	 0.119909
H	-0.273059839	-3.9029721934	-0.5097769894	 0.137384
