21
gdb 93023	2.28517	1.82596	1.19489	1.7393	83.04	-0.2351	0.0044	0.2395	1108.6298	0.182678	-387.099687	-387.09106	-387.090116	-387.132352	34.122	
C	 0.1091655931	 1.5704352991	-0.0025919919	-0.408345
C	 0.0225341604	 0.0370547271	 0.0236964583	-0.049678
C	 0.5987290551	-0.5481718895	-1.2869815009	-0.263205
C	 0.7678993827	-2.0423521246	-1.2577812607	-0.104647
C	 1.0619877109	-2.6858763117	-0.1278433763	-0.033707
C	 1.214973463	-1.9413762752	 1.1437351603	-0.064299
O	 2.1010374269	-0.7914655948	 1.1468106524	-0.302336
C	 0.6910878162	-0.5641860859	 1.2592807963	 0.408431
C	 0.2349517513	-0.0569416208	 2.6096881799	-0.476564
H	 1.1539334187	 1.8972794487	 0.0401030169	 0.127816
H	-0.3278678777	 1.9641900403	-0.9258513926	 0.11273
H	-0.4240949706	 2.0285832542	 0.8349061579	 0.114772
H	-1.0374698934	-0.2507738311	 0.083140509	 0.076714
H	-0.0482925128	-0.2534195033	-2.1206412461	 0.098592
H	 1.5742414313	-0.0812872513	-1.4781569661	 0.127294
H	 0.6693763366	-2.5875927883	-2.1923604366	 0.09372
H	 1.1929311692	-3.7632493204	-0.1043167346	 0.087787
H	 1.2887188359	-2.5362270363	 2.0529907601	 0.082327
H	 0.4948145009	 0.997671525	 2.7428277855	 0.128668
H	-0.8510788858	-0.1528571354	 2.7171941566	 0.118893
H	 0.715191118	-0.6236618758	 3.4111801123	 0.125035
