18
gdb 6601	4.77014	1.42082	1.34734	2.3296	68.67	-0.2391	0.0798	0.3189	983.3928	0.152453	-384.879977	-384.871993	-384.871049	-384.912024	30.572	
C	-0.2119323438	 1.3278297833	 0.0989120326	-0.50794
C	 0.0714489518	-0.1394556019	 0.031789964	 0.405528
C	 0.660072901	-0.9865659512	-1.1316054714	-0.307405
C	 0.1248608712	-1.9393260331	-0.0376244419	 0.389598
C	-0.1467432616	-3.4142312966	-0.0415415679	-0.186045
O	-0.8582217583	-3.7961362262	 1.1202899085	-0.416781
C	 0.7936229707	-1.0615180977	 1.048170173	-0.283868
O	-1.0903631206	-1.0774992218	 0.0673074959	-0.390239
H	 0.7231917	 1.8953392387	 0.0602980547	 0.127604
H	-0.8403379995	 1.6374683804	-0.7415689121	 0.133589
H	-0.7291737586	 1.5764527749	 1.0305483977	 0.133793
H	 0.0803031955	-0.9678955718	-2.0558842389	 0.104348
H	 1.7395376608	-0.9493138148	-1.2998520612	 0.093736
H	-0.695113855	-3.6746498374	-0.9613650365	 0.096887
H	 0.79637365	-3.9714178674	-0.0442379454	 0.113999
H	-1.5793476344	-3.161725849	 1.2141277696	 0.294908
H	 1.885929553	-1.0332049014	 1.0830964417	 0.091495
H	 0.334557368	-1.1158134669	 2.0355920177	 0.106791
