27
gdb 121914	3.15258	0.70257	0.60727	0.8389	93.96	-0.2453	0.0847	0.33	2000.5872	0.248855	-390.704321	-390.692132	-390.691188	-390.742583	43.772	
C	-0.0446700496	 1.4827197931	 0.1173308092	-0.382286
C	-0.0483317063	-0.0373576281	-0.0614681427	-0.181208
C	 0.8046904465	-0.4869139009	-1.2411787802	-0.040941
O	 0.7396412688	-1.89388474	-1.3334849121	-0.263592
C	 1.4145121033	-2.4695496202	-2.4495978705	 0.158997
C	 2.917386349	-2.5746368145	-2.1701291259	-0.410981
C	 0.7398506386	-3.8276831827	-2.7209310058	 0.036087
C	-0.7579335183	-3.6469686742	-3.0034298124	-0.393796
C	 1.4155033313	-4.5945158684	-3.8664004221	-0.399547
H	 0.9677186942	 1.8620364175	 0.2955963806	 0.115371
H	-0.4359503019	 1.990334909	-0.7713856933	 0.115348
H	-0.6640718496	 1.7805605939	 0.9682423052	 0.116348
H	 0.3251646796	-0.5281500987	 0.8445847763	 0.10551
H	-1.0713687822	-0.4003952663	-0.2132559648	 0.104774
H	 0.4375622082	-0.0258994025	-2.1748210564	 0.080892
H	 1.8425652918	-0.1413510462	-1.1017843824	 0.082986
H	 1.2576525538	-1.8240314236	-3.3324365495	 0.056645
H	 3.1058344867	-3.2819732203	-1.3556365628	 0.119215
H	 3.4676940544	-2.906597932	-3.0543499523	 0.116908
H	 3.3276109606	-1.6041474795	-1.8770951626	 0.114539
H	 0.8455076897	-4.4154858242	-1.7982651959	 0.077715
H	-1.2524856559	-4.6173611885	-3.1151466185	 0.104155
H	-1.2442413818	-3.100395771	-2.1937622519	 0.127613
H	-0.9140148963	-3.0879994715	-3.9347665468	 0.102756
H	 2.4509421703	-4.8603655002	-3.6383764157	 0.114511
H	 0.8744842888	-5.523539621	-4.0722900404	 0.111881
H	 1.4146688962	-4.003909049	-4.7909619364	 0.110099
