17
gdb 43108	2.69743	1.93078	1.47932	2.7474	71.03	-0.2397	-0.0265	0.2132	913.4329	0.137746	-421.821118	-421.814273	-421.813329	-421.852929	26.798	
O	-0.0235287971	-0.0072509222	-0.0835488796	-0.305145
C	-0.0485872241	 1.1856102307	 0.0089604972	 0.415962
C	-1.1724496163	 2.2264231158	 0.0101674765	-0.17387
C	-1.5402450763	 2.7015836729	 1.4493044199	-0.249822
C	-0.3059463886	 3.6522096137	 1.4577737106	 0.109036
O	 0.7899115701	 3.1782735306	 2.2251739036	-0.269825
C	 1.7362716314	 2.4861858352	 1.4109221077	-0.091875
C	 1.0659873648	 2.2614362698	 0.0537773568	-0.18014
C	-0.0493325926	 3.3371696186	-0.040745785	-0.078741
H	-1.9798112445	 2.0925716483	-0.7096321715	 0.094267
H	-2.4802142508	 3.2590421158	 1.4420519587	 0.113058
H	-1.574202729	 1.9490287917	 2.2399568473	 0.119937
H	-0.5105847569	 4.6869788137	 1.7426630947	 0.086151
H	 2.6463078384	 3.093091187	 1.3010030113	 0.102489
H	 2.0101600033	 1.5456102279	 1.9017926713	 0.124059
H	 1.7769212963	 2.1785253894	-0.7712813889	 0.105453
H	 0.0103123019	 4.129388161	-0.7820596006	 0.079006
