22
gdb 61602	2.94738	0.86683	0.79959	0.6795	89.06	-0.225	0.053	0.278	1552.4483	0.191708	-367.14754	-367.137135	-367.136191	-367.1834	38.467	
C	 0.0808164797	 1.3305961243	-0.4368970571	-0.390139
C	-0.0291864392	-0.0989540909	 0.1319151713	-0.154367
C	 0.6421698835	-0.2477103966	 1.5247448554	-0.220822
C	 2.1352514649	 0.0113375573	 1.5292308003	 0.01404
C	 3.0217070739	-0.6483104787	 2.5320992562	-0.266667
N	 3.1428627843	-0.9734204145	 1.1166165751	-0.079922
C	 2.7458592312	-2.3097392301	 0.6989046818	-0.315329
C	-1.4288373404	-0.5155417589	 0.2081055207	 0.319119
C	-2.5822665551	-0.8446117711	 0.2934321332	-0.464081
H	 1.1266719091	 1.6153875764	-0.5778454331	 0.12381
H	-0.4237311354	 1.3981877815	-1.4038842211	 0.12726
H	-0.3882400622	 2.0516010326	 0.2400228296	 0.124129
H	 0.4857284796	-0.777743377	-0.5613689699	 0.110734
H	 0.1647454731	 0.4588840268	 2.2154614242	 0.110897
H	 0.4222480889	-1.2451423332	 1.9142258085	 0.110295
H	 2.4095630698	 1.0206097523	 1.2255928935	 0.091711
H	 3.8579016129	-0.1161646829	 2.9790764155	 0.112501
H	 2.5554878244	-1.3872323261	 3.1845990283	 0.103517
H	 1.8968456077	-2.738523967	 1.2535861247	 0.102988
H	 2.4913566601	-2.3002909419	-0.3661940051	 0.122608
H	 3.600765627	-2.9807367354	 0.8318464661	 0.124808
H	-3.5995029378	-1.1421030969	 0.3571214717	 0.192909
