20
gdb 120396	3.13815	0.87712	0.77079	2.8411	76.6	-0.2489	0.0216	0.2706	1542.9912	0.169542	-440.308212	-440.298118	-440.297174	-440.344042	35.837	
C	-0.1025128668	 1.5516695984	-0.0236928402	-0.378463
C	-0.0883493589	 0.0224509784	-0.0985390414	-0.178562
C	 0.858066558	-0.5114941459	-1.1800484762	-0.158205
C	 0.8999273689	-2.031876775	-1.2459418204	 0.007428
N	-0.3261032712	-2.6890151254	-1.7476633499	-0.333558
C	 0.2160392405	-3.1391731861	-2.919997728	 0.38926
O	-0.2345435939	-3.6534641813	-3.9112228355	-0.372011
C	 1.623837275	-2.6583560701	-2.4876323994	-0.033641
O	 2.2585648179	-1.7598689654	-3.3586661048	-0.428183
H	 0.8943429342	 1.9446241684	 0.2042062532	 0.118192
H	-0.4198690896	 1.9904295757	-0.9758561238	 0.118886
H	-0.7870202679	 1.9068129896	 0.752683688	 0.11361
H	 0.2009370411	-0.391177734	 0.8768768651	 0.096432
H	-1.1071990582	-0.3393552197	-0.2925213465	 0.088886
H	 0.5741371306	-0.1186529738	-2.1622012372	 0.105189
H	 1.877743742	-0.1533373739	-0.9895085942	 0.109418
H	 1.2320125702	-2.451383613	-0.28879239	 0.082644
H	-1.2823148599	-2.6718228651	-1.4229726032	 0.252058
H	 2.28804071	-3.4878068686	-2.2104648257	 0.0977
H	 1.9953344782	-1.9992277529	-4.2549353198	 0.302922
