12
gdb 21350	5.51236	2.28346	1.61461	1.3887	61.35	-0.2157	-0.0033	0.2125	709.815	0.08899	-373.726304	-373.720901	-373.719957	-373.755521	21.374	
N	 0.0338715872	 1.3219926527	 0.0092447935	-0.18476
C	 1.2929847037	 1.8473990662	-0.0001464756	-0.173371
C	 2.1340026799	 0.7474182868	-0.0142601098	 0.226005
N	 3.4549322339	 0.3222070834	-0.0293885521	-0.351894
C	 3.3541182235	-0.9812492404	-0.0354764757	 0.006491
N	 2.0539818915	-1.4706145151	-0.0255283176	-0.394317
C	 1.250052913	-0.3537364645	-0.0116331242	 0.419736
N	-0.0370200242	-0.0422661728	 0.0025560714	-0.367951
H	-0.8300488853	 1.8361085311	 0.0204249882	 0.276638
H	 1.4576389956	 2.9121308027	 0.0040102423	 0.138785
H	 4.1928510565	-1.663656117	-0.047320085	 0.132325
H	 1.7779010347	-2.4367550631	-0.0278970554	 0.272314
