18
gdb 108841	2.99486	1.20398	0.96762	2.7234	72.99	-0.2357	0.0041	0.2398	1225.2368	0.148662	-439.05216	-439.043891	-439.042946	-439.085168	31.769	
O	 0.1896477865	 1.3595542744	 0.031568492	-0.405245
C	 0.0252030721	-0.0417260842	 0.1156733092	-0.170031
C	-1.4047152198	-0.4907960758	 0.1336291112	 0.314652
C	-2.5041800055	 0.2674473936	 0.16305484	-0.234418
C	-3.7887287508	-0.5471891733	 0.0771576766	 0.106631
O	-4.5787205881	-0.2172781438	-1.0534541329	-0.437944
C	-3.2639726709	-1.9888542329	 0.0285151588	-0.072633
N	-2.5251880239	-2.235312287	-1.2332073756	-0.352023
C	-1.7878269697	-1.9397576206	 0.0355125737	-0.157624
H	-0.2417325451	 1.6502551004	-0.7791164194	 0.286121
H	 0.5543408517	-0.5643697989	-0.7008509373	 0.103
H	 0.5270850223	-0.3468006399	 1.0438675165	 0.123887
H	-2.5214465831	 1.3505487978	 0.1716485748	 0.101963
H	-4.4358745319	-0.3861551824	 0.9468629885	 0.088215
H	-4.0746380813	-0.5478587024	-1.8103816971	 0.285191
H	-3.8312882484	-2.7988386388	 0.4718669485	 0.093825
H	-2.5039458991	-3.2393221898	-1.4049566697	 0.233311
H	-1.1730368049	-2.7211177866	 0.4703021424	 0.093123
