14
gdb 125080	3.24202	1.27822	0.92206	6.3151	69.61	-0.2445	-0.0462	0.1983	1181.5704	0.099424	-470.006911	-469.998325	-469.997381	-470.042619	29.149	
C	-0.0161214775	 1.5178159666	 0.0554920753	-0.525823
C	-0.014282761	 0.0263652334	 0.0142809373	 0.147703
C	 0.0064768036	-0.8489750948	-1.0454089965	 0.464338
N	 0.0319143556	-0.5690703963	-2.3941435822	-0.410538
C	 0.0528086716	-1.4650860599	-3.4552608367	 0.152408
O	 0.052009828	-2.6616536441	-3.3650001886	-0.259068
O	-0.0009314339	-2.0939863227	-0.6098113569	-0.198126
N	-0.0288192429	-1.9876370962	 0.8533199175	-0.028964
N	-0.03496367	-0.7664120894	 1.131390453	-0.146117
H	 0.878450607	 1.9469020582	-0.4113018973	 0.135053
H	-0.8933798599	 1.9456438836	-0.444162281	 0.135075
H	-0.0356647443	 1.845474415	 1.0965928892	 0.165898
H	 0.0356771793	 0.4121022561	-2.630970066	 0.27165
H	 0.0706442544	-0.9131287093	-4.4143626771	 0.09651
