18
gdb 32874	6.21136	0.7666	0.69775	2.4765	77.24	-0.1817	0.0419	0.2236	1592.6489	0.147217	-439.101205	-439.091846	-439.090902	-439.135973	33.663	
C	 0.7402359229	 1.4908683794	-0.4383663858	-0.223276
O	 0.9008379664	 0.0974712994	-0.3099723003	-0.243089
C	-0.2139877968	-0.6318579129	-0.7972307542	-0.181991
C	 0.0996968684	-2.0869317784	-0.7189234507	 0.341629
C	-0.7019358998	-3.1839400064	-0.4716001288	-0.406471
C	 0.125137632	-4.3362178167	-0.589451788	 0.331483
O	-0.2332440034	-5.6457533453	-0.4333753619	-0.450967
C	 1.4000102586	-3.9183005447	-0.8956134112	-0.177657
N	 1.357100163	-2.5425043412	-0.9895219779	-0.288275
H	 0.5942862936	 1.790919034	-1.4882960441	 0.105596
H	-0.1190485774	 1.8569339872	 0.1447372514	 0.108205
H	 1.6500999137	 1.9611180553	-0.0579906596	 0.128944
H	-1.120598385	-0.4129160913	-0.2109019426	 0.102343
H	-0.4231919416	-0.3178813211	-1.8368015955	 0.096747
H	-1.7582263925	-3.1631205237	-0.2451079636	 0.082914
H	-1.1645907861	-5.677250166	-0.1986495547	 0.294163
H	 2.3090848943	-4.4766059509	-1.0381710447	 0.115454
H	 2.1487175498	-1.9312986771	-1.0884913278	 0.26425
