15
gdb 85479	2.54913	1.5017	1.11431	4.1048	67.25	-0.2758	-0.0117	0.2641	1082.3427	0.112777	-453.975491	-453.967392	-453.966448	-454.008625	29.322	
C	-0.4416767346	 1.5365424184	 0.0563224694	-0.423737
C	 0.1853270466	 0.1638858764	-0.0600987232	 0.097013
O	 1.2753040492	 0.1912897126	-0.9883356274	-0.230854
C	 2.2130831775	-0.7077605649	-0.6171954482	 0.500638
N	 3.1707055108	-1.0466332232	-1.3486516399	-0.563928
O	 1.9440998984	-1.1764349729	 0.6524354782	-0.244509
C	 0.8654619966	-0.4250728849	 1.2031439227	-0.07024
C	 1.3701739217	 0.5867610736	 2.14617617	 0.292064
N	 1.7450508494	 1.3813025967	 2.8958207624	-0.311198
H	 0.2902322291	 2.2732454109	 0.3946073441	 0.161517
H	-0.8309170255	 1.8450206164	-0.9165668665	 0.149009
H	-1.2727431315	 1.5129253639	 0.7674788375	 0.136834
H	-0.5502980732	-0.5694484254	-0.4148801888	 0.113674
H	 3.7871166846	-1.6908343531	-0.8595684337	 0.242023
H	 0.2048181011	-1.1083070946	 1.7423841433	 0.151694
