18
gdb 37767	2.96771	2.22371	2.09457	1.6615	77.6	-0.2023	-0.001	0.2013	790.404	0.152071	-364.747562	-364.742022	-364.741077	-364.776976	25.047	
C	-0.0070073393	 1.5057864005	 0.0070125915	-0.170915
C	 1.5262624755	 1.5144865758	-0.0685255369	-0.069169
C	 2.1920474592	 0.9917010778	 1.2911692824	-0.071892
C	 1.3486212589	 1.1538149428	 2.5293381819	-0.079712
C	 0.3612342802	 0.248150188	 2.5301135692	-0.087613
C	 0.4604030571	-0.6172387616	 1.3003943029	-0.02288
C	 1.9231444113	-0.4712944811	 0.8265383794	-0.063202
C	 1.4025091916	 0.032606742	-0.5338940642	 0.007937
N	-0.0411353507	 0.0025887767	-0.0378704757	-0.179052
H	-0.4950167774	 1.9636101273	 0.8723649448	 0.100231
H	-0.4697592989	 1.8908069512	-0.9080014271	 0.102019
H	 2.0523083488	 2.3098858456	-0.5984938687	 0.063005
H	 3.2363691593	 1.2940493601	 1.3793113873	 0.068206
H	 1.484642855	 1.9427105867	 3.2608744323	 0.09893
H	-0.4361922009	 0.1767680232	 3.2606365046	 0.098181
H	 0.041990592	-1.6206566139	 1.395205315	 0.074062
H	 2.6610483844	-1.2532969816	 1.0098020978	 0.065249
H	 1.6292979141	-0.3637296293	-1.5232669564	 0.066615
