17
gdb 9133	3.86462	0.89642	0.77092	4.1325	77.94	-0.2659	0.0209	0.2867	1496.202	0.14046	-326.7219	-326.712344	-326.7114	-326.75824	32.521	
C	 0.0470076506	 1.5516915991	-0.1603115562	-0.366871
C	-0.0090600145	 0.0458713997	 0.1559176941	-0.316043
C	-1.3670442617	-0.4880157976	 0.1550550117	 0.083091
C	-2.4980625123	-0.8991499412	 0.1545497746	 0.08287
C	-3.8613345046	-1.433556931	 0.1427741151	-0.298674
C	-3.8902928559	-2.9612063451	-0.1127508409	-0.379636
C	-4.5648434869	-1.1108924092	 1.3975359302	 0.289003
N	-5.1327662722	-0.8747690588	 2.375300585	-0.323253
H	 1.0826228812	 1.9033170905	-0.146037342	 0.118766
H	-0.373793653	 1.7579732977	-1.1480432979	 0.129063
H	-0.5224764481	 2.1243940293	 0.5762576643	 0.13501
H	 0.5966113214	-0.5076350619	-0.5728197112	 0.132888
H	 0.4494788562	-0.1428477889	 1.1347176393	 0.137496
H	-4.4263670953	-0.9439915361	-0.6626942774	 0.153996
H	-3.3527913026	-3.4886877075	 0.6776643525	 0.148161
H	-4.9214670183	-3.3213478319	-0.1415885335	 0.137653
H	-3.4076438041	-3.1752051472	-1.0686389876	 0.13648
