21
gdb 122313	5.08654	0.71045	0.68556	1.3059	80.17	-0.2477	0.0852	0.3329	1718.2106	0.180894	-424.179292	-424.169764	-424.16882	-424.214673	34.366	
C	-0.2875574052	 1.3571491945	 0.1142576812	-0.2294
O	-0.0069966234	-0.0142970457	-0.0259180407	-0.230524
C	 0.6254508408	-0.5632840489	 1.1086948782	-0.048994
C	 0.8524101354	-2.0517659808	 0.8525527318	-0.333539
C	 1.5594915224	-2.7215382275	 1.9879475096	 0.429126
C	 3.0413310175	-2.6169414969	 2.4083098705	-0.288501
C	 2.9259804579	-4.0608892429	 3.0115857753	-0.236668
C	 1.4570340692	-4.0730177167	 2.5694618263	-0.047997
O	 0.819480614	-2.9544690548	 3.2008815778	-0.294132
H	 0.6295219366	 1.9498586183	 0.2627362486	 0.102059
H	-0.7754948702	 1.6879313413	-0.8059175483	 0.126141
H	-0.9609039637	 1.5526943143	 0.9639623565	 0.10508
H	 1.5860685992	-0.0529328251	 1.2985766027	 0.085559
H	 0.0028617293	-0.4279247612	 2.0080248128	 0.104525
H	-0.1157553198	-2.5361580433	 0.6901344872	 0.117898
H	 1.4376393085	-2.1662889117	-0.0672957561	 0.110261
H	 3.7284031872	-2.5716534191	 1.5595361234	 0.105587
H	 3.2693771237	-1.8078370227	 3.106042555	 0.107633
H	 3.5448427636	-4.7879563698	 2.4803873208	 0.105225
H	 3.0846519973	-4.1621701565	 4.0876678033	 0.111257
H	 0.8246437897	-4.9135235346	 2.3043258741	 0.099404
