17
gdb 45106	2.81612	1.809	1.27814	3.5041	72.32	-0.2264	0.0204	0.2468	975.8555	0.138753	-417.99604	-417.989017	-417.988073	-418.027463	28.323	
O	 0.0395203488	-0.0462838522	-0.1355534301	-0.379675
C	 0.0408368915	 1.167636061	-0.0459909168	 0.400337
N	-1.1091490187	 1.8909635635	 0.1398472419	-0.331398
C	-1.2534435855	 3.308264599	 0.0083148806	 0.012656
C	-0.9125478748	 4.2196942825	 1.1684017375	-0.319665
C	 0.0243014247	 4.1028112284	-0.0119467288	 0.010229
N	 1.3035315987	 3.4297805707	 0.0066951413	-0.105619
C	 1.7484804285	 2.6633351128	 1.1534787989	-0.247628
C	 1.3110443139	 1.9642201777	-0.0965799892	-0.126417
H	-1.9422361009	 1.325833919	 0.2223685396	 0.250439
H	-2.0558135626	 3.6071282409	-0.6606161264	 0.106369
H	-1.4619252496	 5.1484103187	 1.2765867487	 0.121105
H	-0.6420977223	 3.7431452619	 2.103102165	 0.125338
H	 0.0422742112	 4.9539032454	-0.6851112072	 0.111249
H	 2.8085041802	 2.7392302194	 1.3787891281	 0.129311
H	 1.1052489033	 2.5704452132	 2.0247967232	 0.123742
H	 2.0575956134	 1.5349719381	-0.7571447463	 0.119628
