21
gdb 73862	3.15742	0.98109	0.78169	3.1963	87.71	-0.2292	-0.0159	0.2133	1484.229	0.18085	-387.131818	-387.122023	-387.121078	-387.16699	35.524	
C	-0.1301613545	 1.499918867	 0.1306071447	-0.498036
C	 0.0327060146	 0.0174997818	 0.0023205026	 0.229516
C	 0.0205009925	-0.7339403108	-1.1056753906	 0.229513
C	-0.1594510966	-0.3030115804	-2.5278099676	-0.498036
C	 0.1674828886	-2.2070298448	-0.7819903989	-0.328443
C	 0.5921891013	-2.231592209	 0.712609172	-0.055297
C	 0.1898509271	-0.829685778	 1.2488952343	-0.328439
C	-0.0675058192	-3.3506324786	 1.4788255728	 0.155252
O	 0.5028064322	-4.2307446958	 2.06960296	-0.253527
H	 0.7380078577	 1.9494466287	 0.6296454606	 0.126516
H	-0.2544509764	 1.9943838735	-0.8355527497	 0.124393
H	-1.0033647136	 1.7471577434	 0.7486620718	 0.126051
H	-0.2741289445	 0.7787544757	-2.6280114565	 0.124394
H	 0.696408032	-0.6092508159	-3.1430773188	 0.126515
H	-1.0444084687	-0.7767151807	-2.9728471391	 0.126052
H	-0.7876749076	-2.7318942704	-0.9435829735	 0.104281
H	 0.9009667189	-2.7161257403	-1.417942202	 0.112134
H	 1.6734785438	-2.3659090159	 0.7918010359	 0.095104
H	 0.938019379	-0.4347428641	 1.9459440996	 0.112137
H	-0.7573367907	-0.8639698692	 1.8106599222	 0.104283
H	-1.1846587961	-3.3036033363	 1.4590890901	 0.065637
