21
gdb 54413	2.41743	1.47567	1.15788	2.6651	84.59	-0.2338	-0.0102	0.2236	1172.2307	0.180982	-387.099546	-387.090148	-387.089204	-387.133608	35.47	
C	 0.1675329226	 1.2264958876	 0.5640084973	-0.488726
C	-0.0407311673	-0.0283501703	-0.2662022294	 0.284512
O	 0.8311140186	-0.452246399	-1.0038994504	-0.33415
C	-1.3323968756	-0.7321526905	-0.1172865233	 0.216399
C	-1.8158390292	-1.6658988075	-1.2125476134	-0.359355
C	-1.4903099036	-2.2799498753	 0.100715869	 0.317532
C	-0.4017063238	-3.2964342175	 0.2811419493	-0.496008
C	-2.6295047793	-2.0085275849	 1.0951409764	-0.276054
C	-2.4758681097	-0.469500136	 0.8707587209	-0.313675
H	 1.1224356255	 1.6819232899	 0.2996702492	 0.139379
H	-0.646870606	 1.9412075986	 0.4018037065	 0.13554
H	 0.1669611622	 0.9819524788	 1.632631051	 0.137782
H	-2.8480457447	-1.5746897542	-1.5452506995	 0.104577
H	-1.0850213455	-1.822980133	-1.9981557369	 0.138749
H	 0.454464888	-3.0559223854	-0.35530047	 0.151241
H	-0.055983726	-3.331168611	 1.3202709231	 0.113034
H	-0.7555431006	-4.2998930592	 0.014746119	 0.120645
H	-3.5978169429	-2.4492928103	 0.8356847077	 0.099853
H	-2.376403872	-2.3046282331	 2.1160404223	 0.10484
H	-2.161671035	 0.0498124167	 1.7784887988	 0.105115
H	-3.3453850959	 0.0535944255	 0.4583735221	 0.098771
