19
gdb 120016	2.42598	1.18158	0.87766	3.5059	72.59	-0.2502	0.0014	0.2515	1366.2017	0.157149	-460.186509	-460.176828	-460.175884	-460.221919	33.981	
C	-0.0502913181	 1.4775210706	 0.0858139717	-0.388665
C	 0.2216799429	-0.0146660153	 0.1254825011	-0.051423
O	 0.288946621	-0.4897024708	-1.2201992883	-0.251181
C	 0.5319302691	-1.8564301886	-1.3151819678	-0.062789
C	 0.7242918725	-2.3924512986	-2.7525315283	 0.094668
C	 0.7780389783	-1.3836742613	-3.8758735837	-0.393387
O	 2.0673521976	-2.8816360066	-2.3787567153	-0.253516
C	 1.9873412266	-2.339774986	-1.1239522178	 0.426539
O	 2.8289211559	-2.3072907434	-0.283405124	-0.327885
H	 0.7548195409	 2.0010969541	-0.4370074934	 0.132303
H	-0.9907371498	 1.6855197543	-0.4323061999	 0.126935
H	-0.1181051038	 1.8743127933	 1.1028847524	 0.122356
H	 1.164574367	-0.2324594841	 0.6436098599	 0.128649
H	-0.5822708543	-0.5471680452	 0.6593535821	 0.092805
H	-0.1774972593	-2.4428841443	-0.7113305259	 0.098594
H	 0.0944431562	-3.2508657223	-2.9992586105	 0.10041
H	 1.3985746671	-0.528053073	-3.6025509974	 0.140891
H	 1.1840014147	-1.8481038847	-4.7786621684	 0.132347
H	-0.2300016146	-1.0188717881	-4.0948463065	 0.132349
