19
gdb 39489	2.25975	1.90272	1.31493	0.5767	77.18	-0.2351	-0.0004	0.2347	1021.9463	0.161047	-422.996052	-422.988432	-422.987487	-423.027983	30.202	
C	-0.2974149887	 1.4358123003	 0.0171795751	-0.06819
C	 0.8340616332	 2.4884046058	 0.0082592396	-0.300712
C	 1.8338092378	 2.1969660549	-1.0769425565	-0.067569
C	 2.8056868444	 1.2867199449	-0.9977909435	-0.030075
C	 3.208248827	 0.4651587022	 0.1755925404	 0.005577
O	 2.8891240179	 0.9129618092	 1.5062082961	-0.248017
C	 2.3276422343	-0.3236932791	 1.072204653	 0.046334
C	 0.8116823207	-0.4761961646	 0.9891897063	-0.120386
O	 0.1510394539	 0.1008966829	-0.1106052363	-0.227614
H	-0.9021749447	 1.555329713	 0.9301956655	 0.091026
H	-0.9578980715	 1.586795522	-0.8431574528	 0.107585
H	 0.374695562	 3.473037985	-0.1346198296	 0.094736
H	 1.3301051309	 2.4885473181	 0.9789389892	 0.143491
H	 1.7013289377	 2.7129543233	-2.0252498282	 0.091258
H	 3.4342461701	 1.1196798064	-1.8695781285	 0.085493
H	 4.2313630401	 0.0916059328	 0.0979157658	 0.094342
H	 2.7886877299	-1.1881061891	 1.5592570689	 0.089342
H	 0.6116628394	-1.5527291283	 0.9227945386	 0.111294
H	 0.3819818057	-0.1247727997	 1.9421219772	 0.102085
