17
gdb 39772	3.03786	1.85809	1.50187	0.2261	70.28	-0.2371	0.066	0.303	906.7161	0.136534	-421.732847	-421.726254	-421.72531	-421.76351	27.521	
C	 0.0012847653	 1.4997218395	 0.0096091599	-0.375356
C	 1.3653968738	 0.8297464143	-0.0080180239	-0.333151
C	 0.1265449083	 0.0119828193	 0.0011103636	 0.493677
C	-0.5140061333	-0.9719523522	 0.9829449919	-0.086937
O	-1.6184592145	-1.113735655	 0.0140411357	-0.299869
C	-0.5346505572	-0.9624553392	-0.976502632	-0.086924
C	 0.2331486364	-2.2925347574	-0.7423906024	 0.036534
O	 1.4680170614	-2.1580181755	-0.0235420564	-0.240686
C	 0.2485540814	-2.2996223738	 0.7198240328	 0.036536
H	-0.3221269119	 1.9825683551	 0.9261447897	 0.116555
H	-0.3413689013	 1.9913622497	-0.8951840024	 0.116555
H	 1.9454033944	 0.8660635235	-0.9240078645	 0.118146
H	 1.9646044742	 0.8573058538	 0.8958374558	 0.118146
H	-0.8330341717	-0.7228444976	 1.9940593691	 0.08165
H	-0.8748875925	-0.70358411	-1.9782062908	 0.08165
H	 0.1246593897	-3.1620837102	-1.3803475254	 0.111737
H	 0.1534386375	-3.1753246245	 1.3514673894	 0.111737
