19
gdb 40618	4.18674	1.11035	1.08745	1.7206	79.88	-0.2343	0.0021	0.2364	1191.6257	0.160371	-385.822161	-385.814837	-385.813893	-385.854147	29.643	
C	-0.2215053801	 1.3692863023	-0.1989641927	-0.276328
C	 1.2259822447	 1.1737153031	 0.1681525112	-0.276343
C	 0.3052233541	-0.0204868959	 0.0731621997	 0.007968
C	-0.1091002606	-0.7424527228	 1.3219239282	 0.017252
C	-1.2263748163	-1.8390495821	 1.1619338786	 0.001615
O	-0.19527027	-2.7205258237	 0.6045514089	-0.290698
C	 0.6381161133	-2.091667406	 1.6345085107	 0.001589
C	-0.0637723912	-2.5401424052	 2.9245293485	-0.085209
C	-1.3478977447	-2.366114889	 2.5990661443	-0.08522
H	-0.875430955	 1.8186834463	 0.5415819604	 0.109088
H	-0.4644275593	 1.6328029196	-1.2223539643	 0.113336
H	 1.9771064748	 1.3029079966	-0.6031487284	 0.113333
H	 1.5453759516	 1.4916342994	 1.1555217963	 0.10909
H	 0.4361637369	-0.6673367165	-0.7877201834	 0.098822
H	-0.2297128552	-0.055131211	 2.1652058226	 0.065969
H	-2.1096469574	-1.7179821283	 0.5357179882	 0.078434
H	 1.7101332212	-2.2355316574	 1.5039019378	 0.07843
H	 0.3989482169	-2.8794636962	 3.83918896	 0.109435
H	-2.2532261435	-2.5200411235	 3.1669913534	 0.109435
