20
gdb 98353	2.50552	0.96902	0.73554	2.1182	78.76	-0.2504	-0.0222	0.2282	1564.872	0.167106	-440.30793	-440.297109	-440.296164	-440.345679	37.132	
C	 0.6154909187	 1.4164443759	 0.0728567838	-0.383293
C	 1.1624377858	 0.1489392065	-0.5776323241	-0.275888
C	 0.1134600225	-0.6205920978	-1.3536779297	 0.357912
O	-1.0313455834	-0.2477044595	-1.4674926182	-0.309824
C	 0.5251488734	-1.9562333128	-2.0027720558	 0.013072
C	-0.0180163181	-2.085229262	-3.4230663993	-0.389931
O	 1.9497410512	-2.0702101868	-1.982517774	-0.188866
C	 2.477578885	-3.2963146591	-1.7911495405	 0.129761
N	 3.7255131712	-3.4634263578	-1.856342848	-0.44175
H	 0.202825861	 2.0946645988	-0.6783200328	 0.131975
H	-0.1895201321	 1.1827250594	 0.7745415745	 0.12863
H	 1.4071022127	 1.9402287559	 0.6152735194	 0.113541
H	 1.9907391411	 0.3642083961	-1.2644405295	 0.146303
H	 1.6038317535	-0.5323849963	 0.1620563153	 0.129328
H	 0.0905324477	-2.7425709408	-1.3658540223	 0.110071
H	 0.1624059713	-3.0897499269	-3.8154783401	 0.119729
H	-1.0908780944	-1.8849111794	-3.41916379	 0.151428
H	 0.4741898684	-1.3634625106	-4.080916481	 0.137264
H	 1.7228101268	-4.0659368912	-1.5739922084	 0.088382
H	 3.9573632478	-4.4363999616	-1.6684356391	 0.232156
