20
gdb 89746	2.44486	1.55776	1.14254	2.6443	79.5	-0.239	0.0647	0.3038	1140.2833	0.170354	-403.090992	-403.082366	-403.081422	-403.124147	33.265	
C	-0.7084713908	 1.2138999166	-0.0319584969	-0.410832
C	 0.1391634978	-0.0492907893	-0.0520137157	-0.072308
C	 1.5269404638	 0.0014628716	-0.7793953318	-0.358281
C	 2.1408435993	-0.7181213939	 0.4267683446	 0.422566
C	 3.050508694	-1.8608616416	 0.4919018003	-0.267301
O	 3.4561082665	-0.545745633	 0.9136625774	-0.277352
C	 0.8864941308	-0.4739991979	 1.2315486678	 0.264057
C	 0.804195151	 0.1252397526	 2.5814436356	-0.299401
N	 0.4454629796	-1.2917585941	 2.3539840733	-0.372919
H	-0.1297012314	 2.0707100166	 0.3283650973	 0.120994
H	-1.0778809289	 1.4540542636	-1.0346490709	 0.120017
H	-1.5823732028	 1.100639154	 0.6201115584	 0.112823
H	-0.4507635251	-0.8918778285	-0.4319052074	 0.079097
H	 1.5983660691	-0.494452758	-1.7494835114	 0.107756
H	 1.9046691774	 1.0243852613	-0.8704477532	 0.115924
H	 2.9298571761	-2.5875728259	 1.2928811297	 0.130008
H	 3.5300962172	-2.2250194274	-0.4159467453	 0.11152
H	 1.718108411	 0.2761261202	 3.1483828748	 0.132256
H	 0.0108382646	 0.8406616971	 2.7819629697	 0.112059
H	-0.5672860092	-1.395399474	 2.3343621037	 0.229317
