15
gdb 125113	2.35348	1.86135	1.04616	4.1237	70.92	-0.2339	-0.0345	0.1994	1065.4659	0.112966	-453.983283	-453.975222	-453.974278	-454.016496	29.933	
C	 0.0563383086	 1.557636077	-0.0639890476	-0.548004
C	 0.0565109819	 0.0527141746	-0.0397303955	 0.056697
C	 0.0588279111	-0.7190222747	-1.1912301124	 0.318601
O	 0.0611340983	-0.1998789632	-2.4389245745	-0.423686
C	 0.0587886686	-2.1195719363	-1.0686041859	-0.044928
N	 0.0566563996	-2.7386357113	 0.0985973231	-0.209145
N	 0.0544156494	-2.0213375108	 1.2209214031	-0.318024
C	 0.0543521359	-0.6953965746	 1.1480162583	 0.401371
O	 0.0520709777	-0.0380753572	 2.3264835805	-0.414498
H	 0.9437373842	 1.9534477333	-0.5746128725	 0.138124
H	-0.8287720862	 1.9531668316	-0.578787926	 0.138095
H	 0.0538851672	 1.9565020676	 0.9500839345	 0.1698
H	 0.060934843	 0.7628567512	-2.3917980674	 0.306607
H	 0.0605658969	-2.7421417369	-1.9570088456	 0.125866
H	 0.0508639938	-0.7287310903	 3.006068398	 0.303125
