12
gdb 23752	3.28149	2.23034	1.32784	2.1211	59.24	-0.245	-0.0123	0.2326	816.2049	0.08412	-430.651947	-430.64599	-430.645046	-430.682054	23.035	
F	 0.0231275838	 0.0164807899	 0.0032790658	-0.064206
C	-0.0215024524	 1.3486134916	 0.0108876021	 0.172185
C	-1.2349724845	 2.0160021464	 0.0302789646	-0.232748
C	-1.2498644671	 3.4102256084	 0.037836266	-0.102642
C	-0.0543920584	 4.1233649403	 0.0259695897	-0.102641
C	 1.165166527	 3.4477657175	 0.0064562458	-0.232748
C	 1.175727975	 2.0628011562	-0.0009969918	 0.172185
F	 2.3265275582	 1.3905356396	-0.0195950785	-0.064205
H	-2.1492226007	 1.4345277795	 0.0391624597	 0.119704
H	-2.1985124828	 3.9339092175	 0.0530093179	 0.107706
H	-0.064357304	 5.2070038135	 0.0318208226	 0.107706
H	 2.1111712158	 3.9759974995	-0.0031209739	 0.119704
