11
gdb 123539	4.2558	1.9106	1.31862	0.6668	65.43	-0.2838	-0.1189	0.1649	833.3321	0.069787	-443.889254	-443.883886	-443.882942	-443.919063	20.575	
C	 0.0711483474	 1.2721013219	 0.0087688614	 0.060513
N	 1.3121947041	 1.7697391555	-0.0006827278	-0.220655
N	 2.0381050511	 0.6445806353	-0.0140154415	 0.062931
N	 3.3678556507	 0.6051843471	-0.0272879455	-0.048336
N	 3.8827617234	-0.5772297633	-0.0389670187	-0.157331
C	 3.0659782495	-1.6778605678	-0.0370959853	 0.090587
N	 1.7538344354	-1.6991208245	-0.0243448723	-0.297479
C	 1.1994724519	-0.4819685153	-0.0121126512	 0.529594
N	-0.0574918174	-0.0770861246	 0.0025777939	-0.339205
H	-0.7812009357	 1.9358125228	 0.020848935	 0.157735
H	 3.5960851296	-2.6239848771	-0.0476006679	 0.161646
