20
gdb 40749	3.7573	1.13157	1.0149	1.5903	78.96	-0.2388	0.0651	0.3038	1238.1924	0.172561	-403.081582	-403.073644	-403.0727	-403.114864	30.54	
C	 0.0008054508	 1.5305335148	 0.1056589925	-0.239513
N	 1.1002151878	 0.6064891834	-0.2136222093	-0.320173
C	-0.2464857116	 0.0672545865	 0.0520236716	-0.028167
C	-0.3689574294	-0.742321281	 1.3092109796	 0.16159
O	-1.7440340098	-0.8836191797	 1.7588408265	-0.322075
C	-1.5930327781	-2.3092788405	 1.9308294444	 0.13043
C	-2.131510161	-3.1143005489	 0.727876029	-0.229855
C	-0.714785882	-3.0504868442	 0.0714919211	-0.236624
C	-0.1704311958	-2.2748946826	 1.304184568	-0.109557
H	 0.0879837908	 2.02618784	 1.0687560426	 0.12316
H	-0.4162988574	 2.1471717981	-0.6858261843	 0.113165
H	 1.2808923679	 0.6102837211	-1.2134828207	 0.233865
H	-0.8296763759	-0.2917657552	-0.7927102161	 0.08554
H	 0.2436830094	-0.2656718823	 2.0876734086	 0.076629
H	-1.8389137549	-2.6334281774	 2.9457543173	 0.072505
H	-2.4481502307	-4.1299741629	 0.9809247336	 0.099784
H	-2.942606185	-2.6117933672	 0.1962293273	 0.108416
H	-0.2507444404	-4.0326277816	-0.0419982221	 0.105183
H	-0.6449304255	-2.5386467262	-0.8912064839	 0.098796
H	 0.7324030708	-2.6536187144	 1.7804546941	 0.076899
