18
gdb 12504	3.54705	1.83249	1.27519	1.0094	79.21	-0.2097	-0.0218	0.1879	974.8652	0.154663	-347.809623	-347.801999	-347.801055	-347.841571	28.877	
C	 0.0707745168	 1.5306651796	 0.0812726434	-0.48422
C	 0.0150467155	 0.0351669457	-0.0546281524	 0.294414
C	 0.0710021598	-0.5797456321	-1.2469297843	-0.153592
C	-0.0216557552	-2.0105898407	-1.5140799106	-0.064047
C	 0.0713802648	-3.046962851	-0.6672102791	-0.093071
C	 0.4049640636	-3.0417458972	 0.7961408433	-0.133644
O	 0.8226557458	-1.8153047982	 1.3437462792	-0.233197
C	-0.1127878664	-0.7517585197	 1.2317918907	-0.188718
H	 0.9502258145	 1.8421406043	 0.6606609724	 0.130502
H	 0.1097186767	 2.025004734	-0.8926709362	 0.122725
H	-0.805038742	 1.9154924826	 0.6212978708	 0.124571
H	 0.1524803955	 0.0464895048	-2.1332523676	 0.078375
H	-0.2181791864	-2.2560452965	-2.5560489935	 0.08482
H	-0.0817776883	-4.0476724185	-1.0689926991	 0.089708
H	-0.4484823391	-3.4596506731	 1.3637271528	 0.094564
H	 1.2450339937	-3.7282109207	 0.9692655713	 0.120677
H	 0.0748644192	-0.0951426318	 2.0883734765	 0.106181
H	-1.1411162587	-1.1358374316	 1.3356445623	 0.103952
