19
gdb 18294	3.03133	2.07741	1.85269	0.3286	70.81	-0.2148	0.0892	0.3039	841.0787	0.16761	-365.033123	-365.025888	-365.024944	-365.064203	28.422	
C	-0.2587904208	 1.5400989794	 0.0661497394	-0.434249
C	-0.0278031533	 0.0470011277	-0.0078599639	 0.015737
C	 0.5858665394	-0.6234125725	-1.18714041	-0.0461
C	 1.1324475948	 0.1431756766	-2.3824633405	-0.116002
O	 2.0630322897	 1.1530428518	-2.0292471	-0.235922
C	 3.0707657235	 0.6321295318	-1.1773162523	-0.081898
C	 2.4923123622	 0.2793046428	 0.1914000798	-0.155584
N	 1.3021363739	-0.5807664427	 0.0994907374	-0.119936
H	 0.421093832	 2.1006117086	-0.5765641348	 0.145864
H	-1.2854668517	 1.7645276187	-0.2429534119	 0.117889
H	-0.1448565153	 1.9015015116	 1.0952075022	 0.119286
H	-0.7794562833	-0.5263681265	 0.5354145512	 0.084105
H	 0.2295833766	-1.6185087021	-1.4552904856	 0.085383
H	 1.6147724987	-0.5747107802	-3.0672768661	 0.096404
H	 0.3285969019	 0.6405872365	-2.9357509396	 0.114413
H	 3.5278918926	-0.2581044537	-1.6402530141	 0.092927
H	 3.8417548737	 1.4028175335	-1.0879393118	 0.109129
H	 3.2506832874	-0.2527969145	 0.7791533111	 0.102353
H	 2.256175218	 1.2014905431	 0.7349350595	 0.106199
