19
gdb 92951	2.03693	1.558	1.3434	3.1465	77.06	-0.2477	-0.0335	0.2142	1091.9602	0.157472	-423.047677	-423.038485	-423.037541	-423.081605	34.266	
C	-0.690390047	 1.065157764	 0.0507019278	-0.39783
C	 0.2007508131	-0.1686980669	-0.0650252077	-0.028305
C	 1.3072126794	-0.0772443596	-1.1468995574	-0.290358
C	 2.4670042112	-0.8153852863	-0.5331660453	-0.066457
C	 2.2673508866	-1.1018323017	 0.7534116868	-0.146959
C	 0.9440511889	-0.5522551831	 1.2525410103	 0.247564
O	 1.1499300286	 0.5188240374	 2.1770287518	-0.470457
C	 0.1885169884	-1.6022349247	 2.0702744808	 0.143781
O	-0.5860766417	-2.4024608676	 1.6167064217	-0.250929
H	-0.1139212952	 1.9513721726	 0.3327001013	 0.108964
H	-1.1837666991	 1.2701503607	-0.9048414626	 0.111452
H	-1.4683724472	 0.924863673	 0.8069429431	 0.124354
H	-0.4222337246	-1.0379434218	-0.2993256467	 0.110288
H	 0.9873162674	-0.5172151371	-2.0983793784	 0.116068
H	 1.5848646644	 0.9624743713	-1.3733612357	 0.105946
H	 3.3672625112	-1.0605589841	-1.0874178947	 0.105462
H	 2.9655823977	-1.6008673862	 1.4160586342	 0.104877
H	 1.8891719569	 1.0448160064	 1.8545958392	 0.280548
H	 0.439133641	-1.5682699263	 3.1529453615	 0.091991
