18
gdb 74094	2.57986	1.558	1.12243	4.6231	79.49	-0.2276	-0.0485	0.1791	1116.4137	0.147157	-401.961671	-401.953182	-401.952238	-401.994425	32.307	
C	-0.0300270823	 1.4819004489	 0.0464279128	-0.503172
C	-0.0510270012	-0.0078675589	-0.0312249241	 0.32957
C	 0.0004468975	-0.772885694	-1.1346348671	-0.318404
C	-0.0018681898	-2.2157651598	-0.7870853157	 0.44464
O	-0.0453042209	-3.1620745977	-1.5384682264	-0.337978
C	 0.0154597969	-2.2681369256	 0.7318670691	-0.227743
N	 1.2269580316	-1.6062553059	 1.3143635438	-0.360623
C	-0.0659054302	-0.8735958991	 1.2144111418	 0.218932
C	-0.8042205366	-0.4373720967	 2.4526645374	-0.499921
H	 0.8490140203	 1.8238092132	 0.607338131	 0.147215
H	-0.0040243161	 1.9366521324	-0.946223266	 0.136555
H	-0.9087073521	 1.8647369208	 0.5796604485	 0.136328
H	 0.0721206088	-0.4228962591	-2.1569265379	 0.111335
H	-0.427284851	-3.1116614525	 1.2484842839	 0.10505
H	 1.329933793	-1.954102514	 2.2697000474	 0.229153
H	-0.3607192517	 0.4659551535	 2.885881832	 0.131032
H	-1.8547387118	-0.2211793418	 2.2306589553	 0.134318
H	-0.7787946545	-1.2225007438	 3.2145925141	 0.123713
