11
gdb 21773	7.069	1.38014	1.1547	2.6904	62.64	-0.2286	-0.0375	0.1911	929.2891	0.073192	-393.58885	-393.582149	-393.581204	-393.619682	24.74	
O	 0.0113011164	-0.0496885703	 0.0038602592	-0.414673
C	-0.001602146	 1.1590076475	 0.0099103341	 0.45078
N	-1.0745739694	 2.0368645408	 0.0286083753	-0.291597
N	-0.7314906644	 3.3581201333	 0.0313314394	-0.256468
C	 0.5752075665	 3.3501958743	 0.012793627	 0.245567
N	 1.0673757226	 2.0591814605	-0.0006764246	-0.410797
C	 1.4015168296	 4.4942609531	 0.007151775	 0.288782
C	 2.1463925407	 5.4385676013	 0.0016859442	-0.397955
H	-2.0434385944	 1.7689450207	 0.0427951331	 0.288285
H	 2.0331216572	 1.7809345971	-0.0153127393	 0.285946
H	 2.7907957413	 6.2831714116	-0.0028611333	 0.212129
