19
gdb 67298	3.12375	1.57854	1.32768	1.2455	80.51	-0.2429	0.067	0.3099	1024.5681	0.158928	-385.793639	-385.786001	-385.785056	-385.825268	31.152	
O	-0.1381399408	 1.3265044397	-0.0098563611	-0.476625
C	-0.0403554208	-0.0472985432	-0.0081875258	 0.312899
C	 0.8616770377	-0.9929963478	-0.9012552673	-0.097488
C	 2.0034900407	-1.0040166278	 0.1368265033	-0.298704
C	 0.7233421062	-1.0005263838	 0.9986180875	-0.097505
C	-0.0366598237	-1.9282563459	-0.0153875578	-0.149424
C	-1.2306401675	-0.9790515131	-0.0985542	 0.383163
C	-2.562993468	-0.9558407182	 0.5700541063	-0.357837
C	-2.4521256239	-0.9498029613	-0.9528685659	-0.357839
H	 0.7459533334	 1.7046283876	 0.0564719271	 0.287182
H	 0.9082490062	-1.0019999283	-1.9909737166	 0.072553
H	 2.6171488643	-1.909208863	 0.1779259898	 0.095391
H	 2.6464727086	-0.1175298872	 0.1871541588	 0.079573
H	 0.6115705326	-1.0181607488	 2.0834846305	 0.072551
H	-0.0139708504	-3.0159335525	-0.0180427094	 0.077557
H	-2.924763591	-1.8618838162	 1.0461866372	 0.10835
H	-2.8798778833	-0.0380004146	 1.0549190315	 0.118925
H	-2.6959812254	-0.0279902272	-1.4712661828	 0.118927
H	-2.7405989549	-1.8518581884	-1.4835039755	 0.108351
