19
gdb 87684	2.78193	1.18028	1.00554	2.1707	78.01	-0.2307	-0.0273	0.2034	1256.5283	0.157088	-423.020627	-423.011141	-423.010197	-423.055433	34.431	
C	 0.1159095968	 1.4827617288	-0.4060684778	-0.407002
C	 0.1772450954	-0.0115212079	-0.1894993508	-0.045631
C	 1.4849921214	-0.7224263711	-0.0565198299	-0.338883
C	 0.5937144707	-0.5619094449	 1.1626405917	 0.21209
C	 0.8689895748	 0.1599576337	 2.4971462696	-0.355335
C	 0.3532706302	-1.098857054	 3.2603465286	 0.034661
O	-0.6650673188	-0.8609271692	 4.1999245651	-0.433105
C	-0.0826761565	-1.6782185865	 1.892752641	 0.311138
O	-0.7818974187	-2.6046344954	 1.5803516937	-0.329824
H	 0.9407926972	 1.9921090332	 0.1019238467	 0.120335
H	 0.1817084695	 1.722924029	-1.4726628464	 0.126084
H	-0.8216885973	 1.9018370792	-0.0260203811	 0.127136
H	-0.6217024108	-0.5823999954	-0.657055898	 0.109255
H	 1.5875616651	-1.7222607239	-0.4651235229	 0.130917
H	 2.3931174376	-0.1268107831	-0.0664783268	 0.120218
H	 1.9038448147	 0.4398206302	 2.7017266772	 0.108271
H	 0.2148085046	 1.0175969799	 2.6714608983	 0.123014
H	 1.1823801165	-1.6850338041	 3.6889777832	 0.090365
H	-1.2168646326	-1.6514394485	 4.2273665087	 0.296298
