14
gdb 10014	3.69949	1.52644	1.11105	3.5762	65.68	-0.2482	-0.0691	0.1791	1015.6462	0.105255	-415.88398	-415.875518	-415.874574	-415.91764	28.588	
C	 0.8940769971	 1.9341467369	 0.1112922007	-0.326311
N	 0.8164554078	 0.533855376	 0.4757447874	-0.274656
C	 0.5772926077	-0.3887730488	-0.3607621034	 0.311025
N	 0.5785068753	-1.707705803	 0.1354948543	-0.32912
C	-0.0116290261	-2.7870172518	-0.4661684617	 0.159004
O	-0.5316048014	-2.7722431798	-1.5599327644	-0.30147
C	 0.4034600498	-0.2460886773	-1.8631776443	 0.10251
O	-0.1731989507	 0.6874540817	-2.3596913522	-0.243047
H	 1.003549873	 2.1347654134	-0.9578703809	 0.141966
H	-0.0219432297	 2.4319321152	 0.4515175217	 0.144507
H	 1.7246278589	 2.385559009	 0.6633268263	 0.127647
H	 0.866310843	-1.7853915247	 1.1023437122	 0.26376
H	 0.0507514593	-3.6928255192	 0.1640437518	 0.102994
H	 0.905648726	-1.0229077177	-2.4664171072	 0.121192
