20
gdb 101772	4.37221	0.66111	0.60727	1.3357	72.56	-0.2656	0.058	0.3236	1814.4655	0.168842	-477.465101	-477.45419	-477.453246	-477.502532	38.035	
C	-0.0026780195	 1.5680642526	-0.0255434178	-0.388553
C	 0.0003822779	 0.0351632759	-0.0487396288	 0.008119
C	-1.4184985168	-0.5314493567	 0.0334339257	-0.079921
O	-1.9890254123	-0.1109430059	 1.2632515336	-0.422755
C	 0.6980860135	-0.5200175146	-1.2860935462	-0.060673
O	 2.0728502434	-0.1077770114	-1.2388812487	-0.26393
C	 2.8187826043	-0.4680024561	-2.3120677137	 0.493962
N	 4.0893979447	 0.0206939818	-2.1786343811	-0.564298
O	 2.4081861892	-1.1002717819	-3.256681117	-0.397267
H	 1.016966783	 1.9598549457	-0.0432447007	 0.120065
H	-0.5324745718	 1.9670405678	-0.8995673097	 0.10677
H	-0.5072996938	 1.9335583819	 0.8709062706	 0.133174
H	 0.5422252494	-0.3310580816	 0.8331844443	 0.091221
H	-2.0112786639	-0.1706238269	-0.8238545289	 0.087047
H	-1.3846503717	-1.6311432289	-0.0297687112	 0.086172
H	-2.9032675688	-0.4068803626	 1.2878259396	 0.288086
H	 0.6552468209	-1.6142823548	-1.3177791175	 0.112987
H	 0.2426347607	-0.1450536507	-2.2095176193	 0.118603
H	 4.3949739959	 0.3300131936	-1.2716501943	 0.263426
H	 4.7779740458	-0.3656463871	-2.8009923186	 0.267766
