16
gdb 18941	6.50423	1.50437	1.43999	0.7361	75.26	-0.2523	0.0486	0.3009	890.9711	0.130744	-309.355596	-309.349165	-309.348221	-309.385952	25.923	
C	-0.081330342	-1.2793185206	-0.0979857931	-0.445755
C	-0.063727718	-0.0768929117	-0.0598967427	 0.297948
C	-0.0394225888	 1.3716720634	-0.0110343901	-0.202502
C	 0.018783163	 2.072985939	 1.3731332525	-0.03466
C	 1.5537073903	 1.8032367028	 1.5436201113	-0.038661
C	 1.8484673859	 3.2840707393	 1.8556926665	-0.267499
C	 0.7426687967	 3.3304910851	 0.7826323282	-0.056169
C	 1.3334258143	 2.0965922958	 0.0194021423	-0.03466
H	-0.0983233254	-2.3403205671	-0.133029225	 0.191076
H	-0.7665756569	 1.8020063929	-0.7096870854	 0.091779
H	-0.7333002271	 2.0640848489	 2.1631076379	 0.077569
H	 2.0020722372	 0.9034396999	 1.9633477391	 0.083671
H	 1.5800850168	 3.6405172154	 2.8553660818	 0.094171
H	 2.8334413114	 3.6630221745	 1.5647416811	 0.094171
H	 0.2549370148	 4.192145968	 0.3240092439	 0.071953
H	 2.1009503378	 2.1149791143	-0.7554115782	 0.077569
