21
gdb 94973	2.54606	1.75105	1.30242	2.0965	81.7	-0.2299	0.076	0.306	1056.4311	0.18379	-387.012137	-387.004363	-387.003419	-387.04425	31.654	
C	 0.0349927043	 1.5551383662	 0.0777793653	-0.415142
C	 0.0441588597	 0.0286706198	 0.0504293884	-0.126734
C	 0.7957652632	-0.5891521613	-1.1992804702	-0.208926
C	 1.5854136111	-1.8924579101	-0.7546324663	-0.294231
C	 1.1281004336	-2.0908965116	 0.6958332095	-0.001864
C	 1.808079739	-1.8133852721	 2.0769012312	-0.005595
C	 2.2873857041	-0.4413636476	 1.584926736	-0.275541
C	 0.8093844817	-0.6736609231	 1.1398766838	 0.466799
O	 0.5241991177	-1.166776998	 2.5158175715	-0.380472
H	 1.0566322823	 1.9502225895	 0.1050332135	 0.117586
H	-0.4576200731	 1.9642761183	-0.8102629321	 0.114731
H	-0.4955822422	 1.9312749852	 0.9580325729	 0.125437
H	-0.9863317217	-0.3471885308	 0.0656591798	 0.088443
H	 0.0801490411	-0.8097421099	-1.9955482889	 0.107858
H	 1.4931199372	 0.1513023126	-1.6038222074	 0.104383
H	 1.3313735695	-2.7485059308	-1.383910166	 0.102573
H	 2.6618182706	-1.735395928	-0.8561969614	 0.108648
H	 0.2735129333	-2.7642915468	 0.7969258575	 0.080063
H	 2.2592009538	-2.4989402153	 2.7954894521	 0.090194
H	 2.4181226198	 0.3069817906	 2.366765123	 0.105024
H	 3.0693674048	-0.3989011267	 0.8242417578	 0.096767
