19
gdb 67441	2.31736	1.9404	1.8172	1.1303	80.56	-0.2221	-0.0079	0.2142	914.4573	0.160606	-385.838805	-385.831562	-385.830618	-385.869825	30.195	
O	-0.2112036526	 1.472535903	-0.1966276759	-0.502935
C	-0.0093887977	 0.0974687833	-0.0919602646	 0.435357
C	-1.1579484588	-0.8679684039	 0.2944088981	-0.085869
C	-0.5193563082	-1.8635520602	-0.7454185343	-0.233938
C	 0.5840863627	-0.8148207534	-1.1880280246	-0.099685
C	 2.0252085669	-1.110989916	-0.7045659963	-0.268145
C	 1.8233366621	-1.1244786594	 0.8164951583	-0.154347
C	 0.6957614222	-0.482324638	 1.1343479791	 0.076009
C	-0.6137978882	-0.9156000231	 1.7762938268	-0.302972
H	 0.6081264205	 1.9157187483	 0.049887247	 0.279002
H	-2.2146339716	-0.6319303033	 0.1552881057	 0.075718
H	-0.1376225628	-2.8013357386	-0.3338738277	 0.09814
H	-1.2152933466	-2.0952274896	-1.5540585227	 0.105597
H	 0.4974915398	-0.4935868715	-2.2287745803	 0.062166
H	 2.3853152271	-2.0915776862	-1.0384529122	 0.10602
H	 2.7518141191	-0.3733734356	-1.0739374838	 0.099752
H	 2.3671793633	-1.8061088736	 1.4629467702	 0.092251
H	-1.1213907823	-0.1489065939	 2.3701066534	 0.115214
H	-0.6098428648	-1.8625662183	 2.3221045137	 0.102664
