19
gdb 56502	2.60795	1.23539	1.0392	1.4717	83.33	-0.2553	0.0306	0.2859	1227.639	0.153851	-385.822444	-385.81171	-385.810766	-385.857396	40.103	
C	 0.0294979452	 1.5764481977	 0.0725074964	-0.422034
C	 0.00286648	 0.0358931662	 0.0409433212	-0.159852
C	 0.7736341348	-0.5073342788	 1.1566154907	 0.340794
C	 1.4292046552	-0.9231832649	 2.0744483567	-0.478278
C	-1.4666335943	-0.5297583558	 0.0239724757	 0.151985
C	-1.474736247	-2.0621260776	 0.0808266081	-0.408296
O	-2.1887444491	-0.0936795496	 1.1740211846	-0.445564
C	-2.1365182727	-0.0711087277	-1.2042824074	 0.323551
C	-2.6932462129	 0.3169908372	-2.1970710756	-0.48007
H	 1.0589782102	 1.9376000948	 0.0198929948	 0.130652
H	-0.529039048	 1.9870666966	-0.772675306	 0.129388
H	-0.4032992918	 1.947704764	 1.005808059	 0.125893
H	 0.467232194	-0.2971006785	-0.8965493548	 0.113581
H	 2.0045373131	-1.2989295614	 2.8839967671	 0.194458
H	-1.0288768024	-2.3889599507	 1.0219785848	 0.143941
H	-2.5031743682	-2.4239423899	 0.0252699435	 0.13028
H	-0.9047859979	-2.4829795074	-0.7512726454	 0.12145
H	-2.4366629431	 0.8272338138	 1.0419787018	 0.287686
H	-3.1916860349	 0.6499207018	-3.0742092753	 0.200437
