18
gdb 34007	2.94012	1.439	1.20234	1.6131	84.59	-0.2243	0.0053	0.2296	1089.4008	0.148008	-364.755169	-364.747233	-364.746289	-364.787355	31.5	
C	 0.0149287354	-1.1450050645	 0.1297838166	-0.422045
C	 0.0127576835	 0.0538913943	 0.0388550649	 0.279015
C	-0.0471550075	 1.4934792996	-0.0790532065	 0.102266
C	 0.5029051579	 2.1427277034	-1.3186679271	-0.276389
N	 1.258535654	 2.1909604176	-0.0752844498	-0.126472
C	 1.3054510111	 3.4854272793	 0.6328716991	-0.152818
C	 0.461295167	 3.4868631905	 1.912829548	-0.26056
C	-0.9428712429	 3.0240041378	 1.6169725558	-0.06238
C	-1.1797092604	 2.1235524053	 0.6654761401	-0.145002
H	 0.0356029419	-2.2031921673	 0.213872819	 0.191556
H	 0.9210977988	 1.5225053363	-2.1068528473	 0.121443
H	 0.004254497	 3.0518785732	-1.6518453792	 0.113169
H	 2.3558017684	 3.6935965463	 0.8645120081	 0.108434
H	 0.9483717692	 4.2959800959	-0.0173117631	 0.098111
H	 0.9201285615	 2.8366520896	 2.6704286845	 0.127074
H	 0.4566234704	 4.4960357468	 2.3376873168	 0.107477
H	-1.7627499774	 3.4445519508	 2.1920766104	 0.096045
H	-2.180494148	 1.7668022148	 0.4424909497	 0.101076
