18
gdb 11053	3.45133	2.28255	1.95672	1.5777	71.01	-0.2364	0.0102	0.2466	779.7841	0.155743	-347.806215	-347.799664	-347.79872	-347.836298	27.186	
C	-0.0155367553	 1.5075961442	 0.001813172	-0.496477
C	-0.0037891312	-0.0086913988	 0.0274731802	 0.246085
C	 0.7582181046	-0.6981638822	-1.1530107237	-0.08655
O	 0.9757524733	-2.0398979453	-0.7109065207	-0.278519
C	 0.378537249	-2.1171123233	 0.619059464	 0.054045
C	 0.7242770944	-0.7382995994	 1.1942875342	-0.247282
C	-1.1269717004	-1.9944950302	 0.4383217973	-0.08833
C	-1.3481601516	-0.7276310532	 0.0722801317	-0.107027
H	 1.0026313411	 1.9112325692	-0.0001531266	 0.116736
H	-0.5243677597	 1.8864318509	-0.891974869	 0.11754
H	-0.5362733551	 1.9127090177	 0.8755681714	 0.120827
H	 0.1770440431	-0.6911087789	-2.0832026088	 0.093325
H	 1.7253804205	-0.2103418052	-1.3362171455	 0.0929
H	 0.7669908602	-3.0102637616	 1.1050376087	 0.072163
H	 1.8019054092	-0.5502902733	 1.2294262484	 0.095646
H	 0.2675512039	-0.5365229497	 2.1647366253	 0.099866
H	-1.8332577843	-2.8139042708	 0.468519388	 0.100163
H	-2.2807768417	-0.2835825399	-0.2558229369	 0.09489
