16
gdb 107743	3.57637	1.35975	1.27019	2.9883	70.06	-0.2215	-0.0591	0.1623	1019.8178	0.122642	-437.737243	-437.729603	-437.728658	-437.769519	29.417	
O	 0.0219768261	 1.419091568	-0.1350746936	-0.404128
C	-0.0129174822	 0.0372566903	 0.1550593076	-0.178439
C	-1.3873034986	-0.5438059425	 0.0373403425	 0.411612
O	-2.3332388286	-0.0848342274	 1.1333441132	-0.311417
C	-3.1394733889	-1.0560435222	 0.5269439794	 0.259638
N	-4.1468392345	-0.7458576443	-0.1734455719	-0.228126
C	-3.610765197	-0.9996640811	-1.560080283	-0.174481
C	-2.0824699238	-1.1030429549	-1.3214272102	-0.127695
C	-1.9493555798	-1.8862562322	-0.0576456665	-0.25782
H	-0.59315384	 1.8544570894	 0.4657635586	 0.299542
H	 0.644057105	-0.4561871055	-0.5684040104	 0.124561
H	 0.3688120678	-0.1798230255	 1.1643948228	 0.111715
H	-3.9971945821	-1.8991659163	-2.0619612472	 0.114456
H	-3.9078590324	-0.1234852811	-2.1435428293	 0.138283
H	-1.3921081634	-1.2307924834	-2.1522594686	 0.102206
H	-1.5892041775	-2.8764224814	 0.1879860067	 0.120091
