15
gdb 44616	3.00226	1.95962	1.55825	4.7156	62.89	-0.2523	-0.0055	0.2468	852.3599	0.115269	-457.78099	-457.77479	-457.773845	-457.811649	24.725	
O	-0.0089180623	-0.00558057	 0.0857583232	-0.320947
C	 0.0137533744	 1.1786386356	-0.0395987331	 0.433442
O	-1.1296559792	 1.9426472647	-0.1101667573	-0.22345
C	-0.7974659558	 3.2677342955	-0.4887350366	 0.07676
C	 0.0000933829	 4.1157598233	 0.4718812554	-0.112078
C	 0.5020565285	 3.4503339418	 1.7483560095	-0.109435
O	 1.4620775544	 2.4666410337	 1.3414311991	-0.253761
C	 1.2196624984	 2.1485775544	-0.0287835152	-0.069459
C	 0.679745916	 3.4117683802	-0.6876215608	-0.120302
H	-1.5414132316	 3.7043280121	-1.1420633061	 0.121142
H	-0.1566544425	 5.1876443138	 0.4561991337	 0.107777
H	 1.0069695763	 4.1635194505	 2.4060444402	 0.120842
H	-0.3145456277	 2.9736984301	 2.3065157234	 0.122155
H	 2.1185620723	 1.7041661153	-0.4518203085	 0.115544
H	 1.157780236	 3.8950844891	-1.5277722972	 0.11177
