20
gdb 105969	4.27322	1.12393	1.11287	1.9626	82.61	-0.2051	0.0737	0.2788	1220.7118	0.169578	-365.903628	-365.89511	-365.894166	-365.936618	32.86	
C	 0.0808667549	 1.510965279	-0.220761965	-0.373403
C	-0.0246712654	 0.0154630618	 0.1107286056	-0.330201
C	-1.4312377179	-0.4903849569	 0.1089888891	 0.377672
C	-2.3678251293	-0.8673304276	-1.0131948802	-0.067963
C	-1.9703131738	-1.9249072248	-0.0134031918	-0.257616
C	-3.218318638	-1.5116322752	 0.817056195	 0.369364
C	-4.2124909585	-2.2885469987	 1.6086912039	-0.523221
C	-2.6970537527	-0.1222367992	 0.9360071285	-0.188708
N	-3.6097098143	-0.4807853289	-0.2141393685	-0.218833
H	 1.1227336045	 1.8448694722	-0.2026621081	 0.111818
H	-0.3283410975	 1.7223213848	-1.2135622663	 0.122113
H	-0.4761166136	 2.1155610483	 0.5026386284	 0.120244
H	 0.5565667291	-0.567234143	-0.6160749849	 0.102475
H	 0.4350632868	-0.1782064883	 1.0895757221	 0.102376
H	-2.2843279866	-0.8126818763	-2.0921184662	 0.093661
H	-1.4217814325	-2.849706668	-0.1305263951	 0.09059
H	-3.7475930733	-2.7492008098	 2.4876412729	 0.121087
H	-5.015331964	-1.6275979667	 1.9502539965	 0.133907
H	-4.6627013501	-3.0837095617	 1.0038546743	 0.126988
H	-2.9324245378	 0.6805391291	 1.6267632198	 0.08765
