16
gdb 32348	4.95197	1.04664	0.87013	5.7505	78.73	-0.2031	-0.0619	0.1411	1287.4291	0.125586	-434.076814	-434.068702	-434.067758	-434.109997	30.055	
C	 0.0250393796	 1.4454544757	-0.0137241011	-0.331833
N	 0.0115655713	 0.001417414	 0.1274981443	-0.373109
C	-1.2172483861	-0.6588331224	 0.0532923815	 0.181201
C	-2.4373482566	-0.0748556441	 0.0570617968	 0.01356
O	-3.5815923841	-0.7938975534	 0.0670542125	-0.199104
C	-3.5532940476	-2.1801550701	 0.0110362667	 0.43028
N	-4.6814604322	-2.7550476289	-0.0352295762	-0.529298
N	-2.3126910445	-2.8192850715	 0.0173706544	-0.300004
C	-1.2424001408	-2.1038176121	 0.0435168637	-0.008227
H	 1.0586117205	 1.7964584577	 0.0007815122	 0.133932
H	-0.455938851	 1.8010229106	-0.9399925198	 0.117289
H	-0.4969134096	 1.9041542959	 0.8336986009	 0.140227
H	 0.7292479792	-0.4560525224	-0.4183454417	 0.240741
H	-2.6333601685	 0.9884180194	 0.075859429	 0.134976
H	-4.5208102293	-3.7602515432	-0.0617594673	 0.23153
H	-0.2877148304	-2.6352395051	 0.060882644	 0.117841
