18
gdb 65940	2.21402	1.51733	1.3987	3.0825	76.33	-0.2533	0.0104	0.2637	1055.7972	0.147806	-398.09106	-398.082355	-398.081411	-398.124313	32.728	
C	-0.3457949383	 1.5268933436	 0.1466584354	-0.429769
C	 0.0444193233	 0.0532919592	 0.0548998848	 0.077388
N	 1.2911108964	-0.1970294788	-0.723683783	-0.350025
C	 1.8489214662	-1.0957590073	 0.3257998784	-0.233714
C	 0.751935914	-0.6126370872	 1.2710155605	 0.319607
C	 0.805524535	-0.0966725971	 2.6531935181	-0.303056
N	 0.1676714185	-1.3916423617	 2.3389204966	-0.358411
C	-1.1002710878	-0.7569705303	-0.3932974862	 0.249394
N	-1.9944495363	-1.39886742	-0.7496164459	-0.341942
H	 0.5183820561	 2.1044730885	 0.4805622263	 0.135291
H	-0.6581496739	 1.8998771456	-0.8330727308	 0.138434
H	-1.1757671445	 1.6738311501	 0.8452171577	 0.127485
H	 1.1433880252	-0.6288433187	-1.6291398178	 0.236121
H	 1.7637048347	-2.1681438259	 0.1130637524	 0.122168
H	 2.8834838108	-0.8611488675	 0.5939605833	 0.116835
H	 1.7280284647	-0.1686242372	 3.2232223065	 0.128861
H	 0.1775357484	 0.752678056	 2.9098829972	 0.120771
H	-0.8476853125	-1.3173247913	 2.3376546265	 0.244562
