12
gdb 20514	5.12667	1.61246	1.23598	1.8886	58.42	-0.2823	-0.0924	0.1899	893.1412	0.082442	-414.654227	-414.64717	-414.646225	-414.686166	24.377	
C	-0.0246405891	 1.5028386914	-0.058548312	-0.489495
C	-0.0259412498	-0.0025175621	 0.0413763784	 0.304757
O	-0.0459549834	-0.6134774325	 1.0862193001	-0.28171
C	-0.0012951548	-0.768072241	-1.2355040365	 0.310084
C	 0.0040462657	-2.1095801834	-1.4765617671	-0.167287
N	 0.0296974351	-2.2684540475	-2.8384946846	-0.109364
N	 0.040063722	-1.1494054841	-3.4168111626	 0.0041
O	 0.0214101123	-0.1351258062	-2.4116516446	-0.212661
H	 0.8644847375	 1.8464531973	-0.5981356277	 0.159651
H	-0.8914178289	 1.8458182017	-0.6336976896	 0.159639
H	-0.0450012934	 1.931264643	 0.9433693876	 0.152307
H	-0.0086272131	-2.9383833865	-0.7910211814	 0.169979
