19
gdb 47583	2.34277	1.98061	1.211	2.357	76.57	-0.2193	0.0264	0.2457	1038.8328	0.16227	-419.196246	-419.188736	-419.187792	-419.228405	29.411	
N	 0.1128954109	 0.8554935682	 1.0149215486	-0.519421
C	 0.0739542871	-0.1292975854	 0.2216027916	 0.380656
O	 1.2010597813	-0.6588975596	-0.3377940856	-0.250546
C	 1.0496673476	-1.8545718065	-1.1189817131	-0.083651
C	 0.1687131178	-2.8575237273	-0.3893270308	-0.174375
N	-1.1549268832	-2.2738222413	-0.2574024727	-0.080859
C	-1.906960226	-2.4000329247	 1.0095859202	-0.16932
C	-2.3016711791	-0.9041395823	 0.9107528617	-0.243957
C	-1.2248615372	-0.7888514173	-0.1917973941	-0.071868
H	 1.0779129742	 1.1665014373	 1.1470716286	 0.218217
H	 0.6213244697	-1.6098651568	-2.1000070313	 0.119585
H	 2.0607630522	-2.2373925739	-1.2691591723	 0.123943
H	 0.1344968643	-3.8016477179	-0.9493713214	 0.106668
H	 0.6280721581	-3.0718247263	 0.5920859637	 0.095212
H	-2.7143028444	-3.1391065145	 0.983183835	 0.104084
H	-1.261627913	-2.6173618342	 1.875114957	 0.095049
H	-3.3130500053	-0.7420231839	 0.5367686036	 0.110061
H	-2.1240599134	-0.2846450704	 1.7874652514	 0.13902
H	-1.5496831216	-0.3352766135	-1.1378938701	 0.101501
