18
gdb 70289	4.11352	1.0631	0.93335	4.3965	81.53	-0.2442	-0.057	0.1873	1268.2315	0.147592	-401.952481	-401.944262	-401.943318	-401.985202	31.325	
C	-0.0650069427	 1.5584423043	 0.0405322956	-0.497784
C	 0.1055201331	 0.0632183358	-0.0070784412	 0.308015
N	-0.756760703	-0.8212551414	 0.8381483582	-0.360853
C	 0.7007363554	-0.7810582949	 1.0758256767	-0.104289
C	 1.4492200517	-1.945875514	 0.4393957367	-0.314729
C	 1.1748838681	-1.7503060308	-1.0403306118	 0.2226
C	 1.6343908005	-2.6762007511	-2.0751469611	 0.081098
O	 2.2600979002	-3.6903809133	-1.8534063887	-0.274898
C	 0.4643019982	-0.6345034061	-1.2775930764	-0.19471
H	 0.8032531876	 2.0702228568	-0.3879341458	 0.131397
H	-0.9506754612	 1.8747387701	-0.5224815984	 0.130669
H	-0.1821432188	 1.9049608082	 1.07229929	 0.120741
H	-1.2113085372	-0.2365515171	 1.5392208268	 0.22671
H	 1.0641147696	-0.3380598726	 1.997455229	 0.091055
H	 2.5242893938	-1.9120584222	 0.6503198066	 0.119857
H	 1.0836011119	-2.9153086373	 0.7924956993	 0.137775
H	 1.3729496565	-2.3759279297	-3.1148443409	 0.065856
H	 0.1649560664	-0.2824806746	-2.2595341946	 0.11149
