21
gdb 64497	3.45125	1.29683	1.15971	1.2685	83.03	-0.2559	0.0718	0.3277	1151.5639	0.183449	-387.0184	-387.010371	-387.009427	-387.050988	32.804	
O	 0.1601282274	 1.3918826354	 0.0878799683	-0.485825
C	 0.2056231535	-0.0248608612	 0.143645219	 0.440737
C	 1.2649040256	-0.5494989377	-0.8065629746	-0.057393
C	 1.4010234125	 0.0367852814	-2.1904264599	-0.256935
C	 2.4852671196	 0.2678088693	-1.1698303618	-0.290716
C	 0.0274472747	-0.6837651505	 1.5622439069	-0.12092
C	-1.4081875294	-0.0742354013	 1.5801079596	-0.230914
C	-1.2212741849	-0.6609027786	 0.1459731124	-0.075728
C	-0.6084509187	-1.9105924818	 0.8436882664	-0.240676
H	 0.9565776959	 1.7297754316	 0.509370525	 0.280768
H	 1.4557955528	-1.6131048781	-0.7396424254	 0.085469
H	 1.5967509624	-0.6356528517	-3.0181567989	 0.106662
H	 0.7684645018	 0.8841726909	-2.4271084228	 0.125375
H	 2.5869779634	 1.2738340425	-0.7785866894	 0.096732
H	 3.427205305	-0.258354487	-1.2787154645	 0.10967
H	 0.7543019005	-0.7003043556	 2.3776686603	 0.062707
H	-2.1316014497	-0.5951464977	 2.2117872331	 0.085181
H	-1.4898091909	 1.0065292699	 1.6635791654	 0.108575
H	-1.9373362856	-0.6464339013	-0.6770939438	 0.070088
H	 0.0327194776	-2.5729952251	 0.2627239208	 0.093795
H	-1.3075567337	-2.4903963037	 1.4503721338	 0.093348
