23
gdb 118283	4.58009	0.50884	0.47548	3.531	84.21	-0.2485	-0.0194	0.2291	2262.4785	0.202516	-425.435692	-425.424205	-425.423261	-425.474012	39.598	
C	-0.1235634632	 1.6860629974	-0.06798454	-0.392689
C	 0.0309339991	 0.158092563	-0.0226707835	 0.019538
C	 0.7113236142	-0.3954414931	-1.2871646977	-0.168015
C	-0.0559535864	-0.1648336326	-2.5847254965	-0.086852
O	 0.6280054404	-0.8688356973	-3.6116840685	-0.420218
C	 0.8120238873	-0.3031273899	 1.2235732325	-0.192233
C	 0.1338843336	 0.0239401462	 2.5664832581	-0.286474
C	 0.840967599	-0.6483677537	 3.7209814837	 0.16099
O	 1.2952785205	-0.0817865236	 4.6809724212	-0.237146
H	 0.8561338846	 2.1736744186	-0.1409455432	 0.117088
H	-0.7186941909	 2.0065573399	-0.9275969488	 0.117138
H	-0.6206303954	 2.0696929498	 0.8273864975	 0.118123
H	-0.9753543336	-0.2841269553	 0.0391225509	 0.070301
H	 1.7149509571	 0.0369293131	-1.3915492785	 0.103043
H	 0.8506913195	-1.4781622583	-1.1819043861	 0.104045
H	-1.0911361936	-0.5299764881	-2.4732895528	 0.082333
H	-0.1123651846	 0.9091200728	-2.8168808387	 0.088168
H	 0.1837208117	-0.6910439679	-4.445666469	 0.28554
H	 0.9605171172	-1.3893131125	 1.1602042572	 0.099026
H	 1.8152305547	 0.143413609	 1.2084344664	 0.109958
H	 0.0982397995	 1.0973185195	 2.7668207181	 0.124488
H	-0.8985271125	-0.3570459828	 2.5480260668	 0.115052
H	 0.9260017318	-1.7570566443	 3.619348041	 0.068795
