18
gdb 125171	3.16343	1.49128	1.04636	3.4933	79.	-0.2381	-0.0038	0.2343	1141.3613	0.149522	-401.967177	-401.959382	-401.958438	-401.999729	29.49	
C	 0.0847305064	 1.5109794396	 0.0152612812	-0.492739
C	-0.0820652545	 0.032803228	 0.0334128196	 0.251391
C	-1.1431471553	-0.8120735158	-0.0093598235	 0.114973
C	-2.6388879118	-0.9041350517	-0.0826444913	-0.362297
C	-2.8486151898	-2.4051168385	-0.4748123107	-0.204338
C	-1.5892375535	-3.1870270588	 0.0153190751	-0.337528
C	-0.55392061	-2.100672409	 0.0428293887	 0.372355
N	 0.7479942232	-2.076239933	 0.1088185127	-0.256112
O	 1.0576138678	-0.7024368071	 0.1032219529	-0.224335
H	 0.7334882337	 1.8232042228	-0.8095831794	 0.149856
H	-0.8857934363	 1.9974640246	-0.1013449453	 0.136136
H	 0.541180902	 1.8681552085	 0.9447007814	 0.149618
H	-3.0995160315	-0.6865961983	 0.8895632182	 0.115833
H	-3.0985790802	-0.227607386	-0.8091845875	 0.113358
H	-3.7776661563	-2.8151439538	-0.0717038157	 0.104341
H	-2.9075471437	-2.4789214642	-1.565362727	 0.115841
H	-1.739780741	-3.5922810503	 1.0232443908	 0.125864
H	-1.3312253492	-4.026163407	-0.6349946003	 0.127783
