16
gdb 47978	5.25211	0.71661	0.67214	4.3757	86.54	-0.2607	-0.0622	0.1985	1630.9996	0.123676	-400.683139	-400.674704	-400.673759	-400.717422	30.04	
O	-0.2248672361	 0.1443980349	 0.4985797012	-0.236366
C	 0.0578609801	 1.0653898602	-0.2356272123	 0.004699
C	 1.2583047394	 1.8478763311	-0.139852084	 0.153829
C	 2.2567428359	 2.5308228076	-0.1001024228	 0.000187
C	 3.4447020376	 3.2974934147	 0.0095091492	 0.110151
C	 4.5979217885	 3.0574209269	 1.0079004405	-0.299636
C	 4.7898477865	 4.6038400086	 1.1302090661	-0.23943
C	 3.6480410659	 4.806650739	 0.1269808781	-0.08196
N	 3.8896644303	 4.1211521416	-1.1233722623	-0.336138
H	-0.6161473671	 1.3754015542	-1.0602728497	 0.099509
H	 4.2587847225	 2.6047247067	 1.9407238102	 0.131386
H	 5.4333729177	 2.4719481401	 0.6122394778	 0.109017
H	 4.5554578356	 4.9709578705	 2.1312676535	 0.12231
H	 5.755536303	 5.0162533057	 0.8214885663	 0.109737
H	 2.8961041603	 5.5869810788	 0.1403145336	 0.117971
H	 4.8809917298	 3.9845476294	-1.3183042753	 0.234736
