22
gdb 75142	3.23328	1.19346	1.10262	1.7007	83.24	-0.237	0.0331	0.27	1243.728	0.193683	-404.3851	-404.37552	-404.374576	-404.418816	36.463	
C	-0.0500785877	 1.4971431767	 0.0674640444	-0.454461
C	-0.0462976383	 0.002842782	-0.0685592734	 0.392558
N	-0.0445811199	-0.5725514197	-1.1980542421	-0.311338
C	 0.0070283444	-2.0290059496	-1.2551742005	-0.172352
C	 0.4933447057	-2.7111400544	 0.0406333042	 0.207866
C	 0.12014517	-4.1984001193	 0.0383084018	-0.429145
C	 2.0149232647	-2.5477244854	 0.2004016535	-0.410362
C	-0.2400194065	-2.0038791514	 1.1846059702	-0.083662
O	-0.0331808324	-0.5872278122	 1.162648162	-0.264344
H	 0.8128737891	 1.8252542588	 0.655957428	 0.13592
H	-0.0179837492	 1.9543050986	-0.9205131069	 0.14278
H	-0.9472059213	 1.8286181756	 0.6003758213	 0.134719
H	-0.993447093	-2.399714844	-1.5200209873	 0.100605
H	 0.6600371541	-2.3088388647	-2.0913323645	 0.103176
H	 0.5806430789	-4.7109968977	-0.8130846561	 0.119394
H	 0.4653597854	-4.6978762717	 0.9507552539	 0.112625
H	-0.9638129841	-4.3397370342	-0.0341960586	 0.11327
H	 2.3146766026	-1.4967338843	 0.1837149937	 0.130013
H	 2.3585706437	-2.9800837788	 1.1467466481	 0.108421
H	 2.5420356113	-3.0584024685	-0.6121914577	 0.113386
H	-1.3192588417	-2.2011992269	 1.1226940569	 0.101614
H	 0.1130698941	-2.3386705388	 2.1645016791	 0.109316
