18
gdb 30206	4.51043	1.24272	1.0116	1.7286	79.	-0.184	0.0466	0.2306	1170.2968	0.14999	-401.983784	-401.97606	-401.975116	-402.015931	30.392	
C	-0.6381586638	 1.4010253344	-0.0146041954	-0.400168
C	 0.1849949214	 0.127896241	 0.0264010025	 0.134277
C	 1.0584567342	-0.1449230566	-1.2438830083	-0.405404
C	 2.3141906425	-0.6678347071	-0.6126562118	 0.200174
C	 3.5358998717	-1.2454328349	-0.8547731313	-0.229994
N	 4.1837337652	-1.3315943274	 0.3562345219	-0.243402
C	 3.3947857454	-0.8254096683	 1.3837757015	-0.245163
C	 2.2417840582	-0.4102467443	 0.7727310681	 0.328796
O	 1.0880416118	 0.1944287012	 1.1698356962	-0.302759
H	 0.0074216716	 2.2695598455	-0.1775835255	 0.1245
H	-1.3694576824	 1.3534983127	-0.8280199869	 0.115805
H	-1.1784073473	 1.543381358	 0.92538138	 0.127003
H	-0.4700088565	-0.7380688658	 0.1966331632	 0.082666
H	 0.5530058768	-0.843331141	-1.9176096787	 0.111307
H	 1.2279837811	 0.784200534	-1.8048419497	 0.108124
H	 4.00602942	-1.5988427034	-1.7582702207	 0.117635
H	 5.081023259	-1.7602405463	 0.4930603432	 0.258045
H	 3.7334147213	-0.8146730617	 2.4049389818	 0.118559
