21
gdb 60077	2.32714	1.1289	0.94393	1.1528	85.4	-0.236	0.0571	0.2931	1371.5423	0.17943	-387.047406	-387.037088	-387.036143	-387.08271	38.747	
C	-0.119242593	 1.5150679317	-0.0860357994	-0.401948
C	 0.1545318844	 0.0120806099	-0.1543746357	 0.130707
O	 1.2777161486	-0.2649866138	-0.9919852236	-0.433076
C	 0.4789437075	-0.5758317963	 1.2205828994	-0.267144
C	 0.5347102283	-2.1008005619	 1.2528624296	 0.174743
C	 1.8079227897	-2.7917485514	 0.7891513966	-0.276361
C	 1.4786619818	-2.7626776023	 2.251348324	-0.318212
C	-0.7162633221	-2.7636644725	 0.9922918034	 0.29407
C	-1.7739023315	-3.2966399133	 0.7760213985	-0.488154
H	 0.7440859604	 2.0449307789	 0.329632797	 0.12117
H	-0.3146556909	 1.9185639497	-1.086209415	 0.102581
H	-0.9950079831	 1.729862194	 0.5350624417	 0.115943
H	-0.7392682737	-0.4988552791	-0.5452759405	 0.081359
H	 1.0596989026	 0.0200792941	-1.8845695876	 0.280569
H	 1.4473756606	-0.1744090348	 1.5420007258	 0.100286
H	-0.2721837518	-0.2302367664	 1.9398683876	 0.102688
H	 1.6982684576	-3.7300760996	 0.2588767601	 0.121244
H	 2.5902019066	-2.1453923108	 0.4116425919	 0.133443
H	 2.0454662246	-2.1028817538	 2.8999274575	 0.114605
H	 1.1414117441	-3.6785514501	 2.721746964	 0.123084
H	-2.7013152407	-3.7765660722	 0.5851443647	 0.188402
