23
gdb 120751	3.11388	0.84815	0.74264	1.6225	86.59	-0.2602	0.0876	0.3478	1643.6291	0.204978	-388.260841	-388.250955	-388.250011	-388.296442	36.347	
C	-0.2313140481	 1.5223602642	-0.2311424998	-0.380925
C	-0.2171433168	-0.0054774114	-0.3252020834	-0.155801
C	 0.9859507113	-0.5456088353	-1.1109559432	-0.204881
C	 1.0042766266	-2.0593736869	-1.1859518291	-0.005003
C	 0.2367854304	-2.7963467377	-2.2597842855	-0.30183
C	 1.7448310741	-2.8152906339	-2.2688219756	-0.062502
C	 2.5109647633	-2.1160170747	-3.3493552319	 0.062205
C	 2.279713673	-2.3956200206	-4.7746559806	-0.176938
O	 1.8085052356	-1.185261022	-4.1775369592	-0.226878
H	 0.6702025632	 1.8973847837	 0.2665176143	 0.111125
H	-0.2710586304	 1.9788990091	-1.2263818033	 0.116183
H	-1.0969565356	 1.8811098048	 0.3347326612	 0.108254
H	-0.2139980872	-0.435824598	 0.6853769371	 0.088799
H	-1.1422705084	-0.3557769501	-0.8002655533	 0.09815
H	 0.9802034433	-0.1256018518	-2.1222623473	 0.125413
H	 1.9117979697	-0.1916247214	-0.6351230732	 0.087233
H	 1.0168979238	-2.5450225141	-0.2118761497	 0.077978
H	-0.2945998758	-3.706262869	-2.0040923565	 0.105004
H	-0.2367497725	-2.1886879104	-3.0240049515	 0.12737
H	 2.2269216282	-3.7379551616	-1.9527787482	 0.085695
H	 3.5087601861	-1.7740174612	-3.0670817233	 0.092086
H	 3.0885255835	-2.2745236955	-5.4936621989	 0.113617
H	 1.5038699328	-3.1065610562	-5.0540731494	 0.115645
