19
gdb 73856	2.73931	1.37482	0.93489	3.6612	80.57	-0.2013	0.0211	0.2224	1249.5063	0.160069	-419.27806	-419.268655	-419.267711	-419.312459	34.296	
C	 0.1404682766	 1.525087592	 0.1772684718	-0.485542
C	 0.0040526031	 0.0375587109	 0.0318871678	 0.181506
C	-1.1443615517	-0.6428600277	-0.0981308056	 0.283352
C	-2.5361522419	-0.078492012	-0.1104216372	-0.500306
N	-1.1209311194	-2.037860447	-0.2570533822	-0.415701
C	-0.0105580909	-2.8388284931	-0.042975004	 0.441361
O	-0.0751569251	-4.0548029947	-0.0464891332	-0.413198
N	 1.1390909646	-2.1370487185	 0.1978987476	-0.356042
C	 1.3172206037	-0.7088754335	-0.0136910097	-0.233428
H	 0.7878753013	 1.9367109997	-0.6097968816	 0.122917
H	-0.8124061861	 2.0529076808	 0.1229105031	 0.123284
H	 0.6123708647	 1.7895889699	 1.1335224033	 0.123923
H	-3.0509115	-0.3521056517	-1.0397781629	 0.13551
H	-3.1263834975	-0.4878394227	 0.7189372424	 0.135688
H	-2.5468194616	 1.0068635856	-0.0274607219	 0.137537
H	-1.9872295969	-2.5485329965	-0.3032610676	 0.252433
H	 1.9563967565	-2.7219453715	 0.2660903211	 0.251792
H	 1.8280451984	-0.5054555686	-0.9738295478	 0.104675
H	 1.9862276522	-0.3199669916	 0.7677719867	 0.11024
