22
gdb 120788	2.31268	0.97967	0.78843	1.0333	88.17	-0.2261	0.0394	0.2655	1558.7194	0.191897	-367.146625	-367.136196	-367.135252	-367.182744	37.958	
C	 1.0255396125	-0.1959402723	 4.9905316532	-0.381637
C	 1.2676870605	-1.3016605197	 3.9600271752	-0.159715
C	 0.3087381103	-1.225339524	 2.7631040296	-0.212589
C	 0.608750245	-2.2940054754	 1.7317688015	 0.02109
C	-0.0632079476	-3.6267845492	 1.7524546572	-0.25534
N	-0.3130459596	-2.6882522922	 0.6635495361	-0.109099
C	-1.6282785676	-2.053998554	 0.5003521324	-0.28411
C	-2.607822047	-2.1726999917	 1.5855332388	 0.306913
C	-3.4301087151	-2.304640846	 2.4539766873	-0.466107
H	 0.0071014879	-0.2446443221	 5.3916179358	 0.115532
H	 1.7196183361	-0.2763578815	 5.8329398231	 0.111318
H	 1.1564789984	 0.7963858544	 4.5445941025	 0.113798
H	 2.3032431239	-1.2464997284	 3.599168842	 0.095457
H	 1.1650845956	-2.2838561709	 4.4382876766	 0.100379
H	-0.7243458905	-1.3099632172	 3.1126356114	 0.117157
H	 0.4009138746	-0.2350084952	 2.293934404	 0.09337
H	 1.6407103119	-2.266857024	 1.378139635	 0.085516
H	 0.4717367983	-4.5330716848	 1.4790025575	 0.109663
H	-0.850867759	-3.7654004039	 2.4907235218	 0.120431
H	-1.4634053079	-0.9941715852	 0.2714145776	 0.137094
H	-2.0767560404	-2.4922959608	-0.4004614061	 0.14077
H	-4.1572048905	-2.4071725061	 3.2213973176	 0.200111
