18
gdb 94477	3.39167	0.88691	0.79133	2.7899	81.38	-0.2471	0.021	0.2681	1490.5444	0.145671	-401.907106	-401.897613	-401.896669	-401.943153	33.732	
C	-0.2874930209	 1.4039561166	 0.0717586438	-0.403519
C	-0.0090357475	-0.0874406241	-0.0666485375	-0.148271
C	 1.0011884956	-0.5617891614	-1.1386273294	-0.09047
O	 1.8577251883	-1.1279887691	-0.0987095295	-0.267453
C	 0.9993990496	-0.6877982538	 0.8943375278	 0.474878
N	 1.0829440382	-0.7660251819	 2.1408134891	-0.328789
C	 2.26324906	-1.4202247649	 2.718041067	-0.32138
C	 3.010509057	-0.5063026581	 3.5799608917	 0.329764
C	 3.6373824218	 0.2371157558	 4.2852378736	-0.466709
H	 0.6423946467	 1.9812056597	 0.0692583004	 0.128295
H	-0.9173333561	 1.7622935983	-0.748470675	 0.120484
H	-0.8035605829	 1.60464156	 1.0143892475	 0.146011
H	-0.9430922992	-0.656379357	-0.0843987678	 0.109907
H	 0.6627913651	-1.3364461118	-1.8306738471	 0.121412
H	 1.5232428461	 0.2318977446	-1.6804094168	 0.121507
H	 1.9118740915	-2.2673838363	 3.3213234062	 0.137255
H	 2.9374333217	-1.8300339405	 1.953883919	 0.141907
H	 4.188939405	 0.894038744	 4.9107291368	 0.195172
