19
gdb 62632	2.75438	1.9094	1.64783	1.7938	71.97	-0.2377	0.0878	0.3255	915.3856	0.160157	-423.019099	-423.011742	-423.010798	-423.050313	30.266	
C	-0.0352993888	 1.5364157505	 0.0087451314	-0.447259
C	-0.0109413883	 0.0058489179	-0.0217753534	 0.302563
C	-1.4248997252	-0.5757184115	-0.1034145488	-0.447245
C	 0.9441820847	-0.5665741352	-1.0758478732	-0.19776
C	 2.3027040858	-0.5940273631	-0.3863507442	 0.02563
O	 2.1340109596	-0.1084499931	 0.9346564826	-0.247015
C	 0.8161908968	-0.6007888315	 1.1542654611	 0.106123
O	 0.8985796952	-1.9859034719	 0.835002154	-0.247011
C	 1.4747955002	-1.8520545396	-0.453165313	 0.025604
H	 0.970771354	 1.9484399948	 0.1056927405	 0.132911
H	-0.4854986205	 1.9321113087	-0.9077048061	 0.112317
H	-0.6369758864	 1.8980013295	 0.8506947515	 0.110768
H	-1.9216090983	-0.2510389927	-1.023739393	 0.112317
H	-1.4078265874	-1.6669350773	-0.0860694372	 0.132918
H	-2.0362260773	-0.2285087959	 0.737634437	 0.110769
H	 0.815970554	-0.4256503106	-2.1402564394	 0.092114
H	 3.2716025121	-0.4162325517	-0.8278977794	 0.113793
H	 0.5003065322	-0.4475398547	 2.1830806437	 0.094672
H	 1.7177386576	-2.7773523026	-0.9533064742	 0.11379
