19
gdb 64311	2.27835	1.72866	1.26261	3.6238	77.64	-0.2487	-0.059	0.1897	1059.1107	0.15935	-423.072631	-423.064191	-423.063247	-423.105133	33.212	
C	-0.111673166	 1.57432503	 0.0856031093	-0.419735
C	-0.0213462372	 0.0368968839	-0.0228890003	 0.274958
O	-1.3231141782	-0.5063955809	-0.0546707383	-0.480832
C	 0.7381038472	-0.4180579889	-1.2783038017	-0.24707
C	 2.2186458343	-0.0110583867	-1.2504730964	-0.283309
C	 2.8634798931	-0.2597123325	 0.0827328757	-0.029475
C	 2.1747553088	-0.4806076643	 1.2112847985	-0.147349
C	 0.7044968526	-0.4973642793	 1.223041297	 0.349842
O	 0.0519795845	-0.8997059577	 2.1707013364	-0.368264
H	 0.8698827581	 2.0567327336	 0.1137104506	 0.113738
H	-0.6704625017	 1.9574816425	-0.7731249174	 0.126877
H	-0.6541834002	 1.8457584473	 0.9955206046	 0.128279
H	-1.4972075009	-0.7927815107	 0.856407124	 0.286439
H	 0.6590123413	-1.5095933174	-1.3328410607	 0.11505
H	 0.2407669775	-0.0178286232	-2.1676705369	 0.109313
H	 2.7756151862	-0.5458192797	-2.0290283277	 0.119523
H	 2.3354660329	 1.0545738147	-1.4984779444	 0.128784
H	 3.9512510206	-0.2568931775	 0.112869749	 0.111937
H	 2.6664563373	-0.6896285933	 2.1561517988	 0.111293
