18
gdb 82431	2.34672	1.84032	1.24269	2.0086	71.14	-0.2358	-0.0336	0.2021	1022.0159	0.148754	-439.076275	-439.068382	-439.067438	-439.109007	30.429	
O	 0.1321506158	 1.3103008836	 0.3525183048	-0.438019
C	 0.0182028469	-0.0511188199	 0.0406723987	 0.031699
C	-1.4374254167	-0.5228841341	 0.0916957111	-0.035178
C	-2.3715911998	-0.0554348099	-0.9610068251	-0.2376
N	-1.9880783149	-1.4644334535	-0.8964544771	-0.097774
C	-1.1438665474	-1.9894502018	-1.9798720892	-0.16231
C	 0.3789635782	-1.7648179445	-1.7938423012	-0.305335
C	 0.620641526	-0.3566881036	-1.323454337	 0.350741
O	 1.1947724889	 0.5099280833	-1.9477126487	-0.334996
H	 0.634871449	 1.6947454952	-0.3842443971	 0.29185
H	 0.5933028784	-0.6512513952	 0.7687842396	 0.093887
H	-1.8164637686	-0.6732540541	 1.0997639859	 0.103624
H	-3.4097635326	 0.1655133077	-0.7289530672	 0.120333
H	-1.9462123258	 0.5578741143	-1.7556788161	 0.118021
H	-1.324583244	-3.0662779017	-2.0611383391	 0.120674
H	-1.4623639935	-1.5410756674	-2.9273743631	 0.122027
H	 0.7428463707	-2.4537529319	-1.0221369451	 0.128635
H	 0.9198632293	-1.9589665967	-2.722518514	 0.129721
