17
gdb 16404	3.43203	2.2032	1.72077	2.8072	67.27	-0.217	-0.0094	0.2076	798.1467	0.145049	-363.862988	-363.856391	-363.855447	-363.893975	25.996	
O	-0.0287022534	 0.0746827731	-0.4850794979	-0.330844
C	 0.0028211095	 1.2057891251	-0.0648777977	 0.406916
C	-1.2695643417	 1.9127411256	 0.4380019893	-0.278082
N	-1.1126733328	 3.343687561	 0.7615606755	-0.296844
C	 0.2681817182	 3.8165249953	 0.6951373812	 0.016962
C	 0.9871921474	 3.4158853707	-0.6304878899	-0.244538
C	 1.2585564262	 2.0372217951	 0.0572988047	-0.115499
C	 1.1975026072	 2.8077541431	 1.4143457785	-0.231958
H	-2.0543621371	 1.756652298	-0.3081623391	 0.13078
H	-1.5905464875	 1.353497687	 1.328768657	 0.137917
H	-1.6787425712	 3.8967901238	 0.1286609387	 0.220951
H	 0.297219191	 4.8643502507	 1.0021005006	 0.073388
H	 0.4030550987	 3.4296205349	-1.5555263122	 0.097715
H	 1.9217050008	 3.9629755401	-0.7823808504	 0.107893
H	 2.1414604291	 1.4572672357	-0.2112073746	 0.082374
H	 2.1660096149	 3.2525825157	 1.6515127684	 0.112016
H	 0.8052757307	 2.2926394049	 2.2947119378	 0.110854
