19
gdb 72797	2.68561	1.69345	1.30073	1.6301	77.63	-0.2388	0.0098	0.2486	1028.1906	0.159858	-423.000849	-422.992987	-422.992043	-423.032751	31.057	
C	-0.0057111258	 1.5457952927	-0.0930126407	-0.439916
C	 0.0517665251	 0.0312515563	 0.0424656629	 0.387766
C	 0.6543701116	-0.642174958	-1.1936119132	-0.15121
O	 2.0596356545	-0.4020118774	-1.1262084364	-0.260069
C	 2.7435158941	-1.0338940735	-0.050373672	-0.097536
C	 1.9395836399	-1.1248111386	 1.2237234186	-0.244875
C	 0.7409535777	-0.5651047766	 1.2420041328	 0.192047
C	-0.6178865459	-0.7718291289	 1.8574502087	-0.166245
O	-1.2160130652	-0.4949080093	 0.556892066	-0.348547
H	 0.9511579488	 1.9255830201	-0.4613710517	 0.134182
H	-0.7910279534	 1.8190854434	-0.8060825833	 0.122816
H	-0.2304194898	 2.0253057178	 0.8635710846	 0.115006
H	 0.4137422304	-1.7144715369	-1.1901400421	 0.098725
H	 0.3255051801	-0.2018660193	-2.1393957629	 0.106408
H	 3.0329876156	-2.0602911086	-0.3389929211	 0.104047
H	 3.6736776892	-0.4674681935	 0.0788356063	 0.122715
H	 2.3178710474	-1.7613994001	 2.0187866939	 0.098156
H	-0.8499879068	-1.7784252699	 2.2224501158	 0.11807
H	-0.9347496374	-0.0343244997	 2.6076612636	 0.108461
