20
gdb 108079	2.55483	1.4806	1.25398	2.5889	78.85	-0.2376	0.0869	0.3245	1107.1123	0.171316	-403.086304	-403.077831	-403.076887	-403.119362	32.734	
C	-0.0878626313	 1.4739433442	 0.2512759851	-0.532321
C	-0.0889439932	 0.0186821803	-0.0715860391	 0.301139
C	 0.8638346529	-0.9349209256	-0.9095539956	-0.130728
C	 1.0446164759	-1.6981323812	 0.4094207145	-0.153202
N	-0.2248989719	-1.0899551778	 0.9246677476	-0.236038
C	-1.1403687192	-1.0088310327	-0.2906985107	 0.277699
C	-2.6000223627	-1.0139735029	 0.047707962	-0.172235
O	-2.9970305771	-2.2504290387	 0.6190025611	-0.419885
C	-0.4109531385	-1.5983291692	-1.4956718633	-0.292158
H	 0.8542987857	 1.7757894772	 0.7225287143	 0.128088
H	-0.2214813135	 2.0795202201	-0.6518228966	 0.125506
H	-0.9001357449	 1.7092531756	 0.9455950041	 0.136912
H	 1.6972103408	-0.648760267	-1.5491337673	 0.073502
H	 1.0625995726	-2.7941105305	 0.3753630347	 0.096193
H	 1.8744481687	-1.3347197255	 1.0213879349	 0.107004
H	-2.8230180573	-0.1727166788	 0.7224510586	 0.089156
H	-3.2033607131	-0.8814166716	-0.8568165733	 0.107235
H	-2.3902010074	-2.3989430066	 1.3545386405	 0.290472
H	-0.7424118051	-1.1119448225	-2.4172950171	 0.103203
H	-0.3989665214	-2.6847773668	-1.6330878243	 0.100458
