13
gdb 23651	3.73569	1.93004	1.28265	1.5476	63.02	-0.2623	-0.0546	0.2077	875.0608	0.096094	-402.806329	-402.799721	-402.798777	-402.837486	24.075	
C	 0.0103087275	 1.4975153717	 0.0365575569	-0.470855
C	 0.0115962481	-0.0036469923	-0.0081647156	 0.310322
C	-0.1661656304	-0.7194625711	-1.1931139606	-0.059711
N	-0.1651290359	-2.0554082073	-1.2334430982	-0.218259
C	 0.0146569237	-2.6926835572	-0.0830087853	-0.132915
C	 0.1912369634	-1.9639232883	 1.0946536422	 0.298706
F	 0.3696523396	-2.6190802145	 2.2354826772	-0.06444
N	 0.1930821736	-0.6565300374	 1.1527896426	-0.337732
H	 0.959777521	 1.8674016485	 0.4362751602	 0.1492
H	-0.1439405183	 1.9269191137	-0.955813953	 0.129109
H	-0.7799766671	 1.8579652656	 0.7025984572	 0.1492
H	-0.3134624526	-0.2005870589	-2.135792399	 0.115615
H	 0.0211928774	-3.7780304826	-0.0786337346	 0.13176
