18
gdb 102947	3.0081	0.94776	0.75541	3.5073	77.35	-0.258	0.0234	0.2814	1479.9526	0.144415	-439.028029	-439.017802	-439.016858	-439.064124	35.465	
C	-0.3100404094	 1.1451186388	 0.2725723723	-0.241625
O	-0.3177369928	-0.2616454732	 0.4291665224	-0.23277
C	 0.671276391	-0.7487121427	 1.3167388724	-0.074636
C	 0.3069968143	-2.2074473505	 1.62697473	-0.107119
O	-0.8856125319	-2.2864830011	 2.3865653978	-0.180811
C	-2.0540905803	-2.3271536709	 1.7056148005	 0.13203
N	-3.1433258971	-2.2717191348	 2.3385406039	-0.444952
C	 2.0237664982	-0.6624691092	 0.7532453378	 0.338044
C	 3.1283598644	-0.6143860066	 0.2819994736	-0.463257
H	 0.6376151502	 1.4975774582	-0.1556203447	 0.122802
H	-1.1262411979	 1.3916781411	-0.4093804311	 0.133739
H	-0.4779040208	 1.6550674491	 1.2323901466	 0.116392
H	 0.6350979173	-0.1850584656	 2.2634791101	 0.111649
H	 0.2207120637	-2.7617676288	 0.6844028481	 0.125206
H	 1.0955111538	-2.6599244667	 2.2315267571	 0.133549
H	-1.9239245653	-2.4244324878	 0.6218869239	 0.097726
H	-3.922564928	-2.3457928026	 1.6878594029	 0.227597
H	 4.1065189006	-0.5627537568	-0.1295283635	 0.206434
