16
gdb 69146	2.72968	1.6743	1.31555	4.309	68.59	-0.2334	-0.0432	0.1902	987.219	0.124004	-437.8495	-437.842032	-437.841087	-437.881264	29.003	
C	-0.0716741417	 1.5108889213	-0.009545068	-0.503445
C	 0.0254164889	 0.0096751404	 0.0132599022	 0.289934
N	-0.7890460294	-0.8108265667	 0.9186167658	-0.340625
C	 0.6923017976	-0.7758323169	 1.0936460431	-0.227344
C	 1.4736579074	-1.9031425667	 0.4496234093	 0.44909
O	 2.3385169283	-2.5540794851	 0.978308487	-0.311191
C	 1.1632894357	-1.9009282243	-1.0416859398	-0.106423
O	-0.2274261857	-2.0422901081	-1.3666982575	-0.218953
C	 0.3046930376	-0.7295719589	-1.3060827955	 0.004731
H	 0.8013962655	 1.9560190264	-0.4990459427	 0.134477
H	-0.96397476	 1.8374276053	-0.5557537229	 0.137523
H	-0.1276340204	 1.915428962	 1.0057803353	 0.125149
H	-1.1879000641	-0.2064225273	 1.6368392284	 0.236043
H	 1.1100568526	-0.331259484	 1.9906221338	 0.108557
H	 1.8738573786	-2.342018325	-1.7348321283	 0.116605
H	 0.3325399091	-0.1750610423	-2.2407018703	 0.105872
