15
gdb 7925	3.60231	1.82188	1.26273	2.5932	62.61	-0.2764	-0.0138	0.2626	924.6248	0.119388	-399.865422	-399.858131	-399.857187	-399.897362	26.796	
C	-0.217004402	 1.5461814065	 0.0280086158	-0.39923
C	 0.0657199625	 0.0456766881	-0.0238375727	-0.080805
C	 0.9408207836	-0.4455400409	-1.1866109889	-0.372908
C	 1.8072542695	-1.5338553762	-0.5777002144	 0.417341
O	 2.4950817384	-2.3481403988	-1.1075007028	-0.305925
O	 1.7181550801	-1.4480332052	 0.8025327038	-0.215219
C	 0.8164954247	-0.467935104	 1.191834837	 0.413131
N	 0.6564154671	-0.095058353	 2.3804777451	-0.516021
H	 0.7158819475	 2.118869352	 0.0256711275	 0.124909
H	-0.8133383769	 1.8569226675	-0.8346374097	 0.120785
H	-0.7612378468	 1.7954284215	 0.9410465852	 0.152777
H	-0.8893847691	-0.4952449001	-0.0458324185	 0.122737
H	 0.3951763716	-0.8351671625	-2.0469372598	 0.149617
H	 1.6082890037	 0.3439150739	-1.5523596804	 0.150898
H	 1.2722125161	-0.6032148987	 3.016757653	 0.237914
