19
gdb 107441	3.01011	1.38532	1.18018	1.9545	73.88	-0.2573	0.0759	0.3332	1098.1786	0.160187	-422.997587	-422.98974	-422.988796	-423.029888	31.076	
O	 0.1514713524	 1.3592051374	 0.1450635787	-0.416064
C	 0.0661204483	-0.0304407683	-0.1399235104	-0.163943
C	-1.3505114408	-0.5402955217	-0.1056215562	 0.305479
C	-1.9909208632	-0.9939003199	 1.1909942829	-0.334771
C	-1.7177277551	-2.0012093445	 0.1028227627	-0.107441
C	-2.8251095105	-2.3823732198	-0.8870045004	-0.265747
C	-3.1894261562	-1.0958159094	-1.6168431045	 0.04023
O	-3.7005506028	-0.0539342691	-0.7729708776	-0.257483
C	-2.3157837737	-0.0077521211	-1.148203892	-0.03024
H	-0.3060677608	 1.507665087	 0.9798065426	 0.283697
H	 0.4962513053	-0.1454668329	-1.1419407044	 0.108621
H	 0.6867760931	-0.6250061329	 0.5496823292	 0.085106
H	-1.3526303602	-1.043653774	 2.0685010834	 0.103454
H	-3.0130083937	-0.6896434171	 1.3776972756	 0.13711
H	-0.9408201625	-2.7347635397	 0.2926507184	 0.087308
H	-2.4430873997	-3.1086035109	-1.6137368013	 0.107145
H	-3.6972709047	-2.8349077387	-0.4027368472	 0.11766
H	-3.6275981997	-1.1353135007	-2.611869327	 0.095471
H	-2.0233412155	 0.8467899464	-1.7513050025	 0.104409
