20
gdb 122575	5.05667	0.73191	0.69082	2.3472	76.65	-0.2562	0.0232	0.2794	1689.5182	0.17092	-440.303288	-440.294005	-440.293061	-440.338767	32.823	
C	 0.0140649488	 1.5265410153	 0.1057608793	-0.383444
C	 0.0505029233	-0.0001002769	 0.0007962446	-0.18414
C	 0.6762435395	-0.4725988934	-1.3027524794	-0.050742
O	 0.665205839	-1.8987292378	-1.3170642406	-0.240671
C	 1.2738361915	-2.4726659781	-2.4172860481	 0.192103
C	 1.2427914567	-4.0088545757	-2.2881379564	-0.204325
N	 0.2591836849	-4.4655901147	-3.2821710478	-0.259101
C	-0.064844094	-3.429873746	-3.9336299235	 0.11479
O	 0.4981096686	-2.2318422912	-3.6251865526	-0.233203
H	 1.0216824328	 1.9548897361	 0.0650621395	 0.117246
H	-0.5670954356	 1.9691054178	-0.7106136802	 0.119342
H	-0.4425868919	 1.8432630106	 1.0475766808	 0.120104
H	 0.6164047558	-0.4267052233	 0.8368587246	 0.107226
H	-0.963483231	-0.4102430908	 0.0679032241	 0.111953
H	 0.1180543941	-0.0867905789	-2.1661289244	 0.11089
H	 1.7141841305	-0.1111737529	-1.390277448	 0.089225
H	 2.2617923166	-2.0304632164	-2.5996304525	 0.081177
H	 2.2170653668	-4.4626962067	-2.4954622395	 0.119383
H	 0.9384632519	-4.292040688	-1.2771951234	 0.132756
H	-0.7688971781	-3.3975077888	-4.7577854768	 0.139431
