23
gdb 80566	2.32456	1.44309	1.17331	1.3588	85.75	-0.2306	0.0855	0.3161	1215.6652	0.205226	-388.295354	-388.285901	-388.284957	-388.328956	36.638	
C	-0.0375605552	 1.5914391972	 0.0258293301	-0.420806
C	 0.0433239916	 0.0828053217	 0.0712928522	-0.081834
C	 1.3351994324	-0.6624049208	-0.1833245248	 0.032353
O	 2.5158185835	 0.0950345888	-0.1285529346	-0.275405
C	 2.978826553	 0.1040184488	 1.2336737694	 0.170799
C	 3.862891874	 1.3185761581	 1.4498445825	-0.408927
C	 1.6967037459	 0.0311205489	 2.092311072	-0.327491
C	 0.7094705964	-0.7170643779	 1.1876638098	 0.304528
C	 0.0258143207	-1.9495770706	 1.7322537663	-0.485778
H	 0.9414037527	 2.0481060004	 0.184562101	 0.130471
H	-0.3936853883	 1.9219844775	-0.9556577704	 0.116699
H	-0.7301980656	 1.983187899	 0.7791159776	 0.111285
H	-0.8350192318	-0.418361036	-0.3324993803	 0.076304
H	 1.374701231	-1.515276122	-0.8565411109	 0.084521
H	 3.5695617494	-0.8118522072	 1.4029971457	 0.066408
H	 3.295120471	 2.2436268652	 1.3085873442	 0.122224
H	 4.2708252629	 1.3148312485	 2.465675681	 0.114667
H	 4.6986589657	 1.3169768399	 0.7446191169	 0.1264
H	 1.8695361247	-0.5147349595	 3.0245758547	 0.098332
H	 1.3472780166	 1.0344986485	 2.3600949938	 0.100092
H	-0.6867413143	-1.6936385939	 2.5256118407	 0.117353
H	-0.5310506368	-2.4742574124	 0.9491098808	 0.114601
H	 0.7519100106	-2.6551727321	 2.1538106422	 0.113205
