17
gdb 50922	1.78285	1.5151	0.91702	3.2558	74.21	-0.2734	0.0024	0.2758	1265.1435	0.135689	-418.028342	-418.019185	-418.018241	-418.063303	32.312	
O	 0.4364632705	 0.2189504133	 1.2151941399	-0.320529
C	 0.2430889491	 1.1875133603	 0.511938358	 0.16661
N	 1.1769497565	 1.7507735271	-0.3044471556	-0.284583
C	 2.5266076339	 1.203364893	-0.4008824926	-0.141965
C	 2.9289091694	 1.1380260029	-1.8156182311	 0.281515
N	 3.2522063839	 1.1213296147	-2.9245917274	-0.315617
C	 3.555022863	 1.9600042013	 0.4254162905	 0.018019
C	 3.6228929649	 1.6898986513	 1.9063481391	-0.282536
C	 4.7283471487	 1.2092575015	 1.0013685964	-0.260975
H	-0.7261924751	 1.7173811295	 0.458810714	 0.096284
H	 0.936542436	 2.5651889757	-0.8472777129	 0.263607
H	 2.4493152261	 0.181219127	-0.0132089324	 0.162527
H	 3.7338007776	 2.9770590105	 0.0896061385	 0.097647
H	 3.8221647112	 2.529284439	 2.5625492779	 0.120242
H	 2.9336783571	 0.9558489625	 2.3084460905	 0.148619
H	 4.7970274995	 0.1448233461	 0.8028806327	 0.126386
H	 5.6858253577	 1.7156970044	 1.0326076547	 0.124747
