13
gdb 21542	3.46079	2.04277	1.29021	1.0326	56.58	-0.1939	0.0378	0.2318	863.6968	0.096046	-431.923948	-431.915761	-431.914816	-431.956241	29.073	
N	 0.1724484878	 1.4172795265	-0.0733405213	-0.615512
C	-0.0107964642	 0.027526132	-0.0392164722	 0.300423
C	-1.1469964933	-0.7539622795	-0.0949820304	 0.121128
O	-2.4351293736	-0.2927680877	-0.1126779142	-0.470913
C	-0.6646619467	-2.0795733644	-0.0939670177	 0.320022
O	-1.4646010583	-3.1725673111	-0.1320950112	-0.448809
N	 0.6534080211	-2.14543436	-0.0360857948	-0.33643
N	 1.0392493636	-0.8377687025	 0.0135905276	-0.26016
H	 0.4664047061	 1.7922539713	 0.8237914586	 0.250517
H	-0.6954505914	 1.8729425485	-0.3314501428	 0.259771
H	-3.0125576227	-1.0432255883	-0.2862719283	 0.305485
H	-0.8901021241	-3.9479959785	-0.1261461834	 0.304468
H	 2.0085209557	-0.6051599363	-0.10943518	 0.270009
