21
gdb 40202	2.92468	1.51989	1.22201	1.7445	81.06	-0.2526	0.0738	0.3264	1092.2712	0.184421	-387.076535	-387.0688	-387.067856	-387.108917	31.073	
C	 0.0110871907	 1.4349112416	 0.0931401523	-0.265039
O	 1.1587091067	 0.5832314553	 0.1692187091	-0.28759
C	-0.140072744	-0.0201244906	 0.0316192691	 0.450805
C	-0.6051527253	-0.8865001834	 1.1935924107	-0.294307
C	-0.2655866306	-2.3162334309	 0.7205448332	-0.227502
C	-0.5266791756	-2.2969343447	-0.7961144117	-0.000042
C	-2.0199767007	-2.2834663208	-1.2422796517	-0.225908
C	-1.8618177558	-0.8232344235	-1.7533949206	-0.230455
C	-0.3873411476	-0.7983291723	-1.2486236473	-0.085206
H	-0.2367321215	 1.9689358054	 1.0106291587	 0.107077
H	-0.0718469649	 2.0283909871	-0.8174292857	 0.107993
H	-0.1163771844	-0.6016167365	 2.1278541834	 0.109706
H	-1.6875451906	-0.772947519	 1.3325300437	 0.103378
H	 0.7951569169	-2.5172099208	 0.9086263989	 0.108603
H	-0.8442798603	-3.0880238627	 1.2379774353	 0.093662
H	 0.0882549611	-3.0214594918	-1.3329153088	 0.066305
H	-2.2722707703	-3.0136634207	-2.01463821	 0.099249
H	-2.7328650972	-2.406166302	-0.4213036172	 0.095305
H	-1.948355489	-0.7217793509	-2.8376078262	 0.10148
H	-2.5229797052	-0.0833471712	-1.2926286304	 0.095762
H	 0.3665445877	-0.5523772378	-1.9977421848	 0.076724
