13
gdb 133371	3.10572	1.40316	0.96762	4.7812	65.74	-0.218	-0.0547	0.1634	1095.6683	0.090566	-494.065632	-494.058298	-494.057354	-494.097385	28.02	
N	-0.0334633774	 1.3903052958	 0.1484718078	-0.565295
C	-0.005379569	 0.0045730194	 0.0373958071	 0.404408
N	-1.1429114342	-0.631963193	 0.0168975685	-0.287059
N	-1.0699256199	-1.9872706708	 0.0058971968	-0.284667
C	 0.0408530995	-2.8098002596	-0.02898446	 0.325014
O	-0.0282557078	-4.0257619364	-0.0564957006	-0.387921
C	 1.2758450645	-2.0168439386	-0.0244101504	 0.221109
F	 2.401271065	-2.703275342	-0.0512580521	-0.039926
C	 1.2642698402	-0.6695055484	 0.0160730273	-0.305646
H	 0.6786678765	 1.8742702414	-0.3797361559	 0.255451
H	-0.9552562638	 1.7727892376	-0.0150032663	 0.260493
H	-1.9658955894	-2.4549596376	 0.002546967	 0.276483
H	 2.1924062858	-0.1093232078	 0.042689831	 0.127556
