20
gdb 13410	4.4601	1.15134	1.08355	1.7659	71.85	-0.2421	0.0846	0.3267	1190.5423	0.177122	-386.139264	-386.130633	-386.129688	-386.173501	30.73	
C	 0.4073127088	 1.5146872444	-0.3519619853	-0.383583
C	 0.2643609935	 0.0296599653	-0.0631169524	-0.039796
O	 0.5800378818	-0.6860308919	-1.2414318001	-0.26128
C	 0.4472546504	-2.0940071367	-1.1313846959	 0.103638
C	 0.5277672224	-2.6764633384	-2.5469253067	-0.240505
C	 2.0395486215	-2.808904115	-2.7346943665	-0.063814
O	 2.5301154612	-3.2347542666	-1.4672143143	-0.260816
C	 1.6647770655	-2.7529306842	-0.4414663094	-0.077817
H	 1.4326642905	 1.7496269081	-0.6512176508	 0.128061
H	-0.2626866376	 1.8136490475	-1.1629893252	 0.126236
H	 0.1617739674	 2.1017695657	 0.5380140801	 0.114729
H	 0.9294969492	-0.2617514813	 0.7658045993	 0.088151
H	-0.7655413984	-0.2074287923	 0.25437989	 0.085553
H	-0.4941774594	-2.3390349749	-0.6193481107	 0.064273
H	 0.0535754776	-3.6623731454	-2.57336484	 0.105175
H	 0.0420083039	-2.0235838022	-3.2739491108	 0.111984
H	 2.3314431999	-3.5572413121	-3.4771206544	 0.103357
H	 2.4791298048	-1.8414361738	-3.0198701415	 0.100226
H	 2.1919404174	-2.0247730247	 0.1886857753	 0.099642
H	 1.3667483697	-3.5998190815	 0.1899722894	 0.096589
