16
gdb 127342	4.90104	0.858	0.79061	5.1354	72.54	-0.2426	-0.0198	0.2228	1428.2374	0.124412	-434.104374	-434.095692	-434.094748	-434.139465	29.538	
C	-0.2798796348	 1.434271582	-0.0932782341	-0.32143
N	-0.0457773459	 0.0066388258	-0.0586486737	 0.060117
C	 0.3530495151	-0.8230299614	-1.0417130183	 0.004014
N	 0.4369705817	-2.06297934	-0.5966109256	-0.314
C	 0.0666433931	-1.9371415976	 0.7113577916	 0.325136
C	 0.0327583885	-3.0933932922	 1.6565565505	-0.37534
C	 1.4165158632	-3.6928060324	 1.8862493935	 0.158657
O	 1.8054434695	-4.0963135936	 2.9497141081	-0.235446
N	-0.2315063415	-0.6990801854	 1.0833553681	-0.300304
H	-0.0638715695	 1.8008323455	-1.0982785689	 0.145839
H	-1.3212706377	 1.6513977795	 0.1564737229	 0.15867
H	 0.370681206	 1.9386930876	 0.6251174768	 0.159837
H	 0.5630337465	-0.4842932657	-2.0454849762	 0.144509
H	-0.4004099357	-2.807623718	 2.6160848698	 0.143915
H	-0.5814000601	-3.8936638013	 1.220261833	 0.146241
H	 2.0464480315	-3.7452521028	 0.9720059526	 0.099585
