12
gdb 131028	2.9238	1.69648	1.07356	3.6649	65.63	-0.2722	-0.1172	0.155	1000.1557	0.078257	-468.838188	-468.831137	-468.830193	-468.870529	25.046	
O	-0.0147632811	-0.0779215939	-0.0017192748	-0.243284
C	-0.0064821676	 1.1156528631	 0.0069475247	 0.188175
N	 1.2034771196	 1.8901754613	-0.0007678639	-0.158117
N	 2.350274224	 1.1882007067	-0.0186550778	-0.112918
C	 3.443928254	 1.879378943	-0.0254057	-0.006908
C	 3.4212923238	 3.3168691166	-0.0140919844	 0.015589
N	 2.3311786716	 4.0096089021	 0.0031552897	-0.293343
C	 1.1137817218	 3.3231826827	 0.0108346046	 0.497169
O	 0.0402923386	 3.8710900892	 0.0282206091	-0.346945
H	-0.8805640378	 1.7765418725	 0.0219844616	 0.162501
H	 4.3737460289	 1.3220197677	-0.0398065193	 0.15091
H	 4.3654492542	 3.8625482292	-0.0202440297	 0.147172
