19
gdb 9348	6.33792	0.8343	0.79894	2.2456	69.75	-0.247	0.0645	0.3115	1496.5623	0.164195	-402.249257	-402.239277	-402.238333	-402.285702	33.523	
C	-0.3485557844	 1.3407788888	-0.1795249596	-0.378026
C	-0.1381621585	-0.1602381635	-0.3921718038	-0.166914
C	 1.2821292353	-0.4855542542	-0.8716920676	-0.146538
N	 1.521537016	-1.9037492466	-1.0646586982	-0.363245
C	 1.4267572459	-2.4936654367	-2.2869486053	 0.518449
O	 1.2638566161	-1.9218273601	-3.3427872603	-0.418458
O	 1.5599519665	-3.8410986734	-2.1579060668	-0.267464
C	 1.5055895665	-4.5628684774	-3.3890368287	-0.231053
H	 0.3438014836	 1.7378305599	 0.5715189543	 0.114181
H	-0.1841006618	 1.8982265557	-1.108075781	 0.12315
H	-1.3657917951	 1.5545959174	 0.161036206	 0.116889
H	-0.3373529343	-0.7011610992	 0.5423881084	 0.08956
H	-0.8511520416	-0.5417437559	-1.1321471269	 0.114129
H	 1.4727800148	-0.0041470416	-1.8342293273	 0.144045
H	 2.0178600712	-0.0971850756	-0.1562034049	 0.101872
H	 1.5664704242	-2.5149210003	-0.2657298876	 0.249083
H	 0.5511083428	-4.4000834839	-3.8966084379	 0.136714
H	 2.3133916262	-4.2559427954	-4.0587606993	 0.137019
H	 1.6167393864	-5.614127548	-3.1203726535	 0.126609
