20
gdb 9289	4.20399	0.86894	0.75901	3.4584	73.64	-0.2451	-0.015	0.2301	1500.6811	0.173562	-386.146619	-386.136541	-386.135597	-386.182657	34.405	
C	 0.1122441345	 1.370657472	 0.1624449393	-0.23668
O	-0.0035553077	-0.0202964554	-0.0298070053	-0.244621
C	 0.6378526854	-0.5233645301	-1.1957501112	 0.142927
C	 2.154297122	-0.6254543737	-1.0130440983	-0.404306
C	 0.0079855961	-1.8895013696	-1.4819342502	-0.204979
C	-1.5033748371	-1.805306278	-1.7483634096	-0.275443
C	-2.1479763439	-3.1680766781	-1.8007230292	 0.156831
O	-2.8185746781	-3.5874389807	-2.708970578	-0.241741
H	 1.1460323032	 1.6866778372	 0.3631063249	 0.10887
H	-0.2566104541	 1.9331796553	-0.7094873473	 0.105815
H	-0.5004893478	 1.6266274721	 1.0304628813	 0.128957
H	 0.4215943107	 0.1527186639	-2.041481498	 0.06581
H	 2.624203763	-1.0227837353	-1.9181889687	 0.118287
H	 2.6014593675	 0.3516838821	-0.810416266	 0.118671
H	 2.3916829282	-1.2908412784	-0.1768627579	 0.124903
H	 0.5174980489	-2.3427669007	-2.3395347882	 0.108569
H	 0.196431592	-2.5387607797	-0.6170291473	 0.109658
H	-1.9579895605	-1.2498133828	-0.9173785815	 0.136652
H	-1.7239742388	-1.2761650484	-2.6803484156	 0.113851
H	-1.9536505636	-3.7962472417	-0.8981038332	 0.067965
