18
gdb 41542	4.18943	1.56921	1.46274	2.0619	73.59	-0.2133	0.0693	0.2826	928.1416	0.150374	-401.853756	-401.847563	-401.846619	-401.884189	26.125	
C	-0.0411786208	 1.5196988542	 0.4050005548	-0.257813
C	 1.4271883441	 1.6107629523	-0.0864643524	-0.165016
N	 1.4320465263	 0.1553376944	-0.4496142557	-0.115663
C	-0.0265896334	 0.0384776461	-0.0545212932	 0.003682
C	-0.6612344168	-0.3386460772	-1.3788442576	-0.063967
C	 0.0427041635	 0.4405344285	-2.5304818451	 0.032851
O	-0.0189069456	-0.7237340925	-3.4207731941	-0.314279
C	 0.357696649	-1.2732109731	-2.1180044699	 0.044117
C	 1.3614421908	-0.1147811151	-1.8677798767	-0.029808
H	-0.1688266887	 1.6556437395	 1.4802447481	 0.110711
H	-0.7570251536	 2.1604669717	-0.1146992101	 0.106971
H	 1.5921943746	 2.2771882187	-0.9406438243	 0.102186
H	 2.1655717833	 1.8475910717	 0.6843174866	 0.108926
H	-0.2131151696	-0.7013335921	 0.7302847673	 0.08176
H	-1.726574984	-0.5507648589	-1.4549846799	 0.081787
H	-0.1916205044	 1.415755685	-2.957405038	 0.091319
H	 0.5008184695	-2.3502214645	-2.0325345563	 0.095328
H	 2.2948497759	-0.0760314486	-2.4276141935	 0.086907
