17
gdb 130396	3.00264	1.30978	0.93977	3.2441	72.81	-0.199	0.0152	0.2142	1215.0331	0.138361	-451.309518	-451.300689	-451.299745	-451.342825	33.186	
N	-0.6400926324	 1.1287674259	 0.2273627171	-0.512009
C	 0.3216938502	 0.0648560132	-0.1032766377	-0.285026
C	 0.913060642	-0.4883908266	 1.1505824317	 0.39398
C	 0.4199802062	-0.638941882	 2.4104184862	 0.007171
N	-0.8492352638	-0.3636455683	 2.9431716779	-0.628736
C	 1.501007843	-1.2573408339	 3.1136154252	 0.37576
N	 1.4936712179	-1.5589074266	 4.4698620034	-0.598657
N	 2.5471755145	-1.4561434939	 2.3446421158	-0.241556
O	 2.1797929436	-0.9648844192	 1.0887716581	-0.241074
H	-0.1396816101	 1.9504230626	 0.5535601716	 0.23799
H	-1.1461715754	 1.4065548621	-0.6072391038	 0.237516
H	-0.2299173693	-0.7192878326	-0.6395158954	 0.129019
H	 1.142432651	 0.3780774497	-0.7667648234	 0.116588
H	-1.3770216328	 0.207045612	 2.2885075611	 0.254444
H	-0.7791258613	 0.1237899003	 3.8308341969	 0.241094
H	 0.6260769689	-1.9920354215	 4.7629712797	 0.255893
H	 2.2881859178	-2.1255051312	 4.7395350957	 0.257601
