18
gdb 38545	3.29935	1.64054	1.22446	1.0678	79.67	-0.2213	0.016	0.2373	1017.6149	0.149809	-401.891803	-401.884779	-401.883835	-401.922957	28.475	
C	-0.1340863235	 1.4436922814	 0.1896836697	-0.298198
N	 1.2097475336	 0.8817780893	-0.0443319742	-0.182659
C	 1.6148477029	 0.2715112206	 1.2905771797	-0.266643
C	 0.4800337755	-0.7269523317	 1.1707908417	 0.285673
C	 0.1980187263	-1.9956887624	 1.4336055266	-0.276382
C	-0.8529904361	-2.6771156429	 0.5853604555	-0.099877
O	-1.5066128889	-1.820937487	-0.3439714666	-0.256027
C	-0.6558477296	-0.9174001422	-1.0492445229	-0.219676
C	-0.0436426876	-0.015519773	-0.0109192059	 0.301496
H	-0.3751062724	 1.8583906337	 1.1672502052	 0.113084
H	-0.4928933417	 2.0297491299	-0.6526292711	 0.124432
H	 2.6121951293	-0.1702807378	 1.2328279457	 0.127869
H	 1.5875332423	 0.9936253679	 2.1138864669	 0.11377
H	 0.7350871961	-2.5989839751	 2.1594859763	 0.094468
H	-0.3843323105	-3.5264051075	 0.0549403011	 0.099728
H	-1.6576014335	-3.0957095101	 1.201570013	 0.120936
H	 0.1327150043	-1.4560935202	-1.5976990396	 0.103833
H	-1.2948719266	-0.4010768328	-1.7696314913	 0.114173
