17
gdb 127045	6.82663	0.79995	0.72298	2.4544	73.53	-0.2139	0.0286	0.2425	1545.9444	0.135676	-455.142297	-455.133413	-455.132468	-455.176275	32.432	
C	 0.0206586458	 1.4940064443	 0.0421188276	-0.392926
C	 0.0112272864	-0.0215713024	 0.0030800103	-0.043497
O	 0.6927407482	-0.4890561137	 1.1801924755	-0.275427
C	 0.7816315445	-1.81355923	 1.3218881267	 0.515149
N	 0.2842540629	-2.657965121	 0.4445257462	-0.267908
O	 0.6001620243	-3.9330545203	 0.9817571404	-0.236135
C	 1.2588762471	-3.7693229155	 2.1372304658	 0.514215
N	 1.5775603279	-4.9248895714	 2.8083337104	-0.592848
C	 1.4186802908	-2.4453358998	 2.4254249581	-0.488447
H	 1.0450745543	 1.8769731789	 0.0500436518	 0.128576
H	-0.4901928686	 1.8911646279	-0.8399727698	 0.121673
H	-0.4924026336	 1.8635873105	 0.9344586019	 0.129262
H	-1.0076788303	-0.4248068585	-0.003019307	 0.123486
H	 0.52290666	-0.4115391678	-0.8840850642	 0.122296
H	 1.624289859	-5.7417601275	 2.2154582775	 0.266314
H	 2.3671160111	-4.8485599307	 3.4313369378	 0.265148
H	 1.8940509102	-1.984757783	 3.2730234911	 0.111069
