15
gdb 44375	3.42743	1.70258	1.41951	4.8247	63.9	-0.2495	0.0109	0.2604	898.2064	0.114139	-457.753741	-457.747356	-457.746411	-457.78467	25.464	
O	 0.0024013526	 0.002708022	-0.5341560554	-0.320135
C	-0.0405167281	 1.097158271	-0.049598678	 0.423134
C	-1.3484953755	 1.8542597482	 0.1684052465	-0.362373
C	-1.2150100386	 2.962632981	 1.1906557051	 0.087471
O	-0.6080987179	 2.4535589385	 2.4217448501	-0.295726
C	 0.5296130873	 3.2810749261	 2.2181913281	 0.062978
C	 1.1590856461	 2.9877008542	 0.8880927583	 0.094766
O	 1.1259782877	 1.708031315	 0.2996016916	-0.224382
C	-0.0298975407	 3.8953103999	 0.9383599074	-0.215164
H	-1.673047137	 2.2618021402	-0.7972003838	 0.141011
H	-2.0926676925	 1.1122158113	 0.4685346891	 0.152243
H	-2.1598887557	 3.4626153851	 1.4174868316	 0.100035
H	 1.0323439532	 3.6882149569	 3.0874077453	 0.118587
H	 2.1189148666	 3.4545452028	 0.6977118486	 0.125857
H	-0.0639488075	 4.9029866477	 0.5472537454	 0.111697
