14
gdb 19226	3.59596	1.97963	1.41947	5.4011	65.73	-0.244	-0.0184	0.2255	854.3125	0.107646	-378.707803	-378.700873	-378.699929	-378.739276	25.332	
N	 0.0298674844	 1.2425574702	 0.1937734762	-0.415325
C	-0.0519149175	-0.0140994544	 0.0407593585	 0.061661
N	-1.24707203	-0.6648302298	-0.2185639022	-0.104848
C	-1.5216330019	-2.1030201215	-0.145581444	-0.013759
C	-2.1293658412	-2.4495229008	 1.1752847691	-0.288805
C	-2.9894752805	-1.8024075877	 0.0878376073	-0.21798
C	-2.6222602018	-0.3286933454	-0.0248695997	 0.442502
O	-3.2003119416	 0.7119952561	 0.0029593714	-0.316388
H	 0.9984908114	 1.5114053646	 0.3572123448	 0.229405
H	 0.785177328	-0.725162982	 0.067169339	 0.094679
H	-1.0817019183	-2.7920354162	-0.8536064516	 0.128133
H	-2.3474174562	-3.4990446047	 1.3513588472	 0.133038
H	-1.853572037	-1.8836684659	 2.0597424369	 0.139044
H	-3.8645854477	-2.2788120924	-0.3280778529	 0.128642
