19
gdb 114631	2.64047	1.2315	0.97832	2.5568	71.48	-0.2415	0.0584	0.2999	1250.915	0.157332	-460.09338	-460.084192	-460.083247	-460.127687	33.724	
C	-0.4738674711	 1.2715521533	-0.0510505342	-0.257088
O	 0.1842611097	 0.0235368209	 0.1192067381	-0.276702
C	 0.7668954073	-0.4558350918	-1.0260903791	 0.334362
C	-0.0187001272	-1.0648443754	-2.1753325768	-0.366623
C	 1.014612616	-1.8773267633	-1.4428918561	 0.02032
O	 2.3313523224	-1.5836977166	-1.9250575115	-0.320098
C	 2.2257618569	-0.2064841868	-1.437264184	 0.05292
C	 2.6129287572	 0.7886058251	-2.5147195493	-0.085468
O	 3.9203142569	 0.5225348613	-2.9879875576	-0.419021
H	 0.2302969428	 2.0664702714	-0.333358046	 0.115599
H	-1.2578008978	 1.2080503634	-0.8173657126	 0.116721
H	-0.9262349887	 1.523840517	 0.9100180701	 0.133368
H	-1.0425172298	-1.3028793579	-1.9014482488	 0.123633
H	 0.1360099827	-0.7866022687	-3.2133605268	 0.117594
H	 0.8469827974	-2.8310625794	-0.9583259414	 0.119508
H	 2.8671856137	-0.0917387536	-0.5551842067	 0.098579
H	 1.8766653589	 0.7674746435	-3.3322183802	 0.087476
H	 2.6232370059	 1.8029579085	-2.0995880082	 0.109231
H	 3.9290056668	-0.4092792509	-3.2383886688	 0.295691
