13
gdb 23893	4.81088	0.96924	0.95102	2.1741	55.07	-0.2606	0.0428	0.3034	1213.0478	0.090145	-492.955478	-492.946898	-492.945954	-492.991414	28.546	
C	 0.0137188079	 1.5016383701	 0.009929882	-0.497397
C	 0.0128523655	 0.0476915373	-0.0476005498	 0.093548
C	 0.0096815443	-1.1538474891	-0.0945458988	 0.051037
C	 0.0035884342	-2.6073713651	-0.1508418518	-0.47987
C	-1.3701988579	-3.2112812112	 0.1236860504	 0.284506
F	-2.2797593513	-2.8061347608	-0.7695282017	-0.07261
F	-1.3014182093	-4.5512509956	 0.0557250814	-0.07739
F	-1.8212392864	-2.8896526476	 1.3412247078	-0.072619
H	 0.7361200843	 1.8698194199	 0.746345149	 0.151796
H	 0.2738161534	 1.9378835723	-0.9605068067	 0.151838
H	-0.9731536451	 1.8835805638	 0.2925628763	 0.155777
H	 0.3181280993	-2.9694183052	-1.1361342465	 0.155692
H	 0.6920914213	-3.0376461288	 0.5851219083	 0.155694
