22
gdb 97775	4.28823	0.6445	0.61169	1.3817	95.07	-0.2278	0.0465	0.2743	1961.2853	0.191897	-367.176898	-367.166049	-367.165105	-367.213906	38.999	
C	 0.0040912108	 1.6448211028	 0.0228560591	-0.363432
C	-0.0013544666	 0.1051852584	 0.002665808	-0.317184
C	 0.6707094371	-0.4555066696	-1.1647517473	 0.124954
C	 1.2413920691	-0.8977832151	-2.1302713775	 0.107502
C	 1.8890269401	-1.4184309377	-3.3024908443	-0.314871
N	 3.1922185975	-2.1210623715	-3.1318652538	-0.354512
C	 2.0257979404	-2.8858911796	-3.5969629193	 0.337646
C	 1.5045851283	-3.905898766	-2.6083094057	-0.436215
C	 1.9785912373	-3.3158710731	-5.0492428723	-0.456224
H	 1.0276487603	 2.0290932145	 0.0286037107	 0.129506
H	-0.5016705663	 2.0467661583	-0.8593186516	 0.126148
H	-0.5099136027	 2.0166509198	 0.9143498836	 0.11291
H	 0.4809313096	-0.2738724703	 0.9129430784	 0.130711
H	-1.0370831249	-0.257429266	 0.0389970923	 0.126265
H	 1.7964923482	-0.7823144799	-4.1815912574	 0.09711
H	 3.7958116438	-1.8866060495	-3.917689342	 0.225299
H	 1.5717576635	-3.5244900457	-1.5884260653	 0.138366
H	 0.4583294928	-4.1522495799	-2.8201371058	 0.112974
H	 2.0898615205	-4.8300485629	-2.6716789927	 0.113707
H	 2.6111713067	-4.1968218137	-5.2106744514	 0.12225
H	 0.9595380624	-3.5820381172	-5.3503815478	 0.125654
H	 2.329333592	-2.5202728058	-5.714969028	 0.111436
