15
gdb 71534	2.6381	1.57064	1.41972	0.6267	72.73	-0.2472	0.0021	0.2493	980.2905	0.108963	-420.480057	-420.472225	-420.471281	-420.51217	30.274	
C	 0.0541007017	 1.4718100465	-0.0990160917	-0.534198
C	 0.0431131315	-0.0154408836	-0.0303505923	 0.36659
O	 0.6326409784	-0.81206103	-1.1002210564	-0.345376
C	 0.1376161839	-1.8332813672	-0.2007259958	-0.008307
C	 0.4508589634	-1.0295067455	 1.0929121077	-0.020014
O	-0.8873437339	-1.1466932969	 1.6453560824	-0.353382
C	-1.153874798	-1.0336596185	 0.2118984331	 0.371518
C	-2.4834257317	-1.0523555353	-0.2960284434	 0.056521
C	-3.5942340938	-1.0532994646	-0.7567708854	-0.383769
H	 1.0807335318	 1.8476567936	-0.1431964559	 0.141318
H	-0.4836727769	 1.8179559338	-0.9864183673	 0.146486
H	-0.4339900571	 1.8809095972	 0.790521492	 0.146789
H	 0.2675093812	-2.8833300115	-0.458044338	 0.114262
H	 1.3060396579	-1.0529609758	 1.7658613748	 0.107919
H	-4.5777382985	-1.0580369522	-1.158488264	 0.193645
