16
gdb 43207	2.31098	1.68	1.19872	5.02	73.34	-0.2631	-0.0463	0.2168	1043.1582	0.124712	-400.752686	-400.744923	-400.743979	-400.785799	28.728	
O	-0.0402891093	 0.0693678639	-0.5445762214	-0.27184
C	-0.0670738441	 1.2085252765	-0.2003110552	 0.402514
C	-1.164131688	 2.2198460342	 0.1124638934	-0.158313
C	-1.6050853879	 2.1566749172	 1.6127393888	-0.231587
C	-0.5050200032	 3.194937697	 1.9846610398	-0.23732
C	-0.0565817762	 3.2721010593	 0.5034642242	-0.045472
C	 1.0651358279	 2.2637747859	 0.0855535773	-0.282118
C	 2.1192630551	 1.9308779274	 1.0197038123	 0.292828
N	 2.9296968968	 1.6603745293	 1.7995059095	-0.330383
H	-1.9378079091	 2.3621178867	-0.6421145972	 0.105417
H	-2.6214635058	 2.5268774332	 1.7560100635	 0.123586
H	-1.5307404098	 1.1719813495	 2.0785551034	 0.130327
H	-0.9090191879	 4.1382589786	 2.3564961086	 0.117401
H	 0.2623496701	 2.8543980192	 2.6836526728	 0.137232
H	 0.0196457075	 4.2549459848	 0.0426039325	 0.09229
H	 1.5011295742	 2.5478712974	-0.8797928323	 0.155437
