18
gdb 47340	3.21731	1.14747	0.88197	2.9199	79.97	-0.2595	0.0139	0.2734	1283.3811	0.148363	-401.936061	-401.927646	-401.926702	-401.969274	32.007	
N	-0.0755046235	 1.3239172091	 0.1708010366	-0.497276
C	-0.0147542294	 0.0788140369	-0.0464716649	 0.363036
C	-1.2680752352	-0.7661788724	-0.0802917711	-0.260736
C	-1.1976554002	-1.9221611715	-1.1025406053	-0.199519
C	 0.1225950015	-2.6826461095	-0.8733858449	-0.213471
C	 1.2899492914	-1.7151955198	-1.0038013608	-0.085745
O	 1.185144702	-0.5732155978	-0.1410668869	-0.253068
C	-2.3642188775	-2.7918336326	-1.0106749987	 0.294488
C	-3.3198537045	-3.5144208815	-0.9142090847	-0.422694
H	 0.8690027379	 1.7151009519	 0.2035122003	 0.218893
H	-1.4036440515	-1.201946297	 0.9177537686	 0.135627
H	-2.1183177831	-0.1100099821	-0.266449416	 0.142543
H	-1.1681114204	-1.4892380724	-2.1131001407	 0.112155
H	 0.1125766714	-3.1359772458	 0.1239892048	 0.120618
H	 0.2388548991	-3.4902019792	-1.6025959507	 0.117494
H	 2.2353617493	-2.1922493187	-0.7351851569	 0.122277
H	 1.3724111137	-1.3621108337	-2.0420713914	 0.108676
H	-4.167762181	-4.1493018539	-0.8386359271	 0.196701
