18
gdb 38074	3.23052	1.78113	1.29843	1.4826	85.77	-0.2189	-0.0309	0.188	981.8967	0.151288	-364.809374	-364.802685	-364.801741	-364.840178	27.849	
C	-0.0264949438	 1.5023592638	 0.0646821501	-0.253459
C	 1.4749469568	 1.9350444982	-0.0216330654	-0.338901
C	 2.1445336195	 0.7197674079	-0.6397785519	 0.303051
N	 2.8926362506	 0.7816688949	-1.9019322875	-0.375657
C	 3.5188441764	 0.1308608638	-0.720305031	-0.172749
C	 3.3083913581	-1.3518447705	-0.6118185343	-0.083729
C	 1.998444284	-1.6654089021	-0.5018495381	-0.236738
C	 1.2205622822	-0.4375387211	-0.4107120587	 0.333498
C	 0.0123771643	-0.0129507355	-0.0233658985	-0.241622
H	-0.5110992518	 1.8475863908	 0.9849958527	 0.105556
H	-0.6065810306	 1.9317067866	-0.7644235801	 0.115036
H	 1.6285392011	 2.8343167897	-0.6209817663	 0.114848
H	 1.8619787659	 2.1281102338	 0.9843581774	 0.109947
H	 2.5729186785	 0.0676461681	-2.5557139485	 0.222008
H	 4.4300440736	 0.5979789033	-0.3615752776	 0.09289
H	 4.1235073754	-2.0654857521	-0.6440919404	 0.105194
H	 1.5889245184	-2.6670877479	-0.4613701636	 0.104633
H	-0.8396141985	-0.6351905717	 0.2268330117	 0.096195
