16
gdb 114424	3.184	1.17225	1.14099	3.6958	64.9	-0.249	-0.0004	0.2485	1117.739	0.124728	-475.001533	-474.993656	-474.992711	-475.034453	29.375	
O	 0.0196166279	 1.376402747	-0.2641100433	-0.41692
C	 0.079550437	 0.0251145909	 0.1477126242	-0.082755
C	-1.3024252214	-0.5990034444	 0.1130655543	 0.111456
O	-1.883997786	-0.5088835643	-1.2219509609	-0.320986
C	-2.1878323793	-1.9204947259	-1.238721025	-0.033949
C	-1.4942716359	-2.1375153975	 0.1323403225	-0.077133
N	-0.4912870369	-2.9353602233	-0.5694730759	-0.32418
C	-1.0137376689	-2.7486248269	-1.8423054553	 0.415848
O	-0.6377811484	-3.0723836405	-2.9319740835	-0.342145
H	-0.3887223046	 1.3766261565	-1.1384437479	 0.298225
H	 0.7667943682	-0.5581392989	-0.4824910268	 0.091841
H	 0.4677286739	 0.0193761337	 1.1727053643	 0.11186
H	-1.9661438179	-0.0966028382	 0.8279299727	 0.095515
H	-3.2211657677	-2.1498203451	-1.4976548819	 0.113132
H	-1.945406348	-2.6038867174	 1.0062781196	 0.104932
H	 0.442903948	-3.2059477157	-0.2935671871	 0.255256
