14
gdb 132638	3.25546	1.39546	0.97993	5.1604	68.31	-0.2185	-0.0222	0.1964	1095.2415	0.103434	-474.221315	-474.213915	-474.21297	-474.253007	28.655	
N	 0.0243299266	 1.4280005714	 0.1213958741	-0.615443
C	-0.0154795431	 0.0180960582	 0.0391302882	 0.189855
C	-1.157730333	-0.7539189595	 0.1139427926	-0.05426
N	-1.1483853899	-2.0987905793	 0.0837605746	-0.32959
C	 0.0454463569	-2.6298380221	-0.044613274	 0.328846
F	 0.0880069715	-3.952079517	-0.1029200357	-0.066437
N	 1.223909843	-2.0324585989	-0.1145221537	-0.379055
C	 1.2008038682	-0.7009486848	-0.0597181624	 0.362604
N	 2.3885116163	-0.0220674735	-0.1425654569	-0.572614
H	 0.4674174185	 1.8452059721	-0.6920317683	 0.25217
H	-0.8995629854	 1.8305190123	 0.226178387	 0.248628
H	-2.1338213173	-0.2806576757	 0.2084059907	 0.106315
H	 3.2083577627	-0.5955869526	-0.0081594197	 0.264739
H	 2.406072175	 0.8754706696	 0.3210141735	 0.264241
