19
gdb 23208	2.48786	1.30265	0.95049	2.2805	81.17	-0.2331	-0.0006	0.2325	1266.1514	0.158063	-419.127222	-419.118124	-419.11718	-419.16125	34.182	
C	-0.6617204746	 1.3036880831	 0.0394013521	-0.407659
C	 0.08855216	-0.017378083	-0.0475977221	-0.068814
C	 1.4453520312	-0.0265185316	-0.836498301	-0.352556
C	 2.1045662517	-0.6403541481	 0.3846217876	 0.379259
N	 3.2423431108	-1.1137164092	 0.6764346258	-0.248028
O	 4.1188872137	-1.0251435877	-0.4201794154	-0.391879
C	 0.8620002294	-0.5084948605	 1.2028820436	 0.264437
C	 0.7210411984	-0.0433824933	 2.608097466	-0.294655
N	 0.420008677	-1.4363780821	 2.2444740455	-0.3562
H	-0.0077371955	 2.1052038532	 0.3988951054	 0.120827
H	-1.0485790764	 1.5983845359	-0.9419330749	 0.12102
H	-1.5165018961	 1.2368158275	 0.7220351683	 0.114175
H	-0.5760933437	-0.8060153582	-0.4179637023	 0.082384
H	 1.4806391326	-0.6365940827	-1.7423119802	 0.128597
H	 1.8246381367	 0.9719055639	-1.0780213683	 0.124579
H	 4.9188874521	-1.4329437774	-0.0717300718	 0.307127
H	 1.6141736414	 0.0856465424	 3.2127655076	 0.132436
H	-0.0977154562	 0.6334480383	 2.8405180658	 0.113755
H	-0.5875312527	-1.5669102906	 2.1720068482	 0.231194
