18
gdb 66330	2.53243	1.40618	1.31282	3.9343	78.02	-0.2695	-0.0082	0.2613	1084.3232	0.147889	-401.971229	-401.962804	-401.96186	-402.004057	32.084	
C	 0.0232035053	 1.5141292103	-0.0418750323	-0.417795
C	-0.0056627489	-0.0200903133	 0.0043429646	 0.172861
O	 0.6194123176	-0.4638695315	-1.1867443243	-0.271725
C	 0.97025651	-1.846568779	-1.1760879427	-0.096398
C	 2.0322190559	-2.1264563878	-0.1144426985	-0.260958
C	 1.6388457422	-1.4746558376	 1.1833006196	-0.074934
C	 0.6906433652	-0.5448423333	 1.2479286124	-0.07486
C	-1.4247741238	-0.4821659013	 0.0213106867	 0.265785
N	-2.5208661955	-0.8493595797	 0.0340089884	-0.34533
H	 1.0640909245	 1.8452259986	-0.0364991073	 0.135568
H	-0.460801238	 1.8657112916	-0.9555334456	 0.145443
H	-0.4957464046	 1.9364457963	 0.8219300381	 0.133639
H	 0.0758958312	-2.459036779	-0.9918916704	 0.118053
H	 1.3315968498	-2.0655370746	-2.1833162241	 0.116764
H	 2.1446623863	-3.2088407549	 0.0228536385	 0.116261
H	 3.0118250024	-1.7532407908	-0.4422665481	 0.123034
H	 2.1516041139	-1.7882105046	 2.0885629549	 0.104719
H	 0.3803948762	-0.1029584993	 2.18948758	 0.109872
