16
gdb 85389	1.93147	1.92352	1.02651	3.9091	67.35	-0.2775	-0.0105	0.267	1124.9273	0.124156	-475.081032	-475.072998	-475.072053	-475.113867	29.943	
C	-0.1428566282	 1.4168129044	 0.0201350403	-0.404316
C	-0.0369615976	-0.0882842669	 0.0262665953	 0.202319
O	 0.5632764383	-0.4998356032	-1.1931338153	-0.241548
C	 0.9091209624	-1.8229703848	-1.2826632378	 0.400329
N	 1.3669726977	-2.3429193631	-2.3354938382	-0.504575
C	 0.7327019962	-2.6025770856	-0.0026814688	-0.442392
C	 1.124369228	-1.7864599718	 1.2179504113	 0.424742
O	 1.7070674249	-2.2019552832	 2.1743342724	-0.30875
O	 0.7578022612	-0.4739231393	 1.1447373522	-0.224906
H	 0.8545098346	 1.853386694	-0.0678311414	 0.150595
H	-0.7537449296	 1.7405383112	-0.825237165	 0.139996
H	-0.6030290213	 1.7578105714	 0.9497297616	 0.144213
H	-1.0242970787	-0.5631838144	 0.1174925933	 0.100382
H	 1.4048430435	-1.6549028596	-3.090005526	 0.229597
H	-0.3265797159	-2.8762148505	 0.1078288627	 0.16008
H	 1.3112699547	-3.5226654186	-0.0370351567	 0.174235
