19
gdb 94839	3.80061	1.20116	1.04578	2.932	72.14	-0.2501	0.0777	0.3278	1189.3988	0.159033	-460.145534	-460.137335	-460.136391	-460.178148	31.581	
C	 0.059664425	 1.4918900268	 0.0090798423	-0.410184
C	 0.0268069948	-0.0198994925	 0.0014287402	 0.228614
O	 0.6590922318	-0.4707839749	-1.1759358138	-0.246088
C	 0.6575252527	-1.8867700497	-1.2733128032	-0.157263
C	 1.2568198816	-2.5089908518	-0.0289924503	 0.397644
C	 1.8106500653	-3.8646103014	-0.0439536531	-0.244634
O	 2.672635227	-2.724779371	-0.0497985056	-0.262817
C	 0.6923766322	-1.9002399378	 1.2380789437	-0.157265
O	 0.6914663062	-0.4832909943	 1.1558846557	-0.246088
H	 1.0980240449	 1.8312928976	-0.0035202229	 0.141064
H	-0.4539156163	 1.8805383926	-0.8729471957	 0.12651
H	-0.4291677135	 1.8709817624	 0.9091444087	 0.12651
H	-1.0137827548	-0.4046605659	 0.0138133092	 0.049362
H	-0.3736749272	-2.2569436539	-1.4092551832	 0.091123
H	 1.2468910144	-2.1506274609	-2.1543230024	 0.121683
H	 1.8175889658	-4.4561605856	 0.8714680107	 0.114512
H	 1.7920955503	-4.4463014086	-0.9655108868	 0.114512
H	-0.3347147742	-2.2719934021	 1.3985977665	 0.091123
H	 1.3059125142	-2.1734488589	 2.09952053	 0.121683
