21
gdb 84519	2.79534	1.5927	1.15428	0.4519	92.67	-0.2044	-0.0112	0.1933	1124.1088	0.185332	-349.984597	-349.976835	-349.97589	-350.016566	31.513	
C	-0.2628747215	 1.5432867387	-0.1987802954	-0.38847
C	-0.0422717678	 0.0290445202	-0.0354016537	-0.081161
C	 0.8928772035	-0.50337983	-1.1164496178	-0.069206
C	 2.1119878582	-0.8252702778	-0.6480356253	-0.213898
C	 2.1469212101	-0.601040582	 0.7871765386	 0.387568
C	 3.0307530627	-0.3808112182	 1.764769929	-0.257593
C	 2.3102846335	 0.0470074749	 3.0320979197	-0.242277
C	 0.8977793428	 0.4614822361	 2.5174418156	-0.24942
C	 0.7163265552	-0.4024364491	 1.2556604126	-0.051829
H	 0.68315476	 2.0899040805	-0.1320949389	 0.123016
H	-0.7060531091	 1.7651361192	-1.1752609616	 0.110063
H	-0.9385137914	 1.9307290533	 0.5705741263	 0.115214
H	-1.022469229	-0.4594412042	-0.0931808546	 0.071586
H	 0.6038453077	-0.5268552358	-2.1626150301	 0.093724
H	 2.9543003189	-1.1447379359	-1.2501995478	 0.097493
H	 4.1087396897	-0.4692333004	 1.6951455821	 0.085651
H	 2.2403648031	-0.7830269521	 3.7522113568	 0.101557
H	 2.8202893594	 0.86274174	 3.5571207574	 0.098528
H	 0.1142209273	 0.3183095045	 3.2670578192	 0.0888
H	 0.9142480595	 1.5236522554	 2.2519392656	 0.101998
H	 0.3176642373	-1.3856972572	 1.5479948721	 0.078655
