21
gdb 117882	3.24906	0.54388	0.48729	2.5668	85.09	-0.2484	0.0344	0.2828	2240.0195	0.179673	-424.186656	-424.175121	-424.174177	-424.225713	39.428	
C	-0.2482095243	 1.4700897792	 0.1435354804	-0.384767
C	 0.0408506528	-0.0403431642	 0.0070175841	-0.167535
C	 0.7755060209	-0.3996081281	-1.3050982093	-0.156591
C	-0.0251833076	-0.1057450983	-2.5689299273	-0.087271
O	 0.710099134	-0.6311642963	-3.6640428712	-0.421202
C	 0.7985116698	-0.5201920641	 1.1634353926	 0.027122
C	 1.4352118001	-0.8888561348	 2.1183519456	 0.087364
C	 2.196380574	-1.3986418669	 3.2585517523	-0.192149
O	 1.6567045228	-2.5913030974	 3.8143354034	-0.40336
H	 0.6826484151	 2.0442920924	 0.1021275911	 0.12574
H	-0.9048572227	 1.8200397807	-0.6579260496	 0.116001
H	-0.7345094001	 1.6830518067	 1.0987673217	 0.127653
H	-0.9255524062	-0.5662000749	 0.0039830222	 0.104217
H	 1.730833434	 0.1355004228	-1.3490312405	 0.112043
H	 1.0139552029	-1.4681056262	-1.3009892484	 0.114827
H	-1.0209264341	-0.575767662	-2.4950916139	 0.083392
H	-0.1838654782	 0.9768365494	-2.6858775182	 0.089654
H	 0.244031028	-0.4070031073	-4.474662612	 0.28593
H	 3.2484861448	-1.537973689	 2.9615588358	 0.115578
H	 2.194786898	-0.6658181532	 4.0733413309	 0.137259
H	 1.5274095461	-3.2104592985	 3.0884219602	 0.286094
