19
gdb 117925	3.21301	0.82562	0.73855	1.2914	73.75	-0.2511	-0.0965	0.1546	1575.3872	0.155039	-460.170591	-460.159929	-460.158984	-460.207377	35.992	
C	-0.0142379269	 1.3447077894	-0.0669609945	-0.229169
O	-0.1027785264	-0.0543489729	-0.2001449915	-0.238256
C	-1.3705443312	-0.5596922047	 0.1542821775	-0.059517
C	-1.328469261	-2.0792164319	 0.0033961667	-0.111996
C	-0.3025408674	-2.7275396045	 0.9612484546	-0.411513
C	-2.6955085367	-2.6774778539	 0.2387025983	 0.283283
O	-3.6102137664	-2.1217010506	 0.8053312365	-0.287879
C	-2.9538763549	-4.1015694761	-0.2822246863	 0.097001
O	-2.1659529307	-4.7336652919	-0.9345472702	-0.219754
H	 0.9959892437	 1.6378142712	-0.3622527327	 0.128878
H	-0.7391500684	 1.8624954807	-0.7145475014	 0.106962
H	-0.1909076683	 1.6677704026	 0.9709792505	 0.107163
H	-1.6273254424	-0.2885625762	 1.1906831952	 0.100938
H	-2.1547914717	-0.1323959157	-0.4915260394	 0.094659
H	-1.0278818526	-2.3312102288	-1.0207055498	 0.118453
H	-0.2155989148	-3.8009111458	 0.7802837708	 0.13799
H	 0.6712700391	-2.2621488165	 0.799283463	 0.149597
H	-0.5914760716	-2.5679184091	 2.0055966939	 0.123485
H	-3.9637380813	-4.4743585253	-0.0078081812	 0.109676
