16
gdb 42996	2.34296	1.67543	1.30943	2.7257	74.22	-0.2217	-0.0221	0.1996	1012.5941	0.124472	-400.706659	-400.698872	-400.697928	-400.739024	30.219	
O	-0.1001602617	 0.2598613654	-0.950702699	-0.320564
C	-0.0768446439	 1.2892614806	-0.3308506627	 0.421042
C	-1.2100262482	 2.0190931487	 0.2888603631	-0.178197
C	-0.9725760618	 2.4750065319	 1.7377491901	-0.293306
C	-0.6652692038	 3.4058578756	 0.6263580006	 0.004273
N	 0.7373784913	 3.5251486777	 0.2468864784	-0.291297
C	 1.2118550209	 2.1717596695	-0.1229443973	-0.337435
C	 2.0921236629	 1.5707584289	 0.875068512	 0.404147
C	 2.8007109827	 1.0477993614	 1.6929148593	-0.475325
H	-2.2149426752	 1.8035833048	-0.0488494022	 0.112079
H	-1.8759597315	 2.6529203504	 2.3094219963	 0.130217
H	-0.1563943712	 2.031008265	 2.2962387679	 0.149049
H	-1.2594175282	 4.2998534922	 0.4824536494	 0.10715
H	 0.7987552075	 4.1181134866	-0.5729731959	 0.230864
H	 1.7352943255	 2.2037940819	-1.0838174577	 0.134055
H	 3.4355843646	 0.5929803493	 2.4126460279	 0.203249
