20
gdb 83430	3.0175	1.26684	1.09995	2.0949	79.91	-0.2382	0.0753	0.3135	1188.6184	0.170487	-403.074518	-403.065975	-403.065031	-403.10799	32.481	
C	-0.0150932368	 1.3860403399	-0.5482980189	-0.322246
N	 0.1766573947	-0.0135768618	-0.2000842869	-0.122553
C	 1.4769882716	-0.6224453762	-0.0382434182	-0.106443
C	 2.5009607485	 0.3038648458	 0.644617765	-0.240906
C	 1.5133957828	 0.4840198508	 1.8399101433	-0.308418
C	 0.5222580779	-0.4661267132	 1.1335819217	 0.355807
C	-0.3762086782	-1.4479486515	 1.790219427	-0.031039
C	-0.134871072	-1.9966672865	 3.1310064844	-0.188125
O	-1.1155019941	-0.9793719811	 2.9307563913	-0.237224
H	 0.7035796304	 2.0843363528	-0.0982021227	 0.107254
H	 0.0512352007	 1.4860369042	-1.6361121949	 0.123694
H	-1.0204450069	 1.6878280666	-0.2399565389	 0.130377
H	 1.7115213586	-1.5000118023	-0.6328854828	 0.091938
H	 3.4075894356	-0.2302587385	 0.9364761285	 0.107286
H	 2.7917468788	 1.2007387577	 0.0897794812	 0.10332
H	 1.91128449	 0.0721203731	 2.7686948533	 0.10899
H	 1.1427070325	 1.4920318391	 2.0427525152	 0.108282
H	-0.9631295205	-2.0401081335	 1.0885195094	 0.095835
H	-0.5242577357	-2.9832609669	 3.3805375506	 0.113707
H	 0.7450776219	-1.6941593784	 3.6962204324	 0.110464
