20
gdb 80558	2.87537	1.32173	1.18455	1.9627	80.02	-0.2191	0.0037	0.2228	1135.2912	0.171901	-403.11917	-403.110744	-403.1098	-403.151984	33.036	
C	-0.1748552773	 1.5570150987	 0.1043277997	-0.318178
N	 0.0024299548	 0.1171306455	 0.0010204009	-0.104004
C	 0.5293114815	-0.4822904937	-1.2313897998	-0.049884
C	 0.9919598208	 0.3511770101	-2.4259586603	-0.23705
C	 2.5153704645	 0.5149386617	-2.5005479244	 0.083954
O	 2.761445363	 1.5581003606	-3.440524249	-0.435305
C	 3.1114310819	 0.8234667174	-1.1438873565	-0.084565
C	 2.5846687085	 0.3767093002	-0.0040339534	-0.086799
C	 1.3565780868	-0.4637309719	 0.013698542	-0.063215
H	 0.6470129001	 2.1635315854	-0.3012519832	 0.11229
H	-1.0989977682	 1.8361709729	-0.4122556351	 0.121316
H	-0.2924186383	 1.8140117407	 1.1621356184	 0.119605
H	 0.0208072081	-1.4081544096	-1.4912848958	 0.087868
H	 0.6336446067	-0.1015357895	-3.3544166437	 0.105426
H	 0.5671475347	 1.3594125257	-2.389931626	 0.121183
H	 2.9602603597	-0.4260688088	-2.869131293	 0.077274
H	 3.7101375637	 1.606142063	-3.5954796764	 0.281435
H	 4.0225204049	 1.4190050404	-1.1398327591	 0.085739
H	 3.0540893417	 0.6071367706	 0.9494354012	 0.093264
H	 1.4259703026	-1.3634488994	 0.6239347635	 0.089649
