16
gdb 85588	2.84529	1.45483	1.00261	2.5907	65.65	-0.2592	-0.044	0.2151	1127.4526	0.124309	-475.087793	-475.079477	-475.078533	-475.121282	30.278	
C	 0.1053464154	 1.5396745356	-0.0836527593	-0.399116
C	 0.1695276146	 0.0268464365	 0.0062813466	 0.016137
O	 0.9580665225	-0.4546842375	-1.0989414119	-0.247229
C	 1.1486109853	-1.7984370947	-1.2269600958	 0.441877
O	 1.3767458088	-2.298821414	-2.2956167579	-0.370279
N	 1.0418055052	-2.492840807	-0.0406092024	-0.367049
C	 1.366778044	-1.8690093831	 1.2322244834	-0.274029
C	 0.753650921	-0.4773077316	 1.3247372859	 0.383533
O	 0.7336548001	 0.153649284	 2.349932454	-0.294609
H	 1.1117129213	 1.9647029237	-0.0521162961	 0.139162
H	-0.3762431863	 1.8411831254	-1.0158710093	 0.135869
H	-0.4607943219	 1.9314575509	 0.7633885144	 0.145404
H	-0.8404855767	-0.4049691583	-0.0753378389	 0.123583
H	 1.2766523471	-3.4688455978	-0.1460801386	 0.263937
H	 0.9735225985	-2.4723025437	 2.0555160749	 0.153638
H	 2.4509191912	-1.7655021383	 1.3952867509	 0.149172
