21
gdb 85908	2.69392	1.37017	1.2117	2.9919	77.42	-0.2541	0.07	0.3241	1150.8064	0.181432	-424.226932	-424.217869	-424.216925	-424.25997	35.512	
C	 0.0735567067	 1.5960668377	 0.0573774778	-0.404433
C	 0.0297301812	 0.0670226891	 0.0235536695	-0.000366
C	 0.7443295393	-0.5603690849	-1.2004060058	-0.298491
C	 1.2414201161	-1.9634214437	-0.7547542388	 0.369962
C	 0.1850769435	-3.0549536382	-0.9702420312	-0.438065
O	 2.4703295719	-2.3384746834	-1.3656054503	-0.478797
C	 1.478774788	-1.7733933844	 0.7360738009	 0.030932
O	 2.1663328683	-0.5657768014	 1.0748527681	-0.265461
C	 0.7373667426	-0.5958650892	 1.1968581655	 0.038427
H	 1.110032411	 1.9441772845	 0.1072931666	 0.133826
H	-0.387536347	 2.0249163992	-0.8382037993	 0.113243
H	-0.4596491772	 1.9910374264	 0.9288169325	 0.111145
H	-1.0189299078	-0.2611817711	 0.0457051975	 0.073142
H	 0.0966832236	-0.6084574406	-2.0811651372	 0.086295
H	 1.6248874103	 0.033671992	-1.4563136618	 0.120622
H	-0.0084144554	-3.18839801	-2.0410907618	 0.108304
H	 0.5315235176	-4.0108197286	-0.5658842884	 0.124808
H	-0.7656731626	-2.7985852518	-0.4916693851	 0.120061
H	 2.3055243352	-2.4728361406	-2.3048698208	 0.274732
H	 1.6999429857	-2.6340067069	 1.3631274135	 0.09206
H	 0.3535381991	-0.4978062642	 2.2101942184	 0.088053
