19
gdb 128124	3.13268	1.21261	0.8989	2.3081	80.51	-0.1846	0.0517	0.2363	1314.8603	0.160381	-415.401036	-415.391092	-415.390148	-415.436004	35.534	
C	-0.0135640642	 1.3910061497	-0.3271465519	-0.33576
N	-0.0356171104	 0.0648186018	 0.2711028635	-0.385022
C	-1.1637935717	-0.7204447621	 0.1315727675	 0.455116
C	-1.2504172353	-2.1024087287	 0.0454892148	-0.060346
N	-0.1042597384	-2.9497189753	 0.0084516419	-0.624801
C	-2.6427005719	-2.376677967	-0.0153910083	 0.322614
C	-3.3063736025	-3.7122155027	-0.1238360896	-0.497574
N	-3.3636053107	-1.2617609933	 0.0197423688	-0.317513
N	-2.436699326	-0.2597124476	 0.1115299171	-0.291418
H	 0.9837948633	 1.8180307904	-0.2012946968	 0.132744
H	-0.2669547969	 1.3992399489	-1.3987317811	 0.118298
H	-0.7129365982	 2.0554017602	 0.1933302063	 0.124919
H	 0.7838338324	-0.49612728	 0.071722516	 0.24802
H	-0.0189265048	-3.5114690764	 0.8507963673	 0.236084
H	-0.1447248287	-3.5989383259	-0.7710340863	 0.234676
H	-3.0520186465	-4.3587267074	 0.7244348537	 0.118426
H	-4.3908301919	-3.586759126	-0.1485691905	 0.140215
H	-3.0019443961	-4.2436272654	-1.0337262716	 0.116944
H	-2.7554386014	 0.6891939868	 0.1866917192	 0.264379
