19
gdb 81408	4.17393	1.14568	1.12555	3.6368	75.88	-0.2399	-0.0267	0.2132	1156.7392	0.159155	-423.007956	-422.999907	-422.998962	-423.040613	30.86	
C	-0.1412207926	 1.5449176986	 0.0352375048	-0.439906
C	 0.0282159605	 0.0317664321	 0.0275035996	 0.041675
C	 1.124788422	-0.6106820378	-0.8692172814	 0.097815
C	 2.1618756374	-0.2654007155	 0.2206861944	-0.256218
C	 0.9405538597	-0.6104549879	 1.135321607	-0.100642
C	 0.752099317	-2.1032285297	 0.7571088291	 0.028536
O	 0.9026950267	-2.0232255668	-0.6647190226	-0.274605
C	 1.7612580913	-3.0189260224	 1.4205268408	 0.135788
O	 2.7862153173	-3.4069975719	 0.9260949019	-0.235953
H	 0.7999730309	 2.0874852468	 0.1543360265	 0.122183
H	-0.6005954444	 1.8812720868	-0.900566958	 0.124512
H	-0.8033181603	 1.8503794527	 0.852607166	 0.121881
H	-0.949963475	-0.4475512118	-0.0883785163	 0.076641
H	 1.2499959064	-0.4137841239	-1.932667223	 0.082617
H	 3.043990283	-0.9043590107	 0.2712712914	 0.131364
H	 2.4391291572	 0.7862326848	 0.2626855161	 0.107214
H	 0.880187274	-0.3392035934	 2.1890820444	 0.078609
H	-0.2540648364	-2.4627301929	 1.021211418	 0.087185
H	 1.4755099653	-3.2975938972	 2.4633298613	 0.071302
