17
gdb 11117	5.51905	1.06798	1.02755	3.6627	69.56	-0.2641	0.0308	0.2949	1165.8178	0.141907	-363.857685	-363.849462	-363.848518	-363.89095	29.238	
C	-0.6006505703	 1.5047685344	-0.0718741414	-0.245919
O	-0.2296179061	 0.2452400873	 0.4489727765	-0.237674
C	-1.0762161548	-0.7928957174	 0.0543023254	 0.175498
C	-0.9022640309	-1.4029991349	-1.3688985231	-0.266044
C	-1.0004720974	-2.8256334756	-0.7198519047	-0.172187
C	-0.7126945459	-2.158257855	 0.6678517645	-0.267362
C	-2.3210531342	-3.4274340163	-0.8226365238	 0.27327
N	-3.3745644952	-3.8981183051	-0.9025598434	-0.326912
H	 0.1046915887	 2.238824747	 0.323571538	 0.132883
H	-0.5543497889	 1.5261353301	-1.1707778677	 0.111341
H	-1.6192991191	 1.7848153058	 0.2370076551	 0.112054
H	-2.129038024	-0.5309315828	 0.2402278908	 0.084097
H	-1.6313279055	-1.1567344996	-2.1413961875	 0.123629
H	 0.1100911644	-1.2267709702	-1.7403514232	 0.121016
H	-0.2578531499	-3.5509790294	-1.05779458	 0.127567
H	 0.3552472388	-2.1966301616	 0.8929466139	 0.12719
H	-1.2850323596	-2.5085043566	 1.5268037705	 0.127552
