19
gdb 116695	5.14334	0.80141	0.77459	3.1871	80.85	-0.229	0.0124	0.2413	1521.9443	0.159305	-419.118694	-419.109971	-419.109026	-419.153487	31.4	
C	 0.2998282916	 1.0075294449	-0.354847179	-0.250852
O	-0.3029126816	 0.0886085515	 0.5493730229	-0.190342
C	 0.5323111584	-0.7942309282	 1.1282211685	 0.133728
N	 0.0871084623	-1.6814428204	 1.9025016525	-0.24484
C	 1.0107559771	-2.5788905582	 2.5338469559	 0.043625
C	 0.9306940496	-4.1151970457	 2.2638284666	-0.032471
C	 1.6092658243	-3.893254036	 0.8916224108	-0.201013
C	 2.3903459454	-3.0510852031	 1.9382904271	-0.066959
N	 2.3299982366	-4.2740320471	 2.8324744731	-0.318613
H	 0.7094555957	 0.4949654146	-1.2335693441	 0.129386
H	-0.4910171375	 1.6869093351	-0.6742882806	 0.148785
H	 1.0953435211	 1.5862868995	 0.1300316227	 0.128086
H	 1.5923057134	-0.6547157316	 0.8680813389	 0.081225
H	 1.0560893457	-2.3486813803	 3.6064328218	 0.07461
H	 0.1220442319	-4.8015471703	 2.5179984645	 0.082779
H	 2.1503481154	-4.753581471	 0.497247908	 0.106089
H	 1.0368760191	-3.3613830813	 0.1330178595	 0.100714
H	 3.3213830489	-2.4961525394	 1.8049031627	 0.073601
H	 2.3306962226	-3.9744944029	 3.8144047081	 0.202463
