20
gdb 115941	3.6213	1.15238	0.97414	1.5494	74.74	-0.2252	0.0779	0.3031	1236.9235	0.172781	-440.24874	-440.240549	-440.239605	-440.281674	31.782	
O	 0.0708444581	 1.3727282166	 0.2048082864	-0.424969
C	 0.0456071585	-0.0287372593	 0.0373237516	-0.071031
C	-1.3814412882	-0.5547744617	-0.0505421468	 0.093095
C	-1.4618164834	-2.0708472349	-0.2547853421	-0.176712
N	-2.7625015289	-2.6680798053	 0.1008917352	-0.102395
C	-3.0148451129	-2.9048706252	 1.5247213218	-0.240228
C	-3.7458711206	-1.8326862431	 0.8058161502	-0.010382
C	-3.4153106787	-0.3818268469	 1.0967187898	-0.119336
O	-2.0165814407	-0.1784201903	 1.1738120044	-0.269361
H	-0.5381955436	 1.5577345108	 0.9298937045	 0.288834
H	 0.5842166869	-0.2564601903	-0.8885591011	 0.11107
H	 0.5609551242	-0.5449749462	 0.8639760249	 0.091052
H	-1.8957898172	-0.0370032401	-0.8768896036	 0.077493
H	-1.2652699666	-2.2967818798	-1.3097012777	 0.110305
H	-0.6784357448	-2.5662500745	 0.3315204226	 0.105198
H	-3.5021036826	-3.8466743647	 1.7638619324	 0.112309
H	-2.2517769115	-2.5856418328	 2.2319237468	 0.117604
H	-4.7766521902	-2.0032645502	 0.4977904679	 0.092303
H	-3.8447444524	 0.2632070941	 0.3122333807	 0.099057
H	-3.8377386752	-0.0703826962	 2.0578667521	 0.116094
