14
gdb 43478	2.65034	1.8548	1.29794	2.4065	62.07	-0.2639	-0.0383	0.2256	930.8992	0.103208	-473.867567	-473.860931	-473.859986	-473.898739	25.719	
O	 0.0157276888	-0.0516124543	 0.014594539	-0.335731
C	 0.0436936208	 1.1527212149	 0.0188412854	 0.440654
N	-1.104472279	 1.9477771251	 0.0424262167	-0.370454
C	-1.0526557295	 3.342087794	-0.0221168875	 0.440669
O	-2.0334202177	 4.0405385693	-0.0606977087	-0.335758
C	 0.398658494	 3.8265200172	-0.0551948397	-0.032396
C	 1.1780924321	 3.068543865	-1.1575248355	-0.266758
C	 1.3015195715	 2.0235407623	-0.0217577414	-0.032425
O	 1.1340714918	 3.0857010757	 0.957861676	-0.280186
H	-2.0093500241	 1.4954310547	 0.0841315462	 0.270245
H	 0.4587378747	 4.9088626225	 0.0504054268	 0.117082
H	 0.6664382421	 2.7951973083	-2.0816192847	 0.132179
H	 2.1363634458	 3.5445739347	-1.3663802882	 0.1358
H	 2.2023786986	 1.4268949606	 0.1149532754	 0.117077
