23
gdb 118244	2.38438	0.85361	0.68876	2.7627	83.06	-0.2496	0.0806	0.3302	1726.2689	0.20289	-425.403702	-425.392872	-425.391928	-425.441095	38.244	
C	 0.24567578	 1.3605625136	-0.1271136245	-0.38283
C	 0.0976192046	-0.1424930213	 0.0457093238	-0.037609
O	-1.2784940803	-0.4628377055	-0.0203214613	-0.259162
C	-1.5859249608	-1.8528105691	-0.0161489839	 0.142064
C	-1.4567360737	-2.4649334075	 1.3813474708	-0.402011
C	-3.0104699898	-1.9821937609	-0.5631012559	-0.237847
C	-3.1495628486	-1.4530158201	-1.970502214	 0.09791
C	-3.0591590181	-2.3301005487	-3.1456415501	-0.177915
O	-4.3228882183	-1.8481198297	-2.6872658391	-0.241182
H	 1.3003400371	 1.6479555294	-0.0798674239	 0.114189
H	-0.1595978215	 1.678866257	-1.0918561429	 0.124666
H	-0.2942652933	 1.8915376577	 0.6620129131	 0.127728
H	 0.6481212975	-0.6788701215	-0.7455627412	 0.084702
H	 0.5314287659	-0.455104079	 1.0082416606	 0.08928
H	-0.8932800364	-2.3719970243	-0.7015461526	 0.063217
H	-1.7101995067	-3.5295626686	 1.358996425	 0.115878
H	-0.4377208556	-2.3752859368	 1.7675325195	 0.116941
H	-2.1338854845	-1.9615272973	 2.0786472708	 0.124489
H	-3.3190643937	-3.0328586687	-0.5419728147	 0.101946
H	-3.688826806	-1.4301754724	 0.0994520927	 0.113117
H	-2.8813981188	-0.4056426599	-2.098042994	 0.103928
H	-2.7231170519	-1.93000188	-4.101535793	 0.111917
H	-2.8895424171	-3.3981012766	-3.0078545851	 0.106584
