16
gdb 83919	2.65279	1.48696	1.21685	3.7447	69.42	-0.2639	0.0222	0.2862	1038.789	0.125489	-437.879305	-437.871642	-437.870698	-437.911451	29.292	
O	-0.0347254012	 1.3735147264	-0.0188826747	-0.416667
C	-0.0312172043	-0.0050398896	-0.0152550483	 0.068667
C	-0.4532637648	-0.7278352015	 1.22337643	-0.018369
O	-1.0341098554	 0.1191448165	 2.1780434107	-0.277517
C	-2.4515008015	 0.1913014946	 1.9199808237	-0.079206
C	-2.6072661175	 0.0569135624	 0.3945528183	-0.321167
C	-1.3793841771	-0.7766393232	 0.0078111774	 0.112454
C	-1.5185559029	-1.9561641233	-0.7854150051	 0.200864
N	-1.6162156266	-2.9103077412	-1.4341724082	-0.346953
H	-0.2127773296	 1.6458210757	 0.8938366268	 0.301134
H	 0.7435862854	-0.4408944437	-0.6380456904	 0.131218
H	 0.059625858	-1.6021897995	 1.6103358408	 0.127718
H	-2.9576923	-0.6302536588	 2.4434819369	 0.120431
H	-2.8082724878	 1.1419267184	 2.3226929327	 0.125003
H	-3.5344365127	-0.4455664292	 0.1153539167	 0.135142
H	-2.5723287219	 1.0317037459	-0.0993664172	 0.137249
