17
gdb 127770	3.23684	1.60101	1.09763	5.1601	75.85	-0.2003	0.0172	0.2175	1076.9583	0.139231	-414.175443	-414.167727	-414.166782	-414.207928	28.545	
C	 0.024871991	 1.42604142	-0.0158810159	-0.347169
N	 0.0381845693	-0.0150674	 0.070523906	-0.092807
N	 0.1777700374	-0.7799516767	-1.0811709708	-0.18365
N	 0.1529127052	-2.03697274	-0.7328817596	-0.285338
C	 0.0285331845	-2.1087240262	 0.6109518561	 0.264971
C	-0.0454850029	-0.8422829824	 1.1226201969	 0.39426
N	-0.3035841948	-0.7667706429	 2.4866450006	-0.416289
C	-0.0575411426	-2.1719031829	 2.9667529677	-0.170053
C	-0.1698899933	-3.1093470721	 1.7116625226	-0.338308
H	 0.9061152035	 1.8632544739	 0.4653397406	 0.137103
H	 0.0326540323	 1.6836499662	-1.0753089483	 0.171331
H	-0.8772988524	 1.8327132965	 0.4510706171	 0.145703
H	 0.2222230548	-0.0734139663	 3.0046789075	 0.239613
H	 0.9488909721	-2.248347381	 3.3960871333	 0.113001
H	-0.7805313764	-2.4255566586	 3.7450558949	 0.120183
H	-1.157813777	-3.5828843244	 1.6635419447	 0.12425
H	 0.5734875694	-3.9103537931	 1.7502147366	 0.123199
