22
gdb 122543	3.4789	0.70782	0.64477	1.3311	80.92	-0.2202	0.0654	0.2857	1815.782	0.192065	-441.426531	-441.415784	-441.414839	-441.46349	37.408	
C	 0.6156063078	 1.6011167145	-0.3099616067	-0.22384
O	 0.7264247659	 0.2231267246	-0.0568127498	-0.232293
C	-0.2003642843	-0.5456918434	-0.7924360106	-0.046218
C	 0.0154864796	-2.011792732	-0.4375362971	-0.168859
N	-0.9680365295	-2.8260274186	-1.1453087943	-0.097488
C	-0.596523767	-3.3983671643	-2.4386744303	-0.249876
C	-0.7736037494	-4.2705684798	-1.2449937341	 0.006108
C	 0.3940819716	-5.0110697752	-0.6220197501	-0.114988
O	 1.6296123869	-4.573785368	-1.1695916708	-0.40365
H	 0.8003168678	 1.8396817184	-1.3700176756	 0.100954
H	-0.381180413	 1.9884510596	-0.0436798765	 0.101716
H	 1.3657170867	 2.1099970507	 0.3009512551	 0.122738
H	-1.2357922142	-0.2515310045	-0.5561847833	 0.091794
H	-0.0581639702	-0.3928125396	-1.8763013514	 0.084363
H	 1.0546724077	-2.292662192	-0.6522192319	 0.115214
H	-0.1468008036	-2.1348914714	 0.6399530994	 0.101923
H	-1.3580559018	-3.360467177	-3.213513141	 0.106935
H	 0.4252654712	-3.2584479173	-2.7823119079	 0.131639
H	-1.703722023	-4.8296599781	-1.1447566414	 0.089265
H	 0.3750605442	-4.8675439875	 0.4702341195	 0.098015
H	 0.2437246226	-6.086677639	-0.8081034043	 0.095807
H	 2.3394951843	-4.90822136	-0.6136439068	 0.290743
