19
gdb 96894	2.66468	1.30704	1.04765	2.6041	80.7	-0.214	0.0187	0.2327	1226.3739	0.157188	-419.166151	-419.156531	-419.155587	-419.200472	35.445	
C	-0.0740257694	 1.3411989889	-0.0723681797	-0.340381
N	-0.0405110998	-0.1129416897	-0.079889785	-0.334046
C	 0.7160489097	-0.6993293105	-0.8969927934	 0.322393
N	 1.5835923339	-0.2752572268	-1.971183795	-0.407125
C	 1.5181131159	-1.6662989727	-2.538706231	 0.263354
C	 1.3056657967	-1.9111591505	-3.9952137509	-0.504846
C	 2.2396884689	-2.5430159982	-1.5562594136	-0.348709
C	 0.8181177089	-2.1481904228	-1.2422239529	 0.261732
O	-0.1287672064	-3.0918065411	-0.9310353113	-0.447197
H	 0.7391993498	 1.8158655072	-0.6387876997	 0.112961
H	-1.0318402529	 1.6939923403	-0.475020637	 0.122441
H	-0.0178795705	 1.6931013008	 0.9628285721	 0.133189
H	 1.1640630121	 0.4330734176	-2.5670963827	 0.232637
H	 2.174372422	-1.5923537506	-4.5839882759	 0.133526
H	 1.1483088378	-2.9772745594	-4.1815435966	 0.139044
H	 0.4279348106	-1.3696870617	-4.3677238553	 0.120159
H	 2.3102450561	-3.5868507966	-1.851100262	 0.12543
H	 3.081101247	-2.1612717913	-0.9833707608	 0.118537
H	-0.9532274806	-2.6162861829	-0.7678388995	 0.296901
