18
gdb 91987	2.54956	1.6345	1.23928	3.5859	74.65	-0.2347	0.0205	0.2552	1038.5168	0.150029	-398.112401	-398.104289	-398.103345	-398.145023	31.131	
N	-0.8008912055	 1.3637594978	-0.4898283576	-0.507795
C	-0.1049802091	 0.1309121901	-0.1520195693	-0.008954
C	-1.0790278571	-0.9635949751	 0.3472994186	-0.24092
C	-1.1965517283	-1.9696452572	-0.78555128	-0.011018
C	-1.4654909396	-1.4844728981	-2.162197958	-0.25214
N	-0.0868770881	-1.8077322809	-1.7526433553	-0.096986
C	 0.6908340797	-0.6359914985	-1.2962257734	-0.154186
C	 1.0634034431	 0.2465723715	-2.3996743845	 0.294887
N	 1.3383033535	 0.9895262992	-3.2414456565	-0.328908
H	-0.1702666345	 2.028553685	-0.928199634	 0.246702
H	-1.560461127	 1.2070674952	-1.1430366348	 0.232993
H	 0.6173914608	 0.3877094859	 0.6282091781	 0.102386
H	-0.6718674044	-1.4636444964	 1.2312814297	 0.117834
H	-2.0353491513	-0.5195664097	 0.6362058358	 0.12691
H	-1.4470114059	-2.9950281799	-0.52960822	 0.101813
H	-1.8743585373	-2.1635917701	-2.9041227437	 0.130363
H	-1.7325783938	-0.4446112967	-2.3214980384	 0.116352
H	 1.6149006249	-1.035408552	-0.8616716268	 0.130666
