19
gdb 54757	2.63891	1.44387	1.15949	2.6659	76.11	-0.235	-0.0107	0.2243	1122.779	0.157665	-422.996554	-422.987724	-422.986779	-423.030377	33.319	
C	-1.3307993139	 0.6316577576	 0.4728354524	-0.48451
C	-0.0033451988	-0.0281317954	 0.1474784377	 0.342254
O	 0.9529065444	 0.0396137936	 0.8887761453	-0.306131
C	 0.0308873211	-0.7809212303	-1.1660587749	-0.095292
C	 1.233653043	-1.6916714644	-1.5467794036	-0.062677
C	 0.7608787864	-2.7120527232	-0.4661905675	-0.294735
C	-0.5185384946	-2.2434542305	-1.2241794859	 0.379778
O	-1.844133061	-2.5363336321	-0.9637688679	-0.472266
C	 0.2840734079	-2.4079890924	-2.5528272396	-0.290858
H	-1.5739170551	 1.389740052	-0.2807641864	 0.135879
H	-2.1308308952	-0.1166240525	 0.4381507319	 0.157801
H	-1.2864349773	 1.0972864511	 1.4581266992	 0.136233
H	-0.3587724749	-0.1482357136	-1.9726034158	 0.079216
H	 2.2539271423	-1.3673015002	-1.7276324241	 0.093549
H	 1.0589246426	-3.7516253099	-0.6302713018	 0.085142
H	 0.8740983414	-2.4134564574	 0.5744761321	 0.125028
H	-1.9494116161	-3.4933823208	-0.9301784502	 0.287692
H	-0.06244786	-1.8275255261	-3.4117431265	 0.094718
H	 0.5614212979	-3.4281884757	-2.8325151546	 0.089181
