17
gdb 30250	2.71888	1.5352	1.03846	2.4482	76.78	-0.2177	0.0277	0.2455	1133.5278	0.13722	-418.009548	-418.00135	-418.000406	-418.042795	30.109	
C	-0.1303479914	 1.5266207807	-0.0069921418	-0.492643
C	 0.0160459966	 0.0406126659	-0.036605305	 0.106833
C	 0.1379450273	-0.830456253	-1.0972090167	 0.203417
C	 0.1416337624	-1.352804172	-2.532381515	-0.024206
O	 1.1502306897	-0.9345928448	-3.4094171663	-0.415624
C	 0.2864872129	-2.7897738514	-1.8665066162	-0.209489
N	 0.2532697231	-2.0868676354	-0.5644958469	-0.001067
C	 0.1867187345	-1.984023825	 0.7841518007	-0.040375
N	 0.0605471874	-0.7095812789	 1.1234423515	-0.309243
H	 0.7085849559	 1.9971784383	 0.5172713481	 0.133589
H	-0.173098912	 1.9364267685	-1.0195527003	 0.11898
H	-1.0434905556	 1.8199092119	 0.5215508591	 0.135521
H	-0.7990662408	-1.2346387331	-3.0762116917	 0.114497
H	 1.9536477984	-0.7994879931	-2.8941313551	 0.285982
H	-0.5460433385	-3.4813607838	-2.0173610913	 0.132923
H	 1.2371223008	-3.2856771646	-2.0779597432	 0.128083
H	 0.2421950695	-2.8172127003	 1.46710426	 0.132824
