15
gdb 31390	2.87618	1.39192	0.94347	3.2117	72.05	-0.2478	-0.0363	0.2114	1167.3089	0.113764	-453.97132	-453.963509	-453.962565	-454.004102	28.774	
O	 0.1425264387	 1.3612579823	-0.257645212	-0.417285
C	 0.0407710293	-0.0202034889	-0.0815589245	-0.126061
C	-1.3936753847	-0.4680378675	 0.026358199	 0.389736
N	-2.3461267425	 0.3728640383	-0.0429781898	-0.38863
C	-3.6905780081	-0.0659897588	 0.0612108964	 0.336116
N	-4.690881697	 0.7232529312	-0.0001396381	-0.519234
C	-3.859067885	-1.5055273441	 0.2460719571	-0.15801
C	-2.787030743	-2.2963145258	 0.3047803638	 0.038873
O	-1.508763938	-1.8084715691	 0.1971460209	-0.215214
H	-0.7672621635	 1.696681592	-0.2655881783	 0.297076
H	 0.5038487813	-0.5654307956	-0.919400667	 0.12762
H	 0.5670402461	-0.3476471263	 0.8292910131	 0.127592
H	-4.3564269283	 1.6803023636	-0.1314273227	 0.220056
H	-4.8572429257	-1.91279374	 0.333410799	 0.136783
H	-2.7866253495	-3.3694815014	 0.4380133532	 0.150585
