18
gdb 108006	3.80734	1.50175	1.36327	0.5939	72.92	-0.2441	0.0627	0.3068	995.5894	0.148076	-401.857638	-401.850488	-401.849544	-401.889283	28.544	
C	-0.0150893356	 1.5619720504	 0.0500909886	-0.384326
C	-0.0923758205	 0.0368601251	-0.0721657619	-0.32297
C	-1.4899312359	-0.4993518952	 0.0346268497	 0.457951
O	-2.4512310553	 0.053568325	-0.9086974484	-0.328937
C	-3.4669512789	-0.4360421712	-0.0099290522	 0.059775
C	-3.2837593563	-1.9715257202	 0.1125966709	-0.061995
C	-1.7995818232	-2.0202844744	 0.1422908465	-0.117812
N	-2.5646307977	-1.9159556631	 1.4315175837	-0.185374
C	-2.5131635272	-0.3977779955	 1.2089247346	-0.098102
H	 1.0152088081	 1.9097384898	-0.0657503763	 0.113877
H	-0.6309835671	 2.0405128947	-0.7151282503	 0.139799
H	-0.3739796266	 1.8985513068	 1.0284754254	 0.116157
H	 0.32154544	-0.2853085603	-1.036981669	 0.11463
H	 0.5165254546	-0.4447220046	 0.7027320709	 0.114317
H	-4.4446748108	 0.0252604361	-0.127431206	 0.090613
H	-3.9360728049	-2.7913949025	-0.158790398	 0.102716
H	-1.1908217102	-2.8815467911	-0.103541847	 0.098853
H	-2.5133861927	 0.3004275702	 2.0428556088	 0.090829
