17
gdb 79211	2.5988	1.64529	1.28405	3.06	76.39	-0.2603	0.0071	0.2674	1017.4944	0.136955	-380.819672	-380.81211	-380.811166	-380.851596	29.356	
C	 0.0259459879	 1.6026006323	-0.0032407081	-0.436626
C	 0.0949865374	 0.0831258258	 0.0058524673	-0.01832
C	 0.7676422029	-0.7110976202	-1.1156907733	-0.059744
C	 1.2344451301	-1.7649780886	-0.191017234	-0.095947
N	 2.2412254336	-0.886520349	-0.8365335209	-0.145993
C	 2.4795198552	-0.2051125504	 0.4720702741	-0.188993
C	 1.0890307534	-0.6760252118	 0.9569293927	 0.158399
C	 0.7718394817	-0.875026291	 2.3442134044	 0.152098
N	 0.5199887244	-1.0381474179	 3.4617246229	-0.340881
H	 0.9907328584	 2.066647192	-0.2220238811	 0.128145
H	-0.6804645833	 1.9400375357	-0.7688314132	 0.129233
H	-0.3263930653	 1.9810423129	 0.9620659197	 0.136618
H	-0.9022078172	-0.3396614638	 0.1661531361	 0.103569
H	 0.4692880426	-0.7976666811	-2.1517991771	 0.111293
H	 1.2371034726	-2.8462898762	-0.1983137384	 0.118881
H	 3.2935466997	-0.7195698786	 0.9862114549	 0.13279
H	 2.6802577858	 0.86888818	 0.4306559939	 0.115477
