22
gdb 103916	2.53646	1.38442	1.10548	2.5795	82.43	-0.2346	0.0673	0.3018	1212.7312	0.193217	-404.312833	-404.303161	-404.302217	-404.346578	37.183	
C	-0.0542909693	 1.4444848276	-0.0833297599	-0.484579
C	-0.2148133282	-0.0410185991	 0.040105659	 0.358539
C	-1.5416975494	-0.7854772707	 0.2962510103	-0.352042
C	-0.7624049589	-1.8131578982	 1.1954343411	 0.299691
C	-1.0942069404	-1.6499130147	 2.6796351144	-0.450517
C	-0.8604200228	-3.2896122732	 0.8172498894	-0.131976
O	-0.7405829966	-3.4447886071	-0.5947058477	-0.418103
C	 0.5454573685	-1.0639035682	 0.8381421465	-0.132008
N	 0.7566294562	-0.9204754224	-0.5991403986	-0.376785
H	 1.0056580234	 1.7118741551	-0.0902828093	 0.129266
H	-0.4977158337	 1.8104635786	-1.0175871632	 0.117391
H	-0.5443587042	 1.9686416227	 0.7446472104	 0.109217
H	-2.2711636587	-0.2072163329	 0.8706194583	 0.094603
H	-2.0284761469	-1.1881861794	-0.596230972	 0.105438
H	-2.1177595839	-1.9741102406	 2.8984282035	 0.113769
H	-0.4127585435	-2.2380186113	 3.3063271221	 0.11224
H	-0.9996624245	-0.6029568655	 2.9835756771	 0.12091
H	-0.0668393382	-3.8479838425	 1.3390553457	 0.090685
H	-1.8270764594	-3.6915748032	 1.162948722	 0.085977
H	-0.6714102266	-4.3822821846	-0.7948436634	 0.291217
H	 1.3976797427	-0.948226129	 1.5024202266	 0.075251
H	 0.3336983046	-1.6861684314	-1.1173436923	 0.241813
