18
gdb 48159	3.59226	0.84548	0.76766	2.3889	76.12	-0.2503	-0.0758	0.1745	1508.9253	0.147413	-439.113717	-439.104805	-439.103861	-439.148756	31.865	
O	-0.6049583822	 1.0453000601	-0.2339448106	-0.249304
C	 0.4707980587	 0.7686256676	 0.2318101844	 0.101606
C	 1.63834959	 1.7563172858	 0.3209388673	 0.29867
O	 2.699580805	 1.4041418275	 0.8060410338	-0.362267
N	 1.3343441754	 2.9746169006	-0.1792150972	-0.321027
C	 2.2475940859	 4.0865929689	-0.2190966211	 0.078129
C	 2.4953410371	 4.814121841	-1.5693800939	-0.238503
C	 2.5589325362	 6.1484831907	-0.7768772265	-0.210793
C	 1.809620589	 5.4474966995	 0.3892170465	-0.238516
H	 0.7232313978	-0.2287896512	 0.6424616334	 0.117641
H	 0.3951381871	 3.0770694599	-0.5408689711	 0.259429
H	 3.1821204195	 3.7352939386	 0.2216770851	 0.123875
H	 3.3636779294	 4.5086196679	-2.1569585958	 0.109944
H	 1.6059781963	 4.7698688693	-2.206686713	 0.101544
H	 3.584335936	 6.4088363116	-0.5020673362	 0.112641
H	 2.0856153173	 7.0232689485	-1.2254752445	 0.105445
H	 0.7261137076	 5.5825763593	 0.30642421	 0.101543
H	 2.1128287536	 5.6639780743	 1.4157595395	 0.109943
