15
gdb 51784	2.49569	1.33299	0.93898	4.2694	62.73	-0.263	-0.0493	0.2137	1185.3921	0.109474	-494.894147	-494.885274	-494.88433	-494.929685	29.525	
O	 0.117010621	 0.147136284	-0.6664990832	-0.257388
C	 0.2300204686	 1.331334958	-0.6400690639	 0.180099
O	 1.004755197	 1.9619224124	 0.2812730744	-0.189369
C	 1.0780939197	 3.3738923941	 0.2237510422	 0.054483
C	 1.7183023021	 3.9744623913	 1.4852321163	-0.094598
O	 2.8302945092	 4.5027153673	 0.726955379	-0.283353
C	 2.3160286124	 3.9735783323	-0.5048797444	 0.006918
C	 3.2440038173	 2.9756431254	-1.1722171767	 0.134975
O	 2.9229233615	 2.3518989223	-2.1494901936	-0.235878
H	-0.277418184	 2.0335046654	-1.3270275992	 0.089413
H	 0.118647757	 3.799599883	-0.0805596404	 0.111321
H	 1.1456372202	 4.7647198164	 1.981064549	 0.121502
H	 2.0316336661	 3.2219850703	 2.2160240571	 0.135598
H	 2.0689020199	 4.7627858999	-1.2278433634	 0.118291
H	 4.234787442	 2.8702055078	-0.6799106831	 0.107986
