18
gdb 50854	2.88835	0.93808	0.75929	2.6422	77.96	-0.2518	-0.0142	0.2375	1498.0915	0.148047	-435.270203	-435.261163	-435.260218	-435.305064	32.275	
N	-0.102663498	 1.5106509367	 0.9225414827	-0.461842
C	-0.5050446933	 0.6643056601	 0.0643706757	 0.09862
N	-1.7879947641	 0.150665792	 0.136086591	-0.295364
C	-2.2984068967	-0.7648432953	-0.7549366681	 0.404049
O	-1.67810764	-1.2177730605	-1.6942714575	-0.360015
C	-3.7281502465	-1.2085417739	-0.4383420999	-0.268288
N	-4.4231841971	-0.2807943707	 0.4420826135	-0.083584
C	-5.3016464906	 0.699367646	-0.1983822123	-0.223609
C	-5.8677717321	-0.4485031275	 0.5610897295	-0.217153
H	 0.8588939727	 1.7807767255	 0.7227483768	 0.230726
H	 0.0542946957	 0.2556645537	-0.7800103457	 0.135483
H	-2.3977424119	 0.4645470987	 0.8820532569	 0.274144
H	-4.2348681018	-1.3788817277	-1.4003670259	 0.121347
H	-3.6568039251	-2.1813935475	 0.0643758571	 0.142339
H	-5.2916341109	 1.6947323557	 0.2345885733	 0.129889
H	-5.3827900993	 0.6712546959	-1.2832179519	 0.124728
H	-6.3327868207	-1.2461388065	-0.014746312	 0.120208
H	-6.2774081804	-0.3039666649	 1.5561990869	 0.12832
