19
gdb 96088	2.64601	1.50626	1.16346	1.668	70.45	-0.2439	0.0681	0.3121	1086.7403	0.159551	-460.141852	-460.133433	-460.132489	-460.174506	33.038	
O	 0.1770589292	 1.385536636	-0.316834593	-0.431464
C	-0.0614218897	 0.0143954838	-0.0252659791	 0.100719
C	 0.7096316669	-0.4646488274	 1.2172316653	-0.106141
O	-0.0179796158	-0.2984096014	 2.4260515992	-0.244451
C	-1.1235259881	-1.1782518819	 2.4861613442	-0.153356
C	-2.107475535	-0.9201611321	 1.3578096406	 0.377362
O	-3.1642954809	-1.8320912554	 1.2834365899	-0.464242
C	-2.4363078353	 0.4983347733	 1.0366435248	-0.330689
C	-1.5492422183	-0.3068935527	 0.0913976741	-0.134529
H	-0.3517435212	 1.9084348977	 0.2952302269	 0.28309
H	 0.3490169235	-0.5209367599	-0.8891024197	 0.08661
H	 0.9810413668	-1.527223523	 1.0955983059	 0.081123
H	 1.6269667066	 0.1208323696	 1.3169554138	 0.117987
H	-0.7807052512	-2.2287594881	 2.4373253538	 0.076637
H	-1.6043731257	-1.0251037716	 3.4572014206	 0.117757
H	-2.8097793131	-2.6800050715	 0.9918753867	 0.282364
H	-3.4431057097	 0.7106813368	 0.6981256228	 0.125816
H	-1.9857921466	 1.2644438557	 1.660474462	 0.120129
H	-2.0417239223	-0.600834608	-0.8297867488	 0.095276
