18
gdb 15691	3.39074	1.73633	1.22467	2.375	68.24	-0.2223	-0.022	0.2003	1002.7684	0.153499	-384.962499	-384.954391	-384.953447	-384.995395	29.562	
C	-0.0122830862	 1.4709217021	-0.0932859855	-0.248049
O	 0.1695545195	 0.0758660384	 0.0877303857	-0.24481
C	 0.6129265912	-0.6091952565	-1.0522285062	 0.048926
C	 1.1529703435	-1.9980693636	-0.7015631553	-0.248646
C	 1.0462456479	-2.784264667	-2.0245195459	-0.224082
C	-0.2881679629	-2.317050003	-2.6340980963	-0.312432
C	-0.4936654403	-0.8991598574	-2.0959461062	 0.383759
O	-1.379934468	-0.1425309144	-2.4015298007	-0.314269
H	 0.9238967745	 1.951653618	-0.4192951094	 0.09887
H	-0.7970724823	 1.6868870522	-0.8242235253	 0.143277
H	-0.2954796315	 1.8779614162	 0.8803623247	 0.123996
H	 1.3965440806	-0.0290532115	-1.5776695129	 0.082085
H	 2.1655671543	-1.9684743956	-0.2943719192	 0.107962
H	 0.4978399928	-2.4347901282	 0.0614360976	 0.118462
H	 1.8777201136	-2.5156468222	-2.6862645866	 0.108153
H	 1.0918896736	-3.865015633	-1.8739469913	 0.109043
H	-0.3354017681	-2.3375637466	-3.7257764783	 0.129304
H	-1.1273807222	-2.9234326878	-2.2696314788	 0.138452
