20
gdb 88629	3.50834	1.12217	1.03585	2.3469	79.24	-0.2177	0.0748	0.2925	1235.8378	0.170965	-403.059009	-403.050665	-403.049721	-403.092542	31.834	
C	-0.3811716722	 1.306320213	 0.1348443282	-0.303149
N	 0.0491714517	-0.0840224286	 0.1209762995	-0.092033
C	 1.4331955061	-0.3469741302	-0.2558047212	-0.268525
C	 0.9875266015	-0.5485892196	 1.1535423589	 0.004838
C	 1.4973508724	 0.332651803	 2.2519316373	-0.063817
C	 0.7353169909	 0.6274373118	 3.5423034998	-0.147831
C	 0.0262272441	-0.6332445786	 4.0253785309	-0.096683
O	 1.2540434178	-1.409201639	 3.920444286	-0.282092
C	 1.9776797721	-0.2297340303	 3.5602743471	 0.062078
H	 0.4015265273	 2.0277095018	 0.4187292803	 0.093819
H	-0.7354240355	 1.572385649	-0.8663246948	 0.121283
H	-1.2179147799	 1.4214718505	 0.8312815234	 0.120563
H	 1.6011721828	-1.1938514513	-0.9164900607	 0.113226
H	 2.0783540843	 0.5108612029	-0.4491532439	 0.099755
H	 0.7864806692	-1.5650160053	 1.4810561395	 0.108446
H	 2.0841299685	 1.1936146055	 1.9420516096	 0.095153
H	 0.5619580817	 1.6319391622	 3.9037377638	 0.098993
H	-0.2955717772	-0.577267505	 5.0708100821	 0.112409
H	-0.7813200709	-1.0409141375	 3.407350869	 0.118188
H	 2.969089085	-0.0992350844	 3.9794397353	 0.105379
