14
gdb 125022	2.42851	1.82993	1.05042	6.0997	71.33	-0.2442	-0.0759	0.1683	1056.1595	0.098742	-470.004968	-469.996215	-469.995271	-470.038424	31.095	
C	 0.0314922338	 1.5289542012	-0.0377600304	-0.508514
C	 0.0051099651	 0.029400891	-0.0546428517	 0.246909
C	-1.1329893175	-0.7280219066	 0.0271141384	 0.148359
N	-2.3824243637	-0.2560858796	 0.1330534158	-0.556843
C	-1.0680458198	-2.2272457908	 0.0029783511	 0.460606
O	-2.0956379194	-2.8735295209	 0.0777093985	-0.38339
O	 0.1265957287	-2.7642078554	-0.0999282322	-0.296906
N	 1.4399695063	-1.8085268797	-0.1933938154	-0.030312
N	 1.2058206253	-0.6284688585	-0.1595469753	-0.077796
H	 1.0603238605	 1.8832597271	-0.1162481401	 0.158091
H	-0.5380879207	 1.9534096077	-0.8742320699	 0.136735
H	-0.3957891998	 1.9311062389	 0.8895982328	 0.136689
H	-2.5940783355	 0.7247496066	 0.1644812022	 0.274373
H	-3.1159962433	-0.9486689308	 0.1844242063	 0.291999
