17
gdb 67886	2.8565	2.01263	1.36506	2.0216	72.1	-0.2359	0.0056	0.2415	926.415	0.137335	-421.770661	-421.764091	-421.763147	-421.801134	28.037	
O	 0.1894972359	 1.3877683609	 0.0997000076	-0.507652
C	 0.1046272532	 0.0043243094	 0.0392399364	 0.44401
C	 1.0676342717	-0.6407146567	 0.9844653706	-0.110575
C	 1.119177426	-1.9685251988	 1.0555671489	-0.092561
C	 0.2070855113	-2.7904266718	 0.1830378339	-0.309283
C	-0.6762064774	-1.9018299936	-0.6886486805	-0.018028
C	-1.3248137438	-0.6298059704	-0.0824045194	-0.029481
O	-1.4256653797	-0.0523902406	-1.445637684	-0.346115
C	-0.0693673634	-0.6503128956	-1.3754671854	-0.029481
H	-0.4641461292	 1.7061699919	-0.5399772713	 0.285514
H	 1.6920111309	 0.0157972965	 1.5802694878	 0.104954
H	 1.8019110977	-2.4806529505	 1.7265657803	 0.097707
H	 0.7948432762	-3.4674912788	-0.4528563073	 0.118562
H	-0.4217559434	-3.4476281288	 0.800193444	 0.118562
H	-1.3579456827	-2.4487489604	-1.3418815865	 0.087362
H	-2.1894255008	-0.5265607422	 0.5749477723	 0.093252
H	 0.5636248674	-0.5715334706	-2.2605885575	 0.093252
