21
gdb 104367	2.15731	1.47496	1.29367	2.567	77.56	-0.2462	-0.0271	0.2192	1142.6123	0.181826	-424.268979	-424.25961	-424.258666	-424.302957	35.66	
C	-0.3245715461	 1.3326961359	 0.1602448934	-0.399868
C	-0.1022305727	-0.1517108481	-0.1380208997	-0.20954
C	 0.9232698112	-0.4221540404	-1.2706964529	 0.311574
O	 2.1507520897	 0.211795336	-0.9837647348	-0.491399
C	 1.0779173314	-1.9276915922	-1.5438768315	-0.261322
C	-0.1310783124	-2.2929606745	-2.4413721657	-0.227264
C	-0.3698585063	-1.0452872819	-3.3216635313	-0.318277
C	 0.3733302989	 0.0819958911	-2.6137101375	 0.367261
O	 0.6055933508	 1.1870519759	-3.0426771444	-0.345531
H	 0.6173080231	 1.8091898589	 0.4440275527	 0.129383
H	-0.7249078404	 1.8681200374	-0.70598621	 0.127452
H	-1.0291126286	 1.4558951915	 0.9879214415	 0.111525
H	 0.2867323282	-0.6541197761	 0.7559010953	 0.109616
H	-1.0565438947	-0.6369283649	-0.3772070324	 0.094669
H	 2.1433152306	 1.0387263815	-1.4885622601	 0.288173
H	 2.0194682069	-2.0788095594	-2.0828837293	 0.111755
H	 1.1200279578	-2.5220836439	-0.6274819894	 0.104688
H	 0.0579287421	-3.1895807826	-3.0356190429	 0.109499
H	-1.0112789722	-2.5013857225	-1.8261525898	 0.112407
H	 0.0611746639	-1.1459098298	-4.323676388	 0.141013
H	-1.4244748309	-0.7899350217	-3.4633301832	 0.134188
