15
gdb 8563	4.31751	2.11122	1.81629	4.7043	62.08	-0.2427	0.0492	0.2919	751.0075	0.121213	-399.796637	-399.79068	-399.789736	-399.826708	23.934	
N	-0.0709976876	 1.2216069028	 0.4348272214	-0.559215
C	-0.0079346336	 0.0463642347	-0.0148664181	 0.468599
O	 1.1650769975	-0.6040377833	-0.2839107809	-0.280146
C	 1.0614143981	-1.9437771576	-0.7934331493	 0.114511
C	 0.0131475607	-1.96165102	-1.9322741663	-0.263311
C	-1.0081108197	-1.9726882384	-0.7678136807	 0.12276
C	 0.0487121115	-2.728076613	 0.0757332443	-0.263312
O	-1.1515222251	-0.6412971098	-0.2571025257	-0.250561
H	 0.8691635668	 1.5906731573	 0.5590394146	 0.226756
H	 2.0822437486	-2.2916206986	-0.9442800954	 0.09609
H	-0.0074429337	-1.1152131526	-2.6208155576	 0.126523
H	 0.0191946114	-2.9065189567	-2.4788068917	 0.117681
H	-2.0190265948	-2.3557608331	-0.8961220978	 0.099421
H	 0.0605017609	-3.7966984166	-0.1465693327	 0.117681
H	 0.0594021991	-2.555737815	 1.1533025159	 0.126523
