17
gdb 16873	3.51405	1.9781	1.54002	1.5843	67.54	-0.2316	-0.0185	0.2131	852.4864	0.143896	-363.858949	-363.852002	-363.851058	-363.890664	26.564	
O	 0.0008733756	-0.0804295867	 0.0467987446	-0.309844
C	-0.0171084914	 1.1273908544	 0.062184097	 0.38268
C	-1.2858804244	 1.9551116036	 0.048605078	-0.295239
C	-1.3581795899	 2.8294067374	 1.3162818473	-0.164971
N	-0.1504457021	 3.6371110548	 1.5556756943	-0.091576
C	 0.8721073752	 3.0685378401	 2.4317075736	-0.241045
C	 1.1337018685	 3.2102291635	 0.9764669209	-0.011825
C	 1.2469511937	 1.9756882033	 0.0870351663	-0.327957
H	-1.2639919817	 2.6107008987	-0.8316771302	 0.120517
H	-2.1566714285	 1.2999749543	-0.0229934147	 0.123126
H	-2.2097975024	 3.5126265653	 1.2286538049	 0.116195
H	-1.5554765345	 2.1888260713	 2.1846057389	 0.114118
H	 1.3174171225	 3.7508334916	 3.1514963888	 0.116194
H	 0.7122275121	 2.0575514869	 2.8082693265	 0.114029
H	 1.7494989281	 4.047085121	 0.6527453128	 0.09656
H	 2.1012907158	 1.3503177851	 0.3608268646	 0.129666
H	 1.4072972136	 2.3040882153	-0.9497463537	 0.129373
