19
gdb 71190	2.49453	1.68984	1.37592	2.5883	78.67	-0.2374	-0.0204	0.2169	1018.1876	0.158455	-385.851895	-385.843859	-385.842915	-385.884445	31.254	
C	 0.1286879962	 1.5473757501	-0.0686502838	-0.51534
C	 0.1009372171	 0.0458093191	 0.0295295733	 0.312037
C	-1.2469536601	-0.7366166712	 0.1163954215	-0.276376
C	-0.4596430883	-1.8253829682	 0.8391976356	-0.060692
C	 0.9296748121	-1.9012877283	 0.1877972145	-0.099356
C	 0.6239899235	-0.8560893003	 1.2346601437	-0.135369
C	 0.9793412827	-0.8339306106	-0.9123095159	-0.117071
C	 0.5434591329	-1.1508444964	-2.319466301	 0.133925
O	-0.3006301341	-0.5486703968	-2.9368364536	-0.251095
H	 1.150933515	 1.9362675496	 0.000081192	 0.112608
H	-0.2902671901	 1.8681470331	-1.0283769705	 0.14113
H	-0.4602845985	 2.0088036455	 0.7313153405	 0.116122
H	-1.935180689	-0.2339531359	 0.8026503027	 0.096055
H	-1.7615464959	-0.9678541416	-0.8197484369	 0.111845
H	-0.8395885114	-2.6604626188	 1.4138564163	 0.086316
H	 1.558176697	-2.7758744791	 0.293968818	 0.08903
H	 1.1029019308	-0.6309206782	 2.1766214832	 0.091278
H	 2.0021549859	-0.4332041299	-0.9697622153	 0.093977
H	 1.0848366643	-2.0089841321	-2.7865868244	 0.070975
