20
gdb 7274	3.89915	1.18791	0.97987	4.2975	76.65	-0.2345	0.0264	0.261	1222.1034	0.175509	-345.18474	-345.175102	-345.174158	-345.219444	34.561	
C	 0.0309385627	 1.5290085697	-0.0057357536	-0.40893
C	 0.0006596617	-0.0049782797	 0.0217323088	 0.10141
C	 0.7359272186	-0.4956824692	 1.2784514424	-0.406086
N	-1.3905730649	-0.5042718937	-0.0166244615	-0.074932
C	-2.182862658	 0.054051789	-1.1113904691	-0.342815
C	-1.444039296	-1.9628448323	-0.0533099101	-0.278509
C	-2.8033801909	-2.4732981866	 0.1643754568	 0.275221
N	-3.8662375444	-2.8947627417	 0.3289883961	-0.312695
H	 1.0579774364	 1.875120861	 0.138242784	 0.117924
H	-0.3201818563	 1.941271315	-0.953513769	 0.12191
H	-0.5852793806	 1.9385240903	 0.8016166384	 0.129082
H	 0.5532801439	-0.3688905242	-0.8687715819	 0.056839
H	 0.1593738272	-0.2472712083	 2.17521468	 0.131437
H	 0.9273290013	-1.5717272898	 1.2786981289	 0.117832
H	 1.710450077	-0.0048141632	 1.3481309848	 0.120281
H	-1.7290166004	-0.1213989283	-2.1051991495	 0.094808
H	-3.1748443658	-0.4038782016	-1.1072168995	 0.148466
H	-2.3192252954	 1.1271686643	-0.9780271105	 0.132341
H	-1.0732247689	-2.3867390336	-1.0081224191	 0.12302
H	-0.8183181773	-2.3783016368	 0.7386737436	 0.153397
