14
gdb 27439	2.56715	1.68695	1.09941	6.0772	74.77	-0.2404	-0.0858	0.1546	1041.3411	0.102332	-432.893871	-432.88634	-432.885396	-432.925814	28.511	
N	 0.108779796	 1.3331549692	 0.3928534827	-0.575978
C	-0.04134508	-0.0072777235	 0.0922618055	 0.333406
C	-1.2418184185	-0.6463577047	 0.1485653418	-0.269208
C	-1.4522481904	-2.0450055002	-0.2579909603	 0.334896
O	-2.4114683921	-2.3895994733	-0.9131585413	-0.33112
N	-0.5600641358	-2.9912232768	 0.276641255	-0.227522
C	 0.7100952147	-2.8762965386	 0.2598770549	 0.074523
N	 1.5183441251	-1.9087153098	-0.3224525385	-0.226465
C	 1.180001923	-0.6727677283	-0.3757971552	-0.004662
H	 0.9054840625	 1.8082823614	-0.0022875411	 0.260459
H	-0.7277351132	 1.895783331	 0.4096082651	 0.26538
H	-2.1456609253	-0.075609959	 0.34744753	 0.115763
H	 1.293437018	-3.67466548	 0.7209181711	 0.133053
H	 1.9204847159	 0.0007478427	-0.8211846599	 0.117476
