16
gdb 85720	2.51878	1.3909	1.01937	6.4504	73.67	-0.2622	0.0034	0.2656	1149.5008	0.125346	-396.937841	-396.92921	-396.928265	-396.971403	31.445	
N	 0.0102121778	 1.4739197844	-0.1048505651	-0.517317
C	-0.0522340243	 0.0447178841	-0.0065956486	 0.04811
C	 0.2931404955	-0.7560526032	 1.2900977847	-0.264874
C	-0.8804370343	-1.7208986332	 0.9487902427	-0.155663
C	-1.6806023168	-2.2674067685	 2.0284972947	 0.28999
N	-2.3045713624	-2.7065132212	 2.8966395964	-0.314933
C	-1.4868411752	-0.6011673777	 0.0211149498	-0.194655
C	-2.4631054529	 0.2500012978	 0.6815363588	 0.300879
N	-3.2095454739	 0.9562823773	 1.2112790334	-0.323823
H	-0.4180404298	 1.9259290968	 0.6969688434	 0.248794
H	 0.9667452305	 1.8009381459	-0.1793921802	 0.240257
H	 0.4880480534	-0.3842610561	-0.8563923068	 0.105476
H	 1.286602749	-1.1969684139	 1.3840504439	 0.122088
H	 0.0656652894	-0.1714437886	 2.1851972595	 0.137675
H	-0.5332045179	-2.5415687938	 0.315299495	 0.139834
H	-1.8880963881	-0.94098659	-0.9354313717	 0.138165
