23
gdb 76169	1.98844	1.39623	1.16682	0.9497	93.56	-0.2312	0.0579	0.2891	1259.6296	0.2016	-351.124815	-351.113622	-351.112678	-351.159955	41.949	
C	-1.7084578758	 0.9681857513	-0.5530203459	-0.422584
C	-0.7967490724	-0.2249020335	-0.3614523917	-0.083136
C	 0.3493949836	-0.5893778421	-1.2771915684	 0.274929
C	 0.5550945764	-2.062144682	-1.5861415328	-0.454128
C	 0.71373656	 0.299211674	-2.454330499	-0.453371
C	 0.6438594606	-0.0979384436	 0.1567481767	 0.065932
C	 1.2681022481	 1.2713692263	 0.4102695304	-0.459213
C	 1.0683242325	-1.0706466025	 1.1318552696	 0.29528
C	 1.4448255912	-1.8472999955	 1.9715535419	-0.469095
H	-1.1973914975	 1.8393435883	-0.967772853	 0.116418
H	-2.5278890233	 0.71566412	-1.2355040396	 0.120434
H	-2.155825519	 1.2715270458	 0.3998391092	 0.122947
H	-1.3183633507	-1.0859929875	 0.0495811922	 0.089871
H	-0.0802106714	-2.3655178786	-2.4267586214	 0.108306
H	 1.5955701824	-2.2640520018	-1.8663813883	 0.11446
H	 0.3154543007	-2.694557234	-0.7293871627	 0.129064
H	 0.5166534963	 1.358129181	-2.284674854	 0.114221
H	 1.7759517115	 0.1941242157	-2.7032292418	 0.119373
H	 0.1406751262	-0.00128876	-3.3393771041	 0.116993
H	 0.9200235455	 2.0322196176	-0.2888914871	 0.112928
H	 1.0283831142	 1.6121719035	 1.4222740611	 0.127156
H	 2.3582451544	 1.2144155475	 0.3304553361	 0.126628
H	 1.7700885065	-2.5399416298	 2.7072687726	 0.186586
