16
gdb 65635	3.4613	1.27832	1.18086	1.6764	68.58	-0.2593	0.0018	0.2611	1059.3955	0.123895	-437.851987	-437.844011	-437.843067	-437.884722	29.93	
O	 0.0633709206	 1.4678649677	-0.4134124944	-0.452397
C	 0.0123465925	 0.1006090289	-0.0874867053	 0.248184
C	 0.1548031327	-0.3031686787	 1.4307098953	-0.305271
C	-1.2832536508	-0.871243581	 1.4024593084	 0.125515
O	-2.2669388561	 0.0881672675	 1.8215708611	-0.288985
C	-2.4950624887	 0.5205202379	 0.4555785524	-0.092393
C	-1.4432123218	-0.4614813243	-0.0879117655	-0.120634
C	 0.9120120685	-0.6743247959	-0.9557851904	 0.228772
N	 1.6383041104	-1.2722874101	-1.6279278178	-0.333761
H	 0.9736565571	 1.7747520253	-0.3318712478	 0.297572
H	 0.9434604792	-1.0333209633	 1.6217429666	 0.127659
H	 0.2656461389	 0.5568375273	 2.0938988781	 0.127824
H	-1.4577903751	-1.8686543611	 1.8098551732	 0.091053
H	-3.5172159381	 0.2911401722	 0.1342107331	 0.109921
H	-2.2889032236	 1.5837244197	 0.3083021229	 0.132115
H	-1.7208322056	-1.121586452	-0.90603231	 0.104827
