18
gdb 99676	2.57343	1.20427	0.87405	4.7509	72.85	-0.2644	0.0104	0.2748	1323.5912	0.146289	-439.058868	-439.049403	-439.048458	-439.094276	32.556	
C	-0.1865961735	 1.4233309209	 0.1818663876	-0.248563
O	 0.1185668765	 0.0550606684	-0.0353168755	-0.236699
C	 0.7895906009	-0.5671966244	 1.0313107871	-0.03613
C	-0.0628266664	-0.6619377631	 2.2384533046	 0.279905
N	-0.7517969858	-0.7122612949	 3.1645098058	-0.323736
C	 1.2035094326	-1.9613948388	 0.5445638729	 0.137557
C	 2.3294498767	-1.9983530831	-0.5062163769	-0.297582
C	 3.1158368597	-2.759676032	 0.5819278432	-0.064186
O	 2.0159193793	-2.637673649	 1.5170365813	-0.287751
H	 0.7246720131	 2.0103513695	 0.3676453806	 0.114031
H	-0.6666942187	 1.7842958528	-0.7293049773	 0.140135
H	-0.8722428338	 1.5541451197	 1.0288896099	 0.139828
H	 1.6977570697	-0.0089482757	 1.3128965883	 0.110918
H	 0.3009375322	-2.5294450271	 0.2904783031	 0.104
H	 2.1030017002	-2.560214786	-1.412060515	 0.123391
H	 2.7283657914	-1.0209218638	-0.7820953481	 0.11943
H	 3.3383117361	-3.8088662038	 0.3577186772	 0.113624
H	 4.0240303999	-2.2750031395	 0.9572383011	 0.11183
