18
gdb 77159	2.91762	1.1936	0.99296	4.4693	72.98	-0.2464	0.0312	0.2776	1231.4645	0.146833	-439.084435	-439.075592	-439.074648	-439.118645	32.043	
C	-0.2224179303	 1.4394991548	 0.198102385	-0.410054
C	 0.0340830698	-0.0401718672	-0.0458322986	-0.16167
C	 0.799778284	-0.4666012418	-1.3475941324	-0.003989
N	 1.8112954118	-1.0673933427	-0.4734614617	-0.334529
C	 1.2427904558	-0.6468725398	 0.7094790633	 0.438639
O	 1.6035651261	-0.7057124299	 1.8529595356	-0.362223
C	 0.0691479098	-1.4056278503	-2.2781082008	 0.068381
C	 0.568548256	-2.74009743	-2.6337271304	-0.175267
O	-0.4947783081	-2.577502375	-1.6946457717	-0.226953
H	 0.6800356615	 2.0352889066	 0.0249816148	 0.121601
H	-1.0136767719	 1.8205200044	-0.4552718291	 0.119887
H	-0.5316958121	 1.5993142025	 1.2350902724	 0.142711
H	-0.8696535531	-0.6372930027	 0.1005080515	 0.12193
H	 1.1729635131	 0.3922660243	-1.9206239169	 0.083053
H	 2.7439277298	-1.4026103543	-0.6673748089	 0.247789
H	-0.5871676822	-0.899375326	-2.989041546	 0.099069
H	 0.2910076671	-3.1855762482	-3.5878914129	 0.119423
H	 1.5064362129	-3.0908291348	-2.2071047432	 0.112203
