17
gdb 15653	3.31668	1.75228	1.25596	2.3656	64.08	-0.2484	0.0132	0.2616	960.7602	0.143067	-401.012413	-401.004518	-401.003574	-401.045754	28.656	
C	-0.2914235768	 1.5318548334	-0.1404465717	-0.40287
C	 0.0458007149	 0.052369033	-0.0258763552	 0.087295
O	 1.0637123555	-0.2723969403	-1.0257823782	-0.230482
C	 2.0993485722	-0.798806196	-0.3427156375	 0.120012
N	 2.0213865225	-0.9561860632	 0.9120676228	-0.293334
C	 0.6851053679	-0.4558856118	 1.305087185	-0.017699
C	 0.8659094678	 0.5508942194	 2.447695869	-0.059087
O	 1.5034588385	-0.0682950455	 3.5432423767	-0.424786
H	 0.5823849872	 2.1588939742	 0.0534803034	 0.133285
H	-0.6547536936	 1.7541441404	-1.1472344828	 0.131663
H	-1.0775153062	 1.8008325444	 0.5716731204	 0.128047
H	-0.833782883	-0.5454439595	-0.2819969074	 0.100074
H	 2.9567171135	-1.0560536991	-0.9556691311	 0.143886
H	 0.1127766453	-1.2984888401	 1.7098734909	 0.097783
H	 1.4378058441	 1.4210675265	 2.0892568346	 0.086154
H	-0.105251265	 0.9113124507	 2.8039813816	 0.104635
H	 2.2628970852	-0.5363798365	 3.1721754791	 0.295425
