19
gdb 8538	3.34266	2.24505	1.62722	1.2317	76.36	-0.2036	0.0935	0.2971	861.2294	0.164771	-327.829152	-327.821623	-327.820679	-327.86046	29.486	
C	-0.7057504262	 1.4258301646	-0.4174650212	-0.332833
N	-0.4632757733	 0.0232292111	-0.1037902468	-0.106615
C	-1.2215259956	-0.6006558694	 1.0214598291	-0.058368
C	-0.112165161	-1.6774230455	 1.2116033426	-0.047014
C	-0.0517003434	-1.475618102	 2.7305995369	-0.305948
C	-0.3117210974	-0.0454147127	 2.2015055523	 0.329943
C	-0.4528591293	 1.1760379872	 3.0748748112	-0.526666
C	 0.5785956914	-0.3139003227	 0.9116724587	-0.05833
H	 0.0937412839	 1.784187246	-1.0752891573	 0.117513
H	-1.6473480695	 1.5064006278	-0.9717606756	 0.117519
H	-0.7627568452	 2.1047466099	 0.4458780134	 0.097885
H	-2.3044945908	-0.7445916204	 1.0090447294	 0.072742
H	-0.0051857179	-2.5791097924	 0.6106772446	 0.078509
H	-0.8547018036	-1.9296742455	 3.3207881231	 0.089897
H	 0.9163897846	-1.6476077968	 3.2128005915	 0.089893
H	 0.455841233	 1.3232257792	 3.6706465135	 0.120821
H	-0.6335014505	 2.0937665317	 2.5116207967	 0.127505
H	-1.2848128409	 1.0459632006	 3.7772086405	 0.12082
H	 1.6434155118	-0.1156940806	 0.7682367073	 0.072726
