18
gdb 1817	3.97959	2.12421	1.96692	2.7471	63.41	-0.235	0.0595	0.2944	768.9943	0.158694	-326.955365	-326.947177	-326.946232	-326.987038	30.629	
C	-0.1212041889	 1.4684280165	-0.0767246595	-0.414569
C	 0.0362551064	-0.0532260272	 0.0606882046	 0.312692
C	 0.806749388	-0.4183233874	 1.3367092283	-0.407149
O	-1.255323486	-0.673754302	 0.0713461626	-0.467714
C	 0.7580507868	-0.6098213453	-1.1624446247	 0.033594
C	 0.5457777005	-2.0031067251	-1.6158080645	-0.249114
N	 0.021824591	-0.8682042015	-2.4054644868	-0.338236
H	 0.8535635872	 1.9639150732	-0.12409295	 0.119361
H	-0.6767484276	 1.7135001027	-0.9859070137	 0.130599
H	-0.6614177425	 1.8813810297	 0.7837299576	 0.100758
H	 0.3120956461	-0.0018608397	 2.2220965795	 0.101616
H	 0.8601030051	-1.5042358868	 1.4479425194	 0.126793
H	 1.8266230018	-0.0208939329	 1.309499545	 0.117352
H	-1.7684337652	-0.279034188	 0.782935504	 0.281209
H	 1.736708954	-0.1590258252	-1.3174791107	 0.082265
H	 1.3587565079	-2.551644358	-2.0833177643	 0.109404
H	-0.1663542957	-2.6074924961	-1.0634593598	 0.12302
H	-0.9713869288	-0.7817023667	-2.196039727	 0.238118
