23
gdb 112622	2.97144	0.92826	0.8459	2.4348	81.68	-0.2549	0.064	0.3189	1496.1711	0.204209	-425.418812	-425.408563	-425.407619	-425.453931	38.767	
C	-0.5614211751	 1.1288967248	-0.0065723703	-0.380447
C	-0.051353497	-0.3082801273	 0.1334893909	-0.186117
C	 0.9912022003	-0.470294959	 1.2393039515	 0.048573
C	 0.4572522372	-0.4105670302	 2.7060409177	-0.310622
C	 0.730843321	-1.9334596965	 2.8608770196	 0.394602
O	 1.4697971394	-2.3521538805	 4.0018346291	-0.493675
C	-0.5203255711	-2.8052375894	 2.8898458944	-0.077471
O	-0.1917701176	-4.176718382	 2.815271577	-0.428579
C	 1.4842663461	-1.9266543366	 1.5007876999	-0.325815
H	 0.2577635482	 1.8151103378	-0.2490592272	 0.113651
H	-1.3108047082	 1.2105004946	-0.7999099312	 0.113491
H	-1.0219667133	 1.4813612146	 0.9227432152	 0.117801
H	-0.8981286594	-0.9821642579	 0.3193013453	 0.098993
H	 0.3899758186	-0.6354226299	-0.8171476783	 0.096923
H	 1.808326671	 0.2340709898	 1.0525125436	 0.065918
H	 1.0828955729	 0.183719563	 3.3777803057	 0.093742
H	-0.5824422516	-0.0930635249	 2.8402712084	 0.098649
H	 2.3644886002	-2.0059660089	 3.9316820562	 0.279514
H	-1.0841907162	-2.5697483272	 3.8079513682	 0.08929
H	-1.1640537832	-2.5796522821	 2.0345547366	 0.105511
H	 0.5030100564	-4.3061993901	 3.4726150163	 0.287319
H	 1.1758517189	-2.6953844899	 0.7871871107	 0.114844
H	 2.5701500527	-1.9953036722	 1.6261093307	 0.083904
