18
gdb 90421	2.16152	1.7728	1.44276	1.5169	71.43	-0.2259	-0.0287	0.1972	1001.3615	0.146729	-439.049641	-439.041208	-439.040264	-439.082728	31.889	
C	 0.6128824273	 1.5601508566	 0.1790206903	-0.421067
C	 0.20234495	 0.0983543666	 0.0734637006	-0.081703
N	 0.6012517616	-0.7230386531	-1.1379829573	-0.151573
C	 1.8856200694	-0.325630541	-1.801715596	-0.184282
C	 2.7302013054	-1.2156960173	-0.8650053335	 0.103026
O	 3.540948983	-0.4310954209	-0.0173026586	-0.421845
C	 1.3702105783	-1.6954255536	-0.2592233003	-0.177434
C	 0.9364612551	-0.9081279708	 0.9797234567	 0.409799
O	 1.1102701286	-1.0270057225	 2.1567224684	-0.30632
H	 1.6985103218	 1.6743559186	 0.2195051557	 0.145317
H	 0.2235489862	 2.1339459496	-0.6683958912	 0.128732
H	 0.1945602775	 1.9843924814	 1.0962528797	 0.136223
H	-0.8849727948	 0.0120030661	 0.1978850689	 0.11427
H	 1.8880741996	-0.6560722214	-2.8440588317	 0.113828
H	 2.1394146314	 0.7358137777	-1.7674410581	 0.121148
H	 3.3095830097	-2.0083120801	-1.3554920598	 0.079906
H	 3.8373085697	-0.9752118308	 0.7212604538	 0.295296
H	 1.1324066602	-2.760917225	-0.3127058975	 0.096678
