18
gdb 110571	3.71682	1.19836	1.05698	2.6975	73.22	-0.2397	0.0683	0.308	1177.0908	0.146398	-438.96746	-438.959252	-438.958308	-439.000374	31.12	
C	 0.0272134073	 1.3216638597	-0.262643211	-0.241078
O	-0.0741928343	 0.0785319173	 0.3964203517	-0.251833
C	-1.3104726317	-0.5388870218	 0.2196911823	 0.164149
C	-1.5787191276	-1.3912643008	-1.0379730749	-0.137332
N	-0.6682266318	-2.532050925	-0.525797263	-0.146352
C	-1.788269889	-3.5465862158	-0.739895756	-0.243205
C	-2.5634198335	-2.3282047486	-0.2486423918	 0.332055
O	-3.903712293	-2.1529869091	 0.0454892059	-0.464645
C	-1.4083826667	-1.9764777012	 0.7219647393	-0.093285
H	 1.0080354845	 1.7371736929	-0.021320397	 0.130981
H	-0.0533379474	 1.2160577271	-1.3546998938	 0.107978
H	-0.7507472921	 2.0246411991	 0.0751235047	 0.103925
H	-2.1417096312	 0.1199424688	 0.5105572567	 0.077819
H	-1.5961187519	-1.1334953408	-2.0982132319	 0.080445
H	-1.9022395099	-3.8539562745	-1.7849657805	 0.097557
H	-1.7211550287	-4.417917427	-0.0807515381	 0.107267
H	-4.4168847857	-2.2937842145	-0.758137244	 0.284712
H	-1.2138234274	-2.3904103559	 1.7115576312	 0.090842
