19
gdb 97217	1.86918	1.77958	0.96046	2.0084	80.5	-0.246	-0.0156	0.2304	1230.3186	0.160546	-419.249658	-419.240938	-419.239994	-419.283362	32.02	
C	 0.199325587	 1.3300151759	 0.5708950593	-0.337916
N	 0.0466031884	-0.0223478472	 0.0771087614	-0.292834
C	-1.0710283499	-0.5801850613	-0.1174102639	 0.381373
C	-1.2016344286	-2.0376176245	-0.5152691809	-0.277251
C	-2.5282357055	-2.4614983587	 0.1321253043	-0.241918
C	-3.3897579754	-1.1920947538	 0.0423520191	-0.151703
N	-2.4026680819	-0.0967570135	 0.0274588506	-0.120035
C	-2.8639443542	 1.1919018514	-0.1195200767	 0.136115
O	-4.0427277569	 1.470886532	-0.1088447992	-0.321761
H	 1.1741325992	 1.4115736588	 1.0609985996	 0.126257
H	 0.1954900523	 2.0594966234	-0.2500583354	 0.13049
H	-0.5731618637	 1.6302113489	 1.2936852469	 0.115959
H	-1.2673356094	-2.1048570277	-1.608884116	 0.123476
H	-0.3311461249	-2.6080943404	-0.1934410681	 0.131004
H	-3.0019743636	-3.3121927577	-0.3607843708	 0.115145
H	-2.3633267055	-2.7305461199	 1.1802193803	 0.119529
H	-3.9855573166	-1.1528038825	-0.876330841	 0.127404
H	-4.0782953212	-1.0668271798	 0.8805241743	 0.135203
H	-2.0702060496	 1.9357644665	-0.2697637639	 0.101463
