21
gdb 76304	2.2095	1.43257	0.99214	4.3692	84.06	-0.2364	0.019	0.2554	1264.1777	0.181196	-383.271706	-383.261739	-383.260795	-383.306316	36.48	
C	-0.1912703292	 1.5528600164	 0.1445450825	-0.403972
C	-0.1062244118	 0.0387853993	 0.0100185763	-0.048744
C	 0.7469409556	-0.5194982928	-1.1738687081	 0.068641
C	 1.020466478	 0.3188118891	-2.4095186356	-0.410738
N	 1.8799022948	-0.679547315	-0.2355487085	-0.072594
C	 2.7776284199	-1.8055932606	-0.3781660541	-0.338637
C	 0.9653027229	-0.6568560075	 0.914916783	-0.122858
C	 1.4589630313	 0.0362294685	 2.1052593465	 0.296794
N	 1.8348483462	 0.5863050894	 3.0499046156	-0.33492
H	 0.7973352007	 2.0175988062	 0.1011048071	 0.142049
H	-0.8059286806	 1.9769630912	-0.6555658227	 0.118615
H	-0.6465564881	 1.8292431331	 1.1003224548	 0.1328
H	-1.0979190299	-0.4086001749	 0.0977045202	 0.084832
H	 0.3425000324	-1.5017444829	-1.4791329239	 0.05897
H	 1.4048032937	 1.3061547156	-2.143520666	 0.12917
H	 1.762607437	-0.1722590771	-3.0481565045	 0.120833
H	 0.1077965795	 0.4433868217	-3.0020489209	 0.118582
H	 3.3307345756	-1.7179117462	-1.318267858	 0.129133
H	 3.5057375989	-1.8042200505	 0.4391394696	 0.137228
H	 2.2526294154	-2.7792872384	-0.3749366551	 0.095342
H	 0.6266889979	-1.6617737245	 1.2206887218	 0.099477
