19
gdb 91372	3.34636	1.24262	1.02927	2.4643	77.29	-0.2294	0.0126	0.2421	1203.4813	0.160522	-419.190873	-419.182559	-419.181614	-419.223757	31.716	
C	 0.0506733469	 1.5316583526	 0.19115377	-0.387126
C	 0.1217802656	 0.0169676817	 0.0474617657	 0.052443
C	 0.9088587735	-0.4757978045	-1.2208155238	-0.209267
N	 1.5084898193	-1.7149999315	-0.708471917	-0.086457
C	 2.9488355738	-2.1038191693	-0.661877579	-0.221455
C	 2.7680482665	-2.3543669416	 0.8923881056	 0.045815
O	 3.7091649615	-1.8759569096	 1.7995549299	-0.419187
C	 1.5007880736	-1.544218471	 0.6768273995	 0.278862
N	 0.8265498333	-0.6110721772	 1.2099301473	-0.350817
H	 1.0560089008	 1.9595143891	 0.2636087261	 0.112368
H	-0.4540309316	 1.9821085218	-0.6703510168	 0.111997
H	-0.5000796816	 1.8052673992	 1.094824447	 0.130889
H	-0.8989540206	-0.3881945715	 0.0125422787	 0.091195
H	 0.2626453043	-0.6477949357	-2.084661833	 0.114571
H	 1.6884567945	 0.2491795243	-1.503724145	 0.094617
H	 3.2132473149	-2.9520725802	-1.2966646973	 0.117018
H	 3.6295352754	-1.2616016391	-0.8406522718	 0.107273
H	 2.5951829906	-3.4114329278	 1.1081386923	 0.123642
H	 3.5597278395	-0.9293280996	 1.9067845116	 0.29362
