17
gdb 57224	2.96249	0.81931	0.74572	0.9281	97.3	-0.2451	-0.0169	0.2283	1577.0678	0.131317	-347.468588	-347.45832	-347.457376	-347.503538	37.874	
C	-0.0240693964	 1.5441305318	-0.0000212947	-0.39354
C	-0.0078912825	-0.0093125062	-0.0003214828	-0.19712
C	 0.7498971935	-0.5278913008	 1.2527816764	-0.39354
C	-1.3899252655	-0.5137130188	 0.0192458126	 0.36918
C	-2.5229772334	-0.9100635273	 0.0637150072	-0.492376
C	 0.6685846769	-0.4895312485	-1.2124294839	 0.598344
C	 1.2504322905	-0.8704904873	-2.2023446234	-0.407555
C	 1.9025652405	-1.3002503311	-3.3168466002	 0.309183
C	 2.4821988422	-1.680964364	-4.3053091363	-0.574228
H	 1.0003284991	 1.9255621357	-0.0144820688	 0.127505
H	-0.5537981592	 1.9239887214	-0.8756615742	 0.138794
H	-0.5283348361	 1.9053758834	 0.9002081796	 0.127864
H	 0.2482486073	-0.1736892079	 2.1572612097	 0.12786
H	 0.7697221297	-1.6192504211	 1.2666798329	 0.138792
H	 1.7780290093	-0.1564549399	 1.2443769816	 0.127504
H	-3.5226175007	-1.2679325407	 0.0893397486	 0.201542
H	 2.9909857549	-2.0162203889	-5.1746723143	 0.191793
