22
gdb 101587	3.37534	0.78226	0.67197	3.5505	80.63	-0.2339	0.0385	0.2724	1738.0991	0.192463	-441.527374	-441.51628	-441.515336	-441.564441	39.094	
C	-0.3534091963	 1.5115718143	-0.7062779204	-0.384366
C	-0.2364368025	 0.2077794855	 0.086741328	-0.182084
C	-1.4617940949	-0.701399278	-0.055439928	 0.098396
O	-1.7114124857	-1.012258281	-1.4382176753	-0.423596
C	-1.3406100874	-1.97332957	 0.796552078	-0.314272
C	-2.5965881426	-2.8429462293	 0.943151059	 0.377625
O	-2.834856483	-3.4259925232	 1.9882022779	-0.382017
N	-3.3808450122	-2.9253121879	-0.1654557428	-0.30273
C	-4.5948477508	-3.7145254294	-0.1982244021	-0.332252
H	 0.555692498	 2.1123831373	-0.611783245	 0.114704
H	-0.5241269875	 1.3091563255	-1.7667896431	 0.125718
H	-1.1929853514	 2.1156922177	-0.3456220395	 0.119079
H	 0.6543026548	-0.3521632794	-0.2352306102	 0.088592
H	-0.0875355897	 0.4250981548	 1.1510210156	 0.108477
H	-2.3556771063	-0.145001705	 0.2520960205	 0.102304
H	-0.9264599465	-1.4564605	-1.7812870559	 0.28274
H	-0.5356703252	-2.6014859634	 0.387495248	 0.109772
H	-1.0410721094	-1.7146386197	 1.8151526461	 0.130804
H	-3.0949235317	-2.3939354774	-0.9768389426	 0.255878
H	-5.470946123	-3.0910878665	-0.4108802359	 0.121595
H	-4.5393182823	-4.5024992647	-0.9584456294	 0.119329
H	-4.7143782645	-4.1754061403	 0.7829436272	 0.166299
