17
gdb 72326	3.13535	1.79952	1.38846	1.0656	73.38	-0.2162	-0.0223	0.1939	931.5551	0.137055	-421.761024	-421.754139	-421.753194	-421.791776	28.571	
O	-0.1077453336	 1.4033303368	-0.053382986	-0.468771
C	-0.050906421	 0.0127226086	-0.1145134011	 0.343341
C	 0.7652016074	-0.6383475886	-1.2382729765	-0.332253
C	 0.227480781	-2.0521163073	-1.1830428315	-0.079903
C	-0.8756432865	-2.1248685811	-0.4211624507	 0.0722
C	-0.8870274605	-2.9559741032	 0.8363756279	-0.124689
O	-0.1853269437	-2.01110928	 1.7021625768	-0.274909
C	-0.4879685553	-0.6989232484	 1.2354475843	 0.038706
C	-1.3378968625	-0.74291742	 0.0206985183	-0.205821
H	 0.7383281301	 1.7244301704	 0.2774652294	 0.287087
H	 0.6077943526	-0.0911016468	-2.1781992504	 0.116837
H	 1.8479760412	-0.6507109425	-1.0531460506	 0.1087
H	 0.8485068421	-2.9094352175	-1.4238189982	 0.101595
H	-1.878120922	-3.1699046437	 1.2534507523	 0.102705
H	-0.2942707682	-3.8707907897	 0.7822541495	 0.115379
H	-0.6509047989	 0.0030902137	 2.0469385602	 0.103377
H	-2.3453218322	-0.3630183208	-0.1091780139	 0.09642
