18
gdb 81610	4.64945	0.93656	0.89149	1.5007	78.8	-0.2225	0.0459	0.2684	1325.0013	0.146136	-401.820108	-401.81165	-401.810706	-401.853397	32.724	
O	-0.0292912457	 1.4176910966	-0.3763493196	-0.433428
C	-0.172055998	 0.0423137753	-0.1720912629	 0.160158
C	-0.2600014737	-0.540330132	 1.2810947889	-0.076148
C	-1.6081887544	 0.2192723058	 1.4389536825	-0.254924
C	-1.6174353487	-0.4667317438	 0.0409926747	-0.041587
N	-0.9484641007	-1.710753769	 0.6046449064	-0.117182
C	-1.7505189919	-2.6108026309	 1.4425106803	-0.315663
C	-2.6803916744	-3.3851225601	 0.6251250514	 0.32541
C	-3.4625883707	-4.0069604868	-0.0420084871	-0.451998
H	 0.9101550205	 1.6235891711	-0.3862719222	 0.290162
H	 0.4215501622	-0.5687689756	-0.8587745074	 0.084793
H	 0.5406465613	-0.690601545	 2.0086107427	 0.076276
H	-2.3114479964	-0.148363843	 2.1854020606	 0.099872
H	-1.5585769214	 1.3081098233	 1.4463117632	 0.117601
H	-2.422059375	-0.5343246556	-0.6913225201	 0.093148
H	-1.0468513625	-3.291679672	 1.9387345695	 0.132482
H	-2.3209138182	-2.1198305975	 2.2471645951	 0.114456
H	-4.1475172623	-4.564939821	-0.6309280862	 0.196571
