19
gdb 83708	2.4508	1.68319	1.22637	3.1573	74.11	-0.239	-0.0194	0.2196	1062.9397	0.159705	-423.043536	-423.035381	-423.034437	-423.076692	30.829	
C	-0.6257197069	 1.4554551414	 0.1172593623	-0.407775
C	 0.0135319285	 0.0736210178	 0.0113178726	-0.099073
C	 0.7842606264	-0.2790061745	-1.2712167579	-0.099808
C	 1.8741041303	 0.7040974531	-1.7509905133	-0.082593
O	 2.9312357171	-0.134381752	-1.2384845504	-0.291094
C	 1.9996156347	-1.1649296318	-0.8426408331	 0.116809
C	 1.9559617992	-1.3368105013	 0.6701774683	-0.333387
C	 0.9954603842	-0.2449536414	 1.153919562	 0.3803
O	 0.9920271136	 0.2739160906	 2.2391517701	-0.307971
H	 0.1096148126	 2.2514150885	-0.0303757156	 0.126842
H	-1.4204484473	 1.5837004938	-0.6234277608	 0.113136
H	-1.0512160079	 1.5888343368	 1.1149804369	 0.140977
H	-0.7799772851	-0.6832409727	 0.1238136945	 0.105137
H	 0.14042203	-0.6669865258	-2.0606211478	 0.081601
H	 1.9366676362	 0.8166160521	-2.8405295504	 0.103522
H	 1.885964159	 1.7001301443	-1.2937455834	 0.109842
H	 2.1721670233	-2.0953589671	-1.3930746291	 0.077901
H	 1.5359191082	-2.3126063735	 0.948570287	 0.123444
H	 2.9389384939	-1.2457826783	 1.1363719281	 0.142191
