23
gdb 80614	2.05654	1.8367	1.43408	1.2901	84.29	-0.2515	0.0724	0.3239	1074.425	0.206397	-388.287053	-388.27832	-388.277376	-388.319356	35.991	
C	-0.1413447403	 1.560207124	-0.1030004788	-0.420512
C	 0.0622697795	 0.0468787342	-0.0292583194	-0.014973
C	 0.9509017973	-0.5419000698	-1.1504951959	-0.021685
C	 1.1703797782	-2.002155639	-0.6643245927	-0.239761
C	 1.9618790391	-1.2887793607	 0.4699445856	-0.028392
C	 2.3881549504	-0.2652263677	-0.6204793829	-0.239295
C	 0.8394849335	-0.5431533841	 1.2227744531	 0.408667
C	 1.3489178665	 0.4687394493	 2.2486819699	-0.459525
O	 0.0616776545	-1.5338823393	 1.9015792343	-0.4863
H	 0.8044929548	 2.1096868386	-0.1332505106	 0.114604
H	-0.7004616526	 1.8219761756	-1.0079715683	 0.112612
H	-0.7135062389	 1.9358372806	 0.7520228971	 0.10773
H	-0.9217523586	-0.4357475703	-0.0487580305	 0.067409
H	 0.660734942	-0.3121987436	-2.1774885897	 0.051962
H	 0.299427898	-2.5939349719	-0.3790143001	 0.105969
H	 1.8243900078	-2.5700459045	-1.3301298081	 0.088767
H	 2.6855747486	-1.8129705716	 1.095476463	 0.057735
H	 3.1608647935	-0.6680315498	-1.2793467345	 0.096648
H	 2.657800085	 0.7510953279	-0.3216952009	 0.086148
H	 2.0158932607	 1.2162766953	 1.8123260475	 0.117038
H	 0.5174753144	 1.0083731976	 2.7181549318	 0.103239
H	 1.8922384745	-0.059879535	 3.0376133859	 0.121384
H	-0.6421809477	-1.0805426958	 2.3771274942	 0.270529
