19
gdb 64511	4.23768	1.10987	1.08993	1.5369	75.55	-0.2258	0.0604	0.2861	1185.2598	0.159031	-422.95797	-422.949909	-422.948965	-422.990579	31.768	
O	 0.3755237171	 1.1143972412	-0.6603203685	-0.484607
C	 0.0801243825	-0.1928790128	-0.2674532901	 0.41742
C	 1.2206369525	-0.8697920441	 0.4265368044	-0.044805
C	 2.6385155417	-0.6269852043	-0.025649711	-0.272419
C	 2.1621249642	-0.0721932348	 1.2944790657	-0.270646
C	-1.3179101048	-0.5672683855	 0.222193737	-0.195855
C	-2.3385066808	 0.2244739447	-0.5804706609	-0.117149
O	-1.711009059	-0.1646710662	-1.843055092	-0.309253
C	-0.8041275928	-1.027747131	-1.1385558243	-0.003132
H	-0.0997013862	 1.2551001067	-1.4911313212	 0.295215
H	 0.982940799	-1.8739975576	 0.7662397829	 0.080719
H	 3.3268463992	-1.4647724961	-0.0212668716	 0.10618
H	 2.7815175924	 0.0811568991	-0.8329568359	 0.123659
H	 1.9960330597	 0.9969450329	 1.3491377644	 0.131555
H	 2.5205661815	-0.5272498519	 2.2110850467	 0.106404
H	-1.5060739782	-1.1167391715	 1.1351809443	 0.100028
H	-3.3561596277	-0.1755604022	-0.5313425085	 0.116759
H	-2.3516802049	 1.3112214602	-0.4439395619	 0.115166
H	-0.5801613252	-1.9943319967	-1.5774382697	 0.10476
