16
gdb 57036	3.21956	1.08614	1.00228	3.8897	71.64	-0.2535	-0.0359	0.2176	1213.3475	0.122251	-437.831745	-437.822906	-437.821962	-437.865784	32.411	
O	 0.0792295225	 1.4887820124	 0.0274440325	-0.419661
C	 0.0270100338	 0.0785918114	-0.0435324863	-0.061128
C	 0.6678850403	-0.4468142731	-1.2569774093	 0.310949
C	 1.2231913927	-0.8799344321	-2.2312824283	-0.44775
C	 0.6779319173	-0.5236312494	 1.2177286864	-0.133828
N	 1.9299605604	 0.182786632	 1.6046898479	-0.333791
C	 1.4638215981	 0.4353956828	 2.9968520132	-0.287235
C	 0.0814063763	-0.0880695404	 2.573969545	 0.405383
O	-0.9995923063	-0.1435738867	 3.0713858538	-0.280517
H	 0.995769423	 1.6878517853	 0.2752062128	 0.288728
H	-1.0342863053	-0.197607334	-0.0403642776	 0.134884
H	 1.6939275652	-1.2534316637	-3.1071516371	 0.199961
H	 0.7552002966	-1.6149218661	 1.1315805002	 0.111181
H	 2.7716870623	-0.3742336337	 1.531260674	 0.238174
H	 1.9249906664	-0.1906286306	 3.7722079113	 0.131913
H	 1.5125726968	 1.483179226	 3.3103839415	 0.142735
