17
gdb 51015	2.3076	1.10935	0.83895	3.5031	69.99	-0.2569	-0.0336	0.2233	1353.3446	0.132426	-458.973627	-458.96428	-458.963336	-459.00919	32.565	
O	-0.7976451918	 1.899624964	 1.4506353845	-0.234617
C	-0.424041004	 1.7533039361	 0.3160424856	 0.16255
C	 1.0401389174	 1.753974405	-0.0963472435	-0.345764
C	 1.305130129	 2.6708116762	-1.2769987458	 0.394251
C	 1.3655089913	 4.1554197977	-1.0848502444	-0.303171
C	 2.6222994147	 3.3867102651	-1.4327752152	-0.327641
O	 0.6265267616	 2.2624886481	-2.4599734004	-0.231316
C	 1.2299075394	 1.3229747039	-3.2264388037	 0.154542
O	 0.7152915248	 0.8700240905	-4.2025127368	-0.265556
H	-1.143542298	 1.6050537185	-0.5171023381	 0.103948
H	 1.6391853725	 2.0507448376	 0.7682780808	 0.131249
H	 1.3200321602	 0.7243186592	-0.3620014389	 0.127749
H	 0.922335968	 4.7652960982	-1.8628646734	 0.141982
H	 1.2502851018	 4.5396313692	-0.0777766786	 0.135123
H	 3.3774317948	 3.2395380491	-0.6688838304	 0.13107
H	 3.0130579665	 3.5059091069	-2.436879693	 0.135222
H	 2.2325670619	 1.0443979748	-2.8536555386	 0.090377
