23
gdb 57843	2.35053	1.18723	1.05693	2.5041	82.1	-0.2364	-0.012	0.2245	1330.2538	0.201135	-425.459489	-425.447952	-425.447008	-425.496287	42.173	
C	 0.0745666195	 1.1980734314	 0.546980275	-0.398118
C	-0.0963019027	-0.2187768841	-0.046832731	-0.055109
C	-1.5679795038	-0.5437317951	-0.3149616359	-0.393723
C	 0.7261403247	-0.3168564862	-1.3280797007	 0.372773
O	 0.2263748529	-0.2077633863	-2.4260753803	-0.34174
C	 2.2491936698	-0.5747076599	-1.2330993443	 0.25634
C	 2.5158307333	-1.9759040715	-1.8099039466	-0.409582
C	 2.9948836229	 0.5046018248	-2.0296869974	-0.413791
O	 2.6171550613	-0.5301279484	 0.1461714032	-0.463374
H	 1.1216764538	 1.407700944	 0.7732313543	 0.13572
H	-0.2982161907	 1.9563514071	-0.1499377684	 0.121944
H	-0.500128278	 1.2818404681	 1.4745706945	 0.116301
H	 0.3261757093	-0.9269051423	 0.6731043502	 0.0997
H	-1.9846614594	 0.1363656394	-1.0622038524	 0.13155
H	-1.6903727123	-1.5625552969	-0.694351931	 0.113713
H	-2.1502256595	-0.4494228142	 0.6069634335	 0.105078
H	 2.1552636945	-2.0403817592	-2.8389782322	 0.142746
H	 3.591533457	-2.1870566916	-1.8024978951	 0.104193
H	 2.0131408614	-2.7408883456	-1.2107142596	 0.124199
H	 2.8572981726	 1.4855882392	-1.5663871603	 0.125103
H	 4.068154628	 0.2833382284	-2.0565866481	 0.101329
H	 2.6198675964	 0.5453440455	-3.0542981785	 0.144452
H	 3.560925489	-0.7107782266	 0.2034808113	 0.280297
