16
gdb 3189	5.12879	2.02727	1.87616	1.5645	60.68	-0.2345	0.0602	0.2947	741.0097	0.13684	-325.726991	-325.719978	-325.719034	-325.757821	26.657	
O	 0.1261773868	 1.2373512061	 0.626916498	-0.465068
C	 0.1122463497	-0.104271416	 0.2006586989	 0.382312
C	 1.08824379	-0.5069153277	-0.8754097376	-0.332147
C	 1.3241849999	-0.9128748539	 0.5660878453	-0.288376
C	-1.2410648111	-0.7554208399	 0.2620728822	-0.025141
C	-2.1847182351	-0.4185667239	 1.3530143788	-0.244394
N	-2.4570580585	 0.0171682251	-0.0337387214	-0.331889
H	 0.0230125432	 1.79727693	-0.1492239934	 0.288495
H	 0.7860242489	-1.2657982294	-1.5891670164	 0.12064
H	 1.7282351256	 0.269354849	-1.2817823705	 0.113018
H	 2.1030817155	-0.3913818377	 1.1094423766	 0.12489
H	 1.1869206874	-1.9526437614	 0.8422536275	 0.118038
H	-1.2574249844	-1.7652212648	-0.143698302	 0.086025
H	-2.8647869549	-1.1721224406	 1.7394336427	 0.113505
H	-1.8670405123	 0.3341094086	 2.0679987368	 0.124283
H	-2.2044864408	 1.0013708567	-0.1024399754	 0.215808
