16
gdb 18097	4.59521	1.81381	1.34428	0.0003	66.73	-0.2286	0.0191	0.2477	883.7169	0.132332	-383.731885	-383.725054	-383.724109	-383.763254	24.757	
C	-0.0482315483	 1.4875434697	 0.1084635124	-0.183214
O	 1.2728970907	 1.9034354269	-0.2657163388	-0.274598
C	 2.0992356663	 0.7748196794	-0.5846963049	-0.183214
C	 1.1997429353	-0.4014882244	-0.3843155961	 0.203168
C	-0.0027383496	-0.0023960535	 0.0038212677	 0.203168
C	-0.9022633795	-1.1786974187	 0.2040956771	-0.183214
O	-0.0758770526	-2.3073228394	-0.1147266553	-0.274598
C	 1.245204386	-1.8914212728	-0.4890625454	-0.183214
H	-0.2733280786	 1.8442761529	 1.1255607746	 0.109469
H	-0.7854752025	 1.9475267413	-0.567784106	 0.109461
H	 2.4681557936	 0.8676775281	-1.6179915012	 0.109461
H	 2.9805710939	 0.764337767	 0.0752669507	 0.109469
H	-1.2713447208	-1.2715690394	 1.2373277785	 0.109468
H	-1.7834986513	-1.1681893321	-0.4560074614	 0.109462
H	 1.470177282	-2.2480542174	-1.5062264686	 0.109462
H	 1.9825109236	-2.3514923041	 0.1870504068	 0.109468
