23
gdb 101431	2.57663	1.07136	0.83825	1.0373	81.63	-0.2416	0.067	0.3086	1447.9085	0.204267	-425.406582	-425.396125	-425.395181	-425.442425	38.099	
C	-1.4038290844	 0.5086331332	-1.3482656352	-0.417407
C	-0.0826611089	 0.5083323915	-0.5655547476	-0.018137
C	-0.2611052895	-0.0717311829	 0.8472003914	-0.068448
O	-1.1332783375	 0.6917977464	 1.6640383035	-0.424378
C	 0.9749348311	-0.2818348041	-1.3282173442	 0.14648
O	 1.1201077945	 0.1492886672	-2.7039140223	-0.298044
C	 2.5573055242	 0.0983161479	-2.6095043519	-0.07915
C	 2.5020014198	-0.0837872772	-1.0769673972	-0.052685
C	 2.9540664977	 1.1304583524	-0.2736637129	-0.410576
H	-1.2473049767	 0.8875719197	-2.3603400517	 0.145744
H	-1.8164564227	-0.5050371111	-1.428412709	 0.109611
H	-2.150666652	 1.1460627955	-0.8634660597	 0.103974
H	 0.2539331288	 1.5460709427	-0.459263893	 0.081724
H	-0.6004767801	-1.1188679943	 0.7723603341	 0.084438
H	 0.6969072992	-0.0830214317	 1.3772702298	 0.110158
H	-2.0187891408	 0.62450662	 1.2947743542	 0.284572
H	 0.7050275313	-1.3513345144	-1.3048853387	 0.062081
H	 2.9725173323	-0.7553111444	-3.1622591126	 0.094624
H	 3.0250221691	 1.0209602436	-2.974294036	 0.100268
H	 3.0031115961	-0.9832180956	-0.7099743294	 0.075123
H	 2.4947008645	 2.0522539917	-0.6440118449	 0.128819
H	 2.7107599903	 1.0347532689	 0.7890694177	 0.124577
H	 4.0402147837	 1.248791145	-0.3533445647	 0.116631
