18
gdb 126648	6.4902	0.69467	0.63759	5.6088	78.13	-0.2187	-0.0095	0.2092	1730.3562	0.146562	-435.24945	-435.240067	-435.239123	-435.285064	32.962	
C	 0.0005847618	 1.553253774	 0.0124470401	-0.382194
C	 0.1571194401	 0.0308909409	 0.0189498854	-0.194834
C	 0.5587396573	-0.5148151564	-1.3502661736	-0.125746
N	 0.6901905031	-1.9681451038	-1.3091371196	-0.402252
C	 1.312623477	-2.6734024227	-2.2828828412	 0.516891
C	 1.3565624457	-4.0361969591	-2.5332805154	-0.24943
N	 2.172636344	-4.2002091426	-3.6070395113	-0.074195
N	 2.6326866857	-3.1375057884	-4.0552413579	-0.049465
O	 2.0549242402	-2.0359256266	-3.1623921024	-0.251017
H	 0.9392815177	 2.0462151102	-0.2614606126	 0.126118
H	-0.7639008787	 1.8719860992	-0.7041073628	 0.122802
H	-0.2933840049	 1.9210142986	 0.9993198305	 0.122611
H	 0.909539254	-0.271320502	 0.7564782251	 0.115294
H	-0.789318822	-0.4333031732	 0.3299113625	 0.097319
H	-0.1748275315	-0.2048054634	-2.110236916	 0.112237
H	 1.5243685815	-0.1032198878	-1.6566669259	 0.14248
H	-0.0120439154	-2.4701761417	-0.7885457011	 0.253606
H	 0.8802638747	-4.8575236851	-2.0279983138	 0.119774
