13
gdb 3222	3.50209	3.39957	2.30234	2.1889	48.73	-0.2449	0.0556	0.3005	597.8613	0.101073	-381.536295	-381.52983	-381.528886	-381.567198	23.67	
O	 0.135727494	 1.3697137458	 0.2213757166	-0.424264
C	 0.0596732606	-0.0146350186	 0.0597259124	 0.085316
C	-1.3393649868	-0.6331520129	-0.0075909144	-0.019729
O	-1.9472015497	-0.0480397636	-1.1789244659	-0.275041
C	-1.09329579	-1.199982525	-1.3453650583	-0.019705
C	 0.327459984	-0.6314922294	-1.3970466756	 0.085213
O	 0.6251906259	 0.2407458635	-2.4453614326	-0.424301
H	-0.5528574523	 1.7554078532	-0.333325665	 0.285343
H	 0.706515756	-0.4707476432	 0.8129973569	 0.097796
H	-2.0099162357	-0.9598761823	 0.7783679816	 0.113115
H	-1.5300860768	-2.0650871476	-1.830052455	 0.113116
H	 1.108365753	-1.3952870502	-1.3714318036	 0.097775
H	-0.1445656322	 0.8099615305	-2.5640804572	 0.285367
