18
gdb 41766	2.60405	2.14925	1.6128	0.5921	74.64	-0.2207	0.0114	0.2321	886.883	0.151117	-401.92193	-401.915332	-401.914388	-401.952928	26.98	
C	 0.1435434271	 1.6527983053	-0.0007082933	-0.106468
O	 1.3713749255	 1.9568849329	-0.6584151253	-0.265522
C	 2.2560283427	 0.8240753791	-0.5129246312	 0.031561
C	 3.1303451045	 1.0173678557	 0.7024143744	-0.078066
C	 2.737318601	 0.6063410562	 1.9045341867	-0.043773
C	 1.4603361159	-0.1533489742	 2.1345305236	-0.217384
N	 0.8042957744	-0.6826867234	 0.9374175865	-0.102634
C	 0.0151414829	 0.1338438431	 0.0150464122	-0.057129
C	 1.346246746	-0.3981416588	-0.3858425667	-0.070183
H	 0.1245854906	 2.0846570652	 1.0119222171	 0.096584
H	-0.6704480689	 2.1076933135	-0.5744288255	 0.110987
H	 2.8543579989	 0.7786503775	-1.4272020317	 0.083468
H	 4.0551541289	 1.5710226395	 0.5745252439	 0.095077
H	 3.3457637025	 0.7955433174	 2.7859168102	 0.093939
H	 1.6713182098	-1.0071831852	 2.7937654098	 0.118555
H	 0.7463435042	 0.4709124326	 2.6894720092	 0.120089
H	-0.9263617345	-0.31061077	-0.2949286385	 0.09645
H	 1.5001659088	-1.2442952865	-1.0491161512	 0.094449
