21
gdb 96495	2.45568	1.38403	0.99693	2.2171	79.82	-0.2455	0.003	0.2485	1223.676	0.184002	-424.215006	-424.206386	-424.205442	-424.247829	33.931	
O	-0.0709893947	 1.4974328025	 0.0565184269	-0.435816
C	 0.0647142812	 0.0785304167	 0.0480343045	 0.132412
C	-1.3637867567	-0.4553999352	 0.2258085017	-0.212491
C	-1.5215565092	-1.9606704868	 0.5171049356	-0.069687
O	-1.8864775266	-2.7830822785	-0.5812578988	-0.254684
C	-1.0776318138	-2.7004501063	-1.7525241099	-0.107483
C	 0.3931371988	-2.8558124458	-1.4811313462	-0.072897
C	 1.2070542267	-1.8266899764	-1.2402165086	-0.053975
C	 0.797677703	-0.3735132286	-1.2360753406	-0.277509
H	 0.8059740704	 1.883141148	-0.0356754851	 0.279104
H	 0.6598270316	-0.2493044617	 0.9176258207	 0.065027
H	-1.775801528	 0.1005593345	 1.0746040832	 0.113046
H	-1.9755884575	-0.1766316949	-0.6400965553	 0.112977
H	-0.6101022234	-2.3399507303	 1.0025597906	 0.088272
H	-2.3453869744	-2.1037947129	 1.2222432488	 0.107164
H	-1.4441016281	-3.5052602161	-2.3965498918	 0.107225
H	-1.2667574103	-1.7524698486	-2.2764342293	 0.090834
H	 0.7796251553	-3.8698931221	-1.415761996	 0.092029
H	 2.2460819541	-2.0322186707	-0.9903751731	 0.091948
H	 0.1584900907	-0.1308489645	-2.0924833556	 0.119164
H	 1.6972892408	 0.2463805479	-1.3383136016	 0.085339
