17
gdb 89977	3.47263	1.15874	1.01688	1.8571	68.86	-0.2498	-0.0405	0.2093	1176.2225	0.134361	-458.933329	-458.924589	-458.923645	-458.967467	31.085	
O	 0.9042520018	 0.4833790397	 0.8639870658	-0.433892
C	 0.1014202217	-0.325976343	 0.0642246647	 0.077586
C	-1.4528600915	-0.1001515151	-0.0533268407	-0.371529
C	-1.3736099776	-0.3939172816	-1.5747519357	 0.170798
C	-1.8725576924	-1.7292554802	-2.1829628103	-0.122181
O	-2.5743411368	-1.0412033654	-3.2302932043	-0.267931
C	-2.2182127456	 0.2466726439	-2.6862511766	-0.136551
C	 0.1259328297	-0.1132094965	-1.4520385983	 0.285125
O	 0.9285170217	 0.4140609354	-2.1721104654	-0.310774
H	 1.2734393637	 1.1750752232	 0.3014169695	 0.296823
H	 0.2897068659	-1.3786610972	 0.3144994456	 0.116041
H	-2.0826424083	-0.7604103791	 0.5451886696	 0.118323
H	-1.7126064344	 0.942931114	 0.1468641697	 0.122276
H	-1.1030840475	-2.4063620352	-2.5733690227	 0.115809
H	-2.550538077	-2.290548488	-1.5256247623	 0.106922
H	-3.0950208964	 0.807565778	-2.3384772178	 0.107738
H	-1.647332237	 0.853966897	-3.3985870606	 0.125418
