19
gdb 89691	3.64154	1.21019	1.10894	4.2256	80.3	-0.2527	0.0124	0.2651	1153.8093	0.161649	-382.064767	-382.056923	-382.055979	-382.096879	31.063	
C	-0.081167785	 1.5209083171	 0.0376775623	-0.415904
C	 0.0452533885	 0.0002238637	 0.0418245132	 0.051608
C	 0.9763164058	-0.5779302744	-1.0794152261	-0.257195
C	 1.9891058911	-1.308739843	-0.1661880083	 0.228068
C	 1.0710328607	-2.0425059513	 0.8552014685	-0.269699
C	 0.8123424328	-0.570193014	 1.2567102725	-0.022715
N	 2.2390348552	-0.2252830552	 0.869401403	-0.347902
C	 3.13103339	-1.9509073463	-0.7813384314	 0.163872
N	 4.038650239	-2.4801261886	-1.2637134951	-0.338764
H	 0.9023982135	 1.9840859002	 0.153490327	 0.141325
H	-0.520052183	 1.875562557	-0.9005938006	 0.116241
H	-0.7236529898	 1.8652879174	 0.8555105851	 0.110914
H	-0.9492693054	-0.4544605922	-0.0120396337	 0.075203
H	 0.4710344034	-1.2634783459	-1.762507957	 0.11385
H	 1.4698846136	 0.204086415	-1.6590505481	 0.125972
H	 0.2481899644	-2.6545968995	 0.4730094453	 0.106263
H	 1.6496188997	-2.5919575188	 1.6007747053	 0.114484
H	 0.4797766832	-0.2801605157	 2.2529032665	 0.079372
H	 2.8562414222	-0.6241651355	 1.5790780516	 0.225007
