23
gdb 116299	2.18508	1.29636	0.88301	2.2271	82.79	-0.2425	0.0807	0.3232	1409.3643	0.205236	-425.427704	-425.417685	-425.416741	-425.463457	36.285	
C	-0.1739719053	 1.6044991754	 0.0901184678	-0.388357
C	-0.0511163301	 0.082907349	-0.0285037375	-0.18435
C	 0.614535579	-0.5453363844	 1.1864478974	 0.109545
O	-0.1791769674	-0.3124105315	 2.3460454548	-0.254042
C	 0.3264346005	-1.1766880667	 3.3464955476	-0.07736
C	 0.6506080249	-2.5015434975	 2.6262409504	-0.258729
C	 0.8284596859	-2.0781124295	 1.1408575606	 0.107039
O	-0.1324213184	-2.6673308051	 0.2849262373	-0.237988
C	 0.1293873508	-4.0158613054	-0.0204469741	-0.234719
H	 0.8105196624	 2.0781843693	 0.1795529043	 0.106222
H	-0.6681900025	 2.0276085425	-0.7897694331	 0.106677
H	-0.7563201307	 1.876884641	 0.9741697615	 0.134296
H	-1.0355808546	-0.3750430675	-0.1548864957	 0.118567
H	 0.5337393482	-0.1850419763	-0.9162776194	 0.093345
H	 1.6088906931	-0.0846682033	 1.3407778631	 0.054101
H	 1.236477453	-0.7494590253	 3.800591027	 0.084983
H	-0.4316483302	-1.2741247556	 4.1275302519	 0.107739
H	 1.5310118972	-2.9966658945	 3.0425964712	 0.09935
H	-0.1934716413	-3.1929739218	 2.689529112	 0.118639
H	 1.8354709227	-2.3142322741	 0.7654313983	 0.059963
H	-0.642544421	-4.3456416638	-0.7201997428	 0.127949
H	 1.116539566	-4.139761655	-0.4943045985	 0.102698
H	 0.094873738	-4.6629304099	 0.869298956	 0.104433
