23
gdb 81371	2.33571	1.55708	1.23908	1.4486	84.59	-0.2323	0.0835	0.3157	1157.9289	0.207517	-388.284635	-388.276116	-388.275172	-388.317088	34.324	
C	-0.1383273827	 1.454156484	-0.2532360715	-0.4313
C	 0.1072063393	-0.0503314611	-0.1992445072	 0.007639
C	 1.492939951	-0.5199398443	-0.7415558578	 0.133872
C	 2.0647600025	-0.3054782211	 0.6832766821	-0.259674
C	 0.6204139167	-0.6090471692	 1.1707184245	-0.019138
C	 0.4434908115	-2.1411364744	 1.2021111839	 0.003013
C	-0.9116499321	-2.5777691521	 1.7652533189	-0.415284
C	 0.6329637503	-2.6886283664	-0.236175224	-0.076948
O	 1.4988489874	-1.9061242727	-1.0569111241	-0.284323
H	 0.6928018457	 2.0304118137	 0.1642158821	 0.117375
H	-0.2854332185	 1.7877616472	-1.2864270755	 0.11683
H	-1.0384954753	 1.719493075	 0.3119655913	 0.11578
H	-0.7549891943	-0.5642174374	-0.6357939898	 0.066977
H	 1.9419217554	-0.0043369788	-1.5942073268	 0.068566
H	 2.8613386207	-0.9883667346	 0.9901874187	 0.092378
H	 2.3742247058	 0.7248521776	 0.8687825577	 0.096497
H	 0.2636886369	-0.1375629962	 2.0917419444	 0.052187
H	 1.2323252404	-2.5498827308	 1.8471360123	 0.074692
H	-1.7376667285	-2.1292568012	 1.2010190387	 0.117068
H	-1.0318047522	-3.665869015	 1.7188995767	 0.114466
H	-1.0176147706	-2.2754546436	 2.8120405172	 0.114184
H	 1.0539201667	-3.6987528582	-0.2196239529	 0.10397
H	-0.353704976	-2.7627987003	-0.7177418091	 0.091174
