25
gdb 122666	4.77876	0.63533	0.58815	1.4927	90.32	-0.2373	0.0872	0.3245	2010.9136	0.229343	-389.513155	-389.50281	-389.501865	-389.550063	37.341	
C	 0.0130387422	 1.5843331892	-0.0411858306	-0.378992
C	 0.0151324615	 0.0535973161	-0.0073835338	-0.164601
C	 0.7461378573	-0.5201333968	 1.2106853242	-0.159235
C	 0.7527088619	-2.0517440816	 1.2488296439	-0.198542
C	 1.4989613866	-2.6269804294	 2.4479386769	 0.15297
C	 1.5397046019	-4.1592679848	 2.5204017636	-0.238417
C	 2.8406605087	-4.4105433914	 3.2939980995	-0.232679
C	 3.7378710221	-3.281810689	 2.7679268497	-0.05538
O	 2.8710290192	-2.2091589626	 2.4040285779	-0.278498
H	 1.034543585	 1.9799415239	-0.0636976457	 0.114427
H	-0.5115723912	 1.9657212876	-0.923037889	 0.107917
H	-0.480415206	 1.9993334689	 0.8448942634	 0.111628
H	-1.0197848888	-0.3148072719	-0.0185553464	 0.089199
H	 0.4818973833	-0.3319469895	-0.923727145	 0.092806
H	 1.7827357856	-0.1639598335	 1.2235472929	 0.11433
H	 0.2787421214	-0.1360006917	 2.1285987034	 0.08568
H	-0.2792500904	-2.4287490679	 1.2702160961	 0.087251
H	 1.2154378284	-2.4443543744	 0.3336009771	 0.092242
H	 1.045831405	-2.2301199622	 3.373319441	 0.05981
H	 0.6547465642	-4.5797999884	 3.0042872378	 0.10035
H	 1.6051492987	-4.5792933739	 1.5094366148	 0.100385
H	 2.6716225358	-4.2951633491	 4.3700223923	 0.105954
H	 3.2672605462	-5.402410531	 3.1256291941	 0.101382
H	 4.4568973634	-2.9250522659	 3.5146914884	 0.098751
H	 4.3066270979	-3.6072371907	 1.8840526535	 0.091262
