20
gdb 109752	1.97725	1.41796	1.08941	3.7305	76.8	-0.2337	0.0324	0.2661	1226.4312	0.169794	-440.295761	-440.285735	-440.284791	-440.330865	36.405	
C	 0.8899988519	 1.2690605351	-0.0072543595	-0.24979
O	 0.0327408931	 0.1605091929	 0.2284701326	-0.247954
C	 0.4979017493	-0.6639600227	 1.2573225306	 0.08696
C	-0.1254929992	-2.0065303285	 1.423036135	-0.077086
C	-1.2652285438	-2.5044982273	 0.5610718664	-0.407948
C	 1.3335286031	-1.9045690132	 0.9445304855	-0.170924
C	 1.8081656943	-2.3239037109	-0.4203624024	 0.391584
N	 1.1473565388	-1.8085712363	-1.501811917	-0.538299
O	 2.7381399069	-3.1018467038	-0.537467968	-0.376717
H	 1.8868360161	 0.9459433386	-0.3349678057	 0.126817
H	 0.4255978329	 1.8712391451	-0.7911304684	 0.132628
H	 0.9965017311	 1.881590089	 0.89864902	 0.121935
H	 0.7759029728	-0.107394005	 2.152911486	 0.096633
H	-0.203748008	-2.3299281793	 2.4579541085	 0.101404
H	-1.1762547876	-2.1927544457	-0.478944626	 0.130594
H	-1.3026913494	-3.5982243438	 0.5779737132	 0.127571
H	-2.2186515839	-2.1284982191	 0.9468868258	 0.1215
H	 2.0791613914	-2.1758356712	 1.6828936304	 0.110097
H	 0.5249507401	-1.0236845264	-1.3886018057	 0.267912
H	 1.53475751	-2.0182005773	-2.4074902415	 0.253084
