21
gdb 64287	2.57044	1.6506	1.33777	0.7684	76.99	-0.2465	0.0766	0.3231	1058.5472	0.182939	-424.220666	-424.212218	-424.211273	-424.25319	33.159	
C	-0.2609509219	 1.6209680917	 0.0982259012	-0.445639
C	 0.039679599	 0.1215105216	 0.0496315726	 0.258067
C	-1.2427635914	-0.7068101763	-0.1355485561	-0.434742
C	 1.0689848796	-0.2420444806	-1.045995322	-0.126017
O	 1.6636070504	-1.4750116974	-0.6357308402	-0.267943
C	 1.7737084376	-1.4493992533	 0.7711795698	 0.059973
C	 2.8610211561	-0.5244271776	 1.3590345706	-0.108895
O	 1.873995065	 0.4668479121	 1.7254324055	-0.301554
C	 0.7825961607	-0.3829121599	 1.2988547707	 0.074248
H	 0.6385938339	 2.1863759903	 0.352410489	 0.13591
H	-0.6351826924	 1.9743427674	-0.8690885892	 0.110805
H	-1.0261004886	 1.8448211333	 0.8490537671	 0.113945
H	-1.7730625488	-0.3972845145	-1.0423145615	 0.115343
H	-1.0169545004	-1.7737666136	-0.2281691006	 0.127459
H	-1.9246285793	-0.5734816739	 0.7110448883	 0.113593
H	 0.620584427	-0.4041854084	-2.0298194642	 0.107307
H	 1.8293186955	 0.5475745923	-1.1353955903	 0.096939
H	 1.7409794569	-2.4748793392	 1.1405493156	 0.090591
H	 3.3821424414	-0.9213179882	 2.2391283031	 0.101527
H	 3.594598229	-0.1454659574	 0.638286592	 0.109618
H	 0.1186098507	-0.6326139485	 2.1330771486	 0.069465
