16
gdb 25602	3.88375	0.98945	0.82666	3.5055	71.67	-0.2043	-0.0297	0.1745	1327.2811	0.124162	-437.901607	-437.893385	-437.892441	-437.935527	29.885	
O	 0.7889231082	 1.1954723709	 1.3252792729	-0.238445
C	 0.5456481096	 1.7726937601	 0.2991169957	 0.173997
C	 1.1981735855	 1.44405186	-1.0406168551	-0.266433
N	 1.2760906581	 2.6185901444	-1.8843040156	-0.397065
C	 2.2752753817	 3.5465751901	-1.5780918825	 0.257416
C	 3.0568184075	 3.6097490021	-0.4577669703	-0.088104
O	 3.8672308532	 4.712581452	-0.5155674628	-0.150187
C	 3.6043578863	 5.336488031	-1.6846346768	 0.021577
C	 2.6404592548	 4.6818161148	-2.3811657413	-0.293954
H	-0.2062627406	 2.5910462129	 0.23651485	 0.092767
H	 2.1680279867	 0.9582839707	-0.8486881444	 0.123542
H	 0.5472034074	 0.7074855173	-1.5283135129	 0.132859
H	 1.2168183872	 2.4148989719	-2.8711346823	 0.241933
H	 3.145063292	 3.0042513213	 0.4269003489	 0.145355
H	 4.1759981069	 6.2285277153	-1.882146835	 0.137533
H	 2.2277778854	 4.9612477551	-3.3381275983	 0.107211
