20
gdb 112267	2.42975	1.23077	0.9006	1.7629	77.71	-0.2532	0.0173	0.2705	1356.7712	0.169467	-440.277792	-440.267999	-440.267055	-440.312997	34.853	
C	 0.3682148728	 1.5321598703	 0.1202031316	-0.390971
C	 0.0553635201	 0.037137236	 0.0079562136	-0.179805
C	 0.4246683844	-0.5278539169	-1.3476834835	 0.089049
O	 1.8792849865	-0.4706792369	-1.6007714664	-0.267548
C	 1.9770080962	-1.8419116822	-1.6562033907	 0.415543
N	 2.9751167744	-2.5929093909	-1.774680012	-0.550932
C	 0.4750645274	-2.0677257125	-1.5031051991	-0.022644
O	 0.0313548408	-2.775991763	-0.3865216768	-0.24097
C	 0.2103702055	-4.1796511083	-0.5082704887	-0.248516
H	 1.4330766539	 1.7179119554	-0.046600485	 0.135652
H	-0.1936756851	 2.1143103751	-0.6186616414	 0.114159
H	 0.1081099942	 1.9113108416	 1.1124851422	 0.117365
H	 0.5823485891	-0.528920283	 0.7817517478	 0.118722
H	-1.0143993444	-0.1468250527	 0.1649668071	 0.111428
H	-0.0954294686	-0.0080714436	-2.1585783363	 0.091355
H	 3.8436325386	-2.0558833204	-1.8214800087	 0.227866
H	 0.0077924457	-2.4404268263	-2.4270948877	 0.093066
H	-0.3549189174	-4.5767916142	-1.3652127354	 0.107211
H	 1.2681011053	-4.4382196048	-0.6316367323	 0.151144
H	-0.1744848394	-4.6259475126	 0.4109070118	 0.128827
