20
gdb 65097	3.0369	1.28607	1.24323	1.3172	78.47	-0.243	0.0782	0.3212	1135.2637	0.170446	-403.086956	-403.078398	-403.077453	-403.120301	33.019	
C	 0.5161341989	 0.3586513669	 1.3951922243	-0.479167
C	-0.0012489646	 0.0906250959	-0.0042366811	 0.16767
C	 0.6260663934	 0.7819867631	-1.1584099248	-0.271709
N	 0.8412500659	-0.6636160254	-0.9545931785	-0.347268
C	-1.4394786422	-0.2874179431	-0.0658365507	 0.448594
C	-2.0836525801	-1.6430663321	 0.2863241555	-0.302193
C	-3.2346002564	-1.302695455	-0.7246467165	-0.237605
C	-2.5268462905	 0.0288781554	-1.0073890905	-0.051598
O	-2.4148075327	 0.7229172605	 0.2441208211	-0.304053
H	 1.570770157	 0.6517468866	 1.3740010952	 0.110506
H	-0.0552834357	 1.1641914456	 1.8664890804	 0.144357
H	 0.4223352465	-0.5324274353	 2.0262801461	 0.125253
H	 0.0346901731	 1.036161528	-2.0327343755	 0.117805
H	 1.4438961368	 1.4672707825	-0.9502299822	 0.111157
H	 1.7596034788	-0.8198966094	-0.5445393929	 0.227727
H	-1.4786254593	-2.4908339377	-0.0406077084	 0.120234
H	-2.367152159	-1.7664461169	 1.3341214806	 0.102697
H	-3.2468374135	-1.9750527097	-1.5853249303	 0.108673
H	-4.2430269415	-1.2098566053	-0.3151055573	 0.109362
H	-2.5371877049	 0.6363482154	-1.9056663543	 0.099559
