18
gdb 102255	2.63216	1.02299	0.76544	4.7026	73.81	-0.2355	0.0055	0.241	1449.6426	0.146778	-435.304155	-435.293894	-435.29295	-435.340361	35.756	
C	-0.2749962386	 1.5478515632	-0.1770029303	-0.329898
N	 0.0873865947	 0.1499721294	 0.0427572935	-0.294757
C	 0.7460503592	-0.4714102662	-1.1013223682	-0.108242
C	 1.195914035	-1.9032706855	-0.7473612557	-0.335537
C	 2.3473108145	-1.916543978	 0.2568132548	 0.420361
N	 3.0369065359	-3.0861010862	 0.3142395023	-0.521154
O	 2.6254507945	-0.9611351417	 0.9625706335	-0.360684
C	-0.1762525148	-0.5327486408	-2.2508440061	 0.302912
N	-0.8785205102	-0.5933675554	-3.166214625	-0.331286
H	 0.5705890473	 2.1859957494	-0.4878686163	 0.101071
H	-1.0491627243	 1.6155616	-0.9478383071	 0.143081
H	-0.6881062491	 1.9546334746	 0.7494837384	 0.125995
H	 0.7576375344	 0.0885446779	 0.8045257022	 0.249841
H	 1.6327254177	 0.0960426795	-1.4424319358	 0.111953
H	 0.3428683031	-2.4340038719	-0.3094087375	 0.15841
H	 1.484535268	-2.4407797076	-1.6557948802	 0.13176
H	 2.8042271045	-3.8801169957	-0.2557323244	 0.267462
H	 3.7693074683	-3.1767680849	 0.999475772	 0.268711
