19
gdb 85686	2.44203	1.37346	1.05964	5.1185	80.08	-0.2569	0.0295	0.2863	1191.048	0.159699	-382.053513	-382.044777	-382.043833	-382.087073	32.892	
C	-1.0045077633	 1.0927742237	-0.0576552971	-0.415806
C	-0.0412154018	-0.0835918147	-0.0849358795	-0.055215
C	 1.3041859244	 0.069863036	-0.8560751354	-0.253005
C	 2.0378674814	-0.6806567777	 0.3044972903	-0.207098
C	 3.3096079306	-0.153294597	 0.7650988871	 0.278993
N	 4.3079471252	 0.2922963642	 1.1424422562	-0.337108
C	 0.7829054014	-0.4248559187	 1.1688748932	 0.333975
C	 0.7246900591	 0.222079751	 2.495720321	-0.30175
N	 0.4243052973	-1.2175089082	 2.3281933787	-0.363628
H	-0.499269697	 2.0093188695	 0.263493505	 0.12527
H	-1.4292446978	 1.2714121703	-1.051010249	 0.125034
H	-1.8409567068	 0.9105210753	 0.6267616434	 0.117568
H	-0.5620573934	-0.9859474586	-0.430175436	 0.084423
H	 1.3766972351	-0.3859847042	-1.8440371409	 0.117973
H	 1.6206804153	 1.1134523002	-0.9162076051	 0.126566
H	 2.1421384931	-1.7488073695	 0.0919433073	 0.12959
H	 1.6439699088	 0.4360407847	 3.033580666	 0.143731
H	-0.09422992	 0.9086737436	 2.6936761889	 0.117461
H	-0.5809028915	-1.37730267	 2.350977246	 0.233024
