20
gdb 120359	3.30936	1.02605	0.8393	1.1689	82.52	-0.2194	-0.0029	0.2165	1421.9846	0.172296	-399.362253	-399.353111	-399.352167	-399.397165	33.154	
C	 0.0118585405	 1.5515530373	 0.053075286	-0.380289
C	 0.0248776619	 0.021503917	 0.0410105462	-0.174606
C	-1.3909040514	-0.5641248731	-0.0305989596	-0.157397
N	-1.4157574167	-2.0157320544	-0.0211195888	-0.058992
C	-1.5274186284	-2.86403648	-1.1115590954	 0.064504
N	-1.5264378983	-4.1196557187	-0.872784731	-0.268048
C	-1.3936411586	-4.2295996346	 0.5866892292	-0.269187
C	-1.3219318005	-2.7987542074	 1.1261542645	 0.337928
N	-1.2085766208	-2.2993566732	 2.2916853132	-0.555559
H	 1.0275903619	 1.9530347806	 0.110697474	 0.119277
H	-0.4542721673	 1.9565207233	-0.8525127705	 0.113013
H	-0.546393099	 1.9353377373	 0.9138628551	 0.124082
H	 0.6090692117	-0.34494923	-0.8122386434	 0.096643
H	 0.5074855271	-0.3593059739	 0.9466896173	 0.131787
H	-1.9746481629	-0.223038525	 0.8307165744	 0.138039
H	-1.9025239872	-0.2235264381	-0.9381129396	 0.107884
H	-1.615869088	-2.4325366872	-2.1041290776	 0.131691
H	-2.247274092	-4.7719594292	 1.0095997002	 0.139627
H	-0.4924816459	-4.7967851733	 0.8476723775	 0.139719
H	-1.1685816662	-3.0343120873	 2.9958958083	 0.219885
