11
gdb 20481	5.23785	2.19484	1.56756	3.2719	52.26	-0.2142	-0.0103	0.2038	718.6401	0.073591	-434.480057	-434.474407	-434.473463	-434.509973	20.741	
C	 0.0418059492	 1.3958862193	-0.1263381517	 0.008781
O	 1.4418535042	 1.8051275437	 0.0354937807	-0.279415
C	 1.9660754801	 0.7007755147	 0.5942033566	 0.452107
C	 1.1456520253	-0.3636561404	 0.5924527614	 0.144651
O	-0.0475524363	-0.0354042211	-0.0247506123	-0.283082
C	 1.9247212154	-1.3872493354	 1.1501167735	-0.094799
N	 3.1330926856	-0.9345487177	 1.4722095963	-0.159605
O	 3.1537849849	 0.4558910423	 1.0944567552	-0.22195
H	-0.534261685	 1.864162262	 0.6827354041	 0.132938
H	-0.3002928829	 1.7165381632	-1.110931129	 0.151263
H	 1.7027566495	-2.4249478806	 1.3496137952	 0.149111
