15
gdb 75869	3.22968	1.29751	0.97617	6.4584	74.97	-0.2352	-0.0554	0.1798	1144.216	0.11265	-453.967995	-453.95967	-453.958726	-454.001252	30.324	
O	 0.0642155361	 1.4742764019	 0.02776019	-0.419194
C	 0.0091616812	 0.0639277479	-0.0155483217	-0.053753
C	 0.6292638849	-0.5348889186	 1.2601279661	 0.38785
N	 1.8058926371	-0.2665447892	 1.6461080404	-0.538364
N	-0.3675017417	-1.3120125729	 1.8542697252	-0.346567
C	-1.544853793	-1.2224955574	 1.1361601899	-0.069219
C	-1.4129707812	-0.4510802225	 0.0352931964	 0.158868
C	-2.4401994756	-0.2501924728	-0.9674579701	 0.07245
O	-2.2868504073	 0.3391013004	-2.0159955445	-0.283568
H	 0.9695226959	 1.6971118009	 0.2827334625	 0.295406
H	 0.534934737	-0.3257389998	-0.9006866639	 0.111987
H	 2.0397204944	-0.688397725	 2.5457639249	 0.21736
H	-0.2813476578	-1.7482893048	 2.7576927769	 0.262903
H	-2.4189198015	-1.7673626361	 1.4695593939	 0.150275
H	-3.4232511784	-0.7057758421	-0.701721846	 0.053565
