23
gdb 109691	2.28572	1.17075	0.98817	1.041	83.35	-0.2308	0.0794	0.3102	1374.0524	0.201922	-425.392609	-425.38143	-425.380486	-425.428511	40.06	
C	 0.2913336492	 1.2075145537	 0.1837066683	-0.232716
O	-0.370225367	 0.0496273571	-0.2896620718	-0.2408
C	 0.3380391505	-0.6067254878	-1.2936914886	 0.043471
C	 1.3527433336	-1.688863706	-0.9344215396	-0.106978
C	 1.710870952	-2.006503125	 0.5009848032	-0.423567
C	 0.0167043642	-2.0576269798	-1.541126219	 0.349619
C	-1.0502957604	-2.7619970677	-0.7336087474	-0.459736
O	 0.1410297743	-2.4857583384	-2.8752863414	-0.279338
C	-0.9399449282	-2.1327493489	-3.7162972856	-0.249488
H	 1.2763892499	 0.9710732286	 0.6087452647	 0.112299
H	 0.4292659675	 1.9466258193	-0.6199013761	 0.107382
H	-0.340307285	 1.6444759643	 0.9608482397	 0.126111
H	 0.5583185478	 0.0087980331	-2.1675945105	 0.085034
H	 2.1707452194	-1.7773704822	-1.6441948075	 0.092578
H	 0.9192825439	-1.7038978162	 1.1904455319	 0.128858
H	 1.8894519756	-3.0782647307	 0.63998273	 0.11969
H	 2.6249584256	-1.4798619369	 0.7953699692	 0.1151
H	-1.1023966131	-2.3649569823	 0.2803555211	 0.135039
H	-2.0389346121	-2.6244311371	-1.1828213257	 0.118218
H	-0.8435918604	-3.8361233787	-0.6871367624	 0.11929
H	-1.8617739714	-2.6752899666	-3.4654470861	 0.109117
H	-1.1512579354	-1.0544769426	-3.6769853303	 0.106966
H	-0.6474665005	-2.4003900794	-4.7347259063	 0.12385
