19
gdb 86686	2.39977	1.26085	0.9265	2.9944	82.25	-0.2414	-0.0249	0.2165	1289.5664	0.156723	-385.857868	-385.848334	-385.84739	-385.892724	34.873	
C	 0.027165222	 1.5992390928	-0.1676371782	-0.416644
C	 0.0711441073	 0.0928717908	 0.0106000914	 0.042196
C	 1.023444846	-0.7540445321	-0.870311676	-0.254716
C	 1.2823170816	-1.6932833685	 0.3448447045	-0.075207
C	 2.6818987575	-2.2131169717	 0.5267808309	 0.150581
O	 2.9680220223	-3.3817264723	 0.6029521938	-0.256567
C	 0.7573541735	-0.5364772376	 1.2834732378	-0.232216
C	 1.7901919913	 0.2826655571	 1.8919111204	 0.349716
C	 2.6346729813	 0.9730536266	 2.3998778041	-0.48029
H	 1.0235134559	 2.0392005673	-0.0672662014	 0.129202
H	-0.362103483	 1.8549555358	-1.1592132022	 0.116826
H	-0.6227104968	 2.0697380857	 0.57794788	 0.120655
H	-0.9409921821	-0.3210389247	-0.0501149721	 0.084536
H	 0.623479289	-1.2144448985	-1.7756716636	 0.112662
H	 1.9268503546	-0.1905323368	-1.128577822	 0.113095
H	 0.589917502	-2.5370823467	 0.3641469469	 0.097608
H	 3.4646942986	-1.4243759692	 0.5666268204	 0.085687
H	 0.0662367149	-0.8798817481	 2.0584738606	 0.109949
H	 3.3803940742	 1.5745740102	 2.8582228846	 0.202926
