16
gdb 112997	3.59577	1.04452	0.86043	5.0543	68.59	-0.2639	-0.0472	0.2167	1292.832	0.123648	-475.055075	-475.046301	-475.045357	-475.089327	30.662	
O	 0.0291327111	 1.4166749468	 0.1457306202	-0.415208
C	 0.0683700001	 0.036642074	-0.1371413138	-0.072621
C	-1.3422730458	-0.5584585648	-0.1078439194	-0.173234
C	-1.5159272566	-2.1043268025	-0.0615798297	-0.214556
N	-2.1166447129	-1.9463550638	 1.2827090734	-0.131665
C	-2.5878481884	-2.8860791706	 2.1853163188	 0.154506
O	-3.038935748	-2.6343902006	 3.2701714208	-0.262041
C	-1.9468606242	-0.5464556826	 1.3030254947	 0.446241
O	-2.1311418529	 0.2887441857	 2.1402473385	-0.334191
H	-0.4275298237	 1.5292907634	 0.9898163259	 0.303228
H	 0.5097061521	-0.0711766048	-1.133347107	 0.119019
H	 0.712859739	-0.5130334588	 0.5696088527	 0.095305
H	-1.9761758219	-0.0581188932	-0.8435243148	 0.125755
H	-2.1999358632	-2.5236889778	-0.8023974898	 0.135077
H	-0.5814354113	-2.6724443571	-0.0496232421	 0.133056
H	-2.4991499934	-3.9119330634	 1.7738719317	 0.091328
