15
gdb 1778	4.17102	2.12222	1.77143	2.5444	58.64	-0.2468	-0.0257	0.2211	755.3922	0.122553	-345.65267	-345.644984	-345.64404	-345.684093	27.727	
C	-0.0487296576	 1.4006164144	-0.0809009414	-0.425201
C	 0.1566475047	-0.0924361402	 0.0212272903	-0.038004
C	 1.5073149895	-0.7048949862	-0.1756494204	-0.303804
C	 0.9118530935	-0.6734329687	 1.2200350316	 0.270778
O	 1.5351653166	 0.1808368327	 2.1341801956	-0.461986
C	 0.4261245121	-1.963091837	 1.7809357323	 0.100556
O	-0.1298560467	-2.8235643225	 1.1405402472	-0.269369
H	 0.8031713459	 1.9444152837	 0.3358274673	 0.130559
H	-0.163215575	 1.7021929245	-1.1271942183	 0.129641
H	-0.9513975062	 1.7182255703	 0.4530856092	 0.11801
H	-0.6790144572	-0.7134748769	-0.2898385287	 0.114076
H	 1.5749891341	-1.6763806686	-0.651624711	 0.137086
H	 2.3510103644	-0.038979726	-0.3213666611	 0.129212
H	 0.8549695984	 0.645122563	 2.6344502501	 0.29072
H	 0.6256709333	-2.0733727425	 2.8709268073	 0.077725
