18
gdb 60895	3.41456	1.16005	1.04478	1.7966	73.11	-0.2334	-0.0445	0.1889	1175.3917	0.147206	-439.004644	-438.996475	-438.995531	-439.038146	30.684	
O	 0.0564661942	 1.4775133347	 0.1058512732	-0.42984
C	 0.0341014649	 0.0761840092	 0.0474568953	-0.098851
C	 0.6500984731	-0.4126986169	-1.2462399646	 0.132396
O	 1.1077317538	 0.3537141861	-2.0597280932	-0.262013
C	 0.7556533486	-0.5150341648	 1.2548943811	 0.299734
C	 2.2296548786	-0.3370935935	 1.6882753754	-0.205074
N	 1.6609087703	-1.2089585225	 2.8231447305	-0.141217
C	 0.4431867447	-0.267510402	 2.7469875505	-0.208573
C	 0.9578273091	-1.9849202607	 1.6954242043	-0.227244
H	 0.4746229329	 1.7646555878	-0.7218031219	 0.296777
H	-1.007019806	-0.2983918033	 0.0599969678	 0.094882
H	 0.662194638	-1.509652917	-1.4054829704	 0.10348
H	 3.0066655466	-0.8380532049	 1.1037063402	 0.10277
H	 2.5490527795	 0.6542542011	 2.0160106252	 0.115261
H	 0.6325112781	 0.7301368465	 3.1482061574	 0.116937
H	-0.4708740469	-0.7027659032	 3.1603986694	 0.101935
H	 0.0838259572	-2.5487721403	 2.0334137556	 0.105235
H	 1.6377552634	-2.6143602062	 1.1140287741	 0.103406
