25
gdb 122518	4.06353	0.58195	0.55029	0.9865	91.19	-0.2414	0.0912	0.3327	2161.4053	0.226966	-389.474341	-389.463222	-389.462278	-389.511625	39.801	
C	-0.5342203302	 1.4193011209	 0.2104810511	-0.379388
C	 0.1435618603	 0.0657803951	-0.0191282478	-0.162265
C	 0.6620478067	-0.5771699824	 1.2714911993	-0.152052
C	 1.3392205551	-1.9341097632	 1.0423196887	-0.202865
C	 1.8567813883	-2.561749684	 2.3204490047	-0.04388
C	 0.9189350516	-3.3425313004	 3.2271213524	-0.324212
C	 2.0083181432	-4.0463874019	 2.4511719446	 0.111221
O	 1.6667272439	-4.8226579631	 1.3465457378	-0.234519
C	 1.2394770808	-6.1221938973	 1.697851171	-0.229081
H	 0.1584445321	 2.1365399769	 0.6650860532	 0.11182
H	-0.8929422811	 1.8529529777	-0.7284132964	 0.109155
H	-1.394492653	 1.3223689648	 0.8823411638	 0.11192
H	-0.5622353346	-0.6206625989	-0.5056653633	 0.093354
H	 0.9776299682	 0.1880099337	-0.7230802425	 0.093093
H	 1.3699117718	 0.1081509377	 1.759071894	 0.086814
H	-0.1696403323	-0.7027333696	 1.9780635	 0.092638
H	 0.6395029895	-2.6251452959	 0.5603632649	 0.105122
H	 2.1730455842	-1.810654783	 0.3377429807	 0.094074
H	 2.620934152	-1.9776236517	 2.8287127858	 0.081775
H	 1.0093714075	-3.2471010104	 4.3037943182	 0.106699
H	-0.0955156036	-3.4834876023	 2.8668125381	 0.114119
H	 2.863437665	-4.4295874527	 3.0117107744	 0.07962
H	 2.0288893296	-6.6791986621	 2.2256543792	 0.104192
H	 0.3476921489	-6.097131542	 2.3406379742	 0.107654
H	 0.9991702959	-6.645501116	 0.7692417637	 0.124991
