23
gdb 114744	2.22361	1.56153	1.17983	1.1537	85.23	-0.2463	0.0775	0.3238	1187.1374	0.206483	-388.286592	-388.277494	-388.27655	-388.320064	35.293	
C	 0.2832980181	 0.7993079496	-0.8123215592	-0.235109
O	-0.0816851374	-0.5248183969	-0.5075852622	-0.232619
C	-1.3315503221	-0.6467330911	 0.1638354018	 0.080357
C	-2.5369653617	-0.5795567668	-0.8094607592	-0.238014
C	-2.8187528112	-2.0213697847	-1.2100603678	-0.035805
C	-1.6453709711	-2.8658531193	-1.6476255467	-0.289926
C	-2.125659175	-2.9239526128	-0.2164063409	-0.034412
C	-1.4233130452	-2.051358763	 0.8196609882	 0.001403
C	-0.0970905874	-2.5965384202	 1.3524494119	-0.391844
H	 1.2765288173	 0.7649874303	-1.267350421	 0.125533
H	-0.4089827446	 1.2779450362	-1.5209463585	 0.105304
H	 0.3287003884	 1.4232475147	 0.09454941	 0.102948
H	-1.3887708841	 0.1433776187	 0.9275916211	 0.059288
H	-3.4078184865	-0.163846257	-0.2878921067	 0.095148
H	-2.3279043572	 0.0795681975	-1.6589260019	 0.099565
H	-3.8026825793	-2.2625357272	-1.5975181035	 0.074784
H	-1.8659956653	-3.7253080556	-2.2720702871	 0.099925
H	-0.705076089	-2.3740665632	-1.8663577948	 0.130415
H	-2.5939629672	-3.8390691951	 0.131091392	 0.073079
H	-2.1160324397	-1.9450123032	 1.6666746746	 0.070843
H	 0.6273046419	-2.7242264877	 0.5457977017	 0.130999
H	 0.3422623826	-1.9202572792	 2.0933711118	 0.104931
H	-0.2515878545	-3.567203464	 1.8351936363	 0.103208
