23
gdb 74439	2.68992	1.50154	1.25932	0.3095	90.67	-0.2211	0.0315	0.2526	1148.4636	0.207523	-351.185372	-351.176923	-351.175978	-351.217623	34.551	
C	-0.005301093	 1.5032306281	 0.062977336	-0.51033
C	-0.0667004972	 0.0133569389	-0.0120875109	 0.340504
C	-0.073752876	-0.7840915787	-1.0870087041	-0.225501
C	 0.0006257024	-2.2355292742	-0.6225456671	 0.304715
C	-0.4384474204	-3.2950906895	-1.6186303393	-0.488644
C	 1.4537428133	-2.417920527	-0.0537853764	-0.223005
C	 1.4666257097	-1.4975899086	 1.2029197523	-0.213362
C	 0.018151548	-0.9015268909	 1.2072753268	-0.109205
C	-0.7888217048	-2.1171495416	 0.7071931738	-0.237019
H	 0.9084534262	 1.8390441574	 0.5713711506	 0.123981
H	-0.0230846164	 1.9577409065	-0.9318876843	 0.121336
H	-0.8459920317	 1.9107058335	 0.6392271009	 0.122896
H	-0.0217916436	-0.4764162992	-2.1261093966	 0.078695
H	 0.1976396298	-3.2906737986	-2.5114360761	 0.110674
H	-0.3826749255	-4.2976881117	-1.1798660152	 0.108483
H	-1.4701473019	-3.1282129506	-1.9466094245	 0.11263
H	 1.6237072191	-3.4655479999	 0.2182791868	 0.08865
H	 2.2112776598	-2.1435540086	-0.7924739692	 0.091386
H	 1.6464412294	-2.0733826655	 2.1162069531	 0.092319
H	 2.2297409748	-0.7163029136	 1.1529519447	 0.093223
H	-0.2793461006	-0.4548048466	 2.1580419625	 0.050338
H	-1.8470509568	-1.8924494036	 0.5476195792	 0.087919
H	-0.6923665044	-3.002084486	 1.347653647	 0.079317
