23
gdb 101084	2.52382	0.99881	0.9662	2.8145	86.28	-0.2455	-0.0208	0.2247	1423.2104	0.203357	-388.300807	-388.290304	-388.289359	-388.336392	38.599	
C	-0.1931176651	 1.7044103038	 0.1952753693	-0.390485
C	-0.1081316309	 0.1745944236	 0.2057824713	-0.177994
C	-1.4303314792	-0.5406480372	-0.1443276123	-0.069761
C	-1.9020547016	-0.2624476897	-1.5816646936	-0.406535
C	-1.3458554502	-2.0404632717	 0.1362009962	 0.272928
C	-1.5783754599	-2.5405287084	 1.5602232531	-0.297392
C	-2.6186995487	-2.7908124665	 0.5251087631	-0.30067
C	-0.3729471789	-2.8509865472	-0.6488718125	 0.093167
O	-0.2070437025	-4.0420137645	-0.5137467489	-0.279233
H	 0.7513471232	 2.1486147507	 0.5241551407	 0.115436
H	-0.4091474587	 2.0977806865	-0.8026086571	 0.120061
H	-0.9799302459	 2.0603567059	 0.8702830954	 0.113562
H	 0.6800743827	-0.148406827	-0.4870927349	 0.097243
H	 0.2088360145	-0.1593339146	 1.2013027954	 0.100367
H	-2.1988556601	-0.1441060549	 0.5343781517	 0.069941
H	-2.8334430565	-0.7962264466	-1.794582346	 0.118943
H	-2.0851807901	 0.8033357165	-1.7433683379	 0.119291
H	-1.1585588064	-0.5829700438	-2.3200257601	 0.117195
H	-0.9719030221	-3.3812277297	 1.8767896371	 0.138325
H	-1.7633545975	-1.783578752	 2.3148825145	 0.116809
H	-3.5336129732	-2.2086286794	 0.5517117576	 0.117205
H	-2.7143592485	-3.8002348838	 0.1423057762	 0.13803
H	 0.2210422855	-2.2865874297	-1.4001088183	 0.073568
