20
gdb 8318	6.15366	0.87318	0.83202	1.6562	72.81	-0.2506	0.0772	0.3278	1418.6941	0.175875	-386.114526	-386.105452	-386.104508	-386.148745	32.635	
C	-0.0228705202	 1.3457252546	 0.1455669397	-0.223477
O	-0.0320030095	-0.060368818	 0.1503085967	-0.233132
C	-1.3116539407	-0.6046812134	-0.0948285291	-0.067214
C	-1.2153575955	-2.1136338624	-0.032722044	 0.020452
C	-0.9553259866	-2.7852211036	 1.3444026624	-0.236672
C	-1.9569112917	-3.8873323589	 0.949604922	 0.14531
O	-2.7918394647	-4.3109657046	 2.0016492715	-0.430778
C	-2.5318979832	-2.933366026	-0.136699601	-0.291528
H	 1.0022571047	 1.6689726885	 0.343302591	 0.12533
H	-0.342704292	 1.7550999889	-0.8264854065	 0.100717
H	-0.6826741988	 1.7627882613	 0.9234739493	 0.102153
H	-2.0346864878	-0.2396208495	 0.6565497219	 0.079384
H	-1.684670322	-0.2819089887	-1.0838262568	 0.081091
H	-0.4829488907	-2.4523045027	-0.7722598291	 0.078195
H	 0.0640699134	-3.0779888296	 1.6005443816	 0.10222
H	-1.3726344064	-2.1854803652	 2.1594372672	 0.108927
H	-1.44179931	-4.7397748804	 0.4830243463	 0.064643
H	-3.363638317	-5.0117029558	 1.6724455657	 0.280351
H	-3.3803265586	-2.3771667282	 0.275992087	 0.102767
H	-2.8103832227	-3.3504365462	-1.1078862658	 0.091259
