17
gdb 50439	2.64234	1.45063	0.99217	3.6627	73.71	-0.2441	-0.0313	0.2128	1157.1909	0.135249	-421.867528	-421.859222	-421.858278	-421.901243	30.3	
O	-0.6354612555	 0.8162129059	-0.7014551134	-0.243706
C	 0.0969024058	 1.0293717624	 0.2301058957	 0.156846
C	 1.2900784087	 1.9671201784	 0.1651294256	-0.21671
C	 1.4400809891	 2.6786017037	-1.1926574177	-0.255968
C	 2.4990658381	 3.7454083531	-1.1549285367	-0.075401
C	 2.9529929636	 4.2992922137	-0.0321394649	-0.049988
C	 2.4334170667	 3.9527434936	 1.3395996422	-0.359894
C	 1.2709918487	 2.9703386967	 1.3213254066	 0.384587
O	 0.4006136394	 2.978793507	 2.1597536839	-0.307435
H	-0.0510409654	 0.5322597258	 1.2097323528	 0.10281
H	 2.1893807884	 1.3495598809	 0.3316913131	 0.121735
H	 1.6680304416	 1.9348764299	-1.9632369888	 0.125914
H	 0.4716942847	 3.1035777601	-1.4870703913	 0.140728
H	 2.8978810641	 4.0708983235	-2.1120901127	 0.098329
H	 3.7244006877	 5.063601334	-0.0744735663	 0.098578
H	 3.2339302685	 3.5074661559	 1.9518801112	 0.13815
H	 2.1070141258	 4.8434445953	 1.8881448806	 0.141424
