19
gdb 69423	4.47159	0.89373	0.81544	1.2178	81.25	-0.2468	0.0578	0.3046	1411.3756	0.157458	-385.821906	-385.812915	-385.811971	-385.855637	34.598	
O	-0.0862282676	 1.4357649743	 0.0644177768	-0.463797
C	 0.0065785396	 0.0552572194	 0.0586353945	 0.409566
C	-0.1631053292	-0.7651469742	-1.1854349943	-0.344406
C	-1.1428835623	-0.9361367134	-0.0383308164	-0.140331
C	-0.5314599231	-1.7747643214	 1.0934971312	 0.033347
C	-0.2375955583	-3.2579408311	 0.8200756984	-0.369864
C	 0.4676815889	-3.9027979632	 1.9216846281	 0.302981
C	 1.0490844334	-4.4059685096	 2.8459868111	-0.451797
C	 0.669465513	-0.7686504599	 1.1717712439	-0.316621
H	 0.6767987334	 1.7924803711	-0.4035715423	 0.284987
H	-0.5729257425	-0.2143235252	-2.0262199348	 0.114108
H	 0.5446191146	-1.5447732272	-1.4588504584	 0.102633
H	-2.2003456264	-0.7482194856	-0.1798172037	 0.091896
H	-1.1381483666	-1.7003160908	 1.9995727623	 0.090373
H	-1.1833772913	-3.7831507951	 0.6316454545	 0.129075
H	 0.3533075274	-3.3602495385	-0.0987229904	 0.126134
H	 1.5619040733	-4.862589618	 3.6556207899	 0.193253
H	 1.6652973616	-1.1707821963	 0.9567880491	 0.09521
H	 0.6992746822	-0.2347148952	 2.1232363507	 0.11325
