17
gdb 73070	3.43439	1.12038	0.99268	3.1969	70.85	-0.2277	0.0316	0.2593	1210.2496	0.135322	-455.072336	-455.063709	-455.062764	-455.105975	31.737	
O	-0.1065928283	 1.4509542218	-0.3849769327	-0.459451
C	 0.0127133774	 0.1185046689	-0.0506570592	 0.317674
C	 0.6916787191	-0.9368664669	-0.9348570689	-0.236224
N	-0.3103409266	-1.9766073413	-0.5047426057	-0.321844
C	-1.0470872712	-0.9519758241	 0.2531471177	-0.143341
C	-0.148074159	-0.4091984127	 1.3375969311	 0.032891
O	 0.8830369936	-1.1374755442	 1.9482921654	-0.195859
C	 0.5534781191	-2.3398959102	 2.4796661432	 0.147602
N	 1.4173284695	-2.9839287726	 3.1344151886	-0.44761
H	 0.5427189105	 1.9548493198	 0.1192246785	 0.293452
H	 0.5991953571	-0.6752088239	-1.9919245831	 0.116809
H	 1.7267838319	-1.197549894	-0.6977077767	 0.126143
H	-0.856881937	-2.2811032547	-1.303610638	 0.22996
H	-2.128667594	-0.9335177452	 0.3201185775	 0.106479
H	-0.6507158299	 0.2877497557	 2.0071632045	 0.108891
H	-0.4789365388	-2.6373130144	 2.2683279758	 0.097131
H	 1.0208574166	-3.8671750221	 3.4489907222	 0.227295
