16
gdb 95611	2.38101	1.77476	1.06994	6.7176	67.25	-0.2581	-0.0476	0.2105	1082.2969	0.124987	-475.079837	-475.071523	-475.070578	-475.113223	29.695	
C	-0.0766102095	 1.4585222366	 0.0601395659	-0.352481
N	 0.0019788768	 0.0105310453	-0.050219939	-0.108241
C	-1.2167856972	-0.7677708203	 0.0985406564	-0.179022
C	-1.0742680665	-2.0693254715	-0.6622133602	-0.089937
O	 0.0569137702	-2.8145369892	-0.2008596401	-0.225564
C	 1.2251945491	-2.1499912404	-0.0177283757	 0.347005
O	 2.2224959087	-2.7441784799	 0.2581989719	-0.286147
C	 1.2239336389	-0.5994712874	-0.132774349	 0.275865
O	 2.2776417654	-0.0127160362	-0.2452572518	-0.347931
H	 0.9307585937	 1.8594439329	-0.0419161135	 0.179628
H	-0.7169197183	 1.8695333373	-0.7285139236	 0.130731
H	-0.4898573905	 1.7523109913	 1.0328825052	 0.132617
H	-1.4460395302	-0.9615760154	 1.1569758189	 0.12901
H	-2.053011379	-0.1969277034	-0.3196519846	 0.127929
H	-1.9403059817	-2.7153166521	-0.5062358482	 0.137539
H	-0.9693599401	-1.8733880278	-1.7364710525	 0.128998
