12
gdb 1943	6.39686	1.89294	1.7147	3.3779	52.74	-0.2656	-0.0433	0.2222	716.6084	0.089255	-360.512026	-360.505631	-360.504687	-360.542899	22.203	
N	 0.090362672	 1.1095842005	 0.4883969693	-0.530157
C	-0.0024488662	-0.0344931785	-0.0058281397	 0.455287
C	-1.1364724737	-1.0230535565	-0.1946381951	-0.382427
C	-0.023960869	-1.8875754391	-0.8536384059	 0.031239
O	 0.9491412351	-0.8451108209	-0.6009949389	-0.236162
C	 0.2841419281	-3.1884865871	-0.1494072211	 0.143174
O	 1.1790144764	-3.3484671154	 0.6340726819	-0.219704
H	 1.0444064723	 1.4692079658	 0.4317686621	 0.237232
H	-1.5593598396	-1.4151702418	 0.7319587416	 0.152063
H	-1.9366481614	-0.6900798979	-0.8558602268	 0.150029
H	-0.1546883252	-2.0621419444	-1.9277988871	 0.116007
H	-0.4280645988	-4.0050815047	-0.4130076304	 0.08342
