16
gdb 27777	2.04779	1.7534	0.95065	5.4443	79.07	-0.2029	-0.03	0.1729	1187.1981	0.12419	-437.965515	-437.957119	-437.956175	-437.998401	31.781	
C	-0.0050563311	 1.5294873058	 0.0109273417	-0.486962
C	-0.0059140826	 0.024497546	-0.0065113986	 0.362004
C	-0.0171720972	-0.6683845184	-1.1866473133	-0.387561
C	-0.0137488955	-2.0991708604	-1.2318524258	 0.423417
O	-0.0153328511	-2.8440876154	-2.1728188855	-0.348396
O	-0.0016320513	-2.730088375	 0.0620795844	-0.258855
C	 0.0009217362	-2.040473217	 1.2035464582	 0.466995
N	-0.0491868404	-2.8628636528	 2.2949636869	-0.558172
C	 0.006011827	-0.6734549879	 1.2305089379	-0.357229
H	 0.8788704464	 1.9093649353	 0.5357496333	 0.137589
H	-0.0118620217	 1.9440595303	-0.9990044338	 0.133626
H	-0.8816673743	 1.909629531	 0.5476666048	 0.13904
H	-0.0244495852	-0.1667098732	-2.1454883617	 0.108392
H	 0.2251104843	-3.8195269759	 2.132549142	 0.271677
H	 0.2365260456	-2.4727163152	 3.1780195236	 0.266835
H	 0.0074952609	-0.1481276873	 2.176501126	 0.0876
