14
gdb 12434	3.73977	2.0738	1.43999	4.6572	66.85	-0.2507	-0.0689	0.1818	828.2158	0.109013	-382.576487	-382.570051	-382.569106	-382.607137	24.47	
O	 0.0331688112	-0.0270243564	-0.0965035269	-0.333556
C	-0.0280052348	 1.1610888043	 0.0971895004	 0.4046
O	-1.2436080043	 1.7626024974	 0.1383351569	-0.21904
C	-1.3560087288	 3.07857735	 0.7035153486	-0.147914
C	-0.8759883536	 4.1528213359	-0.2262403176	-0.076243
C	 0.4070701734	 4.2037414188	-0.6092926058	-0.06637
C	 1.4093166776	 3.2499069479	-0.1642209363	-0.06632
C	 1.2075510863	 1.9781175785	 0.2332765284	-0.216934
H	-2.4162820747	 3.1890851134	 0.9345858558	 0.130434
H	-0.7895892139	 3.111454657	 1.6451076407	 0.126655
H	-1.5858746077	 4.8980420984	-0.5699603619	 0.11353
H	 0.7499992148	 5.0123533063	-1.2488145818	 0.108631
H	 2.4380900926	 3.6044219249	-0.17671877	 0.115121
H	 2.0615341219	 1.3699870034	 0.5118315295	 0.127406
