25
gdb 60393	3.36827	0.76798	0.68891	0.8112	90.59	-0.2404	0.0862	0.3265	1786.4415	0.226344	-389.481094	-389.469994	-389.46905	-389.518036	40.531	
C	-0.7881217678	 1.1038712258	 0.1311623043	-0.383879
C	 0.0888650918	-0.1474638102	 0.0017168046	 0.020283
C	 1.101054203	-0.0106990038	-1.1423237172	-0.392037
C	 0.8151772937	-0.4587742065	 1.3094063057	-0.039623
O	-0.1398837231	-0.6997930305	 2.3302158631	-0.254185
C	 0.431762562	-1.0176760518	 3.5585064568	 0.131107
C	 0.9136356677	 0.0925578426	 4.4645065431	-0.324558
C	-0.3500580086	-0.6826535853	 4.7933835275	-0.028462
C	-1.7044077669	-0.0158993527	 4.7015579575	-0.400241
H	-0.1750789858	 1.9894505198	 0.3401244686	 0.105549
H	-1.3393986534	 1.2933815935	-0.7956505209	 0.106887
H	-1.5099524557	 0.9931364351	 0.943507356	 0.132059
H	-0.5640549244	-1.0045935602	-0.2107849434	 0.081856
H	 1.7877535444	 0.8253951812	-0.9634724134	 0.112981
H	 1.702904169	-0.9180840307	-1.2607037535	 0.11086
H	 0.59160327	 0.1795986146	-2.09200755	 0.114042
H	 1.4592461817	-1.3450217428	 1.1833400363	 0.08068
H	 1.4704668238	 0.3815108423	 1.5939718964	 0.084904
H	 1.0047142519	-1.9470010376	 3.5503347264	 0.077999
H	 1.8058364072	-0.0590475662	 5.0624929336	 0.107056
H	 0.7788706783	 1.1051752151	 4.0974958573	 0.11442
H	-0.2586618826	-1.4067543435	 5.5991247222	 0.083398
H	-1.7488872639	 0.6629750763	 3.8471431484	 0.130249
H	-2.5014236509	-0.7569554073	 4.5769167213	 0.116741
H	-1.9188299812	 0.5587652427	 5.6090649993	 0.111913
