23
gdb 74993	3.30112	1.23957	0.99602	0.2559	92.44	-0.2228	0.0331	0.2559	1285.7436	0.208213	-351.173832	-351.165464	-351.164519	-351.206466	33.663	
C	-0.0666025383	 1.5669900699	 0.0949742156	-0.476038
C	-0.0125794507	 0.0666494322	 0.0046161533	 0.319544
C	 0.0883540819	-0.5808030564	-1.1609769081	-0.168916
C	 0.0856353327	-2.0700407912	-1.2800735318	-0.010403
C	 1.3912551663	-2.8405115379	-1.6708673138	-0.231055
C	 1.0471511665	-3.8909276578	-0.5779245011	-0.236454
C	 0.0436069863	-2.8813581056	 0.0487495693	-0.000393
C	 0.5988845492	-2.0671917073	 1.2192763655	-0.214168
C	-0.0786377447	-0.6921886815	 1.3159995189	-0.298197
H	 0.7686463061	 1.95978754	 0.6899600343	 0.118541
H	-0.0327352489	 2.0351091418	-0.8927318001	 0.116409
H	-0.9847709146	 1.9002127386	 0.5971363013	 0.119725
H	 0.154716775	-0.0086750741	-2.0859870895	 0.069956
H	-0.7264836832	-2.3876033341	-1.9459432471	 0.071295
H	 1.4738549304	-3.1955656735	-2.700871889	 0.092371
H	 2.2886111305	-2.264615717	-1.42977997	 0.100691
H	 0.5424035952	-4.7660604724	-0.9967973145	 0.095981
H	 1.8641091488	-4.2379231886	 0.0612333984	 0.092055
H	-0.9389075302	-3.2858677934	 0.3124129174	 0.057404
H	 0.487038636	-2.6226310867	 2.1576835593	 0.088881
H	 1.6753003857	-1.9078721591	 1.0768652292	 0.095484
H	 0.3972645775	-0.0970295868	 2.1058402356	 0.093411
H	-1.1280832175	-0.804994299	 1.6278355969	 0.103876
