20
gdb 39503	2.38888	1.75972	1.20658	1.8108	74.64	-0.2261	0.0809	0.307	1064.0422	0.173522	-440.229791	-440.222026	-440.221082	-440.261887	30.756	
C	 0.0874745567	 1.471081745	 0.0006980883	-0.256251
C	 1.3241812157	 0.6276887806	-0.0125187241	-0.024718
C	 2.2678103371	 0.711573459	 1.1719802969	-0.097636
O	 2.9133176887	-0.5067289241	 1.5093360776	-0.24609
C	 2.0443493581	-1.5789153185	 1.7770471328	 0.023947
O	 1.1210682235	-1.3440823788	 2.8043391182	-0.257562
C	-0.0962454987	-0.6499487579	 2.527494408	-0.0745
C	-0.6299259218	-0.7250659926	 1.0931475086	-0.186648
N	-0.0094911312	 0.0279244414	 0.0037750088	-0.074103
H	-0.1106246077	 2.0181932579	 0.9236406996	 0.106062
H	-0.2618902422	 1.9727149567	-0.8992809869	 0.11601
H	 1.8378376016	 0.4706116009	-0.96072366	 0.098862
H	 3.0765230227	 1.401802982	 0.9100415735	 0.11433
H	 1.762206323	 1.128283561	 2.0509578486	 0.100896
H	 1.5371237142	-1.9001835687	 0.8564791242	 0.096422
H	 2.6901133437	-2.384942732	 2.1337676594	 0.116045
H	-0.8485453959	-1.117144827	 3.1746147572	 0.110094
H	-0.0073720927	 0.3961229211	 2.8516850135	 0.098398
H	-0.6502766988	-1.7792662973	 0.78992336	 0.12268
H	-1.6775179358	-0.4032355187	 1.1316199858	 0.113763
