19
gdb 99935	3.70638	0.71079	0.68098	1.0889	94.83	-0.246	-0.0204	0.2255	1723.539	0.154945	-385.842129	-385.831404	-385.830459	-385.877714	39.317	
C	 0.0153636023	 1.5313958883	 0.1715168059	-0.400041
C	-0.0492050121	 0.0175934112	-0.046310209	-0.182908
C	 0.6915271022	-0.4727806046	-1.3199324481	 0.073298
C	 0.1148019471	 0.1349465196	-2.6067895917	-0.39762
O	 2.065161607	-0.0650786439	-1.2910877101	-0.439137
C	 0.6094317906	-1.9400396729	-1.3748760302	 0.508211
C	 0.5592338119	-3.1500858871	-1.3785094431	-0.32459
C	 0.5015263968	-4.5095609803	-1.3950358796	 0.295962
C	 0.4512771748	-5.7160264594	-1.4060056779	-0.572258
H	 1.0494545104	 1.8824548158	 0.1254066731	 0.131415
H	-0.5620098927	 2.0786679775	-0.5792743814	 0.12084
H	-0.3933481041	 1.7903043654	 1.1526114958	 0.113219
H	 0.3990892497	-0.4984882046	 0.8118975064	 0.097758
H	-1.0893988826	-0.3237843828	-0.0963362898	 0.109178
H	 0.2577092394	 1.2177617187	-2.5972502481	 0.1305
H	 0.6344786432	-0.2747632147	-3.4750797119	 0.135692
H	-0.9514949643	-0.0868305877	-2.6942319784	 0.12392
H	 2.5007691856	-0.5497243081	-0.5809055365	 0.283936
H	 0.4055878049	-6.7766444703	-1.4207504554	 0.192624
