10
gdb 132137	3.11071	1.44056	0.9846	3.3044	54.67	-0.265	-0.0939	0.1711	1019.7545	0.051562	-557.844319	-557.837288	-557.836344	-557.87633	25.063	
F	 0.0543305601	 0.0463611768	 0.0030196569	-0.002703
C	-0.043901272	 1.347137835	 0.0108945804	 0.324817
C	-1.2423288822	 2.0004792498	 0.0308619167	-0.013302
F	-2.4025088482	 1.3476671598	 0.0437629831	-0.048669
C	-1.1803585608	 3.4043608318	 0.0370102262	-0.039816
N	-0.077861108	 4.1102869953	 0.0251706736	-0.323549
C	 1.1309856948	 3.4980867332	 0.0052857304	 0.474062
O	 2.227992423	 3.9401308802	-0.0078869021	-0.290086
O	 1.086256186	 1.9756235905	-0.0017097142	-0.241654
H	-2.1210205628	 3.9536435877	 0.0528607189	 0.1609
