16
gdb 39710	4.47641	1.55126	1.52368	3.3541	70.73	-0.2288	0.0593	0.288	891.1308	0.125709	-400.618353	-400.612319	-400.611375	-400.648574	25.245	
C	-0.0492488902	 1.5432682911	 0.002488819	-0.289444
O	 1.1435107326	 0.7342685579	-0.0092123016	-0.280684
C	-0.1105071901	 0.0870935112	 0.0059152909	 0.520989
C	-0.4935690296	-0.9670106242	 1.0385164262	-0.126415
C	-1.9691272116	-1.3096737749	 0.8074905881	-0.100651
C	-1.9863985737	-1.3129049672	-0.7489957906	-0.100612
C	-1.6039595299	-2.5335933085	 0.0276438697	-0.024494
N	-0.1477219183	-2.0767017478	 0.0103900317	-0.183776
C	-0.5163927635	-0.9708882846	-1.013959174	-0.126419
H	-0.2246707711	 2.0979025026	 0.9232866195	 0.118224
H	-0.2450850498	 2.0944313928	-0.9162755545	 0.118225
H	-0.0487415306	-1.0121720943	 2.0313524926	 0.0903
H	-2.8486578892	-1.0889374363	 1.3973645578	 0.096239
H	-2.8788082592	-1.0946347158	-1.3201442363	 0.096236
H	-1.9508441265	-3.5582296041	 0.0336325013	 0.101993
H	-0.0937189693	-1.0197961179	-2.01624929	 0.090288
