15
gdb 128560	4.04315	1.18871	0.92398	1.8268	76.	-0.2206	-0.0693	0.1513	1205.2568	0.11354	-450.099501	-450.091564	-450.09062	-450.132299	29.092	
C	-0.0004483834	 1.4125155691	-0.0148162721	-0.233899
O	 0.0227323181	-0.0190723832	-0.0395835242	-0.262673
C	 0.6113092979	-0.6364503413	-1.0695402228	 0.513981
C	 0.6467427056	-1.9935103526	-1.1153736912	-0.297649
C	 1.2836957404	-2.6398925421	-2.2304859912	 0.439449
N	 1.3802225855	-3.9067893415	-2.3851830165	-0.561716
N	 1.7915495234	-1.6760096127	-3.1376671265	-0.293514
N	 1.7326751009	-0.346437347	-3.0500435149	-0.048623
N	 1.1602151109	 0.184217886	-2.0472622072	-0.286589
H	 1.0111729724	 1.8256124306	-0.0011340961	 0.143068
H	-0.5357044513	 1.8157232789	-0.8780345897	 0.143065
H	-0.5244269237	 1.6686170323	 0.9065942949	 0.136557
H	 0.2091015546	-2.6021216577	-0.336298054	 0.135033
H	 1.8699739993	-4.1536675732	-3.2456244336	 0.200198
H	 2.2674344893	-1.9889898556	-3.972844565	 0.273311
