14
gdb 27466	2.57659	1.7566	1.17254	4.0574	73.34	-0.2502	-0.0875	0.1628	1003.9037	0.10317	-432.892108	-432.885038	-432.884094	-432.923701	27.157	
O	-0.1654100736	 1.2733272733	-0.3647407808	-0.397945
C	 0.0645614612	-0.031669236	-0.1180935014	 0.387727
N	 1.217061747	-0.5234170459	-0.3662483302	-0.305179
C	 1.5123727778	-1.8510872837	-0.0365849444	 0.319195
N	 2.484610812	-2.1190938527	 0.7312820206	-0.473271
N	 0.7622642384	-2.852799723	-0.701211717	-0.221757
C	-0.4985376394	-2.937640737	-0.4986749684	-0.013516
C	-1.3546788476	-2.0232270129	 0.2530836578	-0.088664
C	-1.1163206314	-0.7084498222	 0.4188402303	-0.123395
H	 0.6713694579	 1.6406049504	-0.6867427939	 0.308709
H	 2.5966993278	-3.1326901221	 0.7938514327	 0.22311
H	-1.0116764043	-3.7845525969	-0.9612774942	 0.125516
H	-2.3039239389	-2.4267909266	 0.5950821621	 0.124001
H	-1.8650769668	-0.0695628348	 0.8757763169	 0.135468
