23
gdb 91180	2.00222	1.6896	1.53348	0.1584	89.49	-0.2312	0.0284	0.2596	1091.7765	0.206669	-351.167729	-351.159069	-351.158125	-351.200534	34.902	
C	 0.512880555	 1.5454599565	-0.1803007666	-0.41338
C	 0.0833524106	 0.1087668209	 0.0936687461	-0.004889
C	 0.6458996247	-0.9648257802	-0.8869874947	-0.245537
C	 1.4121108565	-1.6402694905	 0.2885321027	-0.083812
C	 2.8723294932	-1.3043073514	 0.3995673617	-0.082875
C	 3.1193819428	-0.4018969222	 1.3497192803	-0.062467
C	 1.8718641831	 0.0359630971	 2.0807199322	-0.330882
C	 0.7231500788	-0.667470575	 1.3130850102	 0.348374
C	-0.3172379608	-1.290603006	 2.2351417063	-0.477106
H	 1.6011647662	 1.6358576315	-0.2569508552	 0.12124
H	 0.0874178565	 1.8899586574	-1.1297935207	 0.109942
H	 0.1683934951	 2.2318197026	 0.6012437828	 0.110377
H	-1.0101140394	 0.0784707768	 0.1520608662	 0.061993
H	-0.1219217814	-1.5987286598	-1.3384998896	 0.092285
H	 1.2808731151	-0.5733865887	-1.6874337059	 0.091585
H	 1.2149444711	-2.7116783691	 0.4097561172	 0.061822
H	 3.6241976254	-1.7555461842	-0.2406329348	 0.087416
H	 4.1029350352	-0.0182581332	 1.6019489904	 0.087587
H	 1.9007811819	-0.2770438665	 3.1345074884	 0.095085
H	 1.7622698309	 1.1268640117	 2.0984757032	 0.102065
H	-0.8375953303	-0.5227867459	 2.8208823526	 0.110985
H	-1.0753857445	-1.8424376878	 1.6680617346	 0.109031
H	 0.1464775744	-1.9901012441	 2.9403492728	 0.111161
