21
gdb 100920	2.64678	0.96541	0.86018	2.4857	75.25	-0.2535	-0.0349	0.2187	1458.368	0.179659	-461.368733	-461.357884	-461.356939	-461.405186	38.256	
C	-0.1209445547	 1.5112136495	 0.0507046212	-0.381414
C	-0.2116479513	-0.00924213	-0.0968775271	-0.204232
C	 0.7479803348	-0.5507242439	-1.1691730321	 0.124489
O	 2.1009554359	-0.209665233	-0.9024052922	-0.444971
C	 0.5923665139	-2.0713981755	-1.3968473152	-0.106821
C	 1.3917031477	-2.5249219465	-2.631054512	-0.093357
O	 1.2086551286	-3.9255446691	-2.7827975316	-0.430533
C	 1.0331586497	-2.904603587	-0.2045584206	 0.167729
O	 1.7880054161	-2.5166084844	 0.6602207844	-0.271908
H	 0.9048865092	 1.8113492743	 0.2782255609	 0.133672
H	-0.417684499	 2.0165916595	-0.8753725713	 0.10997
H	-0.7738603781	 1.8704636889	 0.8515828523	 0.108566
H	 0.0149405237	-0.4901519505	 0.8622115646	 0.108357
H	-1.2365459127	-0.3013785556	-0.3612191923	 0.088712
H	 0.509439455	-0.0506456806	-2.1186112083	 0.079827
H	 2.3493846072	-0.7259778735	-0.1213930987	 0.291596
H	-0.4614095923	-2.3148024759	-1.5883696578	 0.095621
H	 1.0258479738	-1.9724854655	-3.5101426857	 0.09752
H	 2.4465154808	-2.2603869735	-2.4830244482	 0.119929
H	 1.7908049805	-4.2328700004	-3.4836539095	 0.293465
H	 0.6325115712	-3.9364323872	-0.1723249209	 0.113784
