20
gdb 126564	3.04214	1.009	0.81056	0.6308	81.23	-0.2452	0.006	0.2512	1464.564	0.171808	-399.356185	-399.346625	-399.345681	-399.391745	33.92	
C	-0.0133824309	 1.5838244679	 0.073010666	-0.38008
C	-0.0308872882	 0.0548712037	 0.0165666398	-0.159982
C	 0.7346230251	-0.5032775093	-1.1991950867	-0.299848
C	 0.7221131073	-1.9979503545	-1.2718862889	 0.244818
N	 1.6912865089	-2.7409898227	-0.7303710069	-0.267196
N	 1.3022402583	-3.9837935824	-0.9804413739	-0.087156
N	 0.163132471	-4.1261460327	-1.6455222304	-0.259665
C	-0.2366784417	-2.8677604156	-1.8454300902	 0.245589
C	-1.5008617499	-2.5486545724	-2.5753910551	-0.50823
H	 1.0114996414	 1.9657074531	 0.1379642077	 0.117245
H	-0.4715237247	 2.0197243442	-0.8220841567	 0.113151
H	-0.5631527121	 1.9559589604	 0.9429590547	 0.113559
H	 0.4113557079	-0.360331343	 0.9295853652	 0.111106
H	-1.0674976609	-0.3038566056	-0.0116087891	 0.098413
H	 0.2998460529	-0.0903146845	-2.118174971	 0.101133
H	 1.7745274194	-0.1616918322	-1.1592212641	 0.117848
H	 1.852158336	-4.7779533963	-0.697718849	 0.288105
H	-2.2293597562	-2.0521346055	-1.9249872361	 0.13412
H	-1.3151173404	-1.8797442707	-3.4229058462	 0.132237
H	-1.9535854433	-3.466562132	-2.9554940191	 0.144834
