20
gdb 13710	3.58873	1.20761	1.06653	1.9646	72.	-0.2473	0.0776	0.3248	1188.5079	0.175682	-386.113469	-386.104276	-386.103332	-386.147899	33.278	
C	-0.3584367714	 1.3740743067	 0.6550878243	-0.409918
C	 0.0357043949	-0.0346946778	 0.2677234896	-0.018107
C	 1.4283419996	-0.3209184159	-0.263872701	-0.323453
C	 1.0318324199	-0.8314516948	 1.084908974	 0.128352
O	 1.6734789992	-0.244977499	 2.1756987569	-0.264594
C	 0.9412600777	-0.326769077	 3.3927626827	-0.071678
C	 1.7136954837	 0.4970472119	 4.4119060089	-0.065392
O	 1.8741164445	 1.8340759423	 3.9775118937	-0.420115
H	 0.4077572812	 1.8427041336	 1.2783181413	 0.1264
H	-0.506757153	 2.000856017	-0.2308783072	 0.116487
H	-1.2937219333	 1.3810842765	 1.2252198888	 0.116827
H	-0.7625732227	-0.6228311718	-0.1782513114	 0.084084
H	 1.5587389383	-1.0265967091	-1.076572398	 0.112581
H	 2.1291999402	 0.5076954101	-0.2665804109	 0.118254
H	 0.8524205891	-1.9005608244	 1.206049655	 0.082612
H	-0.0687010789	 0.0836103858	 3.2574568186	 0.103035
H	 0.8508700411	-1.373937248	 3.7229671204	 0.089193
H	 1.1635908391	 0.5270107838	 5.357925827	 0.108841
H	 2.6871548731	 0.0177013688	 4.6010675499	 0.094328
H	 2.2682860176	 1.7738398812	 3.0995691773	 0.292263
