21
gdb 87806	3.57328	1.04932	1.01732	1.791	84.91	-0.2171	0.0815	0.2986	1314.5572	0.181904	-383.1932	-383.184347	-383.183403	-383.226385	34.431	
C	-0.2195965519	 1.4511564183	-0.0171927547	-0.390737
C	-0.0285046146	-0.0418958611	 0.084200168	-0.067362
N	 1.3594540096	-0.545260875	-0.0790316324	-0.400396
C	 0.6813296888	-0.6818224933	 1.2089229762	 0.37077
C	 1.2839238568	-0.1127585147	 2.5183004674	-0.325448
C	 0.9460437054	-1.4570076549	 3.1843495387	-0.027527
C	 0.3696862933	-1.9904229486	 1.9112840357	-0.149782
N	-0.5091212573	-1.6512296178	 3.0544053303	-0.103649
C	-0.9904220649	-2.8346074082	 3.7642262372	-0.316949
H	 0.6140960918	 1.9783207184	 0.4540709051	 0.125568
H	-0.270277779	 1.7697350566	-1.0640582515	 0.116708
H	-1.1479923301	 1.7567755397	 0.4770736227	 0.119304
H	-0.8195907308	-0.6371855491	-0.3714467137	 0.078688
H	 1.3588115781	-1.4340205019	-0.5754983125	 0.224992
H	 2.3571019454	 0.0616678078	 2.4129852526	 0.114727
H	 0.7970439914	 0.7619873263	 2.956268207	 0.106808
H	 1.4998405221	-1.9741462276	 3.9586434909	 0.093247
H	 0.3762099769	-2.9943603002	 1.4999748339	 0.087794
H	-0.2712842594	-3.6716451587	 3.7827378731	 0.096216
H	-1.2207085175	-2.560958756	 4.7987875813	 0.124199
H	-1.9120820242	-3.1874633301	 3.2907632247	 0.12283
