14
gdb 34172	3.97946	1.6103	1.40638	3.7412	68.4	-0.2511	-0.0064	0.2447	887.7888	0.103282	-395.628965	-395.622909	-395.621965	-395.65939	24.471	
N	-0.0256549619	-1.0923871628	 0.0168026638	-0.331675
C	-0.0350317703	 0.0637878897	 0.0202100362	 0.138317
C	-0.0696802828	 1.5013207721	 0.004036104	 0.236842
N	-1.006289655	 2.2330965204	 0.9245292668	-0.352363
C	-0.8509094234	 3.3556300257	-0.0576716426	-0.062409
C	 0.6504640962	 3.7057522508	-0.033186516	-0.022469
C	 1.2341934015	 2.3408770125	-0.0006243994	-0.067394
N	 0.9868087327	 3.0044029423	-1.3217614688	-0.176045
C	-0.4230137746	 2.4161390399	-1.2254496845	-0.044003
H	-1.9372954952	 1.828177422	 0.807501315	 0.230363
H	-1.6090762107	 4.1334152634	-0.0870181471	 0.099529
H	 1.1551488651	 4.6059234082	 0.2902662401	 0.117459
H	 2.2196744831	 2.0667012154	 0.3492210599	 0.124262
H	-0.9835735847	 2.1271124405	-2.1117680875	 0.109586
