15
gdb 24234	4.01575	1.60743	1.25158	2.4798	69.99	-0.2251	0.0034	0.2285	949.8419	0.116645	-416.80421	-416.798129	-416.797185	-416.834622	24.579	
C	-0.076639774	 1.5161067521	 0.0021614359	-0.360849
C	 1.4289749426	 1.8768020925	-0.0289401292	-0.023642
N	 2.1939971031	 1.4367083256	 1.15234931	-0.325065
C	 2.2765331598	 0.6371097996	-0.1016114547	-0.213214
C	 1.2896568203	-0.4683095769	-0.101967012	 0.29909
C	 0.03779241	 0.0271602805	-0.0295535915	 0.297781
O	-0.8348935262	-1.0068794241	 0.0830658713	-0.195088
C	-0.0149574509	-2.104721779	 0.0447393628	 0.033796
N	 1.2531581184	-1.8521647541	-0.0573196456	-0.346497
H	-0.5566001966	 1.8964318432	 0.9101539499	 0.136919
H	-0.6082714302	 1.9337861466	-0.8613110147	 0.119664
H	 1.7271792594	 2.7897128798	-0.5325278339	 0.095663
H	 3.0274066902	 2.0170818629	 1.2336459344	 0.231634
H	 3.2084412413	 0.599220198	-0.653357375	 0.102007
H	-0.5055900173	-3.0638459966	 0.0930976824	 0.147802
