25
gdb 117815	2.41313	0.95016	0.84836	2.4432	89.41	-0.2444	-0.0214	0.223	1576.0214	0.225467	-389.515172	-389.503423	-389.502479	-389.552591	42.027	
C	 0.000960035	 1.7020171512	-0.0594134458	-0.378006
C	-0.1577764393	 0.1786253548	-0.0259457343	-0.196561
C	 0.6382895119	-0.5070323434	-1.1441664786	-0.178813
C	 0.630175058	-2.0521070091	-1.1532697058	 0.146247
C	-0.7949993756	-2.6333427238	-1.1738533725	-0.437175
C	 1.4291131382	-2.5204000182	-2.4116268449	-0.191412
C	 1.6540015533	-4.0278614776	-2.5860460741	-0.41092
C	 1.3665166572	-2.5928498224	 0.0695658089	 0.161543
O	 2.1832188882	-1.9844070959	 0.714163671	-0.268103
H	 1.0489805222	 1.9923965061	 0.0719004698	 0.119546
H	-0.339651408	 2.1165565385	-1.0151654265	 0.110036
H	-0.5794445264	 2.1800678613	 0.7358319	 0.109948
H	 0.1787713782	-0.19837381	 0.9460581804	 0.112182
H	-1.2223568818	-0.0708426943	-0.1096481299	 0.092518
H	 0.2651803997	-0.15841084	-2.1165391763	 0.084516
H	 1.6824006487	-0.18172017	-1.0749915797	 0.11001
H	-1.3291500752	-2.300142344	-2.0698217575	 0.119587
H	-0.7855708782	-3.7274964976	-1.1791804424	 0.118845
H	-1.3746831264	-2.3179127267	-0.301980959	 0.125628
H	 0.8967115649	-2.1331080031	-3.289578205	 0.10012
H	 2.4020976858	-2.015387472	-2.3940519899	 0.111297
H	 2.2038677707	-4.21550072	-3.5134028159	 0.120941
H	 2.2430701328	-4.4558499795	-1.7689088939	 0.12441
H	 0.7138681814	-4.5837949387	-2.6485847488	 0.120946
H	 1.1104520647	-3.6447707456	 0.3380768307	 0.072668
