21
gdb 89017	4.17831	0.6917	0.62581	3.5505	80.97	-0.2383	0.061	0.2993	1808.7297	0.182497	-420.438664	-420.428396	-420.427452	-420.475671	37.246	
C	 0.1559135323	 1.5209245924	-0.3390315587	-0.405679
C	 0.0286374154	 0.0559931535	 0.0233093538	 0.001835
C	 1.2316138652	-0.8564454291	 0.0340891577	-0.304427
C	 0.5166751145	-0.5260663235	 1.329840728	-0.008653
C	 1.1944758677	 0.301603733	 2.396764657	-0.160836
N	 2.0397431202	-0.5416822571	 3.2320235184	-0.342056
C	 2.3459097543	-0.1691633904	 4.5206819003	 0.452115
N	 3.3186455883	-0.9687367601	 5.1202253644	-0.566999
O	 1.8343903531	 0.7775452213	 5.0895939189	-0.392508
H	 1.1145172559	 1.9419875445	-0.0240382948	 0.119121
H	 0.0830252465	 1.6541745421	-1.4240124551	 0.117343
H	-0.6376724945	 2.1187858474	 0.1227097816	 0.121363
H	-0.8878330367	-0.3986291967	-0.3446749711	 0.086024
H	 1.1442886539	-1.8559809983	-0.3777577861	 0.109369
H	 2.1997058962	-0.3910732445	-0.132453694	 0.106529
H	-0.0977042823	-1.3226011874	 1.7419798157	 0.087214
H	 1.7766840925	 1.1162498366	 1.9446986478	 0.099889
H	 0.4666279549	 0.7699578187	 3.0638720624	 0.141609
H	 2.6948833515	-1.1340541967	 2.745473771	 0.236912
H	 3.3433406755	-1.9415942451	 4.8511692117	 0.24401
H	 3.3546857255	-0.8282322106	 6.1189821912	 0.257826
