17
gdb 101293	2.17591	1.17005	1.05675	2.2614	70.73	-0.2566	0.0055	0.2621	1237.2397	0.132783	-458.887833	-458.878286	-458.877342	-458.9228	34.867	
O	-0.5419304993	 0.4610679253	 1.2889048375	-0.420985
C	-0.2031951684	 0.1119841794	-0.0326379924	-0.078528
C	-1.3537186826	-0.5815078665	-0.7824983767	 0.030046
O	-1.1110041398	-0.6541726646	-2.1792661847	-0.417678
C	-1.6045200349	-1.9832831391	-0.2412213731	 0.04091
O	-1.7325657943	-2.1388020441	 1.1778947148	-0.255883
C	-2.8865529356	-2.4225175793	 0.3541904723	-0.15135
C	-4.0191584131	-1.5481137632	 0.4753272021	 0.338239
C	-4.9865878333	-0.8413155807	 0.5688553201	-0.414325
H	-0.9192597706	-0.3247936715	 1.7047123224	 0.298378
H	 0.0358052144	 1.0384789349	-0.5649947206	 0.117042
H	 0.6963561412	-0.5323592988	-0.0737060953	 0.070685
H	-2.2537533897	 0.0277817378	-0.6604222703	 0.119171
H	-0.2290402394	-1.0207498046	-2.312538614	 0.285255
H	-0.9932077161	-2.7564410564	-0.7126706867	 0.098995
H	-3.1242158534	-3.484267965	 0.3094869369	 0.127788
H	-5.8366928752	-0.2098650935	 0.6553343777	 0.21224
