17
gdb 35388	4.15009	1.30788	1.18878	4.8773	76.11	-0.2435	0.0297	0.2732	1048.4853	0.139393	-380.832207	-380.825522	-380.824578	-380.86341	26.958	
N	-0.1088582555	-1.1610494579	-0.1703998964	-0.330324
C	-0.0728346547	-0.0109873866	-0.0642821997	 0.309291
C	-0.0058682404	 1.4540753708	 0.0379074152	-0.181078
N	-0.4645083651	 1.9459715527	 1.362194798	-0.313576
C	 0.6872065534	 2.7365680251	 1.7882216342	 0.028739
C	 1.3845016319	 3.4582669992	 0.5804529429	-0.089982
C	 2.750758146	 3.2261133342	 1.2645113945	-0.247971
C	 1.9706961414	 1.9117825238	 1.5016356183	-0.045322
C	 1.4350272768	 1.9958313006	 0.0326105218	-0.016355
H	-0.5909853071	 1.8723948139	-0.790634374	 0.118967
H	-1.3002696618	 2.5125666457	 1.2670353629	 0.227621
H	 0.5554981015	 3.2446379587	 2.7435370621	 0.084398
H	 1.0372196434	 4.3421439139	 0.042177111	 0.072966
H	 3.6221092859	 3.1618983609	 0.6085979545	 0.101602
H	 2.9686344632	 3.8340671251	 2.1467403836	 0.098033
H	 2.2937296689	 1.0105743397	 2.022089582	 0.093315
H	 2.0789148323	 1.7360791601	-0.806959721	 0.089676
