19
gdb 65041	2.76422	1.42913	1.20274	1.5434	70.99	-0.2528	0.0574	0.3102	1091.6778	0.157038	-460.114546	-460.105473	-460.104529	-460.148419	34.568	
O	 0.0541559334	 1.2720970101	 0.4429079313	-0.463075
C	 0.0748254886	-0.0905224863	 0.1077071008	 0.36668
C	 1.162029062	-0.5773124585	-0.8148897043	-0.328776
C	 1.2314218834	-0.8531953891	 0.6761815148	-0.298428
C	-1.3066127205	-0.717205795	 0.0636235278	 0.281518
O	-1.1469894055	-2.0959357727	-0.1699063038	-0.480369
C	-2.2506995513	-0.2976154658	 1.22421311	-0.123892
O	-3.0983866531	 0.4428112976	 0.3209458382	-0.268009
C	-2.3480805588	 0.0179565337	-0.826968728	-0.135031
H	-0.2266327667	 1.7734388743	-0.3303453092	 0.286268
H	 0.9414070153	-1.4096746389	-1.4719680602	 0.127452
H	 1.8320162061	 0.1755891995	-1.21506983	 0.110152
H	 1.9382939704	-0.2756778276	 1.2600000842	 0.120459
H	 1.0579324991	-1.8684632433	 1.0090234599	 0.13015
H	-2.0172661184	-2.5066076823	-0.1853801373	 0.285987
H	-2.77639159	-1.1426858632	 1.6910416222	 0.086094
H	-1.8132253725	 0.3416334131	 1.9959903944	 0.12402
H	-1.9912653821	 0.8626380145	-1.4314875069	 0.087583
H	-2.9177745995	-0.65813959	-1.481236704	 0.091217
