16
gdb 80233	2.68593	1.52401	1.3421	2.9421	70.49	-0.2419	-0.0418	0.2001	1005.5206	0.123754	-437.878454	-437.870779	-437.869835	-437.910546	29.367	
C	-0.0195061204	 1.4590868106	-0.1574388559	-0.342543
N	 0.0258949127	 0.0055758134	 0.0223376023	-0.100268
C	-0.9007767812	-0.546325862	 1.0815278599	-0.119895
C	-0.6342723908	-2.050018976	 0.9216274716	-0.341562
C	 0.9061156949	-1.9901953274	 0.8225537034	 0.464121
O	 1.692364736	-2.8909004806	 0.7401705775	-0.322467
C	 1.1635931011	-0.490501819	 0.9021160624	-0.240186
C	 0.1946531278	-0.0801718224	 2.0677405074	 0.401536
O	 0.2660820741	 0.6265825675	 3.0242379176	-0.306634
H	 0.7965882575	 1.7530665498	-0.8224928339	 0.138325
H	-0.9638448884	 1.7134183013	-0.646836317	 0.134944
H	 0.0609218607	 2.0389578521	 0.7751035371	 0.131932
H	-1.9252793396	-0.1794758858	 1.1071780049	 0.104006
H	-0.9575171826	-2.665021611	 1.7653991546	 0.141277
H	-1.0703707415	-2.4424897509	-0.0010180239	 0.146257
H	 2.1680325797	-0.1032508895	 0.7584398122	 0.111155
