17
gdb 132503	3.08607	1.34938	0.94985	2.6595	79.67	-0.2405	-0.0218	0.2187	1212.253	0.135479	-426.059159	-426.050679	-426.049735	-426.092627	31.042	
C	 0.0088816222	 1.51022535	 0.0470474877	-0.466541
C	 0.0147630741	 0.0073278872	-0.0250264584	 0.316282
C	-0.1351851375	-0.6833720566	-1.2235020768	-0.16867
C	-0.1192744752	-2.0781282281	-1.2107890279	-0.143619
C	 0.0442041119	-2.7689089779	-0.0167036605	 0.115852
C	 0.0739925397	-4.2678860793	 0.0938334567	-0.499283
C	 0.1837881679	-1.9529556277	 1.1124549931	 0.275592
F	 0.3443940228	-2.5640124045	 2.2908790691	-0.075342
N	 0.174189792	-0.6465343004	 1.1410242074	-0.367483
H	 0.9483271922	 1.8756351155	 0.4742552586	 0.142002
H	-0.1253576645	 1.9599827414	-0.9394446668	 0.118604
H	-0.7954200539	 1.8578239009	 0.7034445698	 0.142005
H	-0.2625555981	-0.1414808318	-2.153512412	 0.097218
H	-0.2349128415	-2.6337726541	-2.1368136782	 0.106292
H	 1.0196617242	-4.6170241163	 0.5218094955	 0.14215
H	-0.7222741682	-4.6348069525	 0.7500941746	 0.14215
H	-0.0498377282	-4.7329664259	-0.8872985718	 0.122794
