17
gdb 49310	3.30153	1.18355	0.90227	3.3065	73.74	-0.2539	-0.0621	0.1917	1236.2723	0.136239	-458.966233	-458.958158	-458.957214	-458.999519	29.542	
O	-0.0793042428	 0.0097173682	-0.2657445745	-0.276213
C	 0.0646196671	 1.2107034323	-0.2548873482	 0.114341
C	 1.3163319995	 1.9012079963	 0.1297265592	 0.166121
C	 1.3151996826	 3.2400733418	 0.0523573759	-0.132071
C	 2.4308433492	 4.2150676854	 0.298626117	-0.14781
O	 3.4236374546	 3.8485148086	 1.2285117444	-0.219628
C	 4.1118946206	 2.6547822649	 0.9655799196	 0.012732
O	 3.424414544	 1.5179894134	 1.394050597	-0.218559
C	 2.4718410597	 0.9963434585	 0.4907766938	-0.185394
H	-0.7640679577	 1.894405224	-0.5469795161	 0.07504
H	 0.392440871	 3.7114418749	-0.2898747182	 0.106943
H	 2.8873820663	 4.4507279479	-0.6827309724	 0.116509
H	 2.0113478242	 5.1544090762	 0.6736747464	 0.132694
H	 4.3609193161	 2.5797155601	-0.1095072047	 0.074546
H	 5.0265037019	 2.7040995125	 1.5605114553	 0.12185
H	 2.0736108992	 0.0887128566	 0.9493603489	 0.145624
H	 2.9678348146	 0.6819661885	-0.4445322235	 0.113277
