21
gdb 109439	2.10602	1.43644	1.07828	2.2472	79.73	-0.2248	-0.0221	0.2027	1240.7653	0.179001	-424.229639	-424.219442	-424.218498	-424.264582	37.279	
C	 0.0701695913	 1.5312140092	 0.410163189	-0.24784
O	 0.698394824	 0.3010869129	 0.0863965555	-0.244334
C	 0.7145662387	-0.6070567641	 1.1415831615	 0.024598
C	-0.5695919062	-1.3675031046	 1.5367248892	 0.364337
O	-1.7344586092	-1.0864196015	 1.5427040801	-0.305419
C	 0.2224449451	-2.6734866726	 1.6993951759	-0.383025
C	 1.3687275897	-2.0056096645	 0.8610026138	 0.249163
C	 1.2655746747	-2.3779552628	-0.6204819673	-0.426032
C	 2.7872057153	-2.1826478984	 1.3925648185	-0.456143
H	 0.5899046608	 2.036392429	 1.2392979303	 0.104274
H	 0.1277294287	 2.1611324479	-0.4802047106	 0.128447
H	-0.9797944526	 1.383985137	 0.6872499887	 0.142121
H	 1.1563707658	-0.1612167626	 2.0527351431	 0.077853
H	 0.5012788567	-2.85378567	 2.743105309	 0.123807
H	-0.2454233808	-3.574633247	 1.2964781612	 0.128954
H	 0.2442399777	-2.2628825288	-0.9963730862	 0.125599
H	 1.9108185886	-1.7370326566	-1.2271755011	 0.129632
H	 1.5687250015	-3.4194767769	-0.7714335448	 0.110862
H	 3.1211336934	-3.2205444215	 1.2849015225	 0.118168
H	 3.4915992681	-1.5483149857	 0.8433324567	 0.125212
H	 2.8521705087	-1.9181133183	 2.4535600752	 0.109765
