21
gdb 40721	3.87884	1.23264	1.21763	1.5219	81.58	-0.2376	0.0917	0.3294	1134.7193	0.18497	-387.053325	-387.045883	-387.044939	-387.085291	30.513	
C	-0.1766402349	 1.3710545724	-0.2566608692	-0.253972
C	 1.2004038492	 0.9522168243	 0.193285888	-0.275277
C	 0.1188585665	-0.0831667057	 0.0128789466	-0.017818
C	-0.4258939047	-0.8217251762	 1.2163362862	 0.119853
O	-0.7358861162	 0.0756520757	 2.313681061	-0.29728
C	-2.1010444082	-0.2761195673	 2.6105339206	 0.115194
C	-2.0826812504	-1.824326181	 2.5800284754	-0.237565
C	-1.7869610495	-1.5341518434	 1.0730223049	-0.075683
C	-2.7778032637	-0.336679199	 1.2191475992	-0.23584
H	-0.7810547998	 1.8996773864	 0.4695855461	 0.122935
H	-0.3169567816	 1.6840188106	-1.2854774885	 0.103831
H	 2.0157147079	 0.9777472122	-0.5212259289	 0.105139
H	 1.4798692471	 1.2028268984	 1.2107797261	 0.125113
H	 0.2201251905	-0.7250581835	-0.8594328068	 0.079214
H	 0.3377134687	-1.5367876571	 1.5569139558	 0.072757
H	-2.4578906998	 0.323035356	 3.4467153856	 0.077529
H	-1.314088621	-2.3259041794	 3.1735039025	 0.097988
H	-3.0625168861	-2.2760517894	 2.7432024188	 0.099182
H	-1.8771272428	-2.2909530431	 0.2946173123	 0.068849
H	-3.8179298495	-0.6640560035	 1.267063446	 0.098143
H	-2.6687515316	 0.5221087626	 0.5578180484	 0.107707
