27
gdb 121999	4.58082	0.47859	0.45021	1.2819	93.96	-0.2614	0.0813	0.3427	2522.7792	0.249968	-390.701421	-390.689159	-390.688215	-390.74011	43.366	
C	-0.1068264806	 1.6186167812	 0.1478987733	-0.377985
C	-0.0052911111	 0.0969751355	 0.0039585116	-0.17698
C	 0.7751618563	-0.5553514638	 1.1517710297	-0.159473
C	 0.8326825256	-2.0951484594	 1.1249270714	 0.027004
C	 1.5781696844	-2.6209984524	-0.110720699	-0.390829
C	 1.4512669827	-2.6193000061	 2.4360459912	-0.185988
C	 1.3905559948	-4.1390630357	 2.6228894827	-0.17862
C	 1.9029434423	-4.5820467995	 3.987236487	-0.072604
O	 1.824404565	-5.9990186587	 4.0481583484	-0.422372
H	 0.8862751277	 2.0816877919	 0.1627193936	 0.112661
H	-0.6679739618	 2.0627103317	-0.6803902552	 0.109448
H	-0.6125084333	 1.8961514626	 1.0796022598	 0.11209
H	-1.0146739084	-0.3343647434	-0.0375463631	 0.092521
H	 0.4668421824	-0.1408352039	-0.9563546748	 0.098399
H	 1.80100135	-0.1580011567	 1.1641425403	 0.086881
H	 0.3211350249	-0.2404653174	 2.1015942059	 0.08537
H	-0.2032471	-2.4647516358	 1.0782619822	 0.067342
H	 1.587339618	-3.7138775406	-0.1432701515	 0.116908
H	 1.1153082326	-2.2746351424	-1.0388926249	 0.113885
H	 2.6206517352	-2.2785655377	-0.1103904302	 0.108044
H	 2.496998031	-2.2836437688	 2.4960049471	 0.089295
H	 0.9329853245	-2.1397497524	 3.2779295151	 0.087201
H	 0.3579192079	-4.4926637364	 2.5092393758	 0.101847
H	 1.9828968088	-4.6537648422	 1.858763374	 0.108573
H	 2.940666916	-4.2350302627	 4.1246958466	 0.081879
H	 1.298058317	-4.1154713601	 4.7824310985	 0.081663
H	 2.148061938	-6.2810334464	 4.9084757345	 0.283844
