19
gdb 74672	2.91421	1.80566	1.444	1.4581	79.32	-0.2083	0.0202	0.2285	968.7479	0.161483	-385.887121	-385.880047	-385.879103	-385.918275	29.04	
C	-0.028106957	 1.5075285014	 0.0495872034	-0.494139
C	-0.0632631582	 0.0144270602	-0.0185527711	 0.322347
C	-0.0421643915	-0.759150411	-1.1083949079	-0.166999
C	-0.0352982605	-2.2085115019	-0.7642615554	-0.12629
C	 1.0547798971	-2.7146942773	 0.1971835327	 0.097552
O	 2.0692946817	-1.8394391778	 0.6155925741	-0.25608
C	 1.5118189992	-0.9887623721	 1.6264515661	-0.072878
C	 0.0223852072	-0.8532242216	 1.2378301128	-0.165588
C	-0.2678506071	-2.2889242048	 0.7368010768	-0.129174
H	 0.8674463227	 1.8713405087	 0.5701566461	 0.124772
H	-0.0370765928	 1.9541964851	-0.9482839862	 0.125642
H	-0.8898622615	 1.8994692839	 0.6058796233	 0.121987
H	 0.0031386943	-0.3974218783	-2.1294291379	 0.090139
H	-0.4687496609	-2.9393200838	-1.4393696428	 0.081063
H	 1.3665749224	-3.7526458656	 0.1376348826	 0.095986
H	 1.6242315354	-1.4472573629	 2.6218079575	 0.087319
H	 2.0656784471	-0.0455650992	 1.6091127999	 0.107767
H	-0.602215012	-0.5160346767	 2.0701643441	 0.06884
H	-0.9829444955	-2.9441605162	 1.2176226219	 0.087736
