17
gdb 10031	3.61797	1.06806	0.88332	1.9143	75.15	-0.2227	-0.0281	0.1946	1334.4174	0.139068	-363.83065	-363.820732	-363.819787	-363.866874	32.883	
C	 0.0738070864	 1.5580849513	 0.034329744	-0.321341
N	-0.1694174494	 0.1226092645	-0.1059730101	-0.264884
C	 0.6133046926	-0.4999076646	-1.1599877371	-0.242244
C	 2.1188121492	-0.6487666738	-0.8381213206	 0.159455
O	 2.5859920736	-0.4230873698	 0.245967279	-0.244095
C	 0.1426316585	-1.8468058243	-1.4950270639	 0.008216
C	-0.1734951942	-2.9828499442	-1.7401056843	 0.152273
C	-0.5913282465	-4.343221699	-2.0444214055	-0.500996
H	 1.1239073849	 1.8299334701	 0.217173331	 0.115893
H	-0.2626506641	 2.0709583202	-0.8741817625	 0.119273
H	-0.5267525742	 1.9363497142	 0.8660412005	 0.123309
H	 0.0506674051	-0.3447266108	 0.7682129374	 0.228837
H	 0.5428220245	 0.1329363537	-2.0586900967	 0.117113
H	 2.7400658957	-1.0178416469	-1.6840969513	 0.089275
H	-0.4938417591	-4.5576748063	-3.1141799464	 0.151726
H	 0.0121710819	-5.0777304347	-1.5002655979	 0.152164
H	-1.639227745	-4.5023943096	-1.7679999957	 0.156027
