13
gdb 42297	2.69513	1.4915	0.972	5.7582	66.84	-0.2908	-0.0859	0.2049	1112.3815	0.088889	-452.793086	-452.784992	-452.784048	-452.826628	27.841	
O	 0.0038979715	-0.0572495432	 0.0034598524	-0.309649
C	-0.0181132543	 1.1515827781	 0.0071608424	 0.331922
C	 1.2164543818	 1.948800384	 0.001045911	 0.256186
N	 2.2307275572	 2.5010658223	-0.00434718	-0.314097
N	-1.1771371026	 1.8840632036	 0.0179945912	-0.167256
C	-2.5707502157	 1.4011650586	 0.0267463368	-0.171828
C	-3.027490176	 2.8880402811	 0.0347174462	-0.37917
C	-1.5367417762	 3.2615888301	 0.0251416108	 0.441654
O	-0.8738824009	 4.2499989788	 0.0233623343	-0.302181
H	-2.8254159216	 0.8284657083	-0.8667011562	 0.149475
H	-2.8122838915	 0.8229040328	 0.9202583635	 0.149479
H	-3.5690952831	 3.2222519309	-0.8514769441	 0.157739
H	-3.5562051985	 3.2166489545	 0.9307359718	 0.157725
