21
gdb 75055	2.217	1.62796	1.19331	2.6322	84.27	-0.2353	-0.0139	0.2214	1144.9487	0.180401	-387.140656	-387.130913	-387.129969	-387.174962	36.625	
C	-0.0256471314	 1.5029731829	-0.0164942958	-0.498157
C	-0.0068075898	 0.0054287196	-0.0260657687	 0.310962
C	-0.0208653178	-0.7728216384	-1.1131601995	-0.191155
C	 0.0043742252	-2.241812295	-0.8007108227	-0.381174
C	 0.038611101	-2.2614087465	 0.7315254689	 0.390088
O	 0.06676796	-3.2429769939	 1.4283366397	-0.32643
C	 0.0315872574	-0.807159825	 1.2607045934	 0.065122
C	 1.3090659566	-0.5683631214	 2.0910023461	-0.422895
C	-1.2144169548	-0.6005858346	 2.1457278284	-0.42287
H	 0.8584543057	 1.9126247392	 0.4871808508	 0.129526
H	-0.0511163418	 1.9046840973	-1.0331729094	 0.124571
H	-0.8991307944	 1.8902081544	 0.5222643454	 0.129566
H	-0.0478459368	-0.3942910312	-2.1297214188	 0.090828
H	-0.8734770515	-2.7929154358	-1.1636147943	 0.134197
H	 0.8785706996	-2.7712461362	-1.2025681241	 0.134193
H	 2.2101794557	-0.6772786979	 1.4792406755	 0.11638
H	 1.3113158763	 0.4370056311	 2.5239393089	 0.113963
H	 1.3592688942	-1.2955204792	 2.9065283752	 0.136472
H	-1.2103101697	-1.3277943867	 2.9627426265	 0.136454
H	-1.2238992353	 0.4049315249	 2.5782236331	 0.113979
H	-2.1381222784	-0.7335211574	 1.5736965013	 0.11638
