20
gdb 91638	2.86239	1.70924	1.51611	1.5996	76.5	-0.2341	0.0795	0.3136	961.8158	0.174919	-403.127945	-403.121027	-403.120083	-403.158859	29.605	
O	 0.0719028347	 1.3983717164	-0.1633804801	-0.449587
C	-0.0032681423	-0.0057053452	-0.0120770521	 0.170448
C	 0.6332239029	-0.5607415343	 1.310900909	-0.24688
C	-0.5201783549	-1.3761158553	 1.9297732377	 0.02103
C	-1.1552476938	-1.9743420311	 0.6519169852	-0.259732
C	-1.4512742541	-0.5924692227	 0.0429696862	-0.064591
C	-2.1370809807	 0.1343268621	 1.1955864461	-0.019788
C	-2.888937418	-0.6166241224	 2.2322480514	-0.272789
N	-1.46061793	-0.3362914742	 2.4428719727	-0.109212
H	-0.1558107393	 1.8003859648	 0.6812507547	 0.285346
H	 0.5115850462	-0.4076378571	-0.8898937082	 0.084261
H	 1.5082412587	-1.1844155853	 1.1095834139	 0.098667
H	 0.9434554183	 0.2548620584	 1.9700931835	 0.104976
H	-0.2339116076	-2.0713983297	 2.7201906431	 0.068275
H	-0.4302983799	-2.5442581259	 0.0645245987	 0.099931
H	-2.0289397905	-2.6070875938	 0.80740758	 0.101569
H	-1.9781864332	-0.5639631183	-0.9114268235	 0.067849
H	-2.2968717825	 1.2044236032	 1.0992979283	 0.088272
H	-3.5350248687	-0.0529144286	 2.898931148	 0.116854
H	-3.2274544554	-1.6303581408	 2.0475588654	 0.115101
