17
gdb 113599	3.41098	0.71386	0.62213	6.021	89.69	-0.2679	-0.0441	0.2238	1755.2793	0.13563	-380.83661	-380.82734	-380.826396	-380.871678	32.89	
C	 0.2622746798	 1.5762760404	 0.0584544317	-0.380745
C	-0.2588730627	 0.1621314532	-0.2203991041	-0.193976
C	 0.5138525514	-0.5127592158	-1.3282264336	 0.01777
N	 1.795082699	-1.1191261715	-0.9700280191	-0.309886
C	 0.6898051551	-2.0038047612	-1.4172605522	-0.307485
C	 0.1360215654	-2.9034688092	-0.4507865001	 0.179077
C	-0.3574455527	-3.6781260821	 0.3359212832	 0.063158
C	-0.9114335242	-4.5492044321	 1.2277029507	 0.203807
N	-1.3857786227	-5.291638888	 1.9855931851	-0.337643
H	 1.3162223218	 1.5470127388	 0.3510076321	 0.133345
H	 0.1745055829	 2.2165645545	-0.8264259026	 0.11342
H	-0.3020160823	 2.0482141182	 0.8675873979	 0.121762
H	-0.1857820437	-0.4492333413	 0.6842411802	 0.122071
H	-1.3193352168	 0.1959932542	-0.499045166	 0.107458
H	 0.4546651994	-0.016539023	-2.2974954108	 0.097445
H	 2.4727748864	-1.0290611331	-1.7227350237	 0.244477
H	 0.7510433039	-2.4199282921	-2.4207267088	 0.125946
