19
gdb 59815	4.5528	0.62221	0.62068	1.7575	78.72	-0.2566	0.0075	0.2642	1885.2356	0.156527	-456.400093	-456.389467	-456.388522	-456.436758	37.075	
C	-0.0895200836	 1.5363289264	 0.0393935099	-0.369916
C	-0.042909973	 0.0042543481	 0.0399081738	 0.057659
C	 0.6773715399	-0.5369576032	 1.2799506809	-0.36996
N	-1.4112799054	-0.5067899185	 0.0316227287	-0.209927
C	-1.7546349735	-1.2162298012	-0.9429666632	 0.109115
O	-3.0350454832	-1.7090436976	-0.9781189701	-0.23872
C	-3.3748592567	-2.4937635284	-2.0607900857	 0.515987
N	-4.6735699059	-2.8586804487	-1.9363966577	-0.563661
O	-2.6343237448	-2.7846795175	-2.9661226878	-0.383057
H	 0.9229753637	 1.951457597	 0.0665125975	 0.110144
H	-0.5916971018	 1.9112222282	-0.8572358682	 0.114715
H	-0.639471671	 1.8996007034	 0.9130299458	 0.125246
H	 0.5075620177	-0.3290107971	-0.8573835616	 0.064077
H	 0.1490843142	-0.2326032971	 2.1887640573	 0.12519
H	 0.7184110096	-1.6299753538	 1.2616051581	 0.114332
H	 1.7018845044	-0.1543367452	 1.326716365	 0.110216
H	-1.153600524	-1.5106810781	-1.806096597	 0.135213
H	-5.179436353	-2.656673776	-1.0922286107	 0.276603
H	-5.0409676034	-3.5208160107	-2.5958487651	 0.276742
