14
gdb 42628	2.82819	1.73064	1.30814	4.8119	71.72	-0.2775	-0.0088	0.2687	944.9378	0.102157	-395.674131	-395.667259	-395.666315	-395.705458	26.549	
N	-0.0704608213	 1.2026677972	 0.0915032435	-0.534712
C	-0.036654395	-0.045659687	 0.0735650817	 0.398857
N	 1.0549508152	-1.0076966782	 0.0013222959	-0.197015
C	 0.503677304	-2.2398557081	 0.6971127427	-0.044089
C	-0.8861881129	-1.9282117313	 1.2527215788	-0.276158
C	-1.1015010583	-1.1213001945	-0.0741287618	 0.096374
C	-2.4073081807	-0.8903361001	-0.6228733631	 0.183731
N	-3.458384876	-0.7269579134	-1.0752238455	-0.333671
C	 0.1057963041	-1.9594113552	-0.6873582219	-0.081481
H	 0.8739401083	 1.5915682867	 0.1454868312	 0.24155
H	 1.2468307198	-2.9287478947	 1.0739162289	 0.129877
H	-1.5075670697	-2.825116734	 1.2830133525	 0.140668
H	-0.9780764269	-1.3617036035	 2.1828871999	 0.134555
H	 0.2907643394	-2.3836588938	-1.663027173	 0.141514
