20
gdb 59885	3.98898	0.84497	0.79932	2.3355	77.71	-0.2563	0.004	0.2604	1529.3631	0.169735	-440.305479	-440.295672	-440.294728	-440.34089	35.156	
C	-0.1921196001	 1.5141605697	-0.0306407502	-0.397148
C	-0.0100468369	 0.001927913	 0.0346361674	 0.142891
C	-1.3198162832	-0.7664579272	 0.121726058	-0.39371
O	 0.6461279069	-0.4611227398	-1.1806642457	-0.261003
C	 1.982831338	-0.3767470306	-1.2258205962	 0.465758
O	 2.6836046036	 0.0456732804	-0.3321461818	-0.395203
C	 2.5163956456	-0.882606525	-2.5241563254	-0.127134
C	 3.59363926	-0.0614749946	-3.1592252917	-0.219636
N	 3.9148351997	-1.3381887221	-2.5328519994	-0.30573
H	 0.7766215755	 2.0148324502	-0.0906367787	 0.141046
H	-0.7934298157	 1.7929634319	-0.9017805937	 0.122455
H	-0.704910538	 1.8678963937	 0.8691612281	 0.121056
H	 0.6450968474	-0.2521264275	 0.8723999446	 0.112646
H	-1.9619167877	-0.5381139163	-0.7346188825	 0.126541
H	-1.1380738006	-1.8442904896	 0.138952702	 0.127095
H	-1.8544770137	-0.4915039713	 1.035669636	 0.122279
H	 1.8241287082	-1.4440224534	-3.1408715722	 0.109456
H	 3.66249325	-0.0415536256	-4.242804511	 0.127008
H	 3.8777143248	 0.8542732731	-2.6492196569	 0.132425
H	 4.2933353562	-1.1563820989	-1.6031332807	 0.24891
