17
gdb 128242	1.90478	1.71175	0.94732	2.8832	71.53	-0.2062	-0.0049	0.2013	1214.2997	0.136503	-455.122249	-455.113513	-455.112569	-455.155909	31.867	
C	 0.0868060865	 1.2691380586	-0.2159655862	-0.33061
N	 0.0266569727	-0.1559012403	 0.0491989739	-0.394009
C	-1.2161539663	-0.7667484131	 0.0217914588	 0.124284
C	-2.479589052	-0.254886585	 0.0333793704	-0.018731
O	-3.3877129064	-1.2645848733	 0.0465391336	-0.175829
N	-2.7212879838	-2.4708056736	 0.0234499826	-0.202693
C	-1.4424491275	-2.1817768622	 0.0220045229	 0.286446
C	-0.3857316827	-3.241508869	-0.0011712857	-0.193512
O	 0.580609424	-2.9924875533	-1.0250255413	-0.413462
H	 1.1296717412	 1.5932003015	-0.2108005672	 0.129951
H	-0.3665871575	 1.5553018592	-1.1793890094	 0.11105
H	-0.4366709705	 1.8159261662	 0.5766139803	 0.132221
H	 0.7215773947	-0.708151702	-0.436208947	 0.250012
H	-2.8853244309	 0.742576002	 0.0425195698	 0.139818
H	 0.1827997107	-3.2295956257	 0.9346250444	 0.13397
H	-0.852486053	-4.228623882	-0.1028001236	 0.128481
H	 0.1252672609	-3.054101298	-1.8719337665	 0.292614
