21
gdb 116134	3.13455	1.06698	0.84484	2.8498	82.23	-0.2384	0.0191	0.2575	1403.7022	0.18274	-424.238051	-424.228861	-424.227916	-424.272016	34.75	
C	-0.0210888332	 1.5151891702	 0.1082071239	-0.47561
C	-0.0014985527	 0.0185195686	-0.0237627812	 0.296962
C	-0.0760815138	-0.6107929056	-1.1979697959	-0.169708
C	-0.0069094358	-2.1060560965	-1.3420906976	 0.059113
C	 1.0330482412	-2.5503879327	-2.3741999084	-0.057239
O	 1.0799425301	-3.9568406523	-2.4841984001	-0.427643
O	 0.3721033286	-2.7554083197	-0.1320952884	-0.279869
C	-0.29249763	-2.240804367	 1.0080791763	-0.083942
C	 0.1019015332	-0.7842761333	 1.2535992163	-0.294072
H	 0.8801508462	 1.8762673654	 0.6208021073	 0.125875
H	-0.0771362024	 2.0077678541	-0.8662035236	 0.121667
H	-0.8750432402	 1.8484899383	 0.7120246918	 0.123378
H	-0.1868089308	-0.0458203677	-2.1213328124	 0.084412
H	-0.9883903889	-2.4997311022	-1.6666593163	 0.077875
H	 0.7667951695	-2.1561337856	-3.3605314497	 0.102711
H	 2.0098487471	-2.1281202432	-2.0891244785	 0.089598
H	 1.1431356279	-4.2860902331	-1.5796009753	 0.290944
H	-1.3840028976	-2.3164196048	 0.8772164093	 0.093535
H	-0.0078193812	-2.8817858062	 1.8472712759	 0.106204
H	 1.125615394	-0.7307095393	 1.6492065991	 0.114831
H	-0.5474209313	-0.3509257575	 2.0261964675	 0.100977
