21
gdb 70318	2.9378	1.52753	1.26426	0.908	81.59	-0.2208	0.078	0.2987	1083.8425	0.184844	-383.226337	-383.218333	-383.217389	-383.258298	32.384	
C	 0.3670117944	 1.4259098518	-0.2844344284	-0.442006
C	-0.0918364493	 0.0242530781	 0.0608557597	 0.302797
C	-1.596424199	-0.1775984355	-0.1072686539	-0.230539
N	-2.2648125341	-1.2826333656	 0.581913638	-0.090433
C	-1.91954531	-2.6720144159	 0.298987825	-0.267793
C	-1.556776616	-2.048397713	 1.6057407905	-0.001322
C	-0.1219163768	-1.728414933	 2.0028819641	-0.268665
C	 0.6232031248	-0.7637031705	 1.099964867	-0.048625
N	 0.8642927055	-1.0325175255	-0.3312806629	-0.377523
H	 1.4558259988	 1.4925048758	-0.2239006473	 0.127702
H	 0.0717813661	 1.692585187	-1.3063527281	 0.116833
H	-0.0700504459	 2.1657035867	 0.3954399641	 0.113664
H	-2.081613727	 0.7416734964	 0.2464971492	 0.110022
H	-1.8379901025	-0.2549679728	-1.1756233016	 0.110023
H	-2.7675123356	-3.3512353783	 0.2341401432	 0.113985
H	-1.1268493189	-2.9074281441	-0.4066843033	 0.106318
H	-2.1848716898	-2.3036850427	 2.4583762373	 0.091492
H	-0.1451658422	-1.2779792053	 3.0031252342	 0.112404
H	 0.4509150202	-2.6594498637	 2.1112817196	 0.113587
H	 1.4826589116	-0.3020652825	 1.5844085319	 0.086425
H	 0.3877702657	-1.8763978274	-0.6299358683	 0.221655
