17
gdb 108708	3.28429	1.06008	0.85009	5.8941	78.71	-0.2284	-0.0869	0.1415	1346.5442	0.134946	-421.878735	-421.870011	-421.869067	-421.913038	31.451	
C	-0.2335528942	 1.5207274281	-0.0686856414	-0.383048
C	 0.1260289323	 0.0244580111	 0.014088923	-0.282613
C	 0.8087282717	-0.4901990938	-1.2143873236	 0.315248
C	 2.0648886716	-0.9778111936	-1.2797289237	-0.29539
C	 2.416708547	-1.4069038037	-2.6381814835	 0.298788
O	 3.4443281256	-1.8817602328	-3.0577237226	-0.308185
C	 1.146951538	-1.1251464459	-3.4966409356	 0.310022
O	 1.0296830553	-1.3535897538	-4.6679244044	-0.273431
C	 0.107621767	-0.5134709182	-2.5571084077	-0.427859
H	 0.6628241305	 2.1317627718	-0.2100309377	 0.132257
H	-0.9186038224	 1.7266576525	-0.8962174654	 0.128799
H	-0.7216571449	 1.8418739884	 0.8553181491	 0.129688
H	 0.7631802463	-0.1557147727	 0.8858685953	 0.117221
H	-0.7974595593	-0.5514162038	 0.1678458577	 0.120882
H	 2.7484137874	-1.061328617	-0.4433974984	 0.121473
H	-0.8097827778	-1.1153406088	-2.5418269759	 0.146348
H	-0.1836734741	 0.4845681121	-2.905068905	 0.1498
