21
gdb 75201	2.47887	1.60089	1.18087	1.1327	84.46	-0.217	0.0291	0.2461	1133.1894	0.181207	-387.099199	-387.089957	-387.089013	-387.132232	36.195	
C	-0.0015969547	 1.4899651371	 0.0469525689	-0.499674
C	-0.0203619625	-0.0055544894	-0.0130506799	 0.280118
C	 0.0119389521	-0.7702403322	-1.1107017872	-0.183006
C	-0.029672304	-2.2481786297	-0.7961551781	-0.33807
C	 0.0164396383	-2.2801883415	 0.7315858356	 0.359941
O	-0.7215401448	-3.2648072767	 1.3940987513	-0.471739
C	 1.2200585651	-1.6881905798	 1.4205811325	-0.390346
C	-0.0471421836	-0.8513229135	 1.2320007177	 0.213071
C	-0.8612295842	-0.4370618547	 2.4338509409	-0.488315
H	 0.870500343	 1.8548881397	 0.6048375237	 0.125129
H	 0.0257042019	 1.9291539266	-0.9539584819	 0.12164
H	-0.8863250537	 1.8811231982	 0.5642763741	 0.127368
H	 0.0734333013	-0.3911245523	-2.1252777031	 0.083715
H	-0.9587074616	-2.7184023424	-1.1466690184	 0.111521
H	 0.7991077561	-2.8015374624	-1.2575837482	 0.098462
H	-0.1772464761	-4.0570165152	 1.4535497561	 0.281868
H	 1.4074720572	-2.0522458143	 2.4267642553	 0.104448
H	 2.1051556505	-1.4373358253	 0.8440639406	 0.105014
H	-0.4225566007	 0.429058547	 2.9418787453	 0.112411
H	-1.8854351841	-0.174646622	 2.1460244473	 0.118052
H	-0.9220913955	-1.259653287	 3.1510064676	 0.128393
