22
gdb 69965	2.40539	1.84046	1.34417	1.6726	84.95	-0.2136	0.0781	0.2918	1064.4937	0.194115	-367.154993	-367.146472	-367.145528	-367.18726	34.582	
C	 0.1046564491	 1.5436010061	 0.1270175904	-0.494519
C	-0.0387456962	 0.0558554826	-0.0347393603	 0.295983
C	-0.9663252394	-0.7356693383	 0.7957060595	-0.297353
N	 0.4836670246	-0.9340639908	 1.0093989846	-0.188331
C	 1.0282435715	-1.7802022024	-0.1273315915	-0.008086
C	 0.1546811683	-2.8919099159	-0.7658786172	-0.238139
C	-0.3520374688	-1.8695161495	-1.8355051251	-0.30507
C	 0.5660165013	-0.7704368778	-1.2067978361	 0.311699
C	 1.5328315261	-0.0548778082	-2.1249246265	-0.501796
H	 1.117478997	 1.8882066271	-0.1020665707	 0.120851
H	-0.5895182684	 2.0766772279	-0.5340456974	 0.118589
H	-0.1221845316	 1.8331682448	 1.157266136	 0.127365
H	-1.4308280842	-0.2225011148	 1.6336007697	 0.113519
H	-1.5788616546	-1.5312287098	 0.3858440628	 0.112604
H	 2.0798724301	-2.0048400648	 0.0573368072	 0.073304
H	 0.7605056494	-3.6944425276	-1.1941410546	 0.102051
H	-0.5981317996	-3.3512176568	-0.1202102121	 0.107551
H	-0.0631324771	-2.1309431943	-2.8569357854	 0.097949
H	-1.4239104176	-1.654206482	-1.8308163737	 0.09823
H	 1.014903515	 0.6612243028	-2.774725751	 0.116674
H	 2.2962815022	 0.4944258313	-1.5643988579	 0.122662
H	 2.0509092827	-0.7714770799	-2.7713490206	 0.114261
