19
gdb 106214	2.80806	1.71011	1.2809	1.3789	79.66	-0.2163	0.0112	0.2275	1021.1395	0.160192	-385.823692	-385.81621	-385.815266	-385.855581	30.386	
O	-0.0609490256	 1.4135717433	 0.2494325652	-0.423112
C	 0.0154166703	 0.0215714069	-0.0409256804	-0.214571
C	-1.3895142225	-0.5243045806	-0.0212188436	 0.364528
C	-2.3911691181	 0.0404352648	-1.0248322707	-0.154033
C	-3.5187994767	-0.6253940769	-0.7776962781	-0.123572
C	-3.1440965412	-1.5544832854	 0.3639855057	-0.061252
C	-1.6849720914	-2.0743123397	 0.086036296	-0.096281
C	-1.3986099457	-2.0463779106	 1.6066917065	-0.267821
C	-2.1924340596	-0.7498056367	 1.3260910768	-0.065301
H	 0.8260452374	 1.7806419399	 0.190220348	 0.287285
H	 0.4550643564	-0.1501485818	-1.0374641563	 0.085196
H	 0.6524890551	-0.5002906185	 0.6883253267	 0.086174
H	-2.182861994	 0.8206663777	-1.7429065136	 0.104243
H	-4.4878987859	-0.5448306002	-1.2495701692	 0.100759
H	-3.8795091027	-2.2386424997	 0.7891386125	 0.061402
H	-1.398693792	-2.8367589008	-0.6450169233	 0.063449
H	-1.9086156321	-2.8051472413	 2.2069635814	 0.088401
H	-0.358845135	-1.9444672911	 1.9253376862	 0.090727
H	-2.4911342767	 0.029546841	 2.0312892703	 0.073777
