14
gdb 101969	1.8437	1.50441	1.23133	4.1184	69.08	-0.2813	-0.0731	0.2083	1090.7662	0.097486	-436.652647	-436.643236	-436.642292	-436.687034	33.	
O	 0.1513168084	 1.3883032003	 0.1144908439	-0.408778
C	 0.0933718098	-0.0075085741	 0.0829190261	-0.087196
C	-1.3789395012	-0.5401519305	 0.0699950373	-0.217847
C	-2.1149288973	-0.0407837337	-1.2134722058	 0.163951
O	-1.597107381	 0.6740830103	-2.0253868889	-0.240752
C	-1.4097272284	-2.0004417643	 0.0309171211	 0.296498
C	-1.4097791889	-3.1968718356	-0.0725051191	-0.407925
C	-2.137954812	-0.0286849093	 1.2218059415	 0.29282
N	-2.7623100192	 0.3833366155	 2.101979723	-0.319007
H	-0.13378804	 1.7005284635	-0.7530078235	 0.305154
H	 0.5935884274	-0.440060217	-0.7931135774	 0.122257
H	 0.5847700338	-0.3834998123	 0.9830273868	 0.141785
H	-3.1488963972	-0.4191101771	-1.3191070239	 0.138517
H	-1.4124623944	-4.2578677057	-0.137419571	 0.220523
