18
gdb 39602	3.39265	1.50668	1.10691	1.8303	71.26	-0.2542	0.0104	0.2647	1061.2596	0.151582	-439.09231	-439.085528	-439.084584	-439.123355	27.379	
C	 0.0117606806	 1.4007924968	 0.0210641839	-0.065746
C	 1.4228069726	 2.048328228	 0.0323414581	-0.275101
C	 2.1317341534	 1.3897279145	-1.1260662179	 0.149582
O	 3.5225166385	 1.6839715897	-1.4125247392	-0.255178
C	 3.9430412573	 0.5167742428	-1.9879333562	 0.094865
N	 3.2353076437	-0.5351586593	-1.8751075839	-0.302534
C	 2.1645395012	-0.1188780692	-0.9445887595	 0.064005
C	 0.7380170246	-0.6394223898	-1.0245382002	-0.13596
O	 0.0256188218	-0.0199425933	 0.0479536455	-0.249424
H	-0.5559354362	 1.7068294346	 0.9032328366	 0.118824
H	-0.5326104139	 1.755888714	-0.8702252431	 0.095293
H	 1.3268075324	 3.1332581483	-0.0805783601	 0.10878
H	 1.9335819801	 1.8396003955	 0.9776521625	 0.117459
H	 1.5840281147	 1.6240820488	-2.0543174049	 0.081377
H	 4.8904594977	 0.5877610971	-2.51029867	 0.138688
H	 2.5147799335	-0.3601589587	 0.0713404242	 0.096945
H	 0.2782394185	-0.4025598934	-1.9973748205	 0.095459
H	 0.6689972597	-1.7168688564	-0.8588174253	 0.122666
