20
gdb 97376	2.64252	0.75501	0.61769	3.1919	81.69	-0.2483	-0.0268	0.2214	1819.2012	0.166598	-440.292554	-440.281691	-440.280746	-440.330245	36.888	
C	-0.0231502331	 1.4099754224	-0.0994941964	-0.316111
N	 0.0420414835	-0.0347194208	-0.030178245	-0.205486
C	-1.0455440642	-0.6623460407	 0.0052912488	 0.129216
O	-1.0613970513	-2.0091505469	 0.1140838597	-0.21754
C	-2.3317395657	-2.6612953417	-0.0425449788	 0.096131
C	-2.6350436434	-2.8874718415	-1.5211387758	-0.39239
C	-2.240850067	-3.974248682	 0.7436327653	-0.282747
C	-2.0557148997	-3.7656317983	 2.2333621032	 0.146547
O	-2.7255060136	-4.3050262039	 3.0769308223	-0.238154
H	 0.5125451249	 1.7588965892	-0.9894986239	 0.129652
H	-1.0490131782	 1.8127227286	-0.1322892173	 0.096246
H	 0.4873437404	 1.842999521	 0.7682123124	 0.130961
H	-2.0442096558	-0.1969844179	-0.0247597777	 0.075858
H	-3.1124654269	-2.0247218657	 0.3997119093	 0.094896
H	-2.6699803763	-1.9350752133	-2.0583582894	 0.126358
H	-1.8591740338	-3.5098363855	-1.9767414911	 0.136901
H	-3.6016654975	-3.3851653548	-1.6438373305	 0.126867
H	-3.1353272507	-4.581948826	 0.5853295179	 0.124402
H	-1.3714208019	-4.5305918051	 0.3672873775	 0.1374
H	-1.2368511898	-3.0662228771	 2.5050264695	 0.100993
