23
gdb 105868	1.94323	1.40993	1.24832	1.444	86.29	-0.2464	0.0688	0.3152	1222.0836	0.204896	-388.26054	-388.250562	-388.249617	-388.295056	37.686	
C	 0.1060755764	 1.6226208345	-0.3185359943	-0.423247
C	 0.2310576384	 0.1210154456	-0.1547396819	-0.033722
C	 1.4660252431	-0.6979427331	-0.4174781357	-0.148637
C	 2.7299199836	 0.0039713935	 0.1028387398	-0.26545
C	 2.1366857029	-0.0353542681	 1.5526782562	-0.007333
C	 2.0870384034	 1.2045478459	 2.4394909921	-0.418575
C	 0.842259687	-0.6531334147	 0.9905868869	 0.354306
C	 0.0662611772	-1.7038189521	 1.7197428745	-0.200688
O	-0.6789497514	-1.0655160528	 2.7564738949	-0.421066
H	 1.0465736605	 2.1492841948	-0.1480655222	 0.121331
H	-0.2189055985	 1.862018049	-1.3375257484	 0.109982
H	-0.6369818586	 2.0330675254	 0.3733771069	 0.123126
H	-0.6604754347	-0.3982542055	-0.5062793227	 0.08022
H	 1.4669311499	-1.5197263102	-1.1253698799	 0.07874
H	 3.6361077292	-0.5967574494	-0.0005238965	 0.097574
H	 2.9320182176	 0.9944806437	-0.317956898	 0.095095
H	 2.6589469035	-0.8257254047	 2.1055408744	 0.068146
H	 1.6254344526	 2.059927143	 1.9410428085	 0.115618
H	 1.5018316615	 0.9936055069	 3.3404244939	 0.127677
H	 3.0950826111	 1.5026366454	 2.7500333155	 0.104206
H	-0.6003394173	-2.2331454813	 1.0189483154	 0.079842
H	 0.7562443462	-2.4520720039	 2.144466429	 0.078756
H	-1.0867379334	-1.7505183716	 3.2952246316	 0.284099
