15
gdb 66718	2.91536	1.67906	1.29111	2.1064	77.35	-0.2159	0.0324	0.2483	974.0538	0.110326	-383.338545	-383.331083	-383.330139	-383.370099	30.005	
O	-0.1402831734	 1.3484212453	 0.095550254	-0.439849
C	 0.0108240434	-0.0043576888	 0.0426490861	 0.312966
C	 0.9360317274	-1.004946967	 0.8268201532	-0.182726
C	 0.8233998053	-1.9831704684	-0.3336198712	-0.08642
C	-0.1793850782	-2.0373009437	 0.8051910976	-0.15967
C	-1.1152439308	-1.0400622983	 0.0486985921	 0.302204
C	-2.5140213996	-0.8723023994	 0.0063233609	 0.022446
C	-3.711543652	-0.7411590617	-0.0144681361	-0.379735
C	-0.0786191681	-0.9843013935	-1.1114332911	-0.252468
H	 0.5434749699	 1.7590622895	-0.4470181589	 0.293707
H	 1.7303627015	-0.8676241537	 1.5478338714	 0.097536
H	 1.5295594924	-2.7282640912	-0.6744944708	 0.094579
H	-0.4053377406	-2.8257691497	 1.5102963035	 0.097341
H	-4.7654242641	-0.6162544722	-0.0329355654	 0.175249
H	-0.2912854934	-0.8303209872	-2.1606950152	 0.10484
