22
gdb 100801	2.83012	0.82956	0.67782	3.665	83.21	-0.2768	0.035	0.3118	1659.4539	0.192222	-404.366712	-404.355798	-404.354854	-404.403278	39.231	
C	-0.2236981261	 1.5021000519	-0.0361055326	-0.41904
C	 0.0314133244	-0.0128491484	-0.0417475305	 0.040439
C	 0.8243563622	-0.3810486646	-1.3034333606	-0.085629
O	 0.0135776286	-0.0907780773	-2.4322261772	-0.418793
C	 0.7406566267	-0.5190764354	 1.2406229674	 0.017908
C	 0.1847279377	 0.1025908002	 2.5295979198	-0.418517
C	 0.6492129142	-2.0667990182	 1.3364422195	-0.350974
C	 1.4799519408	-2.6225417901	 2.4023997753	 0.265528
N	 2.1483283072	-3.0468320557	 3.244672034	-0.31542
H	 0.7050230821	 2.0563054659	 0.1476241428	 0.11037
H	-0.6118012617	 1.8073053321	-1.0098463643	 0.138568
H	-0.9475283927	 1.7948946632	 0.7275389855	 0.116857
H	-0.9411721749	-0.5205525555	-0.1196307367	 0.08236
H	 1.7593833084	 0.2036651664	-1.3216108556	 0.089835
H	 1.107794384	-1.4439989805	-1.3007662662	 0.082499
H	 0.5339205478	-0.242034475	-3.2263378939	 0.289631
H	 1.8048765917	-0.2550810502	 1.1679483421	 0.090871
H	-0.8951400835	-0.0685652996	 2.6139056334	 0.116996
H	 0.6641603374	-0.3392358695	 3.4078599046	 0.140927
H	 0.357819278	 1.179797376	 2.5647705379	 0.126938
H	-0.3919258542	-2.3604019006	 1.519307918	 0.150227
H	 0.948117502	-2.5444422852	 0.3989030872	 0.148419
