22
gdb 81958	2.20251	1.74609	1.34109	2.195	80.46	-0.2202	0.0591	0.2793	1081.3195	0.194915	-404.326579	-404.317702	-404.316758	-404.359419	35.39	
C	 0.1648530823	 1.4880172307	-0.2634103338	-0.444509
C	 0.2187929824	-0.026457182	-0.074440884	 0.020721
C	 1.0342959047	-0.8039161684	-1.1388836181	 0.069136
O	 2.2867376389	-0.1963891435	-1.4525807782	-0.430811
C	 1.2645966916	-2.1439253809	-0.4486841041	-0.032894
C	 2.4351658567	-2.2621389738	 0.449706639	-0.23891
N	 1.1072702682	-1.9844748489	 1.0157097564	-0.108637
C	 0.7714243776	-0.5535049897	 1.2827227336	 0.024675
C	 1.9100432177	 0.2659234768	 1.8960460395	-0.408166
H	 1.1600810527	 1.940028149	-0.2213568409	 0.122607
H	-0.2861465294	 1.7469624513	-1.2288019587	 0.109863
H	-0.4429255589	 1.9619884274	 0.5138834861	 0.122925
H	-0.8038068167	-0.418090417	-0.1561238328	 0.080439
H	 0.4498294701	-0.9389720743	-2.0596878019	 0.063429
H	 2.1064211693	 0.6388255417	-1.8957054731	 0.284498
H	 0.8115967433	-3.0262474758	-0.8918672627	 0.084317
H	 2.824855018	-3.2467108646	 0.6956090774	 0.107701
H	 3.1810064941	-1.4780596054	 0.4010336272	 0.132287
H	-0.0449239615	-0.5740701445	 2.0135689167	 0.077714
H	 2.7068006529	 0.4760618619	 1.1788141322	 0.131472
H	 1.5292259138	 1.2247832946	 2.2616920489	 0.110367
H	 2.3395287024	-0.2678031148	 2.7493133714	 0.121775
