15
gdb 28960	2.92881	1.55179	1.02072	5.4715	81.54	-0.2707	-0.0639	0.2068	1099.6449	0.114519	-379.751824	-379.744095	-379.74315	-379.784506	28.225	
C	-0.0367812248	 1.5257075826	 0.0014194841	-0.507415
C	-0.0099309488	 0.0211933277	-0.015013094	 0.237444
C	-0.0264512756	-0.7096869589	-1.2030786374	-0.144784
C	 0.000279864	-2.0976326572	-1.1651523289	-0.110349
C	 0.0434186415	-2.7308119304	 0.0758382132	-0.014851
N	 0.0602192346	-2.0690706455	 1.2295364478	-0.314948
C	 0.0339735728	-0.7310308244	 1.1730069545	 0.152159
C	 0.0533348988	-0.0413057214	 2.4385371624	 0.248915
N	 0.0670721022	 0.5555073231	 3.429691318	-0.341219
H	 0.8512452158	 1.9328750696	 0.495919481	 0.156925
H	-0.077863977	 1.9256724405	-1.0142297036	 0.12774
H	-0.9035800427	 1.9012478911	 0.5548947889	 0.157078
H	-0.0603011737	-0.1845498142	-2.152505987	 0.115115
H	-0.0120198975	-2.682625457	-2.0778781453	 0.115941
H	 0.0652723404	-3.8150184556	 0.1455372963	 0.122251
