18
gdb 79034	4.72549	1.37206	1.30798	1.3073	74.48	-0.226	0.0727	0.2987	998.4047	0.149667	-401.851251	-401.844625	-401.843681	-401.881823	28.1	
O	 0.0006698882	 1.4468439557	-0.1051017387	-0.439381
C	 0.0245365898	 0.0469696057	-0.0087078144	 0.120777
C	-0.0554744406	-0.6206122181	 1.3772592416	-0.073664
C	-1.5439091268	-0.1238515604	 1.545063664	-0.032918
C	-2.2645988878	-1.2225092432	 2.312634139	-0.082959
C	-3.0803102889	-2.2024205994	 1.4922141572	-0.299726
C	-1.6013504089	-2.4139821557	 1.6699696173	 0.007072
N	-0.6653022651	-1.8474113536	 0.6762066615	-0.15497
C	-1.353622574	-0.6150440885	 0.0772225092	-0.060058
H	 0.9041317953	 1.7682114222	-0.0303391387	 0.288099
H	 0.7189350518	-0.4222719588	-0.7136594921	 0.082654
H	 0.7110063367	-0.7342094522	 2.1475589923	 0.073394
H	-1.7680376842	 0.9218822424	 1.7504596626	 0.082825
H	-2.4264419733	-1.1259534752	 3.3795084756	 0.087523
H	-3.7247316341	-2.8783368629	 2.0461177472	 0.109419
H	-3.4854734884	-1.9070631887	 0.5311962228	 0.116713
H	-1.2253447474	-3.2725752367	 2.2125705237	 0.092474
H	-2.0931009122	-0.7028651128	-0.7193068801	 0.082726
