18
gdb 67112	2.59591	2.06333	1.74381	1.5294	75.38	-0.2404	0.076	0.3164	879.2474	0.149452	-401.857017	-401.850191	-401.849247	-401.887715	28.471	
O	 0.0545547513	 1.4460168053	 0.018814492	-0.474008
C	 0.1085781744	 0.062247347	-0.0248593132	 0.353806
C	 0.3547116033	-0.9626510703	 1.1146608752	-0.092953
C	-1.1300932168	-0.9619818636	 1.5627120316	-0.352407
C	-1.1491440197	-0.8503223959	 0.0288626949	 0.304892
C	-1.8867610491	-0.8539094318	-1.2891337402	-0.344199
C	-0.6035425295	-0.875059218	-2.206154294	-0.221561
C	 0.527438537	-0.8845313924	-1.1523720625	-0.086795
N	 0.0187185147	-1.8593170266	-0.0936659468	-0.171337
H	 0.9529195683	 1.7893281817	 0.0794919055	 0.283246
H	 1.2467246435	-1.1395311946	 1.7174165183	 0.077632
H	-1.5050418018	-1.896269149	 1.987809169	 0.108865
H	-1.4749572487	-0.0892903317	 2.1202760041	 0.111352
H	-2.5141809374	-1.7371984172	-1.4283034348	 0.111829
H	-2.4955287139	 0.0413055749	-1.4371623035	 0.112621
H	-0.5673556251	-1.7696227811	-2.8331884099	 0.110728
H	-0.5446523759	 0.0018830558	-2.8564455441	 0.107488
H	 1.5536497452	-1.0089225325	-1.5066718617	 0.060799
