23
gdb 42141	1.88845	1.76726	1.04148	2.0734	81.07	-0.2468	0.0785	0.3253	1221.2672	0.20871	-425.415268	-425.406638	-425.405694	-425.448138	34.056	
C	-0.0512454773	 1.5693867968	-0.0104690053	-0.198023
C	 1.3091109951	 2.2839412572	 0.119695098	-0.182207
C	 2.2176394955	 1.7767483646	 1.2646983938	-0.213967
C	 3.5232625025	 1.1358485492	 0.768224191	-0.070863
O	 3.3550523477	 0.1682865954	-0.2605621872	-0.242991
C	 2.76335039	-1.0510670967	 0.1255819544	 0.02915
O	 1.8427296333	-1.4888435195	-0.8236535079	-0.244382
C	 0.8584864167	-0.5416534047	-1.2455977535	-0.058663
C	-0.0242906825	 0.0320000982	-0.1133214866	-0.212021
H	-0.6788428146	 1.8385816454	 0.849188681	 0.094029
H	-0.5637021635	 1.9765677851	-0.8919887389	 0.095488
H	 1.8551528299	 2.2013373141	-0.8256723131	 0.114042
H	 1.1068369116	 3.3520710242	 0.253902801	 0.093658
H	 2.5048557787	 2.6020897497	 1.9267600951	 0.098288
H	 1.6715323528	 1.0725482661	 1.9025048633	 0.100176
H	 4.1585199373	 1.9057368831	 0.317589309	 0.111203
H	 4.0817799439	 0.709327985	 1.615447047	 0.091951
H	 3.5227830819	-1.8429661133	 0.1697654131	 0.103543
H	 2.3078433359	-0.9438305956	 1.123710181	 0.071989
H	 1.3502775956	 0.2662508147	-1.7972130214	 0.109909
H	 0.2507592234	-1.1035505416	-1.9590654392	 0.105194
H	 0.2992015826	-0.4006513059	 0.8384845739	 0.106272
H	-1.0541084365	-0.3173588117	-0.2441503986	 0.098226
