19
gdb 30867	2.62942	1.28567	0.91809	3.3787	80.57	-0.1979	0.041	0.2389	1315.3505	0.158135	-419.24877	-419.238787	-419.237843	-419.284254	34.889	
C	 0.3195118061	 1.0065096162	-0.3915668949	-0.248709
O	-0.2474126139	 0.2624581166	 0.689050307	-0.27155
C	-1.2992958776	-0.5218038725	 0.3515440657	 0.276825
C	-1.3906205503	-1.8302655947	-0.0391833283	 0.17561
C	-0.2850439382	-2.8094838968	-0.2566478208	-0.496636
N	-2.7235468318	-2.1623545834	-0.2076758188	-0.346712
C	-3.4226555444	-1.0857535531	 0.0751048058	 0.332802
C	-4.9102220649	-0.9760393049	 0.0428071769	-0.497626
N	-2.6006438938	-0.0461145735	 0.4160250811	-0.34575
H	 1.1634923645	 1.5626789253	 0.0215478214	 0.132727
H	 0.671317048	 0.3388475048	-1.1863584166	 0.127873
H	-0.4071112964	 1.7116210895	-0.8154428754	 0.112972
H	-0.4392862334	-3.7124919133	 0.3436293906	 0.131914
H	-0.2262966405	-3.1263917478	-1.3042492876	 0.125469
H	 0.6767556076	-2.3720033507	 0.0252055083	 0.119219
H	-5.3244481772	-0.7138305127	 1.0237085085	 0.128029
H	-5.2521255538	-0.2184526384	-0.6724141111	 0.127025
H	-5.3201583628	-1.9416598423	-0.2561900465	 0.156056
H	-2.8693423074	 0.8696187218	 0.7354138948	 0.260461
