19
gdb 90855	4.03112	1.45064	1.3679	1.1501	79.29	-0.2208	0.0119	0.2327	1005.3516	0.161344	-385.865172	-385.858316	-385.857372	-385.895979	28.882	
C	-0.106625012	 1.5060415049	-0.0456830517	-0.408879
C	 0.0626990355	-0.0001485301	 0.0729349022	 0.127303
O	 0.8982235068	-0.5093760667	-1.0051062123	-0.292414
C	 1.8983870186	-1.2005192586	-0.301059913	 0.134902
C	 1.1988699076	-2.0020036917	 0.8695731377	-0.100414
C	 2.3595171674	-2.3727130226	 1.7670673354	-0.112833
C	 3.1071410106	-1.2630712463	 1.7952912785	-0.108893
C	 2.353821365	-0.2926606188	 0.9100110151	-0.10003
C	 0.8371973759	-0.5232353883	 1.2805378572	-0.063305
H	 0.8490787041	 2.0261252899	 0.0617809949	 0.121958
H	-0.5246786354	 1.7605320648	-1.0238993409	 0.128306
H	-0.7920333113	 1.874193985	 0.7250801499	 0.114209
H	-0.9198424808	-0.4862004585	-0.0021561435	 0.078645
H	 2.6136042961	-1.6659898383	-0.9804843797	 0.083302
H	 0.4171359598	-2.7305282834	 0.6522686036	 0.062368
H	 2.5305184774	-3.336430723	 2.2249448659	 0.101608
H	 4.0533359457	-1.0765504707	 2.2828523644	 0.101022
H	 2.7552471811	 0.7055987774	 0.7381379322	 0.063624
H	 0.457314658	-0.292234515	 2.277089024	 0.069522
