18
gdb 24553	2.64333	1.77467	1.22738	0.3589	88.14	-0.2004	-0.0326	0.1678	1026.1334	0.149403	-364.777621	-364.770002	-364.769058	-364.809218	30.632	
N	-0.1800039869	 1.3115438442	 0.3710767	-0.309031
C	 0.7851097965	 2.3331622893	 0.2364246526	-0.027514
C	 0.8547463382	 3.3128288994	-0.6902185165	-0.097845
C	 0.1023614185	 3.5667057335	-1.9278807709	-0.076059
C	-0.4619897014	 2.6900849621	-2.7891001623	-0.132635
C	-0.4597348873	 1.2587295649	-2.4764233178	-0.137423
C	 0.6528693081	 0.5620250125	-2.2032361166	-0.098764
C	 0.6902813315	-0.4368740711	-1.1260883933	-0.086455
C	 0.3175850351	-0.0257312065	 0.0974422788	-0.060537
H	-0.9914655747	 1.5151506994	-0.1930099402	 0.243207
H	 1.5480140695	 2.3020863786	 1.0117127419	 0.101694
H	 1.6089653894	 4.0700783865	-0.482735913	 0.087095
H	 0.0419900838	 4.621386358	-2.1963564539	 0.093782
H	-1.0156577449	 3.0754240774	-3.6423165745	 0.0919
H	-1.4240808797	 0.8139291175	-2.2194324877	 0.095665
H	 1.61422917	 0.9509293787	-2.5375611083	 0.10633
H	 1.1246886997	-1.4257397498	-1.2529498789	 0.098464
H	 0.4171343747	-0.6690856648	 0.9682279904	 0.108125
