15
gdb 110197	2.91635	1.14057	0.91585	3.9792	62.82	-0.2787	-0.0527	0.226	1231.2621	0.110707	-494.91779	-494.90911	-494.908166	-494.952214	29.955	
O	-0.0454125385	 1.445775849	 0.0209913663	-0.41044
C	-0.0326959606	 0.0551976318	-0.200820738	-0.083182
C	-1.4343561424	-0.5279849437	 0.0057383176	-0.241738
C	-1.6242736358	-2.0597125691	 0.1975824988	 0.003997
O	-2.0579317421	-1.8440012518	 1.572402969	-0.225965
C	-1.8834555692	-0.490565152	 1.4642837321	 0.478475
O	-1.9860196509	 0.3396886131	 2.310994169	-0.32769
C	-2.6845011838	-2.690597461	-0.6743075095	 0.145251
O	-3.8275459512	-2.8494595872	-0.3463449796	-0.221145
H	-0.3764783242	 1.5997789123	 0.9153276738	 0.304777
H	 0.2967464084	-0.0981622698	-1.2332778068	 0.124109
H	 0.6826100999	-0.4652355939	 0.4568869988	 0.103003
H	-2.1476212197	-0.0596922278	-0.6768449691	 0.138238
H	-0.6968618621	-2.6422397462	 0.1703337335	 0.121993
H	-2.3086024079	-2.9751211737	-1.6837135159	 0.090319
