19
gdb 119186	1.94305	1.19356	0.84309	2.371	77.52	-0.2685	0.0157	0.2842	1407.6413	0.157998	-419.193463	-419.183368	-419.182424	-419.228984	35.771	
C	-0.0068509476	 1.5087795879	-0.1232970199	-0.40645
C	 0.0735734436	 0.0115198203	 0.0417630725	-0.036398
N	 1.3967381804	-0.6150331225	 0.011252253	-0.355171
C	 0.6169836265	-0.6678152241	 1.2723868431	 0.144207
C	 1.1950797886	 0.0745955304	 2.4638269449	-0.252901
C	 2.3498064991	-0.6796143117	 3.1179418691	-0.080288
O	 2.8179175772	 0.127010603	 4.1864357492	-0.420274
C	-0.0062058747	-1.9367026597	 1.592900656	 0.248365
N	-0.4888954959	-2.9572167911	 1.8482749996	-0.347949
H	 0.8493850115	 2.0122927948	 0.3280885793	 0.138515
H	-0.0171597219	 1.7605289907	-1.1888340963	 0.132122
H	-0.9257117017	 1.9001726403	 0.3246217368	 0.130845
H	-0.7335070365	-0.5347102212	-0.444053664	 0.108387
H	 1.3713582254	-1.5117291769	-0.4674966658	 0.250018
H	 1.5625507612	 1.0493159827	 2.13755397	 0.124658
H	 0.410482572	 0.2482188705	 3.2082358607	 0.122943
H	 2.002269949	-1.660658803	 3.4768753271	 0.106602
H	 3.1353759351	-0.856625292	 2.3677392405	 0.103293
H	 3.539266309	-0.3373207083	 4.6205864342	 0.289476
