18
gdb 127555	5.38643	0.95981	0.87563	0.3526	80.63	-0.2331	0.0046	0.2377	1356.5165	0.149359	-398.127121	-398.118695	-398.117751	-398.161847	30.138	
C	-0.3794101627	 1.4078302588	-0.0186399038	-0.310013
N	-0.0756729676	-0.0072500748	-0.0114571562	 0.156708
N	 0.3058359058	-0.6551107864	-1.1039758856	-0.22467
C	 0.5266589242	-1.8968572732	-0.6697274714	-0.157299
C	 0.2648561786	-1.9535091778	 0.7130634682	 0.335825
N	-0.1152459496	-0.7312834207	 1.1039739291	-0.327559
C	 0.3461462461	-3.0719992926	 1.6686380184	-0.095559
C	-0.0168521479	-4.4817222102	 1.2446355573	-0.265573
C	 1.4166505437	-4.1359993651	 1.526183233	-0.265692
H	 0.4141739943	 1.9744074428	 0.4775477271	 0.148476
H	-0.4607554958	 1.7215902657	-1.058309392	 0.161089
H	-1.3219616196	 1.5810263867	 0.5041949522	 0.153435
H	 0.848025246	-2.6684664182	-1.3511302702	 0.11761
H	 0.0782932723	-2.7856587052	 2.6792488188	 0.09904
H	-0.5518870243	-5.1000316148	 1.9567274843	 0.118333
H	-0.3161260346	-4.6289058375	 0.2125422044	 0.118774
H	 2.0975375308	-4.0469134974	 0.6865807965	 0.11877
H	 1.8742712204	-4.5149675302	 2.4331515098	 0.118304
