18
gdb 65865	2.61573	1.2672	1.15943	3.4341	72.96	-0.2457	-0.0371	0.2085	1144.8317	0.14666	-439.148699	-439.139752	-439.138808	-439.182898	32.896	
C	-0.0027852996	 1.6153001282	 0.1682719821	-0.449088
C	 0.0330550167	 0.0865046758	 0.0731981158	 0.180567
C	 0.7089237091	-0.455547422	-1.2080419903	-0.254575
C	 1.4012164932	-1.7542155971	-0.762407732	-0.342876
C	 1.6134047472	-1.5871845591	 0.7443654821	 0.410527
O	 2.3050452288	-2.253516687	 1.4783035675	-0.369476
N	 0.8438708962	-0.5115492502	 1.1288423874	-0.336062
C	-1.403241518	-0.4423475899	 0.2217860033	 0.154384
O	-2.060399404	-0.9331879026	-0.6567006436	-0.243671
H	 1.0170241406	 2.0099382841	 0.1845899971	 0.136296
H	-0.5329606379	 2.0385857217	-0.6902478428	 0.141165
H	-0.5143611139	 1.9500570034	 1.0781307217	 0.121728
H	-0.0327094543	-0.6044323169	-1.9934182907	 0.13508
H	 1.4461149558	 0.2723904279	-1.5580950213	 0.109145
H	 0.7649595719	-2.6323660304	-0.9179549113	 0.143578
H	 2.3524772002	-1.9489785084	-1.2599383805	 0.134406
H	 0.7672018233	-0.260450955	 2.1027041107	 0.250759
H	-1.8026905553	-0.3425468126	 1.2588360149	 0.078116
