18
gdb 67484	2.56061	1.63374	1.23117	1.5103	83.03	-0.217	0.0245	0.2415	1066.7789	0.14576	-364.685941	-364.677676	-364.676732	-364.718217	32.83	
C	 0.019471176	 1.4512422169	 0.0638090253	-0.481202
C	-0.0518045709	-0.0382244953	-0.1108225322	 0.307434
C	-1.4111311823	-0.7614323348	-0.012663208	-0.134028
C	-1.3544241209	-2.227286131	-0.341720089	-0.314541
C	-0.7263237511	-1.7289654846	 0.9266733958	 0.004786
N	 0.5953173814	-0.9872943607	 0.8632553822	-0.206842
C	 1.1288745631	-0.8493501482	-0.5328088136	-0.237571
C	 1.2824288495	-1.8600495353	-1.5424404106	 0.304094
C	 1.5594015234	-2.647037092	-2.4104273791	-0.410054
H	 1.0417043039	 1.7743056143	 0.2781414154	 0.129226
H	-0.3234524715	 1.9633831731	-0.842829015	 0.126288
H	-0.6197470148	 1.7702080904	 0.8944991433	 0.128119
H	-2.3354042785	-0.2139016945	 0.1157376966	 0.094432
H	-2.2966955188	-2.736891839	-0.1563388377	 0.113906
H	-0.7959022241	-2.6223084267	-1.1762237829	 0.147198
H	-1.0132923256	-2.0837781268	 1.9077578206	 0.105599
H	 2.0457170808	-0.2639316303	-0.4548799824	 0.125909
H	 1.7645702405	-3.3571292455	-3.1729582786	 0.197247
