12
gdb 50064	3.01182	1.00015	0.93558	2.3067	62.65	-0.2828	-0.1211	0.1617	1231.8494	0.074261	-472.608022	-472.599547	-472.598603	-472.642609	28.367	
O	-0.0123677251	-0.0865209682	 0.5339327136	-0.229216
C	 0.51009664	 0.5138349589	-0.368533123	 0.132148
C	 1.3361381698	 1.7451811185	-0.1178388194	-0.045473
O	 2.3056077998	 2.0718110328	-1.1053905516	-0.20531
C	 1.2288223718	 2.9693185879	-0.9738313643	-0.056201
C	 0.2597798857	 3.0379759499	-2.1235020672	 0.308281
O	 0.1507168424	 2.2067149325	-2.9864388974	-0.263006
C	-0.5823946726	 4.2498780789	-2.1131768633	 0.2217
N	-1.2348796576	 5.2040314922	-2.0851799843	-0.283204
H	 0.4417844685	 0.2061667942	-1.4284528904	 0.134141
H	 1.6316780735	 1.8967414364	 0.9196439318	 0.141865
H	 1.4513852736	 3.9250645559	-0.4992137945	 0.144275
