19
gdb 15404	3.51899	1.13565	0.95189	3.6734	73.64	-0.2491	0.004	0.2531	1267.9794	0.164463	-365.063402	-365.05451	-365.053566	-365.097531	31.463	
C	-0.1211376584	 1.3896791243	-0.3568224826	-0.381623
C	-0.1233861664	-0.1353904225	-0.2259017459	-0.169248
C	-1.5185018781	-0.7032694118	 0.0704804342	-0.195813
C	-1.5386986707	-2.2042345308	 0.2631623799	-0.008276
C	-2.7932204725	-2.9964111783	 0.0165473473	-0.2542
N	-1.6603609588	-3.1132985925	-0.8697103405	-0.060885
C	-1.6836220711	-2.7930516046	-2.2129369527	 0.134669
O	-2.6072507431	-3.0082637326	-2.9606849797	-0.292065
H	 0.8836646808	 1.7689912615	-0.5649748841	 0.117589
H	-0.7766857838	 1.7182326794	-1.1707514034	 0.120415
H	-0.4737109762	 1.8665788173	 0.5644882549	 0.116813
H	 0.2660349997	-0.5849165682	-1.1478703004	 0.104876
H	 0.5653252716	-0.4386047862	 0.573354818	 0.101114
H	-1.9081169919	-0.238807903	 0.9865839641	 0.108065
H	-2.2138443579	-0.4314228486	-0.7343808074	 0.110737
H	-0.8664257356	-2.5707063825	 1.0390919219	 0.100849
H	-3.0156326362	-3.8671792665	 0.6270656387	 0.12719
H	-3.6612965641	-2.466310062	-0.3681983775	 0.135843
H	-0.7143842074	-2.3804679024	-2.5530246449	 0.08395
