16
gdb 69882	2.71042	1.72058	1.21774	3.8326	73.88	-0.2448	-0.0053	0.2395	1005.2833	0.124774	-396.845469	-396.837766	-396.836822	-396.87736	30.374	
N	-0.0370521284	 1.4180036095	-0.1641339091	-0.592482
C	 0.0142281406	 0.0090066933	-0.0781047531	 0.270106
C	-0.3940167219	-0.8800384305	-1.2166219146	-0.337817
C	-1.1082765406	-0.982506985	 0.1067615375	-0.036966
N	-0.4035610994	-1.7161780213	 1.2355301928	-0.153618
C	 0.8784258935	-2.2709947691	 0.7921537899	-0.282998
C	 0.7878533995	-0.803631191	 1.0240934546	 0.08821
C	 1.429288888	-0.1272480849	 2.1090728566	 0.235807
N	 1.9591113434	 0.4765046913	 2.9428084858	-0.344608
H	-0.1234976594	 1.8496216014	 0.7511029545	 0.249466
H	 0.7934709942	 1.7982463414	-0.6081611714	 0.241525
H	-0.9850189876	-0.3441172926	-1.952482501	 0.139417
H	 0.2344077197	-1.6533893909	-1.6424376219	 0.119701
H	-2.1736206998	-0.8358236513	 0.220388522	 0.121318
H	 1.3637367633	-2.852764121	 1.5708385446	 0.148427
H	 1.0091592248	-2.6659789593	-0.2080063873	 0.134512
