18
gdb 75961	2.20232	1.91406	1.06315	1.842	75.04	-0.2463	0.0052	0.2515	1105.1656	0.150864	-435.332278	-435.324015	-435.323071	-435.365192	31.198	
C	-0.0224489955	 1.4194749811	 0.2022710297	-0.370864
N	-0.0195026152	-0.0271057978	 0.0186318066	-0.176307
C	-1.2463537357	-0.7025581082	-0.0330750067	 0.375152
N	-2.3924382572	-0.1810441844	 0.1660348951	-0.527467
C	-1.1613680434	-2.1643837833	-0.4054073612	-0.259666
C	 0.0715603402	-2.8174386866	 0.2050392371	-0.180793
N	 1.2246662249	-2.0172933805	-0.1664523695	-0.353324
C	 1.2412813121	-0.6498506063	-0.1009086155	 0.473147
O	 2.2746534073	-0.0092049951	-0.1491978167	-0.404169
H	 1.0081170238	 1.7601603114	 0.1371300704	 0.177942
H	-0.6189831737	 1.9033457749	-0.5780991561	 0.134803
H	-0.4345343739	 1.689379097	 1.1810894964	 0.132583
H	-2.3373630272	 0.8142708829	 0.3766152796	 0.214848
H	-2.0838655193	-2.6475507222	-0.0839215592	 0.137815
H	-1.0992895224	-2.2402959034	-1.4979747457	 0.132311
H	-0.036651225	-2.8942670802	 1.2978429744	 0.11576
H	 0.2062091509	-3.8298562389	-0.1849770286	 0.120611
H	 2.1478837092	-2.4156780904	-0.09891439	 0.257617
