21
gdb 75243	3.58291	1.15731	1.00661	1.6623	85.1	-0.2308	0.0319	0.2627	1265.0869	0.183034	-387.099244	-387.090724	-387.089779	-387.132168	33.406	
C	-0.0008842123	 1.5404997265	 0.0548220239	-0.475887
C	-0.0194519826	 0.0385322091	-0.025754374	 0.317448
C	-0.0728067553	-0.6138239793	-1.1899016888	-0.138431
C	-0.0551013031	-2.1148933197	-1.3336024988	-0.325421
C	 0.2358006815	-2.8141182021	-0.0186576151	 0.431545
C	 0.6321691063	-4.225269482	 0.003306301	-0.249004
O	 1.6092537613	-3.1962921911	 0.1862760423	-0.280347
C	-0.4160610845	-2.15961273	 1.1787762694	-0.287219
C	 0.0505976404	-0.700650561	 1.2935726842	-0.286892
H	 0.8943352946	 1.8951631328	 0.5824679086	 0.123406
H	-0.013781173	 2.0012694969	-0.9366042447	 0.118119
H	-0.8625351123	 1.9187889737	 0.6203262344	 0.119389
H	-0.1249486438	-0.0451266802	-2.1162554387	 0.075396
H	-1.0203963841	-2.4635367098	-1.7317129591	 0.107848
H	 0.7029308885	-2.4194885567	-2.0652819432	 0.116448
H	 0.4214724831	-4.8341773909	 0.8824443183	 0.106796
H	 0.7092971992	-4.7805966163	-0.9316447938	 0.106441
H	-1.5056086745	-2.1875745854	 1.0495769072	 0.101258
H	-0.1752258107	-2.7163848386	 2.0891556326	 0.099956
H	 1.0848013223	-0.6767763934	 1.665767082	 0.123139
H	-0.5489859711	-0.1737217227	 2.0463982722	 0.096014
