20
gdb 107915	3.87862	1.13428	1.11482	1.3694	78.5	-0.242	0.0641	0.3061	1199.8091	0.171236	-403.096375	-403.087907	-403.086963	-403.129439	32.706	
C	 0.2312718297	 1.4786553255	-0.1660526691	-0.382912
C	-0.0856224249	 0.0065480267	 0.1223703842	-0.296979
C	 0.5495428645	-0.5126626124	 1.3813329546	 0.357606
C	 0.543392562	 0.114329035	 2.7720453666	-0.291791
C	 1.7929492793	-0.7492775705	 2.9960716214	-0.066531
C	 1.2992655368	-2.2158527428	 2.9720032247	 0.132589
O	 0.2256344292	-2.6209985806	 3.7879239316	-0.437499
C	 0.980194721	-1.9375620581	 1.5249714543	-0.121436
N	 2.0223698144	-0.8378614162	 1.4553111425	-0.207504
H	 1.31241067	 1.6347103226	-0.2274837265	 0.133379
H	-0.2144564771	 1.7934687654	-1.114226415	 0.111538
H	-0.1608017872	 2.1351211987	 0.6174483988	 0.116121
H	-1.1721798187	-0.1387109268	 0.1900870183	 0.10507
H	 0.2567195765	-0.6124065706	-0.7158489648	 0.105913
H	 0.7966152372	 1.1762527514	 2.7261621926	 0.104423
H	-0.3166152408	-0.0489066258	 3.4273209052	 0.107183
H	 2.6101545184	-0.4301785618	 3.6407174264	 0.075166
H	 2.150805488	-2.9050267836	 3.0425840085	 0.080773
H	 0.5766301574	-2.9081609431	 4.6366299314	 0.284911
H	 0.8666536345	-2.6556950431	 0.7205621444	 0.089979
