20
gdb 87813	2.77681	1.50984	1.27367	1.3278	78.98	-0.2252	0.078	0.3032	1075.9031	0.170365	-403.079055	-403.070418	-403.069474	-403.112092	33.51	
C	-0.2310800289	 1.4219009821	 0.1208114072	-0.3164
N	-0.0056501963	-0.0177510501	 0.1448016853	-0.140578
C	 1.3688702995	-0.4664609856	-0.1060863043	-0.339398
C	 0.781182562	-0.5507281408	 1.250170915	 0.396931
C	 1.253567952	 0.1665445417	 2.5349049331	-0.320474
C	 0.8175219376	-1.0721076571	 3.3318765006	-0.096652
C	-0.6220310148	-1.3874746204	 3.0712871775	 0.117618
O	-1.5531518575	-0.3622148588	 2.8620886305	-0.431451
C	 0.3776029464	-1.7849764051	 2.026851345	-0.218588
H	 0.6422568495	 2.0141501415	 0.4383785448	 0.102229
H	-0.4974980567	 1.7272980957	-0.8960794613	 0.119715
H	-1.0645608611	 1.6663276468	 0.786782302	 0.126134
H	 1.4744493619	-1.3548564208	-0.724604174	 0.112464
H	 2.1287993478	 0.2968368965	-0.273980208	 0.105126
H	 2.3340224481	 0.3266254319	 2.5565244582	 0.105116
H	 0.7406895927	 1.0958737434	 2.7943192521	 0.114258
H	 1.3494389142	-1.4821605519	 4.1811981299	 0.090348
H	-1.0074618258	-2.219803973	 3.6609436704	 0.088323
H	-1.9453663154	-0.505001668	 1.9939123733	 0.297544
H	 0.5159397347	-2.8102011678	 1.7037816727	 0.087734
