18
gdb 14095	3.13834	1.70979	1.49917	2.28	68.69	-0.2246	0.0625	0.2872	941.5167	0.152249	-384.900995	-384.892623	-384.891678	-384.933727	30.907	
C	-0.085845366	 1.4662900054	 0.010345171	-0.404627
C	 0.0439047084	-0.0398087265	-0.000434512	-0.0637
C	 1.4155700321	-0.6910101307	-0.1492713371	-0.377687
C	 0.6899966576	-0.7416040555	 1.1522476644	 0.442752
O	 1.1483432893	-0.0483026666	 2.3173996184	-0.306055
C	 0.4604800747	-0.9892304242	 3.1748788109	-0.104181
C	 0.1347414414	-1.9011566282	 1.964377411	-0.026552
O	-1.2122803872	-2.1961763783	 1.6902386218	-0.424058
H	 0.7194901453	 1.920785206	 0.5941943693	 0.129878
H	-0.0492248721	 1.8757264484	-1.0048125641	 0.113248
H	-1.0342315873	 1.7740491351	 0.463558086	 0.118649
H	-0.7849316106	-0.5803112513	-0.4499102994	 0.099039
H	 1.5104357509	-1.602705573	-0.7312526444	 0.110171
H	 2.2755363343	-0.0296265249	-0.1963055659	 0.118764
H	 1.1212992485	-1.3888476395	 3.951299891	 0.100656
H	-0.4397993611	-0.5557884975	 3.6275739829	 0.104935
H	 0.7609977564	-2.8016247774	 1.9240345183	 0.079543
H	-1.4386792245	-3.0255560113	 2.1213267079	 0.289228
