23
gdb 40919	3.66044	1.21745	1.12473	0.1027	88.84	-0.2513	0.0822	0.3335	1210.2049	0.207552	-351.119744	-351.111612	-351.110668	-351.152851	32.645	
C	 0.28270757	 1.4375381357	-0.5941653587	-0.21288
C	 1.5274119061	 1.5730374324	 0.3240555549	-0.282207
C	 1.2608481498	 0.1357991636	 0.8442111363	 0.408413
C	-0.1868152559	 0.251746185	 0.2890348694	-0.286926
C	 2.1116698851	-1.0599433845	 0.3091315315	-0.311255
C	 2.2354970505	-1.6284263508	 1.7510484199	-0.00114
C	 3.5280766576	-1.2228027504	 2.4988317832	-0.218518
C	 2.8634395899	 0.1250601445	 2.9149807489	-0.233712
C	 1.5141094033	-0.3395698576	 2.2893379326	-0.109586
H	-0.3818479917	 2.3006906281	-0.6769164548	 0.093791
H	 0.5540952159	 1.1132869802	-1.6026116404	 0.101911
H	 2.4936236485	 1.765102033	-0.1513879833	 0.090378
H	 1.3727547332	 2.3204353797	 1.1097532249	 0.097025
H	-0.8865695597	 0.577454892	 1.0663394061	 0.094615
H	-0.6069281003	-0.6267309767	-0.2096547113	 0.091712
H	 1.5819343149	-1.706211525	-0.3967653316	 0.095699
H	 3.0694170668	-0.7783597593	-0.1421788058	 0.090022
H	 1.8569146765	-2.6397632126	 1.9053237204	 0.058418
H	 3.7386298788	-1.8649686446	 3.3584831259	 0.096492
H	 4.4365198816	-1.1610697392	 1.8912732138	 0.090707
H	 2.8272695158	 0.2921745543	 3.9939453835	 0.09739
H	 3.2890433481	 1.0199193033	 2.4515503126	 0.098486
H	 0.6503345853	-0.3605598311	 2.958079222	 0.051162
