18
gdb 70951	3.44123	1.3886	1.19311	2.8774	79.17	-0.261	0.009	0.27	1080.2151	0.147176	-401.828353	-401.820793	-401.819849	-401.859982	30.602	
C	 0.1445933938	 1.5658172571	-0.0427998169	-0.502889
C	 0.0407636578	 0.0650213888	-0.0065708382	 0.284528
C	 0.5779650746	-0.9518503821	-1.1544596504	-0.334933
C	-0.0795797561	-1.7731648024	-0.0184833152	 0.390445
C	 0.6567195332	-0.9037940269	 1.0265656055	-0.304992
O	-0.8592305518	-2.9103395386	 0.4671166845	-0.326649
C	-1.8307780246	-1.9557000641	 0.8931302714	 0.354851
N	-2.8164365508	-2.1199904027	 1.6443034203	-0.540616
C	-1.2648327964	-0.8442333783	-0.0080840632	-0.178447
H	 1.1907973411	 1.8808848296	-0.1219560199	 0.125276
H	-0.4021221501	 1.9805063905	-0.895401581	 0.127349
H	-0.2725972675	 1.9981460138	 0.8719212516	 0.136285
H	 0.0533555338	-0.9190650574	-2.1106887777	 0.113886
H	 1.6636100814	-0.9994264539	-1.2749308824	 0.106844
H	 1.7460829956	-0.9720403084	 1.0543104338	 0.09635
H	 0.2178246785	-0.8817689576	 2.0263773261	 0.113869
H	-2.8810130492	-3.0870563887	 1.9687856625	 0.235752
H	-1.8425223233	-0.8022993286	-0.9351626509	 0.103092
