17
gdb 102434	3.61707	0.64686	0.56695	2.5444	77.71	-0.2645	-0.0647	0.1997	1852.2779	0.133271	-458.927474	-458.917149	-458.916205	-458.964729	34.891	
O	 0.2253750878	 1.374437069	 0.0684010094	-0.419383
C	 0.100233298	-0.0142718386	-0.097988954	-0.052153
C	-1.3759661652	-0.4958683824	 0.0208563194	-0.214105
C	-2.2168576245	-0.0895431432	-1.2031065908	-0.08279
O	-2.1655807111	 1.3301688148	-1.3223458785	-0.423596
C	-1.436222846	-1.9379496132	 0.2016836086	 0.077453
C	-1.4635814432	-3.1408753625	 0.3149040251	 0.050513
C	-1.4858163207	-4.5699903246	 0.4926998408	 0.019918
O	-1.9939871694	-5.3485746916	-0.2815252743	-0.229032
H	-0.4078093501	 1.7829217183	-0.5372368216	 0.293226
H	 0.5006617427	-0.3612326555	-1.0653698944	 0.093937
H	 0.6937939756	-0.4869071689	 0.6897995198	 0.119524
H	-1.7950016656	-0.0036486554	 0.9087886486	 0.134611
H	-1.8039576505	-0.5782162593	-2.0971113493	 0.113172
H	-3.2509872585	-0.4354713951	-1.0742908653	 0.116342
H	-2.5875288551	 1.5867984999	-2.1473985935	 0.301093
H	-0.9875171342	-4.9191744616	 1.41981097	 0.101272
