19
gdb 80749	3.75294	1.17728	1.13626	2.9932	75.17	-0.2343	-0.0234	0.2109	1152.8029	0.158766	-423.020513	-423.012088	-423.011144	-423.053942	31.445	
C	-0.6893309292	 1.1141368168	 0.1707197126	-0.412965
C	 0.0831651313	-0.1681710051	-0.0358187251	-0.038427
C	 0.9067245615	-0.4688596115	-1.2844643509	-0.086517
C	 1.3208469577	 0.6863675096	-2.1942457081	-0.288782
C	 2.4753353073	 1.3467816779	-1.3835505717	 0.020682
O	 2.2588446365	 1.0127216317	-0.0254220921	-0.246197
C	 1.5877145305	-0.2258863679	 0.0342932576	 0.076053
C	 3.8215579136	 0.8407090064	-1.888904175	 0.152006
O	 4.5385286675	 0.0834799039	-1.2931884838	-0.232964
H	-1.5849139463	 1.1487512215	-0.4591589767	 0.115241
H	-1.0125051039	 1.1977217363	 1.2134750624	 0.122634
H	-0.0786534323	 1.9932891034	-0.0472666473	 0.128453
H	-0.407788028	-1.0519135209	 0.3661661144	 0.087584
H	 0.85010243	-1.4621131659	-1.7129167094	 0.094812
H	 1.6567834748	 0.3238117247	-3.1704649053	 0.113381
H	 0.5144023787	 1.402644581	-2.3739932765	 0.116868
H	 2.4705711753	 2.4406811134	-1.475547256	 0.100191
H	 2.1177723722	-0.9891447106	 0.5929097242	 0.106735
H	 4.0858732128	 1.2222322353	-2.9052717433	 0.07121
