17
gdb 32328	3.25885	1.21335	0.90019	2.5239	71.21	-0.1908	0.0356	0.2264	1238.1168	0.136427	-455.196137	-455.187039	-455.186095	-455.230146	32.69	
C	-0.0019762343	 1.4343903755	 0.0368234303	-0.352201
N	 0.0422962788	-0.0102141866	 0.0625422945	-0.163248
C	-0.0397565074	-0.7665723624	-1.1082548333	 0.453072
O	-0.1549114435	-0.3584488037	-2.249798732	-0.445152
N	 0.0363383512	-2.0732883475	-0.6575467438	-0.358561
C	 0.1566417256	-2.1203343542	 0.729538825	-0.185195
C	 0.1613824894	-0.84550105	 1.1770795105	 0.245767
C	 0.2677662751	-0.3440562374	 2.5838867374	-0.16154
O	 0.0426135715	-1.3741441062	 3.5272288782	-0.402368
H	 0.9015725812	 1.8718504173	 0.4748602532	 0.131554
H	-0.0682022229	 1.7255416727	-1.0131063467	 0.173782
H	-0.8767688923	 1.8226981874	 0.570215703	 0.130782
H	-0.0121630347	-2.8543132607	-1.2865351152	 0.268246
H	 0.2531437178	-3.0412641864	 1.2760411582	 0.147348
H	 1.2762689145	 0.0337318831	 2.7957887374	 0.132172
H	-0.4189630025	 0.5058823379	 2.7336447587	 0.101542
H	-0.8339292673	-1.7339992288	 3.3507093848	 0.283999
