18
gdb 92926	2.92131	1.21587	0.90984	2.6503	73.6	-0.2455	-0.0261	0.2194	1262.3007	0.147274	-439.115379	-439.106808	-439.105864	-439.149134	31.355	
C	 0.2389080547	 1.5395428729	 0.0841357483	-0.403133
C	 0.0840008755	 0.0370966331	-0.0743830118	 0.12697
C	 0.9778546336	-0.5723271431	-1.149228698	-0.227157
C	 0.8651763841	-2.0970977653	-1.0903857998	-0.068387
C	 1.9067819394	-2.8035674778	-1.95240649	 0.154577
O	 2.502671888	-2.2812195596	-2.8576724244	-0.248691
N	 0.9610430496	-2.6385470418	 0.2609652206	-0.292473
C	 0.7507751025	-1.8487168926	 1.2278428217	 0.136016
O	 0.38437525	-0.550791972	 1.2161948792	-0.237843
H	 1.2784712797	 1.7972370248	 0.3072932071	 0.130659
H	-0.0551042143	 2.0466897313	-0.8395171009	 0.124402
H	-0.3911898985	 1.9066153191	 0.8985042092	 0.131096
H	-0.965763518	-0.2055398772	-0.2914163356	 0.091536
H	 0.6989992695	-0.1938338194	-2.1358874444	 0.12212
H	 2.0183210613	-0.2768302608	-0.9742329762	 0.121179
H	-0.1039021577	-2.4171110525	-1.5127835928	 0.11178
H	 2.0638969494	-3.8663563571	-1.6688568779	 0.097698
H	 0.8636600214	-2.193172512	 2.2545003457	 0.129652
