21
gdb 33152	4.76676	0.78304	0.71481	3.7815	86.51	-0.2102	0.0381	0.2483	1670.0761	0.18318	-383.323722	-383.314051	-383.313106	-383.359294	34.651	
C	 0.0898046085	 1.53071966	-0.0255240455	-0.380959
C	 0.0345566852	 0.002018871	 0.0172972831	-0.168348
C	-1.4062243051	-0.5244155476	 0.0079072419	-0.162587
N	-1.4918490324	-1.9743906921	 0.0415535108	 0.028022
C	-1.7462068479	-2.8032026485	-1.0099725402	-0.007926
N	-1.7077857955	-4.0713667958	-0.6713850144	-0.324182
C	-1.4080505556	-4.0828951249	 0.6752583647	 0.278582
C	-1.2822678158	-5.360535196	 1.4402712405	-0.484998
C	-1.2695457679	-2.7953019952	 1.1300187248	-0.21403
H	 1.1237617711	 1.886594168	-0.0160990385	 0.123116
H	-0.3879536555	 1.9220080251	-0.930587481	 0.119454
H	-0.4219795976	 1.9728926246	 0.8364641124	 0.119174
H	 0.5694735011	-0.4227816407	-0.8399394162	 0.113218
H	 0.5436298337	-0.3684557912	 0.914522357	 0.110701
H	-1.9612955121	-0.1197023882	 0.8623422007	 0.11965
H	-1.9236113825	-0.1860752217	-0.896008069	 0.119951
H	-1.9590050774	-2.4153589868	-1.9962485514	 0.119397
H	-1.0364766362	-5.1697340572	 2.4886973256	 0.112437
H	-2.2148784258	-5.9343265442	 1.4073008698	 0.130881
H	-0.4988787098	-5.9982500684	 1.0164145395	 0.130784
H	-1.0469514126	-2.3920584602	 2.1048202452	 0.117662
