17
gdb 37730	3.15652	2.10734	1.68941	1.9599	69.21	-0.2411	0.0836	0.3248	829.7277	0.139964	-421.782204	-421.776431	-421.775486	-421.812164	24.773	
C	 0.0071174994	 1.5216421294	 0.1683201071	-0.086414
O	 1.2366425334	 2.1601173592	-0.1636218489	-0.276477
C	 2.2221423994	 1.3136899138	-0.6653389224	 0.125994
C	 1.9586984818	 0.2932406118	-1.8065046987	 0.00405
O	 3.1216369044	-0.4394051318	-1.293346009	-0.29575
C	 2.6163291504	-0.0235525739	 0.0197641342	 0.004052
C	 1.2820704787	-0.778609154	 0.1322613486	-0.076501
C	 0.0331190102	 0.0368117699	-0.0985869238	-0.080013
C	 0.7716052896	-0.5327108838	-1.2853295788	-0.076501
H	-0.2030582172	 1.710179277	 1.2308414927	 0.103161
H	-0.7955140633	 1.9955815058	-0.4146367085	 0.103159
H	 3.1007277837	 1.9205807247	-0.8764420874	 0.105549
H	 2.016661496	 0.5320340352	-2.8673583663	 0.080034
H	 3.3458230744	-0.1082541413	 0.8237893657	 0.080034
H	 1.2398999256	-1.7509235065	 0.6064420982	 0.09597
H	-0.9006437271	-0.4610179839	 0.151302883	 0.093685
H	 0.3396778605	-1.3172713615	-1.8935438158	 0.09597
