19
gdb 37734	3.42429	1.86518	1.46154	1.2138	78.87	-0.2432	0.0944	0.3376	922.7607	0.16224	-385.810209	-385.803853	-385.802909	-385.840559	27.077	
C	-0.0785181941	 1.6037614306	 0.0003872595	-0.345617
C	 1.4381414297	 1.2570101395	-0.003465925	-0.076055
C	 1.2229165339	 0.0287180971	 0.9328068078	-0.058979
C	 1.8741285742	-1.0008244586	-0.0108849385	-0.078985
C	 1.1366537927	-2.3475671595	-0.0091755395	-0.088301
O	-0.2052019655	-2.2529180356	-0.488088977	-0.261877
C	-0.9532971644	-1.118878754	-0.0442133955	-0.20992
C	-0.0261880896	 0.0640740831	-0.0128142543	 0.331811
C	 1.2282008381	 0.037465547	-0.9575841839	-0.054204
H	-0.47130789	 2.079365501	 0.9053579385	 0.09341
H	-0.4766405271	 2.0944631479	-0.8942385762	 0.09412
H	 2.2899061683	 1.9388322758	 0.0020077854	 0.069688
H	 1.1864427001	 0.037364502	 2.0247055786	 0.064532
H	 2.9632896187	-1.1153564232	 0.0033916068	 0.05869
H	 1.6214964074	-3.064309715	-0.68001806	 0.108002
H	 1.1559757891	-2.7790554355	 1.0070487183	 0.085403
H	-1.7683840149	-0.9998371936	-0.766621776	 0.109124
H	-1.401798507	-1.3040422473	 0.9462299883	 0.087815
H	 1.1983251004	 0.0589292584	-2.0480263873	 0.071343
