17
gdb 82125	3.13946	1.17818	0.98466	6.1329	72.15	-0.2517	0.0351	0.2869	1193.4587	0.136041	-417.965705	-417.957249	-417.956305	-417.999474	31.115	
O	-0.0092201646	 1.468822079	-0.0440568771	-0.426009
C	 0.0095194299	 0.0579520135	-0.0495113018	 0.060207
C	-1.3252600276	-0.6847611634	 0.0555632434	-0.062346
C	-2.2212499788	-0.28097047	-1.0423075687	-0.247518
N	-1.1811066824	-1.2809589914	-1.3431802835	-0.126147
C	 0.1305798283	-0.5499264729	-1.4720224605	 0.025764
C	 0.3072120473	 0.4084283287	-2.6534455539	-0.352807
C	 0.2902737656	-0.2863119857	-3.9389692798	 0.264536
N	 0.2851223103	-0.8353381921	-4.9554959429	-0.305062
H	-0.1881517648	 1.7750838261	 0.8511592839	 0.290649
H	 0.7704927431	-0.3331684928	 0.6363053087	 0.084971
H	-1.6462678187	-1.2912265425	 0.8958627213	 0.100223
H	-3.2164862491	-0.7125839196	-1.0585111238	 0.132364
H	-2.1574750817	 0.7266418281	-1.4417673437	 0.126969
H	 0.9159029848	-1.3080041657	-1.5102324974	 0.110447
H	-0.4593284271	 1.1872789852	-2.6554116592	 0.161206
H	 1.2660823654	 0.9271576455	-2.543201505	 0.162554
