18
gdb 14572	13.23166	0.6034	0.58538	0.0008	80.64	-0.2586	0.0519	0.3106	1815.4455	0.150587	-310.607973	-310.59836	-310.597416	-310.642949	34.071	
C	-0.0197509808	-1.2496293383	-0.0044679647	-0.434658
C	-0.0352131054	-0.0477296226	 0.0024377075	 0.291475
C	-0.0189562059	 1.4099499112	 0.0106536081	-0.361079
C	 1.4068618298	 1.9971765102	-0.0008683121	-0.174041
C	 1.4072769853	 3.5273996244	 0.007883433	-0.174026
C	 2.8330913492	 4.114625272	-0.0036127263	-0.361104
C	 2.8492778668	 5.5723017055	 0.0046326644	 0.291608
C	 2.8342579636	 6.7742080207	 0.011501861	-0.434772
H	-0.0196635547	-2.31124669	-0.0104271367	 0.193815
H	-0.5754978482	 1.7862200986	-0.857957592	 0.131111
H	-0.5571832055	 1.7761497328	 0.8949666809	 0.131118
H	 1.9549105294	 1.6159401435	 0.8690265886	 0.111125
H	 1.9365925316	 1.6259814127	-0.8863143929	 0.111123
H	 0.85924885	 3.9086445604	-0.8620201886	 0.111123
H	 0.8775372736	 3.8986002133	 0.8933222128	 0.111124
H	 3.3896139155	 3.738356027	 0.8650107737	 0.131112
H	 3.371337969	 3.7484122927	-0.8879113709	 0.131124
H	 2.8344804266	 7.8358296858	 0.0167145141	 0.193821
