19
gdb 90512	2.72646	1.29348	1.05092	1.3961	80.5	-0.2356	0.0581	0.2936	1193.3447	0.157622	-385.811915	-385.803113	-385.802168	-385.845417	33.665	
C	 1.014931484	 2.0408553032	 2.9981796095	-0.421192
C	 0.5213951268	 0.6700049871	 2.581700305	 0.154277
O	 0.0213771363	 0.5759083176	 1.2080347646	-0.304796
C	 0.7239516335	-0.6569848536	 1.0251184624	 0.05752
C	 2.200668523	-0.4374321491	 1.0257875264	-0.020633
C	 2.8500456744	 0.7895300387	 0.3969048287	-0.397822
C	 4.0302291178	 1.2646583327	 1.1104104296	 0.325185
C	 4.9993413177	 1.644187193	 1.7125699872	-0.470486
C	 1.453032183	-0.5199984338	 2.3484002385	-0.166905
H	 0.2258464093	 2.7834355406	 2.8395832517	 0.126348
H	 1.2527564288	 2.0287684758	 4.0674481696	 0.119858
H	 1.9102621117	 2.354001737	 2.459693974	 0.140161
H	-0.2946595097	 0.3595632536	 3.2488519583	 0.08474
H	 0.1915057274	-1.4749988639	 0.5526163686	 0.102974
H	 2.7570293749	-1.358171146	 0.8605389959	 0.100526
H	 3.1273911934	 0.5402536018	-0.6357593286	 0.129421
H	 2.1039267572	 1.5871772632	 0.3250214842	 0.149202
H	 5.8579763873	 1.9850303805	 2.235718225	 0.194186
H	 1.6987313834	-1.2671360486	 3.0911750395	 0.097436
