20
gdb 8922	3.44854	1.31506	1.02148	1.0641	77.61	-0.251	0.056	0.307	1191.1236	0.173348	-348.968593	-348.958457	-348.957513	-349.003509	36.273	
C	 0.0392248314	 1.3779599959	 0.1201904534	-0.237893
O	-0.0684102982	-0.0136614463	-0.0665129794	-0.245809
C	 0.6564151433	-0.5276724407	-1.1761685088	 0.145208
C	 2.1491185511	-0.6439587512	-0.8651531083	-0.411274
C	 0.0041265985	-1.8942980345	-1.5047694263	-0.154535
C	-1.5031230215	-1.7518455745	-1.7962801123	-0.396569
C	 0.6836861475	-2.5527053575	-2.6185388766	 0.321774
C	 1.2142677046	-3.086524081	-3.5565158864	-0.479009
H	 1.0571418245	 1.6924689091	 0.3921225587	 0.1085
H	-0.2632551351	 1.9332684532	-0.7814443901	 0.105049
H	-0.6337932065	 1.6444509803	 0.9391594611	 0.127491
H	 0.511752654	 0.1367513134	-2.0448823376	 0.070423
H	 2.3031466654	-1.2929439154	 0.003104904	 0.121058
H	 2.686865	-1.0658842428	-1.7171425724	 0.135604
H	 2.5832553441	 0.3345147207	-0.6415947601	 0.113372
H	 0.123725391	-2.5165952072	-0.6066504361	 0.110839
H	-1.9528858964	-2.7319954506	-1.9730095081	 0.120646
H	-1.9993852345	-1.2751931138	-0.9499607964	 0.133191
H	-1.6646273354	-1.1407918899	-2.6900054728	 0.118557
H	 1.6889565022	-3.5666069374	-4.3760157755	 0.193377
