15
gdb 5721	4.9417	1.96407	1.43098	3.3571	67.31	-0.2081	0.0358	0.2439	825.5561	0.122156	-362.687351	-362.680898	-362.679954	-362.718831	24.292	
C	-0.0424052548	 1.5128399522	 0.0941836144	-0.190586
O	 1.2429509358	 1.9510666208	-0.3744365209	-0.283513
C	 2.1352868049	 0.8546747698	-0.6302677438	-0.190586
C	 1.306087569	-0.3687496089	-0.4069538163	 0.228246
C	 1.3430972941	-1.7389194411	-0.4599361412	-0.24103
N	 0.0962872373	-2.1787866541	-0.0693158061	-0.235169
C	-0.7264593579	-1.113436121	 0.2285417525	-0.24103
C	 0.0164607074	 0.021015076	 0.0220654635	 0.228246
H	-0.2053544034	 1.8891669577	 1.1156509621	 0.103296
H	-0.8180973608	 1.9552237477	-0.5466607966	 0.106851
H	 2.5179934949	 0.9469549748	-1.6564759053	 0.106851
H	 2.9981135113	 0.9209809294	 0.0499554233	 0.103296
H	 2.1163053178	-2.4387520882	-0.7321888948	 0.122268
H	-0.1783932993	-3.1442373217	-0.0178888199	 0.26059
H	-1.742399574	-1.2725334811	 0.5514836218	 0.122268
