21
gdb 98595	2.85057	1.02966	0.98252	1.3449	81.19	-0.2634	0.0142	0.2776	1370.4257	0.180788	-424.257867	-424.24753	-424.246586	-424.293495	36.804	
C	-1.1653753144	 1.3002540855	-1.9584594101	-0.239012
O	-1.1880194174	-0.1082896843	-1.7068071436	-0.23835
C	-1.7298930637	-0.474158434	-0.5208076576	 0.459554
O	-2.1647187751	 0.3328604852	 0.2712690866	-0.38244
C	-1.6943229427	-1.9485973801	-0.3813075481	-0.177426
C	-1.4659076198	-2.6208976396	 0.9782998671	-0.021675
C	-1.1957261209	-1.8405325334	 2.2465030312	-0.418767
C	-2.8147889712	-2.7144594536	 0.333304919	-0.021675
C	-4.053754408	-2.0387920637	 0.8798828646	-0.418779
H	-0.7046571821	 1.4188767767	-2.9394890885	 0.12996
H	-2.178545869	 1.7107145806	-1.9600882601	 0.138059
H	-0.5803819095	 1.8215029201	-1.196170608	 0.138048
H	-1.2501218772	-2.4378422033	-1.2392834504	 0.099781
H	-0.8595634969	-3.5194869099	 0.8907858282	 0.090791
H	-1.7269195038	-0.8894095228	 2.2655259739	 0.156806
H	-1.4944502528	-2.4281701229	 3.1216794117	 0.113351
H	-0.1259824956	-1.6256378465	 2.3421988972	 0.115409
H	-3.0226761433	-3.6695244593	-0.1435688487	 0.090789
H	-3.8454241556	-1.0362631947	 1.2523097514	 0.156817
H	-4.8170133587	-1.9512905975	 0.0991989601	 0.115407
H	-4.4804176824	-2.6351803623	 1.6939878139	 0.11335
