18
gdb 70699	2.26082	1.91695	1.25341	4.8811	71.71	-0.2494	0.0034	0.2527	1032.1999	0.148897	-439.103984	-439.095949	-439.095005	-439.136501	30.747	
C	 0.1078309818	 1.5380949586	-0.0012290802	-0.469654
C	 0.1234612836	 0.0282341764	 0.0058906493	 0.145748
N	-0.8107428281	-0.7105606255	 0.8937190845	-0.347344
C	 0.6309180729	-0.7507377232	 1.1720310129	-0.090411
C	 1.2996794662	-2.0914141683	 0.9097930991	-0.225409
C	 1.8356678546	-2.1275632008	-0.5157107625	-0.079542
O	 0.8409214246	-1.7758954011	-1.4945539285	-0.232561
C	 0.1735021591	-0.6045330612	-1.3688228636	 0.432738
O	-0.3855221294	-0.1274563634	-2.3186190779	-0.334489
H	 1.0291650308	 1.9422332663	-0.433274995	 0.130965
H	-0.7274811671	 1.9029264065	-0.6042887094	 0.154353
H	 0.0123836344	 1.9262196074	 1.0178888065	 0.109865
H	-1.2785806432	-0.0434969444	 1.5041891004	 0.234868
H	 0.997209285	-0.1709947693	 2.0159663859	 0.091549
H	 2.1306112357	-2.257902414	 1.6032670659	 0.108153
H	 0.5709065604	-2.8933559885	 1.0590319628	 0.131402
H	 2.6880470947	-1.4440046572	-0.6233798727	 0.112563
H	 2.1679473239	-3.1278813083	-0.8010453476	 0.127205
