16
gdb 117617	2.14958	1.09561	0.9187	3.9071	69.64	-0.288	-0.0255	0.2625	1313.0458	0.122669	-434.059873	-434.049808	-434.048864	-434.095161	35.068	
N	-0.1094596341	 1.4841464662	 0.2047907155	-0.513994
C	-0.0002914129	 0.0354283527	-0.0091837269	-0.094109
C	 0.7219270137	-0.413049573	-1.3200810627	-0.22496
C	 0.0391151091	 0.0654145715	-2.6076808869	-0.091234
O	 0.7899434354	-0.2933513031	-3.7507275012	-0.408199
C	 0.7516732121	-0.5313273978	 1.1339493237	 0.334883
N	 1.3916090933	-0.9702112158	 1.9884325685	-0.315683
C	-1.3695456315	-0.5291842348	 0.0086333556	 0.331609
N	-2.4366698133	-0.9670918034	-0.0363398849	-0.322496
H	 0.812298301	 1.9067369352	 0.1435289801	 0.254971
H	-0.6972249741	 1.900038935	-0.5101546019	 0.257959
H	 1.7437914332	-0.0218355306	-1.2841795576	 0.133714
H	 0.7925011857	-1.5069360432	-1.3227282024	 0.130003
H	-0.9910246052	-0.3152598776	-2.6570910533	 0.124946
H	-0.0143894729	 1.1589519221	-2.6228753515	 0.111126
H	 0.7111810606	-1.2442525834	-3.878018624	 0.291464
