17
gdb 5795	5.89961	1.44587	1.2805	2.0297	75.05	-0.201	0.0444	0.2455	972.0397	0.144278	-326.740004	-326.733072	-326.732128	-326.771854	26.888	
C	-0.1378867131	 1.4307673517	-0.1678273561	-0.285366
C	 1.2780347409	 0.9574860787	 0.0820290065	-0.285262
C	 0.1407018926	-0.0279008315	 0.0752556559	 0.079131
N	-0.2900354135	-0.6820132276	 1.2774745521	 0.027421
C	-0.3373425103	-0.1494517545	 2.5443798439	-0.104355
C	-0.8104970238	-1.1163987047	 3.4024935232	-0.171402
C	-1.0609693634	-2.2818827187	 2.6305827705	-0.178891
C	-0.7312604889	-1.9828404251	 1.3288253488	-0.096652
H	-0.6336401126	 1.9800250915	 0.6245384365	 0.128137
H	-0.418779255	 1.737679876	-1.1691378339	 0.121177
H	 1.9775071025	 0.9368439732	-0.7462413728	 0.121166
H	 1.7262430891	 1.1909965463	 1.0411346004	 0.128145
H	 0.0667806715	-0.696969249	-0.7736563464	 0.104941
H	-0.0331088321	 0.8670422258	 2.733760376	 0.1153
H	-0.9586364346	-0.9960248879	 4.464739494	 0.091407
H	-1.438265841	-3.2287051534	 2.984819553	 0.091885
H	-0.7703616182	-2.5790218009	 0.4308798984	 0.113219
