18
gdb 111663	2.31926	1.68398	1.31747	2.6106	73.35	-0.2436	0.026	0.2696	1042.0432	0.148672	-439.077353	-439.069221	-439.068276	-439.110289	30.365	
C	-0.5339958207	 0.9660985578	-0.1392608919	-0.248066
O	 0.4687254638	-0.0101608657	 0.1080257858	-0.235015
C	 0.9288046724	-0.6211090624	-1.0447044071	 0.120132
C	 1.4403619003	-2.0160576556	-0.9416455541	-0.146932
C	 1.0132143164	-2.7875969506	 0.2974321311	-0.095744
O	-0.4209884011	-2.8626653733	 0.2717799009	-0.24146
C	-0.9327745258	-2.3619746567	-0.8909467082	 0.436959
N	-2.1521926959	-2.4176654827	-1.2225943816	-0.560837
C	 0.1517299777	-1.7516880818	-1.7073043835	-0.194628
H	-0.1518002098	 1.7727123936	-0.7818362303	 0.10782
H	-1.4157074175	 0.5183994962	-0.6133179877	 0.141491
H	-0.8126001955	 1.3848832301	 0.8297452413	 0.131409
H	 1.4439202204	 0.0452732969	-1.7391224753	 0.094835
H	 2.3654384938	-2.2945367983	-1.4310184387	 0.106112
H	 1.4175476712	-3.8055772806	 0.2865013459	 0.114665
H	 1.3056401672	-2.2942770162	 1.2284712804	 0.131657
H	-2.689354391	-2.9171728053	-0.5119674397	 0.220716
H	 0.0561016742	-1.7845623954	-2.7838375473	 0.116885
