19
gdb 86717	3.29573	1.11312	0.94273	2.3732	75.71	-0.2414	-0.0199	0.2215	1251.1952	0.159633	-423.030327	-423.021928	-423.020984	-423.063732	31.971	
O	-0.0661419006	 1.4582453571	 0.1096417196	-0.433605
C	-0.0149626453	 0.0434507089	 0.0055444587	 0.122477
C	 0.6935763666	-0.6384115609	 1.2050169238	-0.307793
C	 0.0179273891	-2.0238780472	 1.3578739083	-0.07274
C	 0.0535150265	-2.5212856949	 2.785793557	 0.159827
O	 0.5831886794	-3.5380431227	 3.1540969781	-0.25201
C	-1.403583244	-1.7970248159	 0.8356588556	-0.062174
C	-2.1505338966	-0.570395062	 1.3083923815	-0.288105
C	-1.4142751589	-0.5399417649	-0.0043741766	-0.036253
H	 0.8284964063	 1.7987528406	 0.0093830705	 0.283468
H	 0.4878569662	-0.247687103	-0.930193038	 0.070841
H	 1.7749777548	-0.7223307822	 1.0707411036	 0.109294
H	 0.5249968341	-0.021213155	 2.0948275608	 0.116021
H	 0.5222254682	-2.7722259458	 0.7384396348	 0.092323
H	-0.4694307341	-1.8513561599	 3.5086530871	 0.070949
H	-1.97935586	-2.6694871345	 0.5489876676	 0.095611
H	-3.2325543808	-0.6143540989	 1.2610263655	 0.117706
H	-1.7731745953	 0.0157650321	 2.1382586808	 0.123308
H	-1.9852774157	-0.482191891	-0.9233918285	 0.090854
