15
gdb 22877	3.61678	1.23448	0.92575	3.3712	76.68	-0.2136	-0.0688	0.1448	1196.2448	0.112411	-453.944761	-453.936376	-453.935432	-453.977955	30.293	
C	-0.0130904197	 1.4379990555	 0.0202690634	-0.352773
N	 0.0116951957	-0.0069109194	-0.0169756125	-0.106247
C	 0.0575830832	-0.8072106675	-1.1555683468	-0.011133
C	 0.0716081512	-2.1257484992	-0.8613030219	-0.279377
C	 0.0322162286	-2.2210118502	 0.5855092298	 0.266513
N	 0.0258818095	-3.2143742389	 1.3998499876	-0.195896
O	 0.0653867072	-4.421555469	 0.7242468975	-0.364732
C	-0.0070384937	-0.8071693371	 1.1289764541	 0.375696
O	-0.0459658919	-0.4044738087	 2.2674029327	-0.360822
H	 0.8860528323	 1.8652303786	-0.4371273353	 0.134524
H	-0.8953488523	 1.8358097651	-0.4930434042	 0.134499
H	-0.0507964677	 1.7294859907	 1.0713261384	 0.172742
H	 0.077043653	-0.3332419028	-2.1276031764	 0.138978
H	 0.1050741317	-2.9477132589	-1.5549071673	 0.130202
H	 0.055897013	-5.0655438482	 1.4420905112	 0.317826
