21
gdb 109054	3.31856	1.13097	0.93222	1.41	84.95	-0.2111	0.0311	0.2422	1307.5333	0.184091	-387.090729	-387.082126	-387.081182	-387.123987	33.409	
O	 0.0232202907	 1.4541064542	-0.118429428	-0.41426
C	 0.0156770872	 0.0459623685	 0.0192975231	-0.155291
C	-1.3909809892	-0.4791456362	 0.0877141197	 0.25962
C	-2.4647497556	 0.3143713321	 0.0462063652	-0.127288
C	-3.8535490818	-0.2036116437	 0.092580379	-0.064281
C	-4.3014811287	-1.2478241453	-0.9242178333	-0.291379
C	-4.0423332757	-1.6504162961	 0.5003428379	-0.015264
C	-2.8054093386	-2.4197757735	 0.922649024	-0.217908
C	-1.5256638102	-1.9826953815	 0.1832778217	-0.317631
H	 0.9381951358	 1.745968379	-0.1464992891	 0.288258
H	 0.5408519325	-0.4390665746	-0.8245400287	 0.088555
H	 0.5561835575	-0.2677887999	 0.9314873322	 0.089152
H	-2.3266042022	 1.3869264826	-0.0339488937	 0.102001
H	-4.608895134	 0.509907719	 0.4058407079	 0.078304
H	-5.3313201186	-1.2163132802	-1.2641171679	 0.106052
H	-3.5881025918	-1.5245164105	-1.6928836863	 0.113115
H	-4.9251120234	-1.8654336173	 1.0960513845	 0.079848
H	-2.6594155029	-2.2581118105	 1.9984276904	 0.100625
H	-2.9561525345	-3.4972595956	 0.7869143898	 0.094745
H	-1.5119443205	-2.4207894911	-0.8247168565	 0.110135
H	-0.6522005659	-2.4093146491	 0.6935813983	 0.09289
