17
gdb 28937	2.8491	1.29519	1.0261	3.1358	79.57	-0.2099	0.0093	0.2191	1175.8305	0.136817	-380.917861	-380.909327	-380.908383	-380.951805	31.132	
C	-0.0764164901	 1.4927024496	 0.0714914756	-0.514817
C	-0.0185747148	 0.0043072133	-0.0334945842	 0.295552
C	-0.0286003467	-0.8168010767	-1.1368146202	-0.225917
C	 0.0327587218	-2.1666819069	-0.6883485989	-0.16022
C	 0.078010735	-2.1385480152	 0.6804758441	-0.107169
N	 0.056451203	-0.816817707	 1.080457	-0.025661
C	 0.0337562449	-0.3785930898	 2.4554425211	-0.314222
C	-1.3121031928	-0.0181980189	 2.936849751	 0.281457
N	-2.3631596225	 0.2761029575	 3.3143649966	-0.299788
H	 0.8103828152	 1.9165649276	 0.5610093269	 0.125531
H	-0.1291926137	 1.9230393507	-0.93078674	 0.141823
H	-0.9554097288	 1.8411228032	 0.6275559603	 0.146873
H	-0.0698875431	-0.477052385	-2.1608254608	 0.096454
H	 0.0503764191	-3.0537107837	-1.3023865397	 0.100759
H	 0.1257967184	-2.9301130425	 1.4115120445	 0.120276
H	 0.4293178713	-1.1785033261	 3.0877390519	 0.1701
H	 0.6890805239	 0.4883959499	 2.5902162919	 0.168968
