21
gdb 93603	2.79102	1.23343	0.90012	0.9233	96.1	-0.2148	-0.0091	0.2057	1338.1202	0.181345	-349.959136	-349.949489	-349.948545	-349.993202	36.592	
C	-0.0855883878	 1.573489098	-0.0440956332	-0.403379
C	 0.0400872442	 0.0471039668	 0.0268559683	-0.047224
C	 0.7947071087	-0.569543829	-1.1773044495	-0.22613
C	 1.5348702575	-1.8028207675	-0.6179296862	-0.324347
C	 1.6290741325	-1.4943717539	 0.8679266339	 0.099852
C	 2.4502513302	-2.2537747591	 1.735772209	 0.188879
C	 3.1666084351	-2.9222997229	 2.4393268034	-0.422301
C	 0.8125389464	-0.4831775491	 1.2232635612	 0.233149
C	 0.5958715498	 0.0366065657	 2.606965769	-0.519562
H	 0.9024585226	 2.0472149923	-0.0577260755	 0.116119
H	-0.613447244	 1.8735608176	-0.9552810005	 0.11532
H	-0.6422121331	 1.9760764198	 0.808072896	 0.114672
H	-0.9809868774	-0.3668637861	 0.076788826	 0.079153
H	 0.1317140426	-0.8098794369	-2.0127558027	 0.096025
H	 1.5268425009	 0.1594298108	-1.5435887659	 0.101571
H	 0.9677536768	-2.7304427568	-0.7737881587	 0.109988
H	 2.5162001779	-1.9578441028	-1.0771999805	 0.109916
H	 3.792889669	-3.5062683767	 3.0667068232	 0.185438
H	 1.1908937342	-0.517726819	 3.3361429674	 0.137592
H	 0.8595035893	 1.0986313092	 2.6824533861	 0.129955
H	-0.4617751754	-0.0407648705	 2.8925862691	 0.125313
