15
gdb 84419	3.29216	1.27826	0.96503	0.9873	71.42	-0.2435	-0.0383	0.2052	1151.086	0.112778	-453.972259	-453.964106	-453.963162	-454.005592	29.746	
O	 0.1600063605	 1.401758934	-0.197834733	-0.406023
C	 0.0568403942	 0.0035710251	-0.0342545062	 0.034162
C	 0.6352344234	-0.5483427056	 1.247641059	-0.205162
C	-0.2782410178	-1.2781851907	 1.8845669024	-0.003097
N	-1.5073334671	-1.3074869705	 1.1812628426	-0.128871
C	-2.6139770568	-1.9953431319	 1.6282285868	 0.156695
O	-2.6395958683	-2.641244325	 2.6493297989	-0.308329
C	-1.3981175177	-0.5137022226	 0.0042167695	 0.327734
N	-2.2663199435	-0.2186040873	-0.8643153699	-0.497826
H	-0.3011483007	 1.8237808284	 0.5360487211	 0.284097
H	 0.5545257438	-0.4172495872	-0.9159204502	 0.131746
H	 1.6498096808	-0.3729838505	 1.5720450712	 0.127219
H	-0.2280148153	-1.8331758113	 2.8089786818	 0.166868
H	-3.4772242777	-1.8987946797	 0.9480833738	 0.092342
H	-3.1863378378	-0.6176491453	-0.6780863378	 0.228443
