19
gdb 92428	2.59034	1.58376	1.46959	2.5249	74.22	-0.2284	-0.0211	0.2072	1008.4356	0.160964	-423.048571	-423.040844	-423.0399	-423.080696	30.222	
C	-0.2126481612	 1.5380959911	 0.0126495077	-0.412928
C	 0.0154755706	 0.0287120527	 0.0259864146	 0.019256
C	 0.8832993023	-0.5063554214	-1.180489219	-0.248507
C	 2.0290796802	-1.3020829376	-0.5008481212	-0.158431
C	 2.9197616202	-0.2928089369	 0.2361928818	-0.07707
O	 2.0777763246	 0.2275319893	 1.2995740976	-0.287907
C	 0.8289638623	-0.4741300687	 1.2386936208	-0.012329
C	 1.268280508	-1.8498497891	 0.716305337	 0.429079
O	 1.0604469565	-2.9634743896	 1.1017934373	-0.323775
H	 0.7375312384	 2.070507038	 0.1082344221	 0.133433
H	-0.691832657	 1.8488264009	-0.9216214656	 0.114596
H	-0.8571666119	 1.8496774474	 0.8412030444	 0.11684
H	-0.9538827059	-0.4847633815	 0.030019293	 0.086007
H	 0.2946498315	-1.1465716644	-1.8421602563	 0.112949
H	 1.2832639631	 0.3163327783	-1.7818435659	 0.107042
H	 2.553166736	-2.0298405066	-1.1166067169	 0.091194
H	 3.8076181667	-0.7639491518	 0.6763433281	 0.112281
H	 3.2421227414	 0.5371401015	-0.4036455486	 0.105621
H	 0.3431983241	-0.4363550316	 2.2121115992	 0.09265
