18
gdb 114161	5.00455	0.89174	0.82441	1.8486	80.82	-0.2246	0.0263	0.2509	1386.4034	0.146678	-401.862025	-401.853141	-401.852196	-401.895622	33.636	
O	 0.1391923099	 1.3783610384	-0.0415507485	-0.421026
C	 0.0647302159	-0.0251939033	 0.1737674153	-0.091236
C	-1.360079988	-0.5478758848	 0.0494126862	 0.014532
C	-2.0388357123	-0.5455963499	-1.3712499674	-0.324502
C	-2.2596366359	-2.0619627186	-1.2305142928	 0.243078
N	-0.8937086892	-2.6460831164	-1.0674842174	-0.366742
C	-1.5736379668	-2.0674368277	 0.1071223353	-0.14456
C	-3.3511213647	-2.8338102268	-1.7082371003	 0.142998
C	-4.2839297953	-3.469176784	-2.1276608532	-0.396411
H	-0.0529999811	 1.5408198531	-0.9705111254	 0.283977
H	 0.7217341284	-0.5780907181	-0.5104320498	 0.111092
H	 0.4333994623	-0.1891101167	 1.1927941059	 0.10557
H	-2.0021408526	-0.0348527174	 0.7703354655	 0.087942
H	-2.9685772323	 0.023681828	-1.3969876396	 0.120709
H	-1.4085650362	-0.2667441776	-2.2207536114	 0.102329
H	-1.0116366822	-3.6580739884	-1.0181739879	 0.238511
H	-1.7915141133	-2.6745429849	 0.9776604456	 0.104947
H	-5.1062409166	-4.0322456151	-2.4939517301	 0.188794
