17
gdb 62783	2.96769	1.30767	1.12202	4.6044	72.44	-0.2329	0.0115	0.2443	1108.963	0.135187	-417.9604	-417.951884	-417.95094	-417.993223	32.561	
C	-0.0598204059	 1.5673448261	-0.1364251135	-0.46602
C	 0.02393772	 0.0697672421	 0.0239367847	 0.409966
O	-1.1381416794	-0.6276761612	-0.3591874644	-0.468562
C	 1.2743804532	-0.7400750038	-0.1874624366	-0.099376
N	 2.4487312372	 0.0376524181	 0.2723474705	-0.335202
C	 1.9442080973	-0.0638819281	 1.6833068207	-0.152906
C	 1.9318666345	 1.189569616	 2.4462456717	 0.306609
N	 1.9231180735	 2.1618692959	 3.0707348268	-0.329193
C	 0.6236779458	-0.6742094558	 1.1967826198	-0.136214
H	 0.8865849628	 2.0528926937	 0.103384958	 0.157416
H	-0.3029587134	 1.8127143474	-1.1780065031	 0.104245
H	-0.8458268176	 1.9791099544	 0.5027343875	 0.134379
H	-1.2825693907	-0.4590001484	-1.2971242729	 0.28573
H	 1.349984761	-1.554638753	-0.8975359774	 0.105245
H	 3.3161165562	-0.4772435881	 0.1688456972	 0.235955
H	 2.5005465548	-0.8056755274	 2.26650242	 0.130469
H	 0.0364474308	-1.3953623582	 1.7484227609	 0.117459
