23
gdb 40164	2.88489	1.52393	1.33626	0.2048	88.45	-0.2524	0.0857	0.3381	1089.5073	0.209459	-351.145816	-351.138315	-351.13737	-351.177278	32.055	
C	-0.0641000239	 1.5146962682	 0.0418156711	-0.334763
C	 1.2909262044	 0.8554988358	-0.0843703257	-0.310893
C	 0.0410032597	 0.0127134141	-0.0040609192	 0.424373
C	-0.275228605	-0.7709210171	 1.2734117218	-0.289555
C	-0.2302621426	-2.304142288	 1.0522339819	-0.210785
C	-0.6217081772	-2.6625992548	-0.3919700008	 0.003498
C	 0.4226831744	-2.0573774516	-1.3691925027	-0.217229
C	-0.3876148345	-0.7341810942	-1.261102005	-0.08367
C	-1.6327450212	-1.6256601943	-0.969425847	-0.24222
H	-0.3171468786	 1.9797418935	 0.9898901093	 0.104268
H	-0.4637522742	 2.0310520246	-0.8252465187	 0.106386
H	 1.8033154054	 0.9252096227	-1.0390545387	 0.105986
H	 1.9525666104	 0.8808241253	 0.7757009739	 0.104714
H	 0.3926706101	-0.4739256424	 2.088658533	 0.089521
H	-1.2866100841	-0.5003028644	 1.5993193585	 0.103292
H	 0.7741375229	-2.6978440301	 1.2517478853	 0.095052
H	-0.9035160296	-2.7907788176	 1.7671111078	 0.090085
H	-0.8596442896	-3.724572018	-0.4919749902	 0.055176
H	 1.4701741022	-2.0386786106	-1.052852362	 0.086856
H	 0.3504277816	-2.4974497105	-2.3679724529	 0.087228
H	-0.4124537812	-0.0728508007	-2.1317632031	 0.049544
H	-2.0851472342	-1.9874531677	-1.8965979223	 0.092984
H	-2.4199724754	-1.2331217222	-0.3198737841	 0.090151
