19
gdb 103499	2.55686	1.6157	1.31807	1.7538	70.89	-0.2216	0.0806	0.3022	1049.6305	0.157781	-460.119237	-460.110305	-460.109361	-460.152709	32.742	
C	 0.1803875872	 1.0152725972	-0.4733633759	-0.254622
O	-0.0637851083	-0.2046457678	 0.2145733471	-0.279426
C	-1.3776920216	-0.6579840385	 0.1256520482	 0.351914
C	-2.3962502473	 0.0640042187	 0.9810903927	-0.462763
C	-1.8555395574	-1.2520324393	-1.2000404047	-0.033394
O	-0.8843930548	-1.5302742475	-2.1744040416	-0.266927
C	 0.0735032124	-2.4180363969	-1.6087021871	 0.036066
O	-0.463611932	-2.946041084	-0.4088507816	-0.258327
C	-1.5594492472	-2.1590348378	-0.0395007885	-0.012437
H	 1.2485166372	 1.2205841318	-0.3724234997	 0.12804
H	-0.0747960785	 0.9284143114	-1.5361172542	 0.129771
H	-0.3780709113	 1.8532289409	-0.034850621	 0.109754
H	-2.5209721888	 1.1060396055	 0.6682300765	 0.123821
H	-3.3763737366	-0.4177217269	 0.9098973793	 0.121437
H	-2.0847997858	 0.0516776959	 2.0304815734	 0.132844
H	-2.8329887446	-1.0461302217	-1.6216336893	 0.105721
H	 0.263838355	-3.2390650708	-2.3118068592	 0.109011
H	 0.9988185312	-1.8717208287	-1.3909956634	 0.109882
H	-2.2910907789	-2.7047886214	 0.5448395488	 0.109634
