18
gdb 7505	2.99977	1.35587	1.07174	1.8173	78.06	-0.2347	0.046	0.2807	1173.603	0.150735	-347.76935	-347.759688	-347.758744	-347.804172	34.08	
C	-0.1449369372	 1.4176545094	 0.0237904878	-0.502267
C	-0.081174781	-0.0375652213	 0.0231312558	 0.088698
C	 0.0096266485	-1.2414273421	 0.0407490924	-0.017692
C	 0.053614193	-2.678990159	 0.0182256902	 0.112698
C	 1.1669419265	-3.3031246698	-0.8074836766	-0.458672
C	-0.4265222389	-3.4150938522	 1.2758960504	-0.34769
C	-1.3089889512	-3.3646982299	 0.0613058819	 0.114555
O	-2.4784671512	-2.6145048068	 0.0645983051	-0.430821
H	 0.8570090771	 1.8539741712	 0.1023983393	 0.152558
H	-0.6028459943	 1.8027834797	-0.8940230644	 0.149317
H	-0.7331225548	 1.7892979222	 0.8700908145	 0.151036
H	 2.1491420839	-3.0478755016	-0.3964451566	 0.125855
H	 1.076378928	-4.3935712194	-0.8113915929	 0.115971
H	 1.1311137139	-2.9535816827	-1.8440156047	 0.126895
H	 0.0764839146	-4.3432847532	 1.5273346256	 0.112639
H	-0.7247534836	-2.8052425176	 2.1205849236	 0.123496
H	-1.4079247457	-4.2698621945	-0.5329610078	 0.099787
H	-2.2289451376	-1.6863951424	-0.0461242136	 0.283637
