25
gdb 121238	2.656	0.90059	0.72825	0.9079	90.35	-0.2414	0.0849	0.3263	1698.0268	0.227602	-389.484654	-389.473947	-389.473003	-389.521142	38.944	
C	 0.3444120718	 1.3883895913	-0.1988053568	-0.38502
C	 0.013968933	 0.0005864861	 0.3244966875	-0.035548
O	-1.0635647677	-0.519762995	-0.4301886643	-0.252745
C	-1.445475162	-1.8154050946	-0.0556420896	 0.156873
C	-2.2457167645	-2.0257902816	 1.2605926282	-0.254989
C	-3.1615892414	-3.0088212134	 0.4795788491	-0.232348
C	-2.6338143817	-2.4078678526	-0.8605206021	-0.032791
C	-3.5560986018	-1.3665767588	-1.4986988105	-0.16311
C	-4.7556038228	-1.9999179043	-2.2100486899	-0.386701
H	 1.1784936508	 1.8206186189	 0.3621970186	 0.112715
H	 0.6218585739	 1.3429932338	-1.2558127907	 0.125345
H	-0.5205286977	 2.0506277931	-0.1008939729	 0.125414
H	 0.8900078923	-0.6650359867	 0.2386622595	 0.083505
H	-0.2514579355	 0.0453225753	 1.3931468457	 0.089215
H	-0.5735441636	-2.4891563561	-0.0875486678	 0.058029
H	-1.7115967044	-2.4081410916	 2.1335968631	 0.091814
H	-2.7736500372	-1.1099256887	 1.5410981557	 0.107277
H	-2.8651840009	-4.0518423792	 0.6172049714	 0.098948
H	-4.2364372299	-2.9310221176	 0.66121484	 0.098634
H	-2.3435773421	-3.14161119	-1.6202086534	 0.061084
H	-3.9077242924	-0.6627157733	-0.734277201	 0.093298
H	-2.9746184038	-0.7684870892	-2.2084741861	 0.106861
H	-5.4050384273	-1.2358202936	-2.6488038267	 0.109576
H	-4.4295704133	-2.6640103957	-3.0186872558	 0.111301
H	-5.3647708519	-2.5959197362	-1.5215693513	 0.113362
