16
gdb 62552	2.35055	1.47335	1.21104	3.0582	65.95	-0.2563	-0.0363	0.22	1072.906	0.121306	-475.047672	-475.038307	-475.037362	-475.082001	33.094	
C	-0.0562587405	 1.628197585	-0.0001697664	-0.446324
C	-0.0472831327	 0.1100328158	-0.013325479	 0.241764
O	-1.3410062061	-0.4251232523	 0.1800157211	-0.463942
C	 0.7220106755	-0.5836478956	-1.2038672596	-0.121432
N	 1.7280418485	-1.0114204195	-0.2296350312	-0.328671
C	 1.0195489801	-0.5952883576	 0.8724997502	 0.388313
O	 1.1298314703	-0.7695948925	 2.0561054824	-0.361042
C	-0.0399355993	-1.7094363766	-1.867878516	 0.172123
O	 0.2391539457	-2.8713535093	-1.7266829461	-0.250583
H	 0.9359589521	 2.0354598561	-0.2164139455	 0.128732
H	-0.7663893034	 2.0062117399	-0.7417252044	 0.132329
H	-0.3677646101	 1.985391559	 0.9860938272	 0.137898
H	-1.4210466311	-0.6590856996	 1.1128164866	 0.304532
H	 1.0948495115	 0.1080619197	-1.9699656962	 0.106476
H	 2.3514436469	-1.8038174429	-0.3082450553	 0.265112
H	-0.8717473075	-1.3774537896	-2.5239340676	 0.094715
