20
gdb 91789	2.58628	1.63469	1.16303	3.4728	80.27	-0.2329	0.0337	0.2666	1119.4365	0.171585	-403.193147	-403.184242	-403.183298	-403.226401	33.351	
C	-0.0609024773	 1.4010787093	-0.1184903995	-0.343472
N	-0.0311930597	-0.0401804989	-0.075628766	-0.079648
C	-1.2396138329	-0.8439561601	-0.0082686227	-0.186512
C	-0.7280341103	-2.2784057541	-0.0420514058	-0.102174
C	 0.1073396283	-2.6634807116	-1.2305249713	-0.319105
C	 0.7817991199	-2.2247737603	 0.0562718123	 0.220324
C	 1.6620161504	-3.1519247429	 0.8530388536	-0.479363
C	 1.1347242529	-0.7554860812	 0.0632331276	 0.371055
O	 2.2477986985	-0.2803148725	 0.176129548	-0.406062
H	 0.9725758063	 1.7519997691	-0.1020725343	 0.164417
H	-0.5542277019	 1.7641113509	-1.0287055159	 0.120244
H	-0.5931930717	 1.8157272667	 0.7480237866	 0.119204
H	-1.7954405138	-0.6386673987	 0.9192265565	 0.105187
H	-1.9102705208	-0.6161140032	-0.848581766	 0.108151
H	-1.3002097708	-3.0395429648	 0.4742237275	 0.095462
H	 0.1715043676	-3.7202034278	-1.4687416662	 0.116306
H	 0.134658091	-2.0042084515	-2.0929695528	 0.119284
H	 1.3501088378	-4.1934779884	 0.7319319086	 0.110019
H	 2.6997570547	-3.0581949411	 0.5198013137	 0.143548
H	 1.635465672	-2.909289419	 1.9205513259	 0.123135
