17
gdb 118639	2.36212	0.9134	0.68897	3.8853	67.71	-0.2713	-0.0501	0.2212	1561.911	0.132133	-496.116025	-496.105954	-496.105009	-496.152278	33.909	
O	 0.0767975169	 1.4804662093	-0.1827878092	-0.412067
C	 0.0702201337	 0.0663227081	-0.1248629801	-0.072147
C	-1.3424216383	-0.4919536175	 0.0862591314	-0.229887
C	-1.3850291906	-2.0209147	 0.0755015768	-0.007835
O	-0.6429857438	-2.4904666586	 1.1942681368	-0.185315
C	-0.3599483444	-3.8150764986	 1.2527539262	 0.1879
O	 0.2034898234	-4.3001239276	 2.1837313063	-0.269172
C	-2.8203829083	-2.5378351441	 0.1063310444	 0.153868
O	-3.2171931033	-3.3723337964	 0.8729007363	-0.225906
H	-0.0475767718	 1.8176312638	 0.7099293023	 0.288512
H	 0.4585377009	-0.2768969978	-1.0911834198	 0.113137
H	 0.7429797534	-0.3163383312	 0.6535048429	 0.121755
H	-1.744382563	-0.1396803981	 1.0441676251	 0.121525
H	-1.995867059	-0.107827388	-0.7047176807	 0.120569
H	-0.9368463897	-2.3873954331	-0.8647597137	 0.112592
H	-0.674433903	-4.3663407641	 0.3484430036	 0.08557
H	-3.4802069932	-2.079869266	-0.6636487087	 0.0969
