18
gdb 31547	3.26633	1.16244	0.87536	2.7066	77.66	-0.1877	0.0399	0.2276	1332.6916	0.147886	-435.30403	-435.294464	-435.293519	-435.338421	34.341	
C	-0.0530426738	 1.4237877075	 0.1740624413	-0.328273
N	 0.2808668726	 0.0243320953	-0.0331859626	-0.380935
C	 0.7360629802	-0.7503554574	 0.9971288652	 0.478424
N	 0.6922545309	-2.0481305632	 1.0739431864	-0.422606
C	 1.3545125543	-2.3350416519	 2.2704762814	 0.266369
C	 1.5415398666	-3.7326464184	 2.7506583006	-0.493973
C	 1.7557896811	-1.1881377995	 2.8639391064	 0.164051
N	 2.427564717	-0.9070607221	 4.0455694825	-0.600018
O	 1.3449104203	-0.1266699558	 2.0220420858	-0.216444
H	 0.8063996764	 1.9448901843	 0.6008915356	 0.149469
H	-0.2800815431	 1.8760404723	-0.7937309807	 0.130026
H	-0.912369712	 1.5751756063	 0.8437028617	 0.120322
H	-0.3220317539	-0.4958443019	-0.652549585	 0.256653
H	 2.1064410874	-4.3234301623	 2.0211853806	 0.129916
H	 2.0791351968	-3.7385815912	 3.7012789143	 0.132746
H	 0.5756246769	-4.2313990137	 2.8873639828	 0.128628
H	 3.3077364774	-0.4226511773	 3.9006919384	 0.243256
H	 1.8733863748	-0.3710454412	 4.7060230353	 0.242386
