16
gdb 94493	3.98039	0.77715	0.69858	4.1403	83.95	-0.2702	-0.0479	0.2223	1558.0732	0.123588	-400.719773	-400.710858	-400.709914	-400.754734	31.18	
C	-0.2990102122	 1.4938288308	-0.0940226076	-0.404408
C	 0.1008371915	 0.0357437608	-0.0681373103	 0.156495
O	 1.3377963349	-0.2181491464	-0.7698688526	-0.278331
C	 1.9679030945	-0.7839793614	 0.3870908644	-0.072911
C	 0.6928260821	-0.5722007423	 1.2552649688	-0.294987
C	 0.8129209514	 0.2806260711	 2.4103320534	 0.174297
C	 0.9216479023	 0.9978405826	 3.3782244462	-0.012563
C	 1.0444117935	 1.806217526	 4.4707728108	 0.209639
N	 1.148575314	 2.4949261214	 5.4008466156	-0.335557
H	 0.4803937995	 2.1269006279	 0.3379262122	 0.134324
H	-0.4647714905	 1.8055334009	-1.129590145	 0.136354
H	-1.2271498457	 1.6493581425	 0.4654903543	 0.127973
H	-0.7046456943	-0.5919542315	-0.4704451337	 0.091202
H	 2.2467339206	-1.833949242	 0.2430258346	 0.116829
H	 2.8458496489	-0.2128464274	 0.7068176559	 0.122699
H	 0.2069197394	-1.5089725728	 1.5398706728	 0.128945
