16
gdb 97760	6.00423	0.58257	0.57815	2.5223	76.22	-0.252	0.0137	0.2657	1873.5812	0.123092	-437.86557	-437.856187	-437.855243	-437.901925	32.439	
O	 0.3253284335	 1.0650866925	 0.7675276816	-0.398188
C	-0.0206031538	 0.2977717033	-0.3756627951	-0.196342
C	-1.3761923906	-0.2505633727	-0.3262243492	 0.070634
C	-2.4858654502	-0.7144822553	-0.2475583683	 0.07475
C	-3.8330244446	-1.2537108666	-0.15818786	-0.150111
C	-4.5733474401	-1.5464903229	-1.5107093379	-0.387488
C	-4.5719631736	-3.0279505308	-1.0613824018	 0.431034
O	-4.9570107618	-4.0694959799	-1.5147640611	-0.349574
N	-3.9388565624	-2.6978710715	 0.1143909226	-0.306974
H	 0.1746501407	 0.5148222066	 1.5431803901	 0.288195
H	 0.0757572336	 0.9769975273	-1.2299259435	 0.146003
H	 0.6943883289	-0.523537767	-0.5432466477	 0.123376
H	-4.431548604	-0.6524221782	 0.535655713	 0.116343
H	-5.5617815781	-1.0954415151	-1.6063716698	 0.138754
H	-3.9797477504	-1.3492705562	-2.4032910215	 0.144766
H	-3.5544500071	-3.2644802635	 0.8562271585	 0.254822
