21
gdb 61581	3.10224	0.86894	0.76362	2.2298	79.18	-0.2629	0.0816	0.3445	1550.1736	0.180667	-424.181034	-424.17136	-424.170416	-424.21671	34.851	
C	 0.0128730786	 1.7796600305	-0.0224787718	-0.409607
C	-0.0162702109	 0.2477728792	 0.0784209343	 0.00408
C	 0.6115223842	-0.2896081507	 1.3815321079	-0.230692
C	 2.0847516763	 0.0124959875	 1.5141599102	 0.086763
C	 3.0470689695	-0.9874547768	 1.9936673524	-0.179663
O	 2.9554425088	-0.6701151896	 0.6041006095	-0.236918
C	-1.4408573583	-0.251617366	-0.0417749045	 0.092089
C	-2.0066111645	-0.7306368023	-1.3084782218	-0.184118
O	-1.6177910796	-1.6489118505	-0.283758817	-0.243884
H	 1.036207189	 2.1639478318	-0.0062960471	 0.126178
H	-0.4528759895	 2.1191855464	-0.9530554343	 0.118615
H	-0.5313618948	 2.2415002405	 0.8100968411	 0.113579
H	 0.5553982075	-0.1781116815	-0.7551087892	 0.096858
H	 0.0838527441	 0.1308488215	 2.2495265302	 0.094113
H	 0.4668446287	-1.3746832864	 1.4078216063	 0.121278
H	 2.3481988318	 1.0614492202	 1.6595304602	 0.090854
H	 3.964374997	-0.6688603702	 2.4874054564	 0.112338
H	 2.6919662259	-1.9795118598	 2.2702138977	 0.115314
H	-2.1354749787	 0.1551931986	 0.6984444288	 0.085329
H	-3.078073721	-0.6596586612	-1.491127847	 0.113095
H	-1.383244164	-0.7393383411	-2.2019480923	 0.114399
