14
gdb 28690	3.67772	1.06128	0.88796	3.8074	69.78	-0.2152	-0.0022	0.2129	1252.2852	0.102022	-432.9103	-432.902172	-432.901228	-432.943902	29.037	
N	 0.2721974403	 1.2922778183	-0.1089953962	-0.598751
C	-0.0223260167	-0.0531248949	-0.022891601	 0.350488
C	-1.1288351869	-0.791970252	 0.2643547049	-0.192565
N	-0.7680500709	-2.1371821963	 0.2953067568	-0.285166
C	 0.4919175151	-2.1498308752	 0.0337403539	 0.384505
C	 1.4075746634	-3.3260366345	-0.0646305658	-0.435722
C	 2.0345875366	-3.461777731	-1.3836654446	 0.263138
N	 2.5342239429	-3.563099496	-2.419862014	-0.301523
O	 1.0294303859	-0.9058052475	-0.1698664747	-0.194394
H	 0.9827897994	 1.5055684959	-0.7975358736	 0.267329
H	-0.5468599623	 1.8692988304	-0.2389636927	 0.26513
H	-2.1387476786	-0.4639289824	 0.444780244	 0.11747
H	 2.2028045824	-3.2677793834	 0.6892783412	 0.171593
H	 0.8137052893	-4.2181765314	 0.1502381719	 0.188468
