20
gdb 122792	6.60681	0.52733	0.49432	2.6674	79.26	-0.2682	-0.0744	0.1938	2198.6253	0.168666	-440.305361	-440.294928	-440.293984	-440.342182	35.825	
C	 0.0362394207	 1.5876617683	-0.0942850365	-0.381183
C	 0.0288815666	 0.0576928446	-0.0406277198	-0.167437
C	 0.714204446	-0.5814380055	-1.2539238991	-0.186408
C	 0.6990585917	-2.0989304761	-1.1866428121	-0.063613
O	 1.3610104526	-2.6013909661	-2.3618602756	-0.243754
C	 1.4455931321	-3.9325901408	-2.4770324023	 0.309559
N	 0.9880514033	-4.760296719	-1.6328321696	-0.507285
C	 2.1633586273	-4.3089558708	-3.7557276058	 0.107166
O	 2.3536810029	-5.4553442475	-4.0665006412	-0.235722
H	 1.0595967538	 1.9772976138	-0.1254910595	 0.117095
H	-0.4843829116	 1.9545558955	-0.9855703612	 0.117096
H	-0.4580803749	 2.0181926442	 0.7817145225	 0.115838
H	 0.5259170685	-0.27980187	 0.8781414313	 0.101891
H	-1.0060977029	-0.3023624978	 0.0246674356	 0.101889
H	 0.2172219334	-0.2594223116	-2.1773438047	 0.106559
H	 1.7534579858	-0.2368051839	-1.3215282016	 0.106555
H	 1.2200658376	-2.4780504194	-0.3002061974	 0.124997
H	-0.3201409251	-2.5006607051	-1.1580788611	 0.124966
H	 1.1902475757	-5.704282907	-1.9700238191	 0.245776
H	 2.4956577265	-3.4530882157	-4.3762138428	 0.106017
