19
gdb 55033	3.18795	1.068	0.86937	4.3329	76.73	-0.2314	0.0249	0.2563	1340.0984	0.159494	-419.192896	-419.183692	-419.182748	-419.229111	33.932	
N	 0.1562297483	 1.1671927769	 0.3954305979	-0.521894
C	 0.062099412	-0.0553971208	-0.2024858827	 0.400889
O	 0.8969091149	-0.4857474352	-0.9709153206	-0.363016
C	-1.2174735261	-0.820954324	 0.0911924745	-0.139329
N	-1.0860443798	-2.0391537407	 0.8995279029	-0.324239
C	-1.9135163274	-0.9353634547	 1.4067773999	-0.03313
C	-1.4565325335	-0.2848968996	 2.6747797818	 0.014592
C	-2.1914754653	 0.9288491743	 3.2101315857	-0.278438
C	-2.2998808338	-0.3979050204	 3.9179052072	-0.284808
H	 1.0014981936	 1.6975500602	 0.2569667882	 0.258654
H	-0.4921603903	 1.4545228135	 1.1082854844	 0.269024
H	-1.8490836572	-0.8764597898	-0.7947718951	 0.109665
H	-1.6505829966	-2.7913064336	 0.5159337485	 0.237332
H	-2.9972022134	-1.0469937115	 1.3417414831	 0.07927
H	-0.381673399	-0.3121710996	 2.8181479996	 0.106708
H	-1.6157250518	 1.7182423851	 3.6814645453	 0.116283
H	-3.0595229473	 1.2801734966	 2.6611549495	 0.116321
H	-3.2407557048	-0.9335580479	 3.8429389738	 0.115447
H	-1.7949228425	-0.5171959988	 4.869521536	 0.120669
