16
gdb 77325	2.44921	1.33527	1.19504	3.2105	68.66	-0.2626	-0.0453	0.2173	1102.8257	0.123587	-437.915724	-437.907226	-437.906281	-437.949459	30.522	
C	-0.0012762157	 1.5468383763	 0.0232902061	-0.418067
C	-0.020345411	 0.0114697571	-0.0202025721	-0.121787
C	 0.7974104032	-0.5667917848	-1.1960296863	-0.074187
O	 2.1188543761	-0.7674924903	-0.6950788359	-0.2419
C	 2.0220221793	-1.1882050585	 0.6589748006	-0.193604
C	 0.7319041351	-0.5642469823	 1.1922854241	 0.381308
O	 0.3800461513	-0.5103837423	 2.3380847425	-0.295289
C	 0.2273370488	-1.8350069684	-1.6993640807	 0.279839
N	-0.2215979825	-2.8292330305	-2.0800803567	-0.312444
H	 1.0228116614	 1.9280749653	-0.0389651444	 0.138311
H	-0.5756560946	 1.9647876297	-0.808191373	 0.13307
H	-0.4412117009	 1.8952018376	 0.9608763527	 0.1505
H	-1.0498393415	-0.3533635339	-0.0079111041	 0.135072
H	 0.8789427751	 0.1298693509	-2.0346409409	 0.141132
H	 1.9630252214	-2.284088571	 0.7446231203	 0.145559
H	 2.9020155844	-0.8402121151	 1.2046184978	 0.152488
