16
gdb 48570	5.4845	0.9296	0.91164	2.6962	76.38	-0.268	-0.0493	0.2186	1255.7279	0.124409	-400.722232	-400.714349	-400.713405	-400.75515	29.182	
O	-0.023655528	 0.0091451703	 0.0026655302	-0.236997
C	 0.0464209451	 1.2121624539	 0.0067778466	 0.034449
C	 1.3293862693	 1.9698321382	-0.0003936042	 0.224216
C	 2.768968086	 1.3892880147	-0.0190787622	-0.286252
C	 2.9359745954	 2.9446947026	-0.0082784251	 0.216558
C	 1.797366814	 3.0116491507	-1.0741833356	-0.29268
C	 1.8186132544	 2.9943326297	 1.080788586	-0.292489
C	 4.1712709064	 3.6871362022	-0.0144185962	 0.164057
N	 5.1616857146	 4.2838900916	-0.019403366	-0.34384
H	-0.8690186734	 1.8470223228	 0.0166247996	 0.080062
H	 3.0966437967	 0.8627003902	 0.878394255	 0.122778
H	 3.078833356	 0.877284048	-0.9312109966	 0.122691
H	 2.0345870669	 2.6130604619	-2.0622946304	 0.124636
H	 1.2439302037	 3.9511163746	-1.1291717722	 0.119038
H	 1.2663759677	 3.9326281949	 1.1617728806	 0.119061
H	 2.0750811551	 2.5797626636	 2.0574377307	 0.124713
