16
gdb 24602	5.03983	1.01623	0.96395	2.7453	70.82	-0.2433	-0.0045	0.2388	1217.8746	0.12625	-437.890426	-437.883019	-437.882075	-437.92425	26.608	
C	 0.0011246729	 1.5486930014	-0.0527626847	-0.076883
O	 1.4354547766	 1.5195053441	 0.0600574233	-0.269236
C	 1.424434238	 0.1148311511	 0.3724906395	-0.076869
C	-0.0860011253	 0.0003662473	 0.0297286918	-0.166162
C	-0.9893230897	-0.5965010699	 1.0406626019	 0.384115
N	-1.0848928422	-0.3157656877	 2.3036110175	-0.30203
C	-2.0773842427	-1.16104113	 2.7789901387	-0.112354
C	-2.536744034	-1.9213221825	 1.7585820934	-0.046633
O	-1.8468497747	-1.5704790181	 0.6323887838	-0.170924
H	-0.47114791	 2.0547081585	 0.797571236	 0.121021
H	-0.332467524	 2.005169018	-0.9910115088	 0.108133
H	 2.1114119024	-0.456941445	-0.2608296806	 0.108141
H	 1.6440296085	-0.0762451799	 1.4295689543	 0.120984
H	-0.2685866839	-0.4678485561	-0.9376633272	 0.104373
H	-2.3825428193	-1.1567840131	 3.8132268031	 0.127021
H	-3.2796873123	-2.6921275281	 1.649813658	 0.147303
