19
gdb 47597	2.28598	1.93784	1.13666	3.9634	76.06	-0.2123	0.0298	0.2421	1073.4017	0.163018	-419.22245	-419.214795	-419.213851	-419.254711	29.696	
O	 0.1021340593	 0.0371252349	 0.2799507724	-0.380437
C	 0.0413591472	 1.2173958363	-0.0160160783	 0.349163
C	-1.2916589339	 1.979290372	-0.071525266	-0.278331
N	-1.2296895461	 3.4420015117	-0.1839282654	-0.290169
C	-0.0530399403	 4.0058725208	 0.4818277174	-0.198748
C	 1.2177798463	 3.4510987883	-0.1508800826	 0.048562
C	 2.5489062235	 3.2804070792	 0.6357822019	-0.272889
C	 2.4795137922	 1.7596287631	 0.2997475302	-0.168932
N	 1.1420631234	 1.9788059841	-0.2751237747	-0.081391
H	-1.8899890247	 1.576972607	-0.894277295	 0.133532
H	-1.8172248214	 1.7000927866	 0.8506513077	 0.138789
H	-1.2180240719	 3.7117264354	-1.1621848238	 0.221404
H	-0.0871670869	 5.0984147179	 0.4194930327	 0.108857
H	-0.0956381003	 3.7329255431	 1.5446044512	 0.109626
H	 1.3697570811	 3.920757224	-1.133150052	 0.078782
H	 3.4101185554	 3.8258934785	 0.2484085718	 0.112784
H	 2.4425391446	 3.4875750099	 1.7032783556	 0.116431
H	 3.2132363279	 1.4175510974	-0.4368375209	 0.117826
H	 2.4687131746	 1.0619160498	 1.1406066478	 0.135141
