19
gdb 112016	2.54584	1.53184	1.13159	2.6695	76.53	-0.2453	-0.0069	0.2384	1139.9673	0.157603	-422.999532	-422.990687	-422.989743	-423.033072	32.946	
C	 0.0400622975	 1.3959651521	 0.0215454891	-0.232707
O	-0.1760377022	 0.017659745	-0.1761418133	-0.243566
C	 0.6466919581	-0.5593437825	-1.170515385	 0.050224
C	 2.0844518557	-0.8432980154	-0.7507330536	-0.124929
C	 2.4136892366	-2.1214231641	-0.940506994	-0.075986
C	 1.2255300754	-2.8917508278	-1.4279842462	-0.079775
O	 0.1435717954	-2.880591198	-0.4669879508	-0.288292
C	 0.1066550463	-1.9458683317	-1.5517368168	 0.389608
C	-1.060507619	-2.0513697722	-2.4913497517	-0.495704
H	 1.0459318888	 1.6130965872	 0.4104530203	 0.107063
H	-0.0992151728	 1.9677337272	-0.9100134333	 0.102539
H	-0.6951080893	 1.7335516471	 0.7559908005	 0.13114
H	 0.6386358068	 0.0886099912	-2.0665419753	 0.066793
H	 2.7304395783	-0.0791263162	-0.3346515844	 0.105705
H	 3.3762043825	-2.573310129	-0.7327729202	 0.106641
H	 1.3150141067	-3.7963046794	-2.0222964049	 0.094395
H	-1.9328177394	-1.5506874868	-2.0577798948	 0.139363
H	-0.8377574876	-1.5729163637	-3.4509952871	 0.118385
H	-1.3173619279	-3.0981420531	-2.6700714585	 0.129101
