16
gdb 75847	3.15999	1.25264	0.94127	2.5824	77.38	-0.262	-0.0556	0.2065	1189.806	0.123817	-400.80389	-400.79546	-400.794516	-400.837458	30.659	
C	-0.1222165365	 1.5836775971	 0.0163063239	-0.39987
C	 0.0196275833	 0.0552791279	 0.0312871615	-0.222588
C	 0.8053553099	-0.4724066634	-1.1871821407	 0.397774
O	 0.5756963516	-0.1887148659	-2.3312047893	-0.299921
C	 1.9355023345	-1.3911153303	-0.6933440807	-0.375139
C	 1.8334544096	-1.2946642994	 0.7982573961	-0.166329
C	 0.8075405811	-0.52310114	 1.1920440673	 0.193603
C	 0.459308317	-0.2564778378	 2.5445568899	 0.22185
N	 0.1445099382	-0.0173584598	 3.6335387087	-0.334735
H	 0.8563083773	 2.0697423687	 0.0758174531	 0.126574
H	-0.6044826431	 1.8938980904	-0.9136774222	 0.147206
H	-0.7260040996	 1.926434756	 0.8605823706	 0.141238
H	-0.9859427536	-0.3872257482	-0.0034709451	 0.128995
H	 1.7826835943	-2.4116859843	-1.0689504482	 0.155115
H	 2.9030942884	-1.0632554667	-1.092629961	 0.154359
H	 2.5118948577	-1.7983066642	 1.4757266762	 0.131868
