20
gdb 88631	3.77012	1.05003	0.97622	2.2191	79.28	-0.2184	0.0759	0.2943	1280.6317	0.171606	-403.072907	-403.06458	-403.063636	-403.106355	32.318	
O	-0.2443761787	 1.2034911607	-0.715082281	-0.413479
C	-0.1006831934	-0.0858763844	-0.1938257517	 0.082441
C	-0.1177225059	-0.2958892304	 1.2950790275	-0.332107
C	-1.3137384497	-0.709409062	 0.4466875115	-0.047069
C	-2.5811530995	 0.0784466366	 0.5386064889	 0.001916
C	-3.9263359158	-0.4274124492	 0.1948782178	-0.048138
C	-4.1146294152	-1.9025899204	 0.5408425205	-0.254342
C	-3.6529321468	-1.5285542248	 1.9714586065	-0.151336
N	-3.5724125743	-0.0606259074	 1.6358051479	-0.165098
H	 0.5464359415	 1.704559184	-0.4913925804	 0.290609
H	 0.5300460054	-0.7443744516	-0.7910325643	 0.088124
H	 0.5120954597	-1.0641240446	 1.7303275095	 0.111054
H	-0.2519061824	 0.5893102	 1.9083050988	 0.124831
H	-1.4204467134	-1.7740224714	 0.2696886041	 0.092661
H	-2.4350116717	 1.1311474843	 0.3150112612	 0.108509
H	-4.6272844581	 0.1638428726	-0.3874192221	 0.089735
H	-5.1613760047	-2.2101342619	 0.5094076965	 0.10971
H	-3.5251376417	-2.628282552	-0.0291044663	 0.100304
H	-4.4178850088	-1.685866022	 2.734079492	 0.107307
H	-2.7094530968	-1.954079556	 2.3270619731	 0.104368
