20
gdb 55288	2.33744	1.4001	1.14857	3.3576	75.1	-0.239	0.0309	0.27	1159.1581	0.169662	-440.317514	-440.307784	-440.306839	-440.352018	36.797	
C	-0.6573422145	 1.3200171723	 0.247921757	-0.452403
C	-0.2369146883	-0.1442068964	 0.1740476922	 0.388711
O	-1.3498586273	-1.0048990225	 0.3509407987	-0.481059
C	 0.7329884633	-0.4431998059	-1.0104620315	-0.279263
C	 1.9212649793	-0.3473612532	-0.0135258626	-0.250052
C	 0.9204150264	-0.5479310403	 1.1431971589	-0.099649
C	 1.0772674611	 0.2500258064	 2.4213050205	 0.364796
N	 0.1387668691	-0.0560657068	 3.3714269313	-0.51965
O	 1.9390736428	 1.0913994252	 2.5908600566	-0.366536
H	 0.2069005358	 1.9876590782	 0.1967169682	 0.143434
H	-1.3185273478	 1.564284713	-0.5929724432	 0.10547
H	-1.1919665653	 1.5243462334	 1.1804685555	 0.120373
H	-2.0827439353	-0.6699872755	-0.1775755539	 0.276708
H	 0.5805786172	-1.4639582689	-1.3698332204	 0.106277
H	 0.7169004314	 0.2460070133	-1.8591366451	 0.092927
H	 2.7176185642	-1.0863922686	-0.1098080824	 0.104365
H	 2.3679941722	 0.6478140376	 0.0311309893	 0.12774
H	 0.7880302553	-1.6089475257	 1.3754712313	 0.097569
H	-0.665161245	-0.6105293269	 3.1244996953	 0.264303
H	 0.0781348553	 0.5404509016	 4.1813253843	 0.255938
