19
gdb 84102	2.62741	1.59999	1.13883	2.1995	77.22	-0.2281	0.0191	0.2472	1120.8773	0.159289	-419.216327	-419.207556	-419.206612	-419.249085	33.997	
C	-0.0185659532	 1.5860468184	 0.0532257844	-0.384856
C	 0.0544929037	 0.0596364211	-0.0131165151	 0.017606
N	 0.7949036779	-0.3857170736	-1.2091507587	-0.311396
C	 1.7087256471	-1.208985552	-0.8531345489	 0.331657
N	 2.4976397262	-1.9091866114	-1.7349857974	-0.578199
C	 1.8313320481	-1.4356107376	 0.6380958	 0.320568
C	 2.4020769701	-2.6852335921	 1.2427281433	-0.502001
O	 2.1443369801	-0.1813893432	 1.2876862338	-0.292146
C	 0.7688492224	-0.5767033138	 1.1780648566	-0.042808
H	 0.9841321211	 2.0004637008	 0.1859502942	 0.130973
H	-0.4391545701	 1.9812203133	-0.8746485119	 0.123942
H	-0.6466486403	 1.9131098607	 0.8884096829	 0.105563
H	-0.966708832	-0.3451424367	-0.0670181022	 0.07857
H	 2.445111457	-1.5737850486	-2.6870782268	 0.258069
H	 3.4359440965	-2.1202207073	-1.4301261948	 0.253734
H	 3.469255299	-2.78537401	 1.0124406593	 0.122485
H	 2.2998492528	-2.6598000371	 2.3300543877	 0.137698
H	 1.8907766144	-3.5726284188	 0.8573774671	 0.137353
H	 0.2630563893	-0.7765981021	 2.1196272465	 0.093188
