21
gdb 66478	2.86778	1.72123	1.36933	0.285	86.16	-0.2265	0.0974	0.3239	1041.5953	0.182889	-349.897022	-349.889231	-349.888287	-349.928597	32.198	
C	 0.0690540968	 1.5447451787	 0.0285400535	-0.526544
C	-0.0314784439	 0.0547479035	-0.0091484918	 0.352267
C	 0.8882146626	-1.0096966284	-0.5723330638	-0.128994
C	 0.5023226353	-1.0237447197	 0.911307556	-0.172225
C	-0.7867388341	-1.8849666526	 0.8646917602	 0.356371
C	-1.5863341451	-2.0792120005	 2.1271356757	-0.509275
C	-0.5139876846	-3.0229945994	-0.1573804389	-0.287058
C	-0.2548373637	-1.8711564875	-1.1565956898	-0.056164
C	-1.205153594	-0.9287213363	-0.3260109872	-0.167102
H	 1.0841834667	 1.8584442933	 0.297120379	 0.118806
H	-0.1674529999	 1.989592678	-0.9455755467	 0.117715
H	-0.6166679388	 1.9777062091	 0.7667745295	 0.116974
H	 1.9137652815	-0.9141252727	-0.9068635776	 0.077261
H	 1.2310960829	-0.9414713847	 1.7090932931	 0.07311
H	-1.7825890665	-1.120952575	 2.6219382099	 0.115044
H	-2.5514016922	-2.5548580485	 1.9204588908	 0.111301
H	-1.0489592805	-2.7147820999	 2.8419188046	 0.114161
H	 0.2949882652	-3.7317757505	 0.0496662939	 0.085761
H	-1.4329307103	-3.5690934505	-0.3988799044	 0.0893
H	-0.3199108722	-1.9983335934	-2.2364760554	 0.059786
H	-2.2337549751	-0.6894074529	-0.5895037107	 0.059506
