18
gdb 44876	2.95049	1.52843	1.36738	4.2361	76.11	-0.2295	-0.0061	0.2234	1005.0266	0.149517	-401.924364	-401.917243	-401.916299	-401.955763	28.957	
O	 0.0190897396	 0.0695116313	 0.0227798668	-0.333755
C	 0.0282473014	 1.2692702233	 0.028531762	 0.450544
C	-1.180496368	 2.2393620209	 0.0526066289	-0.337393
C	-0.3898007346	 3.5652922464	 0.0257680859	-0.130901
C	 0.6936841992	 3.2674232162	-1.0547700892	-0.237695
C	 1.2131658335	 2.2296316646	 0.0036990054	-0.211281
C	 0.7284508532	 3.2706674842	 1.0403783504	 0.428459
C	 1.5079028256	 4.2153778146	 1.8548403298	-0.344157
N	 0.7053434237	 3.129505072	 2.4802949923	-0.393504
H	-1.8272993558	 2.0921358351	-0.81763112	 0.124409
H	-1.7798664415	 2.0909743758	 0.9558920306	 0.124838
H	-0.9519934527	 4.4991018429	 0.0382843302	 0.073118
H	 0.3553164423	 2.8781686469	-2.0183162307	 0.107564
H	 1.3952828928	 4.090937068	-1.1948897476	 0.114931
H	 2.2123941339	 1.8021377347	-0.0043765386	 0.088387
H	 2.5829521098	 4.1014334962	 1.9640378963	 0.127141
H	 1.1498189655	 5.2391382144	 1.9372053065	 0.116317
H	-0.1561578182	 3.5056733823	 2.8704940708	 0.232977
