23
gdb 99256	4.33521	0.59785	0.54212	3.0161	83.31	-0.2647	-0.0231	0.2416	2073.9737	0.202322	-425.455428	-425.444157	-425.443213	-425.493777	39.845	
C	-0.0953138991	 1.5582028113	 0.0744219052	-0.389823
C	-0.0205170257	 0.0258583424	 0.0331917872	 0.034368
C	 0.9235786697	-0.4976039382	 1.1255322304	-0.382864
C	-1.4326201235	-0.5766817798	 0.1311912013	-0.162492
C	-1.4945289093	-2.0920029615	-0.0783641584	-0.321052
C	-2.9036692687	-2.6344021547	-0.2079816242	 0.352413
O	-3.8703998942	-1.9368584315	-0.4356756697	-0.319952
C	-3.1048584068	-4.1382441469	-0.0562199556	-0.126791
O	-4.4277918963	-4.5041212457	-0.307029833	-0.420144
H	 0.896876771	 2.0068736704	-0.0394969402	 0.11037
H	-0.7353299159	 1.9478784614	-0.7238819673	 0.113495
H	-0.5078789683	 1.904116483	 1.0297058919	 0.113998
H	 0.3981594706	-0.2637181476	-0.9423911717	 0.070223
H	 0.5339307928	-0.2609830485	 2.1232468945	 0.113151
H	 1.0633205406	-1.5817829193	 1.0705830715	 0.109798
H	 1.9130309567	-0.0367053118	 1.0402510637	 0.113872
H	-1.8674347428	-0.3295810061	 1.1088287749	 0.10099
H	-2.0833851895	-0.1046052945	-0.6117682666	 0.117387
H	-0.9684843247	-2.3706374623	-1.004845143	 0.132159
H	-0.9822757332	-2.6438118719	 0.7189155959	 0.121544
H	-2.4108052646	-4.6586412426	-0.7362049663	 0.113083
H	-2.7939474056	-4.4138963695	 0.967044654	 0.112767
H	-4.8933671731	-3.664092976	-0.4515470143	 0.293499
