17
gdb 46744	2.81957	1.7683	1.37582	2.1992	70.53	-0.2318	-0.0287	0.2031	953.6051	0.136863	-421.806658	-421.799519	-421.798575	-421.838764	27.727	
O	-0.0751045721	 0.0576276934	 0.4181937968	-0.304665
C	-0.0893599081	 1.21224222	 0.0826043327	 0.360767
C	-1.3263673503	 1.9828427107	-0.4051656874	-0.18332
O	-0.9839990384	 3.354984281	-0.5025730817	-0.272754
C	 0.430418577	 3.5338099	-0.4010888113	 0.089516
C	 0.950905837	 4.2039475636	 0.8833191908	-0.056561
C	 0.43870459	 3.4817378051	 2.0944812497	-0.296791
C	 1.5688723417	 2.8676163358	 1.3208227705	-0.052624
C	 1.0706892151	 2.1946246352	 0.0219464682	-0.173594
H	-1.6383442342	 1.5766461053	-1.3806636187	 0.12493
H	-2.1610693355	 1.8490772492	 0.2932999578	 0.135194
H	 0.8140889369	 3.9868091073	-1.3198168918	 0.085861
H	 1.3694866034	 5.2007015378	 0.935567225	 0.093113
H	 0.7291018775	 3.9232079288	 3.0420865895	 0.12116
H	-0.5562012318	 3.0464572964	 2.1023581437	 0.123019
H	 2.5361679738	 2.6729711127	 1.7645313079	 0.100383
H	 1.873513868	 1.8174042978	-0.6134953216	 0.106366
