19
gdb 103761	3.37661	1.00856	0.8969	0.95	68.59	-0.2376	0.0597	0.2973	1325.1486	0.155855	-497.263155	-497.252788	-497.251844	-497.298085	38.238	
O	-0.1145561827	 1.3487824369	-0.3740754239	-0.437197
C	 0.0006613665	 0.0027075243	 0.0957594092	-0.144026
C	-1.3985258867	-0.5590436291	 0.0746189438	 0.365777
O	-2.2945230408	 0.2009995267	 0.8378853318	-0.485161
C	-1.916458472	-1.2382122448	-1.1857848558	-0.404397
C	-1.617883396	-2.0320826018	 0.0786372975	 0.365778
O	-0.4653222097	-2.8281681923	 0.108720906	-0.485162
C	-2.7551710117	-2.6306252517	 0.8673446691	-0.144027
O	-2.9720604338	-3.9300508999	 0.3102171353	-0.437197
H	 0.6810166384	 1.825452295	-0.1225759743	 0.292078
H	 0.6689500357	-0.5948166023	-0.5339931108	 0.109377
H	 0.3838317415	-0.0179549577	 1.1258933321	 0.09848
H	-2.1510435992	 1.1142243189	 0.5565030653	 0.288687
H	-2.9556947289	-1.0730975693	-1.4468639388	 0.114183
H	-1.230615251	-1.3536829033	-2.0174835309	 0.114183
H	-0.770390656	-3.7186969263	-0.1095313709	 0.288687
H	-2.4633064372	-2.7047824453	 1.9245758784	 0.098481
H	-3.6493476113	-2.0013748089	 0.7986056925	 0.109377
H	-3.4829201049	-4.446716509	 0.9390901544	 0.292078
