17
gdb 2483	4.93873	2.59354	2.43459	1.5221	63.45	-0.2346	0.0977	0.3323	651.3752	0.150324	-309.701458	-309.695519	-309.694575	-309.730799	24.041	
C	-0.0976611444	 1.5103202431	-0.0327252827	-0.411931
C	 0.070274309	 0.0035608176	 0.0733587012	 0.16365
O	 0.918870432	-0.5059680262	-0.9917272955	-0.299591
C	 1.910543744	-1.2427229024	-0.2580777638	 0.121332
C	 1.0819538876	-2.0118622129	 0.8005226462	-0.234712
C	 0.8320973935	-0.5497181792	 1.2932430048	-0.069682
C	 2.3132590122	-0.2724514599	 0.87816915	-0.234996
H	 0.8488963239	 2.0384298184	 0.109543652	 0.118278
H	-0.4850691467	 1.7732414526	-1.0215894214	 0.127507
H	-0.8115799472	 1.8670926681	 0.7177032711	 0.110447
H	-0.9167555696	-0.4727661501	-0.0107858959	 0.070289
H	 2.6112496329	-1.7066273418	-0.9506029996	 0.076745
H	 0.2269457129	-2.5902989068	 0.4414288467	 0.097369
H	 1.6906972456	-2.5976965216	 1.4913149581	 0.098221
H	 0.4372244388	-0.3159904767	 2.28149872	 0.069061
H	 3.0276279326	-0.7023207975	 1.5822923288	 0.099025
H	 2.6091178929	 0.7394106851	 0.59517081	 0.098989
