21
gdb 59314	2.86598	1.1064	0.86893	3.6489	79.28	-0.2342	-0.0158	0.2183	1363.5867	0.179771	-424.239157	-424.229059	-424.228115	-424.274471	37.238	
C	-0.0329831258	 1.6531409061	 0.0143028151	-0.410219
C	 0.0416863015	 0.1477895548	 0.2756911038	 0.114955
O	 0.289225466	-0.1227670163	 1.6554196956	-0.438736
C	-1.2597396626	-0.5623478398	-0.0651989213	 0.02984
C	-1.672611857	-0.620024818	-1.567899175	-0.386976
C	-1.9256307599	-2.1263640018	-1.3885737012	 0.404136
O	-2.4322026201	-2.967080599	-2.0740533188	-0.300361
C	-1.3134355701	-2.1327276341	 0.0237228301	-0.125219
C	 0.0028492374	-2.9086750609	 0.1290971139	-0.405169
H	 0.9127466333	 2.1402324646	 0.2792602883	 0.106091
H	-0.2277996707	 1.8655627651	-1.0416018573	 0.122636
H	-0.8292651296	 2.1047278556	 0.6145617254	 0.125936
H	 0.8525679748	-0.2765754846	-0.3399976405	 0.063142
H	 1.0889867935	 0.346801526	 1.9132534982	 0.28174
H	-2.0535179159	-0.124408249	 0.547436223	 0.083616
H	-2.5275090122	-0.0224029295	-1.8934730423	 0.128615
H	-0.8417435898	-0.4345367478	-2.2595949238	 0.126757
H	-2.0114340653	-2.5005577199	 0.7827927523	 0.100191
H	 0.7010583355	-2.6400085113	-0.6707518919	 0.112427
H	 0.4877285355	-2.7032844134	 1.0859944469	 0.138608
H	-0.1913149384	-3.9817429269	 0.0470322297	 0.127989
