21
gdb 39480	2.29705	1.73684	1.20539	1.1495	84.35	-0.2229	0.015	0.2379	1104.4995	0.185232	-387.064412	-387.05644	-387.055496	-387.096744	31.927	
C	-0.1311144111	 1.2944303402	-0.4870160663	-0.303557
C	 1.2856239594	 0.9177770075	-0.1431950485	-0.023828
C	 1.9913737167	 1.4267660366	 1.1133885093	-0.117445
O	 2.2282254982	 0.4255020273	 2.0886604854	-0.230193
C	 1.4483367069	 0.5391099617	 3.260460825	-0.053263
C	-0.0710161772	 0.5134911386	 3.0078980634	-0.294478
C	-0.5238855189	-0.7001516188	 2.2426280341	-0.074855
C	-0.3730862414	-0.9490143672	 0.9391088614	-0.028058
C	 0.2050173019	-0.1559068463	-0.1806906913	-0.036962
H	-0.6969423446	 1.8346333533	 0.2648571495	 0.118417
H	-0.3830955218	 1.5663829906	-1.5066433409	 0.111351
H	 1.95610662	 0.8469483104	-0.9949471962	 0.089308
H	 2.9715730485	 1.8149995531	 0.8108984055	 0.103052
H	 1.4465885768	 2.2722039696	 1.5527817623	 0.093841
H	 1.739490527	-0.3128338209	 3.8837820216	 0.106881
H	 1.7038130781	 1.4607027901	 3.8105083952	 0.082336
H	-0.5684632317	 0.5502729549	 3.9838156591	 0.099348
H	-0.3619768836	 1.4354798128	 2.4930934482	 0.106187
H	-0.9956423594	-1.4801836632	 2.8357022996	 0.082685
H	-0.7536849376	-1.9098707636	 0.596455277	 0.082241
H	 0.286878334	-0.7656934966	-1.0756268431	 0.086991
