13
gdb 129236	2.5963	1.87134	1.24712	2.4463	72.02	-0.2579	-0.1002	0.1578	947.7847	0.090528	-445.044096	-445.036786	-445.035842	-445.076417	26.782	
N	-0.0869814152	 1.353079425	-0.2054194635	-0.473278
C	-0.0525812602	 0.1093842619	 0.011615836	 0.376248
N	 1.1480449615	-0.6224286188	 0.2425651352	-0.275472
N	 1.4064395349	-1.9452245613	 0.4139372155	-0.049327
N	 0.6154360638	-2.723418419	 1.0050019211	-0.164184
C	-0.6250552947	-2.3352755217	 1.5473589454	 0.082644
N	-1.5064665016	-1.5188867711	 1.1248012869	-0.228097
C	-1.3004030963	-0.731772787	-0.0119735158	 0.293272
N	-2.1016944903	-0.6283080844	-0.988084814	-0.449904
H	 0.831213163	 1.7966601332	-0.1347444053	 0.226474
H	 1.9786162252	-0.1730389278	-0.1214891287	 0.276286
H	-0.8569482934	-2.9291517295	 2.4310276521	 0.149304
H	-2.9083684167	-1.2396902596	-0.8329795948	 0.236033
