21
gdb 1566	5.89918	1.09101	0.98094	1.3242	71.22	-0.261	0.0805	0.3416	1234.4279	0.193096	-312.124451	-312.11489	-312.113946	-312.158831	33.666	
C	 0.0983807787	 1.5261168138	 0.0865133262	-0.392353
C	-0.037305779	 0.0030289003	-0.0065654303	-0.163314
C	-1.4860287454	-0.5203379249	-0.0664399921	 0.039398
C	-2.2091255871	-0.0580544665	-1.3411923179	-0.390449
C	-1.4924950098	-2.0525960266	 0.0766300655	-0.163564
C	-2.8725072905	-2.6787362373	 0.2426971949	-0.086011
O	-2.685325429	-4.063348911	 0.5054720836	-0.421474
H	 1.147392881	 1.8169620748	 0.2014022007	 0.111761
H	-0.2827146707	 2.0313279344	-0.8062118543	 0.117167
H	-0.4501965654	 1.9194808278	 0.9501201234	 0.111862
H	 0.5099257717	-0.3617751066	-0.8869724709	 0.09193
H	 0.4570779837	-0.4483053302	 0.862994886	 0.092177
H	-2.0227114357	-0.1006721784	 0.7987481751	 0.065911
H	-1.7197426164	-0.466756802	-2.2339466994	 0.11175
H	-3.2535796183	-0.3829606968	-1.3581866594	 0.112089
H	-2.210158919	 1.0317564975	-1.4322986215	 0.113668
H	-1.001241305	-2.5109823045	-0.7918731089	 0.098458
H	-0.8992811814	-2.3388691281	 0.9535774653	 0.101108
H	-3.4047797126	-2.1854478838	 1.0737192051	 0.080811
H	-3.4785032574	-2.5325911744	-0.664090241	 0.085413
H	-3.5514315323	-4.4762747973	 0.56724067	 0.283663
