17
gdb 62193	4.75645	0.62036	0.56833	2.3933	74.69	-0.2994	0.0022	0.3016	1843.5151	0.133854	-418.024415	-418.014349	-418.013404	-418.061554	33.859	
C	 0.000792276	 1.5389227212	-0.0639224487	-0.401805
C	-0.0061894663	 0.0060338005	 0.0113232721	-0.011005
O	 0.7223852229	-0.4961249271	 1.1207487797	-0.25244
C	 2.1210670784	-0.5544722448	 0.9281133176	-0.063715
C	 2.6928567183	-1.2665963753	 2.159843368	-0.339322
C	 4.1461555896	-1.3800089023	 2.091269066	 0.247887
N	 5.29620088	-1.4584547631	 2.0163475368	-0.295197
C	-1.3824449083	-0.5030551381	 0.140541076	 0.283181
N	-2.4710167573	-0.8801724297	 0.2160014359	-0.307855
H	 1.0201073094	 1.9051631686	-0.2085776205	 0.134038
H	-0.6084430882	 1.879849615	-0.90505165	 0.147371
H	-0.4028070219	 1.9605622658	 0.8593010369	 0.151767
H	 0.4061665228	-0.4089000831	-0.9222621071	 0.123865
H	 2.3682284685	-1.1169409286	 0.0154239422	 0.121069
H	 2.56357928	 0.4469599372	 0.8371356668	 0.122133
H	 2.4120546941	-0.7126324134	 3.0614757823	 0.169471
H	 2.2496396818	-2.264110683	 2.2419589258	 0.170557
