21
gdb 119460	4.3611	0.82666	0.7746	1.0246	79.45	-0.2297	0.0785	0.3082	1543.8338	0.180892	-424.185634	-424.176031	-424.175087	-424.220394	35.625	
C	-0.1026764323	 1.5162903048	-0.0057341112	-0.408295
C	 0.1148280869	 0.0197626588	 0.0775723724	 0.153526
O	 1.1655972477	-0.4703644854	-0.8115565045	-0.350219
C	 1.7661919692	-1.1994087487	 0.2743052455	 0.491643
C	 2.2761685416	-2.5748101074	-0.0155518997	-0.295446
C	 3.4598446648	-2.5577926526	-0.9808552745	-0.071064
O	 3.8521368633	-3.9048481081	-1.1993415016	-0.422454
C	 2.273455064	-0.2340959254	 1.3033072853	-0.341053
C	 0.8036632691	-0.6176640303	 1.2847885661	-0.225903
H	 0.7942861202	 2.0702965599	 0.2830459218	 0.120872
H	-0.3688548809	 1.8032602039	-1.0281002986	 0.127263
H	-0.9237737064	 1.8137381389	 0.6554828552	 0.117277
H	-0.8170825909	-0.5114403064	-0.1583640608	 0.080615
H	 2.5845278317	-3.0548993837	 0.9197764558	 0.108806
H	 1.4777526421	-3.1859413694	-0.4514850773	 0.113156
H	 3.1567526935	-2.0674729295	-1.9176099179	 0.107133
H	 4.2811182663	-1.9651501514	-0.5474061895	 0.087196
H	 4.5539423081	-3.9093515316	-1.8564281991	 0.285424
H	 2.8325154761	-0.6736189198	 2.1239268298	 0.113176
H	 2.6026635342	 0.7566624575	 1.0041066558	 0.111619
H	 0.3053303716	-1.0785323741	 2.127429917	 0.096727
