21
gdb 59202	2.88818	1.06327	1.02778	1.4554	79.22	-0.2337	0.0761	0.3098	1319.5917	0.180531	-424.154269	-424.144856	-424.143912	-424.188491	35.614	
C	 0.5143153863	 0.8885790752	 0.6177790556	-0.408236
C	 0.2223354905	-0.6131236688	 0.6069733662	 0.085045
O	 0.5659432158	-1.2160256368	 1.8581527203	-0.44738
C	-1.2546270246	-0.9048249306	 0.4155592497	 0.048775
C	-1.8702815672	-0.8406553584	-1.0083908498	 0.003041
O	-1.0998725991	-2.0535045441	-1.3723456133	-0.31525
C	-1.6791882057	-2.3286306535	-0.032627223	 0.012382
C	-3.0341521518	-1.7767442029	-0.5660771123	 0.046404
C	-4.186974588	-1.3427558184	 0.3239277622	-0.444074
H	 1.5820222234	 1.0746695041	 0.7817248124	 0.104722
H	 0.2429107135	 1.3508363108	-0.3371653061	 0.117045
H	-0.0435475275	 1.3850702332	 1.4186191224	 0.119483
H	 0.7771538031	-1.0895748896	-0.2110516816	 0.086019
H	 1.5088392447	-1.0846343574	 1.9986536301	 0.280025
H	-1.8375292306	-0.4584509533	 1.2250589966	 0.07356
H	-1.8775451531	-0.019425802	-1.727768205	 0.086827
H	-1.4475618826	-3.2904068768	 0.425382176	 0.095821
H	-3.382185074	-2.3734769897	-1.4133690156	 0.083744
H	-3.8754402834	-0.7395489603	 1.1798343975	 0.124293
H	-4.9101343731	-0.7552606422	-0.2520808661	 0.122693
H	-4.7159177866	-2.2200488684	 0.7115476638	 0.125063
