13
gdb 66894	2.66771	2.15209	1.48361	2.7418	61.24	-0.2446	-0.0466	0.198	842.9454	0.089464	-452.705624	-452.698911	-452.697967	-452.736604	25.966	
O	-0.1667973838	 1.3861900398	 0.0553974395	-0.440468
C	 0.0061153079	 0.0315852093	 0.0822495187	 0.22978
C	-0.1405406186	-0.8443620859	-1.2207125602	-0.089579
N	 0.726757981	-2.0048702621	-1.3984319145	-0.182578
C	 0.6552706282	-2.625470115	-0.291797686	 0.006031
N	-0.1889615861	-2.0143923273	 0.7246322192	-0.223478
C	-1.0453905111	-1.0732825356	-0.0766970794	-0.084769
C	 0.6068974394	-0.8003760975	 1.1574695227	 0.366318
O	 1.3269066534	-0.6701027447	 2.0918766344	-0.301902
H	 0.5591712503	 1.7899972958	-0.4336609525	 0.307707
H	-0.4319619203	-0.2813132391	-2.098897576	 0.126145
H	 1.2142936104	-3.5196740889	-0.044512725	 0.149885
H	-2.1197779506	-1.0334810888	 0.0405289891	 0.136909
