14
gdb 125350	3.4335	1.7271	1.1574	4.8556	69.05	-0.2282	-0.0278	0.2004	981.7435	0.103158	-432.871	-432.864235	-432.863291	-432.902209	25.559	
C	-0.0200213458	 1.5396051189	 0.0351554509	-0.500269
C	-0.0112205098	 0.0535115783	-0.0246982532	 0.23876
C	-0.0342497936	-0.8465912301	-1.063345007	-0.148662
N	-0.0131779957	-2.1798242926	-0.6542177847	-0.398581
C	 0.023114673	-2.0642097281	 0.6354081545	 0.524821
O	 0.0591606616	-2.9051009864	 1.6842342302	-0.244655
N	 0.0873297997	-2.113960351	 2.8596964223	-0.12406
C	 0.0674200064	-0.8762288372	 2.4666225188	 0.036606
N	 0.0273771326	-0.7723205534	 1.1033057765	-0.104886
H	 0.8777383785	 1.9420269184	 0.5205093856	 0.135138
H	-0.0550200833	 1.9419129962	-0.9798951875	 0.149456
H	-0.8910916415	 1.9291979994	 0.5763669254	 0.135067
H	-0.0661929336	-0.6028815012	-2.1153366863	 0.122742
H	 0.0814369816	-0.0491827111	 3.1585027945	 0.178524
