21
gdb 86264	1.79954	1.6389	1.13043	1.0726	85.32	-0.2513	0.0347	0.286	1218.2196	0.179425	-387.054239	-387.04404	-387.043096	-387.088651	38.7	
C	-0.6017472512	 0.8684538466	-1.6201882601	-0.428736
C	 0.3760196559	-0.1899813791	-1.1406166607	 0.005555
C	 1.8971445227	 0.0019362225	-1.3815498878	-0.271047
C	 2.16865525	-0.59766289	 0.0243793362	 0.013535
C	 3.2782872858	-0.0302753242	 0.8928424429	-0.411872
C	 0.6825857442	-0.2776604964	 0.4025653442	 0.185751
O	 0.6523237258	 0.9993198377	 1.0310437865	-0.463068
C	-0.0629551995	-1.261600286	 1.1747218297	 0.268017
C	-0.7056119046	-2.066474646	 1.7971820614	-0.454871
H	-0.3347434716	 1.8517077465	-1.2216558255	 0.122515
H	-0.5944773562	 0.9339951562	-2.7134081452	 0.11824
H	-1.6279226604	 0.6377695796	-1.3109036852	 0.113805
H	 0.0662847451	-1.1817071356	-1.4852410964	 0.07931
H	 2.3391878207	-0.5065824575	-2.2412877173	 0.093438
H	 2.1649267455	 1.062216808	-1.4212796734	 0.106475
H	 2.2651445818	-1.6848806271	-0.0541077643	 0.082406
H	 3.1612934428	 1.0480263608	 1.0225930489	 0.132497
H	 3.2803014249	-0.4910428015	 1.8862537181	 0.119158
H	 4.2542823259	-0.2199063765	 0.4327401308	 0.109344
H	-0.2639168604	 1.1925083099	 1.256435673	 0.285232
H	-1.2615192772	-2.7809324478	 2.3525816042	 0.194315
