16
gdb 14917	4.6906	1.46731	1.19051	1.3168	66.41	-0.2556	0.043	0.2987	978.7193	0.131498	-383.704273	-383.697081	-383.696137	-383.735629	27.425	
C	 0.01837406	-1.1982800752	-0.0041578933	-0.445975
C	-0.0045883251	 0.0037668365	-0.0088911115	 0.301507
C	-0.011730616	 1.4575383446	 0.0198625939	-0.191992
C	-0.7223264771	 2.0048053843	 1.2794606431	-0.091529
O	-0.6291538104	 3.417923754	 1.3179531444	-0.231729
C	 0.7081269543	 3.8423436123	 1.2916688837	 0.011554
O	 1.3753407498	 3.4513753099	 0.1207267966	-0.231729
C	 1.4203054936	 2.0405669616	-0.0003447015	-0.091524
H	 0.0301436975	-2.2601446891	-0.0140450833	 0.199235
H	-0.5421379595	 1.8481293777	-0.8572084051	 0.120763
H	-1.7845582203	 1.7523656418	 1.2741891237	 0.125459
H	-0.2626989942	 1.5609286266	 2.1775880652	 0.100594
H	 0.6991076586	 4.9333999825	 1.3070499561	 0.121713
H	 1.2433881654	 3.4469105283	 2.1768065456	 0.0776
H	 2.0040814661	 1.5987257246	 0.8236101184	 0.100593
H	 1.9251297473	 1.8142890097	-0.9416433159	 0.12546
