14
gdb 50070	3.10471	0.97856	0.90578	2.8591	65.44	-0.2563	-0.114	0.1423	1280.7292	0.098086	-473.808967	-473.800197	-473.799252	-473.844138	29.776	
O	-0.3259965056	-0.2496111021	 0.2199204591	-0.251667
C	 0.3036962553	 0.3528859779	-0.6124477239	 0.16826
C	 1.1972261297	 1.5035283391	-0.2529788467	-0.125922
N	 2.2065527915	 1.8633373148	-1.2430780246	-0.310819
C	 1.139705373	 2.8354291264	-0.9742557297	-0.149352
C	 0.1741537967	 3.097753187	-2.0837627261	 0.324497
O	-0.2409470336	 2.2740118909	-2.8653248004	-0.283724
C	-0.3259727921	 4.5431676781	-2.2185448328	 0.091198
O	 0.0051416945	 5.4342014708	-1.4816312077	-0.2155
H	 0.2896363091	 0.0962361078	-1.6868595174	 0.122229
H	 1.4276302555	 1.5654600808	 0.8086796931	 0.121123
H	 3.0677239111	 2.1609953905	-0.791728835	 0.256997
H	 1.3686181258	 3.7084428973	-0.3712219088	 0.13258
H	-1.026782861	 4.6735777307	-3.0684816491	 0.120101
