17
gdb 124618	2.67752	1.37187	1.13218	0.8196	70.13	-0.2465	-0.0212	0.2253	1132.7891	0.136167	-451.338563	-451.329843	-451.328899	-451.372582	31.487	
C	-0.0136905559	 1.5541597657	-0.0075378527	-0.387877
C	-0.0370279115	 0.0232140353	-0.0438951063	 0.033358
C	-1.4571209511	-0.5491554762	-0.0050819128	-0.387843
N	 0.6873310564	-0.475209741	-1.2130469008	-0.07451
N	 0.2957493143	-0.2049958278	-2.4849397935	-0.116535
N	 1.1055007963	-0.7637937814	-3.2903684074	-0.068752
N	 2.042632262	-1.4103461743	-2.5478515157	-0.315581
C	 1.8299900265	-1.2641863208	-1.1877525172	 0.523717
O	 2.4521419645	-1.6939278431	-0.2408852959	-0.423166
H	 1.0128799969	 1.9304314886	-0.0117060745	 0.12981
H	-0.5385156517	 1.9688545036	-0.8728009365	 0.141825
H	-0.5077505371	 1.9119788075	 0.9000997493	 0.125024
H	 0.5419744201	-0.3732378459	 0.796305188	 0.130732
H	-2.0337743045	-0.2099066667	-0.8702535204	 0.141733
H	-1.4389444941	-1.642367115	-0.0075730065	 0.129862
H	-1.9677333184	-0.2155106216	 0.9026070406	 0.125038
H	 2.7835340073	-1.9223248869	-2.9954210777	 0.293165
