16
gdb 19270	3.20825	1.96571	1.39997	2.2852	65.64	-0.2239	-0.0166	0.2073	901.4625	0.129638	-383.714213	-383.706576	-383.705632	-383.746467	27.687	
C	-0.2249722498	 1.285676919	-0.0388721947	-0.246043
O	 0.3536455441	 0.0057021533	 0.1543568941	-0.246952
C	 0.7789775701	-0.588326361	-1.0388014529	 0.00984
C	 1.371877206	-1.9874603875	-0.8906473634	-0.082983
C	 0.3328437875	-2.9176324193	-0.3800443724	-0.2753
C	 0.312006668	-2.5763433122	-1.8678140558	-0.177895
C	-0.2700993246	-1.2082387497	-2.0297409126	 0.391773
O	-1.0998505069	-0.7249213795	-2.7490263209	-0.324631
H	 0.4997275136	 1.9883112975	-0.4785390398	 0.107208
H	-1.1046606594	 1.2397761293	-0.6923931552	 0.13798
H	-0.5222330388	 1.6522735316	 0.9459892873	 0.128038
H	 1.4361030958	 0.0880191135	-1.6119602746	 0.087805
H	 2.4291749389	-2.2141468663	-0.877706519	 0.107891
H	 0.6571264321	-3.931332396	-0.169988194	 0.128067
H	-0.448337316	-2.5490105108	 0.2753300012	 0.141054
H	 0.4116130592	-3.3417640318	-2.6265542475	 0.114148
