19
gdb 41696	3.0462	1.80491	1.51618	1.2376	73.34	-0.244	0.0739	0.3179	928.6626	0.162214	-422.992131	-422.985445	-422.984501	-423.023072	27.708	
C	 0.0039473952	 1.4543930301	-0.2730714215	-0.100388
O	 1.3870005101	 1.5741206198	 0.1307391977	-0.301775
C	 1.4533440935	 0.1810068451	 0.5119658372	 0.11268
C	 1.663551604	-0.0668325873	 1.9992172657	-0.052011
C	 0.5076106465	 0.5931808886	 2.7986115031	-0.250479
C	-0.33987204	-0.6363122908	 2.3746092352	 0.126504
C	 0.9896337676	-1.4404729626	 2.3024032139	-0.250674
O	-0.9233002302	-0.4708680417	 1.0871502565	-0.283655
C	-0.0212877022	-0.0492104433	 0.0800879057	 0.055955
H	-0.6691290789	 2.0718751211	 0.3328461968	 0.107676
H	-0.1320477825	 1.6944624696	-1.3342520008	 0.101645
H	 2.2017804854	-0.3575573058	-0.083654742	 0.076572
H	 2.6947619417	 0.1140355767	 2.3096263917	 0.069794
H	 0.7076062082	 0.5831437619	 3.8730208083	 0.10111
H	 0.1698762055	 1.5861774091	 2.4984321238	 0.11311
H	-1.1459227929	-0.9881065957	 3.0197418767	 0.078199
H	 1.0561002028	-2.2341789228	 1.5525640284	 0.100007
H	 1.2780092229	-1.8333227404	 3.2800693429	 0.105432
H	-0.1597049765	-0.7041805714	-0.7838617091	 0.090296
