18
gdb 26503	3.64058	1.23296	0.99579	3.2851	78.49	-0.206	0.041	0.2469	1191.2417	0.148307	-401.967253	-401.959057	-401.958113	-402.000224	31.62	
C	-0.3262848948	 1.3058783617	-0.860242625	-0.479589
C	-0.0573201946	 0.0480738396	-0.0630069229	 0.312577
C	 1.1740172404	-0.7204235021	-0.3388511232	-0.224995
O	 1.0908580377	 0.1225051449	 0.808652813	-0.278434
C	-1.232860817	-0.6415032706	 0.5249951322	 0.261408
C	-2.5517187704	-0.5082541524	 0.1431008072	-0.200051
N	-3.3062215137	-1.3330194268	 0.9376944038	-0.244568
C	-2.495433348	-1.9878758164	 1.8302311139	-0.067942
C	-1.204727798	-1.5814590231	 1.5996253446	-0.265627
H	 0.6140045231	 1.7527371243	-1.1911426237	 0.123648
H	-0.9344016923	 1.0854385472	-1.744259057	 0.118347
H	-0.8643026291	 2.0395677531	-0.2519870928	 0.128081
H	 1.1891305481	-1.7902964437	-0.1354293798	 0.108592
H	 1.8579626257	-0.3853116598	-1.1194013044	 0.104733
H	-3.0100658573	 0.0935319078	-0.6244866305	 0.116425
H	-4.3041187136	-1.4325338145	 0.8802769101	 0.260929
H	-2.9053643519	-2.6738514258	 2.5538885838	 0.119666
H	-0.3271723343	-1.8847607333	 2.1480448206	 0.106799
