17
gdb 26928	2.33708	1.65601	0.97627	4.3772	80.33	-0.1879	-0.015	0.1729	1167.6197	0.136853	-418.073426	-418.064754	-418.06381	-418.106255	32.813	
C	-0.0252008957	 1.5024135252	 0.0256956708	-0.508696
C	-0.0206741863	 0.0049244835	 0.0077097466	 0.185848
C	-0.016556289	-0.7920931663	-1.0956607335	-0.180425
N	-0.0029208319	-2.1311665623	-0.6802025443	-0.330814
C	-0.0062445945	-2.1882740389	 0.6742119896	 0.329393
N	-0.0674930531	-3.3478267472	 1.3987014874	-0.599915
C	-0.0088572389	-0.8717210067	 1.1599911595	 0.048699
C	 0.0530224074	-0.5649880022	 2.5572747754	 0.052762
O	 0.076416868	-1.4027836933	 3.4588337057	-0.350572
H	 0.8564208752	 1.906890285	 0.5367462629	 0.128731
H	-0.0315216374	 1.9042633442	-0.9914062643	 0.120666
H	-0.90475137	 1.8995370466	 0.5456406111	 0.12999
H	-0.015714743	-0.5483468662	-2.1454985847	 0.121079
H	-0.0667546709	-2.9268007103	-1.2916013341	 0.259598
H	 0.4381501989	-4.1442373363	 1.0391371794	 0.246386
H	 0.0743660883	-3.157052781	 2.3882881902	 0.282783
H	 0.0910957129	 0.5149389163	 2.8132214822	 0.064487
