16
gdb 64676	3.41023	1.04739	0.96292	5.1757	69.15	-0.2883	-0.0048	0.2835	1231.1306	0.12293	-437.935444	-437.926855	-437.925911	-437.969132	31.322	
C	-0.2447442752	 1.720844872	-0.2032853904	-0.447068
C	-0.0083071172	 0.2252459822	-0.1189084797	 0.40072
C	-1.2650085997	-0.5844697278	 0.2360821996	-0.384268
C	-1.9097343909	-0.1397463227	 1.4702729793	 0.278422
N	-2.4238577621	 0.2232785347	 2.4387378132	-0.3001
C	 0.8476711553	-0.4092184386	-1.2392931667	-0.478712
C	 1.857172835	-0.6435249329	-0.1163338221	 0.449284
O	 2.9380234481	-1.1156528874	 0.0133824079	-0.306683
O	 1.0639012216	-0.0778354155	 0.8516839761	-0.265921
H	 0.6878808238	 2.2389516182	-0.4399397462	 0.137455
H	-0.9770838206	 1.9487266824	-0.9845901555	 0.131026
H	-0.6230567708	 2.1057844798	 0.7472030865	 0.165702
H	-1.9867897074	-0.5049921466	-0.5851925932	 0.161459
H	-1.0003341869	-1.6420955339	 0.3373628716	 0.163044
H	 0.4597724844	-1.3232338218	-1.6932235414	 0.145052
H	 1.1894954227	 0.2713052279	-2.020495219	 0.150588
