19
gdb 63189	2.96449	1.36444	1.26217	1.5867	71.47	-0.2243	0.0749	0.2992	1082.6632	0.158409	-460.126752	-460.118053	-460.117109	-460.159952	33.013	
C	-0.3664047174	 1.5558906803	-0.1451875113	-0.44872
C	-0.0869986656	 0.0797568115	-0.015197259	 0.29274
O	-1.1689056669	-0.7692462375	-0.3039382106	-0.461542
C	 1.2877354008	-0.4961544214	-0.3390670831	-0.037416
O	 2.3405430242	 0.375470711	-0.6315961892	-0.252852
C	 3.2563378378	 0.4388288967	 0.4579393708	-0.094583
C	 2.5681236822	 1.0299655611	 1.6770578654	-0.06672
O	 1.3913508984	 0.3161257795	 2.0526188034	-0.268114
C	 0.7769445261	-0.4840786991	 1.0864119169	 0.05168
H	 0.5469682984	 2.1474270663	-0.0710891364	 0.130576
H	-0.8130090505	 1.7654132476	-1.1247294043	 0.107839
H	-1.0685524827	 1.8857533462	 0.626090708	 0.129751
H	-1.3362668117	-0.7202689284	-1.252714369	 0.280107
H	 1.3238416182	-1.4451352975	-0.8738073764	 0.092718
H	 3.6554022564	-0.5617090178	 0.6802099585	 0.102876
H	 4.0820361722	 1.0831265274	 0.1436750413	 0.114192
H	 3.2394158814	 1.0125573984	 2.5431071944	 0.10918
H	 2.3097389787	 2.0783180213	 1.4694218901	 0.105537
H	 0.4358056102	-1.4251645055	 1.5072811904	 0.11275
