14
gdb 14286	3.90335	1.88644	1.80959	4.8828	56.64	-0.2834	0.0373	0.3207	779.0398	0.107654	-419.706575	-419.699914	-419.698969	-419.737665	24.542	
C	-0.064044007	 1.5653654908	 0.0145189293	-0.425546
C	 0.0579340882	 0.0590896145	 0.0546547065	-0.088675
C	 1.3479610749	-0.6901146955	-0.1993476406	 0.039143
O	 2.5498086997	 0.039023929	-0.0624365983	-0.240096
C	 2.7021476189	 0.4402371944	 1.2334016978	 0.497619
O	 3.6116769548	 1.0836626678	 1.6436217443	-0.368245
O	 1.6410631105	 0.0199635251	 1.9822691971	-0.240074
C	 0.739092678	-0.7028845371	 1.1706037295	 0.039183
H	 0.8208875147	 2.067210577	 0.4103260561	 0.155241
H	-0.2068315157	 1.9081644422	-1.0145442401	 0.13371
H	-0.923633076	 1.8934322024	 0.6064214921	 0.133742
H	-0.804094754	-0.4796558768	-0.3334662986	 0.108882
H	 1.4366696308	-1.5292767419	-0.8765201648	 0.12756
H	 0.3017475222	-1.5530889819	 1.6770693398	 0.127557
