19
gdb 103803	2.73483	1.1155	0.93096	5.107	73.63	-0.2344	0.024	0.2583	1305.6906	0.157912	-456.349409	-456.339231	-456.338286	-456.384561	36.845	
C	-0.3109987372	 2.039694257	 0.0001172124	-0.465817
C	-0.1690207186	 0.535298594	-0.0660095546	 0.295921
C	-1.3371314332	-0.1566061993	-0.7533780504	-0.147975
O	-1.0655724064	-1.5462218734	-0.8672456949	-0.422227
N	 1.1723912722	 0.0198569601	-0.318763771	-0.353705
C	 0.5503301678	-0.2454883905	 0.9968094231	-0.172482
C	 1.1834767693	 0.4011524056	 2.1999934465	 0.429089
N	 0.9748226947	-0.2938678216	 3.3638255942	-0.535009
O	 1.7884824402	 1.4552430041	 2.1788725463	-0.362708
H	 0.5448824697	 2.4732418415	 0.5157735712	 0.177119
H	-0.3655008867	 2.4556248783	-1.0124718183	 0.11064
H	-1.2262830057	 2.3232098358	 0.5324391912	 0.107104
H	-2.2582326535	 0.025426847	-0.1781127341	 0.099612
H	-1.4728543933	 0.2986508828	-1.7473267674	 0.09968
H	-1.7496682028	-1.9486358479	-1.408508894	 0.296903
H	 1.0978181876	-0.8346589962	-0.8687299955	 0.239968
H	 0.1712487773	-1.2521144297	 1.154209113	 0.089283
H	 0.6427774916	-1.2425383358	 3.3602082749	 0.255857
H	 1.4476367267	 0.0388846483	 4.1886559376	 0.258747
