19
gdb 107234	2.92578	1.40659	1.09631	2.3995	75.35	-0.1952	0.0547	0.25	1137.535	0.15831	-419.090613	-419.081822	-419.080877	-419.123897	33.658	
C	-0.058724373	 1.5619869552	 0.1740292326	-0.514173
C	 0.0755077556	 0.0759215412	 0.0511863132	 0.282522
N	-0.8693369178	-0.8737495226	 0.6851865044	-0.347915
C	 0.5855843875	-0.9547721038	 0.9849566615	-0.123721
C	 1.2979053191	-1.6890685157	-0.1903470767	-0.116192
N	 0.2816061301	-2.0648575776	-1.2141469539	-0.363065
C	 0.79284345	-0.6780035931	-1.1411135386	 0.292242
C	 1.4575658538	 0.0006208742	-2.3081737953	-0.215846
O	 2.2200598439	-0.9089991033	-3.0937854048	-0.408868
H	 0.8693570713	 2.0751702969	-0.1015998278	 0.124656
H	-0.8577917094	 1.9491644343	-0.4697062437	 0.129533
H	-0.2963384431	 1.8426229199	 1.2060559129	 0.119578
H	-1.2892389247	-0.3707449304	 1.4692233939	 0.220314
H	 0.9638046685	-0.8561318373	 1.9947429923	 0.090774
H	 2.2614602384	-2.179344866	-0.1470114446	 0.099774
H	 0.8314279387	-2.5005452461	-1.9585156236	 0.216588
H	 0.706054941	 0.5192200685	-2.9226913683	 0.102803
H	 2.1565214215	 0.7650897956	-1.9476442377	 0.116938
H	 1.6454234585	-1.26277827	-3.778449386	 0.294057
