15
gdb 44648	3.12176	1.70468	1.55108	4.5257	63.22	-0.263	-0.0014	0.2616	881.5774	0.113993	-457.731737	-457.725251	-457.724307	-457.76299	25.132	
O	-0.3932696238	 0.2713086189	 0.3948747271	-0.322866
C	-0.1210313135	 1.3618509541	 0.0124064897	 0.46088
O	-0.9499983703	 2.2588269499	-0.6316658476	-0.238669
C	 0.114557159	 3.2423828673	-0.7510633535	 0.09013
C	 0.1892515386	 4.2611069474	 0.4415016705	 0.093289
O	-0.8171557857	 4.1001427446	 1.4424316288	-0.27746
C	 0.0480893996	 3.2537451098	 2.2483088864	-0.102418
C	 1.1656460833	 3.3164547756	 1.1881408204	-0.090911
C	 1.0886635047	 2.3010196968	-0.0056738848	-0.261296
H	 0.2273762473	 3.5968942037	-1.7745945844	 0.101607
H	 0.3878087186	 5.3037288527	 0.1797802162	 0.087658
H	 0.3012358512	 3.7431952717	 3.1955320202	 0.112102
H	-0.3964154723	 2.273775558	 2.4506702902	 0.13678
H	 2.1668039099	 3.5991489975	 1.5053490243	 0.097386
H	 2.0213159036	 1.912418962	-0.4083260134	 0.113788
