20
gdb 38679	2.65123	1.85915	1.4596	2.1463	77.61	-0.2125	0.0822	0.2947	971.2691	0.17419	-403.101124	-403.094038	-403.093094	-403.132228	29.321	
C	 0.1173888747	 1.5112622077	 0.8019379603	-0.256764
C	 1.2379637939	 0.8835873213	 0.0318688724	 0.010393
C	 2.5573956942	 0.4438041119	 0.6754804123	-0.249119
C	 2.5231745382	-0.7292619905	 1.6481915383	 0.113412
C	 1.443423733	-0.7372323695	 2.7490303293	-0.296361
C	 0.6817940871	-1.6420446907	 1.7592439138	 0.107535
C	-0.3690025026	-1.0095506088	 0.8493034013	-0.1618
N	-0.0653244518	 0.2312552809	 0.1423035896	-0.0815
O	 1.9076888433	-1.8836818127	 1.0213834621	-0.29539
H	 0.2114994025	 1.5563395056	 1.8840182791	 0.105165
H	-0.4469710763	 2.3412265483	 0.3788342402	 0.105765
H	 1.4034176876	 1.2777898908	-0.9708166028	 0.091478
H	 3.2342322647	 0.145275553	-0.1339219461	 0.115553
H	 3.0283367834	 1.3084910435	 1.1633601972	 0.103194
H	 3.5427739912	-0.9552879296	 1.9803748826	 0.076467
H	 1.7718530191	-1.2917039752	 3.6300857059	 0.11153
H	 0.9971999093	 0.2029438233	 3.0660107687	 0.107509
H	 0.2745130274	-2.5738768634	 2.1711327572	 0.075186
H	-0.5969980848	-1.7630380706	 0.0835226308	 0.116053
H	-1.2939907442	-0.8502980154	 1.4185969477	 0.101695
