22
gdb 121170	2.39798	0.99127	0.74684	1.882	85.9	-0.2467	0.032	0.2787	1605.5	0.193106	-404.353431	-404.343072	-404.342127	-404.389806	36.328	
C	-0.0147226256	 1.5440261122	 0.1163800293	-0.383171
C	 0.0505951291	 0.016529823	 0.0489602728	-0.167468
C	 0.6376578471	-0.495694196	-1.2723852962	-0.191592
C	 0.752898452	-2.0185085822	-1.3219742202	-0.159527
C	 1.4976165723	-2.6602073077	-2.5157173621	-0.107211
O	 2.4864324094	-3.2368334384	-1.6110069872	-0.267796
C	 1.8669059957	-2.6572445006	-0.5116976493	 0.471366
N	 2.1818824844	-2.6740692352	 0.6987225877	-0.327691
C	 3.3765716971	-3.3969765549	 1.1141155953	-0.339915
H	 0.9836690351	 1.9872075443	 0.0301782523	 0.114999
H	-0.6290019619	 1.9546698207	-0.6932834894	 0.10985
H	-0.4458567955	 1.8807536652	 1.064122397	 0.114023
H	 0.6523721257	-0.3743897	 0.8765113018	 0.134573
H	-0.9567868745	-0.4012719172	 0.1784781843	 0.091742
H	 0.013682793	-0.1603550895	-2.1121493133	 0.095045
H	 1.6312341111	-0.0549446362	-1.4296314888	 0.099134
H	-0.2189914566	-2.4819807446	-1.124528704	 0.102003
H	 0.9674892049	-3.4408723097	-3.0669313548	 0.117126
H	 1.9681375785	-1.9583250574	-3.2106022039	 0.116232
H	 3.9372507867	-3.8484230472	 0.2874452809	 0.126282
H	 4.0384178555	-2.7125900231	 1.6560564731	 0.125462
H	 3.0914818364	-4.1877822253	 1.8170433449	 0.126534
