13
gdb 43323	2.66337	1.78283	1.24634	5.9076	69.58	-0.2712	-0.0793	0.1918	954.2322	0.090093	-415.61272	-415.605709	-415.604764	-415.644262	26.353	
O	 0.0453826077	-0.0348265514	-0.0514567381	-0.306421
C	-0.0110690875	 1.1659897726	-0.0007317638	 0.347719
C	-1.1864195673	 2.0605543318	 0.032575947	-0.214279
C	-0.7671949908	 3.3341529851	 0.0420693495	-0.029491
N	 0.6458386431	 3.5064193144	-0.0676873397	-0.114544
C	 1.341686509	 3.0804780049	 1.1566259365	-0.246626
C	 1.1871715032	 2.1333809814	-0.0080143212	 0.032486
C	 2.331521016	 1.80631347	-0.8141818288	 0.248629
N	 3.2528233277	 1.5173198022	-1.4483982853	-0.324078
H	-2.2053747539	 1.7055848434	 0.0809420715	 0.143553
H	-1.3589891164	 4.2354697589	 0.1431525881	 0.149587
H	 2.3190098625	 3.5226531203	 1.3208916524	 0.163309
H	 0.7370656968	 2.8907376564	 2.038761522	 0.150157
