21
gdb 109313	2.26367	1.467	0.9818	1.4085	85.52	-0.2115	0.0354	0.2469	1254.6151	0.182787	-387.085623	-387.076611	-387.075667	-387.119499	34.334	
O	-0.0024290469	 1.4003212543	 0.1035278877	-0.414444
C	-0.0091025944	-0.0128093829	 0.0013951783	-0.193003
C	-1.4188261324	-0.5119530589	-0.0168994911	 0.262324
C	-2.5221381747	 0.2390601426	-0.044617543	-0.170752
C	-3.782287566	-0.5926389805	-0.0284789344	-0.26416
C	-3.261590853	-2.0261788	-0.307788547	-0.295716
C	-1.7609072367	-1.9690486297	 0.0111992791	 0.290175
C	-0.8220133437	-3.0624509437	-0.4389406695	-0.323196
C	-1.1389085462	-2.911547318	 1.0271367398	-0.31152
H	 0.9093468027	 1.6979496513	 0.0416051921	 0.288228
H	 0.5057993294	-0.3464308365	-0.9167730723	 0.09681
H	 0.5376066184	-0.4737386553	 0.8434726256	 0.092949
H	-2.5199411179	 1.3212493357	-0.0364582072	 0.104268
H	-4.2832709415	-0.5222229547	 0.9476366618	 0.103604
H	-4.5183036846	-0.2668981747	-0.7722581901	 0.099556
H	-3.7860903802	-2.7933654444	 0.2688396491	 0.094518
H	-3.3990998687	-2.2657363207	-1.3684361894	 0.102683
H	-1.2539305017	-3.9029173824	-0.9735297064	 0.109674
H	 0.1735901434	-2.7931337739	-0.7767954473	 0.107203
H	-0.3622872167	-2.5330973314	 1.6835785317	 0.109779
H	-1.7907203588	-3.6453098063	 1.4902563025	 0.111022
