16
gdb 33701	3.10875	1.80225	1.3175	4.2398	77.39	-0.2454	-0.0189	0.2265	942.9407	0.126214	-363.571034	-363.564477	-363.563533	-363.601773	26.951	
N	 0.0309144798	-1.1561400621	-0.0069423169	-0.346221
C	 0.0081888138	-0.0000899551	 0.0202362034	 0.170618
C	-0.0183821339	 1.4449099096	 0.0520580836	 0.2154
C	-0.9049943129	 2.1632895874	 1.066507177	-0.171372
C	-0.6854454867	 3.4540067702	 0.8167286716	-0.111784
C	 0.3142668755	 3.4474355882	-0.3262884911	-0.086875
C	 1.329906432	 2.2763637741	-0.0560330559	-0.065664
C	 1.4028661494	 1.9843179412	-1.5724068023	-0.270378
C	-0.0899935788	 2.2776039545	-1.2979009345	-0.065663
H	-1.5411312915	 1.6809014959	 1.7933837825	 0.126044
H	-1.1063167654	 4.3244317642	 1.2987815699	 0.118567
H	 0.6837136651	 4.3814292611	-0.7477678723	 0.08057
H	 2.131795475	 2.2613856032	 0.6852717382	 0.090446
H	 1.9349090211	 2.7198554064	-2.1799863451	 0.102022
H	 1.6608463464	 0.9654594607	-1.8683893026	 0.123842
H	-0.931505519	 2.2640593105	-1.9939305954	 0.090447
