15
gdb 12872	2.91565	2.4259	1.90231	1.203	60.16	-0.2396	0.0095	0.2491	763.2945	0.118626	-399.788204	-399.780874	-399.77993	-399.819568	27.124	
C	-0.0554978064	 1.4817309504	-0.0670108864	-0.473329
C	 0.015744942	-0.0133646548	 0.0848969946	 0.235149
N	-1.2015405867	-0.7605984123	-0.1814564974	-0.316494
C	-1.1914621937	-1.752876061	 0.6181352668	 0.10506
O	-0.176749372	-1.8733557856	 1.5024527992	-0.19668
C	 0.7089598406	-0.8069194943	 1.2040523782	-0.017775
C	 1.2787784139	-0.8072914877	-0.1951021075	 0.044143
O	 1.2663206907	-1.9714917295	-0.9520270848	-0.423751
H	 0.9055286894	 1.9448394203	 0.1750452406	 0.117512
H	-0.3143429427	 1.7492269903	-1.0964651023	 0.133708
H	-0.8177818347	 1.904968823	 0.594606845	 0.128903
H	-1.940698852	-2.5328999837	 0.6752332253	 0.148008
H	 1.2333772667	-0.4308054683	 2.0730719418	 0.115323
H	 2.1786946531	-0.2058629398	-0.3150055815	 0.102446
H	 0.529054692	-1.9142142369	-1.5714625616	 0.297779
