19
gdb 73314	3.07595	1.52003	1.32634	2.3853	73.97	-0.2427	0.0735	0.3162	1016.5301	0.159505	-423.000757	-422.992888	-422.991944	-423.032346	32.368	
O	-0.0810819334	 1.313583304	-0.0130442195	-0.482181
C	 0.0080088665	-0.0782227494	-0.0342823468	 0.420882
C	 1.0445921952	-0.7363890499	-0.9525106834	-0.306121
C	 0.3829909704	-2.0796368234	-1.3519351367	-0.265981
C	-0.7342906058	-2.2659294484	-0.3094657468	 0.404177
O	-1.7123387812	-3.2162228174	-0.628958973	-0.495239
C	-0.1380673543	-2.3009263121	 1.1436095598	-0.304592
C	-0.4178120604	-0.8023753919	 1.2382764516	-0.130035
C	-1.2777527897	-0.8415532684	-0.0219955188	-0.160756
H	 0.6412225556	 1.6506190417	 0.5281082973	 0.28189
H	 1.2160603904	-0.0927152003	-1.8194404613	 0.110096
H	 2.01007843	-0.8775152568	-0.4530777093	 0.092968
H	-0.0739940305	-2.0091408393	-2.3444798074	 0.106473
H	 1.0857269878	-2.9208454395	-1.3601407285	 0.08579
H	-1.2754578058	-4.0661306802	-0.7521008367	 0.275806
H	-0.8038321563	-2.8697062873	 1.7981149145	 0.107326
H	 0.8927299646	-2.6556943297	 1.2675591959	 0.079339
H	-0.5947071795	-0.2301993837	 2.1421257388	 0.082401
H	-2.2616623837	-0.4457252779	-0.2306410298	 0.097756
