19
gdb 37363	2.83603	1.84871	1.6061	1.7366	72.18	-0.2399	0.083	0.3229	910.2587	0.163328	-423.017933	-423.011481	-423.010537	-423.048341	27.554	
C	 0.0031306428	 1.5252585355	-0.0051275284	-0.234352
C	 1.5139046884	 1.8482978824	-0.0197350343	-0.064326
C	 2.0669857134	 1.4538099285	 1.3682229032	-0.23023
C	 1.7787360322	-0.0329723364	 1.6729725241	-0.063888
O	 0.4816229912	-0.483036743	 1.2754812539	-0.276925
C	 0.054836261	-0.0124304333	-0.005209511	 0.08169
C	 1.1340663055	-0.3064086994	-1.0490744018	 0.020458
O	 1.1520029535	 0.6050104259	-2.1557210519	-0.265781
C	 2.0365136982	 0.8535845764	-1.0564915751	 0.061105
H	-0.5029482194	 1.9022366144	 0.8859527719	 0.098354
H	-0.4996374588	 1.9014899212	-0.8962085649	 0.116771
H	 1.7401617786	 2.8909861908	-0.2585080324	 0.070573
H	 3.1497382873	 1.6153487006	 1.4355478024	 0.097804
H	 1.5995763739	 2.0951795047	 2.1233566604	 0.107171
H	 2.5493585281	-0.6564629873	 1.1985838678	 0.095774
H	 1.8322154031	-0.2198209415	 2.7493802998	 0.109107
H	-0.9053527932	-0.4973846639	-0.1934373398	 0.080837
H	 1.4545711362	-1.3232951519	-1.2557430924	 0.100846
H	 3.0974804679	 0.7748278863	-1.2799118714	 0.095011
