18
gdb 66992	2.49599	2.03276	1.39556	3.0826	75.65	-0.2378	-0.0235	0.2143	960.3051	0.148529	-401.937368	-401.929919	-401.928975	-401.969005	29.582	
C	 0.0295672072	 1.4862702606	-0.0435041068	-0.481951
C	-0.0576469923	-0.0110618403	 0.0437525323	 0.228911
C	 0.2763878185	-0.8091929604	 1.2531693499	-0.098468
C	-0.1140387182	-2.2492754034	 0.8129932879	-0.079789
C	 1.1322070529	-2.1688774417	-0.1003245052	-0.160153
N	 1.2888033159	-0.6971223016	 0.159477368	-0.1736
C	-1.3699240046	-2.0871147874	-0.0446378124	-0.328188
C	-1.1549669034	-0.7230297935	-0.7094046814	 0.350289
O	-1.7863358333	-0.2572990314	-1.6256223643	-0.324053
H	 0.8959526363	 1.8509831734	 0.5125279479	 0.129333
H	 0.1298595545	 1.7929736602	-1.0884505193	 0.1429
H	-0.8756655148	 1.9539632117	 0.355840842	 0.124311
H	 0.4291166199	-0.4078649076	 2.2489715067	 0.101462
H	-0.1525743407	-3.0388716209	 1.5615981398	 0.083053
H	 2.0106824994	-2.6704529731	 0.3121232923	 0.118051
H	 1.0121036342	-2.4497877446	-1.1529526427	 0.110151
H	-1.5194634898	-2.8772226612	-0.7857646825	 0.126566
H	-2.2750927318	-2.0265359385	 0.5728592476	 0.131175
