16
gdb 49567	2.1313	1.92071	1.22586	3.7373	68.78	-0.2423	-0.025	0.2173	1013.5276	0.122744	-437.811249	-437.803342	-437.802398	-437.844474	29.191	
O	-0.3524951072	 0.3644519373	 0.558138219	-0.252686
C	 0.0656708415	 1.1319081208	-0.271218711	 0.15765
C	 1.2920497451	 1.9934563089	-0.0690259338	-0.195622
C	 1.3738760046	 3.3010335806	-0.8767552188	-0.082577
N	 0.1862896612	 4.0822514194	-0.4561746382	-0.3359
C	 1.4228702932	 4.1174234612	 0.3690932557	-0.164273
C	 1.3671088783	 2.8626133176	 1.2208074673	 0.484568
C	 0.8878115951	 2.6194203647	 2.5751497393	-0.260082
O	 2.2952854782	 2.5886682412	 2.2400557811	-0.283898
H	-0.4366071075	 1.2484865066	-1.2568487857	 0.083797
H	 2.1947210487	 1.3777195873	-0.1421661564	 0.127079
H	 1.8570058121	 3.4672125226	-1.8304149817	 0.106825
H	 0.1664642387	 4.9403241798	-1.0065277078	 0.238639
H	 1.9406122766	 5.0427750924	 0.5853634767	 0.113116
H	 0.5801865131	 3.456653468	 3.1986319982	 0.118241
H	 0.4489395683	 1.6536780814	 2.810683896	 0.145124
