16
gdb 50638	2.62299	1.42466	1.09589	3.6024	66.48	-0.255	-0.0467	0.2083	1102.0899	0.124289	-475.039274	-475.031144	-475.0302	-475.073619	29.121	
N	-0.3184259175	 1.2170227569	-0.2342085251	-0.548331
C	-0.0676576724	 0.082225953	 0.250416813	 0.456266
O	 1.0311715504	-0.6573781227	-0.0466447894	-0.249888
C	 1.2578149622	-1.8144380363	 0.7722185581	-0.086213
C	 0.0318643272	-2.7112640903	 0.711432379	-0.255293
C	-1.1913532833	-1.8651134656	 1.0996866488	 0.023463
O	-0.905655709	-0.4575650091	 1.1739820193	-0.24645
C	-2.3974630356	-2.0683438672	 0.1795261671	 0.134231
O	-2.5760911972	-3.0613505817	-0.4734599744	-0.227242
H	 0.4570859607	 1.5180156014	-0.8221585287	 0.230553
H	 2.1423436481	-2.2981816234	 0.355364397	 0.131216
H	 1.47962873	-1.5003601381	 1.79937043	 0.123615
H	-0.0974607891	-3.1021593246	-0.3012302362	 0.144254
H	 0.1418623992	-3.5673434015	 1.3818831552	 0.124329
H	-1.5325160681	-2.1118843738	 2.1127714231	 0.127122
H	-3.1033762958	-1.211551727	 0.1796108031	 0.118366
