24
gdb 61762	2.23682	1.14863	1.00151	3.5349	86.3	-0.2486	0.0327	0.2813	1367.6732	0.214742	-405.591099	-405.579814	-405.578869	-405.627501	41.693	
C	-0.1397787266	 1.8187826777	 0.0683889231	-0.421086
C	-0.019384658	 0.2888806196	 0.082079637	 0.034982
N	 0.7999556528	-0.1096035993	 1.2278486685	-0.281283
C	 1.9365613956	-0.8480788627	 1.1235407269	 0.153856
O	 2.373054231	-1.3313716575	 0.0996197916	-0.328712
C	-1.3756174248	-0.4880697124	 0.0305682773	 0.267822
C	-2.148601175	-0.0821726924	-1.2392955752	-0.413989
C	-1.0811877144	-1.9986728287	-0.0404535218	-0.404226
C	-2.2416280766	-0.2014101231	 1.2709848529	-0.419002
H	 0.8578032762	 2.2666591619	 0.0600541773	 0.126112
H	-0.6739971055	 2.1728555481	-0.8156589764	 0.128121
H	-0.668046867	 2.1950072541	 0.9514748555	 0.113187
H	 0.5606334942	-0.0233185381	-0.7914815912	 0.117966
H	 0.5772244336	 0.2766667794	 2.1320732523	 0.24271
H	 2.4359134173	-0.9695558355	 2.1062459401	 0.070813
H	-1.531070098	-0.2044980914	-2.1362668489	 0.115226
H	-3.0342258834	-0.7145739804	-1.3602031299	 0.112111
H	-2.4924426211	 0.9555478741	-1.2029907091	 0.111435
H	-0.5675842791	-2.3499990242	 0.8581872345	 0.115198
H	-2.0147089992	-2.5633685794	-0.1350657073	 0.10293
H	-0.4472974871	-2.2407505016	-0.899015421	 0.126583
H	-2.5174069288	 0.8551858416	 1.3481578641	 0.110738
H	-3.1715503774	-0.7776804098	 1.225162544	 0.116524
H	-1.7289043286	-0.4904574001	 2.1949517656	 0.101985
