17
gdb 28229	4.70669	1.20352	0.97633	2.2606	77.09	-0.1635	0.046	0.2094	1177.2935	0.138938	-418.024556	-418.016654	-418.01571	-418.05696	30.109	
N	 0.1108636595	 1.368661203	-0.2562310836	-0.603585
C	-0.0233536481	-0.0213827945	-0.0712743227	 0.31601
C	-1.142848451	-0.8388309741	-0.0311982305	-0.414505
C	-0.6239447777	-2.158450935	 0.0089585345	 0.400349
C	 0.7368686947	-2.1278982509	-0.0142268939	 0.154243
C	 1.2885823076	-3.4749059466	 0.3281149996	-0.361691
C	-0.0232404387	-4.3008618153	 0.1082205138	-0.080345
O	-1.1574234501	-3.4011014035	 0.2107531696	-0.291013
N	 1.1177600075	-0.7952518122	-0.0137370576	-0.387531
H	-0.7648474194	 1.7761749368	-0.5589571121	 0.247779
H	 0.4007629841	 1.8468883967	 0.5922021479	 0.243919
H	-2.1702831591	-0.5126457922	-0.0104172026	 0.090986
H	 2.0874197309	-3.8505413248	-0.3212192395	 0.104142
H	 1.6512006207	-3.543062728	 1.3650255357	 0.105849
H	-0.0235932586	-4.7328188812	-0.9000450355	 0.108863
H	-0.1654696909	-5.0998245617	 0.8386148903	 0.112574
H	 2.0164681485	-0.4326922765	-0.2832495233	 0.253955
