19
gdb 115837	3.35293	1.1989	1.11594	2.0936	71.81	-0.245	0.0787	0.3236	1170.6361	0.158999	-460.141157	-460.132644	-460.1317	-460.174946	32.109	
O	-0.1558102386	 1.3811330744	 0.4420448717	-0.41964
C	-0.0544601283	 0.0131972405	 0.1144722868	-0.089145
C	-1.4240602985	-0.6021097046	-0.163116975	 0.202912
O	-2.2482312619	-0.6294408436	 0.9890835754	-0.26822
C	-3.2967006141	 0.3157947488	 0.8091139163	-0.164978
C	-3.4023721272	 0.400497574	-0.6956076517	 0.426293
C	-4.5280013949	-0.1793655553	-1.5036967367	-0.322431
C	-4.2713570178	 1.3225222555	-1.4736878623	-0.34233
O	-2.0742581834	 0.2116244438	-1.1359333296	-0.315238
H	-0.6547619107	 1.7839944552	-0.2788101025	 0.287377
H	 0.5901031385	-0.1578796639	-0.7634821045	 0.089782
H	 0.393797933	-0.4992106483	 0.9706293278	 0.121002
H	-1.3207849796	-1.6356312456	-0.5295868294	 0.078815
H	-4.2009923771	-0.0631065108	 1.2924906104	 0.113265
H	-3.0236504777	 1.2846575337	 1.2497974131	 0.107955
H	-4.2610590524	-0.7061082671	-2.4128028051	 0.125839
H	-5.3981443484	-0.5677412544	-0.9846608338	 0.117692
H	-4.962495146	 1.9600506169	-0.9320206134	 0.121981
H	-3.842954575	 1.7723853908	-2.3623318974	 0.129069
