22
gdb 86909	4.67605	0.79927	0.74513	0.7348	84.2	-0.2126	0.0833	0.296	1611.5814	0.193181	-404.29354	-404.284181	-404.283237	-404.328595	34.819	
C	 0.012028865	 1.5020016521	 0.3961573761	-0.313895
N	 0.0663042743	 0.0592449912	 0.3423473567	-0.070046
C	-1.2028026522	-0.6953311987	 0.357031873	-0.205189
C	-0.5060222082	-1.7711276669	 1.2086357573	 0.135023
C	 0.548441802	-0.6750387644	 1.5282317138	-0.195612
O	-1.3008009063	-2.2851263432	 2.2444171929	-0.252115
C	-0.7137359101	-3.3461155774	 2.9354040249	 0.140149
C	 0.1872475408	-3.0713084586	 4.1138349209	-0.286857
C	-1.2202754411	-3.6006073651	 4.3157806412	-0.291523
H	 1.0263057321	 1.9099641878	 0.4651343868	 0.118919
H	-0.4433876795	 1.8913434051	-0.5209109236	 0.119412
H	-0.5704199516	 1.8843281905	 1.2567379993	 0.088681
H	-1.9983644326	-0.2100702119	 0.9465345004	 0.093157
H	-1.596369402	-0.9716795932	-0.6264290374	 0.100644
H	-0.0829375908	-2.5824457555	 0.6024741425	 0.077585
H	 1.6123821828	-0.9336205186	 1.5153700832	 0.097917
H	 0.302278848	-0.1768208514	 2.4809051969	 0.084018
H	-0.4751416068	-4.2042557997	 2.3055500318	 0.08571
H	 1.0276413052	-3.7334650191	 4.2918714007	 0.112497
H	 0.3620469926	-2.0331296615	 4.3703806236	 0.120848
H	-1.9594841878	-2.9025615723	 4.691632031	 0.126212
H	-1.3566686437	-4.6266343091	 4.6377911879	 0.114466
