22
gdb 111871	2.62522	1.30356	1.19959	0.3388	81.81	-0.2145	0.0838	0.2983	1194.5951	0.196098	-404.320892	-404.312276	-404.311332	-404.354143	33.304	
C	-1.3225964188	 0.8484333409	 0.5600495457	-0.384341
C	-0.0195379566	 0.2275026265	 0.0389564364	-0.218032
C	 0.7582390741	-0.4394056676	 1.1565086818	 0.015069
C	 0.6730523002	-1.8955201068	 1.4589857451	-0.04665
C	-0.1092305277	-2.8787288844	 0.6000719916	-0.119208
O	 0.2296000933	-2.8231843693	-0.7754409454	-0.234492
C	 1.634623726	-2.9113099592	-0.9505700557	-0.081995
C	 2.3237543118	-1.6515541695	-0.430809	-0.157048
N	 1.9254053058	-1.3131640498	 0.945367355	-0.133189
H	-1.1263153228	 1.5826667977	 1.3491547258	 0.115909
H	-1.8630752243	 1.3585819722	-0.2428369524	 0.114266
H	-1.9865569517	 0.084536609	 0.9782196183	 0.117773
H	-0.2408228481	-0.4882544669	-0.7557088467	 0.1259
H	 0.6022780911	 1.016949487	-0.4058962615	 0.097765
H	 0.9077424275	 0.2216839598	 2.0122016766	 0.080419
H	 0.733986071	-2.2080600838	 2.5018756379	 0.085339
H	 0.0759110059	-3.8974258834	 0.9809125789	 0.096359
H	-1.186737276	-2.6926802465	 0.6631048634	 0.115116
H	 2.0206207801	-3.8020007359	-0.4275918239	 0.092996
H	 1.814741237	-3.0409882478	-2.0216009196	 0.109175
H	 3.4103431646	-1.8029824603	-0.4409934041	 0.101663
H	 2.1116616575	-0.815500032	-1.1070008572	 0.107206
