17
gdb 126662	6.72544	0.69166	0.63581	4.3606	71.97	-0.2467	-0.0552	0.1915	1715.3992	0.135388	-451.274885	-451.265982	-451.265037	-451.309829	31.096	
C	-0.0479671531	 1.5291516658	 0.0671738427	-0.382199
C	-0.0903869399	 0.0069111437	-0.0841332558	-0.199141
C	 0.8217865355	-0.4886779985	-1.2041565031	-0.114719
N	 0.7508639435	-1.9405896724	-1.3227519514	-0.387366
C	 1.3640890221	-2.5869384372	-2.3409781613	 0.528236
N	 1.8632199795	-2.0426501761	-3.4235501282	-0.210068
O	 2.3046531565	-3.1294893287	-4.1446342965	-0.147722
N	 2.0565753932	-4.2754843504	-3.437695343	 0.050609
N	 1.4930604624	-3.9711329526	-2.3535226446	-0.240365
H	 0.9650038225	 1.8790445502	 0.2926565042	 0.123335
H	-0.3753510334	 2.0272365707	-0.8514242939	 0.125623
H	-0.7030856227	 1.8601227903	 0.8776020545	 0.123075
H	 0.2110220994	-0.4649614004	 0.8612157101	 0.100576
H	-1.1148750212	-0.3259941948	-0.286869461	 0.116292
H	 0.5140008449	-0.0604408967	-2.164005075	 0.139182
H	 1.8569119005	-0.1573171609	-1.0292869427	 0.113507
H	 0.6785705903	-2.474779362	-0.4701572151	 0.261143
