21
gdb 89999	3.77857	1.15367	1.0735	1.196	85.63	-0.225	0.0175	0.2425	1238.1828	0.182649	-387.094977	-387.086533	-387.085589	-387.128073	33.133	
C	 0.3205731114	 1.6074886829	 0.0946165747	-0.387088
C	-0.0213384655	 0.1213184286	 0.2074997468	 0.064764
O	 0.2703376077	-0.5458487224	-1.026741653	-0.324505
C	 1.143755228	-1.6475947194	-0.8263808076	 0.410755
C	 0.6709914934	-3.020216879	-1.4026867962	-0.273583
C	 2.1088688599	-3.251598434	-1.9381903875	-0.216247
C	 2.3741016293	-1.7307584443	-1.7811348429	-0.271813
C	 1.4455508465	-1.6236809556	 0.6431959785	-0.142878
C	 0.784393417	-0.6343829606	 1.2313541626	-0.112781
H	 1.3911542935	 1.7413867695	-0.0856970683	 0.118887
H	-0.2320841593	 2.0578214863	-0.734773688	 0.124751
H	 0.0504017611	 2.1364408337	 1.0149298336	 0.1092
H	-1.1012459848	 0.0250784927	 0.4110510134	 0.080075
H	 0.2483446295	-3.7463714777	-0.7035894591	 0.093656
H	-0.0420434383	-2.8439551953	-2.2122084007	 0.111607
H	 2.7143166994	-3.8496934156	-1.2513525293	 0.100066
H	 2.2069107868	-3.6748504266	-2.9395256726	 0.100698
H	 2.1536975948	-1.1814297663	-2.7001585201	 0.111791
H	 3.3414561511	-1.403683112	-1.3911977422	 0.093354
H	 2.1101410577	-2.336496164	 1.1158057387	 0.106173
H	 0.7964556008	-0.373094411	 2.2821599191	 0.103118
