13
gdb 45608	3.50233	1.2786	0.94208	4.7451	76.1	-0.2397	-0.1006	0.1391	1144.7563	0.087584	-419.433844	-419.425969	-419.425025	-419.4666	28.828	
O	 0.0116449859	 0.004241907	 0.0048181599	-0.268471
C	-0.0380975266	 1.2015525095	 0.0112048954	 0.332238
C	-1.2813783511	 2.0882153188	 0.0318805749	-0.381989
C	-0.7115418025	 3.4790802669	 0.0304270703	-0.176307
C	 0.6402684975	 3.5316923193	 0.012377056	 0.05873
C	 1.4533552838	 4.6868577463	 0.006433439	 0.242947
C	 2.1796947382	 5.6465092337	 0.0008260016	-0.389355
C	 1.1984908519	 2.1472680764	-0.0012169429	 0.206046
O	 2.3467256302	 1.7934194971	-0.0187461359	-0.276869
H	-1.9186667661	 1.8873623186	-0.8384412396	 0.157256
H	-1.8950376985	 1.8795056196	 0.9172055409	 0.157241
H	-1.3433670117	 4.3601153325	 0.0428282376	 0.133293
H	 2.8212393192	 6.493139414	-0.0040663571	 0.20524
