13
gdb 4019	3.20593	1.70985	1.12062	8.9283	66.52	-0.1824	-0.0552	0.1272	971.8243	0.093351	-431.877352	-431.869068	-431.868124	-431.909912	29.73	
N	 0.021330953	 1.3414932357	-0.1534854323	-0.556887
C	-0.0647307912	-0.0000208095	 0.0098225079	 0.401296
N	 1.1042012722	-0.6647395433	 0.1560334287	-0.525086
H	 0.9865269579	-1.6729386359	 0.1225695314	 0.280471
H	 1.9360613621	-0.2762871523	-0.2601732689	 0.261952
C	-1.28568613	-0.7089064786	 0.0196814613	 0.148196
C	-2.5713045914	-0.0311199109	 0.1257547662	 0.069572
O	-3.6713853731	-0.5221204714	 0.0175702023	-0.267744
N	-1.0811662577	-2.0908853437	-0.0337426222	-0.097453
O	-2.053623437	-2.8316019225	-0.0022185697	-0.285508
H	 0.8467441172	 1.8190601972	 0.1705099048	 0.27072
H	-0.8231726321	 1.8857519021	-0.1919200166	 0.281374
H	-2.48591826	 1.064199333	 0.3618846271	 0.019097
