19
gdb 55084	3.84016	1.03858	1.01254	1.4089	75.67	-0.2318	-0.0102	0.2216	1252.5295	0.157111	-423.013651	-423.004473	-423.003529	-423.047936	34.152	
C	 0.10419118	 1.1639624593	 0.7517162224	-0.48096
C	 0.0708380662	 0.0219412051	-0.2483993751	 0.387927
O	 1.0488553617	-0.2954986949	-0.8904193988	-0.310836
C	-1.2423368893	-0.7285077708	-0.360048038	-0.091509
C	-1.4043564376	-1.7611984514	-1.5197930123	-0.323861
C	-1.549961172	-2.8771136766	-0.4746419581	 0.40768
O	-2.4775065169	-3.899005956	-0.5658418499	-0.465729
C	-0.3500659464	-2.9469594873	 0.4234078079	-0.342882
C	-1.404928784	-1.8824272922	 0.6651809939	-0.137306
H	 1.1235605033	 1.5350089822	 0.863848079	 0.14074
H	-0.5433237939	 1.9780910404	 0.4047982917	 0.139763
H	-0.2866292536	 0.8401282011	 1.7225514503	 0.140197
H	-2.0824902186	-0.0312109927	-0.2980366183	 0.083922
H	-2.3333260689	-1.6016039628	-2.0708403345	 0.108831
H	-0.5639701026	-1.8358465195	-2.2135422764	 0.115618
H	-2.0462354647	-4.6642639899	-0.961685885	 0.286933
H	-0.387293307	-3.7593059167	 1.1424049521	 0.112842
H	 0.6431099482	-2.6816443121	 0.0721122571	 0.132936
H	-1.9452462141	-1.815371145	 1.6010935818	 0.095694
