12
gdb 131995	2.95955	1.63409	1.0528	4.1508	61.87	-0.2589	-0.0882	0.1707	1005.9416	0.079291	-505.885048	-505.878235	-505.877291	-505.916603	25.341	
O	 0.0871198424	 1.3041499806	-0.0433033874	-0.399067
C	 0.0551272389	-0.0207753423	 0.0033906058	 0.403399
N	 0.0355506618	-0.7662233377	-1.0881610527	-0.288897
N	 0.0053514747	-2.0460471774	-0.6108980065	-0.178775
C	 0.0047334942	-2.1464425153	 0.7213844605	-0.072613
C	 0.0370412621	-0.836620932	 1.1741610598	 0.166011
N	 0.0502439258	-0.3720922366	 2.5060318098	 0.357515
O	 0.0317596023	-1.1810973446	 3.423272931	-0.36619
O	 0.0800774574	 0.8632634537	 2.6606216058	-0.421543
H	 0.095602038	 1.597395618	 0.8887785883	 0.321242
H	-0.0140125794	-2.7979100685	-1.2796137418	 0.296028
H	-0.0170490882	-3.0810933478	 1.2561882174	 0.182892
