19
gdb 64033	2.29075	1.56556	1.17554	1.6412	82.01	-0.2438	0.0165	0.2604	1117.6313	0.157183	-385.867289	-385.858179	-385.857235	-385.900593	35.507	
C	 0.4632381915	 1.4334837405	-0.400067184	-0.436271
C	 0.0402653136	 0.0099870547	-0.0368871884	 0.369445
O	-1.3208854698	-0.0175532407	 0.3759173983	-0.476441
C	 0.3379943837	-0.9700998206	-1.2145401783	-0.314389
C	 1.6557675006	-1.596651936	-0.840467013	-0.077236
C	 1.9602354632	-1.3867504615	 0.4374206063	-0.070228
C	 0.8813694295	-0.5881434852	 1.1481374123	-0.215901
C	 1.3807344863	 0.3692525233	 2.1271911559	 0.329333
C	 1.8090825237	 1.1381657527	 2.9463611545	-0.483213
H	 1.5208564934	 1.4692290318	-0.6773219706	 0.128662
H	-0.1197097915	 1.7875404319	-1.2593340787	 0.099301
H	 0.3025444076	 2.1106174461	 0.4411977012	 0.136844
H	-1.833470021	 0.5029137868	-0.2511976446	 0.276226
H	-0.4603363888	-1.7221726485	-1.2657956365	 0.114397
H	 0.3603903821	-0.4587089795	-2.1843364834	 0.096479
H	 2.2529032879	-2.1754247515	-1.5364183997	 0.097364
H	 2.8366252216	-1.7502271611	 0.9597140889	 0.105784
H	 0.2057845024	-1.2803663126	 1.6728166619	 0.126613
H	 2.183022654	 1.8175011193	 3.6716365777	 0.19323
