16
gdb 42991	2.91711	1.71129	1.27303	4.6826	68.52	-0.2512	-0.0298	0.2214	977.8696	0.124807	-437.863362	-437.8561	-437.855156	-437.895422	27.923	
O	 0.0528055546	 0.0124023222	-0.0786372622	-0.307045
C	 0.0154084003	 1.2093723963	-0.0465350869	 0.318768
N	-1.1830413041	 1.9887170596	-0.1062827763	-0.139166
C	-1.4375970768	 2.7106971864	 1.1726690802	-0.250156
C	-0.7940924024	 3.4133876441	 0.0428834512	-0.026247
C	 0.724395469	 3.5680612893	 0.0212540376	-0.358887
C	 1.223579356	 2.134088423	 0.0700508247	 0.340089
C	 2.4318925331	 1.6445513863	 0.7570153461	-0.231701
O	 2.3882174031	 1.7610722084	-0.659697542	-0.253689
H	-2.4891535739	 2.8640465072	 1.3919630016	 0.140636
H	-0.8282639659	 2.4403700897	 2.0323181177	 0.132337
H	-1.3859070699	 4.1059440988	-0.5467266093	 0.112259
H	 1.0450290584	 4.0307695806	-0.9167824842	 0.13927
H	 1.0972257159	 4.1856641229	 0.8430940465	 0.122866
H	 3.0684497554	 2.3642214149	 1.2707156498	 0.12006
H	 2.4418311372	 0.6251729204	 1.1378444554	 0.140607
