21
gdb 13634	2.91213	1.57459	1.21913	1.9815	75.7	-0.2146	0.0764	0.291	1094.1553	0.186667	-366.21808	-366.208449	-366.207505	-366.252518	34.577	
C	-0.4965140113	 1.5217532324	 0.1287631811	-0.240167
O	-0.5050875989	 0.1588447276	 0.4906757643	-0.239067
C	-1.4400710361	-0.6408586901	-0.2247437994	 0.107804
C	-0.929043593	-0.9758249571	-1.6321359355	-0.403512
C	-1.7130487393	-1.9259453994	 0.5481340105	-0.002552
C	-0.8708633296	-2.3523913699	 1.7022319298	-0.243717
N	-2.2695527729	-1.985254518	 1.8982260039	-0.100419
C	-2.5663752552	-0.7538943587	 2.6205846297	-0.322231
H	 0.2020272493	 2.0264892336	 0.8006766578	 0.128463
H	-0.1603673236	 1.6822998928	-0.9052824268	 0.110284
H	-1.4917102523	 1.978585982	 0.2434747681	 0.10669
H	-2.3858803153	-0.0778127964	-0.3164474777	 0.069165
H	-1.6714893751	-1.5616596458	-2.1825759073	 0.119504
H	-0.7287015515	-0.0696770781	-2.2100227644	 0.115392
H	-0.0043088987	-1.5572198028	-1.567966722	 0.128942
H	-2.1195791677	-2.7014399827	-0.1004267727	 0.084768
H	-0.6276596022	-3.4019456608	 1.8507278775	 0.104548
H	-0.1090353826	-1.6482035497	 2.026543688	 0.124558
H	-1.8214669893	 0.0396129435	 2.4841044446	 0.121889
H	-3.5438530971	-0.3776179247	 2.2989760322	 0.112535
H	-2.6374912576	-0.9889418875	 3.6876245683	 0.117123
