18
gdb 37504	3.74173	2.03342	1.7635	1.4355	78.07	-0.2205	0.0111	0.2315	822.9932	0.152245	-364.756808	-364.751308	-364.750364	-364.786196	24.983	
C	-0.0561009393	 1.4888981437	 0.0772807249	-0.184977
C	 1.4639541577	 1.4908751868	-0.0140902962	-0.063318
C	 1.9751727918	 0.4748155237	 1.0774903372	-0.066515
C	 2.4920395762	-0.4981533937	-0.0272370641	-0.069247
C	 2.1760782491	-1.8865775402	 0.4465287802	-0.088249
C	 1.1138734185	-1.8006482915	 1.2529889223	-0.08912
C	 0.6748025811	-0.3590713501	 1.2966547161	-0.023533
N	 0.0221896568	-0.022669223	-0.0398793529	-0.154601
C	 1.3396302741	 0.1856407602	-0.8365592396	-0.001101
H	-0.5569329554	 1.8480296489	 0.983007812	 0.095753
H	-0.5451569171	 1.9105029523	-0.8059237774	 0.103781
H	 2.0945145551	 2.3397941473	-0.2791093961	 0.065218
H	 2.5872871114	 0.7545523403	 1.9343253764	 0.067131
H	 3.4781662064	-0.2938835023	-0.4454210146	 0.067286
H	 2.6716121318	-2.7890671533	 0.1102337742	 0.099463
H	 0.561039571	-2.6152614527	 1.7026874295	 0.100494
H	 0.0162173573	-0.0756697467	 2.1178387975	 0.065168
H	 1.2128622835	 0.1061025304	-1.9144957392	 0.076365
