19
gdb 113021	4.70281	0.79345	0.73219	3.2894	78.9	-0.2419	-0.0257	0.2162	1527.8744	0.1585	-423.03971	-423.030552	-423.029608	-423.074779	32.978	
O	 0.0577474833	 1.3844971379	 0.0986978492	-0.422207
C	 0.0375580225	-0.0318716057	 0.015524648	-0.086112
C	-1.4231499245	-0.4786638209	 0.0267801122	-0.013324
C	-1.5905090938	-2.0159331929	-0.0986927371	-0.283731
C	-2.7435068472	-2.4149230489	 0.8669837068	-0.101124
C	-2.4151058512	-3.6672159894	 1.657919148	 0.157121
O	-3.1237995262	-4.6338673752	 1.7591290407	-0.248982
C	-2.8578463787	-1.1954376305	 1.7656637237	-0.103979
C	-2.1502475521	-0.1636212625	 1.3116397668	-0.06227
H	 0.9738779924	 1.6745691998	 0.130936157	 0.289539
H	 0.5237534373	-0.3864638632	-0.9077922864	 0.088533
H	 0.5649614268	-0.4921916838	 0.8669450007	 0.085972
H	-1.9164988342	 0.0402032152	-0.8074221421	 0.09399
H	-1.7825044791	-2.3443771489	-1.1220555529	 0.115363
H	-0.6622442665	-2.5062052112	 0.2253016953	 0.102659
H	-3.6856281251	-2.60818412	 0.340028528	 0.098157
H	-1.4243506672	-3.6195938882	 2.1716166895	 0.068941
H	-3.4870130345	-1.1920668836	 2.6488608817	 0.106914
H	-2.1068693919	 0.8199745121	 1.763947301	 0.114537
