23
gdb 60223	3.3935	0.93094	0.86749	1.0333	87.57	-0.2356	0.0322	0.2678	1483.4735	0.204666	-388.30503	-388.295225	-388.29428	-388.340566	36.592	
C	 0.0882466107	 1.4351759376	 0.3009881445	-0.387612
C	-0.0088193467	-0.058070204	-0.0273876575	 0.151798
C	-1.4532188991	-0.5103505908	-0.2176822468	-0.387567
O	 0.6765745352	-0.3591289338	-1.2408703041	-0.276852
C	 2.0805178036	-0.5461355152	-1.1300311724	 0.127187
C	 2.4315475732	-1.9817550929	-0.6382398941	-0.266834
C	 2.7884734257	-2.7158623491	-1.9070185539	-0.056554
C	 2.9176671208	-1.8911041173	-2.9437994286	-0.054399
C	 2.6656095377	-0.4543924407	-2.5610154481	-0.272354
H	 1.1278404334	 1.7568281193	 0.4141668895	 0.115078
H	-0.3659557207	 2.0259544271	-0.5008678279	 0.120679
H	-0.4333697874	 1.6604358078	 1.2370223168	 0.110439
H	 0.4356989429	-0.6350382376	 0.7991068512	 0.065953
H	-1.9059759517	 0.021757085	-1.0605468767	 0.122441
H	-1.4946428048	-1.5817687351	-0.4309162042	 0.118608
H	-2.0468813025	-0.3068308435	 0.6787568219	 0.108932
H	 2.5085273264	 0.218928258	-0.4700887295	 0.060122
H	 3.275539644	-1.973075061	 0.0656058081	 0.099689
H	 1.5859549253	-2.4308220711	-0.1048647846	 0.106947
H	 2.9353863522	-3.7899267011	-1.9372858468	 0.087879
H	 3.1898000611	-2.1868880949	-3.9509104724	 0.08825
H	 1.9513796314	 0.054466929	-3.2164379048	 0.117319
H	 3.5934623192	 0.1328694244	-2.5806638194	 0.100852
