19
gdb 82559	2.7788	1.70413	1.3433	2.5343	74.75	-0.2437	0.0677	0.3114	993.8146	0.1612	-422.955208	-422.948139	-422.947194	-422.986253	29.648	
O	-0.000363581	 1.4197718353	-0.0581947619	-0.447386
C	 0.1128355424	 0.0133237089	 0.0352674537	 0.083409
C	 0.5733663293	-0.5469951639	 1.4319190212	-0.083854
C	-0.7023010759	-0.5463541985	 2.3814358954	-0.316175
C	-1.174072855	-1.5065247801	 1.2707826491	 0.462533
C	 0.2765383352	-2.0497816255	 1.2003688533	-0.293006
O	-2.2972468054	-2.30150045	 0.8689854301	-0.360092
C	-2.0899423767	-1.8105699844	-0.5036174879	-0.179199
C	-1.3035860781	-0.5998258718	 0.0660791218	-0.017387
H	 0.8818447658	 1.7963238312	 0.0215155933	 0.28147
H	 0.772226932	-0.3792809793	-0.7520459892	 0.072636
H	 1.535847008	-0.2087624679	 1.817005018	 0.06487
H	-0.4573785599	-1.0025730204	 3.3433126468	 0.103465
H	-1.2564233177	 0.3849500404	 2.5144271398	 0.108812
H	 0.6263326039	-2.5074118881	 0.2706708922	 0.092538
H	 0.5303538391	-2.6795571629	 2.0552222653	 0.102449
H	-1.5113341063	-2.5304432458	-1.0936634421	 0.106555
H	-3.0409924188	-1.5969221618	-0.9967797364	 0.114809
H	-2.011441581	 0.2099172547	 0.2590807275	 0.103554
