18
gdb 106082	3.28347	1.47609	1.32391	1.9419	78.63	-0.2127	-0.0385	0.1742	1018.6089	0.148016	-401.819157	-401.811515	-401.810571	-401.851312	30.123	
O	 0.3167976937	 1.2506270688	-0.484721349	-0.411935
C	 0.2069243913	 0.0734856181	 0.301063444	-0.198
C	-1.2038089273	-0.4261218208	 0.3639277073	 0.287523
C	-1.7608829378	-1.780551216	 0.3040423365	-0.069753
C	-2.7042959038	-1.9554822045	 1.5089525529	-0.271993
C	-3.2470602423	-0.5364942485	 1.6029399413	-0.111662
C	-2.4820484112	 0.2801204315	 0.8441284567	-0.011287
C	-2.9276271658	 0.398032216	-0.6111002221	-0.173957
N	-1.9648461711	-0.7768241791	-0.8742188055	-0.208433
H	 0.0309398515	 1.01074185	-1.3735998587	 0.290903
H	 0.8564322468	-0.7281471187	-0.0833061425	 0.093602
H	 0.5621327435	 0.3386666284	 1.3023690757	 0.119356
H	-1.1839257615	-2.6207551738	-0.0736086646	 0.100947
H	-3.5443657503	-2.6379606084	 1.3369000251	 0.120113
H	-2.1306835193	-2.3654497925	 2.353008167	 0.119389
H	-4.321163758	-0.3863394691	 1.6761267713	 0.097632
H	-3.9835401846	 0.22194971	-0.8334024335	 0.110583
H	-2.5394565237	 1.2360311987	-1.1961184419	 0.11697
