18
gdb 57013	2.94676	1.21707	0.94418	3.431	76.68	-0.2514	0.0094	0.2607	1229.4887	0.148273	-401.968603	-401.960022	-401.959078	-402.00226	31.936	
O	-0.3762497654	 1.2453285805	 0.086631508	-0.410781
C	-0.0256187939	-0.1260221037	 0.1276607784	-0.016658
C	 0.5078924369	-0.55765006	-1.182093923	 0.259156
N	 0.9541720022	-0.8633843662	-2.203545894	-0.323439
C	 0.9580849051	-0.477376522	 1.2682590542	-0.020605
C	 0.3486432141	-0.0580556804	 2.635099379	-0.283052
C	-0.1739952186	-1.3583843793	 3.1972081413	-0.056331
C	 0.2682307452	-2.4136326546	 2.5163387883	-0.059325
C	 1.1693444591	-2.0147374326	 1.3715888135	-0.277017
H	 0.4193624413	 1.7540944666	-0.1097966965	 0.293742
H	-0.9668421606	-0.6603312563	 0.3020222519	 0.144865
H	 1.8988120837	 0.044022385	 1.0641644936	 0.079575
H	 1.1129815522	 0.3748541387	 3.2942483864	 0.107972
H	-0.4214905398	 0.7103315181	 2.5132472785	 0.126535
H	-0.811040164	-1.3981211949	 4.0735721494	 0.097468
H	 0.0506828111	-3.449846501	 2.7490265884	 0.098511
H	 0.9335542964	-2.5335060241	 0.4348880505	 0.123118
H	 2.217274475	-2.2577023638	 1.5904440122	 0.116265
