20
gdb 83297	2.31066	1.89083	1.46217	2.1022	77.16	-0.2136	-0.012	0.2016	995.1993	0.173771	-403.169811	-403.162149	-403.161205	-403.201785	30.606	
C	-0.2596682692	 1.5541711896	 0.0621508688	-0.424906
C	 0.0435608597	 0.0649223896	-0.0232889589	-0.058382
N	 0.7115097963	-0.4294124943	-1.2629747948	-0.103386
C	 2.0363166986	 0.2286408254	-1.4095436276	-0.174535
C	 2.9341240454	-0.3423976747	-0.2582441015	-0.238487
C	 1.9619515108	-1.3552058727	 0.4118887437	-0.129566
C	 1.1302230071	-1.7843285085	-0.8227375833	-0.198726
C	 0.932069681	-0.480550421	 1.1216522482	 0.416558
O	 0.830887844	-0.2326611185	 2.2954412259	-0.340242
H	 0.6452120572	 2.1671933664	 0.0933494713	 0.122627
H	-0.8678064924	 1.8743231757	-0.7881070098	 0.127717
H	-0.8122200931	 1.7476320141	 0.985104744	 0.141238
H	-0.9103707834	-0.4785346674	 0.038164935	 0.107506
H	 2.4391009095	-0.0378709838	-2.3903346337	 0.110174
H	 1.935595775	 1.3136458643	-1.3835842979	 0.112205
H	 3.8156735467	-0.8609094608	-0.6464424461	 0.107754
H	 3.2809855415	 0.4246407803	 0.4385685957	 0.118997
H	 2.4300438141	-2.1098212288	 1.0414530116	 0.085341
H	 0.2619110912	-2.4056827813	-0.587065266	 0.110151
H	 1.7248079899	-2.2801851235	-1.5951857946	 0.107963
