16
gdb 101972	1.77705	1.51669	1.17513	3.2196	70.7	-0.2806	-0.0829	0.1977	1143.2363	0.12021	-437.910123	-437.90013	-437.899186	-437.945761	33.782	
C	-0.3344574148	 1.5665578128	 0.0832334202	-0.411936
C	-0.0586601712	 0.0654468639	-0.0265019774	-0.208039
C	 0.7109429391	-0.3405131123	-1.3222487125	-0.132593
C	 2.1513175898	 0.2172172465	-1.2889860048	 0.137562
O	 2.8290905822	 0.1456886753	-0.3003610233	-0.243677
C	 0.8593026211	-1.8865606111	-1.2837010975	 0.151352
O	 0.393024656	-2.6367389018	-2.0878149799	-0.212734
C	 0.0236642375	 0.0898405352	-2.5353480343	 0.297131
N	-0.4960072658	 0.4765572911	-3.4915504647	-0.325856
H	 0.5954801255	 2.1421661964	 0.1136106886	 0.13616
H	-0.9347674655	 1.9253677624	-0.7574495682	 0.15083
H	-0.8848018603	 1.774358898	 1.0048000462	 0.133137
H	 0.5547161223	-0.2694341791	 0.8147370544	 0.139099
H	-0.9979589187	-0.4961531219	-0.0009523456	 0.132298
H	 2.523410684	 0.6409231743	-2.2420892511	 0.131008
H	 1.4403956888	-2.2207082097	-0.4002441301	 0.126257
