19
gdb 68694	2.682	1.77677	1.50129	1.8318	74.4	-0.2449	0.003	0.2479	951.5282	0.161592	-423.030538	-423.0233	-423.022356	-423.061516	30.44	
O	-0.0762525735	 1.4136586526	-0.0267849571	-0.496681
C	 0.0208476277	 0.0049927736	 0.0261303862	 0.380615
C	-1.3737378606	-0.6411384865	 0.0307542003	-0.241534
C	-0.9803689763	-2.054965858	 0.4887098112	 0.067599
O	-0.3630685624	-2.7389001877	-0.6171684879	-0.276331
C	 0.8422261177	-2.1347943175	-1.0737052394	-0.065508
C	 0.7752201679	-0.5930198887	-1.1841390325	-0.282197
C	 0.0210329922	-1.7377783459	 1.596226663	-0.097398
C	 0.5989164779	-0.5679010614	 1.3239104013	-0.135851
H	 0.8028177654	 1.7720989806	-0.1903079267	 0.273021
H	-2.0105610455	-0.141922778	 0.7653338027	 0.106134
H	-1.8611865635	-0.6397482027	-0.9468508936	 0.098386
H	-1.8138185852	-2.6935627957	 0.7853557484	 0.078149
H	 1.6718821055	-2.4037434774	-0.4058281083	 0.094335
H	 1.045469097	-2.5830038796	-2.0503488004	 0.106979
H	 0.2527334326	-0.2824249154	-2.0953552845	 0.11149
H	 1.8015119394	-0.2051361818	-1.242388296	 0.083917
H	 0.2700246822	-2.4171630907	 2.4024528066	 0.100466
H	 1.4047577517	-0.0901822998	 1.8707560468	 0.094411
