20
gdb 71739	2.81577	2.19299	1.66099	1.772	80.3	-0.228	0.0909	0.3189	892.283	0.174568	-365.993033	-365.986506	-365.985562	-366.023351	28.409	
C	 0.044214864	 1.5086100347	-0.0422941799	-0.498659
C	 0.0438303098	-0.0053225129	-0.0248931049	 0.336241
C	 0.4633751487	-0.723087197	-1.3040923668	-0.298465
C	 0.2746496943	-2.135455481	-0.8070328233	-0.045427
C	 0.5743375967	-2.1752492485	 0.6488097457	-0.043612
C	 0.7006057762	-0.7537474097	 1.2045781179	-0.104271
C	-0.6624958069	-0.6020985301	 1.9454994444	-0.23443
C	-1.2138285004	-0.7729471746	 0.5118423373	-0.033268
N	-0.8446163564	-2.1891006705	 0.1754257772	-0.133633
H	 1.0458184716	 1.8976310626	-0.2579014606	 0.117149
H	-0.6298514877	 1.8883732264	-0.8187044532	 0.11752
H	-0.2762306064	 1.9392869932	 0.9107599459	 0.118453
H	-0.1870941655	-0.4770399727	-2.1515814007	 0.100385
H	 1.500545894	-0.5139449023	-1.5901578533	 0.100495
H	 0.3841222713	-3.0019014742	-1.4497995376	 0.087965
H	 0.9445124342	-3.0485765309	 1.1741077686	 0.088376
H	 1.6518687791	-0.4461774212	 1.639524832	 0.061382
H	-0.9342075725	-1.3655231315	 2.6780792376	 0.101268
H	-0.82771526	 0.3941249164	 2.3596530627	 0.098771
H	-2.2358425142	-0.5224080762	 0.2258119409	 0.063759
