17
gdb 93467	2.99224	1.38631	0.97776	1.0467	72.1	-0.2365	-0.0085	0.228	1159.7968	0.139563	-451.377292	-451.368994	-451.36805	-451.410233	31.447	
N	 0.0787974208	 1.4164218065	 0.2773028827	-0.507731
C	-0.0025854283	-0.0046815549	-0.0194361524	-0.087602
C	-1.453822054	-0.4842799222	-0.044943557	-0.179252
N	-1.4783209989	-1.8943875109	-0.3930679898	-0.315054
C	-0.8385983387	-2.3562795086	-1.5210679115	 0.438576
N	-1.2026964457	-3.4417722641	-2.0846500815	-0.56444
N	 0.2295328803	-1.5409905141	-1.9365848848	-0.380238
C	 0.7060444117	-0.398394249	-1.3247446021	 0.391448
O	 1.6262419629	 0.2377243952	-1.7930358107	-0.36244
H	 1.0511889448	 1.7002885467	 0.1839821732	 0.247141
H	-0.4113784154	 1.9354967438	-0.4486115262	 0.229514
H	 0.5138108859	-0.5548176857	 0.7795335998	 0.12594
H	-1.8979334644	-0.3554583019	 0.9440109049	 0.134615
H	-2.0328968041	 0.1358298236	-0.7511207814	 0.103588
H	-2.3247626919	-2.4097138059	-0.2043274093	 0.259156
H	-0.5845953051	-3.6987592583	-2.8504860426	 0.209828
H	 0.7157755803	-1.8139684601	-2.7795873613	 0.25695
