20
gdb 115082	2.63043	1.41897	1.00771	3.373	81.44	-0.2328	0.0152	0.248	1222.4762	0.172029	-403.199958	-403.191011	-403.190067	-403.234266	32.936	
C	-0.1088387211	 1.5896487124	 0.0655913938	-0.378355
C	-0.0259560108	 0.0618327094	 0.009216194	-0.146172
N	-1.3384878052	-0.5861421316	-0.0049801077	-0.100418
C	-1.9000492945	-0.9392652655	 1.2907160134	-0.197285
C	-3.2565357773	-1.563336502	 1.2261058984	-0.070926
C	-3.8990461467	-1.7885240242	 0.0870305117	-0.058402
C	-3.317195063	-1.4290128002	-1.2434985722	-0.37015
C	-1.9514809426	-0.752974775	-1.2159263641	 0.403753
O	-1.4305089912	-0.3848949151	-2.2579055312	-0.399747
H	 0.89592608	 2.0225715928	 0.1022590418	 0.115922
H	-0.6140393509	 1.9673429643	-0.8263726945	 0.146385
H	-0.6549540666	 1.9339478483	 0.9501339747	 0.111558
H	 0.4983707228	-0.2432972706	-0.8981286572	 0.138414
H	 0.5259840186	-0.3269065284	 0.8724228793	 0.095427
H	-1.2061365146	-1.6240682118	 1.8063176096	 0.117379
H	-1.9426742002	-0.0397746815	 1.9267584892	 0.117999
H	-3.6944878852	-1.8304608843	 2.1832058343	 0.097936
H	-4.884123967	-2.2478672493	 0.0936941063	 0.09627
H	-3.2151990738	-2.3155618628	-1.8836736358	 0.140522
H	-3.9858178006	-0.7604434747	-1.8008891239	 0.139892
