17
gdb 80153	2.49938	1.64958	1.351	3.9306	73.94	-0.2422	-0.0746	0.1676	1007.7879	0.136386	-418.011169	-418.003214	-418.002269	-418.043798	30.186	
C	-0.2332312633	 1.3988635696	 0.2657437858	-0.425127
C	-0.015140767	-0.0611284531	-0.0512150967	 0.001108
C	 0.7131022206	-0.5684583921	-1.245811075	-0.06075
C	 1.5676322764	 0.3481603756	-2.10372905	-0.3788
C	 2.7108801076	 0.7619514937	-1.1753810613	 0.354914
O	 3.6483331924	 1.4737386499	-1.4191152648	-0.301229
C	 2.4252651844	 0.1432020813	 0.1939999572	 0.243387
N	 3.0736798571	 0.3821973093	 1.2560272191	-0.475359
N	 1.3120263426	-0.7174711181	 0.1138541488	-0.128427
H	 0.4892930057	 2.0623966702	-0.2156183988	 0.128871
H	-1.2335932727	 1.6982184178	-0.0625568669	 0.130992
H	-0.1669835616	 1.5669151272	 1.3452086625	 0.152188
H	-0.8081885349	-0.7055548402	 0.3225675163	 0.11048
H	 0.3828408864	-1.5021436924	-1.6911756777	 0.107539
H	 1.9745996919	-0.1773651187	-2.9730590971	 0.150847
H	 1.0504690544	 1.2358819895	-2.4813130755	 0.149539
H	 3.84545424	 1.0143699605	 1.015614914	 0.239829
