18
gdb 49786	3.16072	1.32273	1.03504	3.6268	78.05	-0.2281	-0.0243	0.2038	1151.5188	0.149151	-401.943671	-401.935799	-401.934855	-401.976916	29.779	
O	-0.3756052111	 0.1998259407	-0.0526584608	-0.254462
C	-0.0272341285	 1.346860286	 0.0619401445	 0.148562
C	 1.428444644	 1.8115978388	 0.0409629344	-0.115988
C	 1.6943087798	 2.5155507761	-1.2704081367	-0.070685
C	 2.2532122964	 3.7172862469	-1.389925712	-0.055809
C	 2.7302287056	 4.5654781521	-0.2445519064	-0.264963
C	 2.3460668469	 4.0221611376	 1.1147933998	-0.029151
N	 0.9047113144	 3.9066900554	 1.3824809514	-0.332091
C	 1.7189632442	 2.68055197	 1.2544079105	-0.069244
H	-0.7569931722	 2.175068148	 0.1775113262	 0.101506
H	 2.0399961401	 0.9017021786	 0.0911086493	 0.099015
H	 1.4032389016	 1.9658395079	-2.1618640782	 0.101801
H	 2.4118407196	 4.1272540983	-2.3844599249	 0.094188
H	 3.8249585712	 4.6531528702	-0.2981201423	 0.113589
H	 2.3453522432	 5.5887697996	-0.3525337341	 0.11823
H	 2.9757313927	 4.3520499043	 1.9383154162	 0.087216
H	 0.7080362042	 4.0958778804	 2.361126812	 0.234466
H	 1.9274218377	 2.1254607992	 2.165983801	 0.093819
