21
gdb 69546	2.58004	1.52975	1.34598	1.1956	81.98	-0.2183	0.0777	0.296	1085.2122	0.181985	-387.042505	-387.034124	-387.03318	-387.074647	34.285	
C	-0.0005048452	 1.5536550722	 0.0428840771	-0.499684
C	 0.045651552	 0.0524892859	-0.0009760793	 0.363394
C	-0.8448751985	-0.8143173307	 0.846672357	-0.354483
C	 0.6442821893	-0.9540947514	 0.9963121005	-0.129793
C	 1.2867610326	-1.7451664618	-0.1580895312	 0.440931
O	 2.6596176035	-1.878088912	 0.0661337877	-0.489131
C	 0.5065785493	-2.9250493312	-0.8189644043	-0.307417
C	-0.1457849686	-1.9182033571	-1.8247192571	-0.248485
C	 0.6582616571	-0.7475937148	-1.1840597831	-0.153785
H	 0.9643461384	 1.9924608217	-0.2360981705	 0.117466
H	-0.7564582844	 1.9491916401	-0.6473030069	 0.116538
H	-0.2519236809	 1.9113133562	 1.04716351	 0.115453
H	-1.3279707653	-0.2891801656	 1.6661107817	 0.107623
H	-1.4578548457	-1.6097371267	 0.4330944109	 0.107016
H	 1.1542289147	-0.7828276944	 1.9375676195	 0.086921
H	 3.0625341127	-2.2391807847	-0.730617207	 0.275171
H	 1.1835112949	-3.6357089085	-1.3049072982	 0.087963
H	-0.1682263203	-3.4923233015	-0.1722512079	 0.10311
H	 0.1234883809	-2.1096972395	-2.8661672919	 0.095804
H	-1.2332345263	-1.8311666471	-1.7699184382	 0.103092
H	 1.2960604098	-0.1517812092	-1.8390483589	 0.062299
