19
gdb 79707	2.75742	1.68121	1.3378	2.4596	73.66	-0.2496	0.0725	0.3221	1005.0251	0.159711	-422.967116	-422.959207	-422.958263	-423.000161	31.113	
C	-0.2629699968	 1.6688393718	-0.033492535	-0.424151
C	 0.0204792609	 0.1620335289	-0.0176001578	 0.059698
C	 1.0926512811	-0.5389716588	-0.9134166055	-0.158312
C	 2.4355163719	 0.0052172592	-0.4023629823	 0.033506
O	 2.3772289501	 1.2215610518	 0.3555237317	-0.248182
C	 2.2190491565	-0.0206224362	 1.0523179046	 0.032754
C	 0.786626304	-0.5765228767	 1.1301314163	-0.120808
C	 0.9605822843	-1.7507251399	 0.1037132579	 0.143488
O	-0.1826117163	-2.5615626806	 0.0052067123	-0.438086
H	 0.288747273	 2.179468776	-0.8257313415	 0.123018
H	-1.3304970118	 1.8551948244	-0.1913645683	 0.0958
H	 0.026542291	 2.1477196996	 0.904394344	 0.12403
H	-0.9093516733	-0.3867292968	-0.1650712705	 0.099782
H	 0.958153038	-0.6678341102	-1.9882392246	 0.05803
H	 3.3781165452	-0.2078616749	-0.8949807534	 0.09961
H	 2.9757859515	-0.2567583013	 1.7925698276	 0.101342
H	 0.3426939465	-0.7451799885	 2.1107481233	 0.068068
H	 1.866987837	-2.3594561201	 0.2267907776	 0.06401
H	-0.0545236326	-3.1749456177	-0.7250991764	 0.286402
