17
gdb 79658	2.67308	1.54084	1.20877	4.9289	78.09	-0.2382	0.002	0.2402	1061.0014	0.135534	-380.782071	-380.77409	-380.773146	-380.814388	30.764	
C	-0.1166006576	 1.5149097223	 0.0071264891	-0.335915
N	 0.1916780173	 0.0866798071	 0.0455357751	-0.108898
C	 1.3210096724	-0.6635688487	-0.387596897	-0.112107
C	 2.7357913488	-0.1986923231	 0.0918845286	-0.068209
C	 2.7428096027	 1.0421036246	 0.9437698208	-0.314934
C	 2.2644026703	-0.2509822248	 1.5344491761	-0.10068
C	 0.834191384	-0.7051012101	 1.053425429	 0.151435
C	 0.1018460167	-1.718901258	 1.7492381938	 0.239916
N	-0.4616615591	-2.5386012283	 2.3410047961	-0.348224
H	 0.538049467	 2.0474076448	-0.6891348867	 0.13649
H	-1.1488695559	 1.6382328797	-0.3369943963	 0.132579
H	-0.0350290191	 1.9718144998	 0.9973602002	 0.139134
H	 1.1923651028	-1.4238157883	-1.1511644371	 0.123063
H	 3.6382744473	-0.6265472053	-0.3228344544	 0.104747
H	 3.7357368268	 1.3255758519	 1.2819669863	 0.126793
H	 2.096334464	 1.8872092159	 0.7654420894	 0.122008
H	 2.7431704316	-0.7348827096	 2.3746179571	 0.112803
