18
gdb 118947	2.57664	1.08304	0.98164	2.5463	68.78	-0.2461	0.016	0.2621	1279.9759	0.14587	-476.229784	-476.219885	-476.218941	-476.265023	35.041	
O	-0.0762652031	 1.4399620692	 0.0046834557	-0.426005
C	 0.0389793326	 0.0227052762	-0.0085141409	-0.089553
C	-1.3766365198	-0.5383490868	 0.0947493197	-0.212426
C	-1.4175937147	-2.0597499728	 0.063524953	 0.25265
O	-0.7073968547	-2.5431416684	 1.1770761741	-0.470225
C	-2.8442972822	-2.6754424138	-0.1911999837	-0.220268
N	-2.3360434595	-3.1322139126	-1.4872243418	-0.323952
C	-1.0459119297	-2.7013915235	-1.3178753945	 0.351356
O	-0.0447240966	-2.8120019267	-1.9767535381	-0.365672
H	 0.8094911716	 1.8091452944	-0.0530792441	 0.285896
H	 0.5129493445	-0.3364449619	-0.9332593609	 0.112956
H	 0.6374223347	-0.342425578	 0.8368295759	 0.103238
H	-1.8330886167	-0.1915721133	 1.0294280173	 0.115797
H	-1.9787855872	-0.1408073846	-0.7294996135	 0.111394
H	-0.4361794427	-3.4517602452	 1.0090883382	 0.292261
H	-3.0960024689	-3.482119891	 0.5044096971	 0.111258
H	-3.6698962641	-1.9601077793	-0.2524585884	 0.116665
H	-2.7756107134	-3.6311140919	-2.2460392551	 0.254631
