21
gdb 115888	2.45114	1.51038	1.12998	1.2351	79.06	-0.2546	0.0901	0.3447	1175.7763	0.182096	-424.220055	-424.210929	-424.209985	-424.253844	34.121	
C	-0.165697492	 1.3303524244	 0.0525850628	-0.238894
O	-0.0320731719	-0.0795554148	 0.0156929195	-0.240297
C	 0.6712464739	-0.6087637072	 1.0902430304	 0.176343
O	-0.0752800727	-0.4334079682	 2.2928112674	-0.282711
C	 0.1860963372	-1.5249352178	 3.1692231398	-0.095459
C	 0.533449561	-2.697132457	 2.2702579168	-0.106904
C	-0.3842051154	-2.9081241659	 1.0925961084	-0.319998
C	 0.8819837251	-2.1049279444	 0.9250915643	 0.314773
C	 2.0111471121	-2.5674776729	 0.0407689039	-0.497102
H	 0.8165358849	 1.8225906742	 0.1204793708	 0.103346
H	-0.6482827696	 1.6291472068	-0.8805896842	 0.124639
H	-0.7804663859	 1.6533652213	 0.9003682186	 0.129701
H	 1.6443630098	-0.0865216734	 1.1871859815	 0.047642
H	 1.0263591441	-1.2970497639	 3.8442894839	 0.09217
H	-0.7108222919	-1.6765220561	 3.7801649413	 0.109075
H	 1.0889833352	-3.5305104661	 2.6850227256	 0.086359
H	-0.3973346306	-3.895277727	 0.6435170474	 0.106087
H	-1.3328672025	-2.3826489186	 1.0726993677	 0.128096
H	 1.8444651304	-2.2527847276	-0.9951381047	 0.13261
H	 2.9721708348	-2.1515912108	 0.3661504605	 0.114402
H	 2.0986978741	-3.6580577452	 0.0497004582	 0.116121
