18
gdb 86961	3.52737	1.01626	0.9381	4.4593	75.77	-0.2437	-0.0073	0.2364	1282.431	0.148557	-439.116656	-439.108037	-439.107093	-439.150884	31.844	
O	-0.9616499142	 1.0908070041	-0.781491147	-0.440766
C	-0.1488759796	 0.1260323703	-0.0880595863	 0.080153
C	-1.0589040323	-1.0503018023	 0.2936065288	-0.240072
C	-0.9784047387	-2.0117562046	-0.9167975603	-0.006857
N	-2.019563392	-1.7435743176	-1.905703687	-0.274741
C	-2.8341457554	-2.7006272574	-2.4181509229	 0.151196
O	-2.7945399115	-3.8819252019	-2.1400695123	-0.32972
C	 0.391911122	-1.6866015603	-1.4874208976	-0.068147
C	 0.8504945932	-0.5240460612	-1.0261980484	-0.106731
H	-0.3754281269	 1.7309136992	-1.1988956936	 0.281986
H	 0.3168747497	 0.5987413959	 0.7866584578	 0.070496
H	-0.6546175546	-1.5478806524	 1.17950558	 0.112023
H	-2.0776113909	-0.7245455904	 0.5116240662	 0.11696
H	-1.0964039576	-3.0607033255	-0.6402078863	 0.118669
H	-2.1298386455	-0.7824291897	-2.1947181062	 0.252845
H	-3.5607900493	-2.2751283198	-3.1390090832	 0.072498
H	 0.8697670079	-2.3175644661	-2.2282055546	 0.11223
H	 1.7790946357	-0.0451578204	-1.319004997	 0.097978
