15
gdb 49538	2.87262	1.22745	0.95078	4.6633	71.48	-0.251	-0.0404	0.2106	1181.7091	0.113008	-416.747141	-416.739514	-416.73857	-416.779937	27.969	
O	-0.0764050765	-0.0499896402	-0.397641152	-0.251254
C	-0.0572575626	 1.1166042649	-0.0915711344	 0.131258
C	 1.2229704184	 1.9103665044	-0.0471016959	-0.072513
C	 1.2239178787	 3.3660826877	-0.6141198325	-0.046196
N	 0.3405141175	 3.7505818155	 0.5529090443	-0.324449
C	 1.4498435526	 2.9033737008	 1.1375319505	-0.046218
C	 2.4929613374	 3.6708256858	 0.2541857763	-0.148324
C	 3.7807775756	 3.0765758847	-0.0689148652	 0.270879
N	 4.8070160246	 2.6094840061	-0.3246845573	-0.324177
H	-0.9774528436	 1.6695585324	 0.1736059432	 0.112019
H	 2.0702372543	 1.2822696076	-0.3222749181	 0.123356
H	 1.0257719213	 3.6913812898	-1.6351354979	 0.116075
H	 0.4857685097	 4.7354644219	 0.794394567	 0.220731
H	 1.5206145488	 2.6778867099	 2.2013397094	 0.116078
H	 2.6103327438	 4.7258303386	 0.5177590827	 0.122735
