25
gdb 87124	2.42044	1.20734	1.11529	1.6447	88.42	-0.2531	0.0787	0.3317	1319.6861	0.225249	-389.491483	-389.48035	-389.479406	-389.526628	42.596	
C	 0.2154664249	 1.4379567134	-0.3618658363	-0.431212
C	 0.2963846333	-0.0348341907	-0.040425967	 0.022459
O	 1.586135246	-0.5855496898	 0.2628525205	-0.310893
C	 0.5769383516	-0.6145380934	 1.2921569936	 0.388105
C	 0.8471643646	 0.3215461102	 2.459783396	-0.477115
C	 0.0945536918	-2.0381633894	 1.6649165692	 0.206745
C	 1.2606539071	-2.7853127651	 2.3491843919	-0.410425
C	-1.1099777992	-1.9528915568	 2.6227470138	-0.41745
C	-0.3173667386	-2.8491008715	 0.4217107013	-0.427137
H	 0.771478029	 2.0561315041	 0.3438606635	 0.123991
H	 0.6201960738	 1.6212025543	-1.3630754597	 0.128738
H	-0.8301416707	 1.7657953266	-0.362943597	 0.119315
H	-0.2732600571	-0.6487931602	-0.7368107088	 0.082114
H	 1.4557513203	 1.1663355529	 2.1368531488	 0.129379
H	-0.085470677	 0.7066663965	 2.8837816085	 0.122231
H	 1.392605801	-0.1843693205	 3.2604547955	 0.124024
H	 1.5713799497	-2.3086554176	 3.2832024733	 0.109049
H	 0.9625396215	-3.8107052496	 2.5910832928	 0.106812
H	 2.128851613	-2.82923742	 1.6851256029	 0.131167
H	-1.9312503235	-1.3792756792	 2.1786043895	 0.109643
H	-1.4873046612	-2.9572668125	 2.8422385117	 0.111672
H	-0.8479683784	-1.4855028815	 3.5761966189	 0.113748
H	 0.4704473125	-2.8331147363	-0.3363021491	 0.132788
H	-0.4936232903	-3.8921016073	 0.7033194472	 0.104744
H	-1.2431223539	-2.4739701165	-0.025374281	 0.107509
