20
gdb 96974	4.12208	1.08747	0.96876	2.5791	82.35	-0.2353	0.0292	0.2644	1297.0833	0.170361	-403.157603	-403.14862	-403.147676	-403.191521	33.617	
C	-0.4250968748	 1.4483073371	-0.4776888989	-0.329297
N	-0.333706605	-0.0004409404	-0.389197527	-0.318549
C	 0.6809793661	-0.5867538547	-0.8446264744	 0.418401
C	 0.9113083569	-2.0907566755	-0.8256713497	-0.392322
C	 2.1536841543	-2.3031158246	-1.6769883735	 0.309663
C	 3.0897250478	-3.4400599724	-1.3477776125	-0.48222
C	 2.0640857578	-1.7687354212	-3.0995934467	-0.359696
C	 2.6272329478	-0.9127155985	-1.9991168078	 0.062224
O	 1.7547246607	 0.0449754336	-1.437492815	-0.24669
H	 0.2139180445	 1.8873595124	-1.2527149212	 0.1207
H	-1.4658517931	 1.7269629929	-0.670682028	 0.119029
H	-0.1472011668	 1.8959652941	 0.4848982758	 0.123692
H	 1.0897655195	-2.418152223	 0.20506025	 0.128293
H	 0.0220160324	-2.6166048159	-1.1824029474	 0.133976
H	 2.6210561294	-4.4102692	-1.5481278326	 0.125226
H	 4.0044513405	-3.3875923049	-1.9466606023	 0.117916
H	 3.3789462377	-3.4209439533	-0.2907720903	 0.121494
H	 2.7608092025	-2.1757062127	-3.8251096751	 0.116935
H	 1.0948994113	-1.4936554656	-3.5045094031	 0.124395
H	 3.6618885802	-0.5923967872	-1.9796547304	 0.10683
