17
gdb 126942	5.10167	0.95571	0.81443	2.5162	80.84	-0.2217	-0.0558	0.1659	1394.8764	0.13738	-414.209994	-414.201542	-414.200598	-414.244492	30.214	
C	-0.0596696103	 1.5153566017	-0.0729468564	-0.410171
C	 0.0143006679	 0.0024580943	 0.1045505932	-0.096397
N	-1.3194075493	-0.5759133537	 0.0692377936	-0.352161
C	-1.5754087582	-1.9022731816	 0.0296420705	 0.505646
N	-2.8761789887	-2.2709209196	 0.0941258435	-0.312847
C	-3.0773559704	-3.572287147	 0.026208261	-0.003789
C	-2.0130603355	-4.4696314954	-0.1013827177	-0.014965
N	-0.7565308832	-4.0358627963	-0.147007702	-0.161912
N	-0.517344465	-2.7372674304	-0.0766258828	-0.27886
H	 0.9435823272	 1.9478057241	-0.0432017094	 0.131029
H	-0.5173846346	 1.7783339119	-1.0317484023	 0.129191
H	-0.6465639482	 1.9815629696	 0.7266419634	 0.121238
H	 0.6127643526	-0.4533647413	-0.6897371903	 0.136736
H	 0.5159196407	-0.2481606847	 1.049412702	 0.115573
H	-2.1182919702	 0.0136179918	 0.2396813918	 0.251727
H	-4.1074094293	-3.9206591248	 0.0756778218	 0.121588
H	-2.1598555854	-5.5418355385	-0.1611812699	 0.118375
