15
gdb 24785	2.56277	2.03604	1.1512	4.9343	76.14	-0.2233	-0.0488	0.1745	994.0877	0.115627	-416.845544	-416.838793	-416.837849	-416.876767	26.003	
O	 0.0792021013	-0.1002374644	 0.0007513003	-0.390409
C	 0.0065190836	 1.1150895545	 0.008489047	 0.346181
C	-1.2113416243	 1.947538326	 0.0303810015	-0.095543
N	-1.2570285679	 3.2495413592	 0.0380937265	-0.228456
C	-0.0989411371	 3.9887979038	 0.0255711922	-0.200113
C	 1.0827776966	 3.3239943916	 0.0051096356	 0.387036
C	 2.5970370095	 3.4258273231	-0.0160597957	-0.382584
C	 2.5762580716	 1.8522680883	-0.024336721	-0.17104
N	 1.1101700599	 1.9593100066	-0.0026516836	-0.10087
H	-2.1515156862	 1.4000263122	 0.0407833052	 0.130781
H	-0.1876941671	 5.0668490002	 0.0326788264	 0.120508
H	 3.022272713	 3.8854980719	-0.9101070496	 0.144949
H	 3.0478329687	 3.8757937003	 0.8703702041	 0.144948
H	 2.9608897209	 1.3723828948	-0.9265493399	 0.147307
H	 2.9866311776	 1.3626338021	 0.861140391	 0.147303
