18
gdb 32833	4.29824	0.83206	0.70624	0.9115	74.96	-0.2289	0.013	0.2419	1571.6826	0.147089	-439.124459	-439.115144	-439.114199	-439.159748	32.711	
C	-0.3176311352	 1.4127020847	 0.1076252571	-0.491319
C	-0.0613486396	-0.0491200053	-0.0336405718	 0.248075
C	 0.6179928197	-0.7233454261	-0.9901155	-0.123816
O	 0.5807112504	-2.0604231093	-0.6876843719	-0.182407
C	-0.1357882546	-2.1282661046	 0.4619154104	 0.3991
C	-0.357152915	-3.4748261732	 1.0571030113	-0.308426
C	-1.1695105657	-3.4138571226	 2.3456496284	-0.071069
O	-1.3065858433	-4.750496881	 2.8040004945	-0.422381
N	-0.5397756515	-0.9757905763	 0.8950159099	-0.357562
H	 0.090511413	 1.7920841197	 1.0504518768	 0.137781
H	 0.1368405258	 1.9727933619	-0.7136425947	 0.123304
H	-1.3924962053	 1.6226512427	 0.1141592391	 0.137764
H	 1.1494705589	-0.4472044816	-1.8843818272	 0.140044
H	-0.8708069343	-4.1205617409	 0.3345683827	 0.136021
H	 0.6080006616	-3.9550377995	 1.2587446345	 0.135997
H	-0.6517741069	-2.7805670568	 3.0796176629	 0.105326
H	-2.1444566714	-2.947441133	 2.1464148688	 0.105479
H	-1.8177846564	-4.7344663188	 3.6178929593	 0.288086
