27
gdb 57529	3.10156	0.86378	0.81864	0.0707	96.19	-0.2794	0.0724	0.3518	1622.5357	0.250739	-353.560472	-353.549671	-353.548727	-353.596386	41.435	
C	-0.105910911	 1.5638645855	 0.1424021601	-0.401001
C	-0.040268178	 0.0273382401	 0.0580708729	 0.264594
C	 0.5885202486	-0.5294251004	 1.3485167183	-0.395653
C	-1.4739395206	-0.5219727752	-0.0725988672	-0.401071
C	 0.7546523783	-0.4226233609	-1.1951293102	-0.213671
C	 2.2216282815	-0.015588375	-1.3109934575	 0.041606
C	 3.3361547752	-0.7893246253	-0.5406357899	-0.212494
C	 4.2352557862	-0.6804708287	-1.7996546298	-0.220384
C	 2.9597727716	-0.3845605067	-2.6315793005	-0.226431
H	 0.8830778785	 2.0084681933	 0.2903535679	 0.110923
H	-0.5341947795	 1.9931817275	-0.77046755	 0.105766
H	-0.7335552218	 1.8779887588	 0.9836817059	 0.106258
H	-0.022218481	-0.2670422678	 2.2197271586	 0.103284
H	 0.6652606717	-1.6218264435	 1.3138742176	 0.104925
H	 1.5918579706	-0.1280811907	 1.5163243199	 0.114634
H	-1.9633018403	-0.1434583894	-0.9770010642	 0.105915
H	-1.4749812633	-1.6164803875	-0.126289682	 0.106004
H	-2.0876481804	-0.2293333068	 0.786585687	 0.104592
H	 0.6945962381	-1.5182091158	-1.2700806333	 0.080428
H	 0.2288267142	-0.0350931074	-2.0801587343	 0.086472
H	 2.3363722708	 1.0591657234	-1.1312859328	 0.068523
H	 3.7124791064	-0.361940943	 0.3922392841	 0.092614
H	 3.0366813415	-1.8251663576	-0.3486881077	 0.0961
H	 4.8973553174	 0.1891136674	-1.7505030215	 0.099048
H	 4.832382164	-1.5527915337	-2.0760149242	 0.093189
H	 2.5456549033	-1.2995445429	-3.0692808664	 0.094905
H	 3.017448328	 0.3767401824	-3.4142031409	 0.090927
