18
gdb 77259	2.32281	1.10734	0.8882	4.3877	77.47	-0.2563	-0.0293	0.227	1342.3249	0.145695	-401.96361	-401.953952	-401.953008	-401.999358	33.621	
C	-0.0643610543	 1.5838123951	 0.2238676321	-0.41529
C	-0.009837597	 0.0838623297	 0.0417528459	-0.041977
C	 0.4867772178	-0.5817060324	-1.2126190398	-0.039961
C	 0.9862405419	 0.1902616712	-2.4205533735	-0.30899
C	 1.9187322843	-0.6561651921	-3.2692804384	 0.160149
O	 1.7395167838	-0.9048370325	-4.4326836416	-0.232904
C	 1.3115470345	-0.6836467885	 0.0756789745	-0.197363
C	 2.5490171522	 0.0346443126	 0.1816013729	 0.289847
N	 3.5455297795	 0.6195398972	 0.2538583882	-0.345358
H	 0.8135904272	 2.0870769612	-0.186745422	 0.143848
H	-0.9538366666	 1.9967332071	-0.262732598	 0.129997
H	-0.1153880523	 1.8356008313	 1.2875686642	 0.135331
H	-0.8167367734	-0.4474769109	 0.5389270466	 0.109312
H	-0.0156915081	-1.5099285362	-1.4714137192	 0.114939
H	 0.149978507	 0.5157121097	-3.0463256221	 0.127851
H	 1.5468309561	 1.0775851411	-2.1036545721	 0.140884
H	 2.8065219159	-1.0483055401	-2.7244948814	 0.092595
H	 1.3196593113	-1.6424860135	 0.5824808236	 0.137089
