19
gdb 65969	2.15562	1.59537	1.31626	2.5298	75.44	-0.24	-0.0302	0.2098	1079.4223	0.156431	-423.003674	-422.994486	-422.993542	-423.037891	33.749	
C	-0.1388395794	 1.6454873687	 0.1267629015	-0.445145
C	 0.0630697289	 0.1469697935	 0.0020462748	 0.259082
O	 1.201155055	-0.211597715	-0.8212985475	-0.333126
C	 1.8436650967	-0.9365471649	 0.2527241786	-0.143717
C	 0.695042928	-0.6054215357	 1.1955004493	 0.249295
C	 0.7387202123	-0.1940070543	 2.6335430023	-0.320879
C	 0.0333981115	-1.4675599606	 2.227607665	-0.330671
C	-1.1876914055	-0.5644633148	-0.4956382454	 0.125136
O	-2.3051966253	-0.2965500364	-0.134560906	-0.259542
H	 0.7201885513	 2.111764418	 0.6146024817	 0.12131
H	-0.2613952572	 2.0892215804	-0.8660612289	 0.132158
H	-1.0445946031	 1.8495630092	 0.7043050633	 0.140303
H	 1.9734580363	-1.9986642689	 0.0083471882	 0.107071
H	 2.8191571431	-0.5045301235	 0.5099409089	 0.107547
H	 1.6904702939	-0.273570282	 3.1498755177	 0.118798
H	 0.1309089705	 0.6492197447	 2.9443489111	 0.126573
H	-1.0513089973	-1.4785059421	 2.2591156852	 0.137368
H	 0.5007680938	-2.4168091562	 2.4696609293	 0.118926
H	-0.9711985135	-1.3927874602	-1.207015469	 0.089513
