19
gdb 75264	2.21998	1.58525	1.33446	0.7842	86.68	-0.2187	0.0225	0.2411	1087.0252	0.15882	-348.727991	-348.719527	-348.718583	-348.760766	33.078	
C	-0.0342404899	 1.4984898331	 0.0597385056	-0.50098
C	-0.044494133	 0.0042122486	-0.0049142983	 0.339788
C	-0.0425529665	-0.7694914181	-1.0958266699	-0.163918
C	-0.0268949976	-2.2462642943	-0.7689986047	-0.282258
C	 0.0361750024	-2.2718998996	 0.7574192071	-0.069197
C	 1.2652745466	-1.6833068242	 1.4398429303	-0.218675
C	 2.4893707265	-1.4376765307	 0.7390281833	 0.354726
C	 3.5317320647	-1.2565027048	 0.165417142	-0.473742
C	-0.0011036603	-0.8381293859	 1.2309290989	-0.152906
H	 0.8816719322	 1.8637623717	 0.5409010417	 0.134406
H	-0.0967596357	 1.9437069849	-0.9367244834	 0.12269
H	-0.874599696	 1.8778895565	 0.6549836538	 0.121212
H	-0.0069960166	-0.3998301057	-2.1148985029	 0.086178
H	-0.9273025856	-2.7575764335	-1.1340395833	 0.104739
H	 0.8312800782	-2.75637924	-1.2256141044	 0.120145
H	-0.4813016826	-3.0579372596	 1.2943520213	 0.09017
H	 1.4020751747	-2.0250508146	 2.4628610838	 0.11049
H	 4.4501157646	-1.0872054915	-0.3392644293	 0.191386
H	-0.5312587362	-0.5237867324	 2.1243835383	 0.085747
