15
gdb 8050	3.54112	1.88554	1.52968	4.4353	66.27	-0.2557	0.0024	0.2582	843.434	0.120429	-358.769334	-358.762347	-358.761403	-358.800367	26.774	
N	-0.1163777977	 1.4066654593	-0.1750999157	-0.619128
C	 0.0183542085	-0.002677944	-0.0446760192	 0.294162
C	 0.4818312033	-1.0040293744	-1.1214961003	-0.195473
N	 0.0671369833	-1.9443125076	 0.0270599937	-0.134684
C	 0.7924267003	-0.9423747652	 0.9396856191	-0.240907
C	-1.1562690769	-1.0069712138	 0.1443218221	-0.12398
C	-1.8893311405	-1.0371008928	 1.4015461478	 0.277023
N	-2.4895646803	-1.0271206142	 2.3897773221	-0.329028
H	-0.4571021559	 1.824704756	 0.6858359112	 0.24463
H	 0.7737086264	 1.8418845049	-0.39701917	 0.237759
H	-0.1259561753	-1.1130993083	-2.0232453352	 0.114548
H	 1.5495469126	-1.0556268891	-1.3448072847	 0.110466
H	 1.879705164	-0.9915816107	 0.8464039903	 0.107392
H	 0.4748171991	-0.9877432872	 1.9832280639	 0.133345
H	-1.8498044009	-1.1114124428	-0.6938828251	 0.123876
