18
gdb 39888	4.02216	1.52656	1.41925	1.0992	75.03	-0.2286	0.0709	0.2995	954.1679	0.150127	-401.854848	-401.848463	-401.847519	-401.885353	26.949	
C	 0.035970752	 1.5413249433	 0.0622060032	-0.301741
O	 1.1761384865	 0.65877881	-0.0307815636	-0.303374
C	-0.118061449	 0.0921874291	 0.0203745372	 0.532596
C	-0.5390288175	-0.9786969209	 1.031560779	-0.178331
C	-2.052754503	-0.9701205242	 0.7265374673	-0.164289
N	-1.9906689821	-1.4070543228	-0.7107265253	-0.156044
C	-1.3801661528	-2.782137132	-0.5116321707	-0.190614
C	-0.1127848322	-2.0642879173	-0.0633330543	-0.041462
C	-0.5461826987	-0.9155703457	-1.0279638929	-0.102287
H	-0.0589883739	 2.0715281161	 1.0090104362	 0.117499
H	-0.1590270817	 2.1385137604	-0.8271597461	 0.120844
H	-0.1772649821	-0.9892430807	 2.0577112595	 0.0792
H	-2.648618542	-1.6753609794	 1.3102700116	 0.102605
H	-2.499142471	 0.0241592341	 0.8123307689	 0.104834
H	-1.9320185308	-3.4373063032	 0.1698925894	 0.099221
H	-1.2579955613	-3.2764023659	-1.4795177837	 0.11046
H	 0.8905615089	-2.4837417098	-0.0091232914	 0.084354
H	-0.3203168893	-0.8500024311	-2.0898137043	 0.08653
