22
gdb 10919	2.98682	1.83113	1.43899	0.3112	81.79	-0.241	0.0834	0.3244	1004.9109	0.199632	-313.055257	-313.046426	-313.045482	-313.087729	34.215	
C	-0.4500443571	 1.5473257821	 0.3440709668	-0.404139
C	-0.116901353	 0.0677472455	 0.1821967603	 0.014661
C	 0.3154494298	-0.4451640967	-1.1985418275	-0.110167
C	 1.6561345255	 0.1181874081	-1.5906072835	-0.335163
C	 1.6081691591	-1.0291276794	-0.6184008428	 0.369914
C	 2.2759549701	-2.3494724788	-0.8810600301	-0.499498
C	 1.2208891835	-0.5224108329	 0.7856030241	-0.051271
C	 2.1930280477	 0.3774993518	 1.5416763312	-0.40987
H	 0.344033065	 2.1959258409	-0.0375236315	 0.112503
H	-1.3667940243	 1.7959966037	-0.2022594889	 0.111695
H	-0.6121797205	 1.8055885396	 1.3965384153	 0.110136
H	-0.9611136792	-0.5224983496	 0.5530446312	 0.067626
H	-0.3494750106	-0.8799489418	-1.9372827912	 0.074941
H	 1.9880882468	-0.1476397	-2.5900204698	 0.104173
H	 1.960060199	 1.1167578674	-1.2874368424	 0.100509
H	 2.2564694431	-2.599671811	-1.9472333187	 0.114356
H	 3.327438182	-2.3374497048	-0.5675933032	 0.11663
H	 1.7801694177	-3.1631576184	-0.3381369182	 0.111921
H	 0.9717360439	-1.3785411786	 1.4226099644	 0.064891
H	 2.5032513377	 1.2443999135	 0.9507719385	 0.113069
H	 1.7455953356	 0.7523192605	 2.4689429765	 0.111294
H	 3.0993070582	-0.1750951511	 1.8142829096	 0.11179
