16
gdb 52860	1.8515	1.27568	0.83796	4.7615	78.23	-0.2616	0.013	0.2746	1387.0884	0.121497	-400.714543	-400.704824	-400.703879	-400.751201	33.089	
C	-0.0496777012	 1.5284067852	 0.1630576327	-0.504883
C	-0.0062349224	 0.0752694344	 0.131627384	 0.148171
C	 0.0173092097	-1.1279710759	 0.0970793742	 0.022606
C	 0.0930915229	-2.5649782708	 0.0284201982	 0.194757
C	 1.3895122349	-3.1375968245	-0.547507322	-0.4211
C	 1.6611478861	-2.6781930185	-1.9095341041	 0.279959
N	 1.887329867	-2.3207795224	-2.984131038	-0.303071
C	-0.6821169655	-3.4023628712	 0.9668748589	-0.217474
O	-1.0928443053	-3.2574647273	-0.3890059507	-0.247731
H	 0.6765831358	 1.9574698665	-0.5351182913	 0.162606
H	-1.0423375631	 1.8939796185	-0.1204597224	 0.161052
H	 0.17577155	 1.9125729107	 1.1636906797	 0.153401
H	 2.2310921123	-2.8501463933	 0.0925026615	 0.161421
H	 1.3263575631	-4.2300544355	-0.5491817823	 0.160448
H	-0.3041346135	-4.3861371307	 1.2444951963	 0.11869
H	-1.3137963509	-2.9141258152	 1.7057007353	 0.131147
