18
gdb 55343	2.81017	1.19915	0.92561	3.8219	74.19	-0.2387	-0.0305	0.2081	1271.2264	0.145483	-439.111884	-439.102273	-439.101329	-439.1477	32.772	
C	-0.0619946379	 1.5654946609	 0.4070956742	-0.488672
C	 0.0394736934	 0.051037112	 0.3848093958	 0.364347
O	 0.9679960218	-0.5734423504	 0.8698491554	-0.370979
N	-0.9924007216	-0.5941613302	-0.2329564504	-0.08333
C	-2.373919518	-0.2087048469	-0.5666429113	-0.17409
C	-2.7556629068	-1.7172276876	-0.5642120531	-0.267779
C	-1.2978420494	-2.029806711	-0.1412175159	-0.047115
C	-0.471136032	-2.8727971753	-1.099382152	 0.138099
O	-0.9470125277	-3.5778530558	-1.9516571395	-0.235408
H	 0.9016901433	 1.9750643784	 0.7085916308	 0.152461
H	-0.3466497457	 1.9658674026	-0.5704158702	 0.136661
H	-0.8216842342	 1.8850590653	 1.1294719006	 0.141374
H	-2.8625950541	 0.3880489729	 0.2114296769	 0.118285
H	-2.4733397947	 0.3096414934	-1.5258678861	 0.122992
H	-3.519168115	-1.9968133186	 0.1604999603	 0.121433
H	-3.0067262817	-2.1327173974	-1.5398351283	 0.141704
H	-1.1569580816	-2.4228162864	 0.8754579061	 0.113749
H	 0.6239996317	-2.7751996758	-0.9534673634	 0.116269
