17
gdb 32651	2.08237	1.76063	1.02664	3.6089	84.38	-0.2158	-0.0097	0.2061	1154.0141	0.136532	-380.884769	-380.876187	-380.875242	-380.91833	31.698	
C	 0.0475003194	 1.538898769	 0.0556026471	-0.378806
C	 0.0208682792	 0.0115732925	-0.0272165209	-0.162844
N	 0.6926505264	-0.5056747829	-1.2126397973	-0.062387
C	 0.1104402593	-0.900446184	-2.3748486266	-0.00029
N	 0.9880920212	-1.2800130098	-3.2823366506	-0.264177
C	 2.2051864124	-1.1218138482	-2.6860411226	-0.183979
C	 2.0648477394	-0.6405666989	-1.3967004718	 0.144781
C	 3.0078325698	-0.3322473489	-0.3998882427	 0.276044
C	 3.8132672537	-0.0660815695	 0.4572543738	-0.474105
H	 1.0759785772	 1.9046371283	 0.1076866697	 0.146268
H	-0.4364066177	 1.9858656142	-0.8176006145	 0.130182
H	-0.4820829425	 1.8725924476	 0.9530726928	 0.123776
H	 0.5033980093	-0.4260029772	 0.8514198135	 0.138009
H	-1.0085639142	-0.357143991	-0.054327777	 0.124327
H	-0.9630313814	-0.8953789765	-2.4986468255	 0.129744
H	 3.1276734656	-1.3615437661	-3.1922263268	 0.119527
H	 4.5326766128	 0.1611982413	 1.2043620392	 0.193929
