11
gdb 123288	9.963	0.67613	0.63316	3.618	85.44	-0.263	-0.0802	0.1828	1595.9549	0.065181	-414.30921	-414.301902	-414.300957	-414.341686	26.235	
C	 0.0384735055	-3.7497842801	-0.018202036	-0.573712
C	 0.0254793331	-2.5422357831	-0.0114622586	 0.274274
C	 0.0093977232	-1.1852369714	-0.0038681855	-0.086571
C	 0.0007259757	 0.026166578	 0.0028379122	 0.415036
C	 0.0175223465	 1.4335031337	 0.0103024759	 0.130138
N	-1.0717691003	 2.1768161579	 0.0279825798	-0.159849
O	-0.6377703072	 3.4628094138	 0.0295724798	-0.146183
N	 0.7294059709	 3.5420770101	 0.0128834806	-0.05209
C	 1.1478806593	 2.3111873487	 0.0009198644	-0.168547
H	 0.0497007208	-4.8120598578	-0.0241321421	 0.205391
H	 2.1985052225	 2.0689805002	-0.0135603504	 0.162113
