23
gdb 118518	2.74683	0.82009	0.66964	1.4641	89.31	-0.2555	0.0529	0.3084	1735.6218	0.202247	-388.251348	-388.239906	-388.238962	-388.288903	40.346	
C	 0.4295029768	 1.4098336929	-0.1157344608	-0.38383
C	 0.1254854767	-0.0923120878	-0.114917712	-0.17018
C	-1.3593881862	-0.467526069	 0.056334506	 0.000199
C	-2.2065802205	-0.2217622822	-1.1953830715	-0.05494
O	-2.3100976786	 1.1604704789	-1.4582458554	-0.229728
C	-3.0910355207	 1.4418321892	-2.5947245894	-0.231785
C	-1.5085155535	-1.9615361884	 0.4493476291	-0.372507
C	-0.9192293971	-2.2908029102	 1.7410806459	 0.300026
C	-0.4395704841	-2.5482387411	 2.8130499806	-0.438851
H	 1.5074417184	 1.5817963878	-0.2020973184	 0.10181
H	-0.0735864911	 1.9208698334	-0.9374884136	 0.133108
H	 0.0942873528	 1.8745559779	 0.8182832524	 0.111086
H	 0.4955599524	-0.5478713597	-1.0446712798	 0.085555
H	 0.6866453977	-0.5648901865	 0.6991202203	 0.110449
H	-1.7880562482	 0.1353640521	 0.8668373192	 0.092927
H	-1.7593130577	-0.7442339486	-2.0610798038	 0.082097
H	-3.2159489074	-0.6474659822	-1.0534316195	 0.079718
H	-2.6612500246	 0.9990126835	-3.5073719641	 0.104288
H	-4.1203795354	 1.0645137682	-2.4846042224	 0.10412
H	-3.1233057496	 2.527821812	-2.7100496335	 0.12838
H	-2.5725777525	-2.2302429532	 0.4667802448	 0.126418
H	-1.0496317279	-2.5878760318	-0.3285332369	 0.128095
H	-0.0168417497	-2.7839030354	 3.7579814229	 0.193545
