21
gdb 66149	4.20522	0.72057	0.69199	0.2124	79.28	-0.2623	0.0902	0.3525	1689.1539	0.18044	-424.18752	-424.177836	-424.176892	-424.223179	35.16	
C	 0.1715577877	 1.5852948339	-0.290417911	-0.461812
C	-0.0316200099	 0.0889950196	-0.1794863515	 0.42319
C	-1.4571885055	-0.4255770425	-0.2792122919	-0.255541
C	-2.3305433492	-0.0248467401	 0.9213244034	-0.216715
C	-3.7170060798	-0.6116961462	 0.8301599948	 0.093121
C	-4.9115299211	 0.1101326091	 1.2828169078	-0.180831
O	-4.6077773331	 0.0019126086	-0.1093094889	-0.23898
C	 1.0817412141	-0.8111578561	-0.5169565578	-0.230785
O	 0.7484239728	-0.5486591944	 0.8486600621	-0.279279
H	 1.2293851377	 1.8362782545	-0.1821711195	 0.126722
H	-0.1776889485	 1.9519221641	-1.2616499305	 0.123377
H	-0.3821371644	 2.1198475484	 0.4877643312	 0.128227
H	-1.9181900719	-0.0553169079	-1.2027668437	 0.115632
H	-1.4300029681	-1.5189259917	-0.3501087477	 0.099299
H	-1.8496861245	-0.3716365845	 1.8442415077	 0.119278
H	-2.4173762831	 1.0651571556	 0.9864604485	 0.102578
H	-3.7622122394	-1.7031831928	 0.8223233156	 0.090375
H	-5.7893516894	-0.4422886235	 1.6155904164	 0.113493
H	-4.80397171	 1.1073490162	 1.7083575951	 0.111549
H	 0.875216953	-1.8232657221	-0.8638351121	 0.108653
H	 2.0309645326	-0.3950683284	-0.853783978	 0.108449
