21
gdb 85883	1.78412	1.66382	1.07879	4.3133	84.07	-0.2362	0.0151	0.2513	1233.0869	0.180926	-383.270677	-383.260794	-383.25985	-383.304957	36.699	
C	 0.0195505962	 1.5028483604	-0.0126138655	-0.331802
N	-0.0054198654	 0.0639611843	 0.1344664781	-0.064509
C	-1.2594011244	-0.6071644813	 0.5226753353	-0.206552
C	-0.4333560787	-1.6288985215	 1.3592426215	 0.28526
C	-0.9380332495	-1.9466251278	 2.7598015086	-0.458486
C	-0.1038345587	-2.8942981009	 0.5694003996	-0.437975
C	 0.6991297498	-0.5384222054	 1.2760633292	-0.15471
C	 2.0817598279	-0.9480270968	 1.0327423798	 0.301821
N	 3.1733662439	-1.2848329426	 0.8555604891	-0.338196
H	 1.0423854237	 1.8353235346	-0.2159299337	 0.13734
H	-0.6041301159	 1.7929311578	-0.8639412527	 0.129712
H	-0.3489599094	 2.0374531978	 0.8830158931	 0.094414
H	-1.9084951505	 0.018369723	 1.1573893046	 0.086071
H	-1.846536424	-0.9959430192	-0.3160244288	 0.108195
H	-1.8456927472	-2.5583481324	 2.7111603235	 0.12356
H	-0.1900743691	-2.5118187779	 3.3268687434	 0.128514
H	-1.1757174297	-1.038690095	 3.3228011253	 0.115327
H	 0.2550928259	-2.6509184466	-0.4340954883	 0.140039
H	 0.6686415246	-3.484839645	 1.0721858229	 0.131042
H	-0.998335176	-3.5189049289	 0.4727479379	 0.114712
H	 0.6849164063	 0.0969098835	 2.1785373271	 0.096223
