16
gdb 42321	3.43179	1.1521	1.03222	3.8871	69.82	-0.2692	-0.0881	0.1812	1167.431	0.124316	-437.90655	-437.898079	-437.897135	-437.940915	29.597	
O	-0.3403801441	-0.0379574372	-0.2955850643	-0.261326
C	-0.1966653295	 1.144945765	-0.1391418365	 0.284183
C	 1.125448373	 1.7851048806	-0.3439933712	 0.21795
N	 2.1404698671	 2.3164556171	-0.5020702825	-0.294746
C	-1.3117447376	 2.1248012487	 0.2367488825	 0.005563
C	-1.8092157397	 2.872083496	-1.0227620659	-0.25311
C	-2.8737064861	 1.8926223918	-1.5423036896	-0.239582
C	-3.4420673771	 1.2992844337	-0.2450639134	-0.061731
O	-2.4189181046	 1.4387995261	 0.7550006105	-0.248826
H	-0.9166817767	 2.8111276484	 0.9964895788	 0.116831
H	-2.2563364668	 3.8215585615	-0.7159347717	 0.126375
H	-1.0182812952	 3.0885922952	-1.7446769207	 0.131426
H	-3.6373045983	 2.3816193661	-2.1503185492	 0.116649
H	-2.4080172677	 1.1101770372	-2.1483773855	 0.129128
H	-4.3309501633	 1.8433527495	 0.0981780004	 0.10771
H	-3.6983903934	 0.2403228402	-0.3406199116	 0.123505
