15
gdb 132964	3.2077	1.3396	0.95053	2.5872	72.39	-0.2118	-0.0455	0.1663	1137.205	0.112902	-461.974365	-461.96663	-461.965686	-462.006915	28.827	
C	-0.0109818412	 1.4547358409	 0.0070913202	-0.331881
N	 0.0037985132	-0.0046658992	-0.0285446185	-0.133712
C	-0.106186745	-0.678017851	-1.211647692	-0.087641
C	-0.0917787531	-2.0356041025	-1.2355882432	 0.185279
F	-0.2001829437	-2.6874040821	-2.400664573	-0.079965
C	 0.0375626653	-2.7652183167	-0.0321776206	-0.167773
C	 0.1473191655	-2.0955462723	 1.1483465048	-0.242102
C	 0.1371723348	-0.6483675681	 1.2253115392	 0.431914
O	 0.2307899371	 0.0236246683	 2.2437330045	-0.415654
H	 0.914314122	 1.824979135	 0.4546152583	 0.159363
H	-0.1169169822	 1.8384509912	-1.0079897341	 0.127328
H	-0.8387329235	 1.8030102564	 0.6292427935	 0.159333
H	-0.2037716199	-0.0901138308	-2.1148349963	 0.141734
H	 0.0466783436	-3.8493439663	-0.0750350441	 0.126843
H	 0.2481647871	-2.6149513226	 2.0927595013	 0.126932
