13
gdb 77793	2.66782	1.46574	1.11904	1.8702	66.68	-0.2835	-0.0366	0.2469	1045.6073	0.08844	-452.710693	-452.703063	-452.702119	-452.742962	28.422	
O	-0.019934874	 1.4064034851	 0.0838108158	-0.409022
C	-0.0677219063	 0.0343578684	 0.0469619852	 0.089096
C	-1.3463694831	-0.8149097799	 0.0876251424	-0.300293
C	-2.3747235748	-0.1601001629	-0.7680306063	 0.449347
N	-3.581462971	 0.1261749282	-0.6468533181	-0.5355
O	-1.5009730078	 0.0301027791	-1.8619877025	-0.309274
C	-0.4676138835	-0.7274626516	-1.1779326567	 0.256489
C	 0.2620925251	-1.7079714699	-1.9058386725	 0.22684
N	 0.8824202138	-2.5032036529	-2.4724149084	-0.329857
H	-0.5388814496	 1.7501134349	-0.6554878196	 0.310148
H	 0.7416138023	-0.4075201199	 0.6204055844	 0.153865
H	-1.4990456478	-1.6274514944	 0.7827831183	 0.151031
H	-3.9634618933	 0.569046716	-1.4832520919	 0.24713
