19
gdb 101263	3.24557	0.91729	0.79611	4.0703	76.46	-0.2668	0.0109	0.2777	1437.6504	0.158557	-419.184355	-419.174554	-419.17361	-419.220033	35.149	
C	-0.2148469739	 1.5116243309	-0.1640561263	-0.431354
C	-0.0314016114	-0.0086175826	-0.0974967559	-0.009712
C	 0.8537197927	-0.5113941131	-1.2585272316	-0.067557
O	 0.3062785454	-0.2505984003	-2.5368046344	-0.422279
C	 0.5716251734	-0.5202627802	 1.2039634036	-0.007906
N	 1.360857287	 0.3825081417	 2.0422272812	-0.311248
C	 0.1161800847	-0.1839326158	 2.5940999065	-0.204703
C	-0.9647757575	 0.7231346789	 2.8976029134	 0.33928
N	-1.8545894737	 1.4085086764	 3.1725302437	-0.340172
H	 0.7435498087	 2.0266503519	-0.0515593497	 0.129841
H	-0.6567408237	 1.7856235979	-1.1270299361	 0.107127
H	-0.8862795551	 1.8829257344	 0.6115564599	 0.155715
H	-1.0109889546	-0.491056119	-0.217379911	 0.098803
H	 1.8651973538	-0.084755355	-1.1581090344	 0.094073
H	 0.9535463672	-1.6013578302	-1.1986426999	 0.10552
H	 0.3949343845	 0.6900629067	-2.7151293179	 0.288436
H	 0.9291087007	-1.5486371481	 1.1302004179	 0.096057
H	 2.1637374104	-0.0835759268	 2.4552994177	 0.247267
H	 0.1986500214	-0.9853008878	 3.3248411431	 0.132813
