14
gdb 49336	2.34686	1.83506	1.03886	5.413	66.11	-0.2561	-0.043	0.2131	1055.8957	0.101839	-470.070071	-470.06222	-470.061275	-470.102825	28.356	
N	 0.0401695655	 1.3393009868	 0.125426314	-0.522184
C	 0.0634471238	 0.0816534339	 0.0063730651	 0.443438
N	 1.1293819946	-0.798710157	-0.160426541	-0.365404
C	 0.7343875171	-2.1849395827	-0.0157942629	-0.295478
C	-0.7869420636	-2.0990635373	-0.0103707311	 0.436476
O	-1.5703830461	-3.0109522387	-0.0138427769	-0.342891
N	-1.1063142135	-0.7319756358	 0.0029417801	-0.188339
C	-2.4555236037	-0.3112217262	-0.0101169582	 0.169412
O	-2.8298180402	 0.8241415107	-0.0297979128	-0.251213
H	 0.9829177226	 1.7255833222	 0.0948741651	 0.218646
H	 2.0315596983	-0.4943760188	 0.1670880511	 0.256894
H	 1.0669209326	-2.8180254197	-0.8452856071	 0.155259
H	 1.0699403069	-2.6484498173	 0.9216888374	 0.149938
H	-3.1115063942	-1.1960032402	-0.0026700729	 0.135446
