16
gdb 47252	2.5723	1.71452	1.07895	4.6184	75.04	-0.2331	-0.0435	0.1896	1068.8774	0.127818	-434.103421	-434.095723	-434.094778	-434.136031	29.257	
N	-0.1004335503	 1.1484512613	-0.721915321	-0.495025
C	-0.056357815	 0.0096961578	-0.1485970916	 0.25901
N	-1.2217083092	-0.6470744225	 0.1803378169	-0.326788
C	-1.3466542542	-1.5088379567	 1.3542681593	-0.256099
C	-0.7149159835	-2.856500361	 1.1427767094	-0.082941
C	 0.5346852425	-3.0056112544	 0.7093718327	 0.029402
N	 1.4367372723	-1.9886437915	 0.3856736684	-0.350716
C	 1.3082416501	-0.6489950479	 0.0802039379	 0.358436
O	 2.314524371	 0.0127634927	-0.0954267554	-0.355483
H	 0.8543534717	 1.4319433991	-0.9475147215	 0.240355
H	-2.0202325548	-0.0548059179	-0.0052659948	 0.248777
H	-0.9193536054	-1.0287647576	 2.2510750434	 0.12158
H	-2.4143188524	-1.629597647	 1.5478254976	 0.123931
H	-1.297369545	-3.7471888321	 1.3434406885	 0.105974
H	 0.9686201095	-3.9923552849	 0.5885013467	 0.119454
H	 2.4126833227	-2.2536192872	 0.3644948935	 0.260133
