17
gdb 19838	3.28401	2.50796	1.78423	1.17	66.55	-0.2286	0.0667	0.2953	771.4282	0.144806	-363.819637	-363.813389	-363.812445	-363.849728	25.382	
C	 0.0669521506	 1.478490644	-0.1666920048	-0.255488
C	 1.3112848895	 0.6723246174	 0.0056743767	-0.032852
C	 2.1024599046	 0.7756220185	 1.279216804	 0.045118
O	 1.8055304818	 1.8385049884	 2.1912402288	-0.25185
C	 1.4469195515	 0.5063096081	 2.5745072473	 0.036807
C	-0.037369335	 0.1865541054	 2.5848134707	-0.260472
C	-0.4934306716	-0.5126891815	 1.282371931	-0.146754
N	-0.0170138345	 0.03558449	 0.0149190106	-0.095773
H	-0.1919706957	 2.1426774763	 0.6531239105	 0.128542
H	-0.2108285475	 1.8373500831	-1.1541547989	 0.114927
H	 1.9065101111	 0.4280124128	-0.8710956983	 0.087275
H	 3.1665365251	 0.5685788046	 1.1747508501	 0.090047
H	 2.0480231608	 0.107949871	 3.3907361314	 0.094788
H	-0.2755451599	-0.4698871858	 3.4277762379	 0.104934
H	-0.5922657167	 1.1164202157	 2.7464798727	 0.122791
H	-0.1559282907	-1.5562647364	 1.3079513472	 0.107532
H	-1.5876405134	-0.5352904917	 1.2433769131	 0.110432
