16
gdb 85033	2.49047	1.61	1.01827	0.8189	66.72	-0.2626	-0.026	0.2366	1113.3702	0.124165	-475.104839	-475.09609	-475.095145	-475.139199	30.943	
C	-0.0313662675	 1.4690974742	 0.0072057637	-0.351937
N	-0.0025467298	 0.0164184908	 0.00371754	-0.134155
C	 0.0096818879	-0.7399368528	-1.1743967166	 0.400482
O	-0.0830454333	-0.264799424	-2.2767763321	-0.345247
C	 0.1915815488	-2.203407354	-0.7835272489	-0.363681
C	-0.0157924789	-2.2292337048	 0.7323828247	 0.029201
O	 0.937970542	-3.0141215205	 1.4037105324	-0.430681
C	 0.0938309197	-0.7574937721	 1.1446003519	 0.385636
O	 0.2499537266	-0.3588996363	 2.2755571073	-0.374208
H	 0.7876087096	 1.8618513283	-0.5997310764	 0.154999
H	-0.9750379719	 1.8306260372	-0.4090407194	 0.152804
H	 0.0744381438	 1.7984109751	 1.0411489286	 0.165165
H	-0.4863440467	-2.8394884199	-1.3536635779	 0.145404
H	 1.2179388066	-2.5032879055	-1.0183367879	 0.161399
H	-1.0414551496	-2.5547226654	 0.9740470168	 0.105707
H	 0.9970268926	-2.6610401904	 2.3018913238	 0.299113
