19
gdb 14755	10.58583	0.59076	0.56946	4.7361	74.17	-0.265	0.0361	0.3011	1903.3276	0.163838	-365.077594	-365.06785	-365.066906	-365.113334	32.803	
C	-0.098294262	 1.5184804763	 0.0113783959	-0.385325
C	-0.0277519438	 0.0014317397	 0.0023579466	-0.032918
O	-1.3463102318	-0.5118561089	 0.0122626427	-0.242924
C	-1.3992219407	-1.9165248061	 0.0052265182	-0.051683
C	-2.8641051744	-2.3370150517	 0.0167543471	-0.196225
C	-3.0101202979	-3.8701404878	 0.0100618502	-0.342377
C	-4.4060894405	-4.3011565412	 0.0207947764	 0.259032
N	-5.5137017682	-4.6301026052	 0.0293960669	-0.302119
H	 0.9086850039	 1.9459732769	 0.0039513542	 0.117057
H	-0.6372017669	 1.8830107161	-0.8676251303	 0.129029
H	-0.6200025135	 1.8732779441	 0.9046240874	 0.129026
H	 0.5109555479	-0.3571380099	-0.8912424453	 0.087371
H	 0.528069557	-0.3668785118	 0.8813971815	 0.087368
H	-0.8912618184	-2.3217395451	-0.8885017332	 0.086452
H	-0.8745837416	-2.3312404229	 0.8848519022	 0.086451
H	-3.3517306924	-1.9206591917	 0.9032463963	 0.132406
H	-3.3682469058	-1.9114098899	-0.8559996163	 0.132403
H	-2.5247663066	-4.2969489472	-0.8758584421	 0.153487
H	-2.5083650341	-4.3061862639	 0.8822386415	 0.153489
