17
gdb 18279	4.27128	1.62082	1.3412	3.7963	63.91	-0.2365	0.0682	0.3047	926.6389	0.143928	-400.966977	-400.959777	-400.958833	-400.998551	27.376	
O	 0.1187317004	 1.3277175583	-0.1696134659	-0.427212
C	 0.0799307371	-0.0754690201	 0.007710744	-0.069024
C	-1.3547913681	-0.580253396	 0.116191983	 0.119658
O	-2.0327798053	-0.1497522847	-1.0737102979	-0.288451
C	-3.0178182353	-1.1030188152	-1.4610833189	-0.075315
C	-2.5816471701	-2.414548443	-0.8431864022	-0.052958
N	-1.1683434031	-2.7276509248	-1.1309064194	-0.327827
C	-1.5356784183	-2.0848235599	 0.1503713537	-0.086267
H	-0.4574292431	 1.5114470534	-0.9208521341	 0.292129
H	 0.57229053	-0.6086836267	-0.8174266914	 0.107686
H	 0.6220066217	-0.2937688379	 0.9345433856	 0.097555
H	-1.8353897462	-0.1361167036	 1.0032511167	 0.073404
H	-4.0140793822	-0.8255890801	-1.0816181125	 0.093777
H	-3.049843717	-1.1215453489	-2.5553043299	 0.115804
H	-3.2995316411	-3.213842984	-0.6939411655	 0.096582
H	-1.0063737854	-3.7188359768	-0.9693265548	 0.234395
H	-1.425128244	-2.6245703801	 1.0844624796	 0.096065
