14
gdb 113292	2.52735	1.19591	0.90718	1.8216	64.62	-0.2922	-0.0786	0.2136	1231.9848	0.097789	-473.799406	-473.790316	-473.789372	-473.833932	31.223	
O	 0.1040410667	 1.253546452	-0.3459411561	-0.407148
C	 0.1188157464	-0.0825883335	 0.1240804497	-0.11678
C	-1.3002239063	-0.5859499374	 0.2628757549	 0.002977
O	-1.9434700925	-1.0539919309	-0.914370781	-0.251021
C	-1.7087822126	-2.0212407343	 0.1035957905	 0.145668
C	-0.6914879783	-3.1083209074	-0.1956130688	 0.099367
O	 0.1507824659	-3.0081704641	-1.0438536293	-0.230704
C	-2.8792159695	-2.486028145	 0.8255180299	 0.239431
N	-3.7839457508	-2.8982995412	 1.4144635948	-0.308132
H	-0.1647069716	 1.2353472692	-1.2709755373	 0.299923
H	 0.6942660722	-0.7479979853	-0.5261893527	 0.140759
H	 0.5901102426	-0.0585358974	 1.11232348	 0.128075
H	-1.9415920149	 0.0160312752	 0.9080449294	 0.135497
H	-0.7947952072	-4.0075952997	 0.4446697258	 0.122087
