19
gdb 39138	3.38223	1.42731	1.27514	2.0644	74.91	-0.2469	0.0864	0.3333	1053.7106	0.16017	-423.00055	-422.993084	-422.99214	-423.032529	29.578	
C	 0.2706156841	 1.4324685421	 0.5639652106	-0.217147
C	 1.4620276922	 1.5981561042	-0.4203544063	-0.277025
C	 1.2718713927	 0.1236770725	-0.8436859307	 0.443289
C	-0.1559427387	 0.1597067045	-0.2184527266	-0.290395
O	 1.3909900279	-0.1072361185	-2.2407162776	-0.313306
C	 1.8829292676	-1.418015482	-2.5049280666	-0.126436
C	 2.5704375624	-1.8552874628	-1.2316480437	 0.024886
O	 3.5087652106	-0.8878336749	-0.7483798351	-0.256535
C	 2.1863784789	-0.8944418739	-0.1974932297	-0.048254
H	 0.6016386713	 1.2017987703	 1.5801914871	 0.103445
H	-0.4511536478	 2.2493156638	 0.6144197442	 0.104466
H	 1.2122000903	 2.2553487424	-1.2568298278	 0.115673
H	 2.4398720921	 1.8797626946	-0.0241466069	 0.109727
H	-0.4922603495	-0.7125580141	 0.3497744867	 0.092261
H	-0.8897766117	 0.383353421	-0.9965917647	 0.113303
H	 1.067057767	-2.1178036274	-2.7462046292	 0.096632
H	 2.5578109621	-1.3599062359	-3.3655878202	 0.118891
H	 2.8045896548	-2.8991052239	-1.0419529788	 0.102984
H	 2.1031130837	-1.1344228218	 0.8590142553	 0.103542
