15
gdb 70974	4.3496	1.24415	1.134	0.9685	71.78	-0.2278	0.0123	0.2401	1060.0146	0.11043	-420.510452	-420.502887	-420.501943	-420.542083	30.209	
O	-0.1094195393	 1.3645248666	-0.0334190292	-0.45348
C	 0.0555398701	-0.0003529724	-0.0473552073	 0.316303
C	 0.9794967815	-0.8405487281	-0.9295130189	-0.336971
C	 0.1052199006	-2.0396896487	-0.4456648762	 0.336718
O	 0.4346638373	-2.1401862826	 0.9833136318	-0.330102
C	-0.2846766849	-0.9203350107	 1.1466266791	 0.013542
C	-1.0667691048	-1.0188802469	-0.1211031636	-0.24465
C	 0.023102268	-3.2793485911	-1.1545868955	 0.074104
C	-0.0516805525	-4.3067352307	-1.7737812367	-0.315364
H	 0.5625467134	 1.7498436286	 0.5403801942	 0.292536
H	 0.8165789893	-0.6310587421	-1.9885895332	 0.121781
H	 2.0460453199	-0.9091916691	-0.6952410673	 0.104309
H	-0.5487427856	-0.5791545498	 2.1387686665	 0.115217
H	-2.1143938083	-0.9751323471	-0.3818283068	 0.116649
H	-0.1149029948	-5.2190249059	-2.3142717069	 0.189408
