23
gdb 69484	2.8431	1.37486	1.26437	0.2945	88.73	-0.2334	0.0876	0.321	1164.3193	0.206443	-351.149576	-351.140945	-351.14	-351.181961	35.347	
C	-0.1237652344	 1.5037866913	 0.010781631	-0.478204
C	 0.0056032126	-0.0022217887	-0.0120456477	 0.36701
C	-0.7946336311	-0.8226184412	 0.9700537972	-0.350578
C	 0.7137980649	-0.7862477624	 1.0786501375	-0.138058
C	 1.5696948221	-1.8771256894	 0.4484624226	 0.375743
C	 2.9348276727	-2.102851465	 1.0565594147	-0.488543
C	 0.8702339	-3.0110066368	-0.2635427719	-0.345265
C	 1.3382162034	-1.8092731646	-1.0514030386	-0.070812
C	 0.3721725611	-0.6615891143	-1.3546935879	-0.310067
H	 0.78569926	 1.9893962227	-0.3632919247	 0.111353
H	-0.9594092914	 1.8430229673	-0.6137617036	 0.114787
H	-0.3052278976	 1.8708967991	 1.0262898914	 0.111244
H	-1.3509846063	-0.2729025237	 1.7238927231	 0.101102
H	-1.2952722654	-1.727557047	 0.6451642346	 0.106786
H	 1.1417865794	-0.2766772892	 1.9364588062	 0.072931
H	 2.8592612384	-2.5186272191	 2.0685054223	 0.116244
H	 3.5231386267	-2.8031515327	 0.4552321764	 0.111431
H	 3.5004776344	-1.1658387267	 1.1249720276	 0.113427
H	 1.4373095992	-3.9278661789	-0.3956962086	 0.101327
H	-0.1901838132	-3.1821158952	-0.1170860251	 0.10648
H	 2.1615673149	-1.9637553158	-1.7421491821	 0.076677
H	-0.5141236227	-0.9875630291	-1.9130384308	 0.098234
H	 0.8815955224	 0.0773017694	-1.9838652437	 0.09675
