10
gdb 21548	3.7446	1.99707	1.30351	3.7649	58.62	-0.2549	-0.0822	0.1727	822.008	0.061179	-409.622095	-409.615566	-409.614622	-409.652874	23.477	
N	 0.079591792	 1.3830088936	 0.1824085106	-0.601963
C	-0.0235109493	 0.0303750178	 0.0572332061	 0.217353
C	-1.1079426873	-0.8102033939	 0.0133097288	 0.274796
O	-0.6329299584	-2.0828045836	-0.0506141845	-0.202801
N	 0.7474666171	-1.9944016785	-0.0480726429	 0.013275
N	 1.0914166462	-0.7769522375	 0.0138648038	-0.162246
C	-2.4885662483	-0.5616147582	 0.0173916086	 0.230428
N	-3.6182296384	-0.3000475649	 0.0189550294	-0.330596
H	 0.9703933587	 1.7721013114	-0.0864286035	 0.280934
H	-0.7206591523	 1.9326706739	-0.0886704964	 0.28082
