18
gdb 82250	2.39381	2.10301	1.47252	3.7364	69.56	-0.2345	0.0572	0.2916	926.6997	0.150527	-439.041012	-439.033991	-439.033047	-439.072268	28.507	
O	-0.090303285	 1.4293900808	-0.1565027692	-0.434274
C	-0.031119353	 0.0346763622	 0.0086037994	 0.128277
C	-1.3929164675	-0.660848593	 0.061253611	-0.074376
N	-2.1710008966	-0.4670746619	-1.1748736591	-0.331547
C	-1.4565315877	-1.7427442778	-0.9579945638	-0.061809
C	-0.1386540021	-1.8146517865	-1.7200931936	-0.085228
C	-0.0675093153	-1.0326520268	-3.050090803	-0.073428
O	 0.5970593299	 0.0832755092	-2.4065995949	-0.300879
C	 0.721794399	-0.6522826727	-1.1673684629	 0.072667
H	-0.2870193347	 1.5614986932	-1.0949157663	 0.29573
H	 0.5004602237	-0.1526379599	 0.9486521287	 0.079964
H	-1.9215874927	-0.7256218235	 1.0070903969	 0.088596
H	-3.1609561471	-0.5881099376	-0.9785199601	 0.235172
H	-2.0360624881	-2.6461138015	-0.7977799463	 0.08706
H	 0.2909938994	-2.8168590816	-1.7173309624	 0.077645
H	 0.5765860803	-1.4856550163	-3.8126807598	 0.097992
H	-1.0254514149	-0.7377768064	-3.4852395418	 0.119145
H	 1.7732664225	-0.8522674	-0.9345594428	 0.079292
