20
gdb 18937	3.00014	3.00012	2.36572	0.	76.22	-0.2775	0.0974	0.3749	725.6712	0.18357	-311.870807	-311.865537	-311.864593	-311.899707	24.332	
C	-0.0316180773	 1.5831966742	 0.0071870767	-0.195157
C	 1.5097989167	 1.7215212241	 0.0398912416	-0.029142
C	 1.721166118	 1.083995073	 1.4345612942	-0.195156
C	 1.2491749622	-0.3130387934	 0.9637238542	-0.029141
C	 2.4220541516	-0.5840268151	-0.009486894	-0.195155
C	 2.0006195012	 0.5528126707	-0.9718549783	-0.02914
C	 0.6690079287	-0.0851655702	-1.4366182046	-0.195155
C	 0.0210054174	 0.0367252382	-0.0361149402	-0.029142
H	-0.5000001672	 2.0149752548	 0.8950861501	 0.084595
H	-0.5250141551	 2.0012615871	-0.8737053945	 0.084621
H	 1.9344094717	 2.7097984406	-0.1360071635	 0.055082
H	 2.7527947123	 1.0673589436	 1.7946245296	 0.084595
H	 1.1024433162	 1.5586286829	 2.2001291928	 0.08462
H	 1.0400002777	-1.0619891052	 1.7274293829	 0.055083
H	 3.393658749	-0.4576294079	 0.4744530595	 0.084619
H	 2.4122234925	-1.5602685592	-0.5004408618	 0.084594
H	 2.7121113811	 0.858059613	-1.7390121697	 0.055083
H	 0.1155893918	 0.4759144334	-2.193648919	 0.084592
H	 0.809544568	-1.1042715301	-1.8052150065	 0.084622
H	-0.9059243565	-0.5078487045	 0.1432357706	 0.055082
