17
gdb 124862	3.62797	1.30995	1.04811	1.0135	73.61	-0.2619	-0.0245	0.2374	1135.4182	0.136586	-418.002625	-417.994722	-417.993777	-418.036416	29.478	
C	-0.0255929947	 1.4971083991	-0.1062698261	-0.462509
C	 0.0153592389	-0.0163641171	-0.030375349	 0.2219
C	 1.3597491252	-0.7202951068	-0.1459562576	-0.288009
C	 0.6638170226	-0.6726459263	 1.1799910019	-0.288021
C	-1.1530710347	-0.7083010908	-0.6187855204	 0.348331
N	-1.2861245829	-2.0130704024	-0.6414253307	-0.204647
O	-2.51684389	-2.2124467126	-1.2804267152	-0.149624
C	-2.9813409937	-0.9991695189	-1.5682149792	 0.09788
N	-2.2111541136	-0.0278053456	-1.1989395386	-0.319202
H	 0.8745778725	 1.9179668078	 0.3508631386	 0.110033
H	-0.0780500428	 1.8427430676	-1.142813359	 0.130562
H	-0.8972089913	 1.8988956506	 0.4186130433	 0.130544
H	 1.3778861443	-1.6653249747	-0.6757443287	 0.137411
H	 2.2281778034	-0.0886365251	-0.2993872887	 0.11634
H	 1.0500555535	-0.0080597205	 1.945394736	 0.11634
H	 0.2105872035	-1.5854199082	 1.5481181374	 0.137423
H	-3.9356370403	-0.9429685362	-2.071368614	 0.165249
