17
gdb 76019	2.69971	1.19168	1.07637	4.7937	81.43	-0.2501	-0.0042	0.2459	1191.5574	0.132671	-380.818698	-380.808917	-380.807972	-380.853017	35.278	
C	-0.2786713444	 1.4602962302	-0.0113038226	-0.325033
N	 0.0394605108	 0.0380745329	 0.0526462273	-0.117431
C	 1.3811808794	-0.4367941251	-0.2976081443	-0.260546
C	 2.4433300934	 0.4623465572	-0.6526542584	 0.346119
C	 3.3271939842	 1.2056319948	-0.9895663669	-0.429011
C	 0.8735413908	-0.4769225372	 1.13904397	 0.121759
C	 1.4852494391	 0.4062971589	 2.21257787	-0.466975
C	 0.4334196556	-1.7704604033	 1.6351832597	 0.283494
N	 0.1093974877	-2.8010675497	 2.0465431553	-0.340569
H	 0.5681505368	 2.132435778	 0.1719471031	 0.123893
H	-0.6700380446	 1.6707456174	-1.0104040944	 0.141497
H	-1.0682946089	 1.670720728	 0.7149665335	 0.137396
H	 1.3771847309	-1.3718677454	-0.853345434	 0.137631
H	 4.1147461463	 1.8538214363	-1.2868591825	 0.210004
H	 1.9552648723	 1.2904370489	 1.7822238617	 0.14521
H	 0.7214490442	 0.7182765513	 2.9309339809	 0.142541
H	 2.2507759165	-0.1532239132	 2.7568326415	 0.150021
