19
gdb 114859	4.00615	1.13688	1.03939	0.8932	79.44	-0.2386	0.0041	0.2427	1221.9307	0.159348	-422.991737	-422.983536	-422.982591	-423.0249	31.016	
C	-0.26592062	 1.2734525691	 0.1080665459	-0.238789
O	-0.1121566876	-0.1343209676	 0.1434332737	-0.233303
C	 0.795659903	-0.5754806802	 1.1101190654	 0.19226
O	 0.3083501058	-0.3331093164	 2.4429995687	-0.290383
C	 0.2459562523	-1.563606254	 3.1326595371	 0.090552
C	-1.0528447489	-2.4291145044	 3.3698538355	-0.256722
C	-0.2543846891	-3.6698487061	 2.8066251745	-0.30771
C	 0.6275581568	-2.6233413684	 2.1608424016	 0.219545
C	 0.9027437212	-2.0863413016	 0.9790723263	-0.265632
H	 0.6981217334	 1.7774248216	-0.0606219093	 0.104072
H	-0.9357581295	 1.5000994461	-0.7243213915	 0.124528
H	-0.7015241597	 1.6529656005	 1.0397484034	 0.127454
H	 1.7367169429	-0.0079643886	 1.0032420584	 0.067551
H	 0.8335753306	-1.4946881927	 4.0563809747	 0.085985
H	-1.4261722777	-2.4988468709	 4.3940662375	 0.103601
H	-1.8495160815	-2.1296452483	 2.6873736976	 0.127751
H	 0.2321064592	-4.2297814638	 3.6104259925	 0.117528
H	-0.7762012984	-4.3635656941	 2.1464135374	 0.120253
H	 0.9766731272	-2.5571436301	 0.0084364907	 0.111459
