19
gdb 75986	1.92949	1.6739	1.09818	2.4083	81.56	-0.2392	-0.0202	0.219	1174.3452	0.156033	-385.874144	-385.864267	-385.863323	-385.909018	35.913	
C	-1.1330722564	 1.0693905936	-0.4520102338	-0.413376
C	-0.1295438046	-0.063475688	-0.3171292264	-0.097149
C	 0.8280107465	-0.4792966405	-1.5102439535	-0.265224
C	 1.0069672192	 0.5384596065	-2.5257585115	 0.378847
C	 1.1570082531	 1.3880116925	-3.3642959845	-0.484508
C	 2.0250039442	-0.60299056	-0.4781373383	-0.097154
C	 3.4124462351	-0.068821531	-0.7917032008	-0.413374
C	 1.1412709279	 0.1677811793	 0.5134551135	 0.391543
O	 1.3786963913	 0.8259369476	 1.4851975844	-0.303526
H	-0.6651511163	 1.9602063647	-0.8781391297	 0.136738
H	-1.9709261371	 0.7844730597	-1.0953617372	 0.121164
H	-1.5296113529	 1.3304284156	 0.5335399805	 0.133839
H	-0.6215163589	-0.9717880611	 0.0531969634	 0.107173
H	 0.5555000453	-1.4273722634	-1.9800404798	 0.104337
H	 1.2870200907	 2.1305424454	-4.1123481976	 0.201756
H	 2.0800882937	-1.6482863032	-0.1487031441	 0.107172
H	 3.3623284378	 0.9517149222	-1.1791055394	 0.136738
H	 4.0185634855	-0.0588627453	 0.118909572	 0.133839
H	 3.9195957859	-0.6905273146	-1.5355855573	 0.121164
