21
gdb 96069	2.51551	1.50944	1.08349	2.0962	77.61	-0.2561	0.0809	0.337	1174.5468	0.183142	-424.23496	-424.226288	-424.225344	-424.267797	34.242	
C	 0.1395004346	 1.4928601625	-0.0708378775	-0.469733
C	-0.0258577416	-0.0030377114	 0.0735822348	 0.39746
C	-1.2427243138	-0.616529113	-0.6137136019	-0.26577
C	-1.8454938501	-1.8101464288	 0.14561327	-0.217909
C	-0.7624356026	-2.7527037308	 0.6815755668	-0.229398
C	 0.1136216082	-2.0397654325	 1.7182405579	 0.122457
O	 1.2102143227	-2.8415181002	 2.1414268033	-0.441638
C	 0.6085924579	-0.7036382397	 1.2063184572	-0.038342
O	 1.1990032396	-0.7471479151	-0.1039119695	-0.303853
H	 1.077460562	 1.8236993369	 0.381790422	 0.127822
H	 0.1512875311	 1.7757860541	-1.1294371231	 0.126178
H	-0.6897972626	 2.0246235739	 0.407968961	 0.120532
H	-2.0049508105	 0.1577652641	-0.7531379755	 0.09882
H	-0.9281223908	-0.9265642368	-1.6179900781	 0.114617
H	-2.4434902244	-1.4382582134	 0.988699603	 0.097882
H	-2.538179359	-2.3518028254	-0.5068734439	 0.098959
H	-1.2021596755	-3.6422276334	 1.1421970788	 0.101546
H	-0.1237010514	-3.092704021	-0.1427291331	 0.101498
H	-0.4738465403	-1.8606553979	 2.628356465	 0.087433
H	 1.8014370982	-2.9231932386	 1.3835442954	 0.285925
H	 1.1788524983	-0.1208101335	 1.9317344073	 0.085516
