19
gdb 36465	2.76137	1.07981	0.83642	0.6873	87.64	-0.2534	0.0384	0.2918	1380.272	0.157195	-348.678095	-348.668725	-348.667781	-348.712494	35.284	
C	-0.0340697905	-1.1740944732	-0.256915828	-0.42976
C	-0.0400748856	 0.0280733026	-0.2732384415	 0.293489
C	-0.0132168251	 1.4857589794	-0.2839111683	-0.37808
C	 1.3526861073	 2.0427592717	 0.1463126657	-0.001356
C	 2.4812781622	 1.8482283623	-0.90474733	-0.227496
C	 2.2835872399	 3.3141898188	-1.3712462245	-0.227096
C	 1.5066131456	 3.5985904987	-0.0448283038	-0.180083
C	 0.3271151649	 4.4373620716	-0.0837945681	 0.319179
C	-0.6616745197	 5.1216560005	-0.1325782206	-0.459342
H	-0.0445579059	-2.2356158994	-0.2456055183	 0.192671
H	-0.2673275778	 1.850316638	-1.2874889793	 0.13296
H	-0.7912919658	 1.8803838795	 0.3806036692	 0.139763
H	 1.5777277005	 1.6880184433	 1.1547602181	 0.084897
H	 3.455879314	 1.6894710614	-0.4362515887	 0.104702
H	 2.3207340329	 1.0598101059	-1.6430249298	 0.113014
H	 3.1746155046	 3.9189078878	-1.5503770254	 0.106455
H	 1.6279983423	 3.3935301248	-2.2410408218	 0.115372
H	 2.2002776576	 3.9787912685	 0.7126878218	 0.105544
H	-1.5289779515	 5.7329769478	-0.1719393168	 0.195165
