17
gdb 15158	4.82275	1.00363	0.87362	3.3779	69.33	-0.2459	0.0277	0.2735	1318.875	0.14024	-400.962754	-400.954031	-400.953087	-400.997132	29.928	
C	-0.6810383588	 0.6122969406	 0.1505734443	-0.314182
N	 0.6243431617	-0.0102829629	 0.2241329446	-0.204836
C	 0.7895426099	-0.8980723686	 1.0972590035	 0.129076
O	 1.9963812241	-1.5008045952	 1.2341704648	-0.208351
C	 2.0663746058	-2.5541995426	 2.1901031374	-0.120068
C	 1.4735580507	-3.8370856126	 1.6666147855	 0.082727
C	 0.8741262196	-4.8216594984	 2.574907579	-0.17737
O	 0.0525024855	-3.9659806391	 1.7804151056	-0.227914
H	-1.099554725	 0.4701781138	-0.8523236173	 0.127588
H	-1.4060248267	 0.2247957575	 0.8849227468	 0.09784
H	-0.5819066683	 1.6933155835	 0.3025861035	 0.12577
H	 0.0222779119	-1.2527808406	 1.799953851	 0.092971
H	 3.1325027736	-2.6873853852	 2.3965461302	 0.126719
H	 1.5632276812	-2.2705243502	 3.1240220096	 0.112848
H	 1.8792866625	-4.1791329513	 0.7144692009	 0.113366
H	 0.8658439949	-5.873640732	 2.2957449541	 0.125203
H	 0.8543788073	-4.6261824468	 3.6465087965	 0.118613
