17
gdb 25633	3.56804	0.96382	0.764	2.1102	89.97	-0.1751	0.0339	0.209	1471.6228	0.13672	-380.889202	-380.879851	-380.878907	-380.924613	33.596	
C	 0.0195773647	 1.4646512067	 0.035493648	-0.51013
C	 0.0137048857	 0.0093132336	 0.0290039558	 0.221399
C	-0.0064948563	-1.1994053483	 0.0233532667	-0.179647
C	-0.0089451344	-2.6120668183	 0.0150465424	 0.151406
C	 1.1244479303	-3.4047689041	-0.1196718628	 0.181718
N	 2.4594349062	-3.0542764872	-0.3541097861	-0.620999
N	 0.7338384989	-4.712051142	-0.0676693128	-0.276535
C	-0.6392729835	-4.7881055965	 0.0949706786	-0.087921
C	-1.1240066976	-3.5116017916	 0.1431925707	-0.277788
H	 0.6528963421	 1.8658204198	 0.8358703606	 0.140346
H	 0.387206584	 1.8747762841	-0.9128170199	 0.141615
H	-0.9910439484	 1.8591221793	 0.1912757479	 0.147425
H	 2.5290722004	-2.0472101128	-0.4528233565	 0.254225
H	 3.0800294674	-3.3414936028	 0.397123922	 0.24339
H	 1.3483982808	-5.4892025173	-0.2363543199	 0.260168
H	-1.1343036297	-5.7420506501	 0.1684456516	 0.116945
H	-2.1542765707	-3.2207083624	 0.2729507337	 0.094386
