14
gdb 133775	3.22943	1.00134	0.93163	1.1141	51.05	-0.2801	0.0584	0.3385	1220.4148	0.095903	-605.295985	-605.28731	-605.286366	-605.330995	30.326	
O	-0.0701710553	 1.4895047118	-0.3914444119	-0.414303
C	 0.0652740515	 0.2133248557	 0.2104440891	-0.107813
C	-1.272708854	-0.485331995	 0.2678911769	 0.043536
O	-1.7348195104	-1.1220272644	-0.9406936415	-0.24601
C	-1.5086578609	-1.9340848148	 0.1968819812	-0.122487
C	-0.4210767546	-2.9846285173	 0.0950758739	 0.282171
F	 0.5828790518	-2.6310949891	-0.7110684916	-0.064843
F	 0.0875866056	-3.2377292878	 1.3111373895	-0.074073
F	-0.932765472	-4.1307209811	-0.3738331608	-0.072324
H	-0.3203709888	 1.3479258978	-1.3110356455	 0.294934
H	 0.8046937298	-0.4073874796	-0.3037438944	 0.116908
H	 0.4183970444	 0.3926935521	 1.2317806023	 0.12417
H	-2.0474609331	 0.1003895721	 0.7650476013	 0.114115
H	-2.3996970139	-2.3432665505	 0.6738162915	 0.126019
