23
gdb 62916	2.55274	1.6299	1.50766	0.1558	89.3	-0.2286	0.0218	0.2504	1053.9837	0.207502	-351.158664	-351.150424	-351.149479	-351.190459	34.527	
C	-0.0460788922	 1.5017999443	 0.0116353743	-0.446917
C	-0.0415984838	-0.0335180249	 0.0098517282	 0.349272
C	-1.4786378907	-0.5115725364	 0.2113112706	-0.461466
C	 0.8011654438	-0.6227317962	-1.1818672452	-0.045045
C	 2.0648643471	-0.4228350014	-0.2976031823	-0.235489
C	 1.1087903354	-0.6274506833	 0.9194022601	-0.084752
C	 0.9233593296	-2.1222667759	 1.0745518033	-0.06502
C	 0.6777141466	-2.8423859096	-0.0213383958	-0.064168
C	 0.5497449636	-2.1345116453	-1.353435943	-0.270159
H	 0.9435566357	 1.9418222709	-0.1288028215	 0.111716
H	-0.6917250091	 1.8814211005	-0.7890818708	 0.109742
H	-0.4443824596	 1.8812429065	 0.9597748269	 0.109807
H	-2.1150774431	-0.1593804647	-0.6095012559	 0.10586
H	-1.5636135492	-1.5973301356	 0.2667463753	 0.120337
H	-1.8921439548	-0.0990190245	 1.1394944556	 0.105999
H	 0.7483051124	-0.0974579567	-2.1405812919	 0.05073
H	 2.8717751627	-1.1511950175	-0.4044034693	 0.090756
H	 2.4770139108	 0.583930727	-0.3647759953	 0.096461
H	 1.3302351768	-0.1193027841	 1.8607228137	 0.049866
H	 1.0074949233	-2.5774603346	 2.05673781	 0.083024
H	 0.5514327236	-3.9208813065	 0.0115347144	 0.083799
H	-0.4450216705	-2.3156541751	-1.784864958	 0.103579
H	 1.2656623015	-2.550354537	-2.0765792236	 0.102067
