21
gdb 70573	2.44885	1.80569	1.31564	1.9336	81.81	-0.2176	0.0691	0.2867	1053.3308	0.185132	-383.23004	-383.222212	-383.221268	-383.261753	32.211	
C	 0.0726675433	 1.5036181482	-0.0810321947	-0.472969
C	-0.0972692774	 0.0052486656	 0.0606262014	 0.362261
C	-0.3471182064	-0.5930186624	 1.4038161846	-0.299604
N	 0.9856390371	-0.6701845705	 0.803385454	-0.133522
C	 1.469576721	-1.9569443487	 0.3066680083	-0.142617
C	 0.4423796519	-2.8777798683	-0.3892150984	-0.239477
C	-0.3742160722	-2.1181060765	-1.4213194559	-0.030078
N	-1.7223349879	-1.6910006383	-1.0079633579	-0.337568
C	-0.6626108825	-0.6771587304	-1.1634529963	-0.100372
H	 0.7045362318	 1.7493129493	-0.9428287794	 0.113652
H	-0.8969076567	 1.9948586484	-0.2242562906	 0.11438
H	 0.546738193	 1.9179086298	 0.8115061328	 0.125614
H	-0.4235459645	 0.0553823555	 2.2737381748	 0.103724
H	-0.9744562362	-1.4784633966	 1.4392535702	 0.12828
H	 2.2788349407	-1.7308325827	-0.399555211	 0.100769
H	 1.9256685014	-2.4867468167	 1.1503698679	 0.104426
H	 0.9847917824	-3.7019038144	-0.8638941472	 0.097669
H	-0.2331854054	-3.3283781709	 0.3442584101	 0.117169
H	-0.2416023944	-2.4148577938	-2.4586989296	 0.08304
H	-2.3457509687	-1.6642604284	-1.8103811553	 0.230052
H	-0.7279597302	-0.0259795084	-2.0319875177	 0.075172
