17
gdb 87055	2.47532	1.4238	1.02499	4.3808	73.27	-0.262	-0.0042	0.2578	1176.6716	0.134986	-417.970564	-417.961719	-417.960775	-418.004339	32.089	
C	-0.0188908121	 1.496464802	-0.0798658035	-0.435152
C	 0.0282253987	 0.0016297524	 0.0732973224	 0.044309
O	 1.3080536356	-0.6332475452	-0.0505423555	-0.273106
C	 0.6564641208	-0.6979567494	 1.2227348529	 0.190702
C	 1.2771086381	 0.1048038169	 2.2663157535	 0.273825
N	 1.7458717971	 0.732058868	 3.1162724212	-0.332913
C	 0.2102941054	-2.0634534747	 1.6722899079	-0.074822
C	 0.0475032045	-3.1478859756	 0.6762210047	-0.245695
N	 1.1637105496	-3.1821417481	 1.637123347	-0.312604
H	 0.7815512327	 1.9797478387	 0.4838062648	 0.15699
H	 0.0842642067	 1.7650705943	-1.1357517591	 0.141313
H	-0.9812130041	 1.8795096996	 0.2741699679	 0.13822
H	-0.7743377359	-0.5550075113	-0.4115554562	 0.107957
H	-0.4194459336	-2.0466170124	 2.5586112624	 0.114004
H	-0.7173101251	-3.9028695359	 0.8307977049	 0.126351
H	 0.2751856756	-2.9165474717	-0.3594946029	 0.132473
H	 2.0145654658	-2.8834135475	 1.1634016076	 0.248149
