17
gdb 9623	3.21935	1.38604	1.17276	4.5758	66.5	-0.2413	-0.021	0.2203	1059.5969	0.139906	-400.97997	-400.971008	-400.970063	-401.013573	31.728	
C	-0.3260082577	 1.7642930648	 0.5718723149	-0.456155
C	-0.0625138348	 0.3809988542	 0.0135699851	 0.294327
C	-1.3026159271	-0.2752017813	-0.577503828	-0.143392
O	-0.9308401548	-1.4889785205	-1.2072984872	-0.418494
N	 1.2091221409	 0.174358485	-0.6620786561	-0.371412
C	 0.9629130044	-0.5452752721	 0.6134679355	-0.147819
C	 1.8162549966	-0.1494738259	 1.7650373763	 0.166822
O	 1.9680795638	-0.8299512665	 2.7498751351	-0.265576
H	 0.5994110664	 2.2388887828	 0.9000081391	 0.137186
H	-0.7726003203	 2.4045628034	-0.1972992768	 0.122332
H	-1.0168340292	 1.7231181016	 1.4208527665	 0.125442
H	-2.0405913591	-0.4431788692	 0.221807521	 0.106388
H	-1.7519984532	 0.4234478236	-1.3022123999	 0.099953
H	-1.716840417	-1.8991875291	-1.5774742533	 0.299839
H	 1.0807646122	-0.4891389083	-1.4240530384	 0.250584
H	 0.7228832201	-1.6033177014	 0.5709222337	 0.117914
H	 2.323278889	 0.8332187991	 1.6475982624	 0.08206
