19
gdb 6033	3.00652	1.54712	1.3298	14.2106	72.13	-0.1701	-0.0281	0.142	1008.8246	0.16372	-402.168382	-402.158804	-402.157859	-402.202386	34.791	
C	-0.2374026665	 1.555328679	-0.182565512	-0.441311
C	-0.004494068	 0.0520803307	 0.0072016637	 0.157616
C	 0.8966196593	-0.2081379839	 1.2197568983	-0.441322
C	-1.3001717447	-0.7263242281	 0.0761251898	-0.231872
N	-2.1225331311	-0.2627148093	 1.3245292809	-0.437314
H	-1.5597091323	-0.4105453309	 2.1652412643	 0.322017
H	-2.3005289334	 0.7413308145	 1.2494937847	 0.322016
H	-3.0119424739	-0.7541290248	 1.4259081501	 0.317225
C	 0.7384771644	-0.5191639572	-1.3119197684	 0.373229
O	 0.0837303207	-1.4053063451	-1.8967471405	-0.48031
O	 1.831567851	 0.008223093	-1.5325043051	-0.463221
H	 0.7205947503	 2.0052394813	-0.4546664867	 0.168151
H	-0.9373509296	 1.7562886196	-1.0024299704	 0.114609
H	-0.6013574426	 2.0744506601	 0.7222097889	 0.054863
H	 0.5539240328	 0.278184491	 2.1506791833	 0.054869
H	 1.0157105835	-1.2809850688	 1.4129233322	 0.114598
H	 1.8862330625	 0.1925304377	 0.9866279996	 0.168162
H	-1.9445341638	-0.5538949792	-0.7833498747	 0.163987
H	-1.1459488588	-1.7956853696	 0.2038222818	 0.164005
