18
gdb 88916	3.09883	0.95109	0.82216	2.8826	79.91	-0.2366	-0.0562	0.1804	1432.8826	0.144361	-401.889146	-401.879407	-401.878463	-401.925136	34.615	
C	-0.1205057951	 0.9759940998	-0.5855639784	-0.41369
C	-0.3016056842	-0.0461531374	 0.5151771707	 0.032692
C	 0.6640087278	-1.1680245123	 0.70063413	-0.255321
N	 0.5579666067	-0.1074596412	 1.6998750997	-0.085665
C	 1.6709447018	 0.8122410124	 1.8383105472	-0.260657
C	 2.60220732	 0.3948585273	 2.9765769562	 0.241661
O	 3.8037097574	 0.5295450907	 2.8972545579	-0.279495
C	 1.975135533	-0.1338063843	 4.1744697425	 0.314237
C	 1.4975463252	-0.5527841369	 5.1966469831	-0.459501
H	 0.9261921649	 1.0992181952	-0.8743486927	 0.124716
H	-0.6743508427	 0.6615547842	-1.4762443357	 0.127108
H	-0.5097131457	 1.9552612915	-0.2852682524	 0.12548
H	-1.3449218745	-0.2426579312	 0.7598492008	 0.095015
H	 0.331827939	-2.1540048943	 1.0141418084	 0.119306
H	 1.5425820917	-1.1688930132	 0.0555244094	 0.113129
H	 2.3056761945	 0.9320790564	 0.9488337278	 0.1142
H	 1.2746089096	 1.8036165768	 2.1013514691	 0.132244
H	 1.0723146008	-0.9257901633	 6.0964536462	 0.214542
