12
gdb 2873	7.87148	1.93978	1.59552	4.9261	57.54	-0.2471	-0.0482	0.1989	724.7431	0.092675	-319.576017	-319.569974	-319.56903	-319.605969	21.489	
N	 0.1095405136	-1.1071492522	-0.1194518021	-0.314841
C	 0.0037807361	 0.0418344783	-0.058413828	 0.26488
C	-0.0704405956	 1.4772408632	 0.0061893768	 0.283317
N	-1.1648844154	 2.1264538853	-0.1220051152	-0.286398
C	-0.7979238544	 3.546407807	 0.0386589095	-0.168291
C	 0.753704562	 3.5994612492	-0.0254661824	-0.188237
N	 1.089149002	 2.1962704714	 0.2651669073	-0.348018
H	-1.2812917557	 4.152958438	-0.7307991238	 0.127723
H	-1.1711304415	 3.8908757061	 1.0111496235	 0.130072
H	 1.1103215993	 3.8957779423	-1.020852678	 0.116189
H	 1.1916777973	 4.2721773957	 0.7152187012	 0.12584
H	 1.9663087421	 1.8223607157	-0.0674634287	 0.257764
