18
gdb 39047	2.49014	2.23804	1.79142	1.5444	74.7	-0.2239	0.0147	0.2386	857.5656	0.151202	-401.899884	-401.893565	-401.892621	-401.930137	27.049	
C	-0.005068556	 1.4854131906	-0.2075681984	-0.268622
C	 1.3024199053	 2.1498190173	 0.1630494123	-0.049259
C	 2.1316102302	 1.738073089	 1.1223028381	 0.001313
C	 1.8167633688	 0.5598672419	 1.9938958322	-0.135223
N	 0.3874475253	 0.6207218	 2.502274589	-0.317149
C	 0.0326359058	-0.4754197447	 1.5808413958	-0.068167
C	-0.0409690941	-0.0194617741	 0.0828138905	 0.089759
O	 1.2547228589	-0.6380239499	-0.1899384722	-0.28897
C	 1.4809417669	-0.791145724	 1.2069474955	 0.111304
H	-0.8463392553	 1.9682664888	 0.3086457218	 0.124858
H	-0.1763155965	 1.6318283892	-1.2806805808	 0.106347
H	 1.5699447163	 3.0233601013	-0.426382759	 0.088327
H	 3.0668013023	 2.2632302053	 1.2926349608	 0.084178
H	 2.5520667378	 0.4361094013	 2.7924621552	 0.070475
H	 0.3481884613	 0.2877862485	 3.4617189553	 0.217193
H	-0.7228102297	-1.1905771419	 1.9087032436	 0.073264
H	-0.8263685419	-0.5097954175	-0.5014702393	 0.081571
H	 2.0641202347	-1.678471741	 1.4632940694	 0.078803
