19
gdb 31626	3.47045	1.0586	0.86281	3.8161	80.25	-0.1846	0.0409	0.2255	1381.7967	0.15962	-419.278492	-419.268977	-419.268033	-419.313179	34.201	
C	 0.0826836503	 1.5408603363	 0.2316939832	-0.369466
C	-0.0081686966	 0.0384675278	-0.0915562646	-0.298599
C	-1.4034483204	-0.4865459262	-0.1373547372	 0.334946
C	-2.1277868451	-0.9928075911	-1.1592406415	-0.226851
N	-3.3930535776	-1.3336531343	-0.6797299663	-0.086613
C	-4.4842492693	-1.914264489	-1.4251778481	-0.344368
C	-3.4867948827	-1.0435115172	 0.6770983027	 0.454387
O	-4.439676106	-1.2145518326	 1.4168543606	-0.448946
N	-2.2393157677	-0.5164084363	 0.9825625574	-0.422264
H	 1.1262471506	 1.8685511009	 0.2570352495	 0.117997
H	-0.4469227306	 2.1327108198	-0.520501041	 0.126863
H	-0.3612719868	 1.7696416236	 1.2059780024	 0.116368
H	 0.4572317464	-0.1578455359	-1.0629488661	 0.115662
H	 0.5776599622	-0.5248290666	 0.6483989944	 0.110375
H	-1.8525459857	-1.1425243282	-2.1897007744	 0.130326
H	-4.2055966204	-2.8854636644	-1.8491252408	 0.128582
H	-5.3101855523	-2.0526659299	-0.7251521622	 0.170341
H	-4.8085693966	-1.2545930464	-2.237764958	 0.128451
H	-2.0057705414	-0.2234301803	 1.9145941101	 0.262809
