25
gdb 59018	3.04399	0.91784	0.8571	0.1745	95.57	-0.2237	0.0349	0.2586	1558.887	0.22864	-352.388598	-352.378361	-352.377417	-352.42379	38.89	
C	 0.0330033473	 1.5594137711	-0.0335368844	-0.385886
C	 0.0045369051	 0.0210188238	 0.048407358	-0.078326
C	 0.7743530289	-0.4713709455	 1.2883013028	-0.387474
C	-1.4042702505	-0.5134605242	 0.017694958	 0.36555
C	-1.9345687459	-1.2923834945	-0.9289852096	-0.200411
C	-3.3607105764	-1.6844285907	-0.6329727914	-0.259455
C	-3.7649329963	-0.7045102564	 0.5009090688	 0.050596
C	-4.7770334748	-1.2635217839	 1.4988654824	-0.403768
C	-2.4152442508	-0.2647093341	 1.1252457385	-0.3207
H	 1.0647918409	 1.9244923214	-0.0739256089	 0.108845
H	-0.4906160512	 1.9167734474	-0.9252891037	 0.114626
H	-0.4433584318	 2.0142193326	 0.8417020395	 0.114511
H	 0.5182347425	-0.3675825778	-0.8406682635	 0.071725
H	 0.3186893091	-0.0985973862	 2.2121962351	 0.115798
H	 0.7880302024	-1.5645276078	 1.3376510734	 0.114433
H	 1.8107364629	-0.1183395919	 1.2651506161	 0.109062
H	-1.3971502733	-1.6469620204	-1.8033580314	 0.078324
H	-4.0233175732	-1.6104695919	-1.5034892525	 0.095954
H	-3.4171956109	-2.7308785348	-0.2943848373	 0.096277
H	-4.2013380427	 0.1805045854	 0.02057352	 0.073879
H	-4.3799178096	-2.1519476594	 2.0039424691	 0.111152
H	-5.0274315283	-0.5269757369	 2.2702126234	 0.109797
H	-5.7094254558	-1.5530120813	 1.0019467598	 0.110509
H	-2.1720341489	-0.8746968075	 2.0087643365	 0.098354
H	-2.4398806687	 0.7747604736	 1.4721790013	 0.09663
