16
gdb 49411	4.33816	1.43714	1.38925	3.8821	72.37	-0.239	0.0146	0.2535	942.4615	0.125936	-400.68415	-400.677815	-400.676871	-400.715136	25.486	
O	 0.105352021	 0.0662064806	-0.511129938	-0.319165
C	 0.0889576786	 1.2401274779	-0.2121678696	 0.140175
N	 1.1296978647	 1.9142404539	 0.360487066	-0.03824
C	 2.5649289563	 1.5794816469	 0.2924744882	-0.045687
C	 3.1146744904	 2.1440374979	-1.0522425083	-0.068771
C	 3.675018849	 3.3950781513	-0.4186558978	-0.111381
C	 2.3336066469	 3.4604231213	-1.1101503292	-0.079034
C	 1.5233052343	 3.3308493472	 0.2157263653	-0.066729
C	 2.9065157405	 2.9959226671	 0.8772378064	-0.060755
H	-0.8101240985	 1.8829130278	-0.3187579735	 0.068517
H	 2.8938140991	 0.6183130882	 0.6765851851	 0.101445
H	 3.435192551	 1.6116408829	-1.9365214014	 0.103361
H	 4.5944828994	 3.9347985484	-0.590177179	 0.099115
H	 2.0574371917	 3.9395399367	-2.0392861145	 0.099003
H	 0.8267139877	 4.105618632	 0.5293315605	 0.090625
H	 3.155657198	 3.19278045	 1.9157001597	 0.08752
