19
gdb 121189	2.43791	1.12256	0.83644	2.4606	78.3	-0.2515	0.0224	0.2739	1412.7227	0.156249	-422.956572	-422.946745	-422.9458	-422.992628	34.601	
C	-0.0192312062	 1.4550741585	 0.2083994462	-0.385606
C	-0.2587149312	 0.0006412106	-0.1564988074	-0.043577
O	 0.8987493309	-0.490629962	-0.8146736624	-0.241702
C	 0.8199947124	-1.8351055282	-1.1592063726	 0.095238
C	 0.0716407821	-2.2276442366	-2.4543208615	-0.104928
O	 1.2472182789	-2.8867405576	-2.9719744779	-0.274513
C	 2.0774906999	-2.3944907224	-1.8870035683	-0.133529
C	 3.0784001017	-1.4299343967	-2.3088303236	 0.388632
C	 3.928027321	-0.6580636522	-2.6637417744	-0.465987
H	 0.8485895236	 1.5455632845	 0.8673828639	 0.130952
H	 0.1693696323	 2.0489593294	-0.690076607	 0.132112
H	-0.8929514364	 1.8671126463	 0.7218400856	 0.116555
H	-0.4589682423	-0.6017259481	 0.7453215342	 0.090943
H	-1.1398853649	-0.0935432006	-0.8114237225	 0.093753
H	 0.5341661781	-2.450444082	-0.2940103643	 0.079071
H	-0.7746753291	-2.9166684585	-2.3619988514	 0.104344
H	-0.2165039512	-1.3602900878	-3.062275144	 0.109815
H	 2.5628034645	-3.229363088	-1.3668782134	 0.108256
H	 4.6718931958	 0.0322482413	-2.9766731792	 0.200173
