19
gdb 17967	2.63553	2.40972	1.46485	2.2701	71.91	-0.2486	0.0098	0.2584	900.1474	0.167977	-365.06691	-365.059556	-365.058612	-365.098253	28.498	
C	-0.0032016037	 1.4798835932	-0.0482946307	-0.178746
C	 1.3729375412	 2.1744627255	 0.0289178672	-0.207779
C	 1.8433756491	 2.5017298108	 1.4483672126	-0.076993
O	 1.6980839728	 1.3961373662	 2.3463229426	-0.221717
C	 2.3813417507	 0.2714232383	 1.9688050499	 0.093293
N	 1.8434857258	-0.7721906366	 1.5174636537	-0.211229
C	 0.3913103033	-0.7508057626	 1.3067884822	-0.146274
C	-0.011063137	-0.0623725991	-0.0114340114	-0.186054
H	-0.6536990163	 1.8680398193	 0.7463161588	 0.099682
H	-0.4758905269	 1.77318821	-0.9929514747	 0.096977
H	 2.1249173378	 1.5600087287	-0.4807392197	 0.110325
H	 1.340182542	 3.1260949326	-0.5158437148	 0.098069
H	 2.8879335589	 2.8487539103	 1.4380727755	 0.098896
H	 1.2292166262	 3.2932255921	 1.8871754996	 0.117592
H	 3.4649945267	 0.3266019835	 2.107135181	 0.106247
H	 0.0629820223	-1.7936218102	 1.2641658207	 0.098214
H	-0.1282188089	-0.2701922484	 2.1447989022	 0.107882
H	-1.0301603102	-0.3913535574	-0.2493543388	 0.096413
H	 0.6300504563	-0.4486389962	-0.814185926	 0.105203
