19
gdb 96927	2.45948	1.35979	1.12769	2.8653	79.76	-0.2209	0.0238	0.2447	1195.3587	0.157774	-419.167063	-419.157484	-419.15654	-419.201371	35.023	
C	 0.0431934364	 1.4382605164	-0.0683924418	-0.340543
N	-0.0725319577	-0.0126487359	-0.1065762093	-0.336839
C	 0.5666171518	-0.653722249	-0.9663288653	 0.446628
O	 1.4049947924	-0.1970359705	-1.9991215857	-0.288403
C	 1.4799485139	-1.5342031729	-2.5483877016	 0.008985
C	 2.1316486028	-2.4528581833	-1.5595586595	-0.06334
C	 3.2607187184	-2.0589416263	-0.6335960118	-0.420666
C	 0.6587291809	-2.0944793892	-1.3714638246	 0.139785
N	-0.3631742856	-3.0441591789	-1.1452592618	-0.596087
H	 0.6297658705	 1.8628415113	-0.8912937609	 0.127341
H	-0.9607566608	 1.8757811531	-0.0849478266	 0.125862
H	 0.5034876043	 1.7351815349	 0.8807516146	 0.128843
H	 1.4204540681	-1.6315581443	-3.6243244165	 0.114169
H	 2.2096652884	-3.4658812696	-1.9586432563	 0.089247
H	 3.1913764012	-1.0038402701	-0.3610666869	 0.141942
H	 3.2400878033	-2.6539865801	 0.2845267956	 0.126385
H	 4.2289626022	-2.2179565536	-1.1199694316	 0.119172
H	-1.2331994335	-2.7906991676	-1.6003465493	 0.24172
H	-0.0957014371	-3.9762395742	-1.4340172107	 0.235799
