18
gdb 90625	3.42797	1.18511	1.1069	2.4135	79.27	-0.2354	0.037	0.2724	1157.9122	0.14573	-401.857252	-401.848383	-401.847439	-401.890207	34.258	
C	-0.0668826311	 1.56618156	 0.0783613234	-0.488966
C	 0.0324814723	 0.0528781399	-0.0568451266	 0.112496
C	-1.0535567324	-0.6423826065	 0.6020217805	 0.274988
C	-1.982387624	-1.1813723744	 1.1416363261	-0.401973
C	 0.5795415602	-0.6678269935	-1.2457509153	-0.074996
C	 1.7395053822	 0.0411376474	-1.9235516164	 0.08158
O	 1.4034649185	 1.206775123	-2.643754615	-0.423894
C	 2.4022264575	 0.1270928074	-0.5167138199	-0.220539
N	 1.3091633639	-0.7110955248	 0.0926054277	-0.164352
H	 0.6003322932	 2.0923072871	-0.6011263071	 0.146516
H	-1.0891243571	 1.8736782838	-0.1571868276	 0.135466
H	 0.1415902653	 1.864291213	 1.1112747668	 0.127104
H	-2.7932101882	-1.6673723185	 1.6250444185	 0.190331
H	 0.0686242171	-1.5377940515	-1.6449997787	 0.10246
H	 2.2874645032	-0.6644084991	-2.5604766011	 0.089954
H	 2.1810152499	 1.4974646633	-3.1309402908	 0.288367
H	 3.3519963629	-0.4060026765	-0.439846665	 0.112781
H	 2.5120000764	 1.1239258298	-0.0838393994	 0.112676
