15
gdb 105137	2.56925	1.25633	1.0141	3.4973	72.15	-0.2984	-0.0179	0.2805	1177.4696	0.110961	-416.801057	-416.792036	-416.791092	-416.835171	31.584	
C	 0.1477692074	 1.291420642	 0.2097072007	-0.265475
O	-0.1978009154	-0.0325983857	-0.1945960423	-0.263199
C	 0.5926378528	-0.5452120428	-1.2011465762	 0.291578
C	 1.9390912386	-1.1378638398	-0.8470058426	-0.333917
C	 0.779851732	-2.0601920387	-1.1817239061	-0.251725
C	 0.1423258936	-2.8181550078	-0.1414909039	 0.319866
N	-0.3596184481	-3.4536328087	 0.6831034108	-0.322036
C	 0.4396694663	 0.0812606849	-2.5023029438	 0.255037
N	 0.3201661293	 0.6011519994	-3.5279127455	-0.332979
H	 1.1819294901	 1.3377089865	 0.5738161763	 0.122569
H	 0.0219724867	 2.0030002655	-0.6152811868	 0.143538
H	-0.536240733	 1.5477483499	 1.0191379222	 0.152743
H	 2.7488560474	-1.0738181063	-1.563244816	 0.156343
H	 2.2172320526	-1.0644558375	 0.1974120099	 0.162065
H	 0.8021910295	-2.5502243908	-2.1487974766	 0.165591
