19
gdb 81302	2.56975	1.5654	1.22569	1.8086	74.81	-0.2356	-0.0103	0.2253	1064.1792	0.160896	-423.042067	-423.034268	-423.033324	-423.07427	30.924	
O	-0.0454020764	 1.3690499575	 0.0574099432	-0.450111
C	-0.0148512617	-0.040177155	 0.0275056536	 0.153062
C	-1.4500828137	-0.5892115844	-0.1289255336	-0.02096
C	-1.263544414	-0.4479584439	-1.6668877799	-0.249532
C	 0.2634413198	-0.6263935919	-1.4059564528	-0.159651
C	 0.611303486	-2.0886789137	-1.2263540424	 0.402132
O	 1.6678487197	-2.5667898387	-1.5658315099	-0.330266
C	-0.4937537044	-2.9157514815	-0.5592188303	-0.31385
C	-1.4844784813	-2.0687763322	 0.2816847655	-0.235791
H	 0.8549748687	 1.691819673	-0.0546337459	 0.285955
H	 0.5911692066	-0.4412088127	 0.8527082757	 0.068728
H	-2.2370421295	-0.0085116059	 0.3566396222	 0.077573
H	-1.7623675337	-1.1681873813	-2.3204221853	 0.096879
H	-1.4786310985	 0.5652358532	-2.0051147118	 0.122827
H	 0.9991679875	-0.1226537754	-2.0350577614	 0.075662
H	-1.0268320383	-3.4100436448	-1.3814707	 0.135362
H	-0.0256778507	-3.7170769631	 0.0168797566	 0.127461
H	-1.2376249008	-2.1488789564	 1.346513182	 0.108708
H	-2.4993932053	-2.4616360527	 0.1659767248	 0.105811
