23
gdb 118590	1.60235	0.85925	0.59156	2.1036	79.12	-0.2581	0.0739	0.332	1882.9522	0.203038	-462.541495	-462.529634	-462.52869	-462.58	40.916	
O	 0.7134567254	 0.7699285093	-0.7025495712	-0.420677
C	 0.4695445189	-0.6239234571	-0.5800563118	-0.07844
C	-0.9814829231	-0.8022278518	-0.1455591019	-0.191692
C	-1.4153115935	-2.2689415865	 0.0396769849	 0.020547
C	-0.9063866632	-2.824390919	 1.3736768374	-0.09103
O	-1.1203355877	-4.2289527028	 1.3847764975	-0.421229
C	-2.941979493	-2.4430072777	-0.0563563444	-0.182028
C	-3.4806229169	-2.402181072	-1.4809563811	-0.083549
O	-4.8934679894	-2.5369261502	-1.4134819551	-0.420664
H	 1.6279587493	 0.8926441851	-0.9730354392	 0.284821
H	 0.6307688928	-1.1424500709	-1.5397117521	 0.085155
H	 1.1543203656	-1.0801683867	 0.1519859318	 0.085576
H	-1.1394498361	-0.2446812796	 0.7869223711	 0.102992
H	-1.610145395	-0.3150476917	-0.8981383722	 0.108368
H	-0.9498466701	-2.8810182262	-0.7472794424	 0.075578
H	 0.1625761325	-2.5938982319	 1.4999637514	 0.082359
H	-1.4470680823	-2.331752484	 2.1987739666	 0.087164
H	-0.9192189969	-4.5586898074	 2.2649966343	 0.287041
H	-3.2190413181	-3.4053417767	 0.3832194976	 0.120903
H	-3.4435157486	-1.6623157481	 0.5302455819	 0.096953
H	-3.2006462186	-1.4588740862	-1.9769027469	 0.083269
H	-3.0301935242	-3.2215442166	-2.0654376072	 0.085048
H	-5.2398528979	-2.5108718913	-2.3100113089	 0.283534
