19
gdb 112762	2.1934	1.322	0.97039	4.4962	76.07	-0.2489	0.0223	0.2711	1261.0278	0.15957	-419.19772	-419.188322	-419.187378	-419.232542	34.112	
C	 0.2210793403	 1.5014718906	-0.3112968355	-0.393483
C	 0.1334214406	 0.0181500563	-0.0101440498	 0.055102
N	 1.0429686752	-0.8489036534	-0.8022322736	-0.338594
C	 1.4044331808	-1.6546125398	 0.3894217891	 0.027463
C	 2.897149767	-1.9514302992	 0.46120725	-0.079089
O	 3.3060766679	-2.6159942877	-0.7210658927	-0.421543
C	 0.7727952962	-0.5531504104	 1.3077563717	-0.230419
C	 1.7060477452	 0.3282278205	 1.9893773569	 0.303708
N	 2.4370916419	 1.0381164227	 2.5366544452	-0.342359
H	 1.2508090517	 1.8571478218	-0.2273858814	 0.143979
H	-0.1276341973	 1.6955470357	-1.3309583906	 0.120112
H	-0.4059675852	 2.0776036519	 0.3771183863	 0.124327
H	-0.9135612736	-0.3125144989	-0.0565688635	 0.080853
H	 0.587523342	-1.3693888712	-1.5437273006	 0.226094
H	 0.8366402523	-2.5902902744	 0.4733928538	 0.083047
H	 3.4560811133	-1.0177967727	 0.6124588006	 0.111893
H	 3.1206019196	-2.6202227098	 1.2989106957	 0.113216
H	 3.1692175405	-1.9839674853	-1.4371484728	 0.288089
H	 0.0508930718	-0.9263626866	 2.0356940511	 0.127603
