19
gdb 37733	3.3119	1.95366	1.49597	1.2734	78.3	-0.2341	0.0938	0.3279	912.5572	0.162308	-385.815953	-385.809687	-385.808742	-385.846137	27.207	
C	-0.1160928764	 1.5571665729	 0.0023818723	-0.335405
C	 1.4192086205	 1.2634126488	 0.0088325906	-0.089985
C	 1.2521637552	 0.0208802184	 0.9351273276	-0.08153
C	 1.9305366085	-0.9848155902	-0.018395949	-0.065144
C	 1.1906619172	-2.3380395708	-0.0006716167	-0.246499
C	-0.2664427114	-2.1798043649	-0.498783357	-0.087056
O	-0.9186860436	-0.9798439243	-0.0407158813	-0.315271
C	 0.0133902697	 0.033967833	-0.0228658775	 0.455475
C	 1.2719927969	 0.0524823613	-0.9648678468	-0.112138
H	-0.5319362545	 2.0044908766	 0.9105332578	 0.098294
H	-0.5218088892	 2.0387162177	-0.893010459	 0.096217
H	 2.2371687545	 1.9802250458	 0.0266932442	 0.077838
H	 1.2115807876	 0.0173912712	 2.0258487079	 0.066491
H	 3.0210412948	-1.0758901467	-0.0034137362	 0.057183
H	 1.6807346218	-3.0750528297	-0.647281822	 0.099969
H	 1.2097851981	-2.747106823	 1.0173433523	 0.104127
H	-0.2622867995	-2.1639505465	-1.5980015226	 0.100352
H	-0.8935880696	-3.0138111694	-0.1752627554	 0.108474
H	 1.2625417295	 0.1029618598	-2.0550531094	 0.068606
