19
gdb 89362	2.3567	1.64783	1.40558	2.3861	75.72	-0.2218	-0.0151	0.2067	1044.4078	0.158133	-423.029977	-423.02149	-423.020546	-423.062644	32.74	
C	-0.0275666265	 1.5053964289	-0.0497128907	-0.411086
C	 0.0753776371	-0.0062474788	 0.0612085911	 0.141696
O	 0.9570682004	-0.540761674	-0.9751570773	-0.331028
C	 1.9571263552	-1.2685899637	-0.2324694048	 0.315128
C	 2.98327441	-1.8898755726	-1.1286917446	-0.497599
C	 1.0994900771	-2.0092358958	 0.8426822272	-0.298646
C	 0.7723127419	-0.5533111193	 1.322412571	-0.199082
C	 2.2433335263	-0.2816339218	 0.9288211033	 0.411659
O	 3.1877951326	 0.275621043	 1.4002172772	-0.324885
H	 0.9451197188	 1.9828069365	 0.1020717333	 0.135151
H	-0.3946529203	 1.7826850071	-1.0419591937	 0.13113
H	-0.7274900489	 1.897655313	 0.6957566282	 0.11736
H	-0.9166160302	-0.4590238943	-0.0683920827	 0.079496
H	 3.4738077879	-1.1187774543	-1.7294086246	 0.141412
H	 3.7453608015	-2.4028348577	-0.5358959967	 0.129934
H	 2.5197753713	-2.6112305348	-1.8082789454	 0.131338
H	 0.261739691	-2.5891837984	 0.4495042227	 0.115753
H	 1.687804896	-2.5863774023	 1.5587671609	 0.119179
H	 0.3538837988	-0.3121891405	 2.2963379057	 0.093092
