19
gdb 12077	3.50043	1.74434	1.54858	2.0772	71.4	-0.2267	0.0868	0.3135	922.6785	0.164501	-365.003682	-364.995532	-364.994588	-365.035809	31.114	
C	 0.0888217356	 1.3388143615	-0.0707974373	-0.246994
O	-0.0166947231	-0.0462685766	 0.1686906844	-0.280156
C	-1.3085935488	-0.5922464167	 0.0523324893	 0.454778
C	-2.2633380362	-0.0776614161	 1.1305809912	-0.454205
C	-1.9756687707	-0.6101596597	-1.3872115898	-0.296984
C	-1.9986547444	-2.137741849	-1.2912690854	-0.039898
N	-0.577547916	-2.5475616398	-1.2123973987	-0.328379
C	-1.2864222171	-2.1246210794	 0.0163836695	-0.108971
H	 1.1554891084	 1.5765361419	-0.0807381159	 0.127174
H	-0.340842908	 1.6231879489	-1.0427722033	 0.105475
H	-0.3938098866	 1.9446220534	 0.7100377689	 0.10267
H	-2.4893036661	 0.9844742499	 0.996789194	 0.117741
H	-3.2102942786	-0.6245284317	 1.098723844	 0.117876
H	-1.8178311952	-0.2143559803	 2.1215070949	 0.121123
H	-2.9587290802	-0.1351176968	-1.4079834043	 0.097419
H	-1.3529062463	-0.2284836733	-2.1987331804	 0.109954
H	-2.7606370884	-2.8160833227	-1.6536447402	 0.090428
H	-0.557502953	-3.5674838011	-1.1937553684	 0.226296
H	-1.3669677453	-2.7867530222	 0.8708795174	 0.084652
