21
gdb 108136	3.43606	1.27161	1.19573	1.5733	81.62	-0.2212	0.0879	0.3091	1156.1482	0.183955	-387.067366	-387.059387	-387.058443	-387.099897	31.638	
C	-0.2651519607	 1.5032869479	 0.0390280485	-0.373111
C	 0.1187694206	 0.0187137933	-0.0335088351	-0.304198
C	 0.8268197857	-0.4611852845	 1.2037444162	 0.330535
C	 2.2348389984	-0.0480084905	 1.6487035655	-0.285938
C	 2.3421323405	-1.384357041	 2.4513919639	-0.073226
C	 1.8442597699	-1.1695106204	 3.8795347282	-0.077609
O	 0.5174856114	-0.6479941692	 3.7160610367	-0.270128
C	 0.0967007866	-1.0134058104	 2.4177900965	 0.069352
C	 1.0709207319	-1.8934636332	 1.7152829987	-0.196032
H	 0.6205704946	 2.1341777346	 0.1682115812	 0.119411
H	-0.7729614746	 1.8251222197	-0.8753511704	 0.10993
H	-0.9334175123	 1.6948601578	 0.8847312961	 0.122472
H	-0.7821708838	-0.5878988493	-0.1932854948	 0.094512
H	 0.758780059	-0.15264624	-0.9101039419	 0.094366
H	 2.9257423082	-0.0307641317	 0.8006909108	 0.096859
H	 2.3396733952	 0.8814712378	 2.2198130414	 0.095598
H	 3.2692857095	-1.9492408539	 2.3643132854	 0.073149
H	 1.8172958112	-2.1118480815	 4.4484815716	 0.089238
H	 2.4343200989	-0.4356763153	 4.4388298763	 0.104709
H	-0.972610846	-1.1759880775	 2.3429549115	 0.09573
H	 0.8812692158	-2.8643561429	 1.2755231838	 0.084379
