23
gdb 113709	2.35934	1.26654	1.0556	1.868	82.42	-0.2371	0.065	0.3021	1287.4733	0.202615	-425.401954	-425.391351	-425.390407	-425.436771	40.191	
C	 0.1265910975	 1.064545978	 0.3892263232	-0.248452
O	-0.2549844606	 0.0908072	-0.5719121492	-0.234919
C	-1.4056622556	-0.6022179878	-0.2142709109	 0.121619
C	-1.6517927034	-1.9135704839	-0.8864890472	-0.344215
C	-1.368840124	-1.8796396174	 0.6061626756	-0.080584
C	-0.126100948	-2.4913560163	 1.2551043171	 0.344828
C	-0.4924126406	-3.8697317727	 1.8310369709	-0.40484
C	 1.0854523545	-2.6208351132	 0.3281864752	-0.422782
O	 0.3193169488	-1.6429822849	 2.332728852	-0.450984
H	 0.9974970276	 1.5845516444	-0.0167808651	 0.12178
H	-0.6788318407	 1.7978013755	 0.5493044959	 0.099488
H	 0.3860830711	 0.5940128853	 1.3442135546	 0.133343
H	-2.2661333268	 0.0481475451	-0.0408835092	 0.079063
H	-2.649617751	-2.156369314	-1.2347873777	 0.109948
H	-0.8527206121	-2.2645566244	-1.5293010501	 0.127995
H	-2.2522363261	-2.0099983946	 1.2315872999	 0.070782
H	-0.8336934202	-4.5487663731	 1.0432756891	 0.1177
H	 0.375074275	-4.3140518473	 2.3272510326	 0.118385
H	-1.2992063392	-3.7821576894	 2.5685756308	 0.097796
H	 1.3162082269	-1.6727805762	-0.1573253861	 0.145012
H	 1.9479941019	-2.9367906971	 0.9213381898	 0.117437
H	 0.9066649181	-3.3751593406	-0.4427293443	 0.110958
H	-0.4295564132	-1.5081831952	 2.9237800631	 0.270642
