20
gdb 110577	2.97674	1.35538	1.092	2.9453	79.25	-0.2369	0.0746	0.3114	1165.6513	0.170856	-403.049399	-403.041071	-403.040127	-403.082204	32.473	
C	-0.0464212186	 1.5603107877	 0.1142657616	-0.529372
C	 0.0536253476	 0.0633686172	-0.0247636562	 0.298966
C	 0.6225168436	-0.7924853542	-1.1619356774	-0.024722
C	 2.1012651023	-0.8655855523	-1.4915178132	-0.087015
O	 2.3965449442	-2.0939990429	-2.1352984727	-0.42332
N	 0.1664527957	-1.8870550866	-0.1948687467	-0.188373
C	 0.5630475093	-0.9943121375	 1.016685678	-0.052281
C	-0.8111077488	-1.1897355916	 1.6618115771	-0.268385
C	-1.0666484892	-1.0178755361	 0.1636455727	-0.03213
H	 0.9452028787	 2.0257373919	 0.1056471407	 0.126048
H	-0.6249969327	 1.991986256	-0.7098453789	 0.125331
H	-0.5386183991	 1.8405945162	 1.0520688686	 0.12308
H	 0.0326052022	-0.8157613885	-2.0879664171	 0.07302
H	 2.3824951225	-0.0667317585	-2.1868919823	 0.105273
H	 2.709456814	-0.7347215631	-0.5815575109	 0.080882
H	 1.9497695977	-2.7783626642	-1.6212789364	 0.294082
H	 1.551412657	-1.0734811791	 1.4709913145	 0.085764
H	-1.0123914822	-2.1819061118	 2.0738179781	 0.110056
H	-1.1681734747	-0.3968060452	 2.3232606692	 0.100834
H	-1.9895002795	-1.1201428074	-0.4114177886	 0.082261
