15
gdb 34547	4.38735	1.29798	1.19202	1.5525	79.69	-0.2274	-0.0342	0.1933	1029.9628	0.112664	-383.410867	-383.404101	-383.403157	-383.441888	27.636	
C	 0.0706350659	-1.1545724128	 0.1121597719	-0.417132
C	-0.013502033	 0.0451774091	 0.034360564	 0.21226
C	-0.0651637774	 1.4521112854	-0.0826412088	 0.240846
C	-1.1649385956	 2.2390054959	-0.1043304296	-0.219848
C	-0.7105684267	 3.6655721194	-0.0010779417	 0.0422
O	-0.1608847709	 3.7968574662	 1.3856056226	-0.292665
C	 1.1228999145	 3.5543497413	 0.8665973453	 0.107008
C	 0.7420167319	 3.6977528277	-0.5628255223	-0.159894
C	 1.1506714387	 2.3177915883	-0.1051033509	-0.228359
H	 0.1293741783	-2.2119048175	 0.1884067959	 0.19291
H	-2.1885540143	 1.9085112207	 0.0033909506	 0.113176
H	-1.4146887989	 4.4680455976	-0.2098969227	 0.089131
H	 1.9784735224	 3.8457130849	 1.4630165519	 0.117347
H	 1.1438327998	 4.2544696439	-1.3991747186	 0.105059
H	 2.1252276553	 1.9211860298	-0.3591169974	 0.09796
