18
gdb 41094	3.03996	1.95534	1.78464	1.7003	73.77	-0.2069	0.0471	0.254	855.9568	0.14957	-401.820204	-401.813805	-401.81286	-401.850454	27.234	
C	-0.0067025914	 1.4497580573	-0.0539390877	-0.160952
C	 1.5406853515	 1.5098922226	 0.0140505253	-0.127596
C	 2.0877144803	 1.31779029	 1.4743198644	-0.308015
C	 1.6306350904	-0.1597951265	 1.3642786454	 0.367448
C	 0.1206769723	-0.4729937973	 1.4787398811	-0.240769
N	-0.0847627621	-0.057845968	 0.0264698026	-0.198596
C	 1.4413546988	-0.0418857365	-0.1192949716	 0.241365
C	 2.4186721665	-1.2215894065	-0.2075236223	-0.20594
O	 2.5895696137	-1.2343327776	 1.2549016894	-0.34073
H	-0.5703167389	 1.9714968559	 0.7271302717	 0.101013
H	-0.3756541315	 1.7669789408	-1.0335530448	 0.114921
H	 2.0480619242	 2.1991875626	-0.661547024	 0.075426
H	 3.1786417365	 1.3746766416	 1.508609944	 0.120167
H	 1.6665192901	 1.9451522819	 2.2656391386	 0.098937
H	-0.0676572232	-1.5435597155	 1.591066119	 0.120509
H	-0.4866821564	 0.0804741692	 2.2027407587	 0.102214
H	 1.9830835158	-2.1574451198	-0.5751106726	 0.123234
H	 3.3669529437	-1.0311880842	-0.7218024672	 0.117364
