17
gdb 87312	2.73413	1.23876	0.99438	1.5147	81.39	-0.2297	0.0256	0.2553	1207.687	0.132159	-384.600329	-384.590829	-384.589885	-384.63423	35.985	
O	-0.8296934989	 1.16260642	 0.6467467591	-0.423689
C	-0.4425976693	-0.142137802	 0.3793672741	 0.119796
C	-0.9478740913	-1.3316522404	 1.1341509015	-0.369915
C	-1.3636818216	-1.1428574189	-0.3313794652	 0.041939
C	-2.8109424859	-0.740184379	-0.6740652514	-0.404453
C	-3.5436295768	-0.0424748104	 0.3775766618	 0.267877
C	-4.1516662838	 0.5213771043	 1.2503228766	-0.440278
C	-0.7699811542	-1.9993148865	-1.3180380247	 0.259089
C	-0.2805938458	-2.7092297604	-2.1579726765	-0.427344
H	-1.7193821673	 1.1587080002	 1.0223294961	 0.291912
H	 0.5925001976	-0.1604817054	 0.056511537	 0.12058
H	-0.2648635799	-2.1410765538	 1.3644464103	 0.127597
H	-1.7261544921	-1.1641480852	 1.871599244	 0.130365
H	-2.7933652978	-0.1178719904	-1.5770666039	 0.154505
H	-3.3650429925	-1.6488752429	-0.9377089489	 0.152607
H	-4.7109618858	 1.0139478579	 2.0075727051	 0.207859
H	 0.1591259553	-3.335452877	-2.8939243751	 0.191552
