18
gdb 15729	3.32822	1.67394	1.28284	3.943	63.67	-0.2428	0.0594	0.3023	973.3455	0.154336	-422.071424	-422.063251	-422.062307	-422.104314	30.194	
O	-0.101705214	 1.451395025	 0.0181243638	-0.430365
C	 0.0265909328	 0.0411085005	-0.0098785273	-0.06707
C	-1.341251631	-0.616005429	 0.1483079386	 0.115566
O	-2.1969973672	-0.128757893	-0.9041273937	-0.295999
C	-2.7667413607	-1.2258152868	-1.6143356871	-0.061393
C	-2.7243952434	-2.3968559379	-0.6307790227	-0.249921
C	-1.3778245285	-2.1518279504	 0.0696089253	 0.071971
O	-0.2821629392	-2.5958360896	-0.7230109383	-0.43217
H	-0.7717863916	 1.6635091105	-0.6427013759	 0.28858
H	 0.4932165697	-0.3084024902	-0.9390352291	 0.105308
H	 0.6793674868	-0.2395736753	 0.82326212	 0.102682
H	-1.7762699221	-0.2881034098	 1.1026419375	 0.081026
H	-3.7781376071	-0.947189495	-1.9245244129	 0.106414
H	-2.1747122496	-1.4539895377	-2.5118513032	 0.101984
H	-3.5438590295	-2.3230570299	 0.0922293475	 0.110229
H	-2.7750219996	-3.3778990857	-1.1120359319	 0.094954
H	-1.3344607446	-2.5970667715	 1.0721687295	 0.071692
H	-0.3305305814	-3.5545987941	-0.7863435599	 0.286512
