22
gdb 76630	2.78559	1.07447	0.98402	2.4781	84.16	-0.2208	0.0861	0.3068	1362.0361	0.192198	-404.3071	-404.297197	-404.296253	-404.341593	37.584	
C	-0.1176389172	 1.5420965195	 0.5284045583	-0.421717
C	-0.0691338191	 0.0599001207	 0.2307531385	 0.003418
C	 0.3243690111	-0.4566279749	-1.1131749965	-0.105051
N	 1.1901173255	-0.6801713483	 0.0438379681	-0.125539
C	 2.4738761995	 0.0014413859	 0.1139124324	-0.316642
C	-0.265004575	-1.705548529	-1.7030694551	 0.442769
O	-0.49221916	-2.6995965574	-0.7478944412	-0.474686
C	-1.2604369685	-1.6310637828	-2.8163612	-0.312128
C	 0.1452800252	-2.1357576971	-3.0946410716	-0.328584
H	 0.5463490449	 2.125698066	-0.1139584893	 0.119367
H	-1.1358538414	 1.913545458	 0.3730337567	 0.128669
H	 0.1512215109	 1.7462757339	 1.5708813975	 0.123924
H	-0.8022411823	-0.527355711	 0.7806878002	 0.100102
H	 0.6477445991	 0.292253026	-1.8375050427	 0.07494
H	 2.4846841286	 1.0032650784	-0.3394111614	 0.104132
H	 2.779943464	 0.096095963	 1.1609406925	 0.124244
H	 3.2226131299	-0.6076731767	-0.4022576444	 0.127691
H	 0.2743134334	-2.64575786	-0.1552632903	 0.283213
H	-2.0589003433	-2.3640742567	-2.7964999436	 0.123767
H	-1.5485853021	-0.6560128685	-3.1957655236	 0.107619
H	 0.8177741175	-1.5052726026	-3.6678510443	 0.102885
H	 0.2668573391	-3.2010628565	-3.2527967601	 0.117606
