17
gdb 56353	5.01055	0.84524	0.74851	4.9511	77.77	-0.2563	-0.0357	0.2205	1457.6572	0.136756	-414.163542	-414.154548	-414.153604	-414.197735	32.696	
N	 0.243123412	 0.8831808138	 1.2408282195	-0.569312
C	 0.1951639021	-0.0733576953	 0.2521784624	 0.255827
N	 1.1090273671	-0.6303252258	-0.4423146593	-0.287286
C	 2.52707438	-0.3444095043	-0.2954817526	-0.177228
C	 3.0647324836	-0.1238123469	 1.1046834919	-0.008863
C	 4.3767282465	 0.5170687039	 1.337897864	-0.251522
N	 3.135824054	 1.2393564169	 1.6871788604	-0.328592
C	-1.1714587272	-0.4666350742	-0.0746279092	 0.279585
N	-2.264362951	-0.7634797724	-0.3050843127	-0.321309
H	 1.1099667332	 1.0554440161	 1.7345131778	 0.295909
H	-0.6018326525	 1.0403820461	 1.7662244199	 0.270945
H	 3.0595156628	-1.1920236141	-0.74343218	 0.12691
H	 2.7812917292	 0.5309444791	-0.9161837103	 0.108924
H	 2.7429432709	-0.869446384	 1.8293727781	 0.113818
H	 4.988728468	 0.2130120837	 2.1813610689	 0.131665
H	 4.935848954	 0.8689437966	 0.4746019699	 0.123471
H	 2.9486770174	 1.9215107607	 0.9530472312	 0.237059
