27
gdb 60339	2.83299	0.80903	0.75169	0.9513	93.27	-0.2447	0.0786	0.3233	1751.3499	0.247708	-390.707904	-390.695675	-390.694731	-390.746121	44.992	
C	 0.1172372663	 1.5076906507	-0.0220170476	-0.393469
C	 0.0123135905	-0.020831731	 0.0384866136	 0.031964
C	 0.7250104296	-0.587823244	 1.2718790093	-0.379466
C	-1.4558037882	-0.4532847587	-0.0046501138	-0.055814
O	-1.5003023657	-1.8633449232	-0.0923780241	-0.291772
C	-2.7787836694	-2.5167873405	-0.0898714105	 0.374743
C	-3.6381422659	-2.0611401644	-1.2805286142	-0.413351
C	-2.4207866424	-3.9995200661	-0.2368899892	-0.396722
C	-3.5179140897	-2.2825722633	 1.2380013622	-0.413058
H	 1.1641250371	 1.8269928661	-0.02658067	 0.112996
H	-0.3595531096	 1.9111550329	-0.9218852898	 0.109348
H	-0.3638255125	 1.9712212678	 0.8478452765	 0.111303
H	 0.4896221092	-0.4397423848	-0.8575191014	 0.079258
H	 0.2983243777	-0.1711455513	 2.1929788061	 0.103564
H	 0.6203663239	-1.6741613581	 1.3124438838	 0.127494
H	 1.7917068931	-0.3410085962	 1.2597084022	 0.104548
H	-1.9693698479	-0.0902106596	 0.9003812661	 0.079414
H	-1.9495325122	 0.0133390728	-0.8708168946	 0.079978
H	-3.0803049569	-2.1709358309	-2.2154719621	 0.117918
H	-4.5448320194	-2.6702717559	-1.3482362928	 0.112588
H	-3.9511699667	-1.0173284807	-1.1853288951	 0.113689
H	-1.7865718703	-4.3191688055	 0.5948046242	 0.116971
H	-3.3212761927	-4.6205322558	-0.2482146385	 0.106785
H	-1.8699788163	-4.1644507675	-1.1671377647	 0.116844
H	-3.8264115065	-1.240084074	 1.3586562106	 0.113329
H	-4.4219070506	-2.898010607	 1.2824007763	 0.112334
H	-2.8762982743	-2.5525590618	 2.0820945177	 0.118582
