16
gdb 45694	3.71267	1.36519	1.04737	3.323	69.44	-0.2375	-0.0281	0.2094	1083.8579	0.12577	-437.897889	-437.890655	-437.889711	-437.930022	27.562	
O	-0.0528854804	-0.0490882283	 0.3365457446	-0.298458
C	-0.0025890466	 1.1181385406	 0.0383344562	 0.36889
C	-1.3049873159	 1.8990833751	-0.2656429924	-0.267426
N	-1.205336773	 3.350928547	-0.4460227147	-0.307165
C	-0.0833899118	 3.6926314349	-0.8884049051	 0.455083
O	 0.4544396247	 4.943385187	-1.0322847064	-0.266227
C	 1.8045542991	 4.3619308054	-1.0944163441	-0.120378
C	 1.1948488352	 2.9393166865	-1.137887531	-0.171134
C	 1.3314095931	 1.8805404012	-0.0475461358	-0.338648
H	-1.7550330938	 1.4261687875	-1.1498789734	 0.144015
H	-1.9952850323	 1.6906853601	 0.5582185586	 0.148406
H	 2.3382327051	 4.6992830935	-1.9844780189	 0.130633
H	 2.3647646013	 4.6082647862	-0.1885045995	 0.130205
H	 1.2517237644	 2.4972458388	-2.1364573229	 0.120378
H	 1.488763156	 2.3656693295	 0.9255623877	 0.138262
H	 2.1380464849	 1.1605750852	-0.1979204829	 0.133565
