18
gdb 62296	3.39512	1.51216	1.20871	1.7014	82.73	-0.2309	0.0338	0.2647	1052.184	0.146362	-364.679143	-364.671285	-364.67034	-364.71102	31.456	
C	-0.1408404473	 1.567477598	 0.0325388731	-0.468341
C	-0.0516963868	 0.0468473462	-0.0460548308	 0.149046
C	-1.3651261259	-0.5610022329	 0.1151307147	 0.286194
C	-2.4603585381	-1.043795041	 0.2339193778	-0.437183
C	 0.8860684138	-0.6118041836	-1.0756762543	-0.101371
C	 2.1191483184	-0.2566101683	-0.1953101798	-0.018272
C	 2.6434259253	-1.6932152473	-0.1546417983	-0.271334
C	 1.1195203779	-1.7987033579	-0.096024767	 0.002312
N	 1.0300687728	-0.5817304435	 0.8711695619	-0.188287
H	 0.8357450565	 2.0354479717	-0.1131831081	 0.118847
H	-0.8229593076	 1.9476873849	-0.7336098299	 0.128701
H	-0.5271764726	 1.8692128761	 1.0102543537	 0.138532
H	-3.424538232	-1.4751056583	 0.3445193285	 0.192964
H	 0.8101299961	-0.6364270997	-2.1680682915	 0.068623
H	 2.6762651846	 0.6791504921	-0.1572850879	 0.087213
H	 3.1321610095	-2.0672278764	-1.0576075377	 0.101439
H	 3.182765861	-1.9833203035	 0.7507974792	 0.111972
H	 0.4774831541	-2.6651792366	 0.0561319264	 0.098946
