21
gdb 73269	2.41427	1.66036	1.46532	1.0863	77.28	-0.2364	0.0869	0.3234	1036.323	0.18379	-424.21779	-424.209505	-424.208561	-424.250402	32.42	
C	 0.1355161616	 1.5986821922	-0.2067829741	-0.481977
C	-0.0637328165	 0.1063505925	 0.017075418	 0.297325
C	-1.4365184058	-0.3408942517	 0.6168611708	-0.267336
C	-0.7033478463	-1.1835072211	 1.6988347913	-0.258824
C	 0.6403996529	-0.5358032378	 1.2587342845	 0.113949
O	 1.7621111903	-1.3436967523	 0.9636597966	-0.272147
C	 1.5499151751	-2.3395076987	-0.0176468516	 0.006935
O	 0.4588153989	-2.0847201349	-0.8626196928	-0.250067
C	 0.3539361727	-0.70781707	-1.2091933593	-0.129783
H	 1.1836528745	 1.8304893595	-0.4289123715	 0.119758
H	-0.4716974755	 1.9620636284	-1.0449937515	 0.115584
H	-0.1527330221	 2.1717816397	 0.680758521	 0.11451
H	-2.0016996639	 0.4985730054	 1.029952501	 0.096788
H	-2.0899766624	-0.8987668696	-0.0581328648	 0.103753
H	-0.9930646187	-1.0096942777	 2.7377552542	 0.095225
H	-0.7437212404	-2.2546386205	 1.4988667125	 0.116648
H	 1.0083184825	 0.2050896565	 1.9730373113	 0.07992
H	 2.4908934639	-2.3934614248	-0.5890651414	 0.096039
H	 1.3456476144	-3.3154251419	 0.4443309359	 0.10208
H	-0.3922059008	-0.6459644342	-2.0078870318	 0.108806
H	 1.3136744856	-0.3393149692	-1.6058269483	 0.092815
