24
gdb 88434	2.4928	1.1947	1.10787	1.1852	90.69	-0.2097	0.0901	0.2998	1307.7783	0.215389	-368.373439	-368.36314	-368.362196	-368.408348	39.211	
C	-1.2706638146	 0.1767491772	 0.1457896829	-0.417347
C	-0.1961125424	-0.8699221969	 0.3455249633	 0.028309
C	 1.1690904816	-0.7156201852	-0.2417368844	-0.261628
N	 0.9761645474	-0.6801982347	 1.1983101268	-0.127948
C	 1.2125458828	 0.5012745478	 2.003439602	 0.367796
C	 1.5994536549	 1.8045218782	 1.3260816048	-0.474406
C	 0.3942723169	 0.5640300957	 3.2734142495	-0.32906
C	 1.8667235593	 0.2293507302	 3.3527605354	-0.028319
C	 2.324566518	-1.1509816352	 3.7608924422	-0.403577
H	-0.8612474754	 1.1593915818	-0.097486236	 0.121394
H	-1.9293077464	-0.1223910415	-0.6769213957	 0.118892
H	-1.8901438587	 0.2823204035	 1.0427387123	 0.125878
H	-0.5955069982	-1.8820027616	 0.4192282144	 0.083873
H	 1.7203933292	-1.5695990289	-0.6308012419	 0.10797
H	 1.3641326795	 0.2163903725	-0.7694451275	 0.106394
H	 0.8182935928	 2.1913549667	 0.663935792	 0.115824
H	 1.7942458736	 2.5721139829	 2.0805291987	 0.1152
H	 2.5143856993	 1.6864104709	 0.7346556299	 0.120659
H	 0.0462458861	 1.5315862697	 3.6203879234	 0.103004
H	-0.3023763216	-0.2507321475	 3.4425937931	 0.109817
H	 2.5046021042	 1.0356798607	 3.7078066612	 0.074426
H	 1.707992491	-1.9169277284	 3.2862941561	 0.129005
H	 3.3628361951	-1.3278845089	 3.4577177043	 0.108166
H	 2.2688161055	-1.2775183492	 4.8480240733	 0.105679
