10
gdb 1028	8.66141	2.09492	1.68691	1.8419	51.99	-0.2678	-0.0741	0.1937	658.7293	0.0681	-359.350089	-359.344702	-359.343758	-359.379518	18.595	
O	-0.0189481185	-0.0708533316	-0.0006471708	-0.266798
C	-0.012747086	 1.1376845457	 0.008870064	 0.06889
C	 1.1794587179	 1.9727976087	 0.0023392168	 0.242528
C	 1.3630638959	 3.3265168737	 0.0108768312	-0.14533
N	 2.7122380391	 3.6113841701	-0.0015017458	-0.254138
C	 3.272954257	 2.4388812668	-0.0168698581	 0.096206
O	 2.4256324266	 1.3985921406	-0.0157455189	-0.149207
H	-0.9493110433	 1.7352828019	 0.023550798	 0.089729
H	 0.615720893	 4.1049434487	 0.0250959632	 0.149224
H	 4.3272259782	 2.2086224154	-0.0301376197	 0.168896
