20
gdb 7344	4.23199	0.99484	0.84895	2.9139	72.07	-0.26	-0.0233	0.2367	1396.8221	0.174189	-386.171549	-386.161665	-386.160721	-386.206972	34.947	
C	-0.0734915134	 1.5241721271	 0.0524041038	-0.387452
C	 0.1103492878	 0.0106420208	-0.0784726986	-0.162936
C	 0.514358887	-0.6479607889	 1.2427954893	-0.287499
C	 0.6495470171	-2.1550871287	 1.162465696	 0.353306
O	 0.2234448761	-2.8000287963	 0.2256516581	-0.328643
C	 1.3620243664	-2.8952245236	 2.3011870355	 0.065301
C	 0.7235494155	-2.6221398419	 3.6701206075	-0.402494
O	 1.3727421046	-4.2718041172	 2.0368012825	-0.438892
H	 0.8496928923	 2.0130938544	 0.3834716182	 0.114396
H	-0.3597982206	 1.9698636924	-0.9048382702	 0.118855
H	-0.855381155	 1.7691678195	 0.7801124205	 0.114938
H	-0.8122189847	-0.45570944	-0.4375702193	 0.120555
H	 0.8705287133	-0.2116148596	-0.8359172184	 0.10978
H	 1.453609846	-0.2287317044	 1.6280575527	 0.119394
H	-0.2332015163	-0.4309715146	 2.020222629	 0.134147
H	 2.3966176309	-2.5054747331	 2.3188418338	 0.086795
H	-0.3324186197	-2.9092325073	 3.6650432813	 0.126834
H	 1.2352357389	-3.2245774028	 4.4245241161	 0.137556
H	 0.8069948733	-1.5692554763	 3.9546823242	 0.114602
H	 0.9440489604	-4.3652969294	 1.170050708	 0.291459
