19
gdb 61842	4.02055	0.81685	0.75575	2.4875	72.61	-0.236	-0.0296	0.2064	1502.2043	0.156755	-460.145084	-460.135475	-460.134531	-460.180453	35.071	
O	-0.5181391112	 1.2473878729	 0.1253699818	-0.430773
C	-0.0773256916	-0.1168500282	 0.0471042123	 0.077329
C	 0.7736790574	-0.3229409946	-1.2147974131	-0.305017
C	 0.0449990953	 0.1454200812	-2.4572797046	 0.165009
O	 0.4802230094	 0.946439207	-3.2421745921	-0.236761
C	 0.6352936846	-0.5788870056	 1.3085987307	-0.069982
C	 1.4928058085	 0.3750717118	 2.1298565141	-0.348664
C	 0.1750793809	-0.125414469	 2.6717725242	 0.14057
O	-0.9218777651	 0.7126350369	 2.8440155479	-0.434321
H	 0.2444031937	 1.8211971203	-0.0140030523	 0.296723
H	-1.0097728845	-0.6866820757	-0.0564927308	 0.109012
H	 1.7273660106	 0.2104798067	-1.1366485239	 0.122066
H	 0.9927246095	-1.3936891557	-1.324853772	 0.12838
H	-0.9585001929	-0.3171827786	-2.6023529503	 0.079078
H	 0.9907465662	-1.60389544	 1.2346075229	 0.090212
H	 2.4246596657	 0.0103025443	 2.5480939935	 0.116469
H	 1.5208708174	 1.4187186104	 1.8307713847	 0.10109
H	 0.2147802041	-0.8551251324	 3.4747134446	 0.105881
H	-1.0407121681	 1.204371178	 2.0183976024	 0.293701
