19
gdb 62390	3.0106	1.51898	1.28856	3.662	78.91	-0.2475	0.033	0.2806	1037.5874	0.161826	-382.06263	-382.054811	-382.053867	-382.094576	31.07	
C	-0.1812981589	 1.6152276227	-0.0235316297	-0.479794
C	 0.0079607847	 0.095801154	 0.0078176477	 0.171122
C	-1.2686351937	-0.5564315631	-0.2830310045	 0.230183
N	-2.2896251106	-1.0485053411	-0.5154244978	-0.349111
C	 1.184373749	-0.6289955021	-0.7554716663	-0.037284
C	 2.4396733682	 0.100266857	-0.2488401736	-0.21552
C	 2.0976013	 0.089076566	 1.2776831863	-0.215519
C	 0.7484127575	-0.6432272522	 1.1899718909	-0.037288
N	 1.1213836528	-1.7568176268	 0.2437848644	-0.333002
H	 0.7496131534	 2.1418802842	 0.189237284	 0.1306
H	-0.5385418563	 1.9364249673	-1.0066164899	 0.139953
H	-0.925363221	 1.9238320206	 0.7169901449	 0.139956
H	 1.1096310708	-0.8736074606	-1.8146344288	 0.087068
H	 3.3342862336	-0.4795008124	-0.4804111957	 0.119593
H	 2.5561454217	 1.1021289323	-0.667400022	 0.103647
H	 2.8096494026	-0.4966925541	 1.8607360698	 0.119594
H	 2.0212301329	 1.0846245875	 1.7198785046	 0.103646
H	 0.2295969192	-0.9023377725	 2.1124349371	 0.087069
H	 0.2819992839	-2.3045396168	 0.0516777287	 0.235089
