21
gdb 64212	2.93565	1.29546	1.14226	1.6751	78.22	-0.2462	0.0704	0.3167	1181.1177	0.181124	-424.189023	-424.179834	-424.178889	-424.222743	34.672	
C	-0.1999587334	 1.5868580869	 0.0777139004	-0.468777
C	-0.0418931045	 0.069751862	 0.0637299711	 0.269589
C	-1.256879739	-0.6146879657	-0.5636998536	-0.442015
C	 1.2995339691	-0.4849216111	-0.4777421146	-0.106376
O	 1.4947458479	-1.2927769475	 0.7043055661	-0.290986
C	 0.4057229322	-0.6420625139	 1.3851867287	 0.064665
C	 0.8808295715	 0.2100733893	 2.5362421848	 0.046304
C	 2.176704532	-0.0422675652	 3.1794412065	-0.174769
O	 1.9972118873	 1.0659113328	 2.2913160075	-0.235406
H	 0.6635043607	 2.0805152332	 0.5276265848	 0.150606
H	-0.3157427781	 1.9631991644	-0.945264194	 0.112164
H	-1.0956476535	 1.8857407979	 0.634558345	 0.110919
H	-1.4091844191	-0.2717673049	-1.5932246088	 0.114547
H	-1.1317859935	-1.7021405766	-0.5848243883	 0.123686
H	-2.1690178983	-0.3895968579	 0.0007333008	 0.113028
H	 1.2462099826	-1.0971511649	-1.3856538506	 0.095746
H	 2.0917783144	 0.2654328717	-0.583359169	 0.107216
H	-0.3204000661	-1.3715612852	 1.7738198367	 0.071462
H	 0.0845022306	 0.6640293138	 3.1298913392	 0.092008
H	 2.3178201657	 0.2187332936	 4.2270139693	 0.111593
H	 2.8018452317	-0.8408470128	 2.789372918	 0.134796
