15
gdb 63258	2.69755	1.46877	1.20144	5.2476	62.9	-0.2808	-0.0705	0.2103	1055.8002	0.110507	-494.984052	-494.975764	-494.97482	-495.017031	30.484	
C	 0.0293607555	 1.5238167132	 0.0105789249	-0.406516
C	-0.0113004349	 0.0057612792	 0.0025956128	 0.421353
C	-1.4092639294	-0.587448723	 0.0066352782	-0.406521
O	 0.6996836537	-0.4765996437	-1.1538832342	-0.240758
C	 1.7738273421	-1.2091215649	-0.7802013991	 0.304603
O	 2.5421415587	-1.7316463538	-1.5235094736	-0.301001
C	 1.7817381194	-1.2173679248	 0.7538499391	 0.304615
O	 2.5576977835	-1.7477558015	 1.4835248595	-0.301007
O	 0.711592764	-0.4889109397	 1.1464460795	-0.240764
H	 1.0650404563	 1.8712723206	 0.0064381161	 0.142261
H	-0.4794018829	 1.9130131302	-0.8743321264	 0.145354
H	-0.4690199501	 1.9032649211	 0.9055758824	 0.145377
H	-1.9556744453	-0.2548181439	-0.8789003903	 0.145371
H	-1.3537366658	-1.678438092	 0.0007510726	 0.14227
H	-1.9466862649	-0.2639669369	 0.9010181385	 0.145363
