15
gdb 24462	3.67706	1.61882	1.15967	1.7763	66.41	-0.2013	0.0271	0.2283	987.3713	0.115614	-457.782005	-457.775486	-457.774542	-457.812955	25.623	
C	 0.0166750137	 1.3687034239	 0.0212023318	 0.002326
O	 1.2832147997	 1.9359893507	-0.0282418982	-0.233842
C	 2.0737674606	 1.6734558589	 1.1438614594	-0.197185
C	 1.9005379198	 0.2338062211	 1.5176395313	 0.073789
C	 0.9428445791	-0.4905639739	 0.8849341792	 0.403445
O	 0.924360146	-1.776491105	 1.2665998921	-0.18915
C	 1.9313093924	-1.8959285052	 2.2025585592	-0.020722
C	 2.5502218973	-0.7033946727	 2.3939712717	-0.309614
O	 0.0479192122	-0.0737565665	-0.0191001544	-0.258221
H	-0.5207695421	 1.6590807079	 0.937474982	 0.10306
H	-0.5226917458	 1.6791328246	-0.8730242816	 0.134187
H	 3.1015519443	 1.9149270025	 0.8556706663	 0.130806
H	 1.7841038599	 2.3618309189	 1.9536246444	 0.108453
H	 2.0614950215	-2.8824642647	 2.6113575353	 0.138723
H	 3.3721102514	-0.5161503504	 3.0678743716	 0.113947
