19
gdb 49231	3.27363	1.34247	1.12231	3.5225	83.36	-0.2472	-0.0529	0.1943	1122.2007	0.161554	-385.908348	-385.901043	-385.900099	-385.940072	29.316	
O	-0.1006369565	-0.0099234019	 0.0163501349	-0.278459
C	-0.0066829758	 1.1977247578	 0.0313116458	 0.062389
C	 1.2589744053	 1.9416193797	 0.0011162354	 0.256432
C	 1.2653322433	 3.284882567	 0.0208098866	-0.141296
C	 2.5811412667	 4.0171302538	-0.0112867929	-0.260617
C	 3.7487431935	 3.0143868862	-0.0642447908	-0.019364
C	 3.4668753127	 1.9231235736	-1.1391737379	-0.220656
C	 2.5908044707	 1.2260254595	-0.0529296467	-0.121256
C	 3.536482482	 1.8915475037	 0.9940318209	-0.220656
H	-0.9131318137	 1.8441693752	 0.0704694866	 0.064805
H	 0.3380880282	 3.8526153512	 0.0594579478	 0.101318
H	 2.6090525409	 4.6930908736	-0.8781688057	 0.116939
H	 2.6661750386	 4.6671891463	 0.8715357741	 0.116939
H	 4.7116371611	 3.5295475574	-0.0880423618	 0.064175
H	 2.9793147599	 2.2223763037	-2.071005666	 0.094172
H	 4.3666113584	 1.3446101119	-1.3631963841	 0.101078
H	 2.469630696	 0.1439097256	-0.0649947142	 0.088808
H	 4.4483428075	 1.3075260081	 1.1417413877	 0.101078
H	 3.1109819312	 2.1626577376	 1.9640981003	 0.094171
