16
gdb 96745	3.25288	0.8733	0.69436	1.0267	83.02	-0.2571	-0.0285	0.2286	1565.3152	0.119821	-400.67104	-400.660972	-400.660028	-400.706718	35.189	
C	-0.0200826137	 1.4571187968	 0.1254171631	-0.332957
N	 0.0192576839	 0.0115408112	 0.0656981375	-0.315392
C	 0.5253451818	-0.5865585964	-0.930917709	 0.287978
O	 0.5703908457	-1.9376019684	-1.0041015106	-0.246605
C	 0.0072792121	-2.6303757735	 0.1217256118	-0.237317
C	 0.1308065284	-4.0605687449	-0.106281575	 0.299355
C	 0.2147573555	-5.2483947967	-0.2586460479	-0.414669
C	 1.1115796613	 0.0083622172	-2.102158889	 0.283976
C	 1.5942145269	 0.5391390087	-3.066811976	-0.417498
H	 0.5093149416	 1.7923186614	 1.0246671602	 0.131494
H	 0.4167739697	 1.958700822	-0.7471480834	 0.12021
H	-1.0612492965	 1.7823325514	 0.2325975192	 0.1315
H	 0.5284550821	-2.3255714462	 1.0365422672	 0.148499
H	-1.0409700934	-2.3350527611	 0.2457307302	 0.148502
H	 0.2912005503	-6.2984344288	-0.3977893307	 0.202462
H	 2.0234394443	 0.9976530772	-3.9239905176	 0.210462
