17
gdb 33286	6.20879	0.7111	0.71108	1.1758	100.02	-0.2396	-0.0153	0.2242	1608.7174	0.135569	-347.454535	-347.446446	-347.445502	-347.487475	31.399	
C	 0.0546369249	-3.7278635542	-0.0188790959	-0.617658
C	 0.0372345146	-2.5198669886	-0.012155409	 0.19005
C	 0.0173138739	-1.1609628452	-0.0043267042	 0.339113
C	-0.0003971518	 0.051100403	 0.002615453	-0.141044
C	-0.0206899943	 1.4812746529	 0.0106643108	 0.188226
C	-0.6434020891	 2.4230759428	 1.0995062149	-0.243661
C	-0.0472521674	 3.3713616823	 0.0212694984	-0.099062
C	 1.2085589045	 2.4552817206	 0.001549558	-0.243769
C	-0.6685992529	 2.4347999	-1.0530019537	-0.243665
H	 0.0699625861	-4.7892329737	-0.0248000682	 0.186504
H	-1.7320550465	 2.3951087253	 1.1896554559	 0.100696
H	-0.154794949	 2.4123590643	 2.0768032712	 0.100627
H	-0.0626193045	 4.4601398782	 0.0273707988	 0.080944
H	 1.8319249031	 2.4467353371	 0.8989880282	 0.100681
H	 1.8106060012	 2.4566058478	-0.9103336456	 0.100692
H	-0.2030176756	 2.4347834752	-2.0415259475	 0.100627
H	-1.7590505075	 2.4076633322	-1.1179400251	 0.1007
