19
gdb 109399	3.12099	1.11025	0.86013	0.7539	74.	-0.2463	0.0071	0.2534	1327.1988	0.15993	-460.144139	-460.135464	-460.13452	-460.178211	32.135	
O	 0.0928954189	 1.3334491576	 0.4930607392	-0.403843
C	-0.0102901186	-0.048961297	 0.2311392164	-0.135484
C	-1.4102707006	-0.5506558418	-0.0753847984	 0.213814
C	-2.460447662	 0.269069607	-0.0295729513	-0.153453
C	-3.9140654008	-0.0557295334	-0.2646721548	-0.147735
O	-4.2044530151	-1.0107600292	-1.2701074005	-0.219795
C	-3.7292263384	-2.3020163097	-1.0323356362	 0.018131
O	-2.3752339663	-2.4726589021	-1.3455870258	-0.219362
C	-1.4640557756	-2.0396207518	-0.3552621344	-0.1803
H	-0.1375725304	 1.7996612216	-0.3177409835	 0.286598
H	 0.6596433882	-0.351043167	-0.5925440518	 0.101737
H	 0.3729354154	-0.5519014248	 1.1298863811	 0.124865
H	-2.2728203084	 1.2970322472	 0.2733387353	 0.092958
H	-4.371091751	-0.3734107119	 0.6913645735	 0.102969
H	-4.4412544879	 0.8517340149	-0.574499524	 0.118558
H	-3.917510801	-2.5959316177	 0.0181955858	 0.069306
H	-4.2803811341	-2.9577938582	-1.7105157048	 0.114774
H	-0.4821636467	-2.3850186375	-0.6977198497	 0.111612
H	-1.6687464153	-2.5663933263	 0.595095684	 0.10465
