16
gdb 35587	4.723	0.89749	0.78079	3.7553	85.45	-0.244	-0.0344	0.2096	1390.5098	0.124509	-363.615049	-363.606754	-363.605809	-363.648274	30.893	
C	 0.0907849834	-1.1698041581	-0.0250105749	-0.394417
C	-0.0035866595	 0.0308216469	 0.0115444522	 0.187677
C	-0.0499075026	 1.4437328416	 0.0614154207	 0.197745
C	-1.1459901121	 2.2171617379	 0.0466145517	-0.175616
C	-0.8191014989	 3.6851870051	 0.058023058	-0.264082
C	 0.6867686759	 3.693675047	 0.4649493331	-0.149912
C	 1.2200639908	 2.2814817458	 0.0843972532	-0.326965
C	 1.4501489853	 4.7900852583	-0.1209919531	 0.263444
N	 2.0521022132	 5.6571151265	-0.5922918826	-0.324228
H	 0.1563049036	-2.2291536588	-0.0603724569	 0.198189
H	-2.1605968851	 1.8428833912	-0.0111140502	 0.112653
H	-0.9675165414	 4.1309994532	-0.9345348295	 0.138959
H	-1.43078969	 4.2651876015	 0.7558665683	 0.127926
H	 0.7418139434	 3.7955024874	 1.5539693977	 0.135199
H	 1.9605810155	 1.9154887212	 0.7999501693	 0.132623
H	 1.6983939685	 2.2820486333	-0.901956997	 0.140806
