25
gdb 99766	1.71515	1.28981	1.02232	0.3634	85.39	-0.252	0.067	0.3189	1398.6319	0.22588	-426.628648	-426.61688	-426.615936	-426.665465	43.391	
C	-0.1609518042	 1.6348511389	-0.2938765777	-0.398153
C	-0.1635510823	 0.1021837228	-0.3198964082	-0.178776
C	-1.5056016596	-0.5657678546	 0.0551676414	 0.022797
C	-2.6396395498	-0.2033785074	-0.9290053764	 0.130172
C	-2.5412375066	-0.798423474	-2.3356282874	-0.399051
O	-3.8713411194	-0.5718578201	-0.2986337352	-0.444412
C	-1.2686022087	-2.0676290393	 0.3300745578	 0.122919
C	-2.4696289184	-2.8622425882	 0.8447417757	-0.403985
O	-0.7339512686	-2.6558023032	-0.8602140827	-0.435488
H	 0.8533372225	 2.0188043549	-0.4436085159	 0.110101
H	-0.7883208731	 2.0697325651	-1.0778454047	 0.11807
H	-0.5210455493	 2.0175145876	 0.6681277558	 0.112511
H	 0.1639766949	-0.2588142733	-1.3000765943	 0.115163
H	 0.5915798221	-0.2566316514	 0.3904483785	 0.09118
H	-1.8274358332	-0.1432049312	 1.0175220189	 0.077768
H	-2.621630667	 0.8928728203	-1.0292958993	 0.063032
H	-2.5470808122	-1.8879341554	-2.3088122426	 0.136509
H	-3.383440473	-0.4459581106	-2.9447376449	 0.088621
H	-1.6220015025	-0.4807209263	-2.8366611881	 0.118602
H	-4.5840504883	-0.365386015	-0.9114543162	 0.276406
H	-0.4936437165	-2.0976223728	 1.11646744	 0.058677
H	-3.2702166065	-2.9023100783	 0.1067548469	 0.133895
H	-2.1553250299	-3.8846327108	 1.0918364529	 0.08668
H	-2.8761754384	-2.4102275683	 1.7542440651	 0.117595
H	-0.5954250024	-3.5919172997	-0.6862375596	 0.279167
