18
gdb 10870	2.98614	1.96106	1.57303	3.1064	72.53	-0.2326	0.015	0.2476	900.5926	0.15308	-347.781039	-347.773087	-347.772142	-347.812951	30.075	
C	-0.1452446853	 1.5596383493	-0.0105299161	-0.443581
C	 0.0307470263	 0.0467912663	 0.0094150578	 0.009444
C	 1.2127100991	-0.6389806608	-0.7736242366	-0.188106
C	 2.1616938308	-0.1641163163	 0.3777034453	-0.28244
C	 0.8800003293	-0.6486941355	 1.1541044438	 0.181246
C	 0.6218292742	-0.6546392534	 2.6329620165	-0.519929
C	 0.9354280455	-1.8230284791	 0.1622962972	 0.425188
O	 0.8249055431	-3.0109786643	 0.1446018621	-0.333341
H	 0.7827342095	 2.1183389365	 0.1281648099	 0.122777
H	-0.5792565807	 1.8734892187	-0.9656207969	 0.125728
H	-0.8387042557	 1.8674448428	 0.7796816431	 0.124421
H	-0.9410991763	-0.4296108608	-0.1593323692	 0.083461
H	 1.4012766916	-0.6262082862	-1.844682647	 0.089036
H	 3.0796253726	-0.7350604314	 0.5331171618	 0.111136
H	 2.3586190202	 0.9063458685	 0.4164840931	 0.108077
H	 0.6086472726	 0.3610550647	 3.042649323	 0.122808
H	-0.3430238398	-1.1219003905	 2.8560283328	 0.131672
H	 1.3954389532	-1.2209523385	 3.1615799592	 0.132404
