20
gdb 53158	4.59005	0.83672	0.77781	1.6024	91.1	-0.2221	0.0352	0.2574	1558.8497	0.17025	-365.909053	-365.899771	-365.898827	-365.944372	33.929	
C	-1.2299835914	 1.3816508877	-1.1170477951	-0.503476
C	-0.9364945723	-0.0144530527	-0.8291496415	 0.157056
C	-0.7011595682	-1.1724487971	-0.591995597	 0.025298
C	-0.368971748	-2.5588496847	-0.3432065803	-0.17047
C	-0.1911447508	-3.1014376243	 1.1045300931	-0.083651
C	-1.7222599885	-2.9539492906	 1.2007850769	-0.178657
N	-1.5527163714	-3.5719670275	-0.2023839435	-0.165637
C	-0.5170572417	-4.4911463781	 0.5008818617	 0.093211
C	 0.4379486178	-5.3099477979	-0.3473576871	-0.444606
H	-0.5871924802	 1.7675369926	-1.9159059771	 0.149386
H	-2.2697006552	 1.5069985783	-1.4392301874	 0.152651
H	-1.0787138322	 2.012499672	-0.2340793446	 0.148259
H	 0.3619969849	-2.8959580059	-1.0791445326	 0.092951
H	 0.5795629466	-2.8244539594	 1.8331389331	 0.06485
H	-2.25678773	-3.6065957311	 1.8959338856	 0.096571
H	-2.1440678423	-1.9489829934	 1.1822603971	 0.116801
H	-1.0378795006	-5.1604238813	 1.1942574503	 0.070928
H	 1.0790758834	-4.719247326	-1.0051427342	 0.123407
H	 1.0898575325	-5.8996757664	 0.3059916855	 0.120886
H	-0.1292580726	-6.0094188842	-0.9701710729	 0.134241
