21
gdb 104784	2.33116	1.43864	1.15831	1.3186	77.74	-0.2432	0.0809	0.3242	1178.3537	0.180378	-424.176534	-424.167136	-424.166192	-424.210451	35.306	
C	-0.5632856578	 1.1632510493	 0.3312064095	-0.387381
C	-0.0291146962	-0.2569508138	 0.1195989988	-0.250034
C	 0.9543584756	-0.7007513821	 1.1989287178	 0.406038
C	 0.3869039461	-0.9200092879	 2.6488786121	-0.308634
C	 0.8137750128	-2.3870465713	 2.552919667	 0.034778
O	 0.1433872277	-2.952411837	 1.4148940047	-0.248912
C	 1.3472203972	-2.209190902	 1.1975481747	-0.043915
O	 2.0898445459	 0.139466496	 1.3283593976	-0.295473
C	 2.8998006699	 0.2665496523	 0.1763610575	-0.254624
H	 0.249268996	 1.8952982566	 0.353820886	 0.124631
H	-1.2527520707	 1.4437519081	-0.470566891	 0.111461
H	-1.1047831331	 1.2470745756	 1.2793700676	 0.119094
H	-0.8506355413	-0.9796308591	 0.1152839803	 0.120496
H	 0.448576828	-0.3330730689	-0.8655929725	 0.091611
H	 0.9725754015	-0.3409161398	 3.3645384176	 0.122065
H	-0.6813923955	-0.751165366	 2.801086813	 0.105327
H	 1.1053375386	-3.0712947223	 3.3408260377	 0.103716
H	 2.1584627482	-2.7086534626	 0.680326386	 0.099941
H	 3.804448393	 0.7940670681	 0.4886380741	 0.128817
H	 3.1908272419	-0.7073485502	-0.2414440529	 0.107045
H	 2.4132737522	 0.8497547969	-0.6170326456	 0.113955
