20
gdb 117385	2.85409	0.8488	0.69653	3.3984	79.4	-0.2285	0.0379	0.2664	1669.0082	0.169224	-440.288003	-440.277738	-440.276794	-440.32745	35.453	
C	-0.2871375216	 1.0616925198	-1.1635596741	-0.230814
O	 0.1119824103	-0.2836502932	-1.3012768743	-0.246647
C	 0.7263495615	-0.8055574777	-0.1437591862	-0.160552
C	 1.1404248173	-2.2640272505	-0.3389787367	 0.362706
O	 1.6888908612	-2.8737717593	 0.5630780979	-0.391042
N	 0.8435515762	-2.7747229339	-1.5583348032	-0.314415
C	 1.1510933135	-4.1223589174	-1.9261703841	 0.087624
C	 0.2594412812	-4.8722102501	-2.876929976	-0.289881
C	 1.647112423	-4.4436822774	-3.3105110253	-0.284341
H	-1.0206477767	 1.1841605781	-0.352444125	 0.11391
H	 0.5712254922	 1.7181503189	-0.9556900629	 0.113917
H	-0.7464256234	 1.3649975085	-2.1070957538	 0.131207
H	 1.629563662	-0.2353704917	 0.1227450136	 0.121707
H	 0.0491367764	-0.7641969227	 0.7232201222	 0.121651
H	 0.3852281853	-2.1564024922	-2.2107205116	 0.260125
H	 1.5813572116	-4.6528474104	-1.0865444879	 0.134878
H	 0.0693018285	-5.922491487	-2.6855757588	 0.122629
H	-0.5843952927	-4.3388356931	-3.3029482854	 0.112362
H	 1.718906735	-3.6266631872	-4.0211681718	 0.112678
H	 2.4193768691	-5.1971889316	-3.4190105467	 0.122299
