18
gdb 41867	3.33883	1.55777	1.13643	2.3314	78.63	-0.2397	0.0116	0.2514	1063.7345	0.151032	-401.977483	-401.970314	-401.969369	-402.00938	27.944	
C	-0.0589288942	 1.5409133357	 0.0999709922	-0.256858
C	 1.4308340103	 1.9138559685	-0.1284767176	-0.243941
C	 2.2085588439	 0.611133449	 0.1248382285	 0.057639
O	 3.2662837271	 0.4377103846	-0.8461678554	-0.2424
C	 3.5166135709	-0.8386614021	-1.2312170648	 0.134718
N	 2.9088083345	-1.91525096	-0.9641219914	-0.274469
C	 1.6973775721	-1.8652124037	-0.138633756	-0.268952
C	 1.1724337003	-0.4745007394	 0.0035453713	 0.305353
C	-0.0579515092	 0.0342298171	-0.0205970345	-0.212494
H	-0.4066341713	 1.8573801155	 1.0928127603	 0.111583
H	-0.7264090901	 2.021865027	-0.6235912595	 0.110361
H	 1.594860934	 2.1962953509	-1.1720866121	 0.123963
H	 1.7692327253	 2.741798738	 0.4979954148	 0.104874
H	 2.6971615962	 0.5961583691	 1.10986606	 0.090254
H	 4.3966133699	-0.8545357289	-1.8727410204	 0.122394
H	 0.9505991894	-2.5316008861	-0.5837522611	 0.121326
H	 1.9429358451	-2.2990672689	 0.8427124929	 0.120475
H	-0.9712450041	-0.5467216264	-0.0984915571	 0.096175
