19
gdb 116492	3.26538	1.15034	0.89645	2.439	74.39	-0.2524	0.0062	0.2586	1287.0603	0.159995	-460.147534	-460.138994	-460.13805	-460.181279	31.985	
O	 0.3732659754	 1.2441200849	-0.5725604418	-0.426037
C	 0.1434409521	-0.1136604845	-0.2741526871	-0.062801
C	-1.2950897627	-0.3466283333	 0.2027566908	 0.031098
O	-2.1057529258	 0.1625792373	-0.8509888088	-0.255673
C	-3.4937409975	 0.0824433896	-0.6789844759	 0.011552
O	-4.0187606891	-1.1413355188	-1.0956327477	-0.220768
C	-3.9596151527	-2.1953318605	-0.155480989	-0.137695
C	-2.6180289759	-2.5377514743	 0.4348023454	-0.089225
C	-1.5313624813	-1.78252918	 0.5867168829	-0.055904
H	-0.349667127	 1.5081926448	-1.1544821307	 0.289834
H	 0.3320586034	-0.7643388798	-1.1430313713	 0.099141
H	 0.8436890825	-0.3947056571	 0.5189195291	 0.106502
H	-1.4523672101	 0.2825069336	 1.0988623911	 0.08918
H	-3.7663807628	 0.2961969207	 0.3701485382	 0.07959
H	-3.9260933979	 0.8382008376	-1.3394721101	 0.11604
H	-4.6571891835	-1.9931728895	 0.6794500045	 0.106682
H	-4.3567668533	-3.0702957552	-0.6811042739	 0.124485
H	-2.5881511027	-3.5452736402	 0.847960665	 0.098065
H	-0.686759941	-2.2264709853	 1.1124926594	 0.095931
