20
gdb 66434	2.59558	1.69727	1.33457	1.905	82.98	-0.2009	0.0787	0.2796	1067.9824	0.168686	-365.914228	-365.905372	-365.904428	-365.946976	34.198	
C	 0.0735233189	 1.5333089603	 0.0110951048	-0.525286
C	-0.0013359228	 0.0423065513	 0.0059607771	 0.301541
C	 0.7594658185	-1.0036286664	-0.7668165013	-0.070028
C	 0.8740947548	-0.9891626899	 0.7366474636	-0.241817
C	-0.3321552023	-1.9663057716	 0.7736685347	 0.308233
C	-0.6417649692	-3.1552611314	 1.6175830482	-0.525447
N	-0.4046882883	-1.987549075	-0.7388187042	-0.263175
C	-1.1887934953	-0.9705671896	 0.0640310325	 0.235603
C	-2.6656044175	-0.8058058584	-0.0628596312	-0.526637
H	 1.1157226094	 1.8649606139	-0.055527496	 0.12451
H	-0.4656505506	 1.9689512756	-0.8382754022	 0.124018
H	-0.3491768581	 1.9574520833	 0.9295885026	 0.121293
H	 1.4968692153	-0.9386111582	-1.558325313	 0.091997
H	 1.7195510477	-0.8198467824	 1.3898092621	 0.088928
H	-0.7936818151	-2.8701552347	 2.6649269245	 0.119561
H	-1.5518154742	-3.6467844802	 1.2597938556	 0.131018
H	 0.1727246921	-3.8874768972	 1.5782949959	 0.127388
H	-3.153960963	-1.7852196875	-0.0733620561	 0.132405
H	-3.076499517	-0.2266402828	 0.7719029539	 0.119588
H	-2.9273876235	-0.2927943892	-0.9953211517	 0.126309
