18
gdb 6268	3.55509	1.14084	0.97386	1.0622	69.08	-0.2506	-0.0945	0.1561	1235.6546	0.15007	-384.970315	-384.960839	-384.959895	-385.005364	32.89	
C	 0.0516889305	 1.5899535552	 0.1931474565	-0.390929
C	-0.0220735197	 0.0748100137	-0.0443462087	 0.040131
C	-1.4689511917	-0.3795293758	-0.2736135422	-0.396187
C	 0.8657969674	-0.3533901156	-1.2206704851	-0.298062
C	 2.349985412	-0.2568827012	-0.9649115013	 0.280404
O	 2.8670202523	-0.0053619574	 0.1000857092	-0.279026
C	 3.2831655233	-0.5241517283	-2.15776249	 0.096795
O	 2.8953829821	-0.7590755899	-3.2714349836	-0.218836
H	 1.074782287	 1.911678481	 0.4024703658	 0.131023
H	-0.3110494759	 2.1411271555	-0.6832035752	 0.108851
H	-0.57108454	 1.8788535	 1.0457103692	 0.114581
H	 0.3622567571	-0.4251148236	 0.8533111925	 0.092611
H	-1.8912194935	 0.0845374254	-1.1729807568	 0.114469
H	-1.5350566778	-1.4657618883	-0.3973509016	 0.111132
H	-2.1043782714	-0.098868786	 0.572345238	 0.11553
H	 0.6721035311	-1.3995201903	-1.5021735541	 0.134707
H	 0.6387419871	 0.2144168857	-2.1331873377	 0.13594
H	 4.3571029101	-0.4718428501	-1.8782117948	 0.106867
