14
gdb 15854	2.72146	2.03827	1.34285	3.6254	64.92	-0.2408	-0.026	0.2148	900.3569	0.104243	-382.501292	-382.493325	-382.492381	-382.533826	29.118	
O	 0.066026409	 1.4109562967	-0.1265276522	-0.414771
C	 0.038374872	 0.0143576294	 0.027797492	 0.104474
C	 0.2182827361	-0.4464889879	 1.5077962455	-0.37977
C	-1.3137275508	-0.5193833969	 1.6129061586	 0.401589
O	-2.0929630112	-0.5335002641	 2.5125436672	-0.276251
C	-1.4554395998	-0.4669472971	 0.0593959451	-0.322321
C	-2.4979637046	 0.3109011738	-0.5604173428	 0.343557
C	-3.3842067341	 0.9524958592	-1.0568197983	-0.425464
H	 0.9719880869	 1.7105785677	 0.0002748619	 0.290606
H	 0.6657733454	-0.4952885419	-0.7119576038	 0.08001
H	 0.6771804661	-1.4353070955	 1.6120081538	 0.132703
H	 0.7138407277	 0.256320288	 2.1812075031	 0.133249
H	-1.489344886	-1.5099058285	-0.2849004447	 0.134128
H	-4.1613928367	 1.5288634572	-1.4939888352	 0.198263
