20
gdb 115539	2.5656	1.09194	1.0246	3.1318	79.84	-0.2659	0.0227	0.2886	1309.6443	0.169667	-403.15372	-403.143989	-403.143045	-403.188485	35.243	
C	-0.052748435	 1.5834907651	-0.2203443766	-0.385854
C	 0.05690745	 0.0774771375	 0.0473131468	-0.20866
C	-1.3092338401	-0.5724933288	 0.1264925895	 0.135976
O	-2.0498627893	-0.5085535679	-1.1134462888	-0.288569
C	-2.5134628653	-1.8585924251	-0.9605372149	-0.101961
C	-1.4690740344	-2.1356701126	 0.1604846411	 0.069278
C	-0.2622494435	-2.9529148708	-0.3145948478	-0.453346
C	-2.0014574504	-2.6676857551	 1.4082960375	 0.237293
N	-2.4228541708	-3.0826152808	 2.4019699217	-0.340211
H	 0.9385462411	 2.038670404	-0.2971197091	 0.117736
H	-0.5881069785	 1.769193111	-1.1554677986	 0.141685
H	-0.5945518961	 2.0907198682	 0.5849669693	 0.121037
H	 0.6475069274	-0.3962553785	-0.7432316454	 0.104332
H	 0.5789111098	-0.1027297871	 0.9958578432	 0.109392
H	-1.8923667278	-0.1129459527	 0.9384371276	 0.088057
H	-3.5554856856	-1.9068539523	-0.6217119054	 0.119737
H	-2.3938839509	-2.4477228642	-1.8757676792	 0.116638
H	 0.0911840143	-2.5760442098	-1.277233071	 0.138142
H	 0.5599051242	-2.9055665285	 0.4041733984	 0.140258
H	-0.5446464691	-4.0020666915	-0.4393806582	 0.13904
