19
gdb 91496	2.62279	1.82883	1.49073	2.3311	75.22	-0.2335	0.0439	0.2773	963.1439	0.159938	-422.907218	-422.899994	-422.89905	-422.938387	29.868	
C	 0.0483166035	 1.5335287372	 0.0831982632	-0.417964
C	 0.1169613681	 0.0159671832	 0.0666348586	 0.144808
O	 0.9449113927	-0.4646942739	-1.0268326313	-0.276609
C	 1.8215778472	-1.330363539	-0.35314281	 0.029058
C	 2.3284832286	-0.4435123605	 0.901076641	-0.348526
C	 0.8142985328	-0.6529604749	 1.2845672113	 0.155408
C	-0.24855684	-1.327955791	 2.1969916666	-0.196695
O	-0.3661039522	-2.4123414068	 1.1959176578	-0.317519
C	 1.0031266744	-2.0499360248	 0.7884221585	 0.129215
H	 1.0243255043	 1.9913384849	 0.2632474079	 0.118535
H	-0.3261555181	 1.9001296137	-0.8770611755	 0.130049
H	-0.6414785931	 1.869635697	 0.8650347742	 0.115445
H	-0.8870314602	-0.3978990889	-0.0697749359	 0.096467
H	 2.4963632501	-1.8253476456	-1.0520922777	 0.090495
H	 3.0358244074	-0.9442212917	 1.5600162214	 0.117128
H	 2.6787734245	 0.554026883	 0.6322875623	 0.115826
H	 0.1331122612	-1.7195843726	 3.146109337	 0.113763
H	-1.2017983313	-0.813381069	 2.3462624564	 0.11726
H	 1.69294845	-2.6529669805	 1.3897572041	 0.083858
