17
gdb 35582	3.33232	1.29855	1.08939	4.6797	71.92	-0.2581	0.0093	0.2674	1104.0264	0.138766	-417.992329	-417.984836	-417.983892	-418.024785	28.277	
N	-0.1408393474	-1.1573873117	-0.2072526591	-0.325698
C	-0.0702830382	-0.0054736656	-0.1433083544	 0.301571
C	 0.0241377379	 1.4558520575	-0.0860338762	-0.142531
N	-0.28746264	 2.0651198564	 1.2248534471	-0.310342
C	 0.8438715646	 3.0217457638	 1.0889217871	-0.013041
C	 1.8809312712	 2.9893956625	 2.226079438	-0.07666
O	 3.0082405578	 2.2916221764	 1.7056307871	-0.24812
C	 2.5457423967	 1.3719932696	 0.7263830895	-0.102942
C	 1.4332935436	 2.119763481	-0.0281261986	-0.060225
H	-0.5578471387	 1.8632363276	-0.9233222926	 0.116217
H	-1.2156066215	 2.4642625658	 1.3039424519	 0.231706
H	 0.5537918365	 4.0332481472	 0.7874711704	 0.081053
H	 2.2239067558	 3.9817702727	 2.533185835	 0.106948
H	 1.4525160516	 2.4685814306	 3.0940075649	 0.106264
H	 3.397019163	 1.1041181473	 0.0967434667	 0.118961
H	 2.1533634339	 0.4563996802	 1.1932072706	 0.11999
H	 1.7753081132	 2.5865484586	-0.9498296374	 0.096848
