19
gdb 47559	2.57213	1.60259	1.12055	1.7995	75.65	-0.2369	-0.0134	0.2235	1099.0373	0.160762	-423.033099	-423.02532	-423.024376	-423.065444	30.542	
O	 0.0197436756	-0.0795434771	 0.0393986857	-0.308699
C	 0.0210828469	 1.1298356697	 0.0429181981	 0.382681
C	-1.2734200783	 1.938481577	 0.0214621982	-0.292232
C	-1.4637635325	 2.8332771869	-1.2192204504	-0.086659
O	-0.4321111919	 3.7964302835	-1.3836478677	-0.245921
C	 0.6668666491	 3.3027005308	-2.0900019564	 0.115978
C	 2.0167621548	 3.8066201442	-1.6912039855	-0.335217
C	 1.6276427191	 2.3724415885	-1.3853494156	-0.045499
C	 1.3163573334	 1.9390799782	 0.0421375825	-0.314525
H	-2.1105888586	 1.2375927868	 0.090716458	 0.118609
H	-1.2880314434	 2.5853825078	 0.9078925199	 0.119938
H	-1.5559020838	 2.2135148533	-2.1225463896	 0.105315
H	-2.3943656173	 3.3975420622	-1.1050528415	 0.115731
H	 0.4692555243	 3.1276071219	-3.1481286493	 0.089193
H	 2.7469883561	 3.9999754427	-2.4689945089	 0.118701
H	 2.0480894036	 4.4963437457	-0.854720622	 0.126709
H	 2.0737409541	 1.5952616833	-1.9982992317	 0.103199
H	 1.2039220832	 2.8175790634	 0.6839250151	 0.1121
H	 2.1221709254	 1.3155149414	 0.4369439214	 0.120598
