16
gdb 26026	4.49584	0.9849	0.95899	1.3719	70.06	-0.2371	0.014	0.2511	1231.2968	0.126112	-434.1324	-434.124067	-434.123123	-434.166766	30.014	
N	 0.7356326271	-0.1243627676	-0.4829526328	-0.519596
C	-0.2303406867	 0.2013186358	 0.4118506068	 0.392706
O	-0.3840916293	 1.3098431144	 0.8810515894	-0.35192
C	-1.1665370352	-0.9417909557	 0.8476524795	-0.291317
N	-0.9488383426	-2.2307154957	 0.224101658	 0.024575
C	-1.3596538031	-2.6207948724	-1.0370058743	-0.156413
C	-0.8492686916	-3.8791350529	-1.2182980822	-0.085121
N	-0.1354899099	-4.2766537433	-0.1111028796	-0.265379
C	-0.215237493	-3.2698487247	 0.7269862581	-0.004935
H	 1.3568874632	 0.6035482912	-0.7952448625	 0.269165
H	 0.812711294	-1.0429548573	-0.8842154186	 0.285441
H	-1.0564205853	-1.0483027472	 1.9298258095	 0.159746
H	-2.1904476183	-0.6063645137	 0.6637851886	 0.158597
H	-1.9687342839	-1.9801173028	-1.6536838092	 0.134919
H	-0.9613817994	-4.5233686541	-2.0771323958	 0.114529
H	 0.2295104341	-3.2227172539	 1.7106638351	 0.135003
