18
gdb 48734	4.08686	1.26791	1.16529	3.3847	77.08	-0.2306	-0.0289	0.2017	1085.8631	0.148169	-401.888977	-401.881531	-401.880587	-401.920817	29.281	
O	-0.9515918168	 1.2534362721	-0.009745201	-0.279738
C	 0.1921898751	 0.8642501722	-0.078809568	 0.069693
C	 1.3757179513	 1.7360870643	 0.0150540516	 0.246485
C	 1.2972718087	 3.127627181	 0.6091875132	-0.339146
C	 1.6761396104	 3.0158878968	-0.8246717555	-0.10954
C	 3.0863279928	 2.4400535788	-1.0134762113	 0.028113
C	 4.2284080516	 2.7882444806	-0.0199986094	-0.262425
C	 3.7877971173	 1.5381253257	 0.7953819027	-0.181414
N	 2.7318283938	 1.2069681828	-0.2255822298	-0.17357
H	 0.4449977537	-0.2049786103	-0.2480430096	 0.08072
H	 0.273772186	 3.4410838089	 0.7848146004	 0.150787
H	 2.0085905343	 3.4420463423	 1.3656434553	 0.1202
H	 1.0551195199	 3.4156544196	-1.6165759301	 0.114544
H	 3.3654220129	 2.2768856836	-2.0574286733	 0.086715
H	 5.2265493576	 2.7134661575	-0.4551222848	 0.113587
H	 4.1401071644	 3.7519818689	 0.4864715735	 0.112455
H	 4.5362181931	 0.7443257321	 0.8600308193	 0.111893
H	 3.3982690141	 1.7302985931	 1.7995948968	 0.11064
