17
gdb 45819	2.39034	1.94249	1.19452	2.6887	73.13	-0.2432	-0.0221	0.2211	1015.8871	0.137162	-421.83366	-421.82625	-421.825305	-421.866206	28.161	
O	-0.2484899235	 0.5806547178	 1.2030616353	-0.312819
C	-0.14762824	 1.3251108612	 0.2571807797	 0.383638
C	-1.335552303	 1.7138015342	-0.6136503322	-0.365595
C	-1.3521253306	 3.2034143977	-0.8747727935	-0.068872
C	-0.2562989402	 3.9615523305	-0.8784730384	-0.069405
C	 1.1111503362	 3.4006388193	-0.6682221477	 0.088757
O	 1.7768742956	 3.9002456425	 0.524941844	-0.294336
C	 1.9946263413	 2.5625841488	 1.0257166883	-0.079271
C	 1.1788837875	 1.9520640546	-0.1297791987	-0.185481
H	-1.2751265489	 1.1573730833	-1.56176069	 0.134861
H	-2.248844823	 1.3801844997	-0.1140442737	 0.13497
H	-2.3252270864	 3.6533095738	-1.053198068	 0.106256
H	-0.3234750475	 5.0320180995	-1.0532219035	 0.104825
H	 1.7448010689	 3.5837544944	-1.5483332455	 0.082161
H	 3.0588629631	 2.2990736477	 1.032715264	 0.103933
H	 1.5749218766	 2.410517221	 2.0250653199	 0.12564
H	 1.7171621037	 1.2438448342	-0.76686551	 0.110739
