17
gdb 47767	2.01854	1.68829	1.23228	4.7683	72.99	-0.2515	-0.0399	0.2116	1068.4238	0.138075	-418.040044	-418.031999	-418.031054	-418.072948	30.044	
O	 0.0308756014	-0.027569109	-0.0684685387	-0.294264
C	-0.0259898595	 1.1718102936	 0.0083132548	 0.393342
C	-1.310011993	 1.974938129	 0.0241650016	-0.285879
C	-1.2737335335	 3.0554884061	-1.0771774192	-0.175721
N	-0.0714175511	 3.8635918212	-0.9178938243	-0.275605
C	 1.1479332653	 3.0996228916	-1.1088175455	-0.191389
C	 1.2641747884	 2.0359003088	 0.0159021433	-0.22485
C	 1.4553681223	 2.657293672	 1.3249461224	 0.279189
N	 1.6091037283	 3.1288974451	 2.3691330818	-0.32511
H	-2.1543312568	 1.2949420442	-0.1036275817	 0.126814
H	-1.3916658865	 2.4742411748	 0.9967589211	 0.153547
H	-1.3298032629	 2.5588046556	-2.0636589401	 0.095661
H	-2.1506213974	 3.7022891954	-0.9851491171	 0.118631
H	-0.0891971541	 4.6716106516	-1.527525792	 0.233908
H	 1.1850009709	 2.5553476763	-2.0709577567	 0.100836
H	 2.0094260463	 3.7714031403	-1.0709065158	 0.130025
H	 2.1014551418	 1.3607852435	-0.1816703839	 0.140865
