17
gdb 107946	4.1449	1.18335	1.10177	1.5894	67.3	-0.2242	0.0609	0.2851	1112.4392	0.134648	-458.880173	-458.872149	-458.871204	-458.912645	31.336	
O	 0.0129819152	 1.4017099398	-0.1091160939	-0.415686
C	 0.0738606199	-0.0106075764	-0.0224575167	-0.185334
C	-1.3017004256	-0.587807548	 0.1349585678	 0.407188
C	-2.2255587441	-0.3348050818	 1.3582324221	-0.32837
C	-2.9880212815	-1.5571728135	 0.8417182382	 0.33277
O	-3.9258507179	-2.3286800426	 1.4886969342	-0.455037
C	-2.8750452918	-1.4622176084	-0.6957064593	 0.018866
O	-2.1706363288	-0.2622407201	-1.0104429012	-0.34579
C	-1.7758325875	-2.0911944832	 0.0988973056	-0.265372
H	-0.6009113463	 1.6064884809	-0.8243866036	 0.299315
H	 0.5538152448	-0.4532396497	-0.9089145773	 0.09936
H	 0.6865114029	-0.2531380134	 0.8519387993	 0.114938
H	-1.7156926837	-0.5581863346	 2.2988171418	 0.110598
H	-2.721451908	 0.6391414016	 1.4007613133	 0.100717
H	-4.7832736149	-1.8941868386	 1.4147786372	 0.290955
H	-3.5912720961	-1.8704759559	-1.3969949302	 0.111947
H	-1.2723617667	-3.0471738861	 0.0736781929	 0.108936
