17
gdb 90374	2.36824	1.53228	1.26379	4.1004	68.59	-0.2364	-0.0357	0.2006	1057.9574	0.133304	-458.938825	-458.930233	-458.929289	-458.972049	32.252	
C	 0.3342125659	 1.4995751224	-0.194338849	-0.419629
C	 0.0992936144	 0.0331526773	 0.0892729139	 0.109204
O	 0.8955082315	-0.8476887658	-0.7568745135	-0.310672
C	 1.2598244805	-1.6965293021	 0.3578900737	-0.055363
C	 2.6644325788	-1.2781798876	 0.840447697	 0.432459
O	 3.7781620584	-1.6135939751	 0.57106577	-0.287688
C	 2.0670703467	-0.2413597644	 1.8209611993	-0.443553
C	 0.6411117588	-0.6689422232	 1.3585316313	 0.316148
O	-0.2624775993	-1.0777332166	 2.3363096914	-0.473797
H	 1.3895597753	 1.7662836165	-0.0950740575	 0.128237
H	 0.022463043	 1.7375632771	-1.2160763986	 0.138751
H	-0.2553398304	 2.1206503641	 0.4892263478	 0.11843
H	-0.9651395171	-0.2172288595	-0.0233797743	 0.08814
H	 0.9735591438	-2.7435442449	 0.2374625461	 0.101408
H	 2.2492517198	-0.5550271636	 2.854878511	 0.139787
H	 2.3803519433	 0.7981709553	 1.7032594906	 0.130495
H	-0.3819275434	-0.3606163399	 2.9682488408	 0.287643
