17
gdb 67459	2.2648	1.9132	1.87134	1.7522	66.68	-0.2424	0.0544	0.2968	881.2388	0.136453	-458.925343	-458.918061	-458.917117	-458.957003	28.49	
O	-0.0141670349	 1.4132609129	 0.0167044231	-0.485274
C	 0.0140558938	 0.0299955877	 0.0040336757	 0.321247
C	-1.2495403733	-0.866531023	 0.0870047923	 0.060813
C	-0.8972173493	-1.5020469347	-1.2726071968	-0.254533
C	 0.5003153418	-0.7989727752	-1.2251478415	 0.027957
O	 1.5865322254	-1.6156694909	-0.8260450551	-0.275811
C	 1.7367828571	-1.6041131917	 0.600371516	-0.097128
C	 0.5557109835	-0.8352343166	 1.1683365501	 0.029583
O	-0.6693976738	-1.6122564889	 1.1835879611	-0.309922
H	 0.8274580656	 1.744786184	-0.316224971	 0.288012
H	-2.2634445122	-0.5258254106	 0.2995344994	 0.088407
H	-0.8881767063	-2.5924395074	-1.3119587697	 0.115663
H	-1.5148894544	-1.0997476507	-2.0814225338	 0.105648
H	 0.781039067	-0.2472594674	-2.1266652508	 0.083012
H	 1.7648681376	-2.6348042514	 0.9709344305	 0.119247
H	 2.683775802	-1.1109876734	 0.864896197	 0.095566
H	 0.7449292305	-0.3539928727	 2.1322965934	 0.087513
