17
gdb 114407	3.27577	1.15195	1.13748	3.9251	68.23	-0.2617	-0.0139	0.2479	1162.702	0.135512	-458.961246	-458.9532	-458.952255	-458.994416	29.642	
C	 0.372057548	 1.2681849711	 0.2694371003	-0.384875
C	 0.0800962048	-0.2129514112	 0.005673787	-0.20236
C	 0.5667594699	-0.6547875062	-1.3588274371	 0.12415
O	 2.0124744873	-0.4995429855	-1.5517714152	-0.309814
C	 2.1481139171	-1.8633855909	-1.9906207535	-0.071717
C	 0.668264692	-2.1523135026	-1.701122592	 0.026852
O	 1.0402259218	-2.9858897079	-0.5643030785	-0.255735
C	 2.3969027426	-2.8100340628	-0.7982931734	 0.453045
O	 3.3018655162	-3.2744689574	-0.1911490759	-0.309091
H	 1.4454036303	 1.4655195051	 0.2020332059	 0.142371
H	-0.1354112731	 1.9112798131	-0.4578858445	 0.114886
H	 0.0336241324	 1.5585199069	 1.2677705758	 0.120074
H	 0.5500972644	-0.8367119776	 0.7717973472	 0.125238
H	-0.999633278	-0.405102302	 0.0569538518	 0.105548
H	 0.0474708136	-0.1091624005	-2.1592973201	 0.090358
H	 2.7048300698	-1.989565416	-2.9189939665	 0.118191
H	-0.0568394191	-2.6431046157	-2.3449152114	 0.112876
