18
gdb 13514	3.26181	1.74872	1.23524	3.5004	69.3	-0.2334	0.0548	0.2882	999.1352	0.154542	-381.155192	-381.146768	-381.145824	-381.188138	30.925	
C	-0.3568301952	 1.4581143214	 0.135078948	-0.40157
C	 0.1016505043	 0.0166694481	 0.0033765563	 0.087093
C	 0.9219025536	-0.3969432543	-1.2550222529	-0.263842
C	 1.9911814796	-0.98241612	-0.2953455027	-0.179441
N	 1.2691628575	-0.3582662484	 0.8260030001	-0.109836
C	 1.1680900948	-0.7857417158	 2.1286674593	 0.407617
N	 2.2672648009	-1.504309986	 2.5804038611	-0.556248
O	 0.1851906785	-0.5706663513	 2.8165861202	-0.399208
H	 0.4728445543	 2.1495847183	-0.0448471688	 0.109574
H	-1.1520215779	 1.6729388021	-0.5872213274	 0.112054
H	-0.7453853215	 1.6339950244	 1.1414151748	 0.148065
H	-0.7413009063	-0.65862397	 0.1964557982	 0.089953
H	 0.443947629	-1.1086663437	-1.9282589509	 0.113158
H	 1.2800854518	 0.4586235658	-1.8310987	 0.111321
H	 2.0036819496	-2.0781180901	-0.2454105426	 0.117172
H	 3.0177610858	-0.6243619626	-0.434223194	 0.104483
H	 3.1632285139	-1.3069913178	 2.1607066783	 0.250475
H	 2.2883373875	-1.596352	 3.584695093	 0.25918
