16
gdb 124185	4.45102	0.76829	0.69905	3.247	78.14	-0.2511	-0.0106	0.2405	1596.8353	0.12363	-400.718291	-400.709402	-400.708458	-400.75479	30.361	
C	 0.0587755371	 1.495137954	-0.2944343727	-0.496303
C	 0.0415459468	 0.0486147006	-0.1295798833	 0.062699
C	 0.0314760032	-1.1462677307	 0.0139641627	 0.070278
C	 0.0014988401	-2.5998915709	 0.1717696349	-0.482624
C	-1.3902090311	-3.1753857513	 0.1400381175	 0.163275
C	-1.9749481993	-4.0503048125	 0.9987723165	-0.013831
O	-3.2268234694	-4.3388007917	 0.6116162031	-0.164378
N	-3.5098143138	-3.6315522141	-0.552958753	-0.132226
C	-2.4228590756	-2.9525118106	-0.8173221742	-0.028986
H	 0.6560749511	 1.9766210796	 0.4875896912	 0.150033
H	 0.4858559418	 1.7819706384	-1.2616305538	 0.148748
H	-0.9529192647	 1.9119884927	-0.2415905868	 0.151616
H	 0.6084962663	-3.0607786276	-0.6202121506	 0.145181
H	 0.4844169432	-2.8830453646	 1.1150077447	 0.137796
H	-1.6364332513	-4.5368047952	 1.900767569	 0.15019
H	-2.3999327445	-2.3079648461	-1.6847877951	 0.138534
