20
gdb 86813	4.21277	0.80284	0.75539	2.5626	75.88	-0.2383	0.0294	0.2676	1560.8951	0.169288	-440.312822	-440.302669	-440.301725	-440.349827	35.745	
C	 0.4075151884	 1.506010282	-0.7171450013	-0.396922
C	 0.0321884813	 0.1415291398	-0.1776494308	 0.162269
C	 0.6199024754	-1.1197923826	-0.8470165478	-0.291324
C	 1.121527375	-1.4664144763	 0.5661414181	 0.177515
C	 2.6058965945	-1.7076979939	 0.7879064686	-0.346939
C	 3.0469653434	-3.0606181437	 0.2393215899	 0.413602
N	 4.2662104704	-3.4904112202	 0.6757104888	-0.524655
O	 2.3721351321	-3.7043482315	-0.5431578468	-0.357186
O	 0.7115412373	-0.1727214312	 1.0682630411	-0.325156
H	 1.4874179151	 1.5759946229	-0.8812377607	 0.113144
H	-0.1027470718	 1.6926865657	-1.6686709269	 0.115765
H	 0.1152732703	 2.2922992213	-0.0135901865	 0.124846
H	-1.0567446138	 0.0801719337	-0.0358835559	 0.070805
H	-0.0791217607	-1.8216295979	-1.3000247148	 0.116103
H	 1.4230157399	-0.9065959749	-1.5568605864	 0.102466
H	 0.5425432641	-2.2706807522	 1.0386406636	 0.08225
H	 3.1846589374	-0.9174462781	 0.292699589	 0.125673
H	 2.8332459863	-1.6331510181	 1.85859368	 0.117839
H	 4.8145691886	-2.97475694	 1.340701818	 0.259281
H	 4.6166139767	-4.3685575948	 0.3300171304	 0.260623
