18
gdb 22835	2.78949	1.38865	1.05016	0.5413	83.75	-0.2164	-0.0237	0.1927	1155.456	0.148836	-401.922008	-401.913925	-401.912981	-401.954735	31.407	
O	-0.169827328	 1.4650031554	 0.0753985179	-0.403381
N	 0.0800772705	 0.0837639442	-0.0217181682	-0.180612
C	-0.9958572186	-0.6045229609	-0.0163072554	 0.365262
C	-2.3973420481	-0.0407618476	 0.0334284138	-0.350124
C	-2.9472772046	 0.0844284646	-1.3689449722	-0.074306
C	-2.9934933277	-0.9273105657	-2.2457526076	-0.057148
C	-2.5521675042	-2.3039421019	-2.0322001448	-0.080965
C	-1.6873378054	-2.8013385816	-1.1335314251	-0.062556
C	-0.8427148753	-2.0964273382	-0.104011076	-0.335367
H	 0.7218887577	 1.8274557677	 0.0772233649	 0.305168
H	-3.0287898273	-0.7271279988	 0.6131404328	 0.11713
H	-2.3935390893	 0.9271810389	 0.5337792099	 0.133567
H	-3.3118129045	 1.0618892411	-1.6694018724	 0.09807
H	-3.439908645	-0.7346385364	-3.2186713834	 0.088533
H	-2.9966664329	-3.0252591239	-2.7156310395	 0.087239
H	-1.5333378325	-3.8787788696	-1.1441496009	 0.094156
H	 0.2154306805	-2.325278148	-0.2771662882	 0.133471
H	-1.0788036955	-2.5361082392	 0.8793109145	 0.121862
