19
gdb 105956	3.03436	1.45534	1.16773	1.3633	78.39	-0.2128	0.0714	0.2842	1109.9748	0.157698	-385.777785	-385.769533	-385.768589	-385.81049	32.477	
C	-0.0078069055	 1.483738262	 0.068590912	-0.382023
C	 0.0062147067	-0.0440162684	-0.0634034589	-0.323458
C	 0.6986011648	-0.5309225236	-1.2994065815	 0.275459
C	 0.6735723712	-0.014674802	-2.7358952776	-0.139077
C	 0.9064846742	-1.4545462114	-3.2766025694	-0.143276
C	 2.241963819	-1.5208297066	-2.5159168972	-0.191737
C	 1.9937222189	-0.0838522175	-1.9741211096	-0.145199
C	 0.9453473938	-1.9848277332	-1.8645457186	 0.315361
O	 0.5368854105	-3.2210816096	-1.4359698279	-0.447791
H	 1.0087508643	 1.8888371141	 0.1064181123	 0.118682
H	-0.5236871726	 1.9497166825	-0.7771933818	 0.120659
H	-0.52321286	 1.789985534	 0.9835323956	 0.1149
H	 0.4913369722	-0.4792681242	 0.8217062966	 0.094106
H	-1.0255843522	-0.420426326	-0.0576487244	 0.107487
H	 0.1567950291	 0.8416306369	-3.1508831125	 0.081157
H	 0.6199692571	-1.9559268107	-4.1909161155	 0.089888
H	 3.1382611448	-2.0716140057	-2.7689148577	 0.085742
H	 2.6728390315	 0.7114584499	-1.6932360499	 0.0809
H	 1.1083003322	-3.4976512805	-0.7101244139	 0.28822
