20
gdb 71730	2.52213	2.03713	1.46604	1.9803	81.15	-0.2151	0.0787	0.2938	976.7227	0.171714	-365.967843	-365.960088	-365.959144	-365.999462	31.388	
C	-0.1141128799	 1.4598243659	 0.1056909159	-0.498159
C	-0.0172314993	-0.0388804039	-0.0138925354	 0.260241
C	-0.434281443	-0.7628420417	-1.2830099622	-0.295488
C	-0.2103942471	-2.1826608856	-0.822913775	-0.048588
C	 0.9127851056	-2.2513624231	 0.1436960303	-0.107903
N	-0.499957884	-2.3432782881	 0.6391439261	-0.162555
C	-0.3521118541	-0.9322284466	 1.1605920172	-0.116232
C	 1.0839013331	-0.8262714425	 0.7074171131	 0.28469
C	 2.3199579697	-0.2807776533	 1.3542348579	-0.52138
H	 0.5555222749	 1.9646784954	-0.6000111386	 0.119662
H	-1.1344783056	 1.80151808	-0.10179532	 0.121769
H	 0.1466135747	 1.8032989561	 1.1113352767	 0.120269
H	-1.4809324219	-0.5665315097	-1.542852323	 0.104118
H	 0.191630013	-0.5075314346	-2.1461024384	 0.101934
H	-0.4799352594	-3.0375739765	-1.4330677238	 0.092892
H	 1.6108837553	-3.0743016543	 0.2550238389	 0.089299
H	-0.8633321121	-0.6285866983	 2.0658801445	 0.088712
H	 2.142085941	 0.7032630925	 1.7979308639	 0.122261
H	 2.6740161448	-0.9427124158	 2.152813828	 0.124726
H	 3.1352967743	-0.172956426	 0.6282050438	 0.119731
