21
gdb 116059	2.9519	1.17684	0.88876	2.2626	80.62	-0.2479	0.0151	0.263	1326.6251	0.18372	-424.224802	-424.215953	-424.215009	-424.258679	33.715	
O	-0.1696855656	 1.4933983802	 0.0170452395	-0.427341
C	-0.0582559712	 0.1088062504	-0.2277279669	-0.063991
C	-1.3877649413	-0.6110114663	 0.0081876218	 0.091663
C	-1.2619701426	-2.1257705439	-0.1468011117	-0.195922
C	-2.5914117652	-2.8777506357	-0.275576093	-0.267522
C	-3.6254509312	-2.6707805059	 0.8019036926	-0.049792
C	-3.8558559769	-1.6072395593	 1.5725466899	-0.057863
C	-3.1479859597	-0.276954124	 1.6254782242	-0.132179
O	-1.7645940764	-0.2643993518	 1.3402611721	-0.265788
H	-0.6202298429	 1.5592856983	 0.8685301775	 0.284658
H	 0.2487911222	-0.0153581504	-1.27124504	 0.104981
H	 0.7145447242	-0.3549578944	 0.4083513847	 0.087078
H	-2.1328062891	-0.2040279705	-0.6957687589	 0.069931
H	-0.655288458	-2.3447548748	-1.0349956613	 0.095149
H	-0.7057929672	-2.4971021462	 0.7214666622	 0.111355
H	-3.0555924626	-2.6170949203	-1.2402859582	 0.114716
H	-2.3769506303	-3.9507981696	-0.3488114367	 0.104963
H	-4.3116758942	-3.5082195966	 0.9184376294	 0.089003
H	-4.710819485	-1.656070983	 2.2457673811	 0.088632
H	-3.6747363402	 0.4329399071	 0.9603972379	 0.104209
H	-3.2319867769	 0.1286564168	 2.6398019637	 0.114061
