16
gdb 96907	3.24576	1.17232	0.94974	3.0804	75.55	-0.2586	-0.0442	0.2143	1234.9306	0.122204	-437.857253	-437.848723	-437.847778	-437.891012	30.506	
C	 0.0042411243	 1.380224919	-0.0781952984	-0.343826
N	-0.0670201531	-0.0743682682	-0.1079197017	-0.337635
C	 0.5685346289	-0.7026206289	-0.9756438328	 0.483765
O	 1.3877290145	-0.2417145387	-2.024490145	-0.294412
C	 1.4883137527	-1.5785171838	-2.542387935	 0.359664
C	 2.1694667654	-2.4638330772	-1.5387536747	-0.33212
C	 0.70453343	-2.1449476802	-1.3440112322	-0.266916
C	 1.3170946369	-1.8525239929	-3.9756145233	 0.071927
O	 1.1493360341	-1.0147887119	-4.8237035038	-0.254658
H	 0.5751169966	 1.8160778488	-0.905338693	 0.136809
H	-1.0135144449	 1.7830150056	-0.0956953854	 0.134607
H	 0.4566608078	 1.6933617644	 0.8689095681	 0.133742
H	 2.3717893076	-3.4814708102	-1.8593162599	 0.141552
H	 2.9227176289	-2.0144857359	-0.9001288676	 0.147816
H	-0.0722696571	-2.8952060042	-1.3144027526	 0.139269
H	 1.3591738273	-2.9404469156	-4.2106803627	 0.080416
