24
gdb 57546	3.51826	0.75174	0.72925	1.4548	86.64	-0.225	0.0649	0.2899	1712.4275	0.214895	-405.522489	-405.511735	-405.510791	-405.558464	40.249	
C	 0.09225339	 1.5462422483	 0.3141639813	-0.41542
C	-0.0065856754	 0.0452897188	-0.0002437084	 0.335724
C	 0.6216410627	-0.7769873909	 1.1346828051	-0.410972
O	-1.3842162138	-0.3284712041	-0.1543198774	-0.460605
C	 0.6647832683	-0.3190200416	-1.3352309306	-0.171101
C	 0.093060131	 0.3895121188	-2.5648398203	-0.163071
N	 0.7440198026	-0.1053959178	-3.7766881557	-0.062566
C	 0.1231292604	-1.2676811795	-4.4055135391	-0.220499
C	 0.0075620719	 0.083189703	-5.0204984316	-0.221429
H	 1.1347995996	 1.8787152009	 0.3502966409	 0.116399
H	-0.4361321542	 2.1405702815	-0.4350866309	 0.125276
H	-0.3565236371	 1.7614563145	 1.2914053107	 0.099999
H	 0.1259304831	-0.5601108703	 2.0885644755	 0.098288
H	 0.5172213526	-1.8465098186	 0.9317074405	 0.12064
H	 1.6855010111	-0.5471839858	 1.2539093541	 0.114141
H	-1.8420225136	-0.1039956851	 0.6626356529	 0.273558
H	 1.7385488311	-0.1135380473	-1.2678745413	 0.100108
H	 0.5569032596	-1.4008783556	-1.4773153825	 0.101014
H	-1.0001820873	 0.2503239237	-2.5924691145	 0.099699
H	 0.2837073799	 1.4674872757	-2.512322273	 0.096542
H	 0.8040385316	-2.0072275011	-4.8174091561	 0.112452
H	-0.7729473962	-1.6791448128	-3.9426073038	 0.112892
H	-0.9663331309	 0.568278649	-4.9685051637	 0.106529
H	 0.602902683	 0.3501538763	-5.8892973521	 0.112399
