20
gdb 9670	4.59262	1.04428	0.97304	1.8314	72.12	-0.2577	0.072	0.3297	1247.9902	0.17491	-386.115297	-386.105537	-386.104593	-386.149704	35.122	
C	-0.0352798022	 1.6094478993	-0.0550393956	-0.468456
C	-0.0267456442	 0.0941707244	 0.0433354123	 0.341535
C	-1.2927846574	-0.5508212792	-0.478511069	-0.138624
O	-1.4266696793	-0.2375704578	-1.8603124425	-0.421668
C	 1.2638036441	-0.6589045093	-0.1804202115	-0.308672
C	 0.6449162249	-0.6248690707	 1.1958959452	-0.033807
C	 1.3138709495	 0.0949747281	 2.3369093886	-0.108916
O	 2.2615912709	-0.7972255348	 2.9133838282	-0.418369
H	 0.9279766438	 2.0479556284	 0.2158705926	 0.111135
H	-0.2635377835	 1.9061086814	-1.082405161	 0.137638
H	-0.8009116306	 2.048490049	 0.5968444326	 0.1064
H	-1.2436212757	-1.6403748105	-0.325586836	 0.081359
H	-2.1590993627	-0.1762710487	 0.0920774115	 0.081602
H	-2.2974371777	-0.525140149	-2.1492095341	 0.285992
H	 1.2353615793	-1.5868029591	-0.741102713	 0.111473
H	 2.1648201055	-0.0740771322	-0.336320244	 0.108146
H	 0.1627825121	-1.5444639795	 1.5200061756	 0.083555
H	 1.804931676	 1.01268111	 1.9810016161	 0.082827
H	 0.5595008463	 0.3976208863	 3.0818970615	 0.083257
H	 2.6459434806	-0.3649977063	 3.6819365923	 0.283592
