21
gdb 7435	3.09554	1.46375	1.17803	3.3552	76.85	-0.2338	0.0347	0.2685	1134.8218	0.186653	-366.299438	-366.289066	-366.288122	-366.334952	36.093	
C	-0.4273170226	 1.4443990615	 0.0065802633	-0.385266
C	-0.0085276367	-0.0390081116	 0.0324729671	-0.090222
C	-1.2024438824	-0.9420933233	 0.3636792774	-0.380024
C	 0.5659235814	-0.4274052503	-1.3393442176	 0.42068
O	-0.1601378634	-0.9180288409	-2.1911278796	-0.389611
N	 1.8966402044	-0.1823613591	-1.5894580045	-0.090217
C	 2.4414536857	-0.5420391479	-2.8890021659	-0.343242
C	 2.8492266232	 0.4254155043	-0.6822055156	-0.335477
H	 0.4187300719	 2.1116659868	-0.1854532275	 0.112439
H	-1.1699272947	 1.6107794204	-0.7801476964	 0.135437
H	-0.874396987	 1.7327640867	 0.9630689357	 0.116393
H	 0.7478423003	-0.1780386478	 0.8115143261	 0.079115
H	-1.9638951704	-0.8664583302	-0.4149583906	 0.139875
H	-0.900827368	-1.9913401355	 0.42895108	 0.115457
H	-1.6411289365	-0.6501962015	 1.3231857478	 0.099922
H	 2.8131689472	 0.3478295626	-3.4135301044	 0.117366
H	 3.2784153286	-1.2426347184	-2.7734807919	 0.116837
H	 1.6517031139	-1.0065106743	-3.4758645521	 0.170093
H	 2.3757426784	 0.7575275034	 0.2380023318	 0.142411
H	 3.6516799525	-0.2793856813	-0.4231557142	 0.12305
H	 3.3174659341	 1.2997042065	-1.1539197189	 0.124983
