16
gdb 115563	2.9412	1.08447	1.03511	3.0525	65.8	-0.268	-0.0074	0.2606	1202.0733	0.122522	-474.995586	-474.986389	-474.985445	-475.030224	32.599	
O	 0.0226329089	 1.3650443941	-0.3866611796	-0.419706
C	 0.1210896508	-0.0224861248	-0.134087969	-0.070408
C	-1.2516775632	-0.5513593409	 0.2568329941	 0.075157
O	-2.2052184886	-0.3232352848	-0.8115972069	-0.296909
C	-2.4201620347	-1.731569844	-1.0086404775	-0.11134
C	-1.4797108302	-2.090277113	 0.1801897399	 0.17676
O	-0.3025612447	-2.7964286846	-0.1233912066	-0.450434
C	-2.1627206723	-2.6738454371	 1.338828508	 0.234002
N	-2.6965267564	-3.1673317475	 2.2374699074	-0.326527
H	-0.6550915288	 1.47014337	-1.0656341783	 0.295241
H	 0.5027059163	-0.5745018764	-1.0028358879	 0.105358
H	 0.8283468144	-0.1556488406	 0.6899250743	 0.124537
H	-1.5909694759	-0.0811917643	 1.1853536944	 0.111603
H	-3.4729028941	-2.0096202186	-0.8992436103	 0.129348
H	-2.026815274	-2.0922632985	-1.9660339047	 0.120742
H	-0.4888398075	-3.7420827692	-0.1140651572	 0.302577
