21
gdb 84833	2.67412	1.534	1.11619	1.6962	83.99	-0.2412	0.0269	0.268	1168.0542	0.182537	-387.103149	-387.094462	-387.093518	-387.136022	34.055	
C	 0.4285348206	 1.5607580065	 0.0013150496	-0.389289
C	-0.0280672043	 0.089176039	 0.0134623449	-0.066641
C	 0.3305318333	-0.6081633283	-1.2730223986	-0.052214
C	 0.9156774496	-1.7996199981	-1.3575212981	-0.06099
C	 1.2958302156	-2.6484355142	-0.177305715	-0.333545
C	 1.1607585735	-1.9513287535	 1.163714596	 0.397306
C	 1.1763165001	-2.8515021462	 2.3780783637	-0.469647
O	 1.9511691691	-0.756865744	 1.2964995344	-0.299312
C	 0.5248009864	-0.6247038221	 1.2307037279	-0.009804
H	 1.5194097282	 1.6141470366	-0.0500659521	 0.138528
H	 0.0142154664	 2.0909331798	-0.8619634123	 0.110527
H	 0.1016787434	 2.0821391163	 0.9070444979	 0.110767
H	-1.1253346635	 0.0825339792	 0.1142258207	 0.082689
H	 0.0837000757	-0.0690017313	-2.1853683813	 0.083133
H	 1.1345372462	-2.2195603186	-2.3364183953	 0.085974
H	 0.6788432823	-3.5590543693	-0.1659742228	 0.110436
H	 2.3313601974	-3.0023766811	-0.2853725145	 0.116151
H	 2.0895966451	-3.4570718507	 2.3963643272	 0.123941
H	 1.1437764414	-2.2583612378	 3.2953442487	 0.126867
H	 0.3210027602	-3.535774008	 2.3718531919	 0.118703
H	 0.0704543734	-0.3268008943	 2.1785648772	 0.076421
