21
gdb 93494	2.69271	1.33968	1.06307	2.9446	78.6	-0.2303	-0.0198	0.2105	1206.2784	0.182102	-424.259039	-424.249933	-424.248989	-424.29265	34.726	
C	-0.166807927	 1.6017360866	 0.0184245377	-0.394642
C	-0.0064781727	 0.0754902554	-0.0057693195	-0.001654
C	 0.7645702985	-0.3849921356	-1.262967327	-0.332101
C	 2.2598726868	-0.1246658174	-1.1683923981	 0.378155
O	 2.9380828317	 0.2146285793	-2.1086619443	-0.300871
C	 2.871608326	-0.3978937915	 0.2066160537	-0.17484
O	 2.0605080651	 0.0384127034	 1.2799317921	-0.256854
C	 0.7292177387	-0.4726074124	 1.2357804421	 0.14196
C	 0.0799878258	-0.1294363256	 2.5690770098	-0.41524
H	 0.8015663601	 2.0963969514	 0.1411801852	 0.133364
H	-0.6108817865	 1.955379695	-0.9170886361	 0.116464
H	-0.8157116002	 1.9276307829	 0.8357217952	 0.118719
H	-1.0032499597	-0.3831763857	-0.0318741906	 0.075175
H	 0.6549791891	-1.4744522798	-1.3718188473	 0.120565
H	 0.3842520896	 0.0705841621	-2.1811221479	 0.120351
H	 3.0601060188	-1.4862196615	 0.2760741311	 0.104865
H	 3.8304628122	 0.118896195	 0.2816656774	 0.133211
H	 0.7764625101	-1.5729055313	 1.1394556239	 0.059358
H	 0.0981719699	 0.9486211784	 2.7464494932	 0.132738
H	-0.9593781739	-0.4706633806	 2.5903551153	 0.115427
H	 0.6219815779	-0.6142508979	 3.3849858241	 0.12585
