23
gdb 61580	3.12262	0.84538	0.74796	1.6887	86.22	-0.2618	0.0889	0.3507	1616.6085	0.204589	-388.258499	-388.248606	-388.247662	-388.29428	36.583	
C	 0.2594720767	 1.4352540547	 0.1669239733	-0.401092
C	-0.1034429089	-0.0447287913	-0.0259879192	 0.021001
C	-1.6267769869	-0.2709509031	-0.1315620306	-0.226746
C	-2.3844452255	 0.0663957405	 1.1297176884	 0.091789
C	-3.4924075683	-0.7615550511	 1.6223194337	-0.181478
O	-2.2036239622	-0.8296762179	 2.2341795462	-0.23883
C	 0.6007442944	-0.6155935329	-1.2442846471	 0.03995
C	 2.0290132406	-1.0875418659	-1.1547452864	-0.278421
C	 0.9116516998	-2.087629298	-1.3361795547	-0.277018
H	 1.3444217152	 1.5605659575	 0.2332555053	 0.117663
H	-0.0927756198	 2.0377923371	-0.6792760111	 0.108233
H	-0.1792774215	 1.8509933304	 1.0788988679	 0.115229
H	 0.2432638883	-0.6035066786	 0.8542228272	 0.085215
H	-2.0311274615	 0.328359355	-0.9599580977	 0.093078
H	-1.8114124049	-1.3224888102	-0.3783048823	 0.101927
H	-2.3856006195	 1.1173692978	 1.4229235117	 0.091428
H	-4.2779583461	-0.3165246068	 2.2320606425	 0.111471
H	-3.7895963882	-1.6458676901	 1.0593587876	 0.110887
H	 0.3223388917	-0.1329495938	-2.1798564588	 0.074347
H	 2.6944625218	-0.8980546123	-1.9898110297	 0.108559
H	 2.5137750045	-1.0465766425	-0.184322302	 0.110697
H	 0.6530895792	-2.7120690467	-0.4867180063	 0.113903
H	 0.8126907312	-2.5828434317	-2.295910088	 0.108208
