17
gdb 18799	3.20597	3.06362	2.37382	1.3574	71.28	-0.2138	0.0089	0.2227	681.09	0.145966	-326.672971	-326.667559	-326.666614	-326.70195	23.722	
C	-0.0475718774	 1.5416164755	 0.0887910287	-0.226724
C	 1.5096532424	 1.4694925599	 0.0066957904	-0.048421
C	 1.9969588553	 1.275571788	 1.4180883483	-0.069769
C	 1.5462878367	 0.1675651817	 2.0119735312	-0.077347
C	 0.8138827863	-0.7726536132	 1.0906442646	-0.100814
C	 1.8280149856	-1.0543415023	-0.0661955787	-0.15295
N	 1.3416695409	 0.1497669115	-0.7912606227	-0.144742
C	 0.0247867367	 0.023989464	-0.0274995987	 0.015696
H	-0.4835261788	 2.0067373185	 0.9738108079	 0.099573
H	-0.481439974	 1.9565348985	-0.8242264955	 0.111225
H	 2.0433258071	 2.2359473831	-0.5557622801	 0.07299
H	 2.6071055008	 2.0295306143	 1.9033562009	 0.090529
H	 1.7680649155	-0.1111416178	 3.0363209612	 0.09304
H	 0.3151408147	-1.6052587709	 1.589683763	 0.061688
H	 2.8905153762	-1.0883386637	 0.1889562789	 0.100907
H	 1.5563178468	-1.9281368053	-0.668054456	 0.104666
H	-0.7857290049	-0.5372407417	-0.5012567636	 0.070452
