19
gdb 36652	3.0626	1.23404	1.04821	1.0106	80.02	-0.2429	0.033	0.2758	1199.2811	0.15818	-385.806218	-385.797542	-385.796598	-385.840186	32.715	
C	 0.712574536	-0.2400931105	 1.2746848586	-0.469849
C	 0.385697183	 0.590854858	 0.4700492534	 0.330974
C	-0.0357591807	 1.5807899811	-0.524813437	-0.229939
O	 0.9849290097	 2.4630419811	-0.9583064801	-0.239043
C	 1.3800861823	 3.4006635786	 0.004859559	 0.143289
C	 2.5066686095	 3.1757712312	 0.9682615886	-0.0946
C	 3.5957569918	 2.3038960966	 0.3321232863	-0.222308
C	 3.7127749046	 3.3174743248	-0.8498783683	-0.219026
C	 2.6246076372	 4.1866764016	-0.2059025636	-0.121581
H	 1.003857754	-0.9694475317	 1.9896049102	 0.201736
H	-0.3826513601	 1.0658077615	-1.4270657807	 0.139287
H	-0.8906837607	 2.1516172779	-0.1273611878	 0.119253
H	 0.5445657401	 3.9713660782	 0.4152319175	 0.081861
H	 2.3867896701	 3.3592204889	 2.0300191062	 0.081213
H	 4.5061845249	 2.268046483	 0.9338838518	 0.098022
H	 3.2932998495	 1.2845298237	 0.081827625	 0.109899
H	 4.6841811765	 3.8153914587	-0.8726330006	 0.098804
H	 3.483301266	 2.9371345375	-1.8481711787	 0.108602
H	 2.6159797563	 5.2707827099	-0.1940596399	 0.083406
