23
gdb 72477	2.47523	1.73815	1.43889	1.4382	83.93	-0.2364	0.0777	0.314	1053.2282	0.208927	-388.327697	-388.319792	-388.318848	-388.35934	33.063	
C	 0.0003463012	 1.4973573225	 0.0738903825	-0.450848
C	-0.0134702466	-0.0203520897	-0.0208659529	 0.403899
C	 0.7410425774	-0.6043873775	-1.2266366551	-0.244234
C	 0.9734606744	-2.0349045524	-0.714524988	-0.029982
C	 1.4293781906	-1.7219200517	 0.7205779682	-0.081591
O	 0.7180222147	-0.5430042093	 1.1124521725	-0.310181
C	-0.3629146062	-2.8036528547	-0.7403635985	-0.207087
C	-1.420614973	-2.1289830502	 0.1563397314	-0.202379
C	-1.446715053	-0.5976879779	-0.0010333013	-0.218298
H	 1.0265010019	 1.8748789671	 0.0406385612	 0.113919
H	-0.5623707186	 1.9433843089	-0.7527030283	 0.109877
H	-0.4544585093	 1.8259784481	 1.0133698371	 0.121146
H	 0.1649510065	-0.5629225477	-2.1549450809	 0.092288
H	 1.6872831512	-0.0741350527	-1.3802507931	 0.091091
H	 1.7416084782	-2.5748618176	-1.2752658084	 0.063121
H	 1.2076725772	-2.5324005718	 1.426320927	 0.095006
H	 2.5105661856	-1.5258140041	 0.7608900538	 0.089391
H	-0.7180828822	-2.8498984993	-1.7780731571	 0.091248
H	-0.2131685757	-3.8401229002	-0.4159315608	 0.091355
H	-2.4113750646	-2.5506461971	-0.0439852485	 0.088298
H	-1.1951427853	-2.3569065136	 1.203542482	 0.112448
H	-2.0139302146	-0.1512138869	 0.8233802095	 0.09345
H	-1.9541838799	-0.3074454822	-0.9301990925	 0.088061
