10
gdb 21873	7.17222	1.38568	1.16131	6.1473	55.04	-0.2709	-0.0424	0.2285	905.0196	0.062973	-409.676885	-409.670668	-409.669724	-409.707329	22.463	
O	 0.1193606531	 1.2965135018	 0.1637611269	-0.412434
C	 0.0758272554	-0.0229447693	 0.0038413095	 0.46102
N	 0.1131664564	-0.7018981432	-1.1181736102	-0.390952
C	 0.0354314677	-1.9948998494	-0.6669730607	 0.245406
N	-0.0456094768	-2.1404805362	 0.6470413394	-0.251086
N	-0.0182550571	-0.8502609566	 1.0662479795	-0.241506
C	 0.0405011034	-3.1179430229	-1.5462150025	 0.284505
N	 0.0456347158	-4.0193699042	-2.2695830242	-0.327114
H	 0.1854795917	 1.6931752211	-0.7151984122	 0.331634
H	-0.0656429095	-0.626710961	 2.0470966646	 0.300526
