18
gdb 13365	4.235	1.13214	1.10322	1.7284	75.79	-0.2415	0.0489	0.2904	1186.2095	0.153791	-347.787061	-347.778326	-347.777382	-347.822827	29.903	
C	-0.184588004	 1.3978657091	 0.1314437705	-0.497125
C	-0.0124206824	-0.0472179747	 0.0924178061	 0.00603
C	 0.1279941073	-1.2428971389	 0.0502356159	 0.137666
C	 0.2910996718	-2.7014175013	 0.0026696264	-0.071137
C	 0.7752247488	-3.2886676199	 1.3430072106	-0.217019
C	-0.5478402142	-3.4180142287	 2.1128827281	-0.234939
C	-1.5612853642	-3.7328653387	 0.9937963353	-0.058245
O	-0.9456650655	-3.3732839105	-0.2484444926	-0.253123
H	 0.3800366461	 1.8878340124	-0.6694497518	 0.149123
H	-1.2380698536	 1.672687116	 0.0085891005	 0.150818
H	 0.1580744477	 1.8170893077	 1.0839731489	 0.146237
H	 0.9603118651	-2.9638722238	-0.8241808125	 0.103154
H	 1.2179689257	-4.2725051474	 1.1583955388	 0.10438
H	 1.5132502852	-2.6589448145	 1.8423950765	 0.111062
H	-0.5213719229	-4.191954968	 2.8831400217	 0.103903
H	-0.7932862082	-2.4684902935	 2.5964553071	 0.11695
H	-1.8057644552	-4.801060097	 0.9461767096	 0.100966
H	-2.4979253175	-3.1765010282	 1.1205876509	 0.101299
