23
gdb 107326	2.41255	1.49801	1.13775	0.2608	90.07	-0.2223	0.0231	0.2454	1202.3115	0.206103	-351.163094	-351.15398	-351.153035	-351.196567	35.879	
C	 0.0940045808	 1.4739584406	 0.3537115963	-0.378004
C	-0.0432920381	 0.0297883782	-0.147004011	-0.277037
C	-1.4512889782	-0.5310935764	-0.0936042338	 0.367851
C	-1.9424964998	-1.1411609331	 1.1988606286	-0.328116
C	-1.6806066952	-2.0333237943	-0.0018726753	-0.134811
C	-2.8667391973	-2.3154239919	-0.8581349635	-0.08892
C	-3.3418872325	-1.2004079714	-1.4157233124	-0.082099
C	-2.5219572841	 0.0267303378	-1.0576563872	-0.099011
C	-3.3805530846	 1.1799265233	-0.5104511159	-0.397928
H	 1.142907119	 1.7873964898	 0.3549476424	 0.108476
H	-0.4559304612	 2.1761684517	-0.2805048917	 0.119332
H	-0.2897804704	 1.5755678644	 1.3742672241	 0.116228
H	 0.3289109741	-0.0327698275	-1.1787940508	 0.094222
H	 0.6126448994	-0.6168464757	 0.4495573838	 0.090868
H	-1.2299706337	-1.1834519553	 2.0176782771	 0.104062
H	-2.9736706582	-1.0034806456	 1.5069803176	 0.108039
H	-0.8526154781	-2.733921732	 0.0404195614	 0.080556
H	-3.2895203806	-3.3075377918	-0.9727798977	 0.092192
H	-4.2313585774	-1.1339476432	-2.0337854512	 0.08745
H	-2.0129787006	 0.3992512336	-1.9611348768	 0.073158
H	-3.9088881444	 0.8830638081	 0.4006036395	 0.116642
H	-2.7714525043	 2.0573360102	-0.2764218214	 0.117399
H	-4.1330458846	 1.4831999606	-1.2464812122	 0.109452
