14
gdb 75670	2.98032	1.33549	1.13498	3.473	67.89	-0.271	-0.0456	0.2255	1062.0461	0.100888	-432.84302	-432.834904	-432.83396	-432.875926	29.421	
N	-0.1116902735	 1.5839162898	-0.0038973657	-0.518298
C	-0.1097713954	 0.1417028599	-0.0587695569	-0.209737
C	 0.1421580298	-0.5741224164	 1.2819806705	 0.419595
O	 1.0124716402	-0.5510024144	 2.0905157405	-0.284483
N	-1.0730376983	-1.3740856285	 1.2527117501	-0.194459
C	-2.1742103013	-0.3635184392	 1.2384487092	-0.271668
C	-1.4666924181	-0.6027217853	-0.0311422407	 0.21213
C	-2.0434323143	-1.2683848107	-1.1567197276	 0.214136
N	-2.498728218	-1.7652195877	-2.0966697997	-0.325103
H	 0.6505193795	 1.900860503	 0.5871063493	 0.256653
H	 0.0241080422	 1.9932223537	-0.9216172316	 0.249515
H	 0.5322351347	-0.3034337818	-0.8330547756	 0.12504
H	-3.1489643216	-0.8176250419	 1.3739838874	 0.164671
H	-2.0218845359	 0.5899574495	 1.7360433409	 0.162007
