17
gdb 78282	2.5941	1.4194	1.14686	2.2084	68.24	-0.2063	0.0658	0.2722	1093.5586	0.133318	-458.860218	-458.8516	-458.850656	-458.892756	33.607	
O	-0.0548767505	 1.3686038844	-0.0307238251	-0.430036
C	 0.0243724313	-0.0318244593	-0.0283230024	 0.042219
C	-0.4535238829	-0.6825648206	 1.2588437081	-0.110167
C	-1.3375560292	-0.6549434326	 0.0218028123	-0.144528
C	-1.3691906855	-2.208521169	 0.0137819437	 0.339402
O	-2.5685280902	-2.87345425	-0.172396373	-0.451283
C	-0.0607778362	-2.9228040737	-0.0112621244	 0.003429
O	 1.0220853406	-2.6192164648	-0.8485863436	-0.415155
C	-0.4797346834	-2.2313964181	 1.2709400793	-0.201449
H	 0.7201788449	 1.7051881309	 0.4310318626	 0.286368
H	 0.8218961052	-0.4565145982	-0.626631023	 0.114142
H	-0.5736590846	-0.0911127832	 2.1571971101	 0.093254
H	-2.2339580097	-0.0707818585	-0.1368898279	 0.104631
H	-2.6894955449	-3.0143892623	-1.1191769012	 0.288162
H	-0.2458370334	-3.9965621854	 0.0803640815	 0.098981
H	 1.8290342706	-2.8626842823	-0.3809294599	 0.285678
H	-0.600656192	-2.7988442172	 2.1861111829	 0.096353
