14
gdb 16478	3.08031	2.66446	1.74093	3.511	60.87	-0.2272	-0.0029	0.2243	751.8447	0.10621	-382.486885	-382.480232	-382.479288	-382.517589	25.189	
C	-0.0112528635	 1.5057293949	 0.0414206953	-0.512395
C	-0.0228496328	 0.012838921	-0.0474137673	 0.138229
C	-0.9112389042	-0.9287321667	 0.7685429963	 0.056609
O	-1.0857140844	-2.1555596428	 0.0529460209	-0.288713
C	 0.3439687014	-2.1032890866	-0.2136897434	-0.078359
C	 0.5498371755	-1.0716797832	 0.9524684372	-0.178412
C	 0.4936448191	-0.8715336937	-1.1428561329	 0.420937
O	 1.0488155443	-0.6639321831	-2.1843834415	-0.33415
H	 0.9507140092	 1.9083943326	-0.2904815139	 0.143534
H	-0.7918937006	 1.9360400602	-0.5943117556	 0.143596
H	-0.1905142165	 1.8473559751	 1.0658535929	 0.126326
H	-1.701427146	-0.5772543265	 1.4202423446	 0.124937
H	 0.8201002004	-3.0649411626	-0.3810252682	 0.109033
H	 1.2641031383	-0.9513644884	 1.7531876957	 0.128827
