15
gdb 128140	2.27494	1.56915	0.93812	6.2443	79.	-0.2061	0.0071	0.2133	1190.2208	0.112665	-412.948711	-412.940068	-412.939124	-412.982259	31.36	
C	 0.1062243458	 1.4483129823	 0.075491127	-0.347687
N	-0.1706221248	 0.0381331518	-0.1330662663	-0.409116
C	 0.510803147	-0.6839985442	-1.0704183203	 0.32324
C	 0.6868253072	-2.0614159589	-1.2030400993	 0.139033
N	 1.40838691	-2.2876459175	-2.3507351595	-0.263198
N	 1.6899902084	-1.1692526704	-2.9231222184	-0.13718
N	 1.147053823	-0.1730739601	-2.1458359859	-0.254194
C	 0.2192674994	-3.0533107703	-0.3193096141	 0.239888
C	-0.1992194464	-3.858019334	 0.4748957492	-0.435859
H	 1.1603210122	 1.6543902416	 0.3133879364	 0.131191
H	-0.1689172258	 2.02628841	-0.8143532128	 0.136
H	-0.5126320926	 1.8098166053	 0.8983513906	 0.146837
H	-0.3898439499	-0.5001947022	 0.6920573916	 0.261922
H	 1.2520332588	 0.7864778647	-2.4294633924	 0.278455
H	-0.5646848521	-4.5857417382	 1.1559437144	 0.190665
