22
gdb 6547	2.94123	1.57277	1.40439	1.4205	77.96	-0.2544	0.0727	0.3272	1040.5242	0.198227	-350.193038	-350.18355	-350.182606	-350.226211	36.788	
C	-0.0734319343	 1.5591832741	 0.2493817094	-0.424611
C	-0.0146041915	 0.0300721381	 0.0794096245	 0.260729
C	 0.6304860824	-0.5994695529	 1.3311349619	-0.400166
C	-1.4539552914	-0.5011146976	-0.076353853	-0.402734
C	 0.7852158464	-0.4254873879	-1.1507156758	-0.006024
C	 1.0690268133	 0.4347444508	-2.3683675667	-0.353927
C	 2.195841664	-0.021827448	-1.4731684998	 0.080478
O	 2.838627889	 0.8937784119	-0.6281440706	-0.412067
H	 0.9258733818	 1.9908978471	 0.3210872099	 0.131006
H	-0.5985693764	 2.0345026044	-0.5860338226	 0.103202
H	-0.6249009786	 1.8071992844	 1.1629516631	 0.101723
H	 0.0394644713	-0.3788055663	 2.2271423933	 0.100093
H	 0.69422117	-1.6893310487	 1.2346828186	 0.099831
H	 1.6423163341	-0.2132588474	 1.4805250724	 0.132704
H	-1.9255394265	-0.1029603857	-0.9812539019	 0.10959
H	-1.4706623379	-1.5948142168	-0.1420735236	 0.103647
H	-2.0702602169	-0.2094970292	 0.781161154	 0.105035
H	 0.5897141582	-1.4711942222	-1.381624197	 0.080204
H	 0.9695484681	 0.0058735608	-3.3600594066	 0.105657
H	 0.8081959363	 1.4851899683	-2.3032317217	 0.115189
H	 2.8535783021	-0.8040741628	-1.8531221498	 0.082885
H	 3.3860100065	 1.4675499754	-1.1743038981	 0.287555
