16
gdb 1252	6.1091	1.31142	1.13225	3.6492	58.93	-0.2474	0.0347	0.2821	1017.2473	0.135777	-362.94204	-362.933789	-362.932845	-362.975246	28.745	
C	-0.0196659228	 1.5161575956	-0.035126976	-0.408885
C	-0.1285687518	-0.0045117496	-0.0119105605	 0.121464
O	 0.858930148	-0.5967007786	 0.8378370698	-0.435534
C	-1.5261944526	-0.482854607	 0.3962001624	-0.152507
N	-1.5614396686	-1.9297345945	 0.4647977317	-0.273891
C	-2.5745449845	-2.6780996075	-0.0397341465	 0.153695
O	-3.5839139427	-2.2386004444	-0.5511894439	-0.328036
H	 0.9946100505	 1.8193166364	-0.3071224976	 0.131345
H	-0.7182256428	 1.950023534	-0.757290006	 0.129983
H	-0.2535874719	 1.9402681655	 0.9496556545	 0.112045
H	 0.0962864198	-0.4070903712	-1.0062791923	 0.10264
H	 0.8174288961	-0.1490389009	 1.6910408036	 0.281217
H	-1.7911812667	-0.0392229797	 1.3690057631	 0.096502
H	-2.2844083449	-0.166268258	-0.3242030736	 0.144876
H	-0.7378535454	-2.3804105472	 0.8338063944	 0.252657
H	-2.3762322497	-3.7629241529	 0.0706312167	 0.072429
