17
gdb 127060	5.50998	0.76337	0.70845	2.6126	71.4	-0.2723	-0.0294	0.2429	1595.0837	0.135465	-455.135341	-455.126551	-455.125607	-455.17079	29.98	
C	-0.0878614636	 1.4326840572	 0.3960171199	-0.386993
C	-0.0542614029	-0.0317289672	-0.0020517018	-0.026974
O	-1.3779680721	-0.5391965925	 0.0520164842	-0.242436
C	-1.4553547175	-1.8980582963	-0.2957029571	-0.175758
C	-2.8691886333	-2.3567088405	-0.1481444559	 0.426003
N	-3.5964255055	-2.988918836	-1.0211935663	-0.31221
C	-4.7653139285	-3.1748965798	-0.3242293261	 0.03701
N	-4.7734846665	-2.694505295	 0.8880687192	-0.107021
O	-3.4932816607	-2.1442112096	 1.0151854799	-0.182581
H	 0.92060113	 1.855514011	 0.367342227	 0.11932
H	-0.7234565083	 2.0016258504	-0.2879618837	 0.13266
H	-0.4848243838	 1.5453722573	 1.4084953471	 0.134375
H	 0.3535144176	-0.1513590457	-1.0194100888	 0.093629
H	 0.5954004071	-0.6077326278	 0.6778863821	 0.092995
H	-1.1529349815	-2.0825574409	-1.3364082302	 0.130339
H	-0.8067920521	-2.5099989488	 0.3552754551	 0.118637
H	-5.6298216384	-3.6762070859	-0.7342172746	 0.149007
