21
gdb 115928	3.54789	1.10474	0.93308	2.4615	78.34	-0.2495	0.0815	0.3311	1304.8075	0.18352	-424.216477	-424.207889	-424.206944	-424.249941	32.728	
C	 0.1298400505	 1.3274709248	-0.1149311806	-0.242259
O	-0.0013036619	-0.0563753161	 0.1092896672	-0.248062
C	-1.3325287473	-0.5457420893	 0.0571928661	 0.144902
C	-1.8566223521	-0.7106514229	-1.3752270826	-0.230478
C	-3.3261402582	-1.1567694473	-1.3599264189	-0.247173
C	-3.5348535688	-2.381144664	-0.4960620524	 0.069634
O	-2.6013912791	-3.4474318857	-0.6823267348	-0.254834
C	-2.5655210054	-2.72570339	 0.5588680537	 0.030377
C	-1.3295366891	-1.8809322053	 0.8108048933	-0.243767
H	 1.1837801155	 1.5776931307	 0.0306189243	 0.127418
H	-0.1579040403	 1.6248292732	-1.1339482922	 0.106779
H	-0.4738062598	 1.9135501651	 0.5964166352	 0.101724
H	-1.9957682646	 0.1619861255	 0.5868956442	 0.056647
H	-1.7671272992	 0.2308616087	-1.9255065594	 0.093381
H	-1.245083629	-1.4555697858	-1.8937682057	 0.121115
H	-3.9641660358	-0.3508836082	-0.971745363	 0.101186
H	-3.6742901932	-1.3652617755	-2.3785063968	 0.108869
H	-4.5690441924	-2.7092445756	-0.3786176463	 0.084245
H	-2.9167523127	-3.3141415004	 1.4066521358	 0.090105
H	-0.4449898576	-2.4479221473	 0.4985292457	 0.128096
H	-1.2217321694	-1.6920053647	 1.8835669073	 0.102097
