23
gdb 123179	7.15539	0.45794	0.44515	2.1368	84.44	-0.2489	0.0785	0.3274	2472.9947	0.203891	-425.395971	-425.385077	-425.384133	-425.433839	37.876	
O	-0.2029470242	 1.3781745912	-0.3127045088	-0.419529
C	-0.0494364025	-0.0118374877	-0.0695328035	-0.071984
C	-1.4322656315	-0.6470981751	-0.120438991	-0.18171
C	-1.3997519548	-2.1479723176	 0.1320687778	-0.050186
O	-2.7165807604	-2.6444081295	 0.0453999432	-0.246312
C	-2.8041562432	-4.0361669494	 0.2743820801	-0.06628
C	-4.2449633269	-4.4596853423	 0.2001399975	 0.012185
C	-4.8766417916	-4.7433760583	-1.1371396138	-0.24585
C	-4.5835551435	-5.8773957431	-0.1873959437	-0.273151
H	 0.6673325557	 1.7858130692	-0.2828522991	 0.285008
H	 0.6053433437	-0.4777290876	-0.8247332709	 0.084052
H	 0.4121895217	-0.1944429897	 0.9152796574	 0.08397
H	-2.0757685706	-0.1675994584	 0.6246708281	 0.115443
H	-1.8799711822	-0.4555619203	-1.1013117254	 0.11615
H	-0.7511949688	-2.6510069922	-0.6077781642	 0.080174
H	-0.9720162463	-2.3649708935	 1.1273920334	 0.081165
H	-2.2106633556	-4.5879097395	-0.476696373	 0.076372
H	-2.3785138596	-4.284391149	 1.262721196	 0.082923
H	-4.8804043819	-3.9933100366	 0.94722989	 0.089492
H	-5.9092851031	-4.4507046464	-1.2895668352	 0.112701
H	-4.2521130172	-4.6438191882	-2.0186906986	 0.113096
H	-3.7653741101	-6.5469860347	-0.4327404736	 0.109892
H	-5.413222087	-6.3610216614	 0.3157167273	 0.112379
