22
gdb 87396	1.9234	1.58252	1.09116	1.3926	82.49	-0.2363	0.0691	0.3054	1229.8764	0.193579	-404.317526	-404.307955	-404.30701	-404.351409	36.907	
C	-0.2342734446	 1.4298752819	-0.2177963967	-0.393828
C	-0.0265955988	-0.0467858704	 0.0194079897	-0.074026
N	 1.3483032889	-0.5617635892	-0.1424713829	-0.399866
C	 0.7071977591	-0.653670071	 1.1621059811	 0.282506
C	 1.2234572932	-0.084255602	 2.4993508921	-0.031883
C	 1.04042199	 1.3776120797	 2.8791736935	-0.413903
C	 0.3370737107	-1.1486060752	 3.2160964401	-0.284896
C	 0.2433507069	-1.9321499755	 1.8797216828	 0.078867
O	-0.9544688267	-2.561777213	 1.4962757923	-0.428168
H	 0.6238120867	 2.0074524171	 0.1299579279	 0.129746
H	-0.3569877297	 1.6235454171	-1.2891473273	 0.11826
H	-1.1325654071	 1.7951260591	 0.2921534926	 0.109512
H	-0.820850996	-0.6802699287	-0.3782012689	 0.0839
H	 1.3419213625	-1.4707228823	-0.6015268201	 0.229094
H	 2.280791431	-0.3572540481	 2.6001975617	 0.082673
H	-0.001031518	 1.6949945891	 2.7638564548	 0.11111
H	 1.3226925596	 1.5360563167	 3.925960864	 0.113417
H	 1.6651567764	 2.0354442037	 2.2669767207	 0.124799
H	 0.750415514	-1.6666902952	 4.0836714326	 0.10202
H	-0.6386616162	-0.7276653151	 3.4863867935	 0.090341
H	 1.0115531216	-2.7120041851	 1.8234598211	 0.092908
H	-1.6644123034	-1.9156840936	 1.5787811455	 0.277418
