13
gdb 128	20.60318	2.12564	2.08237	2.7552	47.03	-0.2487	-0.0195	0.2292	599.5103	0.112697	-232.36363	-232.357283	-232.356339	-232.39356	20.766	
C	 0.0112520601	 1.5625754256	-0.1080320915	-0.376066
C	-0.0172150641	 0.0330977508	-0.1596756619	-0.175005
C	-1.3779069451	-0.5495329902	 0.2621773478	-0.252281
C	-1.3572736991	-2.0593447395	 0.3082420465	 0.15954
O	-2.1014434261	-2.7836543241	-0.3008455445	-0.237103
H	 0.9867608659	 1.9491775859	-0.41808599	 0.11858
H	-0.7459067664	 1.9949839333	-0.7706140956	 0.121987
H	-0.1875701925	 1.9277271571	 0.9054801702	 0.117751
H	 0.2197719874	-0.3076737623	-1.1747668009	 0.113989
H	 0.7679604999	-0.3726035237	 0.4913879335	 0.104301
H	-1.6206716854	-0.191775446	 1.2740473398	 0.116219
H	-2.179607479	-0.2304817702	-0.4106936721	 0.120489
H	-0.5639880557	-2.4832875968	 0.9701129686	 0.067599
