19
gdb 116015	2.40691	1.25007	0.88466	0.7417	74.37	-0.2474	0.0122	0.2596	1327.6791	0.158115	-460.153465	-460.144019	-460.143075	-460.188288	33.566	
C	 0.0549606059	 1.2686423292	-0.2352335274	-0.239008
O	-0.0326834994	-0.1410146395	-0.1278940782	-0.243798
C	-1.3300495936	-0.6038455744	 0.1589959014	 0.124019
O	-2.2363337878	-0.3967452211	-0.9079084689	-0.270808
C	-2.5363475473	-1.6405541545	-1.5413984065	-0.122182
C	-1.9349857573	-2.6835223777	-0.6461874158	-0.21011
C	-1.2632222933	-2.1021566722	 0.3422823664	 0.25657
C	-0.4687335512	-2.7337074384	 1.4426641799	-0.174287
O	-0.3181381602	-4.1350112528	 1.3035617847	-0.408847
H	 1.1063148057	 1.5129582164	-0.40213645	 0.125269
H	-0.5434234252	 1.6443616453	-1.0735336393	 0.127345
H	-0.2843060024	 1.7622525321	 0.6884978068	 0.104501
H	-1.7179222282	-0.0477991342	 1.0303121176	 0.067141
H	-3.6273401904	-1.7308605363	-1.633102659	 0.114368
H	-2.1174373993	-1.6710036836	-2.5591767718	 0.111101
H	-2.0402899949	-3.7481744688	-0.8080306603	 0.111973
H	 0.5023448184	-2.2200235379	 1.5172590984	 0.116929
H	-0.9735362019	-2.5816164136	 2.4060002107	 0.124479
H	 0.1900151324	-4.2892159879	 0.5001238513	 0.285345
