18
gdb 55527	3.90056	0.95406	0.80399	4.9371	76.31	-0.2475	-0.0049	0.2426	1430.2565	0.147493	-435.286849	-435.277497	-435.276552	-435.322182	33.14	
C	-0.0385885397	 1.4230290269	-0.1593688173	-0.46754
C	 0.1175423994	-0.0618873334	 0.0533365521	 0.381151
N	 1.2138981975	-0.5596546037	 0.449524465	-0.4912
N	-1.0710920834	-0.7727542066	-0.2342611501	-0.391164
C	-1.2632491613	-2.1338843426	-0.1409302339	 0.459367
O	-0.4104082988	-2.9353298312	 0.1813497704	-0.365662
N	-2.5770357951	-2.4889384179	-0.5257228478	-0.14909
C	-3.6589338106	-2.4185906755	 0.4687389039	-0.239588
C	-3.120905563	-3.7272962332	 0.0004222137	-0.208267
H	 0.9042845398	 1.9126487733	 0.0793686107	 0.158437
H	-0.3052988381	 1.6456856679	-1.1993044077	 0.132257
H	-0.829436621	 1.8330241845	 0.4796497919	 0.129571
H	 1.1386740996	-1.5747347865	 0.5292263767	 0.248035
H	-1.8531577866	-0.2473026171	-0.5933655503	 0.256831
H	-3.3945055893	-2.0999420174	 1.4738941477	 0.1376
H	-4.6091121098	-2.0443035614	 0.0994050438	 0.129483
H	-3.6855779448	-4.3205385301	-0.7118286018	 0.12958
H	-2.4821377049	-4.2857198257	 0.6776365131	 0.150199
