16
gdb 64625	2.9937	1.42997	1.34321	2.8316	75.39	-0.2419	-0.0096	0.2323	1010.3554	0.124038	-400.681389	-400.673658	-400.672714	-400.713268	30.91	
O	 0.0332978546	 1.3972978604	-0.0350819606	-0.463997
C	 0.0547502034	-0.0243279916	-0.0426198605	 0.187671
C	 0.6954713286	-0.5729870968	 1.239125924	-0.137283
C	-0.1570908466	-1.2870280815	 1.9731700608	-0.064759
C	-1.4948135707	-1.3567574459	 1.3098287868	-0.074787
N	-2.1205989605	-0.0029009796	 1.1585320371	-0.357492
C	-1.3752751558	-0.6132881841	 0.0395950688	-0.109211
C	 0.7571104597	-0.4737060207	-1.242788794	 0.305781
C	 1.3259507053	-0.8881304128	-2.2163490937	-0.437241
H	-0.6327099309	 1.6186042993	 0.6336216218	 0.290224
H	 1.7107369191	-0.301001232	 1.4992874481	 0.114852
H	 0.0497618695	-1.724306003	 2.9424824596	 0.108933
H	-2.1461373811	-2.2154876815	 1.4262351305	 0.100231
H	-3.1187150414	-0.1058465179	 0.9834693322	 0.235356
H	-1.8920190136	-0.8871755727	-0.8717227196	 0.105104
H	 1.8345344302	-1.2402290397	-3.079616441	 0.196618
