17
gdb 37182	4.0242	1.66649	1.51218	3.1923	70.68	-0.2457	0.0636	0.3093	896.7541	0.137221	-421.720036	-421.713912	-421.712968	-421.750108	26.431	
C	-0.0679753895	 1.5254609571	 0.1716896029	-0.251687
C	 1.4630471956	 1.565606015	-0.2030389742	-0.338465
C	 1.288109619	 0.1381452233	-0.7127515124	 0.404558
O	 0.4943386104	 0.1569395988	-1.9463668292	-0.302576
C	-0.3369287309	-0.7992843336	-1.2546962164	-0.006963
C	 0.6704042387	-2.0048361701	-1.1138494696	 0.021348
O	 1.7788977924	-1.9317475436	-2.0168679667	-0.225776
C	 1.9018986936	-1.2788857483	-0.7551387257	-0.084828
C	-0.0410354185	-0.0428269984	 0.0661199163	-0.047342
H	-0.3106125732	 1.8971090918	 1.1685280398	 0.103537
H	-0.7036764193	 2.0165544181	-0.5636057011	 0.12607
H	 1.7953756453	 2.3048574455	-0.9346252844	 0.119295
H	 2.0982753285	 1.6151759176	 0.6861305885	 0.109718
H	-1.3148660245	-0.9782859601	-1.7044144895	 0.085525
H	 0.3842372357	-2.9883460932	-0.7569675516	 0.104595
H	 2.669161714	-1.6271585218	-0.0730786957	 0.108307
H	-0.0756660075	-0.5867621182	 1.013042669	 0.074685
