20
gdb 72442	2.34626	2.14164	1.50848	1.5435	76.77	-0.2338	0.0775	0.3112	951.8083	0.173947	-403.129139	-403.122025	-403.12108	-403.160066	30.088	
C	-0.0463377297	 1.4935773192	 0.0168435879	-0.497347
C	 0.0057390647	-0.0226581277	 0.0303631217	 0.283233
C	 0.7962565239	-0.6817789093	-1.1303559713	-0.09011
O	 1.0628000382	-2.0251160569	-0.6836991584	-0.283488
C	 0.4862413565	-2.1237706311	 0.6373587123	 0.08899
C	 0.7213637	-0.7231248861	 1.2125521273	-0.274337
C	-1.0272396922	-2.1588866917	 0.4113301166	-0.046475
N	-1.813716008	-1.2777353275	 1.3080189005	-0.358911
C	-1.3404444521	-0.7678044666	 0.0020711259	-0.063992
H	 0.9597611698	 1.9256261122	 0.0516265254	 0.11523
H	-0.5377861944	 1.8688073176	-0.8885500402	 0.111882
H	-0.6061410203	 1.8704833154	 0.878593633	 0.128025
H	 0.2255895914	-0.7091000857	-2.0676832248	 0.091193
H	 1.746536453	-0.163672866	-1.3180846772	 0.092438
H	 0.9401582048	-2.9756373498	 1.1431528643	 0.072275
H	 1.7856079515	-0.4813633315	 1.2612683075	 0.094164
H	 0.2417419258	-0.5481294135	 2.1733702	 0.128549
H	-1.4887630923	-3.0252383096	-0.048185499	 0.092891
H	-2.796030415	-1.5264027636	 1.2173214719	 0.231802
H	-2.0612898255	-0.538427868	-0.7768087535	 0.083987
