18
gdb 32957	4.12415	0.90251	0.75314	2.6825	76.65	-0.1919	0.042	0.2339	1501.5302	0.148616	-435.287252	-435.277912	-435.276968	-435.322418	32.94	
C	 0.0326708618	 1.3226281617	-0.0503668994	-0.22473
O	-0.0172155479	-0.0771657303	-0.2021300333	-0.248854
C	-1.2953339252	-0.6153512727	 0.081352665	-0.171997
C	-1.2071323309	-2.103735399	-0.0199071438	 0.327963
N	-2.1987727773	-2.9348227868	-0.2325347232	-0.31645
C	-1.6333030085	-4.1940329642	-0.2086374397	-0.156907
C	-0.2833762726	-4.1131329664	 0.0267465848	 0.265328
N	 0.745223922	-5.0580931727	 0.199737595	-0.61485
N	-0.025937124	-2.7653339999	 0.1597110817	-0.289883
H	 1.0527249673	 1.6397594978	-0.2794155885	 0.128596
H	-0.6609175882	 1.8302206679	-0.737914194	 0.112004
H	-0.2155587091	 1.6303463632	 0.9775116658	 0.108706
H	-1.6136565422	-0.3096295353	 1.0940962507	 0.105809
H	-2.0587001682	-0.2468942973	-0.6200823017	 0.120364
H	-2.2245779187	-5.0837535043	-0.3660058716	 0.091964
H	 0.3550970338	-5.9811872413	 0.3458672149	 0.249543
H	 1.3628518427	-5.110398303	-0.6058905893	 0.245146
H	 0.865564265	-2.3312098276	 0.3318984567	 0.268247
