18
gdb 75095	3.30129	1.26225	0.97284	3.8006	82.71	-0.2141	-0.0306	0.1835	1213.8027	0.149152	-401.9985	-401.990212	-401.989268	-402.031355	31.621	
C	-0.0138481713	 1.5691685688	 0.0136380574	-0.478249
C	 0.0241172605	 0.0676854675	 0.0038627162	 0.26912
C	 0.0671381837	-0.6251751103	-1.1375184371	-0.064302
N	 0.0368215171	-2.0209370747	-1.2586900714	-0.339553
C	-0.704229025	-2.9758206888	-0.5755467476	 0.356702
O	-0.7445132764	-4.1203479272	-0.9974294257	-0.376149
C	-1.4597093814	-2.5719401532	 0.6320154473	-0.117397
C	-1.1639894128	-1.5830862927	 1.4797687482	-0.070319
C	 0.0179865647	-0.6561148653	 1.3387094906	-0.372885
H	 0.8142587785	 1.9817887954	 0.6044982031	 0.125345
H	 0.0502004255	 1.9827483632	-0.9967135453	 0.122424
H	-0.9395387177	 1.9443362206	 0.4695193273	 0.128159
H	 0.1392798269	-0.110162156	-2.0914372773	 0.102286
H	 0.4145124602	-2.4098238551	-2.1122228459	 0.249885
H	-2.2917514746	-3.237640346	 0.8365088559	 0.116528
H	-1.8065732338	-1.4410287104	 2.3458396749	 0.106121
H	 0.9455868771	-1.2394577742	 1.4350851521	 0.133313
H	 0.0219152287	 0.0700007384	 2.1554235472	 0.10897
