20
gdb 85918	2.68397	1.30257	1.11061	3.0167	76.32	-0.2645	0.0219	0.2864	1191.1048	0.170094	-440.320836	-440.311659	-440.310714	-440.354311	35.404	
C	-0.0247333483	 1.4792039014	 0.2390344358	-0.423247
C	-0.0768063737	-0.0155685611	-0.0518003781	 0.35255
C	-1.5034408288	-0.480289431	-0.3518705997	-0.417073
C	 0.9420655028	-0.4706997612	-1.1207000891	-0.283816
C	 1.3820128254	-1.8484733012	-0.6177917754	 0.06628
O	 2.680426704	-2.2167906889	-0.9991086779	-0.442625
C	 1.2499560667	-1.6792836346	 0.8844116952	 0.380773
N	 1.9281396565	-2.3632059946	 1.7022127222	-0.572
O	 0.3674460529	-0.7001296244	 1.1734692802	-0.263711
H	 0.9839248618	 1.7778741846	 0.5362986938	 0.127402
H	-0.3047269344	 2.0463545037	-0.6541539837	 0.123271
H	-0.716683873	 1.7425923827	 1.0442577661	 0.127036
H	-1.9013092253	 0.0521750412	-1.221261338	 0.122829
H	-1.5393824122	-1.5527230102	-0.5632857505	 0.125509
H	-2.154378552	-0.2790175229	 0.5034204665	 0.129894
H	 0.5109171143	-0.4856327907	-2.1233303967	 0.112748
H	 1.8163437009	 0.1873762779	-1.1272392064	 0.11886
H	 0.6556328054	-2.6148089729	-0.9377677915	 0.092322
H	 3.0618845933	-2.6496502944	-0.220405125	 0.29604
H	 1.7482703538	-2.0989162934	 2.6705011123	 0.226959
