18
gdb 110330	2.32437	1.36376	1.25191	3.6362	71.55	-0.2498	-0.0177	0.2321	1118.3245	0.146696	-439.057491	-439.048564	-439.047619	-439.091535	32.636	
C	-0.3329887851	 1.5434584581	 0.0909998154	-0.423969
C	 0.088420348	 0.0829603683	-0.0001064126	-0.112638
C	 0.7687954023	-0.534813522	-1.2280454686	-0.083368
C	 2.204536407	-0.2345040766	-1.387769181	-0.019708
C	 2.9658037729	 1.0202509492	-1.0112217393	-0.095816
O	 4.3217126517	 0.7190868106	-0.7419978678	-0.416305
N	 1.8137402365	-1.2481974257	-0.348292974	-0.198776
C	 1.2928381883	-0.4811426938	 0.7738683726	 0.367108
O	 1.7030728397	-0.4181539602	 1.8917131848	-0.30659
H	 0.4672249389	 2.2286578407	-0.1974839194	 0.130976
H	-1.1909421916	 1.737879999	-0.5600764311	 0.127699
H	-0.6280778994	 1.7825606591	 1.1171691746	 0.142109
H	-0.7637477898	-0.5565122788	 0.2655237928	 0.12546
H	 0.2372967558	-1.1069427222	-1.9805576975	 0.112469
H	 2.6755290803	-0.7481382823	-2.2239742323	 0.122108
H	 2.9673072819	 1.7060848168	-1.865416458	 0.119638
H	 2.4999539028	 1.5441922973	-0.1674552136	 0.109474
H	 4.3408134499	 0.1270547324	 0.018897215	 0.30013
