18
gdb 88299	3.88386	1.0448	0.92224	4.1863	75.91	-0.2379	-0.007	0.231	1289.4632	0.147239	-439.067856	-439.059349	-439.058404	-439.101562	31.786	
O	 0.0192158352	 1.3032298334	-0.2449250749	-0.422156
C	-0.0433656436	-0.0533733436	-0.0096745203	 0.159143
C	-0.4334921362	-0.6236796806	 1.3065408265	-0.32882
C	-1.4006038096	-0.7786405239	 0.1235470706	-0.197415
C	-2.6013015428	 0.0820003041	 0.1117349686	 0.418188
O	-2.5948311139	 1.2401735189	 0.5138189862	-0.398891
N	-3.7258782915	-0.473534979	-0.4853266436	-0.088144
C	-4.4850802692	-1.5925954659	 0.045726205	-0.233634
C	-5.0656732863	-0.2093911258	-0.022160299	-0.217823
H	-0.8053901672	 1.6877593715	 0.1038033598	 0.304845
H	 0.7037053177	-0.5845874808	-0.5910613543	 0.113467
H	 0.0494468194	-1.5258987218	 1.6655679533	 0.118591
H	-0.7436931688	 0.0781337843	 2.0735803143	 0.135624
H	-1.5046467209	-1.7568299493	-0.3298960513	 0.09758
H	-4.7871213961	-2.3482646762	-0.6739505625	 0.131267
H	-4.2065852782	-1.9729189619	 1.0255339848	 0.134956
H	-5.1633946626	 0.3512421226	 0.9032209878	 0.141584
H	-5.7952598052	 0.029298994	-0.7902471912	 0.131637
