19
gdb 109625	2.14758	1.22858	0.99963	6.2739	78.66	-0.2259	0.0324	0.2583	1287.9635	0.159388	-415.355527	-415.345307	-415.344363	-415.390908	36.932	
C	-0.2116425835	 1.388279918	-0.0092389074	-0.326394
N	 0.2067800861	-0.004148369	 0.0613242896	-0.279085
C	 0.8654210023	-0.5161191009	-1.0943727298	-0.014689
C	 1.7253539485	-1.7433057579	-0.986154927	-0.117082
N	 1.8901935492	-2.3292530616	 0.3159286485	-0.519714
C	 0.3339134854	-1.8653325516	-1.6466470699	 0.123864
N	-0.7891124694	-2.4327659931	-0.9677007032	-0.562032
C	 0.3496338018	-2.0344462666	-3.0806247019	 0.281353
N	 0.4008501118	-2.1578842302	-4.2305821065	-0.356798
H	 0.6135821786	 2.0956863162	-0.1945813169	 0.106368
H	-0.9470286242	 1.5132732445	-0.8101916739	 0.140471
H	-0.695198059	 1.6655318858	 0.9311599987	 0.126818
H	 0.7149020658	-0.2270070036	 0.9072167808	 0.234075
H	 1.1584109747	 0.2184806371	-1.8405430905	 0.109479
H	 2.5571633936	-1.7909229072	-1.6898605352	 0.098674
H	 2.0238996784	-3.3334211076	 0.2423507081	 0.242525
H	 2.7268829715	-1.9602266231	 0.7581942042	 0.241482
H	-0.5602465033	-3.3243192712	-0.542275646	 0.230203
H	-1.0483243383	-1.7895398382	-0.2200961015	 0.240482
