18
gdb 75928	2.54938	1.62073	1.15222	1.3501	71.75	-0.2435	-0.0327	0.2108	1070.5042	0.148063	-439.087266	-439.079093	-439.078148	-439.120058	31.468	
O	 0.4719189209	 0.6992234665	-0.908540417	-0.442384
C	 0.0801001082	-0.3920176493	-0.1303022086	-0.030532
C	 0.451083441	-0.2398646911	 1.3416337364	 0.373248
O	 1.2808064684	 0.5473656671	 1.7263313821	-0.330523
C	-0.4842820861	-1.1097581726	 2.1756522752	-0.32894
C	-1.553070216	-1.6083878143	 1.1686488472	-0.292383
C	-1.4176000594	-0.6553778843	-0.0173643735	 0.327189
C	-2.3876859444	 0.4229570048	-0.3241084661	-0.28583
N	-2.2884245624	-0.786216756	-1.1748727344	-0.389263
H	 1.0603328426	 1.2248110138	-0.3440779613	 0.295688
H	 0.5591540408	-1.3207137261	-0.4985684471	 0.097312
H	 0.0699799971	-1.916283453	 2.6652105436	 0.139157
H	-0.9044948483	-0.4884548602	 2.9728162851	 0.143606
H	-1.3351463201	-2.6313650919	 0.8426300396	 0.115842
H	-2.5624787598	-1.6091268961	 1.583384008	 0.119619
H	-3.3086162421	 0.5031799018	 0.2469101146	 0.115103
H	-1.9904723273	 1.3552254908	-0.7125742605	 0.130813
H	-1.771839243	-0.5556110498	-2.0217552833	 0.242276
