13
gdb 45406	2.33739	1.81348	1.27648	4.0447	65.19	-0.2667	-0.0335	0.2333	969.015	0.087745	-456.512529	-456.505108	-456.504164	-456.544612	27.5	
O	-0.1133998245	 0.0363458997	-0.4390242186	-0.3036
C	-0.0584725625	 1.1606957843	-0.0773128501	 0.423319
O	-1.042289618	 1.9087178478	 0.5420702634	-0.2555
C	-0.2094950922	 3.0968112978	 0.6185308881	 0.008314
C	 0.6522381504	 3.1230209023	 1.879803247	-0.107417
O	 1.67572068	 2.3118290546	 1.2425244597	-0.313769
C	 0.9738590674	 2.3261379009	-0.0277352316	 0.094313
C	 1.7570431669	 2.6591585115	-1.1786531598	 0.242936
C	 2.3934598096	 2.9270673512	-2.1618332946	-0.392864
H	-0.7074705896	 3.9793473919	 0.2274324404	 0.129021
H	 1.0450392068	 4.1123827097	 2.1375242075	 0.12852
H	 0.2155299798	 2.641183135	 2.7587640363	 0.134708
H	 2.962709716	 3.1581310033	-3.0291355978	 0.212021
