16
gdb 8049	3.43245	1.87942	1.51243	4.4866	69.73	-0.2526	0.0035	0.2561	870.5622	0.131318	-342.721952	-342.714827	-342.713883	-342.753136	27.153	
C	-0.0251496532	 1.5106045619	 0.0350782368	-0.520952
C	 0.0341689484	 0.0061696243	 0.0282398623	 0.298975
C	 0.5308149681	-0.9696327533	-1.0661838298	-0.205988
N	 0.0661207607	-1.9497019511	 0.0274412767	-0.141462
C	 0.7563541738	-0.9664992152	 0.9950841072	-0.22327
C	-1.1529302703	-1.0047159136	 0.1343832863	-0.144523
C	-1.9369285196	-1.078931038	 1.3587628886	 0.285234
N	-2.578961484	-1.1055819434	 2.3200292485	-0.330225
H	 0.9793963184	 1.9375665565	-0.0514280479	 0.130414
H	-0.6248902	 1.8849820433	-0.8010957181	 0.128475
H	-0.4711652148	 1.8783294486	 0.9647901728	 0.141189
H	-0.0398741625	-1.0454819059	-1.996206544	 0.107565
H	 1.6058576274	-1.0193906787	-1.251904577	 0.112001
H	 1.8466331457	-1.0135484429	 0.9446993973	 0.109698
H	 0.4014904195	-1.0401113005	 2.0251363624	 0.134632
H	-1.8168827774	-1.0792085521	-0.7315936521	 0.118237
