16
gdb 44689	3.20277	1.37814	1.17991	3.4438	70.01	-0.2544	-0.0401	0.2144	1052.3145	0.124907	-437.914118	-437.90673	-437.905786	-437.946772	28.092	
N	 0.0543229319	 1.2836068942	 0.1415305442	-0.526344
C	 0.0067797876	 0.0380608081	-0.0412197622	 0.39978
C	-1.2385285156	-0.8214176498	 0.0971511516	-0.320469
C	-0.7124113809	-2.2524806232	-0.0004268243	-0.168438
C	 0.7622153607	-2.1197544601	-0.4903816033	 0.080015
C	 1.2817268869	-2.9260265558	 0.7301197014	-0.362174
C	-0.1505108536	-2.8847251278	 1.2969142268	 0.392518
O	-0.6466796946	-3.1860484278	 2.3403334358	-0.280401
O	 1.0836483709	-0.7321486701	-0.4083053443	-0.243439
H	 0.997924778	 1.638743167	-0.0204220839	 0.226
H	-1.7478755421	-0.6082884649	 1.0389124084	 0.159817
H	-1.9341529498	-0.5853792958	-0.713178786	 0.143236
H	-1.355896086	-2.9343463037	-0.5594550718	 0.112893
H	 1.0314676896	-2.487680158	-1.4808807039	 0.098868
H	 1.5955138006	-3.9460266798	 0.4847261005	 0.13987
H	 2.0609979363	-2.4463546327	 1.3267760309	 0.148268
