15
gdb 98964	3.53323	0.88478	0.71072	2.846	66.24	-0.2705	-0.1084	0.1621	1474.3636	0.111163	-491.117368	-491.10827	-491.107326	-491.152135	31.58	
O	 0.2380752462	 1.3210913206	 0.2360367056	-0.415695
C	-0.0243118554	-0.0451049913	 0.2905419377	-0.111349
C	-1.4744627784	-0.3423499447	-0.0499405413	 0.373685
N	-2.2454049644	 0.6226927732	-0.3305252832	-0.523506
N	-1.8057302131	-1.7047076017	-0.0129997226	-0.377446
C	-3.0289675568	-2.2519454429	-0.2746045965	 0.319251
O	-4.0440317043	-1.6599442656	-0.5838732932	-0.333588
C	-3.0265797105	-3.7784994516	-0.1395197955	 0.10976
O	-2.0454646118	-4.4052985991	 0.1646171065	-0.239744
H	-0.6086207952	 1.7306673849	-0.0143139737	 0.30088
H	 0.6192678121	-0.6017223099	-0.4127726014	 0.111887
H	 0.1873272781	-0.4505677874	 1.2952621391	 0.111895
H	-3.1949195001	 0.3222039544	-0.5441183755	 0.260715
H	-1.0878574518	-2.379064711	 0.2279129184	 0.279075
H	-4.0128060547	-4.2333126378	-0.3496851243	 0.13418
