22
gdb 119177	3.13795	0.95209	0.81352	1.9879	82.6	-0.2198	0.0787	0.2986	1475.7356	0.192849	-404.287109	-404.277265	-404.276321	-404.322905	36.593	
O	-0.5533840218	 1.353543454	-1.2705408084	-0.419073
C	-0.1308270488	 0.0578885577	-0.8654700484	-0.099897
C	-1.3946081946	-0.745066046	-0.5809763426	-0.211083
C	-1.226980743	-2.186720423	-0.1214805925	 0.331983
C	-0.106183579	-3.0513809221	-0.6654395173	-0.323762
C	-0.1026340579	-2.6006830837	 0.7831863051	-0.30247
N	-2.5432937925	-2.7297924319	 0.1675815211	-0.106259
C	-3.2761592685	-3.3872667834	-0.9099381108	-0.22162
C	-2.7733605373	-4.1622261998	 0.2587623748	-0.238075
H	 0.2305064283	 1.8811538581	-1.4482285005	 0.284608
H	 0.466442474	-0.4206606001	-1.6570053709	 0.085686
H	 0.5003141517	 0.1174721659	 0.034578289	 0.087931
H	-1.9741907816	-0.2127251589	 0.1812575702	 0.119434
H	-2.006222777	-0.737154911	-1.4919825821	 0.107224
H	-0.2923583026	-4.0999861054	-0.869634942	 0.110451
H	 0.6118720195	-2.6052366486	-1.34414939	 0.110924
H	 0.6282447086	-1.8645103198	 1.097337543	 0.112844
H	-0.3290158198	-3.3473477814	 1.5372605955	 0.115444
H	-4.3279842032	-3.130375944	-0.9983456936	 0.115969
H	-2.757912697	-3.5414373475	-1.8550029399	 0.11153
H	-1.9530029212	-4.8533371439	 0.07936508	 0.111928
H	-3.4497500262	-4.4700605755	 1.0516691604	 0.116283
