25
gdb 103834	2.50761	0.94573	0.91882	1.661	89.58	-0.2531	0.0859	0.339	1537.1597	0.225684	-389.495569	-389.484208	-389.483264	-389.532144	41.695	
C	 0.1310095622	 1.453234109	 0.2294796134	-0.379351
C	-0.4224246878	 0.1317149743	-0.3218050031	-0.252182
C	 0.4961617188	-0.5105088399	-1.3499416801	 0.398969
C	 0.575709899	 0.2010162417	-2.6873222913	-0.460864
O	 1.7758856357	-0.9408624833	-0.840270427	-0.312564
C	 0.8614586874	-1.9420237929	-1.3035664834	 0.018072
C	 0.3823296452	-2.9759910528	-0.305276795	-0.007536
C	-0.8470426196	-3.7143297923	-0.8537432436	-0.391971
C	 1.5277098757	-3.9454084818	 0.0245195147	-0.388802
H	 1.120968547	 1.295086694	 0.6669451283	 0.135149
H	 0.2235773125	 2.2168169856	-0.5488654538	 0.116274
H	-0.5271522287	 1.8532245274	 1.0064647468	 0.110999
H	-0.5856889134	-0.5558580274	 0.5117512678	 0.103821
H	-1.4025531215	 0.3000603234	-0.7861991272	 0.09594
H	 0.9075131142	 1.2368344316	-2.5646760307	 0.126261
H	 1.2856028337	-0.3023335623	-3.3480349717	 0.12509
H	-0.4044637308	 0.2184619566	-3.1764942955	 0.116823
H	 1.1583698065	-2.3861537091	-2.2602513854	 0.072366
H	 0.1030517331	-2.4629538547	 0.6209788158	 0.078272
H	-1.1900993656	-4.4779401348	-0.148619116	 0.114882
H	-1.6789503519	-3.0275791878	-1.0402963519	 0.114859
H	-0.6126889032	-4.2193831047	-1.7983959707	 0.114699
H	 2.396232138	-3.4019392765	 0.4070394577	 0.131309
H	 1.2175020958	-4.6753449852	 0.7790898644	 0.108851
H	 1.8414606278	-4.5003033081	-0.8676687427	 0.110633
