20
gdb 82180	2.74346	1.58347	1.27138	1.3264	77.54	-0.2308	0.0713	0.302	1062.6542	0.171898	-403.113196	-403.105126	-403.104182	-403.145137	32.934	
C	 0.0322062695	 1.5825869817	-0.0179472592	-0.389148
C	 0.0302482094	 0.0507594058	 0.0106694284	 0.001432
C	 0.685225444	-0.5980720873	-1.214340912	-0.038555
N	 2.1296951128	-0.3146347853	-1.3664593223	-0.341799
C	 1.6886976121	-1.5949072086	-0.7688647878	-0.128239
C	 1.714247095	-1.6237516776	 0.7542731679	 0.402247
O	 1.7605068948	-2.8800853858	 1.3612784358	-0.474861
C	 2.2285574142	-0.3919817053	 1.4503788239	-0.358272
C	 0.7347594767	-0.5815507733	 1.2222979108	-0.101012
H	 1.0543287959	 1.9635188696	-0.0892575506	 0.132393
H	-0.5295073892	 1.9612498243	-0.8789691931	 0.104782
H	-0.4257211293	 1.9937376604	 0.8872721704	 0.110242
H	-1.0111262639	-0.2975954831	 0.0296894974	 0.075036
H	 0.0919375549	-0.7330569513	-2.1142712233	 0.082419
H	 2.4011168225	-0.4663783363	-2.3349278843	 0.228933
H	 1.8705241706	-2.5275714061	-1.2923318491	 0.083594
H	 2.6857493902	-3.1370275833	 1.4386770036	 0.281725
H	 2.5569070145	-0.5257583528	 2.476248458	 0.102171
H	 2.7794185127	 0.3348988218	 0.8672511378	 0.137451
H	 0.1396214825	-0.7717233474	 2.1088622975	 0.089461
