14
gdb 29072	2.70853	1.69735	1.04345	2.6669	79.35	-0.236	-0.0859	0.1501	1053.2505	0.102488	-436.716036	-436.708841	-436.707897	-436.748031	27.258	
O	-0.0359810655	 1.346204187	 0.0096444815	-0.372926
C	 0.0253357169	 0.0040021462	 0.0022034894	 0.268134
C	 1.2492361457	-0.6242462077	-0.0081848222	-0.114465
N	 1.62970059	-1.9218629613	-0.0168634165	-0.246625
C	 0.8480255775	-2.959565427	-0.0184841933	 0.000444
C	-0.5791240358	-3.0384390255	-0.0120730189	-0.081199
C	-1.4979855679	-2.039286658	-0.0014489287	-0.155015
C	-1.3388404535	-0.5875563782	 0.0072002148	 0.288632
O	-2.3162923211	 0.1459500721	 0.0181547574	-0.348954
H	 0.8584703301	 1.7105886529	 0.0061027563	 0.308497
H	 2.1052748953	 0.0574585286	-0.0095373349	 0.093566
H	 1.3663351189	-3.9190761927	-0.0260696233	 0.116059
H	-0.9701604232	-4.0536433964	-0.0163428784	 0.113733
H	-2.5491155774	-2.3162359601	 0.0020434066	 0.13012
