11
gdb 21339	6.11484	1.32274	1.20508	3.5567	55.27	-0.3172	-0.0474	0.2697	927.7537	0.073488	-393.590734	-393.584289	-393.583344	-393.622398	22.083	
N	-0.0242416309	-1.1489638243	-0.3037246041	-0.293675
C	 0.0016748886	-0.0064897665	-0.1401051875	 0.274191
C	 0.0202707468	 1.4417103492	 0.075090921	-0.433916
C	 1.4078000373	 2.0116819671	 0.0364421161	 0.38135
N	 1.9340388167	 2.6009223942	 1.0761747455	-0.157834
O	 3.1946701208	 2.9924950599	 0.6181680799	-0.144687
C	 3.271385087	 2.5861664507	-0.6499659071	 0.115626
N	 2.2126306423	 1.9782764801	-1.0802468311	-0.289899
H	-0.5883912694	 1.91789444	-0.701735151	 0.182795
H	-0.4315578721	 1.671286082	 1.0439993046	 0.18707
H	 4.1864432828	 2.7998787375	-1.1823744463	 0.178979
