18
gdb 17822	3.94815	1.60461	1.37922	1.6129	68.02	-0.2479	0.075	0.3229	958.9999	0.153285	-384.900161	-384.892162	-384.891217	-384.93318	28.865	
C	 0.2850290985	 1.5589032395	-0.2092018019	-0.433128
C	 0.1513084545	 0.084930968	 0.0728496178	 0.08268
O	 1.3527899517	-0.7008965764	 0.1645921124	-0.263761
C	 0.526264943	-0.5979225173	 1.323399403	 0.035257
C	 1.1352069929	 0.0112278925	 2.5625230245	 0.103397
C	 2.4002793958	-0.7200427164	 3.0835827745	-0.287682
C	 3.122619014	 0.596715183	 2.7414317629	-0.059408
O	 1.8814184435	 1.2285089764	 2.3582068385	-0.27809
H	 1.0675477489	 2.0056150884	 0.4012105661	 0.161892
H	 0.5138266504	 1.7130216348	-1.2693899198	 0.119822
H	-0.6643220803	 2.0646167502	 0.0004905967	 0.115073
H	-0.6270921391	-0.4128303389	-0.5117284909	 0.085056
H	-0.0194579189	-1.5166313172	 1.5658110802	 0.083672
H	 0.341632747	 0.1549896417	 3.3092117884	 0.080483
H	 2.3792190895	-0.977145905	 4.143180522	 0.111594
H	 2.7021287539	-1.5887756048	 2.4976435114	 0.125204
H	 3.5998952555	 1.1203478878	 3.5774111335	 0.10274
H	 3.8223420391	 0.5399598336	 1.9003266509	 0.115198
