20
gdb 82931	2.19028	1.79872	1.53552	3.5309	77.69	-0.216	0.0637	0.2797	1006.3467	0.172777	-403.118212	-403.110465	-403.10952	-403.149907	31.757	
C	-0.0210025308	 1.526684295	-0.0031378615	-0.490579
C	 0.037268905	 0.0166470324	 0.0328249379	 0.280267
C	-0.8527882816	-0.7689237561	 0.9848071927	 0.083683
O	-1.6018579321	-1.8847667632	 0.6536646258	-0.435096
C	 0.6437017033	-0.7730468885	 1.2083852432	-0.152559
C	 1.4848832868	-1.9262750741	 0.647662535	-0.248235
C	 1.4040632994	-1.8186985315	-0.874537542	-0.029713
N	 0.0589513327	-2.0728410472	-1.4345597578	-0.365744
C	 0.527121118	-0.6722762752	-1.226502061	-0.103872
H	 0.9420186059	 1.9624843444	-0.2982993004	 0.111362
H	-0.7800552627	 1.8834906024	-0.7096184687	 0.119207
H	-0.2741514523	 1.9298273543	 0.9820242749	 0.119177
H	-1.403264479	-0.1459894292	 1.6877215507	 0.089411
H	-1.2112040196	-2.2404248869	-0.1697604947	 0.303096
H	 1.0281883547	-0.2555556829	 2.082809282	 0.076723
H	 2.5269114304	-1.814722454	 0.9630971365	 0.104652
H	 1.1375954719	-2.9051554147	 0.9977408256	 0.12041
H	 2.2577958465	-2.1066203068	-1.4795979387	 0.091948
H	 0.124989335	-2.3234229121	-2.416798396	 0.237063
H	 0.6956994883	-0.0650811563	-2.1097463634	 0.088798
