14
gdb 130147	6.11876	0.93178	0.81345	2.3419	67.98	-0.2235	0.0035	0.227	1306.4793	0.103461	-429.092649	-429.084618	-429.083674	-429.126142	28.95	
N	-0.6642127882	 1.1440773562	 0.7596129856	-0.582503
C	-0.1375241077	 0.0030242654	 0.196116837	 0.394891
N	-0.7086916595	-0.6313440877	-0.821173849	-0.292987
N	 0.117778596	-1.7083828572	-0.9675550992	-0.241688
C	 1.1119830872	-1.6604200364	-0.0688687956	 0.399725
C	 2.2039755061	-2.6844106951	 0.0598583546	-0.462458
C	 2.1158856335	-3.7256339544	-0.9617523304	 0.268881
N	 2.0117669629	-4.5318437308	-1.7823449108	-0.302453
N	 0.9911707728	-0.5884665142	 0.6928290945	-0.373767
H	 0.0256448503	 1.7212442383	 1.2166401672	 0.260709
H	-1.2748977239	 1.6613196503	 0.1447379783	 0.260782
H	-0.0592452496	-2.3938144774	-1.6844466145	 0.293555
H	 3.1793844057	-2.1899085963	-0.0084243071	 0.188248
H	 2.1604557946	-3.1483043709	 1.0520926194	 0.189064
