17
gdb 79977	2.6866	1.59658	1.35781	3.2375	72.54	-0.2338	-0.0171	0.2167	989.0556	0.135486	-421.820318	-421.812378	-421.811434	-421.853095	30.166	
O	-0.0247697715	 1.4536848844	-0.034277994	-0.421454
C	 0.0220166406	 0.0674816428	 0.0714391773	 0.125946
C	-0.4000303142	-0.6938082388	 1.3162280891	-0.142908
C	-1.254785289	 0.0670952158	 2.2710594911	-0.103107
C	-2.4136473212	 0.4451933329	 1.7224274665	-0.092447
C	-2.5482733202	-0.0578450353	 0.2992241837	-0.158539
C	-2.8774209346	 1.036949824	-0.7120208981	 0.164867
O	-3.3460970822	 2.1078844828	-0.424828366	-0.255548
C	-1.2222245329	-0.7806594535	 0.0209634199	-0.135947
H	-0.5463343857	 1.8001474022	 0.7023018571	 0.292288
H	 0.8913532064	-0.3191478334	-0.4507734115	 0.110997
H	 0.2214740243	-1.5091325116	 1.6699312332	 0.093893
H	-0.9324369332	 0.3092938783	 3.2775152316	 0.10898
H	-3.168720735	 1.0679206667	 2.1839609953	 0.121697
H	-3.382739283	-0.7735712501	 0.2122607869	 0.114991
H	-2.6844543793	 0.7534833532	-1.7704875825	 0.083622
H	-1.2280962894	-1.6800327604	-0.5831780295	 0.092669
