22
gdb 64398	2.16863	1.49832	1.1224	4.2701	82.91	-0.2339	0.0329	0.2668	1200.3503	0.194543	-404.400302	-404.390929	-404.389985	-404.434208	35.687	
C	 0.0407703735	 1.550361366	-0.0128729633	-0.406642
C	-0.0351817177	 0.0119664944	-0.0052838167	 0.2743
C	-1.4997369605	-0.4482340785	 0.0205696525	-0.42745
C	 0.7231071733	-0.5907652227	-1.2144572029	-0.236209
C	 2.1667212956	-0.7714872723	-0.7231509429	-0.238387
C	 1.9833474005	-1.2061660803	 0.734842799	-0.151
N	 0.7380643602	-0.5443569334	 1.1337393985	-0.055821
C	 0.410024899	-0.4249656097	 2.4418511791	 0.131589
O	 1.0709191179	-0.8670934487	 3.3635871158	-0.350317
H	 1.0759116774	 1.8957232375	-0.0880769285	 0.120246
H	-0.5202364149	 1.9577956512	-0.8603883397	 0.116689
H	-0.3854637542	 1.9676748022	 0.9044864558	 0.121151
H	-2.0016847519	-0.1493919283	-0.9055693501	 0.119525
H	-1.5619773261	-1.5364473991	 0.1105885581	 0.122697
H	-2.0533712996	-0.0030317426	 0.8526063319	 0.121548
H	 0.2906843628	-1.5659615783	-1.4651385407	 0.103335
H	 0.6404866094	 0.0446925249	-2.099844457	 0.103879
H	 2.7272265382	-1.5027413938	-1.3096359502	 0.107502
H	 2.7115455993	 0.1770996037	-0.7709213713	 0.111346
H	 1.88167696	-2.2959102983	 0.8235917107	 0.113681
H	 2.7966214629	-0.9045828279	 1.3990006674	 0.131693
H	-0.5374887252	 0.1256532241	 2.5998395147	 0.066646
