23
gdb 117532	2.10264	0.99354	0.70769	0.8873	88.24	-0.2564	0.0523	0.3087	1645.6973	0.202335	-388.259346	-388.247889	-388.246945	-388.296203	41.473	
C	 0.1835294011	 1.4195883694	-0.2107427182	-0.403898
C	 0.0567375701	-0.0972727548	-0.0121463738	 0.039533
C	 0.8925822929	-0.5413449393	 1.1960687418	-0.398093
C	-1.4286283357	-0.5505207702	 0.1389006808	-0.166893
C	-2.3286630294	-0.0822007674	-1.0272308308	-0.187225
C	-3.7870053432	-0.5007109197	-0.8825993111	-0.085427
O	-4.505152399	 0.0947782312	-1.9549002007	-0.423294
C	-1.5099767952	-2.0050074083	 0.2955158567	 0.336446
C	-1.5701330113	-3.202620305	 0.3938945123	-0.471406
H	 1.2391629318	 1.7087551974	-0.228869438	 0.112206
H	-0.2651611272	 1.7620613027	-1.1461047333	 0.122228
H	-0.2920353772	 1.9660158495	 0.6131151486	 0.111849
H	 0.4529416885	-0.5979512774	-0.9056988723	 0.083096
H	 0.546911681	-0.0457290251	 2.1116952856	 0.108901
H	 0.8303219295	-1.6205725221	 1.3532461746	 0.129927
H	 1.9450208406	-0.2760450287	 1.0545703709	 0.109482
H	-1.8126116338	-0.0911178921	 1.0634010757	 0.097945
H	-2.3031841403	 1.0089012511	-1.0899282252	 0.112717
H	-1.9392560457	-0.4714035987	-1.9749500132	 0.110181
H	-3.8687579387	-1.596035206	-0.9032278753	 0.102742
H	-4.1751412712	-0.1605378257	 0.0925453401	 0.080883
H	-5.4098787279	-0.2289158281	-1.9241579593	 0.285292
H	-1.6268626697	-4.2582572228	 0.4940061438	 0.192809
