22
gdb 115840	2.2793	1.55513	1.26123	1.0935	81.25	-0.2216	0.0663	0.2879	1126.2568	0.195476	-404.325078	-404.316045	-404.315101	-404.358654	34.77	
C	-0.3774459124	 1.3458653929	 0.112384404	-0.429911
C	-0.0609796581	-0.1350740332	 0.0654256527	 0.007707
C	 0.5109128893	-0.8475877232	-1.1060084955	-0.040102
C	 1.2862011677	-0.0503877326	-2.15510355	-0.234522
C	 2.4114662174	 0.6639031062	-1.3701862706	-0.255823
C	 2.5295925536	-0.153835832	-0.0635961814	 0.056914
C	 3.0811890609	 0.5933162059	 1.1499939083	-0.09544
O	 2.3855922281	 1.7817291585	 1.4920751677	-0.41511
N	 1.2428930558	-0.8427405035	 0.17759903	-0.143925
H	 0.3234387378	 1.9791721736	-0.4267542483	 0.140408
H	-1.3741702241	 1.4959447077	-0.3199088254	 0.120642
H	-0.4320127368	 1.7094786978	 1.1451965418	 0.110485
H	-0.8067312218	-0.704530718	 0.6210065119	 0.091268
H	 0.0801234746	-1.7953813605	-1.4218394593	 0.082085
H	 1.7074392858	-0.7462155347	-2.88787708	 0.104944
H	 0.6510473748	 0.6475995032	-2.7104696983	 0.103601
H	 3.3548906012	 0.6738469984	-1.9235216175	 0.09755
H	 2.1646250658	 1.703101381	-1.1454238916	 0.124404
H	 3.2354367166	-0.9799986099	-0.2369800707	 0.080059
H	 3.1242816036	-0.1003186633	 2.0018270806	 0.098634
H	 4.1081490604	 0.9036453955	 0.9267074119	 0.107312
H	 1.5504829499	 1.5248776902	 1.8926211494	 0.288819
