18
gdb 111711	2.99603	1.205	1.01125	4.4555	78.77	-0.2251	0.0023	0.2273	1218.3147	0.148861	-398.077339	-398.068726	-398.067782	-398.110722	32.005	
C	 0.3209016588	 1.0092271446	 0.5546510271	-0.315225
N	-0.3939439996	 0.2568454816	-0.4686154271	-0.291517
C	 0.4396131255	-0.3607932602	-1.4429966557	-0.01218
C	 1.3568216352	-1.5622338622	-1.230737755	-0.16575
C	 0.7306000965	-2.5697796009	-0.2633538824	-0.186782
N	-0.5822686177	-2.507857257	-0.992703603	-0.37677
C	 0.0514386078	-1.6780721687	-2.0494141627	 0.206571
C	-0.1694085711	-1.9122883264	-3.4375122367	 0.184677
N	-0.3496511683	-2.1218406512	-4.5620150559	-0.347002
H	 1.0771733033	 0.4231039015	 1.1039871754	 0.09879
H	 0.8346881576	 1.8612591501	 0.0948875532	 0.124415
H	-0.397955153	 1.4075130945	 1.2756601381	 0.125037
H	-1.0166474138	-0.4373530576	-0.0693604416	 0.242255
H	 0.8613444273	 0.3321813455	-2.169639361	 0.118276
H	 2.3788125095	-1.5808361424	-1.5868215387	 0.114783
H	 1.2038350928	-3.5531287702	-0.3296738617	 0.122596
H	 0.6596739974	-2.2740070175	 0.788419994	 0.116088
H	-0.8516703581	-3.4165261536	-1.3534491864	 0.241737
