17
gdb 7810	3.44971	1.72988	1.21704	2.0608	66.03	-0.2585	0.0189	0.2774	967.4053	0.14376	-401.017076	-401.009588	-401.008644	-401.048849	28.443	
O	-0.0653877086	 1.4496141816	-0.0031256392	-0.437807
C	-0.0107240381	 0.033586706	 0.026441663	 0.118813
C	-1.4378671057	-0.4926214888	-0.0302309237	-0.213556
C	-1.4184301053	-2.0156329059	-0.0366369093	-0.087864
O	-0.6024382278	-2.5730870644	-1.0793038778	-0.251952
C	 0.6348958262	-2.0362225744	-1.3083265398	 0.371336
N	 1.6011036746	-2.7434135878	-1.7184548841	-0.499553
C	 0.7649137193	-0.5360340557	-1.1666488248	-0.293004
H	 0.8366239154	 1.7864402607	 0.007066589	 0.28446
H	 0.4581564324	-0.3126263198	 0.9635412276	 0.072865
H	-2.0140172722	-0.1376766911	 0.8300606536	 0.113829
H	-1.921984594	-0.1109970388	-0.9363990376	 0.117463
H	-1.0541325853	-2.3952531885	 0.9286729666	 0.109301
H	-2.4162534689	-2.4272142126	-0.2029686218	 0.123534
H	 1.3084951443	-3.7212222401	-1.7849451685	 0.218514
H	 0.3532461635	-0.0727536943	-2.0732075228	 0.132419
H	 1.82921161	-0.2930924361	-1.1241830906	 0.121202
