17
gdb 99561	2.20377	1.30418	0.86891	5.5969	73.61	-0.3053	-0.0047	0.3007	1307.8566	0.133753	-418.020818	-418.010743	-418.009799	-418.056368	34.508	
C	-0.2287440973	 1.3741492	 0.0908610828	-0.25652
O	 0.1812441264	 0.0207495001	-0.0510237739	-0.235966
C	 0.7618616925	-0.5317939484	 1.100275785	-0.007218
C	-0.2370699906	-0.6714409692	 2.1851748226	 0.280752
N	-1.0457187888	-0.7509815256	 3.0061582278	-0.313188
C	 1.3515819853	-1.9081409013	 0.6924644705	-0.160095
C	 2.371779957	-1.7636672761	-0.4519617441	-0.404929
C	 1.962643785	-2.558526872	 1.8544115429	 0.272337
N	 2.4752081829	-3.0637946056	 2.7579928263	-0.308681
H	 0.619594301	 2.0186627879	 0.360867679	 0.121259
H	-0.6208824239	 1.6812803119	-0.8796676367	 0.146342
H	-1.0142348007	 1.4781040433	 0.8496800641	 0.144822
H	 1.5769396585	 0.1069348196	 1.4780562612	 0.129917
H	 0.5129828693	-2.5286011443	 0.356622868	 0.155335
H	 2.7478919448	-2.7461482775	-0.7445941994	 0.145162
H	 1.892575639	-1.2917069233	-1.3097976461	 0.152363
H	 3.2224088897	-1.1518110895	-0.13814967	 0.138307
