15
gdb 7895	3.55794	1.81397	1.25726	4.7894	64.15	-0.2566	-0.0669	0.1897	935.8436	0.118697	-399.836216	-399.828816	-399.827872	-399.868219	27.21	
C	-0.2672689381	 1.5083812955	 0.1542810705	-0.400382
C	 0.1071601929	 0.0547020432	-0.0579465952	 0.118531
C	 1.0091416868	-0.2369792199	-1.2628340729	-0.357364
C	 1.9640896258	-1.3056123064	-0.7465422046	 0.329915
O	 2.6761261949	-2.0314061996	-1.380938169	-0.270923
C	 1.8453842358	-1.2655504307	 0.7696309554	 0.308626
N	 2.5782794819	-1.9183280648	 1.5633487731	-0.50003
O	 0.8554486111	-0.4004561622	 1.1085486195	-0.250678
H	 0.6302758676	 2.1306245804	 0.2228977402	 0.130771
H	-0.8759336505	 1.8652188878	-0.6822899734	 0.128402
H	-0.8430921746	 1.6263652083	 1.0759581882	 0.137317
H	-0.7988135297	-0.5620485159	-0.1086676354	 0.102927
H	 0.4748802951	-0.5662405984	-2.1552438096	 0.145717
H	 1.6028437998	 0.6461669804	-1.5310910461	 0.14586
H	 2.3206611713	-1.7285881276	 2.5347184091	 0.231309
