18
gdb 71419	4.6807	1.16351	1.05943	2.1535	82.55	-0.2276	0.0368	0.2644	1168.2174	0.14684	-364.699689	-364.691721	-364.690777	-364.731801	31.538	
C	 0.0139681669	 1.4884409854	-0.0403675994	-0.508692
C	-0.0364038426	-0.0103420196	-0.0357930548	 0.304704
C	-1.2315334046	-0.9346184321	-0.2089407995	-0.222698
N	-0.4112135857	-2.0739587057	 0.36581951	-0.170839
C	 0.5240624572	-0.9916733374	 0.9549153831	-0.067455
C	 1.1864312244	-0.8893118272	-0.3862259076	-0.11848
C	 0.6275297502	-2.2647936379	-0.7453143945	-0.187796
C	 1.5276572727	-3.3715317463	-0.4750941907	 0.342418
C	 2.2921282236	-4.2766235124	-0.2729472927	-0.43562
H	 0.9834944194	 1.8551102029	 0.3127164279	 0.123946
H	-0.1443376288	 1.8897648429	-1.0478882543	 0.124846
H	-0.758200464	 1.9096788392	 0.6130949402	 0.124012
H	-2.0455395184	-0.6969417883	 0.4823048324	 0.106827
H	-1.6428688503	-1.1238144555	-1.2080483468	 0.096365
H	 0.8665572241	-0.9402045117	 1.9783510668	 0.100375
H	 2.1475563898	-0.4585591194	-0.6369870282	 0.097402
H	 0.1706892665	-2.3903254676	-1.7349700365	 0.096515
H	 2.9578436297	-5.0830615094	-0.0887091154	 0.194171
