19
gdb 94980	2.60082	1.774	1.32227	2.904	74.74	-0.2326	0.0652	0.2978	1004.8385	0.160075	-422.933858	-422.926287	-422.925343	-422.966041	30.474	
O	-0.127601334	 1.4018821385	-0.1247298053	-0.43412
C	-0.0331315493	-0.0034460925	-0.0066642953	-0.048627
C	 0.6277380077	-0.4929560702	 1.350847479	-0.240248
C	-0.2477066413	-1.6538769057	 1.9762802788	-0.29109
C	-1.2232473672	-1.9828119742	 0.8376156701	-0.008958
C	-2.7440773057	-1.6797533495	 0.6161063976	-0.008242
C	-2.5380966388	-0.2291009333	 1.0781507683	-0.264141
C	-1.378820536	-0.6481405174	 0.1301495085	 0.486912
O	-2.3916001429	-1.2442808495	-0.7792319542	-0.382531
H	 0.761601558	 1.7589064824	-0.211419843	 0.286658
H	 0.4992911124	-0.4388690099	-0.8649555527	 0.084983
H	 1.6536421298	-0.8262380696	 1.1720273777	 0.104865
H	 0.6768333124	 0.3678047952	 2.0237123912	 0.111913
H	 0.3653900395	-2.5132476918	 2.2571558355	 0.102765
H	-0.7431065344	-1.3080104974	 2.8860918455	 0.112163
H	-0.8702232882	-2.7763902658	 0.1742685043	 0.082289
H	-3.6145693425	-2.3313363525	 0.6996739378	 0.092346
H	-3.2309432583	 0.49457443	 0.6507801373	 0.113894
H	-2.3180486812	-0.0348786366	 2.1288963089	 0.099172
