21
gdb 87185	3.44015	0.96872	0.92164	1.8219	79.81	-0.2561	0.0182	0.2743	1408.774	0.178726	-424.261356	-424.250775	-424.249831	-424.297367	37.87	
C	-0.0979432557	 1.4604002561	-0.1015384556	-0.418038
C	 0.1275979317	-0.0321241476	-0.0122325693	-0.051598
C	 1.501085076	-0.6507832259	-0.1955988056	-0.329034
C	 0.8246920327	-0.6959748495	 1.1452066801	 0.450606
C	 1.3516699615	 0.0554178437	 2.3425565684	-0.468466
O	 0.2058304468	-1.9390589044	 1.49414228	-0.289276
C	 1.0137022505	-2.9676142246	 1.8506113577	 0.415329
C	 0.1844091212	-4.1884904217	 2.1752858048	-0.476253
O	 2.2148735312	-2.9061806663	 1.8999597991	-0.351287
H	 0.7651538829	 2.028141743	 0.2579433831	 0.117814
H	-0.2713363714	 1.7586694502	-1.1411071002	 0.121865
H	-0.9701688775	 1.7711403675	 0.484097549	 0.120741
H	-0.6873321198	-0.6316127572	-0.4094452606	 0.093464
H	 1.5840262933	-1.5746805678	-0.755218402	 0.119692
H	 2.3541480912	 0.0128017657	-0.2966217411	 0.114847
H	 1.7398151984	 1.0328427472	 2.0478600672	 0.119551
H	 0.5565767258	 0.2129392032	 3.0792190985	 0.119022
H	 2.1628090806	-0.5052347313	 2.8125543334	 0.149231
H	-0.4426002098	-4.4571761956	 1.3205733769	 0.146572
H	 0.8435036393	-5.0169298038	 2.4317939019	 0.146227
H	-0.4855406987	-3.972626191	 3.0126347044	 0.14899
