23
gdb 99784	1.91912	1.29308	0.94898	1.807	82.14	-0.2524	0.0775	0.3299	1383.932	0.202778	-425.396897	-425.386052	-425.385108	-425.433181	38.783	
C	 0.9745831656	 0.0800657492	 0.2576439573	-0.235598
O	 0.063532856	-0.9398470113	-0.0863581568	-0.247123
C	-1.3037728284	-0.6130836357	 0.1084568245	 0.092253
C	-2.1523097753	-1.621164186	-0.6894374727	 0.022991
C	-1.9285658421	-1.4302713924	-2.1955599114	-0.400032
C	-1.8883340548	-3.0756970364	-0.2717911449	-0.395965
C	-1.6513607732	-0.6004880157	 1.5888801116	 0.06637
C	-1.8178326575	 0.6477686584	 2.3464643888	-0.183288
O	-2.9517802238	-0.1021107428	 1.9113219018	-0.237025
H	 1.9695624573	-0.2687331755	-0.0300734467	 0.128123
H	 0.7575579085	 1.0150277575	-0.2821761627	 0.104351
H	 0.97707732	 0.2971042016	 1.3350285846	 0.109665
H	-1.5076059352	 0.3958657777	-0.2906044644	 0.060774
H	-3.1957161267	-1.3736983111	-0.4573747818	 0.092286
H	-0.8830643033	-1.6188150748	-2.4563120608	 0.126784
H	-2.5540816007	-2.1189676874	-2.7720980116	 0.107974
H	-2.1766378969	-0.410440271	-2.5096802987	 0.105197
H	-2.1358299055	-3.2533843667	 0.7791533687	 0.112807
H	-2.4984816971	-3.7587994184	-0.8709164207	 0.108793
H	-0.8371147193	-3.3371525849	-0.4220622839	 0.129859
H	-1.3586686832	-1.4953304386	 2.1390346745	 0.101013
H	-1.6475709941	 0.6567693436	 3.4222717212	 0.116407
H	-1.6714145804	 1.6035521308	 1.8442021642	 0.113384
