25
gdb 119262	1.76671	1.01388	0.72373	1.3356	89.27	-0.2604	0.0784	0.3387	1693.957	0.227399	-389.4808	-389.469727	-389.468783	-389.517758	40.488	
C	-0.1700546054	 1.5124810666	 2.3940309212	-0.379788
C	-0.19285085	-0.0141500519	 2.2765755241	-0.165301
C	 0.9500776634	-0.5596763481	 1.4087298159	-0.257962
C	 1.0151923322	-2.0811154756	 1.3279020445	 0.385016
C	-0.1818772072	-2.7945147238	 0.7152801078	-0.258995
C	-0.4289712153	-2.4526311833	-0.7512929024	-0.074436
O	-1.5061132169	-3.2627196138	-1.2021057072	-0.420589
C	 2.3740475325	-2.7015636859	 1.0893632763	-0.316978
C	 1.7320405425	-2.7912180128	 2.4533000436	-0.311841
H	-0.2598375446	 1.9873327345	 1.41036082	 0.111861
H	-0.9935006896	 1.8783757163	 3.0153264342	 0.11079
H	 0.7667142919	 1.8617469676	 2.8428931423	 0.112106
H	-0.1301712837	-0.4635118483	 3.275837747	 0.09839
H	-1.1581531122	-0.3294427882	 1.8621391106	 0.100036
H	 0.872344788	-0.1324321866	 0.3992927043	 0.091692
H	 1.9035482537	-0.1924716367	 1.810844012	 0.087149
H	-0.0330109315	-3.8785504799	 0.7809422263	 0.100497
H	-1.0954902314	-2.5773643657	 1.2813920007	 0.10533
H	-0.6692892269	-1.3835528068	-0.8613051967	 0.084511
H	 0.4864591389	-2.6424235123	-1.3345674253	 0.086427
H	-1.6841812711	-3.0412906818	-2.1205929207	 0.283987
H	 2.4258396566	-3.6064087994	 0.4923702704	 0.108027
H	 3.2280964851	-2.0432678773	 0.9676992726	 0.105595
H	 2.150566266	-2.1871575766	 3.2519546463	 0.105994
H	 1.3547491052	-3.7547350302	 2.7793741819	 0.108482
