21
gdb 92464	2.52943	1.68581	1.6708	1.3667	81.41	-0.2321	0.0158	0.2479	986.7979	0.185643	-387.109044	-387.101525	-387.10058	-387.140541	31.195	
C	-0.1592254497	 1.5461762245	-0.0259500906	-0.408791
C	 0.0461921576	 0.0349615596	 0.0130249923	 0.168737
O	 0.7582955361	-0.3593976021	-1.1661969025	-0.29798
C	 1.8548107527	-1.255771792	-0.8932664515	 0.065325
C	 2.9175887026	-0.4521185523	-0.1128708805	-0.202657
C	 2.2691950782	 0.0093779659	 1.220968873	-0.211326
C	 0.8014494611	-0.5010917026	 1.2603763652	-0.079902
C	 0.8346954058	-2.0041890447	 1.1117467436	-0.090597
C	 1.3877205121	-2.4066795456	-0.0335159934	-0.069201
H	 0.7912266094	 2.0859910396	 0.0016000254	 0.118091
H	-0.6730943738	 1.8227278113	-0.9509099064	 0.125233
H	-0.7742952237	 1.874083564	 0.8189275442	 0.107145
H	-0.943288722	-0.4477241925	-0.0090404295	 0.066102
H	 2.2218401676	-1.5715771756	-1.8713173105	 0.070188
H	 3.8071854764	-1.0654663537	 0.0598534103	 0.095698
H	 3.217644296	 0.4048993388	-0.723252554	 0.100298
H	 2.8094403576	-0.3895291507	 2.0834716077	 0.098653
H	 2.2930357503	 1.0988208073	 1.3100253797	 0.100092
H	 0.2939162098	-0.1776557899	 2.172251401	 0.061653
H	 0.4250010685	-2.6660253505	 1.8670902279	 0.090255
H	 1.5045418074	-3.4391916986	-0.3424734914	 0.092986
