17
gdb 9228	3.86474	1.18321	1.06812	0.879	72.46	-0.2459	0.0229	0.2689	1158.7072	0.138947	-363.829545	-363.820049	-363.819105	-363.864249	32.961	
C	 0.1238602145	 1.3112434709	-0.2931546551	-0.226035
O	-0.0549232923	-0.0452667424	 0.1158509561	-0.236318
C	-1.3262660457	-0.4879447581	 0.1883041719	 0.420681
C	-1.372769658	-1.9274217065	 0.6352017051	-0.497799
N	-2.292323615	 0.2838815781	-0.1036768803	-0.300121
C	-3.6548020636	-0.2387477786	-0.0102080386	-0.314295
C	-4.1604095671	-0.3025450413	 1.3633177757	 0.332123
C	-4.5631361713	-0.3552843507	 2.4948879199	-0.474106
H	 1.2015153852	 1.4806468553	-0.284620299	 0.123872
H	-0.2838168737	 1.4722297364	-1.2949608722	 0.132996
H	-0.3803974218	 1.9939577925	 0.3960455546	 0.137394
H	-0.369828241	-2.2867011713	 0.8642276592	 0.141972
H	-2.0100716639	-2.0265954571	 1.5179859973	 0.160551
H	-1.8013265508	-2.557082909	-0.1519406292	 0.143411
H	-4.3037237523	 0.4262551405	-0.5914747744	 0.136686
H	-3.7513476977	-1.2354588002	-0.4688728591	 0.121237
H	-4.9257199554	-0.3940566587	 3.4921196779	 0.197751
