17
gdb 108114	3.54504	1.42385	1.36913	2.2645	65.86	-0.2449	0.0827	0.3277	987.4056	0.13773	-458.944693	-458.937664	-458.93672	-458.976355	27.928	
O	 0.0001644912	 1.3988872062	 0.2857880744	-0.413472
C	-0.0356928499	 0.0487457433	-0.1387081896	-0.183127
C	-1.4005728868	-0.5457056648	-0.0118127003	 0.401597
O	-2.3955295402	 0.0947249748	-0.8069174533	-0.298455
C	-3.525358627	-0.6486760062	-0.3567159842	 0.142533
C	-3.1141855077	-2.1097220251	-0.6416020552	-0.239475
C	-1.8145073889	-2.0064135075	 0.144557237	-0.229224
C	-2.1313200035	-0.9814624324	 1.2324616105	 0.004312
O	-3.4723755621	-0.5586941371	 1.0608154053	-0.249864
H	-0.7342540487	 1.8450126253	-0.1508111465	 0.294884
H	 0.3101001096	-0.0549278425	-1.1797517324	 0.099605
H	 0.6635267628	-0.5047778017	 0.4963622986	 0.113208
H	-4.4535402165	-0.2420319811	-0.7478934383	 0.102265
H	-3.8232517266	-2.8254374201	-0.2206020819	 0.117269
H	-2.9694688856	-2.2946792585	-1.7077714341	 0.115571
H	-1.110912405	-2.8163796325	 0.2740826959	 0.101694
H	-1.761916025	-0.9621315001	 2.246689944	 0.12068
