19
gdb 90810	3.11597	1.72929	1.38928	1.3266	76.95	-0.2068	0.0766	0.2834	967.5727	0.161716	-385.830951	-385.823911	-385.822967	-385.862755	29.18	
O	-0.1694693047	 1.4794177466	 0.2135496621	-0.440463
C	 0.0310920459	 0.0806349762	 0.0098243889	 0.103722
C	 0.9654261377	-0.535405618	 1.0737859339	-0.283502
C	 0.3987483071	-1.7900194113	 1.70804711	-0.031833
C	-1.0281946457	-1.8971090514	 2.1714054506	-0.082606
C	-0.5352830775	-2.7572580715	 1.0182518531	-0.092154
C	-1.5370356166	-2.0515578943	 0.0631155553	-0.105736
C	-2.0138205678	-1.1770059114	 1.2119519044	-0.082935
C	-1.3342801933	-0.5607162376	 0.0142958337	-0.027601
H	 0.6903712703	 1.9093607048	 0.1612850262	 0.277457
H	 0.4636437008	-0.0805078209	-0.9905310858	 0.061927
H	 1.9494639651	-0.7489244616	 0.6407539342	 0.093319
H	 1.1143476381	 0.2154064599	 1.8592986831	 0.103009
H	 1.0904585499	-2.2944299745	 2.3797221221	 0.082197
H	-1.297961179	-2.2013666711	 3.1745366968	 0.082633
H	-0.3547488643	-3.8243435123	 1.0002670499	 0.082952
H	-2.1239488232	-2.5835190609	-0.6745505395	 0.083024
H	-3.0276789857	-0.9190656593	 1.4881604444	 0.085583
H	-2.0315449571	-0.0549845316	-0.6492768133	 0.091007
