13
gdb 13744	3.16416	1.67533	1.41278	4.3797	59.05	-0.2581	-0.0106	0.2474	885.7633	0.096046	-394.795677	-394.788016	-394.787072	-394.828065	27.355	
N	 0.9480202349	 0.2033686219	 0.7076127881	-0.522413
C	-0.0265783004	 0.0043253294	-0.2107716047	 0.409446
O	-0.1611916787	 0.6342554905	-1.240829236	-0.360836
C	-0.9975765976	-1.1069934427	 0.1314485383	-0.111178
N	-0.7483797356	-1.9180706108	 1.3210604687	-0.329565
C	-1.9221765457	-1.0317529453	 1.3170761884	-0.174944
C	-1.9051035992	 0.0716398279	 2.2482998826	 0.332534
N	-1.9170684047	 0.9512436174	 2.9976747395	-0.324575
H	 1.5780737569	 0.9785057123	 0.5881812542	 0.270463
H	 0.9954626698	-0.3679719928	 1.535052419	 0.279785
H	-1.4245889365	-1.5675050259	-0.7547914307	 0.127175
H	-1.0282256843	-2.8859643027	 1.1893914376	 0.258093
H	-2.905993889	-1.4734829592	 1.1833374751	 0.146016
