17
gdb 34055	3.24133	1.32583	1.13716	4.7761	72.81	-0.268	0.0168	0.2848	1089.2211	0.138714	-417.998161	-417.990597	-417.989653	-418.030249	29.012	
N	-0.0277161901	-1.14378732	 0.0265390111	-0.335126
C	 0.0077038674	 0.0117249174	 0.0450871495	 0.260795
C	 0.0272179029	 1.45608223	 0.0088672576	 0.129393
C	-1.1204691544	 2.0827154294	-0.7854362386	-0.171769
O	-0.9621018038	 3.4785076965	-0.8911496241	-0.243451
C	 0.2396308599	 3.8141767395	-1.5757541594	-0.082811
C	 1.4755006419	 3.5048906957	-0.7217223416	-0.251132
C	 1.3323919347	 2.1995733946	 0.0498668847	-0.044064
N	 0.4734646769	 2.1316326323	 1.2388686937	-0.345792
H	-1.1747945108	 1.6128095849	-1.7798757402	 0.117232
H	-2.0706403706	 1.9093181895	-0.271183561	 0.135776
H	 0.2841368015	 3.258351354	-2.5250072045	 0.104263
H	 0.1756836159	 4.8794846056	-1.8096105139	 0.120978
H	 2.3588951553	 3.454938258	-1.3666638457	 0.119373
H	 1.6551807113	 4.3162527196	-0.0061950086	 0.123674
H	 2.2375859278	 1.6078496139	 0.1534974878	 0.119088
H	-0.0570658258	 2.9996840595	 1.3187772034	 0.243573
