21
gdb 68786	2.2497	1.51263	1.38193	1.9035	78.96	-0.2217	0.0693	0.291	1112.5845	0.178723	-424.200376	-424.190429	-424.189484	-424.234097	38.185	
C	-0.1164314864	 1.4895578657	 0.1093849797	-0.491353
C	 0.0236511899	 0.0033200637	 0.1111776033	 0.421111
C	 1.2182049426	-0.7903600489	-0.3668998195	-0.422152
C	 0.6592745461	-1.0076706886	 1.0259230264	 0.221257
O	 1.3907520966	-0.8070683258	 2.1820385304	-0.457092
C	-0.6842720638	-1.7586424677	 0.9671974476	 0.348782
C	-0.7201033474	-3.1831166856	 0.437100717	-0.444492
C	-1.486882094	-1.5991499299	 2.2520140217	-0.41567
O	-1.162743279	-0.7899483384	-0.0342817649	-0.370277
H	 0.8389002725	 1.9612352188	 0.3560149552	 0.127699
H	-0.4289132069	 1.8488365649	-0.877563307	 0.129568
H	-0.8643006879	 1.8109108554	 0.8407117272	 0.128977
H	 1.111761459	-1.5254263405	-1.1595650131	 0.109427
H	 2.1535866565	-0.2374818223	-0.3667511403	 0.112122
H	 2.1182616937	-1.4387639628	 2.1954005643	 0.288526
H	-0.3285211095	-3.879324845	 1.1867009479	 0.113046
H	-1.7501471814	-3.4772836726	 0.2106019133	 0.125736
H	-0.1304345747	-3.2883212662	-0.4763865645	 0.117829
H	-1.4528219501	-0.5655992255	 2.6042805439	 0.125364
H	-2.5307649324	-1.8754978939	 2.0754389335	 0.117676
H	-1.0852081234	-2.2408127048	 3.0425208679	 0.113918
