21
gdb 111884	2.57282	1.28853	1.17923	2.4527	77.5	-0.2426	0.0656	0.3082	1172.5352	0.184731	-424.207911	-424.199352	-424.198408	-424.241279	32.869	
O	 0.0056163592	 1.4916945053	 0.2042298199	-0.423273
C	 0.0215641327	 0.1397430449	-0.2471386964	-0.096148
C	-1.3351276442	-0.5152621762	-0.1000699146	-0.045601
C	-1.5542424423	-2.0154393554	-0.1366049285	-0.070538
C	-0.3852090588	-3.0001719506	-0.2081379734	-0.233153
C	 0.1561205032	-3.3251347072	 1.1867840538	-0.069619
O	 0.3776249378	-2.1447017884	 1.9430910814	-0.236774
C	-0.8407333839	-1.5216864005	 2.3178763163	-0.106502
C	-1.774483663	-1.2430221431	 1.1515784085	-0.071571
H	-0.2028651182	 1.4774041786	 1.143612518	 0.279223
H	 0.2933854849	 0.1964344486	-1.3075299564	 0.104203
H	 0.7962290477	-0.4397061992	 0.2672820735	 0.110808
H	-2.1181505341	 0.0675617055	-0.5795613512	 0.088611
H	-2.4475551438	-2.3349124985	-0.6633391093	 0.087046
H	-0.716724095	-3.9286906441	-0.6849197577	 0.099876
H	 0.4254505262	-2.606052356	-0.8304531532	 0.111665
H	-0.5481160816	-3.9823646007	 1.7239239013	 0.087454
H	 1.1203161492	-3.838267469	 1.1293534986	 0.106715
H	-1.3702293317	-2.1615330408	 3.0450100877	 0.092763
H	-0.5550092855	-0.6019682528	 2.8418329148	 0.099006
H	-2.8039065287	-1.0872331107	 1.4627201469	 0.08581
