20
gdb 114979	3.25048	1.1032	0.87228	3.7857	83.44	-0.2204	-0.0489	0.1715	1352.5673	0.171232	-403.1699	-403.161106	-403.160162	-403.20361	32.983	
C	-0.0932820673	 1.5493991966	-0.0587379416	-0.399669
C	 0.0082070751	 0.0260097149	 0.0182476282	-0.100749
N	 0.7023713546	-0.4557697078	 1.2101084271	-0.090168
C	 0.0037807951	-0.1478619105	 2.4475801064	-0.192624
C	 0.691705836	-0.7192999255	 3.6505802943	-0.058446
C	 1.5938556742	-1.7028150683	 3.5739400826	-0.147463
C	 1.8792003269	-2.3548196789	 2.2842470745	 0.367082
O	 2.6728523946	-3.2654505943	 2.164968699	-0.327236
C	 1.0384635532	-1.8700256454	 1.105688904	-0.263699
H	 0.8936291528	 2.0057464245	 0.0620024349	 0.129127
H	-0.4945268164	 1.8446672714	-1.0328367537	 0.119135
H	-0.7592632203	 1.9638026202	 0.7037315977	 0.11989
H	-1.0036915722	-0.4193556188	-0.0663007849	 0.076641
H	 0.5762876647	-0.3338787334	-0.8467554536	 0.106133
H	-0.0608512477	 0.9393571111	 2.5649662016	 0.122248
H	-1.0497533613	-0.5108981138	 2.4403432357	 0.093531
H	 0.4189093096	-0.2887579513	 4.6107747182	 0.113743
H	 2.1096450456	-2.0949227297	 4.4443381327	 0.109077
H	 0.1396154324	-2.5229624653	 1.0539482545	 0.095369
H	 1.6103646703	-2.0459013659	 0.1909378223	 0.128077
