19
gdb 51891	4.27277	0.86037	0.75808	3.7295	73.74	-0.2615	0.0061	0.2676	1473.5976	0.160034	-460.194703	-460.186196	-460.185252	-460.228954	31.164	
O	 0.0102485642	-0.0228401856	 0.0954212182	-0.274254
C	 0.0172755139	 1.1686093272	 0.1677357355	 0.16376
O	 1.0758613158	 1.9156781017	-0.1987809773	-0.186389
C	 0.9800797914	 3.3449629948	-0.0968339938	 0.09748
C	 2.1590004898	 3.8723158382	 0.7180406289	-0.220092
C	 2.195602913	 5.4067293558	 0.6493535495	-0.214663
C	 2.1300775705	 5.8732720495	-0.8062078396	-0.065537
O	 0.9889568507	 5.3465830074	-1.4698009377	-0.242878
C	 0.997731976	 3.9346645048	-1.5122384739	-0.092833
H	-0.8289052747	 1.7783622568	 0.5416332522	 0.079062
H	 0.0330118492	 3.6167380415	 0.3891164668	 0.093496
H	 2.0927234681	 3.5193203958	 1.7520881446	 0.107785
H	 3.0801332068	 3.4540395699	 0.2933861745	 0.117086
H	 1.3420965088	 5.8278060581	 1.1943960546	 0.10985
H	 3.1050567531	 5.789397483	 1.1249020397	 0.105907
H	 2.0424315735	 6.9609764157	-0.8726417831	 0.112752
H	 3.0470621056	 5.5717561394	-1.3409634947	 0.091544
H	 1.8866644398	 3.5549736667	-2.0430129254	 0.103399
H	 0.1095817545	 3.6260637192	-2.0710656688	 0.114526
