18
gdb 6443	3.6357	1.42757	1.23346	1.1517	74.18	-0.2543	0.0331	0.2874	1048.5919	0.151421	-347.762193	-347.753514	-347.75257	-347.794927	33.009	
C	 0.0848440553	 1.6256820151	 0.0219543118	-0.407575
C	 0.0766252588	 0.1055995082	 0.0111195391	 0.05874
C	 1.1054115991	-0.6401023398	-0.8831341605	-0.27333
C	 1.2982672437	-1.6896766233	 0.247016811	 0.251618
O	 2.6605728232	-2.0184715571	 0.4479681804	-0.463199
C	 0.6568055318	-0.6555983097	 1.2352353146	-0.291426
C	 0.4809842407	-2.8884560239	 0.0816902973	 0.30033
C	-0.1751549608	-3.8916512543	-0.0193477285	-0.50745
H	 1.0878050655	 2.0119660797	 0.2364946174	 0.113115
H	-0.2287191558	 2.0318999667	-0.9462633522	 0.11585
H	-0.5954407653	 2.02203093	 0.7840350876	 0.115221
H	-0.932110888	-0.2613714162	-0.2047066274	 0.080613
H	 0.7893376984	-1.0059898808	-1.8611838841	 0.107203
H	 2.034397046	-0.0715795333	-0.9860159654	 0.112464
H	 2.7014116936	-2.7731421572	 1.0454934758	 0.281164
H	 1.4611284159	-0.0905004699	 1.7158776583	 0.105757
H	-0.0333084778	-1.0344979032	 1.9915884703	 0.100916
H	-0.7557045646	-4.7750490609	-0.1225136755	 0.199988
