19
gdb 62851	2.83107	1.5839	1.36482	4.4051	74.69	-0.2593	0.0146	0.2738	1020.9368	0.15959	-423.048505	-423.040493	-423.039549	-423.08059	31.729	
C	-0.1373342937	 1.5212650151	 0.0055208954	-0.466459
C	-0.0243258568	-0.0053793985	 0.0126819193	 0.316646
C	-1.4138494817	-0.6072989049	-0.2006591699	-0.468488
C	 1.1598574163	-0.606345088	-0.8164555502	 0.062201
C	 2.1285515841	-0.2041177197	 0.3145657916	-0.260554
C	 0.8808715179	-0.60427784	 1.1774810225	-0.220974
C	 0.825867581	-2.0750194267	 0.7921946255	 0.450648
O	 0.6578942222	-3.076071525	 1.4192514208	-0.355531
O	 1.0225230007	-2.0399712871	-0.5735968243	-0.247434
H	 0.8002070995	 2.0451768717	 0.1958313478	 0.120491
H	-0.517641364	 1.863228278	-0.9635596934	 0.124539
H	-0.8557813508	 1.8431066123	 0.7667596807	 0.127581
H	-1.8581017544	-0.21435969	-1.121765809	 0.118016
H	-1.3992704178	-1.6954896792	-0.2751440673	 0.150272
H	-2.077437144	-0.3309508138	 0.625728277	 0.123046
H	 1.3247194123	-0.4340428891	-1.8786686643	 0.09204
H	 3.0250723782	-0.8185085576	 0.4155387779	 0.122288
H	 2.3840129271	 0.8515304406	 0.3604036108	 0.118467
H	 0.756634314	-0.366351878	 2.231078019	 0.093204
