13
gdb 133326	2.42146	1.83925	1.04602	3.6514	64.93	-0.2309	-0.0281	0.2028	1017.4954	0.089948	-494.056241	-494.04891	-494.047966	-494.087802	28.334	
N	 0.0137456618	 1.4428464053	-0.1374286954	-0.602935
C	 0.0338487056	 0.0719648041	-0.0646187187	 0.117736
C	-1.1448062712	-0.7068755659	-0.0823011869	 0.413039
O	-2.3174073486	-0.0326724068	-0.1125702947	-0.428063
N	-1.1832232142	-2.0225359104	-0.0638322926	-0.301154
N	-0.0524391501	-2.7343419437	-0.0256483354	-0.228183
C	 1.1025136704	-2.0812894488	-0.0000892676	-0.089507
C	 1.1841661005	-0.6918334307	-0.0153917264	 0.220426
F	 2.3696175635	-0.0718080132	 0.023922993	-0.078532
H	 0.8464996268	 1.9168882965	 0.1752769594	 0.266412
H	-0.8539300925	 1.8805521703	 0.1301878064	 0.274858
H	-3.0124779481	-0.7068360548	-0.1081929396	 0.306543
H	 2.0069814962	-2.6793875019	 0.0357085185	 0.129361
