11
gdb 42524	4.00019	1.07143	0.89557	0.0754	62.62	-0.312	-0.0926	0.2194	1176.7483	0.064174	-451.537759	-451.529857	-451.528912	-451.571299	26.825	
O	-0.0235019812	 0.0248074883	-0.3029488622	-0.210648
C	 0.0808696119	 1.190794465	-0.1635023371	 0.352833
C	-0.8811499245	 2.4084866809	-0.0162582528	-0.122461
O	 0.2676724642	 3.2776509688	 0.0860150502	-0.269096
C	 1.2441348954	 2.2213137977	-0.0419250101	-0.122461
C	 2.1135386216	 2.0795257329	 1.1186415328	 0.29625
N	 2.7922401692	 1.947123364	 2.044074571	-0.29095
C	-1.7374812344	 2.6966257394	-1.1593018008	 0.296249
N	-2.4093770365	 2.9053404551	-2.0755913539	-0.290946
H	-1.4689336017	 2.3901649707	 0.9099032203	 0.180615
H	 1.838911196	 2.3175075171	-0.9587601375	 0.180616
