15
gdb 2587	3.07515	2.73684	1.72062	1.6841	62.99	-0.261	0.0257	0.2867	765.8129	0.122628	-308.464824	-308.457202	-308.456258	-308.496363	27.773	
C	-0.3431727219	 1.4424717683	-0.068786764	-0.381795
C	 0.2224107053	 0.0274875544	 0.0880405037	-0.261927
C	 0.8410023263	-0.5015192499	-1.1956173548	 0.21953
C	 0.6670265866	-1.9170775647	-1.5829891363	-0.215944
O	-0.1080830675	-0.8994938337	-2.2071626452	-0.262384
C	 1.9987313159	 0.2129501613	-1.6863817604	 0.311838
C	 2.9653235324	 0.8228043374	-2.0590009591	-0.442296
H	 0.4421574923	 2.1501841955	-0.3500112561	 0.130803
H	-1.1132007631	 1.4638262677	-0.8454541503	 0.133517
H	-0.7918007785	 1.7861014609	 0.8675837603	 0.114084
H	 0.9842560811	 0.0070603024	 0.8763828422	 0.109705
H	-0.5724489967	-0.6645779921	 0.3856770389	 0.10682
H	 1.4136348937	-2.3937248113	-2.2154610418	 0.122546
H	 0.1235500535	-2.5814135832	-0.9116310625	 0.11553
H	 3.8175257305	 1.3563745572	-2.4008762845	 0.199971
