13
gdb 62426	2.44442	1.58092	1.37616	3.8898	63.44	-0.2595	-0.0585	0.201	960.8973	0.08755	-452.702152	-452.694054	-452.693109	-452.734967	29.141	
O	-0.1196282993	 1.4541672342	 0.1293987613	-0.443627
C	-0.0425893978	 0.0676005566	 0.0216725315	 0.168305
C	 0.8888221152	-0.5268897854	 0.9950599379	 0.224558
N	 1.6384491723	-0.9828249081	 1.7478498721	-0.318708
C	-1.3889661196	-0.6784376448	 0.0135553994	-0.077285
N	-2.1013812181	-0.2190479128	-1.1731680079	-0.322768
C	-1.104041463	-1.3363643941	-1.3120009165	-0.176402
C	 0.2147460361	-0.6153624328	-1.4077552195	 0.398453
O	 1.1463493982	-0.6000676534	-2.147070244	-0.28604
H	 0.7201612944	 1.8300166885	-0.1618439812	 0.307357
H	-1.8829048567	-1.1011660258	 0.8774639693	 0.136431
H	-3.0224009937	-0.6577317785	-1.1736542842	 0.254095
H	-1.390801808	-2.3059704136	-1.6954017582	 0.13563
