18
gdb 8580	4.01928	1.97244	1.73274	1.3393	67.29	-0.2413	0.0918	0.3332	828.9689	0.155188	-384.925028	-384.918291	-384.917347	-384.955538	27.285	
C	 0.1826764761	 1.5351313858	 0.0107522504	-0.401229
C	 0.0746469782	 0.0260924477	 0.0024100721	 0.236218
O	 0.6819499369	-0.4690099327	-1.1818639387	-0.293133
C	 1.1076649164	-1.8256839592	-1.0539971783	 0.123017
C	 0.2377808465	-2.5870733012	-0.0133447041	-0.282868
C	 1.1151801799	-1.8377803808	 1.0297729644	 0.123014
C	 2.2628212833	-1.8804764027	-0.0165469775	-0.234539
O	 0.690474683	-0.4826898481	 1.1764341479	-0.29313
H	 1.2349935727	 1.8288903841	 0.0090593644	 0.128799
H	-0.3061052833	 1.9471228512	-0.8755354809	 0.125332
H	-0.3003883508	 1.9369426978	 0.9048140194	 0.125319
H	-0.9841345159	-0.2810457029	 0.0044611343	 0.067886
H	 1.2409322277	-2.2172274075	-2.063496916	 0.078727
H	-0.8447111276	-2.4510008619	-0.008651357	 0.109347
H	 0.4703185201	-3.6537498855	-0.0203735614	 0.107583
H	 1.2557015988	-2.2410039516	 2.0336756005	 0.078726
H	 2.790108906	-2.8381894115	-0.0240146413	 0.096715
H	 2.9651822518	-1.0455702208	-0.0142286681	 0.104215
