23
gdb 59421	3.33412	0.99256	0.90816	1.6438	86.25	-0.2194	0.077	0.2963	1423.3994	0.204628	-388.260212	-388.250507	-388.249563	-388.294893	36.715	
C	-1.4157509231	-0.5139416081	-0.3711789484	-0.403419
C	-0.0783095273	 0.153954018	-0.0208790118	 0.017006
C	-0.2937001274	 1.6501056358	 0.259482306	-0.380498
C	 0.6646158406	-0.4927583881	 1.1460686915	-0.079928
C	-0.0086381625	-1.2996159886	 2.2567799703	-0.372212
C	 0.9329803462	-1.9529374572	 1.2957108038	 0.447108
C	 0.7277531277	-3.143148868	 0.3599921446	-0.350842
C	 2.0831726471	-3.6162093708	 0.9259869265	-0.081055
O	 2.2188225807	-2.4193703164	 1.723822878	-0.307022
H	-2.1427480368	-0.3910819172	 0.4390170358	 0.118347
H	-1.8440814521	-0.0524053627	-1.2666534018	 0.111828
H	-1.3127558493	-1.5845080327	-0.5701644483	 0.116768
H	 0.5755129742	 0.073376646	-0.9021154629	 0.074848
H	-0.924048109	 1.7916953156	 1.1448450082	 0.116519
H	 0.6569917621	 2.1616079424	 0.441864297	 0.111221
H	-0.7850940412	 2.1439723037	-0.5854813891	 0.106041
H	 1.5011229006	 0.1078621679	 1.4997172364	 0.092471
H	 0.3388754995	-1.1484018547	 3.2733252271	 0.117681
H	-1.0651266513	-1.5320993866	 2.1682297799	 0.110028
H	-0.1312648325	-3.7804991056	 0.5782590259	 0.112415
H	 0.7399604599	-2.9031650122	-0.7051116441	 0.114752
H	 2.0433559207	-4.5177621387	 1.5490132328	 0.10341
H	 2.8985131331	-3.7164283317	 0.2008948325	 0.104531
