19
gdb 109450	2.32668	1.45766	0.99803	1.7238	78.24	-0.228	0.0218	0.2498	1228.4405	0.159085	-419.175446	-419.166535	-419.165591	-419.20927	33.271	
C	 0.2220838012	 1.4835703001	 0.0740900219	-0.32486
N	-0.2063109745	 0.1410535928	-0.3259288129	-0.290605
C	 0.6456623217	-0.4711522409	-1.3132161508	-0.192372
C	 1.9784806294	-1.1183407743	-0.9156808769	 0.410513
N	 3.0173640725	-0.7334085865	-0.3276282749	-0.551924
O	 1.6275627268	-2.3669376714	-1.4005076682	-0.277143
C	 0.3000811782	-1.8972082194	-1.7433230764	 0.436534
C	-0.9172380388	-2.702908637	-1.4591563207	-0.334148
C	-0.4624803161	-2.442544948	-2.8929884198	-0.340019
H	 1.2471395734	 1.5251339731	 0.4686714467	 0.13748
H	 0.1637673654	 2.1510194695	-0.7929881439	 0.123103
H	-0.4653740715	 1.8641413807	 0.8346540429	 0.119149
H	-0.2588183871	-0.4581484245	 0.4919254721	 0.22489
H	 0.7660520286	 0.2187364064	-2.1554200839	 0.111347
H	 3.6859947488	-1.4970490276	-0.2074652378	 0.227253
H	-0.7767128301	-3.7042436471	-1.0673068151	 0.129697
H	-1.789274977	-2.1744938373	-1.088430493	 0.133076
H	-1.0343600411	-1.7530167074	-3.5052307648	 0.126495
H	-0.0216843196	-3.2743840613	-3.4314367344	 0.131535
