18
gdb 8209	2.77616	2.3391	1.64418	1.4744	67.43	-0.2502	0.07	0.3202	848.4909	0.153718	-384.931538	-384.923797	-384.922853	-384.962916	30.06	
C	-0.0637773821	 1.5311018982	 0.0059075019	-0.483512
C	-0.0173479962	 0.0250375786	 0.0104912065	 0.271098
C	 1.2810862078	-0.7128410712	-0.2741506123	-0.397037
C	 0.6638068959	-0.7660739378	 1.1001921417	 0.332001
O	 1.2491925888	-0.1137910082	 2.1823205435	-0.468308
C	-0.2419798953	-1.9563400021	 1.3775028171	-0.137101
O	-1.0667092791	-2.076897907	 0.2258848581	-0.256035
C	-1.2731476756	-0.7698337208	-0.3107496155	-0.133612
H	 0.8287003218	 1.9429946224	 0.4845206181	 0.130285
H	-0.1212845791	 1.9294906607	-1.0131487268	 0.116905
H	-0.9354109682	 1.8991833059	 0.5590306769	 0.118571
H	 1.2608553562	-1.6050915441	-0.8928730608	 0.118979
H	 2.1651743762	-0.0924106349	-0.3790617795	 0.109131
H	 2.0845843624	-0.5494468053	 2.3810907432	 0.287561
H	 0.2808144659	-2.911067551	 1.5050408656	 0.09914
H	-0.8263008371	-1.7505233818	 2.2893223639	 0.096411
H	-2.1479389796	-0.2835630072	 0.1529262898	 0.089388
H	-1.4728416927	-0.8889142744	-1.3811732413	 0.106134
