20
gdb 6780	7.40837	0.67265	0.62866	3.5344	73.42	-0.2446	-0.0094	0.2352	1784.954	0.173409	-386.155353	-386.144985	-386.14404	-386.192475	34.508	
C	-0.014404335	 1.4055615657	 0.0019543194	-0.22672
O	-0.0126672982	-0.0003221445	-0.0006252394	-0.228605
C	 0.6550104422	-0.5480690104	-1.1149086373	-0.054586
C	 0.5965356376	-2.0660427546	-1.0174386736	-0.188536
C	 1.2986788364	-2.7487441158	-2.1891484248	-0.304291
C	 1.25938463	-4.2719608352	-2.1238956965	 0.377181
C	 1.9432545334	-5.0077926874	-3.2641629277	-0.472729
O	 0.7162687563	-4.8611638341	-1.2185145763	-0.285609
H	 1.0074856675	 1.8175044966	 0.0307694178	 0.100915
H	-0.5219153898	 1.8172915666	-0.8855682148	 0.100917
H	-0.5504713015	 1.7317889656	 0.8966001094	 0.127108
H	 0.1838081853	-0.2015560347	-2.0527960671	 0.07904
H	 1.7042916792	-0.2016154363	-1.1417071192	 0.079039
H	 1.0511923828	-2.3848367877	-0.0746127877	 0.121672
H	-0.4492910742	-2.3847907045	-0.9738157949	 0.121689
H	 0.8584715743	-2.4426041985	-3.1494715691	 0.11823
H	 2.3531375209	-2.4427124289	-2.2537765539	 0.118211
H	 3.0019193698	-4.7299592597	-3.3183482899	 0.136916
H	 1.8539773133	-6.0845673236	-3.1163824756	 0.143264
H	 1.4933599898	-4.7290949586	-4.2237533389	 0.136891
