16
gdb 16756	5.6931	1.54193	1.33201	1.6073	65.62	-0.2141	0.0564	0.2705	930.7007	0.131969	-379.914959	-379.907771	-379.906826	-379.946293	27.11	
C	-0.0043753388	 1.3691713851	-0.0119035737	-0.232175
O	-0.0381546114	-0.0587835078	-0.0766338796	-0.259581
C	-1.2593261234	-0.595962649	-0.0456669707	 0.475375
N	-2.3744098611	 0.0395676024	-0.0021457014	-0.364447
C	-3.4080018994	-0.9641829153	 0.0301707902	-0.007331
C	-3.5559947443	-1.8805656307	-1.1683527176	-0.294795
C	-2.7101855884	-2.328837367	-0.0059152172	-0.02409
N	-1.3095454885	-1.9805583552	-0.1043213347	-0.365851
H	 1.0501806859	 1.6429691629	-0.0584800328	 0.128071
H	-0.5539574528	 1.8035433485	-0.8511138381	 0.14281
H	-0.4526898971	 1.7248408888	 0.9199951316	 0.138384
H	-4.2808818332	-0.7376665877	 0.6326016414	 0.089484
H	-4.515557653	-2.3725220415	-1.2880969507	 0.110469
H	-3.0565828937	-1.606948545	-2.0922870131	 0.117801
H	-2.9655256488	-3.1958257102	 0.5907500809	 0.097914
H	-0.6166879722	-2.5105496282	 0.4020879854	 0.247961
