17
gdb 32669	2.88814	1.50663	1.07324	2.1826	77.11	-0.2392	-0.0438	0.1954	1116.3389	0.138392	-418.082923	-418.075058	-418.074114	-418.115596	29.439	
C	 0.009928182	 1.5578052908	 0.0477284827	-0.380881
C	-0.0458282516	 0.0336456206	-0.0538459746	-0.159956
N	 0.6536730829	-0.4765832035	-1.2410355428	-0.117482
C	-0.0310501013	-0.8310723251	-2.35632584	 0.119369
N	 0.4902191615	-1.2802777624	-3.4575380738	-0.309309
C	 1.8556226855	-1.395511658	-3.4566802814	 0.012906
C	 2.6483381019	-1.0775846889	-2.3995389387	-0.225055
C	 2.0751745936	-0.5703820086	-1.1753145302	 0.42455
O	 2.6645000409	-0.2389756019	-0.1606038782	-0.408155
H	 1.0470128007	 1.8913222934	 0.1181643894	 0.159528
H	-0.4583753033	 2.0301108907	-0.8213583413	 0.121532
H	-0.5216253508	 1.8880547881	 0.9450780956	 0.125671
H	 0.4371426767	-0.4175645057	 0.8148952383	 0.149919
H	-1.0786552868	-0.3219708224	-0.1042719123	 0.114763
H	-1.1115214676	-0.721201035	-2.2904968889	 0.130794
H	 2.2881394154	-1.7706358495	-4.3803184286	 0.120683
H	 3.7251495302	-1.1841606825	-2.4314942252	 0.121124
