21
gdb 75114	2.61994	1.28979	0.999	3.09	85.28	-0.2213	-0.0094	0.2119	1262.7447	0.1834	-387.13108	-387.122257	-387.121313	-387.164534	33.902	
C	-0.0807877142	 1.5389042139	-0.0120983648	-0.479329
C	-0.0256623123	 0.0350047138	 0.0100864962	 0.347164
C	-0.066277466	-0.6864110758	-1.1131737173	-0.169102
C	 0.0017556684	-2.1992621778	-1.173248296	-0.345278
C	 1.3485990449	-2.7012242835	-0.6479185536	 0.393334
O	 2.2249278212	-3.0631729461	-1.398064841	-0.304608
C	 1.5223717578	-2.7340729351	 0.8656296705	-0.286428
C	 1.4277305998	-1.3717218176	 1.5844314787	-0.193093
C	 0.1009951525	-0.6143039157	 1.3774778657	-0.299244
H	 0.8096672843	 1.973858152	 0.4608239811	 0.124992
H	-0.15047482	 1.9299444556	-1.0304456841	 0.122054
H	-0.9436152358	 1.9094201625	 0.5567697277	 0.124422
H	-0.1225310224	-0.1738607633	-2.0695006047	 0.090424
H	-0.8068751116	-2.6432658748	-0.5767060447	 0.109976
H	-0.1017449712	-2.5458964243	-2.2027679071	 0.119785
H	 0.7413085476	-3.39399986	 1.2704106571	 0.10908
H	 2.4904475227	-3.1986615808	 1.0708001987	 0.117661
H	 1.5696155903	-1.5565759782	 2.6557078845	 0.101257
H	 2.2599672045	-0.7334888512	 1.2653995401	 0.111942
H	 0.0159527462	 0.1576626088	 2.1491454392	 0.099492
H	-0.7375053465	-1.3057825424	 1.5472903738	 0.105496
