18
gdb 31002	2.45185	1.25686	0.86739	0.3857	78.15	-0.1763	0.0376	0.2139	1326.6595	0.14685	-439.111673	-439.102054	-439.10111	-439.146455	34.698	
C	 0.1026817472	 1.4360394473	 0.1624083071	-0.494975
C	-0.0841195438	-0.028363197	-0.0001277664	 0.23675
C	-1.1577680327	-0.8509429316	-0.1343753412	 0.230384
C	-2.5998164938	-0.4714616775	-0.1796452342	-0.213095
O	-3.2994842398	-1.1969107973	 0.830861488	-0.416609
C	-0.6440356923	-2.1956996998	-0.2417540131	-0.362534
C	 0.7078639705	-2.0805905214	-0.1707771233	 0.365911
N	 1.7622625641	-2.9787495695	-0.2865480845	-0.595926
O	 1.0738775342	-0.7815545083	-0.0318497993	-0.213617
H	 0.6790077532	 1.6683217665	 1.065946234	 0.132535
H	 0.6369230868	 1.8796782006	-0.6870089719	 0.131916
H	-0.8669501036	 1.931996958	 0.2448559213	 0.132519
H	-2.7091759347	 0.6146208997	-0.0375618052	 0.085777
H	-3.0157497837	-0.7089125724	-1.1727943204	 0.092246
H	-4.2404630367	-1.043780242	 0.699742761	 0.283571
H	-1.2196310613	-3.1028428465	-0.3272273192	 0.098876
H	 1.4763867598	-3.9300055946	-0.0987564108	 0.253717
H	 2.5503333066	-2.7263052445	 0.2975360683	 0.252556
