16
gdb 44916	3.13769	1.52526	1.50365	1.9703	71.66	-0.2451	0.0039	0.249	941.7021	0.128341	-434.087296	-434.080668	-434.079724	-434.118222	27.021	
N	-0.0978326874	 1.282295955	 0.0227237598	-0.559541
C	-0.0028727669	 0.0198237689	-0.031363994	 0.40027
N	 1.1163517227	-0.827761339	-0.1050113774	-0.32132
C	 0.6159822855	-2.2177135901	 0.0171802613	-0.107307
C	-0.6529003133	-2.1127260493	-0.8537433619	-0.242618
C	-1.1765966154	-0.9512791189	 0.0035875319	 0.031744
O	-1.1410693848	-1.5344798839	 1.3473589721	-0.262645
C	-0.02716447	-2.3408052781	 1.389138496	 0.447934
N	 0.3834533509	-3.0042867733	 2.3781642171	-0.564442
H	 0.8221250143	 1.7288574596	 0.0255814203	 0.212094
H	 1.9318041898	-0.5773883859	 0.4384769515	 0.252348
H	 1.3672178977	-2.9664071504	-0.2166172706	 0.110413
H	-0.436641043	-1.8396015127	-1.8872920859	 0.130331
H	-1.2930069416	-2.9949720115	-0.8038747195	 0.129241
H	-2.1592975218	-0.5258693637	-0.1709947062	 0.115252
H	-0.2296659266	-2.8718553766	 3.1852996654	 0.228245
