25
gdb 114919	3.02268	1.04759	0.86023	0.2618	94.84	-0.2243	0.0345	0.2588	1486.1714	0.228593	-352.387431	-352.377148	-352.376204	-352.422305	39.011	
C	 0.0457064449	 1.63271107	 0.0244389301	-0.385588
C	 0.0462430174	 0.1009365456	-0.0330257446	-0.195423
C	 0.6279399518	-0.5522508951	 1.2238930293	 0.043056
C	-0.1611064434	-0.2918598481	 2.5351559659	-0.264245
C	 0.1825586191	-1.4983647739	 3.3719278501	-0.175725
C	 0.7333636488	-2.4804815269	 2.6551414038	 0.341164
C	 1.1868827556	-3.8166731324	 3.1555744008	-0.497453
C	 0.8129483654	-2.1024524777	 1.1819974769	-0.104632
C	-0.2376836212	-2.8670187452	 0.3539591213	-0.393709
H	 1.0597643796	 2.0232651446	 0.1673548303	 0.111835
H	-0.3492180712	 2.0635386248	-0.901026734	 0.108457
H	-0.5696070608	 2.0039192881	 0.8506130858	 0.118372
H	-0.9787409546	-0.2543871948	-0.196801634	 0.095008
H	 0.6251215683	-0.223327172	-0.9079919163	 0.090645
H	 1.6317003465	-0.1337854218	 1.3797928444	 0.069669
H	 0.1217654861	 0.6539873135	 3.0111180823	 0.097952
H	-1.2453835149	-0.2280261511	 2.3525035838	 0.09639
H	-0.0222197428	-1.5535291124	 4.4367579855	 0.078587
H	 1.0313908398	-3.9161422176	 4.2335458895	 0.120359
H	 0.6522405986	-4.6377827127	 2.6617962076	 0.124099
H	 2.2537563815	-3.9749383568	 2.9501091099	 0.121336
H	 1.7997053175	-2.3493293135	 0.7661240345	 0.061973
H	-1.2534026196	-2.6599198097	 0.7072603773	 0.115962
H	-0.1852969326	-2.6012499617	-0.7061753861	 0.112811
H	-0.0770921397	-3.9474365832	 0.4280131757	 0.109098
