23
gdb 116174	2.97102	1.04211	0.82045	0.6206	82.74	-0.2356	0.0837	0.3193	1474.9115	0.205958	-425.429698	-425.420058	-425.419114	-425.464201	36.069	
C	 0.0560326929	 1.3894968901	 0.1083796021	-0.239234
O	-0.0727300579	-0.0052125142	-0.0559786917	-0.244262
C	 0.612867033	-0.5367986298	-1.1770525886	 0.104877
C	 2.111991033	-0.726365583	-0.8905809628	-0.096769
O	 2.7686901971	-1.344073735	-1.9817684978	-0.246954
C	 2.2552184071	-2.6371010367	-2.2536095882	-0.067987
C	 0.7674408023	-2.6055777246	-2.625474106	 0.009441
C	 0.2284584723	-4.0127021347	-2.8948398619	-0.405741
C	-0.015610596	-1.8877912823	-1.513897822	-0.220601
H	 1.0876179192	 1.7007589455	 0.3277768497	 0.108054
H	-0.2843852438	 1.9357882246	-0.785059419	 0.10552
H	-0.575547786	 1.6722777198	 0.9543972195	 0.127242
H	 0.5081146315	 0.1423369667	-2.0397500526	 0.066873
H	 2.6163284193	 0.2307729483	-0.7318661284	 0.101191
H	 2.218323116	-1.3275960635	 0.0286403642	 0.089793
H	 2.8563191858	-3.0352917773	-3.0770328289	 0.103285
H	 2.402975426	-3.2950037428	-1.3779443468	 0.08123
H	 0.6805947031	-2.0125670741	-3.5465526335	 0.078949
H	 0.3121031429	-4.6450230484	-2.0032399118	 0.116152
H	-0.8281856173	-3.980270282	-3.1789844556	 0.116722
H	 0.7779015757	-4.5032452317	-3.7054902811	 0.113076
H	-0.0113607151	-2.5010866906	-0.6020194594	 0.10137
H	-1.0645625109	-1.7488040743	-1.7973207293	 0.097774
