12
gdb 2615	11.74047	1.06098	0.98506	4.44	58.01	-0.2789	-0.0091	0.2698	1078.9803	0.087595	-323.328581	-323.320942	-323.319998	-323.361001	25.362	
C	 0.0197090449	-1.1797102179	-0.0044542527	-0.398707
C	 0.0401026816	 0.0202899016	 0.0017533631	 0.28256
C	 0.0280733873	 1.4737999355	 0.0096724408	-0.209308
O	 1.3639402942	 1.9626725592	-0.0004452231	-0.233418
C	 1.4003029434	 3.3690593862	 0.0067734669	-0.177293
C	 2.7960705573	 3.81330008	-0.0041486379	 0.271206
N	 3.8839971927	 4.1988568673	-0.0124516247	-0.28793
H	 0.0103277386	-2.2419394377	-0.0100050364	 0.209684
H	-0.5212218476	 1.8509483988	-0.8692275373	 0.128901
H	-0.504319386	 1.8414369948	 0.9028873174	 0.128903
H	 0.8892799071	 3.793837362	-0.8732304283	 0.142701
H	 0.9061998265	 3.7842932902	 0.9008822323	 0.142701
