14
gdb 49960	2.28879	1.27827	0.99022	2.3334	69.6	-0.2707	-0.078	0.1927	1177.1063	0.098376	-436.699268	-436.690531	-436.689587	-436.733288	30.276	
O	-0.1220189634	 0.1277689168	-0.2747428105	-0.244398
C	-0.0518729447	 1.2744561923	 0.0882489851	 0.142276
C	 1.2420432531	 2.0271257163	 0.0642524406	-0.130323
C	 1.2727864356	 3.4999328882	-0.1790833783	-0.312964
C	 1.6309720074	 3.015452644	 1.215446344	 0.051007
C	 0.6492205107	 3.2951287571	 2.3235287075	 0.102463
O	-0.5181014758	 3.5206870221	 2.1342367128	-0.251614
C	 3.0132387163	 2.9949604048	 1.6132474547	 0.231613
N	 4.1165803698	 2.9860886967	 1.9598060223	-0.31668
H	-0.9355273979	 1.8427850522	 0.4306873526	 0.125503
H	 2.0751334013	 1.4347201784	-0.2976973407	 0.148585
H	 2.0723917148	 3.9053042405	-0.7861803456	 0.16392
H	 0.3194978873	 4.0159467187	-0.2302650005	 0.16738
H	 1.0911819355	 3.2889571121	 3.3390867259	 0.123232
