15
gdb 84614	2.73392	1.57765	1.24541	2.1269	72.27	-0.2495	-0.0224	0.2271	1010.9313	0.111388	-420.567227	-420.559456	-420.558512	-420.599318	30.24	
O	 0.0684840762	 1.3702866992	-0.1330607435	-0.429607
C	 0.089128007	-0.039107932	-0.0404873966	 0.023332
C	 0.6971527317	-0.5377500576	 1.2638888912	-0.127216
C	-0.1582110565	-1.2635606473	 1.9846777423	-0.07979
C	-1.4739402793	-1.3590050898	 1.2793916299	-0.066397
O	-2.1046552666	-0.0718537759	 1.0689423416	-0.305817
C	-1.3323355834	-0.6495801485	-0.0069111626	 0.209417
C	-2.0184218401	-0.9813424287	-1.2176084553	 0.185155
C	-2.5558967512	-1.2503819798	-2.2585689809	-0.350053
H	-0.5462537715	 1.6699287075	 0.5501620632	 0.291722
H	 0.6405632994	-0.3933930083	-0.9171961635	 0.105814
H	 1.6958687782	-0.2404685151	 1.5615925628	 0.117515
H	 0.0257016661	-1.7027467154	 2.9573785771	 0.115407
H	-2.1618827378	-2.1862259814	 1.4200982971	 0.116547
H	-3.0403855121	-1.487419947	-3.1735341328	 0.193971
