16
gdb 24666	4.4473	1.13962	0.9652	3.1951	78.56	-0.2514	-0.0267	0.2247	1187.404	0.12685	-400.781178	-400.774085	-400.773141	-400.813311	26.857	
C	 0.1709574116	 1.5195018036	 0.0143289362	-0.177231
O	 1.1838000643	 0.5355783009	-0.1780634064	-0.225019
C	-0.156429511	 0.0798940051	 0.0150185068	-0.023183
C	-0.4534651832	-0.6669073156	 1.2670286639	 0.245969
C	 0.4258942517	-0.6492476525	 2.3548458367	-0.059748
N	 0.1997001024	-1.2810195085	 3.507620648	-0.264219
C	-0.9372761765	-1.9743372559	 3.6161723053	 0.001861
C	-1.8759352624	-2.073721553	 2.5928378814	-0.113497
C	-1.6254042201	-1.4109845233	 1.3976319597	-0.170985
H	 0.2077327529	 2.0503223715	 0.9642958686	 0.12303
H	-0.065695763	 2.1266061475	-0.8584937159	 0.123034
H	-0.6253792198	-0.3226926637	-0.8840656389	 0.099816
H	 1.3641508823	-0.1082682846	 2.2698273285	 0.124604
H	-1.1021834878	-2.4794063153	 4.5649411693	 0.109831
H	-2.7773901113	-2.6605400154	 2.7299103311	 0.103779
H	-2.3309398501	-1.4692846306	 0.5734667857	 0.101957
