19
gdb 76835	2.66297	1.48777	1.25373	4.1467	75.29	-0.2335	-0.0132	0.2203	1074.8018	0.157989	-423.015806	-423.007084	-423.00614	-423.049602	33.051	
C	-0.9431403233	 1.1332562056	-0.0652100324	-0.42674
C	-0.1011802818	-0.1306485209	 0.0230593367	 0.003311
C	 1.0934001949	-0.3073489379	-0.9806100489	 0.081819
O	 1.5689516065	 0.8634466649	-1.6113081921	-0.413187
C	 2.026354635	-0.7250537912	 0.1950091541	-0.186006
C	 0.8756101697	-0.3456833279	 1.2105296601	-0.051087
C	 1.6965461956	 0.8907566535	 1.686030757	-0.367582
C	 2.8461651541	 0.4410338478	 0.7635643477	 0.442962
O	 3.9854961136	 0.7803683091	 0.6439937779	-0.301818
H	-0.3203881051	 2.029473122	-0.1276813026	 0.130365
H	-1.5856688246	 1.1161499473	-0.95357476	 0.109701
H	-1.5966731102	 1.2307917102	 0.8081753698	 0.120362
H	-0.7521643293	-1.0085217662	-0.0552407238	 0.073725
H	 0.9351686454	-1.1091452535	-1.7129906402	 0.074731
H	 0.9556376403	 1.1027315685	-2.3137417627	 0.288671
H	 2.5160126295	-1.6957052458	 0.1153656436	 0.086813
H	 0.5554283738	-1.0220861988	 2.0021926771	 0.07446
H	 1.2846166299	 1.87902502	 1.4673263479	 0.130138
H	 1.9809832359	 0.8671809433	 2.7428133206	 0.129362
