14
gdb 21528	3.44417	1.89801	1.28147	2.9722	60.49	-0.2121	-0.0099	0.2023	895.5302	0.108377	-415.838434	-415.831079	-415.830134	-415.87017	27.058	
N	-0.1128332328	 1.3947521002	-0.1315535853	-0.613483
C	-0.0546507002	 0.0008423258	-0.0681130368	 0.074919
C	-1.0896316465	-0.8867067468	 0.0314622121	 0.327999
C	-2.5681254765	-0.6833346877	 0.0176242164	-0.193593
O	-2.9477588839	 0.3153912079	-0.9295300197	-0.408342
O	-0.6019525392	-2.1464535869	 0.1459432476	-0.215381
N	 0.7784431343	-2.1057735458	 0.1255275717	-0.141465
C	 1.0939848742	-0.8380071915	 0.0015734354	-0.014348
H	 0.6338287247	 1.8044812028	-0.6766395728	 0.246717
H	-1.0135704352	 1.7120157136	-0.4697551274	 0.256754
H	-3.0684922748	-1.6436832914	-0.166584794	 0.126143
H	-2.9265923998	-0.3071118155	 0.9825810205	 0.138671
H	-2.6946182053	-0.0063356527	-1.8020161863	 0.29004
H	 2.136950931	-0.554491452	-0.0357556015	 0.125371
