18
gdb 27092	2.8437	1.21235	0.90479	1.1769	81.96	-0.2032	-0.0266	0.1766	1279.9222	0.147207	-402.002428	-401.993238	-401.992293	-402.037992	32.559	
C	-0.2600992732	 1.5878156975	 0.2462620335	-0.508896
C	-0.0611384613	 0.1098174644	 0.0899829469	 0.191661
C	 0.0605432342	-0.6012351385	-1.0902853192	 0.199811
C	 0.0540971049	-0.1820755749	-2.5311445385	-0.381822
C	 1.3974174134	-0.5583883793	-3.1339458522	 0.154194
O	 1.5916013734	-1.5752851941	-3.7527369959	-0.253137
N	 0.2268329845	-1.9311205545	-0.7640050756	-0.279626
C	 0.2091220282	-2.083205436	 0.5954576488	-0.083802
C	 0.0289042096	-0.8398648171	 1.1519522596	-0.224741
H	 0.5947541595	 2.0626471263	 0.742552192	 0.127504
H	-0.393932969	 2.0867761887	-0.7180486183	 0.11559
H	-1.1450046007	 1.810832352	 0.8531116999	 0.128067
H	-0.7347784977	-0.6866598779	-3.101043993	 0.125032
H	-0.0959590528	 0.8990669474	-2.5966301092	 0.12282
H	 2.2275642208	 0.1452166725	-2.9027179201	 0.08617
H	 0.3825905442	-2.6614161056	-1.438614799	 0.269522
H	 0.3224466038	-3.0547194366	 1.0490481443	 0.119995
H	-0.039413562	-0.6228681043	 2.2075292263	 0.091658
