16
gdb 125981	3.66856	1.33077	1.04744	4.0338	71.22	-0.2168	0.0207	0.2375	1120.5762	0.125996	-434.07564	-434.067641	-434.066697	-434.108987	28.973	
C	 0.145305734	 1.6185156279	 0.0718975116	-0.400013
C	 0.0058392545	 0.1021861116	 0.0381799571	-0.144042
C	 0.5525345918	-0.6504726816	-1.2528979331	-0.18589
N	 1.4592757165	-1.381759459	-0.3459630504	-0.126384
C	 1.0535436316	-0.7230100236	 0.7705100132	 0.414472
N	 1.7160678911	-1.0070896231	 1.8433172516	-0.336065
N	 2.6222538611	-1.9457744058	 1.3405153589	-0.320009
C	 2.5532179818	-2.2005859887	-0.0316401928	 0.440942
O	 3.2379876047	-2.927381072	-0.7133893829	-0.420973
H	 1.1643832606	 1.9278301653	-0.1792412354	 0.13255
H	-0.54282985	 2.0847626353	-0.6400172917	 0.127587
H	-0.0872538955	 2.0027644804	 1.069054052	 0.142817
H	-1.0167808747	-0.2001290843	 0.2807698784	 0.116501
H	-0.1599379572	-1.2915433256	-1.7755840963	 0.139431
H	 1.0753736358	-0.0064317676	-1.964132941	 0.139687
H	 3.316248654	-2.3388532393	 1.9517653609	 0.27939
