16
gdb 30558	6.21893	0.79828	0.7302	2.4496	77.47	-0.2167	0.0072	0.2239	1531.9457	0.123544	-437.900142	-437.891739	-437.890794	-437.934367	29.943	
C	-0.0534508585	 1.3750642273	 0.1250325145	-0.316773
N	-0.1352816743	 0.0411197772	-0.43453049	-0.190796
C	-1.0787767257	-0.6880769408	-0.0547675665	 0.108568
O	-1.173430253	-1.9671263454	-0.5431585879	-0.229822
C	-2.2702974217	-2.6827415148	-0.228166088	 0.429826
C	-2.4061075337	-3.9807157302	 0.1407122796	-0.302395
C	-3.8228255567	-4.1960234647	 0.2454586479	-0.161723
C	-4.4200896485	-3.0183587001	-0.060271526	-0.018253
O	-3.4737854241	-2.0731212694	-0.3635640832	-0.177626
H	 0.9093978678	 1.4966259098	 0.6330001575	 0.134613
H	-0.0813392715	 2.1100697624	-0.6866249381	 0.135184
H	-0.8571475444	 1.6130304554	 0.8395995261	 0.102561
H	-1.8717956201	-0.424438807	 0.6539719156	 0.107295
H	-1.6068252829	-4.6810829465	 0.3151225443	 0.122776
H	-4.320582118	-5.1130210749	 0.5189291663	 0.117334
H	-5.4413054748	-2.6814949785	-0.1071731821	 0.139232
