16
gdb 108163	3.39026	1.43488	1.22441	3.2891	69.15	-0.2232	-0.0603	0.1629	1011.315	0.122499	-437.732308	-437.724724	-437.72378	-437.764304	29.517	
O	-0.0418021265	 1.4083319969	-0.1561907991	-0.407677
C	 0.0100815336	 0.0113501051	 0.0852624102	-0.163627
C	-1.3646378005	-0.5984259882	 0.1765194531	 0.225135
C	-2.3788410854	-0.0811490376	 1.2353100688	-0.20697
N	-3.6343249969	-0.8466312431	 0.9174279651	-0.228028
C	-3.1722557329	-1.7514938412	 0.1647918471	 0.266476
O	-3.3619656284	-1.7275171381	-1.2294523748	-0.263811
C	-1.9121992825	-1.375085853	-1.1694260526	 0.021263
C	-1.6381532748	-2.0608110424	 0.0856192134	-0.252092
H	-0.5256078711	 1.5453129126	-0.9779284965	 0.287532
H	 0.6153811639	-0.5136279742	-0.6714062188	 0.093245
H	 0.5301198864	-0.1016949585	 1.0441064935	 0.122079
H	-1.9836986506	-0.211713125	 2.2544645494	 0.112693
H	-2.6393077425	 0.9722191427	 1.1032907352	 0.141918
H	-1.4063538423	-1.351321929	-2.127961243	 0.131163
H	-1.0855140095	-2.9512785773	 0.3553860389	 0.1207
