18
gdb 77949	2.55803	1.63744	1.14584	3.0872	72.79	-0.2405	0.0733	0.3139	1077.5404	0.146659	-438.972339	-438.964404	-438.963459	-439.004409	31.365	
C	 0.1017895143	 1.4112189967	-0.3541730986	-0.333381
N	 0.0646900783	-0.0111872858	-0.0205482594	-0.139562
C	-1.042987691	-0.5234871138	 0.8939730422	-0.199515
C	-0.1085891269	-1.7696171559	 1.1023986828	 0.204371
O	 0.0958882897	-2.6296487954	 0.0393255256	-0.453607
C	 0.8008575371	-0.4939487859	 1.2247358564	-0.199511
C	-0.3160185005	 0.1048656643	 2.0913570009	 0.533166
C	-0.4911023681	 1.2537244766	 2.9648891081	-0.305698
O	-0.558665171	-0.1011092985	 3.4624397568	-0.294286
H	 1.0760751922	 1.6375440324	-0.7992037446	 0.12644
H	-0.6630034408	 1.6095491267	-1.1119751324	 0.126439
H	-0.0604911283	 2.0983881497	 0.4866381411	 0.110467
H	-2.0942986667	-0.4886457587	 0.6075135709	 0.089864
H	-0.2629481152	-2.3448488371	 2.0142437768	 0.113069
H	 0.2231199202	-2.0418208283	-0.7223982967	 0.284256
H	 1.884574841	-0.4249024636	 1.3212681301	 0.08986
H	 0.3741265573	 1.8251347905	 3.2980486836	 0.123815
H	-1.4354576413	 1.7961688659	 2.9734558865	 0.123815
