21
gdb 26364	3.98322	0.93577	0.91174	3.7973	85.72	-0.2084	0.0402	0.2487	1429.7101	0.182569	-383.325065	-383.315336	-383.314392	-383.361411	35.367	
C	 0.057836401	 1.5331387088	-0.0438294134	-0.38239
C	 0.0028216836	 0.0036657161	 0.0469446281	 0.031553
C	 0.743561835	-0.533473701	 1.2777402376	-0.379862
N	-1.380779368	-0.4790168746	 0.0102710389	 0.023304
C	-2.3852404015	-0.1962579645	 0.8884010689	-0.009395
N	-3.5089862682	-0.8044637254	 0.5783203217	-0.325126
C	-3.2343153266	-1.5280442852	-0.5624459564	 0.269146
C	-4.276327864	-2.364102541	-1.2326359947	-0.484507
C	-1.9244975219	-1.3378029135	-0.9246009786	-0.209354
H	 1.0973028566	 1.8701028208	-0.0992031945	 0.12093
H	-0.4710539012	 1.8896843707	-0.9315712674	 0.131717
H	-0.3987305114	 1.9982974953	 0.8353676355	 0.126244
H	 0.4756588147	-0.4112717549	-0.8490043541	 0.097747
H	 0.307506157	-0.1409765657	 2.2017288396	 0.126126
H	 0.6949074446	-1.624940174	 1.315001305	 0.131254
H	 1.7953738831	-0.2332393976	 1.2475648948	 0.12041
H	-2.2418543645	 0.4592745101	 1.7344692284	 0.120359
H	-5.1301778466	-1.7542318481	-1.5475629952	 0.130173
H	-3.8715136064	-2.8651783012	-2.1164839424	 0.111972
H	-4.66418208	-3.131110304	-0.5534033511	 0.130253
H	-1.3357804954	-1.7210792911	-1.7425415807	 0.119444
