18
gdb 53826	2.93169	1.11199	0.90186	1.4751	73.36	-0.2381	-0.0901	0.148	1319.9194	0.145465	-439.087873	-439.078266	-439.077322	-439.123549	33.623	
C	-0.2182105164	 1.1184955132	 0.7585999893	-0.472393
C	-0.4305057543	-0.3357302635	 0.4306748703	 0.30699
O	 0.2428510333	-1.2374991811	 0.8785963377	-0.282803
C	-1.5917582405	-0.6494740408	-0.5492773971	 0.291216
O	-2.2667984446	 0.2580492295	-0.9756893574	-0.27826
C	-1.8209951399	-2.1092867977	-0.8915563288	-0.329901
C	-2.6863446977	-2.7840301368	 0.1667672282	 0.015829
C	-2.4710648446	-4.2138769916	 0.5006416946	-0.243409
N	-2.1233923546	-3.1629518552	 1.4688976264	-0.314233
H	 0.6211408398	 1.2248650167	 1.4456386211	 0.143559
H	-0.038933359	 1.6877194951	-0.1590105528	 0.158282
H	-1.129756351	 1.5349266919	 1.1990794446	 0.162986
H	-2.3258641099	-2.1456745305	-1.8614321997	 0.129019
H	-0.8593528122	-2.6257614321	-0.9590933614	 0.123822
H	-3.6953900837	-2.3805830752	 0.2288599286	 0.105571
H	-3.3120473156	-4.8416530597	 0.7817504069	 0.120653
H	-1.6700347215	-4.7361818644	-0.0172837195	 0.11305
H	-1.1193154476	-2.9946435578	 1.4649595288	 0.250021
