21
gdb 91385	2.87185	1.38094	1.15847	0.8993	78.36	-0.2504	0.0814	0.3317	1166.8299	0.18259	-424.230746	-424.2221	-424.221156	-424.264293	33.08	
C	 0.1263105648	 1.6366582306	-0.0187068198	-0.40083
C	 0.063439258	 0.1179614675	 0.0147136792	 0.005691
C	 0.9446393629	-0.6924231453	-0.9885032659	-0.269544
C	 1.4335771596	-1.5897765779	 0.1824848972	 0.101668
O	 2.823148224	-1.528254686	 0.454297545	-0.278187
C	 2.9775724861	-0.7853754865	 1.6553282752	 0.227688
C	 4.2652832421	 0.0055574661	 1.6310113303	-0.402816
O	 1.8636097397	 0.0856748036	 1.7336095296	-0.272223
C	 0.760625384	-0.6239923145	 1.1916431429	 0.063661
H	 1.15358128	 1.9818579947	 0.1224779126	 0.128197
H	-0.2375806546	 2.0164901568	-0.9794635	 0.111464
H	-0.4878915792	 2.0805679396	 0.7722818304	 0.114703
H	-0.9775679003	-0.217682395	-0.0426667042	 0.072495
H	 0.4133080434	-1.1965132073	-1.7986288731	 0.099311
H	 1.7717182599	-0.1152943569	-1.4080437029	 0.109387
H	 1.0850513616	-2.6265682395	 0.1660065006	 0.076549
H	 2.9563601774	-1.4821945348	 2.5139855642	 0.061726
H	 4.2578449823	 0.6948064549	 0.7831610919	 0.128675
H	 4.372332153	 0.5746572651	 2.5579383039	 0.127055
H	 5.1160438837	-0.6733771673	 1.5336229872	 0.129088
H	 0.1250930517	-1.0305408482	 1.9873453658	 0.066242
