19
gdb 82602	3.93593	1.34004	1.27933	0.5431	74.36	-0.2327	0.0666	0.2993	1053.746	0.160247	-422.977057	-422.969585	-422.96864	-423.008583	30.325	
C	-0.1007830913	 1.6163916422	-0.1079862222	-0.426979
C	 0.0306759098	 0.1079875824	 0.0142083691	 0.025994
C	 1.1831401767	-0.6374168025	-0.7134262456	 0.043548
O	 2.3557320627	 0.0573206817	-0.2372752124	-0.270016
C	 2.2307486929	-0.3174017817	 1.1407521389	 0.020218
C	 2.4431080342	-1.8545596792	 1.0523567232	 0.107078
O	 2.311058692	-2.5532616856	 2.2723594517	-0.439085
C	 1.080355945	-1.7947549174	 0.3550098102	-0.072076
C	 0.6640733572	-0.5655651081	 1.2463828579	-0.079881
H	 0.8698792231	 2.1010839827	 0.0207472257	 0.130874
H	-0.4935823295	 1.9005777333	-1.090738995	 0.111943
H	-0.7871647126	 2.0114776388	 0.6488057505	 0.112132
H	-0.9181901039	-0.3978195809	-0.1998818545	 0.073962
H	 1.2338881654	-0.7883031326	-1.790877128	 0.075792
H	 2.8047393013	 0.3415894439	 1.7918942452	 0.072809
H	 3.3202170312	-2.1773527736	 0.4758689576	 0.068944
H	 3.1097566988	-2.3992204398	 2.787128019	 0.285902
H	 0.4518418835	-2.6610833226	 0.1611474642	 0.078869
H	 0.2029295736	-0.6455600211	 2.2266922344	 0.079971
