17
gdb 25644	5.9757	0.75447	0.67552	3.2971	92.76	-0.2028	-0.0035	0.1993	1673.1123	0.135819	-380.902158	-380.892784	-380.89184	-380.938317	32.649	
C	-0.0589176397	 1.4476888621	 0.069700421	-0.51084
C	-0.0033795165	-0.0044297756	 0.036463928	 0.235446
C	 0.0598267177	-1.2089316401	 0.0101596774	-0.074755
C	 0.1112154083	-2.6207086639	-0.0223297569	 0.160632
N	 1.1898879736	-3.3867783477	 0.0363030155	-0.348637
C	 0.7420851647	-4.6828700236	-0.0294568604	 0.270505
C	 1.6868415185	-5.8401325969	 0.0093962679	-0.49842
C	-0.6297855777	-4.7026708203	-0.1295315446	-0.179138
N	-1.0218211412	-3.3871748278	-0.1242280167	-0.292604
H	 0.944276658	 1.8713639228	 0.1871416078	 0.159438
H	-0.4851348167	 1.8539956499	-0.8545988985	 0.150982
H	-0.6709270346	 1.8062594643	 0.9050929583	 0.150826
H	 2.2720252767	-5.8386074055	 0.9351132982	 0.134522
H	 1.1491817017	-6.7901805138	-0.053859284	 0.114533
H	 2.3992612666	-5.7936859088	-0.8210804544	 0.134521
H	-1.3394525639	-5.5103269107	-0.2017638021	 0.126194
H	-1.9624655257	-3.0354502944	-0.1835175466	 0.266794
