22
gdb 58448	2.56695	1.21898	1.03577	3.9684	82.38	-0.2439	0.0359	0.2798	1277.8366	0.19248	-404.385744	-404.375699	-404.374755	-404.420821	38.07	
C	-0.0034350341	 1.5915111755	 0.1580601172	-0.399571
C	 0.0204494668	 0.0604933397	 0.0027506141	-0.007886
C	 0.9336889811	-0.5443523525	 1.079843613	-0.407069
C	-1.4085083219	-0.5389966933	-0.0094613638	 0.35153
C	-2.2840296712	 0.0509999374	-1.1190652292	-0.447351
C	-1.5174902362	-2.1021766917	 0.069466615	-0.461949
C	-2.2681262218	-1.8801833249	 1.4022360234	 0.44045
O	-2.8241672691	-2.574223667	 2.2106465438	-0.364068
N	-2.0803378459	-0.5216895065	 1.3128968748	-0.347614
H	 1.0164268222	 1.9867429492	 0.1862202805	 0.117982
H	-0.5255832584	 2.0911208777	-0.6613986905	 0.117136
H	-0.4894557176	 1.8820889138	 1.0974458334	 0.110884
H	 0.4525611329	-0.1717937409	-0.9809363904	 0.078411
H	 0.5256456163	-0.3750714527	 2.0809092651	 0.12688
H	 1.0814930589	-1.6199437729	 0.9557236398	 0.117291
H	 1.9212517049	-0.0749975065	 1.0371381457	 0.113256
H	-1.7999091138	-0.0571043365	-2.0955062174	 0.121952
H	-3.2483191275	-0.4640924849	-1.1558764844	 0.121664
H	-2.4831108509	 1.1143202167	-0.9597183219	 0.121213
H	-2.1349807722	-2.5535886049	-0.7093094664	 0.125369
H	-0.5843128109	-2.6569210894	 0.1581567642	 0.128365
H	-2.5077565417	 0.2299948242	 1.8351702339	 0.243126
