20
gdb 93901	2.70738	1.52974	1.21694	3.4186	74.47	-0.2379	0.0615	0.2993	1091.3697	0.172672	-440.265981	-440.257817	-440.256872	-440.298404	32.419	
C	-0.0217958288	 1.5099081502	-0.039332954	-0.404474
C	 0.0323870131	-0.0108601553	 0.0065516334	 0.133007
O	 0.6196184677	-0.4488235517	-1.2083812514	-0.261953
C	 0.7909955122	-1.8544535655	-1.2671971957	-0.103659
C	 1.8952577597	-2.3315448349	-0.3164016519	 0.129488
O	 3.1825704085	-2.0282473787	-0.8135934106	-0.438697
C	 1.6910438387	-1.70926996	 1.0693659696	-0.085373
N	 2.2568284396	-0.3502379116	 1.179290582	-0.338917
C	 0.7986622964	-0.5280954205	 1.214020149	-0.037501
H	 0.9931821661	 1.9149583598	-0.0627169106	 0.137339
H	-0.553330016	 1.8405936094	-0.9352287619	 0.125211
H	-0.5397515081	 1.90501771	 0.8401959167	 0.108376
H	-0.9933724696	-0.4186943195	 0.0765001262	 0.062485
H	-0.1574635257	-2.3687910059	-1.0323233745	 0.075866
H	 1.0737247914	-2.0905126105	-2.2963486348	 0.11434
H	 1.83727488	-3.4235905974	-0.2383390525	 0.078182
H	 3.3243742506	-1.0992810697	-0.5793446079	 0.292227
H	 1.811646068	-2.3693565565	 1.9236991215	 0.089352
H	 2.6282498216	-0.1894020922	 2.1103044889	 0.238023
H	 0.2914497046	-0.3863494195	 2.1669276287	 0.086679
