17
gdb 84181	3.49806	1.0727	0.85943	2.1595	85.25	-0.2393	-0.0314	0.2079	1318.6605	0.134048	-384.699101	-384.690291	-384.689347	-384.732872	32.802	
C	-0.1519547531	 1.5956746454	 0.0539166399	-0.391814
C	 0.016683474	 0.0695453568	-0.0237580152	-0.142461
C	 0.7939395399	-0.4476662625	-1.2015706679	-0.179811
C	 1.8293866322	-1.2334178069	-0.8552930685	 0.164372
C	 1.9331865225	-1.3913376616	 0.6478014999	-0.43566
C	 0.8107122427	-0.4883904236	 1.1751294752	 0.391445
O	 0.5938783588	-0.2345257925	 2.3303051268	-0.310911
C	 2.7364668872	-1.8651422432	-1.738626937	 0.208162
C	 3.532938361	-2.4206008468	-2.4522692013	-0.40266
H	 0.8167770751	 2.1006029482	-0.0105255783	 0.123576
H	-0.7817708578	 1.961711288	-0.7619504466	 0.119244
H	-0.6172224353	 1.8656842221	 1.0053497386	 0.142911
H	-0.986691328	-0.3835917276	 0.0094190286	 0.115646
H	 0.5371415574	-0.204965315	-2.2260443219	 0.107994
H	 1.7744883083	-2.4255416869	 0.9781065151	 0.146932
H	 2.9029685035	-1.0829352308	 1.0545079498	 0.146958
H	 4.2278391216	-2.9043897732	-3.0930909671	 0.196077
