16
gdb 111730	2.85643	1.17419	0.95483	2.8751	70.72	-0.2673	0.0024	0.2697	1214.102	0.124095	-437.841905	-437.833513	-437.832569	-437.87557	30.497	
O	 0.0975863646	 1.3255895292	-0.3145702217	-0.409873
C	 0.074016809	 0.0024839112	 0.1925493705	-0.099538
C	-1.3237735774	-0.5785856061	 0.1430630176	-0.120643
C	-1.9081447984	-1.2254441329	-1.0671975497	 0.042917
O	-0.9274573922	-1.9139568685	-1.8339664196	-0.276246
C	-0.6850921602	-2.8443482096	-0.7475634064	-0.140256
C	-1.6360145294	-2.0773178247	 0.1809074278	 0.098447
C	-2.5211195102	-2.6713028912	 1.1215923066	 0.195971
N	-3.2336495496	-3.1628022752	 1.890690543	-0.344642
H	-0.0709891613	 1.278181533	-1.2615217412	 0.29153
H	 0.7789565879	-0.6447177718	-0.3433591574	 0.10847
H	 0.407372837	 0.0701670985	 1.2325389066	 0.126622
H	-2.0611859432	-0.0090150699	 0.7041673158	 0.12697
H	-2.8405145305	-0.9564040719	-1.5499239654	 0.134403
H	-1.0684930422	-3.8365847362	-1.002085915	 0.138751
H	 0.3704771259	-2.9059104739	-0.4665593715	 0.127119
