15
gdb 22330	3.50466	1.20624	0.90239	5.5614	77.99	-0.223	-0.0541	0.1688	1197.1426	0.112371	-453.952518	-453.943997	-453.943052	-453.985843	31.651	
N	 0.002709429	 1.3929186922	 0.0083880064	-0.607275
C	-0.034250592	 0.044678711	 0.0033412664	 0.347228
C	-1.1364542306	-0.7668282359	 0.0020938736	-0.322766
C	-0.7654072874	-2.1721092648	-0.0037576819	 0.382056
O	-1.4975212969	-3.1403900139	-0.0059492165	-0.355768
C	 0.7735482858	-2.2392213595	-0.0069938722	-0.410443
C	 1.193401957	-0.7904258668	-0.0018240433	 0.338866
N	 2.4323194499	-0.4745454639	-0.0022103847	-0.229383
O	 2.6584471379	 0.9149010178	 0.0030428285	-0.400172
H	 0.888152044	 1.8670219683	 0.0085267142	 0.282653
H	-0.8503395321	 1.9236373824	 0.0112469918	 0.264457
H	-2.1655894747	-0.4311534485	 0.0050876513	 0.101099
H	 1.1372206385	-2.781108836	 0.8710278063	 0.146563
H	 1.1333734169	-2.7734449343	-0.8913161306	 0.146573
H	 3.6194094947	 0.9668313919	 0.0018840307	 0.316311
