15
gdb 127687	3.24551	1.51174	1.0381	3.5341	78.29	-0.213	-0.0421	0.1709	1092.3497	0.113649	-446.271424	-446.263121	-446.262176	-446.304415	30.326	
C	 0.0294373175	 1.40981889	 0.0561866882	-0.298432
N	 0.0226267037	-0.0432196257	 0.0338840728	 0.120719
N	-0.0451900493	-0.6265867106	-1.1432680613	-0.081246
N	-0.0549884812	-1.9111805479	-1.2307301397	-0.304955
C	 0.0066219645	-2.683162277	-0.0742405441	 0.324993
N	 0.0035422767	-3.9658215763	-0.0478020334	-0.551536
C	 0.0801617307	-1.9547021058	 1.2005546528	 0.437527
N	 0.139092572	-2.6954766075	 2.3156913997	-0.544351
N	 0.0880040261	-0.6486907886	 1.2502261819	-0.350232
H	 0.9479831596	 1.7675233562	 0.5290890411	 0.149758
H	-0.0266964401	 1.7545530172	-0.9746159523	 0.164643
H	-0.8280770429	 1.7743936334	 0.628097264	 0.149763
H	-0.0507637267	-4.3279758207	-1.0017019695	 0.226019
H	 0.129120085	-3.6960849109	 2.1900595414	 0.289457
H	 0.1917158443	-2.2688938958	 3.2239112885	 0.267872
