13
gdb 11179	4.04269	1.58718	1.38307	4.5518	57.88	-0.2888	-0.011	0.2778	878.3706	0.096619	-398.65506	-398.648254	-398.647309	-398.686613	24.414	
O	 0.0522812636	 0.013768663	 0.1284237395	-0.309004
C	-0.049778721	 1.1994539684	 0.0934140275	 0.440936
C	-1.3038452755	 2.0646476065	 0.0866391404	-0.359264
C	-0.7902270029	 3.452964341	 0.4712337989	-0.248957
C	 0.6780754206	 3.3959493301	-0.0208516093	-0.0369
O	 1.0585935923	 2.0187027332	 0.0528074782	-0.212147
C	 0.8248253699	 3.8859143602	-1.4025935291	 0.280841
N	 0.9191197251	 4.2898966322	-2.4805242546	-0.303914
H	-1.7204674718	 2.046359241	-0.9264928197	 0.163245
H	-2.0512408677	 1.6491645245	 0.7624605191	 0.153627
H	-1.3422457765	 4.2789996322	 0.0230384132	 0.145409
H	-0.7905852209	 3.5826242056	 1.5563723279	 0.135396
H	 1.3581696048	 3.9617164319	 0.6204710881	 0.150731
