18
gdb 31627	3.50717	1.09408	0.88689	4.559	76.45	-0.2054	0.0267	0.2322	1340.3314	0.147303	-439.152623	-439.143459	-439.142515	-439.187069	32.613	
C	 0.1143842239	 1.5492863567	-0.1470317405	-0.374735
C	-0.0410425078	 0.0304362998	 0.0441917935	-0.292131
C	 0.5509369444	-0.466697484	 1.312184397	 0.357865
C	 0.0499005707	-1.0688227088	 2.3997908946	-0.245861
N	 1.1120538573	-1.2912169267	 3.2809751063	-0.115822
C	 1.0647885604	-1.9178997228	 4.5823948606	-0.344727
C	 2.2746141544	-0.8142232397	 2.7182457704	 0.474236
O	 3.3950048518	-0.8175856812	 3.158005909	-0.416026
O	 1.915755498	-0.3001081996	 1.4870181894	-0.251314
H	 1.1692735363	 1.8348112286	-0.1264185517	 0.142274
H	-0.3062936324	 1.8600784967	-1.10760083	 0.116682
H	-0.4001042169	 2.0978263493	 0.6476441116	 0.121479
H	-1.1000578176	-0.2485435492	 0.0358988223	 0.113657
H	 0.4285349686	-0.4895808216	-0.801162728	 0.123557
H	-0.9595162185	-1.3633776143	 2.6314973519	 0.145007
H	 0.7056064098	-2.9502098624	 4.5117463833	 0.135794
H	 2.0821176992	-1.9187001804	 4.9765557049	 0.174464
H	 0.4145968384	-1.3617134706	 5.2661765954	 0.135601
