15
gdb 24386	3.79444	1.65209	1.16149	2.1717	72.31	-0.1858	0.0202	0.2059	977.7085	0.117641	-413.037192	-413.030434	-413.02949	-413.068419	26.232	
C	-0.0082486911	 1.5257260613	-0.0394218444	-0.275625
N	 1.3638000181	 2.0513768303	 0.0292514359	-0.260545
C	 2.3552486905	 1.2798847122	 0.2506925119	 0.084518
N	 2.3378963431	-0.0857385038	 0.4662011328	-0.418458
C	 1.1169147097	-0.7126987395	 0.2346666577	 0.333394
C	-0.0034543947	 0.0297425482	-0.0012887839	 0.237146
N	-0.9934146646	-0.916000466	-0.1911248387	-0.344675
C	-0.4117145804	-2.1435529934	-0.0576048631	-0.003539
N	 0.8797532853	-2.0553284028	 0.203467023	-0.343188
H	-0.5869488652	 1.9643477978	 0.7906350501	 0.110305
H	-0.4787178189	 1.9149271898	-0.9557034213	 0.109505
H	 3.3518644032	 1.718442658	 0.2990456547	 0.113691
H	 3.1892039936	-0.6201824664	 0.408363459	 0.258081
H	-1.9652153331	-0.7377921838	-0.3810071843	 0.26726
H	-0.9707764755	-3.060978152	-0.1569159594	 0.13213
