18
gdb 93450	2.75137	1.37746	0.98983	3.6989	73.05	-0.2423	-0.0366	0.2057	1183.3019	0.147149	-439.125653	-439.117101	-439.116157	-439.159275	32.14	
C	 0.0344097484	 1.5641872048	 0.0157258073	-0.410772
C	 0.0593880195	 0.0366566462	-0.0325721477	-0.052251
N	 0.8738909994	-0.4487819134	-1.1448226136	-0.318223
C	 0.8492856924	-1.8993184308	-1.2783627211	-0.273473
C	 1.3844691329	-2.5634944694	-0.0094202634	 0.38659
O	 1.5189984351	-3.7567774424	 0.0875636621	-0.29544
C	 1.7018164798	-1.5897134553	 1.1189984685	-0.40008
C	 0.6054659719	-0.542587056	 1.2816598044	 0.396757
O	 0.1794992744	-0.2025016025	 2.3571634129	-0.307898
H	 1.0532246748	 1.9620581561	 0.0379914922	 0.129828
H	-0.475666127	 1.9715665035	-0.8629371257	 0.114469
H	-0.4942287672	 1.8934240621	 0.9119894887	 0.149662
H	-0.9864868719	-0.3286433469	-0.0892561915	 0.090509
H	 0.5858345853	-0.0054878211	-2.0091282263	 0.229217
H	-0.1565760668	-2.324005453	-1.4585603041	 0.118392
H	 1.4799526547	-2.2094829585	-2.1175164942	 0.139559
H	 1.8932256003	-2.1127404699	 2.0554228586	 0.142386
H	 2.6045858641	-1.0419700036	 0.810073303	 0.160768
