19
gdb 82759	2.31302	2.13914	1.55818	2.4036	74.09	-0.2436	0.0626	0.3062	925.0692	0.160893	-422.990515	-422.983208	-422.982264	-423.021609	30.706	
O	-0.2494528517	 1.3912217817	 0.0380354094	-0.455689
C	-0.0889186017	-0.0201925835	 0.074126785	 0.068517
C	 0.3654230329	-0.6390198185	 1.4126692736	-0.094033
C	-0.6384125922	-0.0117157376	 2.4168657396	-0.239205
C	-1.6584463644	-0.8797159998	 1.6650300134	-0.096991
C	-0.555745325	-1.9424782679	 1.3769704801	-0.033481
C	-1.124519852	-2.1621425629	-0.0386231315	-0.293467
C	-1.4879526184	-0.6697133852	 0.0826521472	 0.421032
O	-2.443595687	-0.0939206664	-0.7349932447	-0.500102
H	 0.6079315595	 1.8023011063	-0.1028193686	 0.289537
H	 0.5101871653	-0.3525279969	-0.7833244509	 0.06506
H	 1.4357255773	-0.6904671312	 1.6170311813	 0.05514
H	-0.4808226963	-0.3779192901	 3.4356698005	 0.091303
H	-0.7434323305	 1.0747201617	 2.4165681325	 0.101939
H	-2.6575691264	-1.1287245271	 2.0202010854	 0.068257
H	-0.3108961603	-2.7513797095	 2.0620022046	 0.07159
H	-0.4764553047	-2.4703234224	-0.8656629116	 0.087742
H	-2.007522505	-2.8059795438	 0.0024885874	 0.10543
H	-2.2250691696	 0.8466387431	-0.7859500127	 0.287422
