13
gdb 19580	3.50478	2.58349	2.11805	4.2164	56.25	-0.2532	-0.0142	0.239	667.3117	0.09665	-398.534067	-398.52849	-398.527546	-398.563553	22.414	
O	 0.0039184364	-0.0082159416	 0.0036117824	-0.299486
C	-0.0143303856	 1.1732129531	-0.059122664	 0.50766
C	-1.0579816659	 2.3283109411	 0.03176572	-0.190439
N	-0.0265447436	 2.9191192515	 0.9602638217	-0.310807
C	 0.9968677996	 2.3586031437	 0.0045060785	-0.190439
C	 0.675717761	 3.049020535	-1.3430499126	 0.035925
O	-0.0588765449	 2.2146571745	-2.2599655953	-0.244021
C	-0.7931734344	 3.0273623032	-1.3235660153	 0.035925
H	-2.0764722272	 2.2201892385	 0.3978508729	 0.098025
H	-0.0416702409	 3.9404730195	 0.9550587136	 0.223533
H	 2.0274536947	 2.2806894666	 0.3434070394	 0.098025
H	 1.30054693	 3.8171341643	-1.78570775	 0.118049
H	-1.4518908592	 3.7765512406	-1.7491991413	 0.118049
