22
gdb 99776	1.95963	1.45375	1.09823	2.0969	78.3	-0.2306	0.0733	0.3039	1238.5337	0.193371	-441.444578	-441.434694	-441.43375	-441.479344	37.346	
C	-0.3612414464	 1.418859179	-0.3475283796	-0.408408
C	 0.0604888989	-0.0363971718	-0.1701021291	 0.125481
O	 1.0553147522	-0.4051698171	-1.1395144062	-0.443968
C	 0.5764083411	-0.3555732262	 1.2518836094	 0.013252
C	 0.6339772413	-1.876898325	 1.486280813	-0.092451
O	 1.4567580801	-2.5828184055	 0.5772000727	-0.429207
N	 1.8192598395	 0.4127461107	 1.450309201	-0.110722
C	 2.4381296636	 0.4176593932	 2.7696857438	-0.225392
C	 3.1124396817	-0.2618712442	 1.6339666565	-0.234716
H	 0.4582333114	 2.0867354703	-0.067143072	 0.131706
H	-0.6351594526	 1.6043859093	-1.3895297793	 0.121585
H	-1.2239907398	 1.653746896	 0.2846451892	 0.112841
H	-0.79120094	-0.6916181729	-0.386849133	 0.089767
H	 1.8288949959	 0.1387956603	-0.9414274541	 0.295609
H	-0.1579817881	 0.0443673547	 1.9643259498	 0.082632
H	 1.0069621777	-2.0941890773	 2.4956767322	 0.097726
H	-0.4040022224	-2.2506695714	 1.4529133296	 0.088897
H	 1.4128142535	-2.1104687691	-0.2688424991	 0.294332
H	 2.7817595478	 1.3858013307	 3.125078143	 0.11545
H	 2.0059786295	-0.2176422976	 3.5410705423	 0.112521
H	 3.1358603017	-1.3455762761	 1.6182938777	 0.153049
H	 3.9505637135	 0.2224560602	 1.1383688423	 0.110017
