20
gdb 76859	2.38584	1.79383	1.56484	3.2557	77.24	-0.2279	0.0619	0.2898	977.9163	0.172545	-403.077545	-403.069848	-403.068904	-403.109247	31.514	
C	-0.3216086091	 1.5675306877	-0.0598841796	-0.413472
C	 0.0069260815	 0.0826254572	-0.000973323	-0.022921
C	 1.1288801471	-0.5066735922	-0.9522962744	 0.098471
O	 1.906619575	 0.3751925969	-1.7058302278	-0.430656
C	 1.7875684535	-1.2152222437	 0.2906358878	-0.065188
C	 2.9081066003	-0.4690777486	 1.0454662347	-0.057494
N	 2.66480248	 0.9884397207	 0.8859045802	-0.35006
C	 1.906445233	 0.2225878806	 1.9104284607	-0.065186
C	 0.7399042164	-0.5315676539	 1.2285962524	-0.047305
H	 0.5629981866	 2.1848315855	 0.1052331558	 0.128067
H	-0.738786001	 1.8290919895	-1.0378157465	 0.11871
H	-1.0655023954	 1.8283436673	 0.7014551088	 0.102961
H	-0.9138026871	-0.4895227092	-0.1646726839	 0.068622
H	 0.7157721973	-1.2305425165	-1.660831289	 0.078027
H	 2.3091868653	 0.9727424543	-1.0548803711	 0.293895
H	 1.9008320077	-2.2985217808	 0.2569225798	 0.066913
H	 3.9075165764	-0.8240576112	 1.2658157525	 0.097637
H	 3.4142193011	 1.4788760223	 1.3709544426	 0.236429
H	 1.9695514741	 0.5305903866	 2.9473351581	 0.095042
H	 0.1523067874	-1.1242219427	 1.9306431921	 0.067509
