15
gdb 46083	4.90271	1.03881	0.88852	1.3046	75.36	-0.2719	-0.0563	0.2156	1226.384	0.114532	-416.837656	-416.830059	-416.829115	-416.870113	28.266	
N	-0.0284044208	 1.2699812204	 0.3595328029	-0.510908
C	-0.0043111535	 0.0508636175	 0.0092238046	 0.379101
O	 1.1748633573	-0.6188091692	-0.1936573407	-0.25934
C	 1.127971796	-1.8026474875	-0.9843245493	-0.095845
C	 0.0681440328	-2.7860871306	-0.4488129269	-0.219034
C	-1.2451928153	-2.0455390193	-0.2965480458	-0.081544
C	-1.2447712051	-0.7247519744	-0.1136760817	-0.106108
C	-0.0473712692	-3.9395728737	-1.3424959609	 0.265882
N	-0.130502613	-4.8442722693	-2.0561346061	-0.308499
H	 0.9227218311	 1.640727714	 0.4131800295	 0.228857
H	 0.8949228175	-1.5533362484	-2.0266151627	 0.135509
H	 2.1285822825	-2.2349646069	-0.9398898726	 0.143013
H	 0.3928978905	-3.1611353311	 0.532686369	 0.155554
H	-2.1649935547	-2.6185028227	-0.3306531897	 0.136061
H	-2.1578653261	-0.1560212688	 0.0099516106	 0.1373
