19
gdb 126265	2.19202	1.41631	0.92261	1.5674	79.42	-0.2011	0.0261	0.2271	1303.7191	0.159959	-419.220355	-419.210978	-419.210034	-419.256084	33.336	
C	 0.0627688427	 1.5547172428	 0.257442001	-0.366872
C	-0.0081972885	 0.0465212011	-0.0459904346	-0.305386
C	-1.4000751048	-0.4948427885	-0.0878662492	 0.251102
C	-2.2525519449	-0.7271990175	-1.155433028	 0.207604
O	-1.9062227731	-0.4958245616	-2.4497279183	-0.271928
C	-2.8861485767	-0.8399397478	-3.40990965	-0.249088
C	-3.4521455153	-1.2176833721	-0.5925065738	-0.124501
N	-3.3626145245	-1.2880499516	 0.7373212537	-0.234203
N	-2.1261751596	-0.8451503547	 1.0110167616	-0.249889
H	 1.101361037	 1.8999650114	 0.267959802	 0.11418
H	-0.4813676199	 2.1269166364	-0.4992786326	 0.131944
H	-0.3801399004	 1.7853240074	 1.2317087181	 0.113904
H	 0.4545972569	-0.1512805099	-1.0179281274	 0.129132
H	 0.5823795395	-0.505386429	 0.6967614215	 0.104197
H	-2.4600365482	-0.6101605668	-4.3880584183	 0.131569
H	-3.1349641864	-1.9089507753	-3.3650942325	 0.1214
H	-3.8067204579	-0.2568511309	-3.2710195966	 0.121277
H	-4.3618903556	-1.5224874254	-1.085653673	 0.107214
H	-1.8207494502	-0.8217270377	 1.9692639064	 0.268344
