19
gdb 65396	3.28272	1.0059	0.90197	3.1851	77.76	-0.2494	-0.0314	0.218	1334.8219	0.158047	-419.159306	-419.150148	-419.149204	-419.193516	33.74	
C	-0.0635991324	 1.7179858194	 0.4240118395	-0.447378
C	-0.0296605134	 0.2654960659	-0.014091265	 0.283797
N	 0.8651229326	-0.0451698099	-1.1177885496	-0.36816
C	 1.1856739342	-0.6040859471	 0.2163581606	-0.16221
C	 2.4329740438	-0.1013558388	 0.8551557875	 0.167776
O	 3.0039162715	-0.6806676789	 1.7452930341	-0.258195
C	-1.376894263	-0.4084803673	 0.0985288682	-0.042119
C	-2.3030224831	-0.444004328	-1.0640386584	-0.244272
N	-1.6989698305	-1.6841859364	-0.5421814712	-0.321668
H	 0.9015170809	 2.2028665562	 0.2718492984	 0.133677
H	-0.8124968939	 2.2644642244	-0.158623335	 0.129211
H	-0.3337870868	 1.7986871997	 1.4819002211	 0.1301
H	 0.5015465805	-0.7738211614	-1.728693357	 0.226776
H	 0.9831753777	-1.6542209668	 0.4138739238	 0.11173
H	 2.8102771297	 0.8578876878	 0.4396374083	 0.08609
H	-1.8121254986	-0.3117230241	 1.091505158	 0.106209
H	-3.3756188903	-0.3581378187	-0.9187058941	 0.127888
H	-1.9374328427	-0.0459906049	-2.007547197	 0.119366
H	-0.9473386563	-1.9978905611	-1.1532907121	 0.221381
