18
gdb 68432	2.64625	1.60607	1.2503	4.5923	75.45	-0.2738	0.0273	0.3012	1032.8666	0.149295	-401.9565	-401.948784	-401.94784	-401.988492	30.629	
O	-0.1232715162	 1.3857079488	-0.0254638003	-0.477433
C	-0.050670876	 0.003436276	 0.0179547381	 0.426111
C	 0.3444616539	-0.8165081046	 1.2886901391	-0.297831
C	-0.4340966319	-1.9349207766	 0.5426424289	-0.021531
C	-1.3667155977	-0.8079748508	 0.0113489899	-0.267362
C	 0.4729721412	-2.2092022749	-0.6745631359	-0.23271
C	 0.7967801719	-0.7239297942	-1.0779851312	-0.221672
C	 0.4165833918	-0.3731130104	-2.4402533609	 0.278667
N	 0.114798067	-0.0992297169	-3.5222853552	-0.331781
H	 0.7673664045	 1.75294816	-0.0518679782	 0.285455
H	 1.4054214316	-0.9755675013	 1.5066431578	 0.088511
H	-0.1791739689	-0.4473960748	 2.1721180942	 0.112244
H	-0.8295602252	-2.8024244975	 1.0667561648	 0.07679
H	-2.061720662	-0.4419978046	 0.7688272421	 0.113823
H	-1.8785537377	-0.9528343237	-0.9431847377	 0.116752
H	 1.3792853335	-2.7624091296	-0.4163239193	 0.111768
H	-0.0425755903	-2.7447390452	-1.4744544602	 0.128069
H	 1.8612926805	-0.4957522699	-0.9539622461	 0.112132
