17
gdb 48910	3.08969	1.58219	1.32159	2.7933	77.21	-0.2236	-0.0369	0.1867	986.5839	0.136668	-384.639705	-384.632693	-384.631749	-384.671345	27.825	
O	-0.0318686221	-0.042033839	 0.0572455515	-0.248197
C	 0.0361340178	 1.1626268644	 0.0055286813	 0.020226
C	 1.312013947	 1.9299331131	 0.0033913841	 0.266555
C	 2.7553075988	 1.3935605265	 0.062575222	-0.294427
C	 2.9083488401	 2.9322624561	-0.0018141606	-0.051849
C	 1.753731387	 3.0184815315	-1.0673618096	-0.100573
C	 0.9665884471	 4.2879710252	-0.7775186163	-0.110338
C	 0.9338970426	 4.3469717795	 0.5551338392	-0.110339
C	 1.7031222348	 3.109686601	 0.9941101114	-0.10059
H	-0.8819350637	 1.7900002605	-0.0453142372	 0.077426
H	 3.0544122967	 0.9056828747	 0.9932096323	 0.102212
H	 3.0985667012	 0.8259974803	-0.8055296835	 0.102213
H	 3.8298629354	 3.5199000361	-0.0051964093	 0.076565
H	 1.9361269936	 2.6979578397	-2.0935688319	 0.075869
H	 0.5488578842	 4.9626419078	-1.5111402617	 0.109688
H	 0.4822385079	 5.0828810553	 1.2049931744	 0.10969
H	 1.8343504117	 2.8814417973	 2.0523131339	 0.075867
