20
gdb 122601	4.26735	0.70496	0.63036	1.8552	78.13	-0.2422	-0.0267	0.2155	1791.2686	0.168922	-440.267448	-440.257566	-440.256622	-440.303727	34.59	
C	 0.0188241873	 1.5738597529	-0.2280654366	-0.385086
C	-0.0715430021	 0.0627615635	-0.1013087063	-0.028004
O	 0.6472364938	-0.5227237195	-1.1696867876	-0.252056
C	 0.6245169701	-1.9322714152	-1.14982895	-0.049098
C	 1.4763687152	-2.4370587348	-2.2971628544	-0.103007
N	 2.9494136734	-2.4400074429	-2.0836023675	-0.320807
C	 3.1021878505	-3.8339844769	-2.5761103323	-0.282967
C	 1.5713614662	-3.9579114219	-2.5243603334	 0.377624
O	 0.7825343446	-4.8515037565	-2.5875179154	-0.285178
H	 1.0620119066	 1.8999522759	-0.1884900841	 0.127178
H	-0.408519051	 1.9058857775	-1.178535532	 0.125658
H	-0.5279277952	 2.0578598789	 0.5866340872	 0.11572
H	 0.3454889136	-0.2713238663	 0.8635097767	 0.089475
H	-1.1242646408	-0.2666419248	-0.1273353604	 0.08678
H	 1.0228015673	-2.3193272407	-0.1986819559	 0.094486
H	-0.4037651978	-2.3143556019	-1.2694520798	 0.098833
H	 1.1541888161	-1.9321331901	-3.2212464797	 0.103441
H	 3.4487497147	-1.7452298619	-2.6247284869	 0.229482
H	 3.4852405033	-3.9460522792	-3.600834753	 0.123046
H	 3.6703455641	-4.498051306	-1.9155763789	 0.134482
