20
gdb 103812	2.55467	1.14042	0.98297	2.5995	75.76	-0.2451	0.0173	0.2624	1310.6906	0.168657	-440.314887	-440.304674	-440.303729	-440.350182	37.31	
C	-1.1030831032	 0.9610505709	 1.0580435339	-0.385072
C	-0.1668108951	 0.1179941032	 0.1809634173	-0.258271
C	 1.0482494798	-0.3978807627	 0.933075799	 0.407611
C	 2.0591960766	 0.6430228501	 1.3684789162	-0.459842
O	 0.778788787	-1.4070895718	 1.9318842407	-0.302763
C	 1.5274926238	-1.790870305	 0.7723106956	-0.103174
C	 0.9151065786	-2.8033722935	-0.1683988735	 0.350143
N	-0.3190359247	-3.2354471462	 0.2059578338	-0.516853
O	 1.5119577885	-3.1804823547	-1.1579538301	-0.36313
H	-0.6221146228	 1.8765636022	 1.415210891	 0.120231
H	-1.9925807168	 1.2558723299	 0.4939782688	 0.117936
H	-1.4297366075	 0.3897352808	 1.9324245338	 0.128052
H	-0.7238507543	-0.7259155347	-0.2326894385	 0.116355
H	 0.1852775843	 0.7115519974	-0.6715465564	 0.108471
H	 1.5931390766	 1.3981359829	 2.0084923402	 0.13133
H	 2.8734664508	 0.1794952934	 1.9298364998	 0.131103
H	 2.4810473796	 1.1534203176	 0.4964914899	 0.129821
H	 2.5874887131	-1.9797594427	 0.93881396	 0.112395
H	-0.685861705	-2.9585192794	 1.1015772888	 0.27216
H	-0.7531006794	-3.9782075074	-0.3161546404	 0.263498
