16
gdb 28813	3.25102	1.38194	1.03535	1.1048	87.51	-0.235	-0.0714	0.1636	1139.736	0.125078	-396.936059	-396.928158	-396.927214	-396.968692	29.534	
C	 0.0584840976	 1.4648213665	-0.160068982	-0.449475
C	-0.0506217243	-0.0189519639	 0.0727002736	 0.296658
C	-1.2547977688	-0.6491385836	-0.0697007067	-0.048528
N	-1.5924886505	-1.9555707092	 0.171504373	-0.212276
C	-0.7766343805	-2.9462018568	 0.1808495033	-0.058632
C	 0.6758720045	-2.9524348588	-0.1009690234	 0.212279
N	 1.3215977254	-3.9132614857	-0.646847489	-0.47875
C	 1.4352936559	-1.8229741895	 0.4837782204	-0.000547
N	 1.1191421815	-0.5830276004	 0.5395535985	-0.266471
H	 0.8633512442	 1.6734165388	-0.8733317037	 0.140193
H	-0.8717164094	 1.8846221196	-0.5482731505	 0.125625
H	 0.3206298693	 1.9799150519	 0.7702102526	 0.144404
H	-2.1115496523	-0.0269038569	-0.3161052516	 0.110223
H	-1.1959384933	-3.9265081453	 0.4265107138	 0.12363
H	 0.6799207418	-4.6554054406	-0.9430889582	 0.224077
H	 2.3896297989	-2.1147845962	 0.92707449	 0.137589
