17
gdb 94250	1.93555	1.50732	1.286	3.0657	73.75	-0.2515	-0.0529	0.1985	1100.6498	0.134836	-418.003568	-417.994494	-417.99355	-418.037716	32.444	
C	-0.518905408	 1.338415269	 0.0256624981	-0.408792
C	 0.1839595657	-0.0032858176	-0.0752074911	 0.018386
N	 1.5409530562	 0.0249750991	-0.6566565559	-0.313714
C	 2.0459690677	-0.963357753	 0.3191801183	-0.202395
C	 0.8154705842	-0.6732616809	 1.2234890567	 0.031857
C	 1.088463572	 0.3403574995	 2.3384336707	 0.12336
O	 2.1477321107	 0.8761709905	 2.5089771725	-0.228249
C	 0.0771685165	-1.8005667958	 1.7612335193	 0.218977
N	-0.5194662041	-2.6873905113	 2.2033923223	-0.330782
H	 0.1218073785	 2.0855940529	 0.501276351	 0.142341
H	-0.7604647409	 1.6984022201	-0.9798645379	 0.131164
H	-1.4570664155	 1.2538642445	 0.5841400943	 0.128047
H	-0.4826469145	-0.7422884352	-0.54218776	 0.093258
H	 1.5989101785	-0.2536396626	-1.6295105129	 0.228802
H	 2.0590987644	-2.0033242993	-0.0272190499	 0.116041
H	 3.0069528439	-0.7012811305	 0.7674067049	 0.142791
H	 0.2102207448	 0.5533108906	 2.9828101997	 0.108909
