22
gdb 103429	2.29067	1.36749	1.27681	2.5072	81.07	-0.2234	0.066	0.2894	1176.9181	0.192701	-404.305095	-404.295499	-404.294554	-404.33881	37.093	
C	 0.6193168695	-0.0805865639	-1.5422555891	-0.379151
C	-0.0041187197	 0.3073009891	-0.1976141024	-0.247408
C	-1.4267804214	-0.2246085899	-0.0264832733	 0.38457
O	-2.2784602552	 0.28941202	-1.0437075974	-0.481164
C	-1.6503936405	-1.7358881945	 0.0293152027	-0.054717
C	-1.0577360774	-2.3374557246	 1.2370676357	-0.259084
N	-2.3694606827	-1.675815572	 1.3639962921	-0.143306
C	-2.1200280845	-0.1825121532	 1.3850212417	 0.001699
C	-1.4460498793	 0.3819301676	 2.6235797605	-0.416896
H	 1.6162548842	 0.3547838164	-1.6563933036	 0.109491
H	 0.7175561763	-1.168195739	-1.6260728774	 0.121913
H	-0.0059872452	 0.261168268	-2.3708101297	 0.127091
H	 0.627852107	-0.0466817828	 0.6235446892	 0.096485
H	-0.0327459102	 1.4027759242	-0.0979586814	 0.084628
H	-2.2530041392	 1.2514645903	-0.9926768209	 0.275429
H	-2.0398819369	-2.3125157948	-0.8026571994	 0.101627
H	-1.1274048654	-3.415864737	 1.343221854	 0.12268
H	-0.1747642888	-1.9048072707	 1.6989726612	 0.108292
H	-3.0969439933	 0.2906327692	 1.2510635881	 0.086625
H	-0.4538504004	-0.0408962466	 2.8031890433	 0.115725
H	-1.3328134886	 1.4682886958	 2.5400332111	 0.115265
H	-2.0610310684	 0.1757808585	 3.5058135352	 0.130207
