23
gdb 70306	2.88145	1.45381	1.19376	0.2425	87.96	-0.2528	0.0824	0.3352	1152.7549	0.208142	-351.147029	-351.138925	-351.137981	-351.179001	33.84	
C	 0.0129744983	 1.5031948398	 0.0027941028	-0.471044
C	-0.0337046823	-0.0110935438	 0.0216688318	 0.394527
C	-0.874434672	-0.6976469962	 1.0723532787	-0.354726
C	 0.6341471436	-0.7500945532	 1.1621975237	-0.037627
C	 1.4122256594	-2.0114208445	 0.7850791864	-0.269912
C	 2.2959672346	-1.7642376969	-0.4381787558	 0.00692
C	 2.0476497241	-2.4883585199	-1.7380646134	-0.308868
C	 1.6139496439	-1.0510470148	-1.5852842831	 0.005372
C	 0.1481305833	-0.6938972245	-1.3411977619	-0.324591
H	 0.9416590834	 1.8669557463	-0.4536704382	 0.113178
H	-0.8230673488	 1.9210545836	-0.5714762519	 0.110882
H	-0.0405800879	 1.9156065398	 1.0156755636	 0.109403
H	-1.4102491652	-0.0791046322	 1.7859577697	 0.101902
H	-1.3985087379	-1.6098916137	 0.7995554784	 0.100417
H	 1.0917904091	-0.1342189015	 1.9319506573	 0.07416
H	 2.0195875025	-2.3492104882	 1.6301477464	 0.098564
H	 0.7123044726	-2.8283823176	 0.5756361368	 0.096939
H	 3.3232370766	-1.4851468393	-0.2239543361	 0.076501
H	 2.8955322821	-2.7072943804	-2.378692598	 0.10509
H	 1.2741485181	-3.2517903479	-1.7535587591	 0.103723
H	 2.1958858387	-0.3080915883	-2.1222336248	 0.077656
H	-0.4626551495	-1.6020115893	-1.3863388555	 0.09571
H	-0.2229885665	-0.0424757872	-2.1392538779	 0.095826
