18
gdb 89773	1.99566	1.69327	1.02577	5.7656	77.97	-0.2393	0.0144	0.2537	1181.8846	0.147412	-398.080641	-398.071912	-398.070968	-398.114256	32.098	
C	-0.0346152839	 1.5140178024	 0.0759629471	-0.334397
N	-0.0094847176	 0.0690575323	 0.1468224163	-0.067534
C	-1.254469023	-0.659775922	 0.4699019633	-0.25041
C	-0.4319042886	-1.5901880487	 1.3640699264	 0.324062
C	-0.8479128997	-2.4825647563	 2.4592894562	-0.306061
N	-0.2401153421	-3.0166349137	 1.2225275445	-0.335228
C	 0.7168982049	-0.5638341138	 1.2679456221	-0.205508
C	 2.0660220705	-1.0346688189	 0.9581693721	 0.325735
N	 3.1406830674	-1.3903900918	 0.7277174889	-0.329656
H	 0.9786975381	 1.8907094441	-0.0930368999	 0.140483
H	-0.6541406993	 1.8274264006	-0.769880103	 0.131485
H	-0.4344472567	 1.9884229693	 0.9918484369	 0.096703
H	-1.9861834837	-0.060050525	 1.0353737626	 0.098503
H	-1.7538876561	-1.1060714839	-0.3980203029	 0.115656
H	-0.2329580384	-2.5883233226	 3.3490012093	 0.132137
H	-1.9148688761	-2.6138611011	 2.6248565141	 0.119692
H	-0.9440971235	-3.418942672	 0.6084937097	 0.239121
H	 0.7649173078	 0.0677717513	 2.1710657064	 0.105219
