17
gdb 85249	2.80044	1.50254	1.10609	2.5176	69.02	-0.2471	-0.0236	0.2235	1076.0078	0.135298	-458.974504	-458.966286	-458.965342	-459.007042	31.91	
O	-0.1262527824	 1.4402183615	 0.0490550185	-0.429034
C	-0.0342693002	 0.0281491556	-0.0361311394	 0.106968
C	 0.7210224073	-0.6326411896	 1.1495467108	-0.387563
C	-0.0147859641	-1.9501454527	 1.3583424014	 0.336802
O	 0.4529071725	-3.0224852142	 1.6711283028	-0.349779
C	-1.427986975	-1.7926058763	 0.9172262056	 0.344116
O	-2.1379584335	-2.9556765331	 0.7084978911	-0.475705
C	-2.1477676995	-0.5259594611	 1.3134721422	-0.337526
C	-1.4336127976	-0.5711264105	-0.0087970435	-0.111578
H	 0.7541401271	 1.8085849024	-0.077839978	 0.285853
H	 0.4548159184	-0.2669139134	-0.9762846805	 0.082829
H	 1.7833155156	-0.8045116987	 0.966798446	 0.126739
H	 0.6266501144	-0.003161429	 2.0418717043	 0.139045
H	-1.5185728919	-3.6694413082	 0.9257859956	 0.296246
H	-3.227329036	-0.6191540147	 1.2738825693	 0.136904
H	-1.7734975493	 0.1029813623	 2.1137052283	 0.126768
H	-2.0223047858	-0.5779849703	-0.9179684944	 0.108912
