17
gdb 114165	4.33766	0.96618	0.87103	2.6962	74.7	-0.2479	-0.0016	0.2463	1304.9168	0.136901	-417.965149	-417.956853	-417.955909	-417.998378	31.152	
O	-0.02506371	 1.366026991	-0.2629049049	-0.418398
C	 0.038258668	 0.0343394535	 0.2104860533	-0.071636
C	-1.325114781	-0.6329266102	 0.087201207	 0.021805
N	-1.8607452574	-0.5994754224	-1.3265270807	-0.400256
C	-2.1540675771	-2.0530655223	-1.2346029826	 0.267419
C	-0.854362046	-2.7965048282	-1.1029149588	-0.308371
C	-1.4504274404	-2.1623442611	 0.1257271291	-0.166936
C	-3.3748884431	-2.6210126772	-1.6975287711	 0.183469
N	-4.3776599078	-3.060831189	-2.0741190003	-0.344573
H	-0.3026530163	 1.3046052584	-1.1856099766	 0.291057
H	 0.7960069185	-0.5504995997	-0.3316855671	 0.08979
H	 0.3436023754	 0.0819132165	 1.2612375291	 0.113494
H	-2.0301835003	-0.1663915637	 0.7820632809	 0.098249
H	-2.7224009711	-0.0643823021	-1.3674080265	 0.242986
H	-0.9303709267	-3.8778767386	-1.1319333971	 0.143907
H	 0.015641721	-2.3766385969	-1.5973347389	 0.135058
H	-1.7351376357	-2.747944878	 0.9893229252	 0.122938
