16
gdb 51120	3.83451	1.0718	0.96924	3.671	68.85	-0.2294	-0.0341	0.1953	1202.5717	0.121938	-437.78024	-437.772338	-437.771394	-437.813789	29.35	
O	-0.594261534	 0.5586158698	 0.5933308297	-0.231979
C	 0.1653532582	 0.9270170122	-0.2630473577	 0.163799
C	 1.2716626046	 1.9502794867	-0.0436417471	-0.413313
C	 1.2630373927	 3.0258673865	-1.0881978224	 0.295653
N	 1.7655879961	 2.8492067191	-2.4733807402	-0.345393
C	 2.3244969634	 3.9181887834	-1.6095821576	-0.182718
C	 1.3113285007	 5.1193654856	-1.6178866713	 0.028841
O	 0.1937544261	 4.7810019351	-2.436289506	-0.206874
C	 0.2525205202	 4.2449915697	-1.1183550107	-0.022966
H	 0.1060375542	 0.5303155105	-1.3012908403	 0.093877
H	 1.1615247627	 2.3620392163	 0.965118224	 0.130376
H	 2.2309770875	 1.4131892169	-0.0834056015	 0.123325
H	 2.4380298488	 2.0807601782	-2.4465616604	 0.228739
H	 3.3762455589	 3.9675092591	-1.3596904086	 0.10414
H	 1.5290258465	 6.1658414812	-1.4458037481	 0.115357
H	-0.5811914366	 4.4178003497	-0.4481106516	 0.119136
