23
gdb 36948	4.80619	0.71515	0.70534	1.9547	85.75	-0.2412	0.0756	0.3168	1700.524	0.206705	-388.258062	-388.248897	-388.247953	-388.293512	33.649	
C	-0.0602701339	 1.590091696	 0.0078575139	-0.245913
C	-0.1261921064	 0.0682286153	-0.031967425	 0.063819
C	 0.2316156097	-0.7443540969	 1.2484239382	-0.218198
C	-0.9308267881	-1.7159993315	 0.9105239354	-0.21047
C	-1.5182035623	-0.6258754021	-0.0257062111	-0.237538
C	 1.3608939942	 2.1324696694	 0.1119686129	-0.016934
C	 2.2461209469	 2.0810967988	-1.156549904	-0.075249
O	 2.411699272	 3.5132413209	-1.1585981579	-0.272369
C	 1.5523206008	 3.6614453868	-0.0103795965	-0.091085
H	-0.5391172503	 2.0034666191	-0.8914463559	 0.096266
H	-0.6485861689	 1.9523144803	 0.8631082483	 0.090484
H	 0.4641305686	-0.3053104733	-0.8782068786	 0.070655
H	 1.2389424716	-1.1603015382	 1.3306469381	 0.094271
H	 0.021482001	-0.1653775852	 2.1546387315	 0.096118
H	-0.5800120106	-2.5863870913	 0.3485398564	 0.101931
H	-1.5546889658	-2.0672310019	 1.7356087623	 0.096101
H	-2.2620417363	-0.0096755386	 0.4907825312	 0.09701
H	-1.9363950271	-0.941203292	-0.9849552828	 0.09484
H	 1.8595733433	 1.7133761267	 0.9906768164	 0.081386
H	 3.2057926794	 1.5578468283	-1.0647583331	 0.09868
H	 1.7360787329	 1.7263244246	-2.0634274637	 0.094175
H	 0.6385585144	 4.2227846199	-0.2508566646	 0.094547
H	 2.0631930848	 4.1586980047	 0.8234250086	 0.097477
