18
gdb 65446	3.79633	0.79756	0.73736	2.6825	81.58	-0.2395	-0.0254	0.2141	1540.6101	0.144186	-401.899739	-401.889829	-401.888885	-401.935409	35.365	
C	 0.0986133102	 1.5039536966	-0.2420039853	-0.457046
C	-0.038735235	 0.0205938937	 0.0469726982	 0.124293
N	 1.2149601305	-0.7733448213	-0.0124830198	-0.362126
C	 0.5313621427	-0.6287468294	 1.2794609573	-0.060461
C	 1.2665270232	 0.1195803404	 2.3744726909	-0.293904
C	 2.359325823	-0.7440566612	 2.9761042987	 0.1618
O	 2.4830978765	-0.9720585002	 4.1515292415	-0.238161
C	-1.2317673845	-0.5905145135	-0.4881552792	 0.273943
C	-2.2205302425	-1.0910955617	-0.9563023031	-0.441525
H	 1.0590117843	 1.8836647396	 0.109819071	 0.130808
H	 0.0439079652	 1.6782680128	-1.3203781845	 0.136184
H	-0.7079588875	 2.0680363857	 0.2356432435	 0.130769
H	 1.0287565283	-1.6871762057	-0.4173143923	 0.243065
H	-0.033123899	-1.4881900275	 1.6360869762	 0.107657
H	 1.750330224	 1.008961893	 1.9550748302	 0.126482
H	 0.5847026402	 0.4322256056	 3.1704246123	 0.125922
H	 3.0626213702	-1.1688401931	 2.2256955686	 0.091035
H	-3.0958062699	-1.5348765237	-1.3623466542	 0.201265
