19
gdb 126437	2.00751	1.59584	0.95078	3.026	78.81	-0.2064	0.0303	0.2367	1266.4011	0.159784	-419.221468	-419.212169	-419.211225	-419.256027	33.626	
C	 0.2131570023	 1.489267725	 0.1735001257	-0.376667
C	-0.0684089286	 0.0055785735	-0.1189572247	-0.286054
C	 0.7009842602	-0.518551517	-1.2916735361	 0.249994
N	 0.1093160766	-0.8388190079	-2.4414039335	-0.285451
N	 1.1008070004	-1.2497066829	-3.248567041	-0.196779
C	 2.3295743452	-1.2096269119	-2.6597396657	-0.16209
C	 2.1006661394	-0.7357228317	-1.3828035494	 0.221907
O	 2.9615119813	-0.4977987225	-0.3607452305	-0.264063
C	 4.3181438602	-0.7854070797	-0.6335882455	-0.24781
H	 1.2759238982	 1.648717749	 0.3773501126	 0.128431
H	-0.065863011	 2.1140259309	-0.6806127682	 0.119129
H	-0.3556209502	 1.8289864728	 1.0449332047	 0.107105
H	 0.1796229892	-0.586924233	 0.7703415285	 0.106719
H	-1.1334710439	-0.1449607068	-0.319585447	 0.114804
H	 0.8788667465	-1.5507979452	-4.1808159957	 0.271525
H	 3.2245265851	-1.5106161324	-3.177058422	 0.128347
H	 4.8803220433	-0.5522059836	 0.2721459009	 0.134696
H	 4.4574037862	-1.8462023022	-0.8848944211	 0.118137
H	 4.6965568693	-0.1726619045	-1.463852982	 0.118118
