15
gdb 66068	2.79179	1.28625	1.08258	0.4	68.79	-0.2669	-0.054	0.2129	1118.5919	0.109327	-457.705107	-457.696416	-457.695472	-457.738813	31.634	
O	 0.121208555	 1.4698494538	-0.3009762453	-0.455567
C	 0.0358832184	 0.113409959	-0.0820428241	 0.274719
C	-0.0797208914	-0.3766204494	 1.3823330715	-0.132347
O	-1.1746783154	-1.2507054793	 1.048120557	-0.267084
C	-1.3668385504	-0.6163987564	-0.2393752793	-0.2058
C	-2.5115311663	 0.269884349	-0.3059342905	 0.384215
C	-3.4616905315	 1.0028312008	-0.3664678005	-0.424143
C	 1.0959653092	-0.6298353467	-0.8628874545	 0.119602
O	 1.8518929243	-0.0530156293	-1.6055878993	-0.275085
H	 0.7991244882	 1.5909928781	-0.9865219408	 0.298306
H	 0.7664477758	-0.9213336046	 1.8149624537	 0.114415
H	-0.3794308165	 0.4421392123	 2.0468218942	 0.131815
H	-1.4237675161	-1.3706122383	-1.0340720107	 0.112525
H	-4.3016572076	 1.6510391094	-0.4183785712	 0.206566
H	 1.1299049243	-1.7279357785	-0.7180645602	 0.117865
