16
gdb 22437	2.65278	1.17974	0.82174	2.4743	81.94	-0.2318	-0.0512	0.1806	1348.941	0.121346	-433.991723	-433.981804	-433.980859	-434.02644	35.932	
C	-0.084355715	 1.4041327866	-0.0070141269	-0.343147
N	-0.0597801761	-0.0446521619	-0.0061231453	-0.292368
C	 0.6050723714	-0.6210136313	-0.9343130324	 0.330182
N	 1.3359003748	-0.0155458562	-1.9316010992	-0.562716
C	 0.6429059463	-2.1132724431	-0.9358756159	 0.107664
N	 1.2463995662	-2.6687405497	-1.9321609689	-0.198872
O	 1.2414586834	-4.04594279	-1.8762342536	-0.370973
C	 0.0253853676	-2.8297252792	 0.1261644943	 0.398783
C	-0.4778964715	-3.4835775876	 1.0009077249	-0.448472
H	 0.9267037688	 1.8399851354	 0.0273916794	 0.116903
H	-0.5856799977	 1.8147443475	-0.9001482243	 0.106437
H	-0.6363616287	 1.7601047958	 0.8660504758	 0.126439
H	 1.0833211834	 0.9252296177	-2.1844860283	 0.254158
H	 1.6283764378	-0.6152980939	-2.687703501	 0.260723
H	 1.7242402013	-4.2933055875	-2.6735167411	 0.312719
H	-0.929542682	-4.0410359426	 1.7840517323	 0.202539
