19
gdb 52692	3.66237	0.83609	0.77172	1.4082	80.72	-0.2432	0.044	0.2871	1560.5864	0.157489	-422.97808	-422.968055	-422.967111	-423.017241	34.578	
C	-0.0163431713	 1.4900828125	 0.0568626914	-0.499083
C	-0.0272637105	 0.0352034777	 0.0198629368	 0.080815
C	-0.0404953551	-1.1686760529	-0.0035872709	 0.066804
C	-0.0628718294	-2.6343209274	-0.0644330942	-0.094241
O	-1.379022037	-3.1512630785	-0.1945421287	-0.421127
C	 0.8145810955	-3.1533917329	-1.2142328283	 0.146255
C	 0.8433716606	-4.6803414416	-1.4378213374	-0.298419
C	 0.2680506045	-4.3436227095	-2.8260237423	-0.063302
O	 0.1503295466	-2.9409898499	-2.4855355316	-0.304981
H	 1.0012510316	 1.8813710432	-0.0511629832	 0.149082
H	-0.619775479	 1.9108632408	-0.7548700146	 0.151581
H	-0.419732752	 1.8686289266	 1.0024456064	 0.149723
H	 0.3305557038	-3.0477462484	 0.8735953449	 0.11273
H	-1.6600363651	-2.8912369834	-1.08254328	 0.28875
H	 1.7972227561	-2.6668965784	-1.1894335368	 0.084397
H	 1.8268296508	-5.1507288313	-1.4189189668	 0.108458
H	 0.1534908855	-5.22184481	-0.7900417326	 0.128293
H	 0.9583698303	-4.4929388573	-3.6650721442	 0.105848
H	-0.702522256	-4.7847283192	-3.0773110677	 0.108418
