17
gdb 110243	1.98743	1.52878	1.02053	3.1405	69.66	-0.2418	-0.0156	0.2262	1172.1394	0.134029	-458.936499	-458.927661	-458.926717	-458.970311	32.945	
O	 0.0606574175	 1.2828197391	-0.3260334849	-0.411642
C	 0.089850741	-0.0257217398	 0.2150462468	-0.096747
C	-1.2797024881	-0.6783017841	 0.176013235	-0.12797
C	-1.9219609635	-1.2223165817	-1.1205181592	-0.303976
C	-0.943934679	-2.0523209406	-1.8827482452	 0.428029
O	-0.6529520194	-2.1271321464	-3.0447741194	-0.32096
C	-0.59588573	-2.9442934917	-0.6621863662	-0.416393
C	-1.5960774749	-2.1207028009	 0.1483899481	 0.414017
O	-2.4317707366	-2.7741156389	 1.0185580738	-0.448893
H	-0.1900172086	 1.2073020504	-1.2535259286	 0.291641
H	 0.8343098061	-0.6547888908	-0.2930226777	 0.103515
H	 0.4166430529	 0.088532583	 1.2544687416	 0.116504
H	-2.022284866	-0.0975952744	 0.7271570929	 0.098474
H	-2.8412428215	-0.7923654576	-1.5001473168	 0.113626
H	-0.9756402936	-3.9552798227	-0.8388776254	 0.144685
H	 0.4397837084	-3.003090663	-0.3174242489	 0.121657
H	-2.8507701249	-2.1326792201	 1.6018508139	 0.294433
