17
gdb 68344	3.02351	1.52624	1.2015	1.1651	83.9	-0.2225	-0.0324	0.1901	1045.6907	0.135237	-384.631364	-384.623407	-384.622462	-384.663579	31.656	
O	 0.0941706779	 1.3940899538	-0.012096197	-0.487801
C	 0.0262193109	 0.013202552	 0.0122375934	 0.334472
C	 0.363211792	-0.8252584466	 1.2902559954	-0.258931
C	-0.3937786464	-1.9272248998	 0.4652572743	-0.083741
C	-1.3313870676	-0.7651606302	-0.023112381	-0.258969
C	 0.5350472506	-2.0656532006	-0.7395191479	-0.20607
C	 0.8238684797	-0.7912364158	-1.0538302619	 0.222496
C	 1.6094656252	-0.1777693368	-2.0393006845	 0.060495
C	 2.2510724213	 0.4624627264	-2.8377848885	-0.394423
H	 0.6684112409	 1.6597830617	-0.7413679922	 0.284498
H	 1.4159847015	-0.9988345332	 1.5237262712	 0.097865
H	-0.190635694	-0.4913972601	 2.1723827099	 0.103107
H	-0.7856668829	-2.82837639	 0.9296480857	 0.073908
H	-2.032583267	-0.42607083	 0.7448046353	 0.103107
H	-1.8265072972	-0.8838285389	-0.9894107277	 0.097866
H	 0.868128216	-2.9787741936	-1.2110784021	 0.117207
H	 2.8287625891	 0.9855829919	-3.5591757622	 0.194913
