19
gdb 117875	3.37388	0.56735	0.50215	4.9287	85.07	-0.2623	-0.0574	0.205	2116.9995	0.155846	-423.000631	-422.989573	-422.988629	-423.039476	36.864	
C	-0.134009021	 1.5714383556	 0.1008821828	-0.388825
C	 0.0059704848	 0.0370729701	 0.0066413898	-0.17978
C	 0.71728652	-0.4328074806	-1.2862773404	-0.163102
C	-0.0592184346	-0.1208140519	-2.5616620603	-0.086769
O	 0.6486098439	-0.7211880084	-3.6337645352	-0.419036
C	 0.7163855562	-0.4855296704	 1.1702578863	 0.102728
C	 1.3135950588	-0.9214734369	 2.1263521591	 0.037336
C	 2.0423342595	-1.4077894988	 3.2682977671	 0.015042
O	 1.8507175599	-2.4757181064	 3.8042441316	-0.229633
H	 0.8475120192	 2.0513546384	 0.0418083942	 0.1306
H	-0.7566337022	 1.9559599348	-0.7111275912	 0.123615
H	-0.5972500998	 1.860048363	 1.0477311196	 0.131659
H	-1.0024966554	-0.401229287	 0.0125561218	 0.116725
H	 1.7107604076	 0.0249799234	-1.3457447968	 0.118038
H	 0.8691462488	-1.5156863092	-1.2419194459	 0.12788
H	-1.0825260273	-0.5250152681	-2.4801757304	 0.087687
H	-0.1475475038	 0.966342491	-2.7071202029	 0.091593
H	 0.1997273156	-0.4993365054	-4.4547123023	 0.288526
H	 2.8215534897	-0.7100818232	 3.638473533	 0.095716
