19
gdb 92237	2.76286	1.84458	1.42021	2.9834	73.79	-0.2105	0.0671	0.2776	956.5323	0.162975	-419.160885	-419.153906	-419.152962	-419.192099	28.884	
O	 0.0804813586	 1.4464955902	 0.1581925812	-0.435403
C	 0.0163877648	 0.0647053639	-0.0412088353	 0.124972
C	 0.4321880964	-0.8611739576	 1.1359781857	-0.211917
N	-0.8440332193	-1.6107640763	 1.0147178403	-0.095449
C	-1.733223589	-1.6996859839	 2.1791948055	-0.185189
C	-2.7138514512	-0.5418893023	 2.0554549957	-0.037414
N	-2.0611867795	 0.7834322489	 1.9765525973	-0.359995
C	-2.5111307258	 0.1048010454	 0.7314802213	-0.051319
C	-1.3880526913	-0.6298392849	 0.0280413193	-0.031526
H	-0.3994166519	 1.6109800497	 0.9830500341	 0.292675
H	 0.5465204542	-0.1441698496	-0.9733826207	 0.089588
H	 1.3201778863	-1.484836995	 0.9829970623	 0.095156
H	 0.5416628476	-0.3058107059	 2.0755557281	 0.099983
H	-2.2917382702	-2.6458334731	 2.1756035576	 0.101264
H	-1.150464529	-1.6614830559	 3.1062823781	 0.110415
H	-3.6946093923	-0.6053910304	 2.516548101	 0.09311
H	-2.7348113458	 1.5029644517	 2.2267818473	 0.238818
H	-3.3294336961	 0.5384352724	 0.1672417718	 0.094317
H	-1.7531887463	-1.0786656472	-0.9034064904	 0.067912
