15
gdb 30976	2.39677	1.49182	0.95556	4.7097	65.25	-0.2247	0.0276	0.2522	1186.3487	0.110921	-494.94548	-494.936836	-494.935892	-494.979323	30.243	
C	-0.071552031	 1.3623584288	-0.1393868194	-0.260919
O	-0.174262898	 0.147448339	 0.6243619315	-0.26365
C	-1.2329064183	-0.6082360122	 0.3568562741	 0.314231
C	-1.3527117853	-1.9021083767	 0.0622498985	 0.189231
C	-0.3882582554	-3.0011686463	-0.1560272336	-0.49742
O	-2.7221177116	-2.1857760954	-0.0028959589	-0.24466
C	-3.4067527898	-1.0335885744	 0.2308876626	 0.502922
O	-4.5883319584	-0.9048796118	 0.2314255299	-0.372431
O	-2.4954432195	-0.0356612176	 0.465813556	-0.248255
H	 0.8434738235	 1.8495023492	 0.1970511938	 0.147748
H	-0.0041513139	 1.136150327	-1.2092449236	 0.132188
H	-0.9310281123	 2.0110040257	 0.0489167648	 0.15485
H	-0.5115810619	-3.7946285822	 0.5896191019	 0.14954
H	-0.515790235	-3.4530177271	-1.1459144774	 0.147084
H	 0.6278925768	-2.6086487461	-0.0783320402	 0.149541
