16
gdb 47244	2.76796	1.56106	1.08903	3.9673	76.26	-0.2189	-0.0405	0.1784	1075.7729	0.126976	-437.919279	-437.911757	-437.910812	-437.951656	28.64	
O	-0.0335102137	-0.0858710573	 0.087339557	-0.37277
C	-0.002436142	 1.1117815338	-0.0464444881	 0.473539
N	-1.2067245312	 1.7925314018	-0.2972797185	-0.393929
C	-1.7610878417	 3.0584202685	-0.1101475244	 0.007987
C	-1.3380609082	 4.2080991612	 0.4510385113	-0.114781
C	-0.058742238	 4.5729077183	 1.0313447422	-0.073645
C	 1.1394635305	 4.1081362185	 0.657238101	-0.095067
C	 1.296755212	 3.1378980345	-0.4676384866	-0.145053
O	 1.1635408248	 1.7618065353	-0.0272427491	-0.235205
H	-1.9065289863	 1.0798657312	-0.4452965842	 0.267162
H	-2.7869793073	 3.0505796547	-0.4672043084	 0.117376
H	-2.1049543961	 4.9765647103	 0.4925605384	 0.097295
H	-0.1043667634	 5.3167879896	 1.8242701687	 0.101949
H	 2.0357647847	 4.4272259892	 1.1788673882	 0.101391
H	 0.5743934968	 3.3365016301	-1.2644205038	 0.135446
H	 2.301617049	 3.1765450402	-0.8921156738	 0.128306
