19
gdb 92923	2.43805	1.41491	1.06589	4.5673	82.2	-0.2261	-0.0003	0.2257	1184.5349	0.160762	-382.084136	-382.075679	-382.074735	-382.11726	31.89	
C	 0.0192690394	 1.4864031132	-0.0097457691	-0.31958
N	 0.0535051887	 0.0356838172	-0.0013900649	-0.060434
C	 0.6079641341	-0.5083613518	-1.2313532362	-0.187226
C	 0.7757861009	-1.9984211091	-1.1717816839	-0.052015
C	 0.6624051426	-2.7024997502	-0.0508335934	-0.067476
C	 0.3984321983	-2.0271353866	 1.280970404	-0.201941
C	 0.6913975004	-0.5156329055	 1.179128252	-0.164638
C	-0.9750281789	-2.2833360694	 1.7377597627	 0.281919
N	-2.0474239306	-2.4987158079	 2.1111789087	-0.329374
H	 1.0246025505	 1.9482446995	-0.0485375568	 0.093762
H	-0.5425044771	 1.8344688107	-0.8823993307	 0.12404
H	-0.489761134	 1.8503791118	 0.8875994603	 0.127224
H	-0.0637519479	-0.2491746124	-2.0606203194	 0.120658
H	 1.5888716827	-0.0493728829	-1.4851230234	 0.088794
H	 1.0053912938	-2.4946456882	-2.1104319163	 0.104355
H	 0.7609444076	-3.7829923841	-0.0480346094	 0.10921
H	 1.0666473199	-2.4556102856	 2.0399582029	 0.126059
H	 1.7914096844	-0.3840568571	 1.1729897721	 0.086391
H	 0.3053323751	-0.0008147314	 2.0631798805	 0.120273
