16
gdb 12897	3.53721	1.81586	1.54638	3.5888	69.31	-0.2529	0.0107	0.2636	871.4364	0.130896	-342.758647	-342.751215	-342.75027	-342.790096	27.873	
C	-0.0012405954	 1.5222356638	 0.0766100771	-0.491551
C	-0.0209467462	 0.0270443107	-0.033904507	 0.340683
C	-1.2753272896	-0.8428005046	-0.1542179003	-0.312951
C	-0.5851745952	-1.8061269145	 0.844715417	-0.160922
N	 0.6126331784	-0.8971426809	 0.9871292021	-0.174628
C	 1.2007308992	-0.7576333613	-0.3757845148	-0.206333
C	 1.1956453866	-1.8336023982	-1.3327483528	 0.308226
N	 1.1877822535	-2.6982557354	-2.1017216883	-0.348165
H	 0.9771014262	 1.8779395079	 0.4116765393	 0.135788
H	-0.2216074126	 1.9836695998	-0.8925320756	 0.135127
H	-0.7529650947	 1.8664840997	 0.7942755744	 0.131937
H	-2.1590552433	-0.3572598023	 0.2635971942	 0.11719
H	-1.514124516	-1.2220688186	-1.150563548	 0.129697
H	-1.0873155871	-1.8783583623	 1.8100685684	 0.121759
H	-0.3388459346	-2.8091180948	 0.4882340495	 0.136508
H	 2.1395747207	-0.212414899	-0.3448348254	 0.137633
