21
gdb 91541	2.84653	1.31023	1.0705	1.639	82.36	-0.2344	0.0641	0.2985	1211.8979	0.183708	-383.196533	-383.187914	-383.186969	-383.23024	33.119	
C	-0.0647792868	 1.6290666591	 0.0223977265	-0.418227
C	 0.0604568561	 0.1132422196	 0.1102159703	-0.047453
C	 1.0521373782	-0.6576122379	-0.8032687254	-0.179998
N	 1.6851613807	-1.363680689	 0.3673993608	-0.165827
C	 2.2631284798	-0.2858925697	 1.1902839927	-0.304852
C	 0.806082658	-0.5229300449	 1.2964481496	 0.350191
C	 0.1055128897	-1.0585780659	 2.4919853904	-0.106763
C	 0.8070653692	-1.443309503	 3.7399301344	-0.241895
N	-0.0209225553	-0.2266194594	 3.714783004	-0.323003
H	 0.908708251	 2.1245115503	 0.0964909669	 0.113633
H	-0.5150842659	 1.9283158005	-0.9304252509	 0.118864
H	-0.7009776287	 2.0159633196	 0.825877298	 0.125378
H	-0.9349476431	-0.3359618618	 0.0330626871	 0.084357
H	 0.5824242039	-1.3787191897	-1.4747749793	 0.110526
H	 1.7627475322	-0.0497271962	-1.3751132862	 0.100554
H	 2.903373798	-0.659599166	 1.9825691598	 0.121881
H	 2.6414268654	 0.6077697915	 0.6974278506	 0.108926
H	-0.8157177204	-1.5896907293	 2.2579183131	 0.089781
H	 0.406608372	-2.2550913095	 4.340373167	 0.122093
H	 1.8866444578	-1.3417828807	 3.7886014198	 0.113214
H	 0.5894449881	 0.5831544123	 3.6181606406	 0.22862
