18
gdb 90604	2.40555	1.67576	1.23039	4.0969	73.11	-0.2333	0.0364	0.2697	1054.6429	0.147739	-439.086873	-439.078261	-439.077316	-439.120263	31.7	
C	-0.0256183808	 1.3846822316	-0.1908229102	-0.350288
N	-0.0369259071	-0.037586364	 0.0595996141	-0.05039
C	-1.1103272056	-1.0249673958	 0.0270713975	-0.033585
C	-1.5382932944	-1.4960673445	-1.3880139661	 0.128375
O	-1.5681733927	-0.453464892	-2.3325895126	-0.429783
C	-0.3548892969	-2.5151790678	-1.4184681915	-0.286578
C	 0.0002733647	-2.1292486802	 0.052568135	-0.196267
C	 0.994256023	-0.9511821658	 0.0917643971	 0.405235
O	 2.1905291906	-0.8149463574	 0.0854775549	-0.380613
H	 1.0170607472	 1.7110516105	-0.168501575	 0.155389
H	-0.4579959953	 1.6143063683	-1.1688611046	 0.148369
H	-0.5808764144	 1.9268970921	 0.5832043549	 0.122959
H	-1.8832444649	-0.8940359276	 0.7868567941	 0.080368
H	-2.5036443978	-2.0206633143	-1.3372568535	 0.072527
H	-1.7459700475	-0.8298436775	-3.20036644	 0.289527
H	-0.6685689098	-3.5523933072	-1.5510535994	 0.107933
H	 0.4309524763	-2.2848373913	-2.1413046928	 0.120199
H	 0.0713129154	-2.9097228671	 0.805874978	 0.096624
