16
gdb 16823	3.62714	2.0889	1.53192	4.2912	65.91	-0.2543	0.03	0.2843	841.9825	0.131916	-379.916239	-379.909319	-379.908375	-379.94731	26.491	
C	 0.1287354481	 1.5494364856	-0.1116501368	-0.403251
C	-0.0181637589	 0.0532991963	 0.1127564571	 0.100008
O	 0.475053958	-0.668055574	-1.0314964919	-0.257453
C	 1.1975108033	-1.7692185649	-0.6385309716	 0.426978
N	 1.6178778431	-2.6741716787	-1.4053825272	-0.538177
N	 1.4236622153	-1.7688822615	 0.7701368858	-0.1335
C	 2.2386988563	-0.5901490337	 1.1715059707	-0.252537
C	 0.7636936359	-0.5503222967	 1.2703122576	-0.042383
H	 1.1789307346	 1.8285273345	-0.2300837396	 0.128071
H	-0.416015758	 1.8556708848	-1.0085476562	 0.137013
H	-0.2827084004	 2.0970088763	 0.7420833544	 0.12639
H	-1.0804476847	-0.1984544116	 0.2350796175	 0.097916
H	 1.3290771507	-2.480720561	-2.3640358733	 0.227175
H	 2.8367670806	-0.7509284041	 2.0618491897	 0.135379
H	 2.7265680734	-0.0290878209	 0.3796198604	 0.137536
H	 0.2727634825	-0.6271012505	 2.2348366433	 0.110835
