15
gdb 45075	2.51704	1.70117	1.1595	3.9548	68.95	-0.2545	-0.0527	0.2018	1020.53	0.113277	-416.811816	-416.804333	-416.803388	-416.844352	27.927	
O	 0.0394419351	 0.0286885803	-0.3958252735	-0.271015
C	-0.0151385408	 1.1727775192	-0.0564801315	 0.372666
C	-1.2635189496	 1.9803053006	 0.3174831229	-0.275507
N	-0.8411310094	 3.2464850221	 0.9143593688	-0.097752
C	-0.006683692	 3.0765382739	 2.1116275885	-0.246418
C	 0.6359434911	 3.347725619	 0.8031331156	-0.02969
C	 1.2035522499	 2.1530067815	 0.0508951777	-0.292262
C	 2.3710722778	 1.5362950978	 0.6624960599	 0.302763
N	 3.294334997	 1.0569454152	 1.1654695374	-0.318039
H	-1.8355363879	 2.1774317676	-0.5980813361	 0.149784
H	-1.9056877545	 1.4013769433	 0.9874218698	 0.154014
H	-0.0927558428	 3.8712921038	 2.8451903179	 0.137981
H	 0.1023562186	 2.0786898426	 2.5352420811	 0.13369
H	 1.0350620699	 4.3294977362	 0.5734553052	 0.120234
H	 1.4594906373	 2.4387960069	-0.9783677137	 0.159551
