17
gdb 71482	4.10707	1.21283	1.11331	3.4253	74.	-0.2432	-0.0239	0.2193	1098.2693	0.134729	-421.785566	-421.777601	-421.776657	-421.817993	30.501	
O	-0.3423287971	 1.3966312956	-0.0015051924	-0.474971
C	-0.0902779203	 0.0378258678	 0.0026713922	 0.379829
C	 0.5166861345	-0.7036975049	-1.2327880224	-0.305951
C	-0.3238374005	-1.8935037706	-0.7752153329	-0.088005
C	-1.253962917	-1.0268586877	-0.001065254	-0.140639
C	-0.2562577695	-1.9031886564	 0.7757916284	 0.248607
C	 0.5496974892	-0.6845159229	 1.2240265949	-0.37896
C	-0.6257630165	-3.1083003446	 1.5273061497	 0.038476
O	-1.3102148232	-4.0061157407	 1.0893625551	-0.275332
H	 0.4986196391	 1.8672065814	 0.0263298648	 0.285442
H	 0.1269828937	-0.2818672228	-2.1625297725	 0.1144
H	 1.6062348318	-0.8080930506	-1.2851760058	 0.09157
H	-0.5544658231	-2.8175043443	-1.2868495776	 0.117618
H	-2.3286066003	-0.9806863911	 0.09202278	 0.116517
H	 1.6432433904	-0.7531141205	 1.2605118791	 0.092041
H	 0.1631443298	-0.2763039252	 2.1621039068	 0.110674
H	-0.233871161	-3.1421331824	 2.5695975864	 0.068684
