19
gdb 85380	1.88144	1.64243	0.95034	3.7183	77.03	-0.2445	-0.0347	0.2098	1241.2828	0.158818	-423.088651	-423.080001	-423.079056	-423.122232	32.63	
C	 0.0045267691	 1.5560885255	 0.010334532	-0.400027
C	 0.0017707524	 0.024787707	 0.002157127	 0.001771
C	 0.6641090203	-0.5305779333	-1.2763972082	-0.295335
C	 0.6811395549	-2.0512156784	-1.2893494823	 0.367477
O	 0.2677227172	-2.7095325365	-2.2117581917	-0.292842
C	 1.250125315	-2.698038881	-0.0259727533	-0.387611
C	 0.7086297435	-2.0648376728	 1.25624001	 0.367506
O	 0.3156002149	-2.733007485	 2.1804759131	-0.292861
C	 0.6917131803	-0.5441596037	 1.2599628909	-0.295333
H	 1.0293029849	 1.9453648735	 0.0012535812	 0.117744
H	-0.5135931918	 1.95545334	-0.8671177912	 0.122751
H	-0.4943040829	 1.9459708409	 0.9030961944	 0.122752
H	-1.0431889664	-0.3154905557	 0.0117135029	 0.099808
H	 0.1518648107	-0.1845479706	-2.1771649295	 0.125241
H	 1.7036538114	-0.1723322956	-1.3209915788	 0.114122
H	 1.0712908968	-3.7732645909	-0.0297833215	 0.144522
H	 2.3358680368	-2.5190633285	-0.0367675493	 0.140947
H	 1.7320631205	-0.1863949911	 1.2856956147	 0.114132
H	 0.1993061026	-0.207794074	 2.1753350896	 0.125237
