14
gdb 3363	4.54464	2.82664	2.74888	1.5316	56.05	-0.2404	0.0155	0.2559	587.48	0.115004	-324.570823	-324.564927	-324.563983	-324.600436	22.07	
C	-0.0661764291	 1.5579679625	 0.0108664181	-0.411932
C	 0.059049944	 0.0541925784	 0.0775426902	-0.054241
C	 1.3251032909	-0.6990788769	-0.2172670401	 0.039317
O	 2.5443397823	 0.0294626615	-0.112697946	-0.206378
C	 2.6286773426	 0.3967557467	 1.1935630894	 0.094505
N	 1.7183165942	 0.0245163173	 1.9992403855	-0.250866
C	 0.759538473	-0.7037909966	 1.200090546	-0.045704
H	 0.788911104	 2.0633218403	 0.4641913633	 0.134682
H	-0.1419303124	 1.8944860824	-1.0282399525	 0.122138
H	-0.9637063651	 1.8900697629	 0.5419706341	 0.124682
H	-0.8154267209	-0.4831623828	-0.2825656798	 0.097488
H	 1.3910578639	-1.5216546238	-0.9179629581	 0.110476
H	 3.4986527762	 0.9925980681	 1.4415908493	 0.143991
H	 0.2690166465	-1.54158262	 1.6806574507	 0.101842
