20
gdb 77093	3.13076	1.10627	0.92099	4.2545	84.62	-0.2822	0.0308	0.313	1310.2931	0.170878	-366.011769	-366.002855	-366.001911	-366.045466	33.863	
C	-0.6060817376	 1.0663873787	-0.0367344719	-0.421504
C	-0.0044843913	-0.3211109476	 0.1028648568	-0.04217
C	 1.318740332	-0.630484941	-0.6846405727	-0.148237
C	 1.845233516	-1.41093288	 0.5644848456	-0.317329
C	 0.7489617043	-0.7237296962	 1.3852236561	 0.355812
C	 0.9900132254	 0.1580584935	 2.5780445936	-0.319233
C	 0.193071097	-1.1211995141	 2.7147966709	-0.333684
C	 1.2120879974	-1.3390883919	-1.9469401876	 0.264616
N	 1.1086719256	-1.9174332034	-2.9433821134	-0.331972
H	 0.1333628757	 1.844460636	 0.17973923	 0.119711
H	-0.9823759889	 1.2273628697	-1.0522950163	 0.131372
H	-1.4475803434	 1.2014842849	 0.6517454173	 0.123077
H	-0.7518884958	-1.0835965387	-0.1432524039	 0.09604
H	 1.8915326582	 0.28933768	-0.8350037731	 0.119607
H	 1.6889440836	-2.4881717342	 0.4620471693	 0.124144
H	 2.8850233142	-1.224805439	 0.8418240518	 0.115788
H	 1.9908300078	 0.1858968361	 2.9974128264	 0.114944
H	 0.4543088338	 1.0994437913	 2.6439763181	 0.116924
H	-0.8788035289	-1.0374078386	 2.8664188691	 0.11543
H	 0.6502820352	-1.9594766055	 3.231004544	 0.116662
