13
gdb 21361	5.46798	2.17531	1.55621	3.8066	64.65	-0.1989	0.0257	0.2246	744.8473	0.099762	-357.665928	-357.659906	-357.658962	-357.695713	23.32	
N	-0.0429506061	 1.349452294	 0.0100929895	-0.41507
C	 1.2650959698	 1.8518863128	 0.0001784203	-0.058773
C	 2.1641072789	 0.8185214272	-0.0143989795	-0.336925
C	 1.3977738583	-0.3960096836	-0.0137088931	 0.240327
C	 0.0594364384	-0.0098641895	 0.0015396354	 0.450596
N	-0.7124636676	-1.1205201565	 0.0033956115	-0.360092
N	 0.0717456616	-2.2459966478	-0.0109149016	-0.22846
C	 1.3277129033	-1.8142898743	-0.0207544137	-0.151946
H	-0.8788853083	 1.9042716459	 0.0222440208	 0.263164
H	 1.4249491627	 2.9184135868	 0.0044550285	 0.121069
H	 3.2371163775	 0.927693165	-0.0243321656	 0.101064
H	-1.7104430553	-1.224392095	 0.0111029612	 0.267219
H	 2.1271529868	-2.540540705	-0.0325753337	 0.107826
