20
gdb 109253	3.50288	1.20171	1.01454	1.6542	80.36	-0.2386	0.0331	0.2717	1249.0881	0.172053	-403.15728	-403.148763	-403.147819	-403.191035	32.156	
C	 0.1992187165	 0.9527605775	-0.6109440236	-0.377554
C	-0.3737266544	 0.1877698227	 0.5924987318	-0.244597
C	 0.6937655419	-0.2832018493	 1.5442469596	 0.387603
N	 0.7813497231	 0.1661848176	 2.7248243132	-0.311009
C	 1.8549602709	-0.2560071834	 3.6123927764	-0.181224
C	 2.7457048544	-1.3736483454	 3.0979314074	-0.073469
C	 2.1519979281	-2.7388265038	 2.8090333576	-0.317719
C	 2.5184630824	-1.810926328	 1.6846223519	 0.108273
O	 1.4911650681	-1.211731709	 0.9327755966	-0.26041
H	 0.8916069355	 0.3261744895	-1.1788868733	 0.129655
H	-0.6047017876	 1.2698199808	-1.2814982302	 0.114842
H	 0.7384724536	 1.8470048969	-0.2830134149	 0.123162
H	-1.0591490795	 0.817581788	 1.1624075683	 0.122481
H	-0.9303221056	-0.6870172162	 0.2351582949	 0.11168
H	 2.4764085365	 0.6270728509	 3.8113567781	 0.115282
H	 1.4072996199	-0.5267069703	 4.5780603341	 0.109882
H	 3.7742800451	-1.3477939691	 3.4440132262	 0.09261
H	 2.7613960412	-3.6214700296	 2.9681232842	 0.117133
H	 1.0930964772	-2.8733462455	 3.0068478966	 0.127668
H	 3.3529238428	-2.0519635642	 1.0366647249	 0.10571
