16
gdb 45945	2.27692	1.97164	1.15883	1.6643	70.61	-0.2471	-0.0343	0.2129	1021.2376	0.125082	-437.94429	-437.936394	-437.93545	-437.976934	29.51	
O	 0.0124425356	 0.0165293046	 0.007097693	-0.323699
C	 0.006915553	 1.2220129149	 0.0118067437	 0.323569
C	-1.2574368942	 2.1024261734	 0.0316839707	-0.280793
N	-0.720987473	 3.4488229859	 0.0295924807	-0.35148
C	 0.6478164562	 3.545819572	 0.0122579392	 0.370575
O	 1.2947263527	 4.5716414988	 0.0075655164	-0.38904
C	 1.1703369419	 2.1415592045	-0.0000220972	 0.091703
C	 2.4684998671	 1.7919064965	 0.7216759597	-0.285148
C	 2.4490597388	 1.797522845	-0.7581895078	-0.285147
H	-1.8754687456	 1.8825764211	-0.8479454441	 0.14287
H	-1.8521366201	 1.8760330232	 0.9256252179	 0.142858
H	-1.2893295499	 4.2804454956	 0.0403601015	 0.258492
H	 2.9424898885	 2.6218849225	 1.2333201489	 0.149466
H	 2.4695597334	 0.8368944365	 1.2350577114	 0.14315
H	 2.4365489093	 0.846432443	-1.278652484	 0.143155
H	 2.9095456963	 2.6314004426	-1.2757911297	 0.149468
