19
gdb 100175	1.77334	1.52585	1.21975	2.658	72.63	-0.2296	-0.037	0.1926	1162.9887	0.157236	-456.380262	-456.370026	-456.369082	-456.41538	37.172	
C	-0.8006231896	 0.8572178132	 0.2304811697	-0.330012
N	 0.5158604394	 0.2432280436	 0.1098506409	-0.337333
C	 0.8646470102	-0.3898532378	-1.1531114742	 0.053015
C	 0.2774980496	 0.2475658405	-2.4371674509	-0.432302
C	 2.3874805902	-0.3198257494	-1.3149487161	 0.165559
O	 3.0991632831	 0.3687551761	-0.6298624094	-0.269053
C	 0.5268979233	-1.91118294	-1.1648836665	 0.392052
N	 0.2245365207	-2.4098970893	 0.0542832463	-0.52555
O	 0.5801890585	-2.5612676156	-2.1930740309	-0.380148
H	-0.9958385983	 1.6751873333	-0.4791875875	 0.112162
H	-1.5808091293	 0.1007182879	 0.0926858073	 0.12746
H	-0.9058299746	 1.2575262675	 1.2429025443	 0.12515
H	 1.2606947485	 0.8854877157	 0.3619529532	 0.238581
H	 0.5975103479	 1.2894678488	-2.5305572978	 0.121893
H	 0.6067049865	-0.3156351266	-3.3110470632	 0.152617
H	-0.8144698899	 0.2159335272	-2.4165904789	 0.133582
H	 2.7805501456	-0.943249397	-2.1413845875	 0.119899
H	 0.2840715314	-1.7879305978	 0.8465285575	 0.270436
H	 0.0741253367	-3.3990103704	 0.1586325936	 0.261993
