14
gdb 28129	5.2965	1.30073	1.04557	2.028	72.74	-0.173	0.0176	0.1906	1061.3639	0.10319	-436.708123	-436.70117	-436.700226	-436.739332	27.131	
N	 0.089832433	 1.3474077578	 0.1694496919	-0.590049
C	-0.068222683	-0.023773974	 0.0531835446	 0.390908
C	-1.1794368411	-0.8302262993	 0.0119985838	-0.47593
C	-0.6213234715	-2.1446283615	 0.0041575815	 0.33884
C	 0.7367331845	-2.0446156115	 0.0306007886	 0.264601
O	 1.1097075875	-0.7274577737	 0.0645752195	-0.229974
C	 1.2845887271	-3.3535133278	-0.0090430638	-0.357842
C	 0.1803981896	-4.1618469479	-0.0513042944	-0.019131
O	-0.9991920776	-3.4411921467	-0.0453915537	-0.205831
H	 0.9241219677	 1.6851227461	-0.2943349788	 0.259062
H	-0.7247465949	 1.8642830664	-0.1310178527	 0.258512
H	-2.2065233992	-0.5077864611	-0.0088032444	 0.113529
H	 2.3122126567	-3.6777934152	-0.00262668	 0.120695
H	 0.0615122312	-5.2312734017	-0.0799794121	 0.132609
