21
gdb 115630	2.14517	1.45835	1.03282	2.1239	79.78	-0.2264	0.0717	0.2981	1243.2745	0.181013	-424.182013	-424.172463	-424.171519	-424.216556	35.546	
C	 0.2755114613	 1.4767105438	 0.3548470679	-0.241584
O	 0.8526205928	 0.2084394333	 0.1236757418	-0.254221
C	 0.7195130918	-0.6747734529	 1.2092676458	 0.086992
C	-0.6396960642	-1.3775877139	 1.4977979831	-0.255794
C	 0.149797509	-2.7069473643	 1.7137580248	-0.321034
C	 1.336478767	-2.0522550049	 0.994359836	 0.278652
C	 1.9514430731	-2.4797196535	-0.32152583	-0.383232
C	 2.8049666481	-2.3125514984	 0.909063315	 0.059649
O	 3.6976598781	-1.2402734591	 1.0312905423	-0.435721
H	 0.7183700302	 1.9690361183	 1.2343862286	 0.108471
H	 0.4678345188	 2.088568633	-0.5295763156	 0.128732
H	-0.8109197584	 1.4075442267	 0.5084381004	 0.113584
H	 1.1194029535	-0.2012512932	 2.1219445911	 0.070391
H	-1.2451566561	-1.0029029402	 2.3258698123	 0.095726
H	-1.2458562393	-1.4180851246	 0.5890379824	 0.112456
H	 0.3469961516	-2.9116960528	 2.7705993024	 0.106718
H	-0.2686519844	-3.6051098938	 1.254134955	 0.105186
H	 1.7453582994	-3.4865712439	-0.6731740929	 0.109039
H	 2.0274992628	-1.7304012049	-1.1035756603	 0.124703
H	 3.2231423301	-3.1983444416	 1.3769605233	 0.101901
H	 3.3100187948	-0.4841433732	 0.5743435167	 0.289385
