17
gdb 38629	3.50666	1.99545	1.68673	1.3056	69.98	-0.2429	0.0661	0.3091	828.4527	0.139194	-421.749509	-421.743837	-421.742893	-421.779153	25.025	
C	 0.010129216	 1.5044451104	 0.0304939316	-0.241178
C	 1.5366489511	 1.6753837395	-0.0068969725	 0.020374
O	 1.9176016417	 1.0441489538	-1.3047544629	-0.358712
C	 1.5696004356	-0.1460583642	-0.6167396474	 0.405913
C	 1.8573360471	-1.6249538954	-0.6018546676	-0.170846
O	 1.3399885649	-1.8571499251	 0.7423621295	-0.299822
C	 0.8357758974	-0.5535444817	 1.1933353798	 0.076233
C	 0.0768599473	-0.0245409623	-0.0254067689	-0.109885
C	 1.9720970606	 0.3931409285	 0.7737611882	-0.103988
H	-0.4475112836	 1.9041844571	 0.940072396	 0.104982
H	-0.4676726634	 1.9485416445	-0.8457049833	 0.114886
H	 1.9998402482	 2.6504042325	 0.1304972137	 0.088835
H	 1.2968004839	-2.2239506548	-1.3269071613	 0.11125
H	 2.920203193	-1.8826256233	-0.6462743291	 0.114837
H	 0.4264917846	-0.6849355827	 2.1938824245	 0.081749
H	-0.7499170109	-0.5970811082	-0.4408997005	 0.076954
H	 2.9932365266	 0.2959117914	 1.1350536703	 0.088418
