18
gdb 118808	2.42669	1.09932	0.84601	3.4936	74.26	-0.2708	-0.0032	0.2675	1386.2052	0.14455	-439.065397	-439.055486	-439.054542	-439.100777	34.541	
C	 0.0128922901	 1.3757162923	 0.2613956708	-0.228699
O	-0.0011641306	-0.0344054408	 0.2510827742	-0.237853
C	-1.2370700949	-0.5653764234	-0.1634704506	-0.124465
C	-1.1364268271	-2.0759935667	-0.1265792578	 0.37924
C	 0.0540129324	-2.6860608047	-0.8276313914	-0.464603
O	-1.4928284678	-2.6835784444	 1.1233824347	-0.260401
C	-2.3768561561	-2.8749354519	 0.0200272854	-0.1679
C	-3.6862881227	-2.2618490858	 0.1098801387	 0.306687
N	-4.7407699374	-1.7901794731	 0.1534777083	-0.332326
H	 1.0056804979	 1.6871102495	 0.5931082161	 0.133701
H	-0.1769083223	 1.7911618252	-0.7406227964	 0.10872
H	-0.7399774206	 1.7839609432	 0.9523882243	 0.115899
H	-2.0540556897	-0.232212017	 0.492736643	 0.117619
H	-1.4782644127	-0.2398382935	-1.1909567306	 0.099131
H	 0.9738553991	-2.300325522	-0.3831505209	 0.159559
H	 0.0416523728	-3.7742943333	-0.7351293756	 0.12976
H	 0.0528465121	-2.4187965989	-1.889176574	 0.130102
H	-2.3937985427	-3.8815938446	-0.3951622583	 0.135829
