12
gdb 21573	7.75241	1.26819	1.09083	6.371	59.97	-0.2343	-0.0646	0.1697	988.7487	0.0837	-414.656944	-414.649902	-414.648958	-414.688346	25.263	
N	 0.0218322724	 1.3821242935	 0.15512783	-0.594281
C	-0.0839437307	 0.0210085399	 0.0554044801	 0.506507
C	-1.1378549447	-0.8512121262	 0.0354271424	-0.440556
C	-0.5005728853	-2.1207265171	-0.0030433018	 0.309205
C	-1.1848436101	-3.4381949295	-0.0363849541	 0.099092
O	-0.6353961744	-4.508340378	-0.0730369633	-0.236983
N	 0.814338021	-2.0327504227	-0.0078814332	-0.190051
O	 1.0737435511	-0.6591903485	 0.0279068132	-0.199955
H	 0.9064282253	 1.7612300153	-0.1508271008	 0.274054
H	-0.7744130838	 1.9043748586	-0.1757751689	 0.271542
H	-2.1913787653	-0.6299367039	 0.0526745978	 0.121247
H	-2.2942488554	-3.3526288413	-0.0250236414	 0.080179
