21
gdb 99034	4.64796	0.7393	0.64802	1.1795	86.41	-0.2384	-0.0063	0.2321	1780.9535	0.179733	-420.457667	-420.44633	-420.445385	-420.496429	38.405	
C	 0.5880936221	 1.1250201479	-0.4072724887	-0.369662
C	-0.407384531	 0.4240611675	 0.5131573082	-0.306219
C	-1.4132738047	-0.432885731	-0.2566523507	 0.424584
O	-1.4030800326	-0.5312609213	-1.4677615892	-0.361386
N	-2.317810677	-1.0704417072	 0.5663274479	-0.366027
C	-3.3856115547	-1.935105666	 0.2626773222	 0.377022
C	-3.6313011303	-2.2550330676	-1.1877291745	-0.464497
N	-4.0277180026	-2.3496760355	 1.2810142584	-0.285826
C	-5.1563791631	-3.249292252	 1.1234943973	-0.320683
H	 1.2903102269	 1.7269859656	 0.176119814	 0.109006
H	 1.1554064718	 0.3980338414	-0.9931455132	 0.133879
H	 0.0715760851	 1.7791606744	-1.1136123445	 0.133854
H	 0.1135836673	-0.21946183	 1.2342811135	 0.124419
H	-0.9648827623	 1.1544142869	 1.1142583677	 0.124394
H	-2.237316567	-0.9197322421	 1.5629838585	 0.249255
H	-4.4801276719	-2.9305874536	-1.2889708313	 0.121279
H	-3.818848629	-1.342113473	-1.7573819976	 0.15784
H	-2.7454547974	-2.7086166146	-1.6378572516	 0.157873
H	-4.8781863992	-4.201856984	 0.6516928698	 0.11917
H	-5.5601271621	-3.4798812397	 2.1129148446	 0.12255
H	-5.9704359983	-2.8101632963	 0.5303204291	 0.119173
