21
gdb 103452	2.5385	1.57766	1.31553	0.8817	83.71	-0.216	0.0249	0.2409	1091.3083	0.182031	-387.080164	-387.071293	-387.070348	-387.113274	34.214	
C	 0.2145783908	 1.1573261749	-0.2908103799	-0.244952
O	-0.1916015853	-0.0943380702	 0.2261100816	-0.271728
C	 0.6263629671	-0.6113437493	 1.2324872304	 0.440332
C	 0.4820802606	 0.072586283	 2.5768652931	-0.460675
C	 0.8051224538	-2.0991939892	 1.213163894	-0.132249
C	 0.4409939945	-2.8469770289	-0.0721641039	-0.271912
C	 1.4318428062	-2.3277790426	-1.0905056711	-0.067881
C	 2.2877405295	-1.4519645433	-0.5591053857	-0.075531
C	 1.998926618	-1.1910549101	 0.8773771531	-0.169841
H	 1.2424715744	 1.1167968331	-0.6755939317	 0.108592
H	-0.4645900212	 1.3947139112	-1.1132181217	 0.123855
H	 0.1495753955	 1.9590834042	 0.458083476	 0.105111
H	-0.562338666	 0.0476270684	 2.9053600041	 0.123614
H	 1.0925465763	-0.4282178125	 3.3334944704	 0.117857
H	 0.8015293833	 1.1193469864	 2.5363610732	 0.117385
H	 0.7475528474	-2.6270830072	 2.1586948307	 0.081403
H	 0.523257808	-3.9334294513	 0.0602381814	 0.099757
H	-0.5921449681	-2.6401356516	-0.3773891012	 0.121402
H	 1.4064810907	-2.6288408195	-2.1317930696	 0.089304
H	 3.0876774306	-0.9515226173	-1.0931026659	 0.088668
H	 2.8129041038	-1.0167024982	 1.5744433528	 0.077491
