18
gdb 70848	2.95553	1.90683	1.45923	0.5561	73.79	-0.241	0.0693	0.3103	947.1064	0.146901	-401.869117	-401.861685	-401.860741	-401.900439	30.038	
C	 0.0182053457	 1.4304508586	-0.1216891803	-0.52176
C	-0.0485418764	-0.0631594248	-0.0534435834	 0.43847
O	 0.4895271159	-0.7704561407	-1.1999768631	-0.355522
C	-0.2866959444	-1.9099780586	-0.7491281492	 0.438481
C	-0.5486637758	-2.9653614851	-1.7774881068	-0.521763
C	 0.2074889842	-2.2436769326	 0.6896879938	-0.107044
C	 0.3850272885	-0.8664269758	 1.2085173847	-0.107056
N	-0.936636083	-1.5610443461	 1.3868934968	-0.186562
C	-1.2923096751	-0.9950358978	 0.0062096115	-0.155595
H	 1.0610888893	 1.7650814782	-0.1388301765	 0.134408
H	-0.4752133036	 1.7999954039	-1.0247677647	 0.132087
H	-0.4695528342	 1.8729154587	 0.7521130062	 0.132888
H	 0.391135687	-3.4299262367	-2.0950323714	 0.134398
H	-1.1947220174	-3.7460192465	-1.3646953576	 0.132895
H	-1.0339023414	-2.5365818537	-2.6585482598	 0.132093
H	 0.6786539786	-3.1354304453	 1.0847477416	 0.097185
H	 1.0079918797	-0.5804943965	 2.0472368967	 0.097187
H	-2.3190650477	-0.7593719692	-0.2678930484	 0.085211
