19
gdb 126852	2.15903	1.52385	0.96211	5.6022	79.01	-0.211	0.0169	0.2279	1257.9884	0.16022	-415.383947	-415.374686	-415.373742	-415.418672	33.148	
C	 0.0019869221	 1.5269154313	 0.0586557925	-0.382028
C	 0.0275259848	 0.0005025982	-0.0547001729	-0.159002
N	 0.7497770683	-0.4717043825	-1.2208767191	-0.023797
N	 0.0959172599	-0.698352922	-2.3971770272	-0.167146
N	 0.9758077727	-1.108710168	-3.2558308576	-0.18962
C	 2.2061495639	-1.1394053519	-2.6718054103	-0.156751
C	 2.0766471276	-0.7271703602	-1.3588207787	 0.384555
N	 2.9711712356	-0.6352832164	-0.3046111631	-0.398289
C	 4.368717196	-0.9152231924	-0.6064628316	-0.327513
H	 1.0106462037	 1.9438387812	 0.1494780298	 0.115016
H	-0.4661226269	 1.9640035574	-0.8269167263	 0.151607
H	-0.5689874421	 1.8295109162	 0.9414946273	 0.126309
H	 0.4873480511	-0.4552164306	 0.8287916527	 0.12541
H	-0.9877959909	-0.3918421637	-0.1446139308	 0.146983
H	 3.0856963863	-1.451740981	-3.2089730737	 0.111706
H	 2.8520037942	 0.1984943272	 0.2548561403	 0.242736
H	 4.9543926499	-0.8213335204	 0.3104866678	 0.130475
H	 4.4610948492	-1.9445978284	-0.9648736532	 0.146635
H	 4.7949287345	-0.2467492039	-1.3694729557	 0.122715
