21
gdb 81047	2.38404	1.4415	1.16781	2.8517	83.66	-0.2345	-0.0142	0.2203	1171.624	0.181433	-387.065089	-387.055915	-387.054971	-387.099533	34.495	
C	-0.2416449069	 1.5071870672	-0.0629434024	-0.44744
C	 0.0271795038	 0.0120816972	 0.0012629169	 0.026469
C	 1.2588753295	-0.6425260602	-0.7025038377	-0.069108
C	 2.1632180641	-0.0744022465	 0.4290341984	-0.283494
C	 0.8990115102	-0.6535199958	 1.1455864787	 0.263801
C	 1.0226020682	-1.8833665063	 0.2069060647	-0.257516
C	 0.5705512047	-0.6833586278	 2.6109497543	 0.2366
C	 0.8342002593	 0.5887617125	 3.396467691	-0.494029
O	 0.1087478988	-1.6772095175	 3.1277187855	-0.29699
H	 0.6425423159	 2.1220052866	 0.122158703	 0.119347
H	-0.6250727472	 1.7740858075	-1.0542370331	 0.122705
H	-1.0079719421	 1.7949167292	 0.6654298198	 0.122096
H	-0.9057421693	-0.5370763062	-0.1691588984	 0.075988
H	 1.4741659157	-0.6454733054	-1.7720821209	 0.072628
H	 3.0974958128	-0.6106455902	 0.6166490074	 0.0975
H	 2.3228107697	 1.003783579	 0.4619906778	 0.095152
H	 0.1104990069	-2.4588867757	 0.0353311748	 0.101153
H	 1.8832988147	-2.5329048471	 0.3820994657	 0.094409
H	 0.3447865045	 1.4462074931	 2.9215207339	 0.138595
H	 0.4753037886	 0.4737041518	 4.4200438375	 0.139836
H	 1.9087021781	 0.8054179045	 3.406603723	 0.142296
