17
gdb 17685	4.32864	1.39482	1.33648	3.302	64.83	-0.229	0.0562	0.2852	975.1186	0.141565	-400.943118	-400.935122	-400.934178	-400.97533	30.504	
O	-0.1371337517	 1.3836567051	-0.0577030727	-0.430558
C	 0.0040864412	-0.010905168	 0.0174818961	 0.013948
C	-0.4352309165	-0.7355944	 1.2727118125	-0.388435
C	-1.3080558518	-0.7527751919	 0.0299630266	 0.407161
O	-2.453504323	 0.0480093831	 0.0279302834	-0.480118
C	-1.4798600373	-2.0145813905	-0.7558173406	-0.038012
C	-2.8078962989	-2.669282355	-0.8329704585	-0.244428
N	-2.23807548	-1.9892466383	-2.0133888307	-0.32851
H	 0.3812660362	 1.7873685459	 0.6457924702	 0.297937
H	 0.8364821652	-0.4140508275	-0.5565339408	 0.102425
H	 0.1022153348	-1.6330537109	 1.5609865825	 0.119075
H	-0.8000569983	-0.1278401899	 2.0943716528	 0.117163
H	-2.1394848137	 0.959136953	-0.0689765799	 0.295284
H	-0.5868256415	-2.6362714422	-0.7855230871	 0.083111
H	-2.8756408605	-3.7505076723	-0.9128982223	 0.111997
H	-3.6312491642	-2.1880609249	-0.3146900971	 0.127245
H	-2.6778712999	-1.0732518958	-2.0881326045	 0.234715
