16
gdb 14235	4.79	1.71875	1.51815	0.9097	63.73	-0.242	0.0751	0.317	840.7025	0.130532	-383.675487	-383.668674	-383.66773	-383.705922	27.579	
O	 0.1718386991	 1.2961972682	 0.1660163235	-0.444924
C	 0.0811833158	-0.0994529274	-0.0143651295	 0.160576
C	-1.3448305227	-0.6341008792	-0.1185476365	-0.187492
C	-1.3215786052	-0.5222892067	-1.6432020736	-0.156706
C	 0.2565900131	-0.5814471121	-1.4853376069	-0.105741
C	 0.1575919858	-2.1311421424	-1.400471239	-0.303832
C	-1.3009424789	-1.8842836624	-1.0188996825	 0.397221
O	-2.3407121045	-2.7887519288	-1.049544048	-0.462781
H	-0.4933464719	 1.7035282768	-0.4021727162	 0.278274
H	 0.7557642456	-0.5356499114	 0.7305235987	 0.078363
H	-2.1845084484	-0.4674377952	 0.5457399931	 0.088633
H	-1.9979747803	-0.0716181449	-2.3540206304	 0.099581
H	 0.9847751923	-0.0948028047	-2.1305184959	 0.078632
H	 0.2284266241	-2.6031171316	-2.3845273269	 0.106608
H	 0.8204881993	-2.6423873878	-0.6914700096	 0.086659
H	-2.3437564933	-3.2791614702	-0.2199097202	 0.286927
