18
gdb 31542	3.2574	1.06309	0.85063	1.4181	77.02	-0.1675	0.0575	0.2251	1363.5469	0.147938	-435.276628	-435.266656	-435.265711	-435.311948	35.744	
C	-0.780926709	 0.8411980637	 0.0154223325	-0.324045
N	 0.5393007642	 0.2118322177	-0.1191988718	-0.386497
C	 1.0014171143	-0.4827735148	 1.0149130823	 0.313499
C	 1.8418741974	-0.1153271481	 2.0521052523	-0.376816
C	 1.9757705961	-1.2536674206	 2.8967540399	 0.28662
O	 2.7100284468	-1.380138576	 4.0470245243	-0.460081
C	 1.2134731517	-2.2767458492	 2.3779216702	 0.160327
N	 0.9574905608	-3.6029690104	 2.7900835065	-0.616394
N	 0.6273555699	-1.779281123	 1.2232988983	-0.285701
H	-0.8384000359	 1.5789148471	 0.8309177219	 0.106899
H	-1.0399878884	 1.33470681	-0.9261219891	 0.116309
H	-1.5325364034	 0.0705306533	 0.2080162258	 0.126796
H	 1.2250948898	 0.9012758798	-0.4006368223	 0.230046
H	 2.2913451979	 0.8576167838	 2.1902761439	 0.075931
H	 3.1162930401	-0.5309379805	 4.2393617358	 0.292649
H	 0.6276225774	-3.6320024376	 3.7498915499	 0.2425
H	 1.7967667388	-4.1744182064	 2.7555981477	 0.241053
H	 0.0748683914	-2.3334510787	 0.5917592819	 0.256904
