17
gdb 127571	3.34	1.28608	0.93949	2.8	85.94	-0.2167	0.007	0.2237	1220.2806	0.135275	-380.874579	-380.865381	-380.864436	-380.908871	32.957	
C	 0.0085895422	 1.4185760542	-0.0300029363	-0.329139
N	 0.0059341688	-0.0276432951	 0.0284878387	-0.010141
N	-0.0285827862	-0.7418802793	-1.1236154713	-0.262701
C	-0.0220819639	-2.0076258827	-0.7367103751	-0.109013
C	 0.016839232	-2.1278800222	 0.6766369978	-0.001566
C	 0.0346821283	-3.3004583664	 1.462372403	 0.247024
C	 0.0499537644	-4.300828637	 2.1345422684	-0.461042
C	 0.034119662	-0.8106749054	 1.134774157	 0.263269
C	 0.0750456405	-0.2768857706	 2.5257610683	-0.518417
H	 0.9112988298	 1.8291503799	 0.4336324308	 0.140519
H	-0.0158536186	 1.6974180128	-1.0824631717	 0.166774
H	-0.8685143135	 1.8344237365	 0.4762222746	 0.140539
H	-0.0450796857	-2.8022328722	-1.467036369	 0.119161
H	 0.063319243	-5.1849893783	 2.7215553598	 0.183692
H	 0.9689078762	 0.3323291323	 2.7044968604	 0.137472
H	-0.7974290377	 0.3477902214	 2.7505636047	 0.137291
H	 0.0863281983	-1.1106053878	 3.2303224901	 0.156277
