17
gdb 43745	4.35124	0.9537	0.88332	2.9894	79.13	-0.2428	-0.0106	0.2322	1308.6155	0.134133	-384.64796	-384.639502	-384.638558	-384.681549	32.	
O	 0.2257552494	 0.005118115	-0.1244294362	-0.316734
C	 0.1125737281	 1.1884071398	 0.0255289913	 0.430253
C	-1.1217349302	 2.128731539	 0.0954592017	-0.413171
C	-0.1386248543	 3.3072779722	-0.0328234494	 0.368858
C	-0.3547270932	 4.5045389364	-0.9291194596	-0.469927
C	-1.4012108656	 5.3928393365	-0.4277514853	 0.311683
C	-2.2702200291	 6.103159694	 0.0011175536	-0.448643
C	 0.779064055	 3.2908446129	 1.1326935934	-0.313913
C	 1.0762331798	 2.3343495627	-0.0236341435	-0.241874
H	-1.7524499729	 1.9778226903	-0.7861715414	 0.132564
H	-1.7466009	 2.0998756708	 0.9922148666	 0.124585
H	 0.5853714547	 5.062169249	-1.0278839251	 0.134967
H	-0.6187163291	 4.1657598251	-1.9398031042	 0.137985
H	-3.0353324868	 6.7388934688	 0.3726308416	 0.200991
H	 1.4855036649	 4.1125318527	 1.2024804843	 0.127286
H	 0.4542266753	 2.9024491341	 2.0939851815	 0.125148
H	 2.021297214	 2.3718646707	-0.5521470593	 0.109941
