19
gdb 30097	3.62487	1.21674	1.02785	2.4031	83.52	-0.1724	0.0582	0.2305	1202.074	0.160499	-382.07549	-382.067094	-382.066149	-382.108907	32.241	
C	-0.586880637	 1.3640099185	-0.0731849516	-0.407288
C	-0.1288619525	-0.0720081014	 0.0152797526	 0.023754
C	 1.2349772022	-0.461785742	-0.4403604333	-0.267827
N	 0.8850112397	-0.5166328048	 0.9816332847	-0.172661
C	 1.4755703913	 0.3808245356	 1.8825425318	 0.338767
C	 0.9359425287	 1.1196551047	 2.9145607144	-0.233382
C	 2.0215171838	 1.7449212677	 3.5972192815	-0.132068
C	 3.1834260295	 1.3677269816	 2.9740568574	-0.105317
N	 2.839457004	 0.5418580711	 1.9223325503	-0.291518
H	 0.2473521889	 2.061778229	 0.0286355816	 0.134722
H	-1.0693509758	 1.5370945583	-1.0409992181	 0.119928
H	-1.3136979861	 1.5973610832	 0.7114009161	 0.128787
H	-0.9227201205	-0.8070450077	-0.1056335935	 0.09582
H	 1.4173172514	-1.4216491792	-0.9159377978	 0.117152
H	 1.8859538509	 0.3465159003	-0.7710932383	 0.112807
H	-0.1132202116	 1.1913006669	 3.153110327	 0.084192
H	 1.9475179545	 2.4022275388	 4.4501065947	 0.087982
H	 4.2142983175	 1.6113017572	 3.1713619861	 0.109137
H	 3.4832572212	 0.0589733322	 1.3207039246	 0.257011
