18
gdb 9393	5.46422	0.81391	0.73527	3.5889	70.03	-0.2586	0.0258	0.2844	1508.3585	0.152964	-381.11555	-381.105915	-381.10497	-381.150753	32.834	
C	 0.0343825383	 1.3796654803	 0.0275040978	-0.229535
O	 0.0103666542	-0.0276227945	 0.04481422	-0.23285
C	-1.2954946283	-0.5543046486	-0.0211820461	-0.056611
C	-1.1780834933	-2.0746767194	-0.0229179324	-0.192646
C	-2.550250752	-2.7701329126	-0.0316791289	-0.136961
N	-3.3052774877	-2.4231517927	-1.239303571	-0.493474
C	-2.3834564683	-4.2305752458	 0.1442764229	 0.25734
N	-2.2772144369	-5.3780757707	 0.2397646719	-0.32031
H	 1.0811168556	 1.6893207416	 0.0744596009	 0.129168
H	-0.4165360849	 1.7854398396	-0.8919235957	 0.105436
H	-0.5020153915	 1.8084684259	 0.8890152113	 0.104375
H	-1.8926978574	-0.2198832967	 0.8464172304	 0.082732
H	-1.8176068365	-0.2061797757	-0.9242721755	 0.10977
H	-0.5992499499	-2.3952985505	-0.8966636241	 0.120774
H	-0.6173814848	-2.3921949271	 0.861357932	 0.131023
H	-3.1290313812	-2.4100519158	 0.8283140871	 0.133155
H	-2.835333455	-2.8043862936	-2.0563596022	 0.242526
H	-4.2262558205	-2.8503620437	-1.2118742686	 0.246087
