20
gdb 108309	2.82888	1.34529	1.08966	2.5305	74.95	-0.2262	0.0628	0.289	1176.571	0.170829	-440.23643	-440.227588	-440.226644	-440.270015	33.634	
C	 0.3349683635	 1.4964500614	-0.1558271466	-0.409572
C	 0.0859812587	 0.0198226624	 0.0375801223	 0.164311
O	 0.9093314073	-0.8210236639	-0.8352162669	-0.371505
C	 1.3039046542	-1.6733371052	 0.271332035	 0.441115
C	 0.9693683887	-3.1128271996	-0.0311375766	-0.154372
O	 1.6008218602	-3.5134435076	-1.2345168936	-0.418981
C	 2.6662630906	-1.260562384	 0.8695435076	-0.215658
N	 1.9830708802	-0.2089473632	 1.6835904996	-0.3172
C	 0.6442687599	-0.7052787047	 1.2841414641	-0.162582
H	 1.3603136891	 1.745738661	 0.1243565058	 0.142122
H	 0.1661472457	 1.7730181973	-1.2011715615	 0.122742
H	-0.3531453373	 2.0801034392	 0.465802496	 0.111668
H	-0.9737325351	-0.2262192373	-0.1225495866	 0.072893
H	 1.3349971224	-3.7756551722	 0.7602694429	 0.10435
H	-0.1251955517	-3.2289590032	-0.0907955287	 0.086325
H	 1.3629108945	-2.8438756844	-1.8885246971	 0.295801
H	 3.1260533	-2.0612855463	 1.462446473	 0.097477
H	 3.3987287586	-0.8680854047	 0.158621282	 0.115581
H	 2.1612097649	-0.2827427373	 2.6770202402	 0.223521
H	-0.0455823344	-0.9835549775	 2.0828634791	 0.071963
