17
gdb 8462	3.0197	2.01381	1.50503	3.9097	69.85	-0.2295	-0.0106	0.2189	894.4914	0.140635	-363.848659	-363.840552	-363.839608	-363.880798	30.261	
C	-0.0213243184	 1.5294278371	 0.0608697931	-0.503936
C	 0.1103310974	 0.0404637569	-0.0012629459	 0.277482
C	 0.5911489892	-0.7933846523	-1.2027707732	-0.393541
C	 1.2830399408	-1.7179557092	-0.1610813149	 0.41686
O	 2.120984316	-2.5691873856	-0.244039109	-0.313138
C	 0.7267836405	-0.9231240305	 0.9984205069	 0.151109
C	 1.3081713865	-0.7621857376	 2.3666970156	-0.515969
N	-0.7622679115	-0.8753144819	 0.7490556355	-0.393245
H	 0.8642882378	 2.0206778002	-0.3550360245	 0.132043
H	-0.891461625	 1.8697812428	-0.5122595254	 0.137368
H	-0.147506372	 1.8731597593	 1.0935042274	 0.12106
H	-0.1930895422	-1.2340244133	-1.8219258847	 0.128315
H	 1.3393866257	-0.3002782856	-1.8305505243	 0.124413
H	 2.3973670199	-0.6711471038	 2.3146292357	 0.141213
H	 0.9125158567	 0.1303861178	 2.8640568981	 0.119549
H	 1.0766161875	-1.6284257325	 2.995725168	 0.144239
H	-1.142920739	-0.3540779818	 1.5422060316	 0.22618
