20
gdb 94992	2.63797	1.73767	1.49018	0.6705	76.16	-0.2286	0.06	0.2886	975.3614	0.174332	-403.108377	-403.100993	-403.100048	-403.139885	30.261	
O	 0.1127141228	 1.3779445617	-0.2557878684	-0.440701
C	 0.089404654	-0.0241678773	 0.0023249037	 0.122783
C	 0.8655380267	-0.4017794761	 1.2737831051	-0.247725
C	 0.0985400576	-0.0990078802	 2.5840087689	-0.246952
C	-1.4208276627	-0.1023829674	 2.493794483	 0.009421
C	-2.147348756	 0.131825988	 1.2285865288	-0.09639
C	-1.3576279805	-0.5247486865	 0.0820406027	-0.054243
C	-1.6199989078	-1.8641564484	 0.8219544492	-0.177523
N	-2.2979255996	-1.1818395245	 1.9790180802	-0.155507
H	-0.4025286622	 1.808752788	 0.4355502756	 0.283454
H	 0.593607438	-0.4709169563	-0.8615301919	 0.083781
H	 1.1134373147	-1.4664132742	 1.2241922364	 0.105092
H	 1.8182234984	 0.1358188958	 1.26886726	 0.105892
H	 0.4233413734	-0.7861846783	 3.3737042074	 0.111597
H	 0.3715137876	 0.9031593256	 2.9394809941	 0.109628
H	-1.8919243201	 0.3277297579	 3.375416955	 0.097126
H	-2.9770778514	 0.8229929308	 1.1189110013	 0.093337
H	-1.8459878964	-0.4512960675	-0.8903981934	 0.082632
H	-2.3607632096	-2.484669554	 0.3128889768	 0.112316
H	-0.7689242468	-2.4939861572	 1.0949778256	 0.101981
