14
gdb 1325	5.31189	1.89492	1.67309	4.0657	58.67	-0.2939	-0.0007	0.2932	767.8302	0.111446	-324.578381	-324.570922	-324.569978	-324.609576	26.587	
C	-0.0989021073	 1.5402044123	 0.0068842415	-0.459009
C	-0.0520831305	 0.0309751656	 0.0571658247	 0.398225
C	-1.213871931	-0.6981618725	-0.580119159	-0.453138
O	 1.2350342906	-0.5520842748	-0.1954680855	-0.264001
C	 0.7079422695	-0.6653321061	 1.1274839299	-0.156224
C	 1.398421798	 0.061478863	 2.1713403922	 0.304786
N	 1.9323674566	 0.6294335957	 3.0249565403	-0.330131
H	 0.7740771007	 1.9816450083	 0.4905676787	 0.153863
H	-0.1253562097	 1.8740854181	-1.0353646524	 0.134541
H	-1.0005523165	 1.9128134284	 0.5031667964	 0.132981
H	-1.2959869654	-0.4193289543	-1.6357047252	 0.137513
H	-1.0783761956	-1.7805791519	-0.5219604426	 0.134256
H	-2.1542897595	-0.4319476456	-0.0875183037	 0.133402
H	 0.4026182101	-1.6687796262	 1.4201548046	 0.132936
