17
gdb 43392	2.64371	1.57329	1.06799	4.0583	85.89	-0.2375	-0.0636	0.1739	1107.0001	0.137826	-384.712776	-384.705214	-384.70427	-384.745028	29.337	
O	 0.0476646787	 0.8295362728	 1.4773147154	-0.347912
C	-0.0339195675	 1.3942713177	 0.392434916	 0.333535
C	-1.381770002	 1.8175257185	-0.0620342726	-0.124138
C	-1.8489213894	 1.9689741221	-1.3051381678	-0.055512
C	-1.0373827428	 1.826289231	-2.5684820777	-0.328797
C	-0.2735750156	 3.1011616351	-2.8032723219	-0.057953
C	 0.8880761875	 3.3806477957	-2.1951213783	-0.071346
C	 1.6266434615	 2.5129160004	-1.2929669908	-0.075703
C	 1.2450535741	 1.6514205482	-0.3235630702	-0.166564
H	-2.0733264098	 1.8981949844	 0.7721754788	 0.11343
H	-2.8950399623	 2.2404154524	-1.4281587569	 0.107429
H	-0.3312475562	 0.9955101605	-2.4619968468	 0.130561
H	-1.6934799913	 1.6081119538	-3.4149831454	 0.111644
H	-0.6984724474	 3.8279997607	-3.4900493351	 0.105385
H	 1.3998719322	 4.3021147214	-2.4648157953	 0.102795
H	 2.7071235933	 2.5950968502	-1.4173477024	 0.110081
H	 2.0436797872	 1.1215982952	 0.1906535811	 0.113064
