25
gdb 118569	2.58569	0.76217	0.61797	2.0654	87.94	-0.2507	0.0839	0.3346	1908.0462	0.225908	-426.607755	-426.595805	-426.594861	-426.646144	41.07	
C	-0.1839767148	 1.3480793276	 0.4235832645	-0.384607
C	 0.0283296241	-0.1429019679	 0.1411907408	-0.168115
C	 0.6553304459	-0.4713176959	-1.228640662	-0.017735
C	 2.1563360224	-0.1827255493	-1.3072342061	-0.056307
O	 2.3880363048	 1.2100574997	-1.2736277988	-0.228067
C	 3.7545257092	 1.5361335206	-1.344242088	-0.229928
C	 0.4172566346	-1.9405091338	-1.5931202455	-0.069373
O	-0.9710304333	-2.16854879	-1.7024901762	-0.231104
C	-1.2879245385	-3.5107714022	-1.9768758161	-0.227682
H	 0.7587482622	 1.8972399468	 0.4111509338	 0.130498
H	-0.8379210173	 1.7974540697	-0.3322443829	 0.110351
H	-0.6602440141	 1.4907987532	 1.3993453376	 0.099534
H	 0.6567705618	-0.5845000729	 0.9281298144	 0.081128
H	-0.9356681015	-0.6587067755	 0.1920997231	 0.111876
H	 0.1633035286	 0.1346827448	-2.000928216	 0.090609
H	 2.682091992	-0.6760003448	-0.4695294867	 0.081872
H	 2.5746586997	-0.603921901	-2.2389225369	 0.079029
H	 3.8337796999	 2.6257407517	-1.323227489	 0.127367
H	 4.3201720369	 1.121590529	-0.4943796553	 0.103035
H	 4.2150160345	 1.1638582234	-2.273611744	 0.102655
H	 0.9151216058	-2.1857445712	-2.5471922224	 0.081926
H	 0.8521206566	-2.6030657816	-0.8224493508	 0.080995
H	-2.376413492	-3.5844263193	-2.0399712366	 0.127005
H	-0.8536177127	-3.8477072328	-2.9319308881	 0.102258
H	-0.9309785249	-4.1867438881	-1.1832712228	 0.102781
