19
gdb 64844	3.26938	0.99342	0.87179	0.655	89.02	-0.2539	0.0328	0.2868	1375.0745	0.156407	-348.681674	-348.672184	-348.67124	-348.715663	36.474	
C	-0.1350527566	 1.5607799365	-0.0109217477	-0.447424
C	-0.0313445955	 0.0272906974	-0.00213257	 0.140372
C	 1.1492086378	-0.4954893915	-0.8929324782	-0.264745
C	 2.0490174296	-0.5785543858	 0.3806143199	-0.175333
C	 0.7513249652	-0.5101355683	 1.2465189543	-0.264744
C	 2.9205063985	-1.7238054568	 0.5348452089	 0.316441
C	 3.6291504075	-2.6876724453	 0.6600662213	-0.450178
C	-1.3283219816	-0.5799191689	-0.2474935103	 0.251908
C	-2.4015321397	-1.0841162716	-0.4505385944	-0.435921
H	 0.8422747399	 2.018404767	 0.1739687407	 0.116823
H	-0.5020553638	 1.9170352259	-0.9778856839	 0.127829
H	-0.826016671	 1.9051097995	 0.7640839456	 0.127829
H	 0.9405898927	-1.4865116802	-1.2974224475	 0.125061
H	 1.4835690608	 0.1637931488	-1.69705667	 0.109041
H	 2.6304550472	 0.3418686828	 0.4950483062	 0.105148
H	 0.7726258522	 0.1376233269	 2.1257349777	 0.109041
H	 0.4136794901	-1.5059074746	 1.5358161748	 0.125061
H	 4.2566414845	-3.5368495125	 0.7710932094	 0.193618
H	-3.3472020377	-1.5325424894	-0.6295028167	 0.190174
