18
gdb 29933	2.32038	1.6785	0.98586	2.7941	84.99	-0.221	-0.0383	0.1827	1182.2438	0.147553	-402.011754	-402.002588	-402.001644	-402.046592	32.471	
C	-0.0237903081	 1.4610381017	 0.0037320697	-0.320974
N	-0.0158055111	 0.0056467315	 0.0073637205	-0.058587
C	-0.0599929395	-0.7733395172	-1.0994408475	-0.080575
C	-0.0366566642	-2.1071329291	-0.7206509934	-0.25749
C	 0.0245432443	-2.1467597324	 0.6839841357	 0.221745
C	 0.068773054	-3.3831783966	 1.5346749248	-0.505971
C	 0.0371629703	-0.8161979198	 1.127144984	 0.123899
C	 0.0934886594	-0.3231984116	 2.4791551205	 0.066458
O	 0.1017998821	 0.8478262471	 2.8234946423	-0.329455
H	 0.8764261798	 1.8542179208	 0.4789676595	 0.15809
H	-0.0698432873	 1.7978175016	-1.0339883253	 0.12498
H	-0.8845019972	 1.8448226238	 0.553982374	 0.15802
H	-0.1051629053	-0.3257149122	-2.0808158239	 0.129237
H	-0.0614531626	-2.9549123171	-1.3884967981	 0.103326
H	 0.9836867673	-3.437423283	 2.134671275	 0.135659
H	-0.7765038922	-3.4356488538	 2.2293109327	 0.135576
H	 0.0342108002	-4.2769527254	 0.9062582722	 0.126618
H	 0.1292894799	-1.1353268783	 3.2369490072	 0.069445
