12
gdb 131703	4.29334	1.00968	0.82467	3.7138	62.98	-0.3067	-0.0804	0.2264	1266.6668	0.077547	-468.800801	-468.793001	-468.792057	-468.834073	26.762	
O	-0.0754560687	 1.4715296867	-0.1916773104	-0.395678
C	-0.0011173945	 0.1164331513	 0.1526132765	-0.173472
C	-1.3242257588	-0.5713459534	-0.0018698299	 0.402382
N	-2.3221905691	-0.1739003925	-0.7304083691	-0.356641
C	-3.2283218464	-1.1911990732	-0.5368736774	 0.265834
N	-2.823123605	-2.1559934531	 0.2550343964	-0.144912
O	-1.5457965035	-1.7395561386	 0.6146563869	-0.17682
C	-4.5196736197	-1.2170481256	-1.142778906	 0.279445
N	-5.5615452003	-1.2261169901	-1.6414093985	-0.305923
H	-0.6275277665	 1.5527730034	-0.9789035197	 0.309329
H	 0.7384406265	-0.438033391	-0.4505551874	 0.138366
H	 0.3232624061	 0.045676966	 1.1959431887	 0.158092
