19
gdb 74827	4.04402	1.09691	0.9742	3.1956	83.38	-0.2335	-0.0214	0.2121	1252.7715	0.158778	-385.913175	-385.904758	-385.903814	-385.946021	32.196	
C	-0.0392963627	 1.4829160631	-0.076476201	-0.487515
C	-0.0275623838	-0.0117148305	-0.0264943682	 0.318904
C	-0.0703422814	-0.8604228229	-1.0604722229	-0.18026
C	 0.0410861144	-2.2851544977	-0.6468940482	-0.088718
C	 1.3023856606	-2.6864795975	 0.0523326003	-0.314768
C	 0.1344327702	-2.2311176975	 0.9040262087	 0.249048
C	 0.047232455	-0.7597610791	 1.2948603532	-0.415796
C	-0.5903115518	-3.2593501801	 1.6799769074	 0.069083
O	-0.5292083222	-4.4510264703	 1.4811404909	-0.279072
H	 0.8789439514	 1.9041370264	 0.3523862362	 0.127853
H	-0.1311467488	 1.8501926945	-1.1020140704	 0.126624
H	-0.871651122	 1.893020733	 0.5099007771	 0.12641
H	-0.1505256729	-0.5652512665	-2.10107429	 0.094943
H	-0.5546117422	-3.0580510922	-1.1202654107	 0.110341
H	 1.5179218295	-3.7474450205	 0.1183371925	 0.140076
H	 2.15900411	-2.0240825211	-0.0177487703	 0.115433
H	 0.9037456775	-0.4330453616	 1.8994623541	 0.113983
H	-0.847372916	-0.5681364464	 1.9071505794	 0.108713
H	-1.2407603649	-2.8491044129	 2.4870810519	 0.064717
