17
gdb 35212	3.76304	1.15613	0.99939	1.7395	79.9	-0.2467	0.0194	0.2661	1194.3424	0.134635	-384.647114	-384.638974	-384.63803	-384.680343	31.114	
C	-0.0406083823	-1.1951944766	-0.03872226	-0.419731
C	 0.0101931432	 0.0060673574	-0.0288229034	 0.342322
C	 0.0617782898	 1.4429828283	-0.0532728911	-0.257021
O	 0.5102757895	 2.1188598887	 1.1354117149	-0.274592
C	 1.3436585703	 2.1815896903	-0.0211131471	 0.429698
C	 2.7096136772	 1.4894174654	 0.0498027291	-0.345374
C	 3.6484178108	 2.5368999915	-0.4922018512	-0.063791
C	 3.014735356	 3.6401367307	-0.8881429787	-0.066882
C	 1.5224526418	 3.5518101532	-0.6904885127	-0.343494
H	-0.0878364788	-2.2563042439	-0.0374255661	 0.202074
H	-0.7874288799	 1.9244039235	-0.5394531784	 0.109666
H	 2.9339203627	 1.2047884184	 1.0845006799	 0.128502
H	 2.7277296926	 0.5630141775	-0.5382060699	 0.123262
H	 4.7198657913	 2.3804042401	-0.5439751323	 0.096578
H	 3.4902873239	 4.5173857163	-1.3116592351	 0.096622
H	 0.974784854	 3.6224519974	-1.6394224689	 0.114484
H	 1.126980028	 4.3410146318	-0.039377549	 0.127679
