22
gdb 116558	2.94857	0.93735	0.82406	2.3445	86.62	-0.2431	0.0334	0.2765	1545.3443	0.192532	-404.362264	-404.351887	-404.350943	-404.398597	37.16	
C	 1.0594251024	 0.0826459422	-0.0414060854	-0.359125
C	-0.4249490719	 0.3966089066	-0.2304607143	-0.146705
N	-1.2207098003	-0.8222492168	-0.1047608062	-0.3402
C	-2.1074992582	-1.0687048061	-0.9514972625	 0.46387
O	-2.5140641764	-0.3527740925	-2.067011608	-0.286716
C	-3.4779666502	-1.3969071169	-2.4395070989	 0.136129
C	-3.189066509	-1.9610379325	-3.8135245451	-0.400774
C	-3.0874289701	-2.2042337896	-1.1653325203	-0.174901
C	-2.5156257724	-3.6124669374	-1.2723004485	-0.406864
H	 1.6558312992	 1.0002138624	-0.0714762146	 0.105589
H	 1.2270735793	-0.4121562293	 0.9195749743	 0.122327
H	 1.4193189691	-0.5850108659	-0.8305813374	 0.113952
H	-0.7489442712	 1.0897711309	 0.5572146235	 0.105153
H	-0.5872505776	 0.9043102241	-1.1905509012	 0.107049
H	-4.4892242237	-0.9793750466	-2.3976485275	 0.089561
H	-2.1681655829	-2.3451417393	-3.8829662589	 0.128921
H	-3.8846573537	-2.7742402201	-4.0459649774	 0.123288
H	-3.3119225876	-1.1818689925	-4.5716554067	 0.13254
H	-3.8875435558	-2.1843360312	-0.4188581891	 0.103684
H	-1.7019003219	-3.6701473833	-1.9999583667	 0.124313
H	-2.1115197353	-3.9167924675	-0.3028802489	 0.141721
H	-3.2879804618	-4.3325996886	-1.5606166403	 0.117192
