19
gdb 113587	2.73198	1.32882	1.10228	0.1805	72.05	-0.2225	0.0782	0.3006	1165.3871	0.158251	-460.124391	-460.115523	-460.114579	-460.158826	32.044	
C	 0.5508267468	 1.0128954665	-0.2362303595	-0.244949
O	-0.2448137518	 0.0388830092	 0.4197237404	-0.234509
C	 0.4790984112	-0.6858131383	 1.3612364549	 0.042069
C	-0.0865497927	-2.019704049	 1.7842335868	-0.399881
C	 1.1640630101	-1.9682278152	 0.9610384563	 0.383977
C	 1.2731449181	-2.427544008	-0.472821969	-0.177767
O	 2.6672264796	-2.2579188086	-0.7220162349	-0.246177
C	 3.3024242724	-2.5903217677	 0.4881834856	 0.019637
O	 2.3995128611	-2.3067300891	 1.5521314722	-0.297086
H	 1.4137689944	 0.557674868	-0.7414359166	 0.123204
H	-0.0866253084	 1.5040201501	-0.9748825125	 0.127774
H	 0.9221789371	 1.7675666013	 0.4728703971	 0.111306
H	 0.9756682278	-0.0906605151	 2.1297472259	 0.093285
H	-0.0007656003	-2.2926987911	 2.829866921	 0.129118
H	-0.9945546906	-2.3518135308	 1.2905785604	 0.128411
H	 0.9785790081	-3.4827122616	-0.5851770591	 0.100551
H	 0.7076441417	-1.8138826305	-1.1745417256	 0.133474
H	 3.5602475719	-3.6622684973	 0.5263485884	 0.093198
H	 4.2100096435	-1.9828973427	 0.5807900585	 0.114365
