25
gdb 120486	3.43522	0.84407	0.75863	0.9086	90.25	-0.2405	0.0808	0.3213	1661.9594	0.227255	-389.486727	-389.47597	-389.475026	-389.522828	39.618	
C	-0.0357528629	 1.1772397477	 0.9799855339	-0.385153
C	-0.2903891031	-0.0794049213	 0.1646323325	-0.037032
O	 0.8929924967	-0.408388586	-0.5368572121	-0.253605
C	 0.7916062679	-1.5790405738	-1.3012063194	 0.169058
C	-0.0137557277	-1.5570551347	-2.6297348216	-0.279774
C	 1.1233122957	-2.4069532412	-3.2644016098	 0.042254
C	 1.5086634627	-2.1614962057	-4.7158091881	-0.409642
C	 2.0696541852	-1.9535333214	-2.0981616526	-0.060955
C	 2.9846089548	-0.7685276695	-2.3995310536	-0.385358
H	 0.7783951856	 1.0139583472	 1.6919131297	 0.125087
H	 0.2440869806	 2.0081820196	 0.3260982699	 0.125192
H	-0.9339983909	 1.4606457036	 1.5368762712	 0.112468
H	-0.5831890429	-0.9156439597	 0.8226769075	 0.083044
H	-1.1228197858	 0.0807866016	-0.5396487651	 0.089123
H	 0.4623699931	-2.4169964875	-0.6655253281	 0.057893
H	-1.0269366306	-1.9668180184	-2.6352912017	 0.089701
H	-0.0371824096	-0.5447221552	-3.0462777032	 0.101917
H	 0.8923478265	-3.470185005	-3.1330010631	 0.069032
H	 1.7389489616	-1.1080733489	-4.9035083356	 0.114939
H	 2.3864172014	-2.7514520436	-5.003272662	 0.112366
H	 0.6885099904	-2.4433405731	-5.3857948473	 0.111915
H	 2.6626786979	-2.7585057839	-1.6525893334	 0.061777
H	 2.443809853	 0.0729583336	-2.8418636539	 0.116247
H	 3.4471066119	-0.4040812531	-1.4783297752	 0.123217
H	 3.7816523987	-1.0605116713	-3.091072519	 0.106288
