11
gdb 21395	5.71768	2.3849	1.68293	0.6669	57.44	-0.2326	-0.0358	0.1968	676.3168	0.076037	-389.740844	-389.735657	-389.734713	-389.769962	20.023	
N	 0.0058485186	 1.3240170856	 0.0452384894	-0.360501
N	 1.2882114023	 1.774984277	 0.0256023854	-0.066391
N	 2.0923852179	 0.7748695998	-0.0075132375	-0.138173
N	 1.3221191095	-0.347444039	-0.0093574284	 0.040703
C	 1.4122852237	-1.7273946428	-0.0334196324	-0.144899
C	 0.0935606822	-2.1293730067	-0.011432742	-0.073359
N	-0.8076428405	-1.074615162	 0.0249606322	-0.388282
C	-0.0096420955	-0.0366996463	 0.0242545986	 0.552567
H	-0.7535258286	 1.9818639091	 0.0724745959	 0.302573
H	 2.3483868953	-2.2543689636	-0.0623136183	 0.152133
H	-0.2648315049	-3.1481861711	-0.0198825429	 0.123629
