19
gdb 98020	3.95151	0.60735	0.55148	2.5462	84.2	-0.2588	-0.0495	0.2093	2036.5007	0.15523	-423.018494	-423.007445	-423.0065	-423.056804	37.693	
C	 0.0378104855	 1.4854358694	-0.2695923084	-0.385353
C	-0.2090901877	-0.0154111702	-0.3954046029	-0.277696
C	-1.4519424817	-0.4840218108	 0.3451852184	 0.211441
O	-2.1699184281	 0.2642818908	 0.9745913043	-0.291619
C	-1.7304765479	-1.9060753163	 0.252745161	-0.060928
C	-1.9528249024	-3.0918110086	 0.1876527687	 0.1941
C	-2.2381756604	-4.5259573344	 0.0777968572	-0.036811
C	-3.60773893	-4.7702954634	-0.5743088308	-0.390911
O	-1.196407405	-5.2296910426	-0.5886044283	-0.40757
H	 0.9396710995	 1.7722415979	-0.817265334	 0.110736
H	-0.8058506595	 2.0551521171	-0.6671719681	 0.133217
H	 0.1605704991	 1.7746391151	 0.777092748	 0.134516
H	-0.3148277997	-0.3212403059	-1.445278787	 0.126521
H	 0.6403895199	-0.5989368074	-0.0152342072	 0.132882
H	-2.2505506351	-4.9488800333	 1.0898302799	 0.132399
H	-3.6325460819	-4.3496209372	-1.5847781707	 0.121143
H	-3.7877590518	-5.8463566368	-0.6357161774	 0.132458
H	-4.406352135	-4.303082316	 0.0082208882	 0.137013
H	-1.0980842877	-4.8441978373	-1.466583671	 0.284461
