21
gdb 36864	4.45313	0.8584	0.76225	1.8531	85.87	-0.2237	0.0228	0.2465	1530.3003	0.183033	-387.079446	-387.070582	-387.069638	-387.114153	32.693	
C	 0.0102741258	 1.4432621412	-0.3693255667	-0.340829
C	-0.0673190781	-0.0486496459	-0.081353204	 0.037165
C	-0.3382319074	-0.5502969964	 1.3158190512	-0.251647
C	-1.3925245958	-0.6865228915	 0.244399996	-0.27998
C	 1.3824648145	 2.0214756839	-0.1875640626	 0.32527
C	 2.1450051874	 2.6437212774	-1.0833684235	-0.218995
C	 3.4390169421	 3.0779717584	-0.4594876025	-0.100874
O	 3.3636299079	 2.6437224472	 0.8962964343	-0.266
C	 2.1230512907	 1.9853652778	 1.1282799069	-0.146854
H	-0.3305175874	 1.6414037187	-1.392559743	 0.104957
H	-0.6959641657	 1.9596352105	 0.2980123398	 0.101297
H	 0.6167519769	-0.6480708399	-0.6763658489	 0.087637
H	 0.1728453867	-1.4444083201	 1.6550176448	 0.113496
H	-0.50470571	 0.1867740144	 2.094999708	 0.111837
H	-2.2627685353	-0.0407859692	 0.3062600846	 0.1109
H	-1.6019691542	-1.6740959523	-0.1511943893	 0.112603
H	 1.8929772817	 2.8342768373	-2.1196549878	 0.09524
H	 4.3185735509	 2.6268237779	-0.9471880015	 0.101066
H	 3.5791394229	 4.1707865414	-0.495588967	 0.10094
H	 1.565461472	 2.5019816955	 1.9277864578	 0.095455
H	 2.3048012642	 0.9578645737	 1.4786292235	 0.107317
