21
gdb 33184	5.20717	0.67459	0.63942	0.4795	86.42	-0.2113	0.024	0.2354	1822.9271	0.182886	-387.13289	-387.123599	-387.122654	-387.168191	33.915	
C	-0.2076164562	 1.5683915073	-0.0251875358	-0.38209
C	-0.0255007445	 0.0482664728	-0.017588387	-0.163467
C	 0.7286832606	-0.4711657131	-1.2452585008	-0.154063
C	 0.9078612	-2.0014880226	-1.2373744372	-0.321491
C	 1.6258000842	-2.5275443017	-2.4315888766	 0.373412
C	 2.822886098	-3.150271473	-2.6120275117	-0.277311
C	 2.9526378467	-3.3965388443	-4.0192702099	-0.168862
C	 1.8245273869	-2.9038086	-4.5889801124	-0.022167
O	 1.006195377	-2.3716361276	-3.6401204751	-0.180688
H	 0.7594798734	 2.0829377253	-0.0458435779	 0.114424
H	-0.7728026813	 1.894454158	-0.9053211858	 0.115292
H	-0.7478299697	 1.9107854379	 0.8630034653	 0.111272
H	 0.5112693117	-0.2524572115	 0.8922758065	 0.093509
H	-1.0082429003	-0.4389887534	 0.0365154134	 0.095343
H	 0.1948541446	-0.1808269536	-2.1582374405	 0.10896
H	 1.7163770361	 0.0040897313	-1.3026943123	 0.097875
H	 1.4681907118	-2.3061504876	-0.3465820382	 0.110028
H	-0.0801657448	-2.476215321	-1.162670006	 0.112676
H	 3.5277973041	-3.4059165607	-1.8361417737	 0.102311
H	 3.7734811869	-3.8760171192	-4.5291424448	 0.107191
H	 1.4604300546	-2.8529786032	-5.6017647196	 0.127844
