16
gdb 43804	2.4833	1.6732	1.17347	4.1931	70.57	-0.2462	0.0092	0.2554	1048.1495	0.123043	-437.855827	-437.847731	-437.846787	-437.888627	30.345	
O	-0.0134177475	 0.0212989129	-0.0442698969	-0.363922
C	 0.0074706529	 1.220115084	-0.0239070158	 0.440022
N	-0.9773339049	 2.1905437385	-0.0224772682	-0.47299
C	-0.074838356	 3.3316307843	 0.0304983167	 0.378697
C	-0.1680294544	 4.6021035555	-0.7442448928	-0.314719
C	-0.2548610587	 4.6117874242	 0.7778269362	-0.331089
C	 1.0747365644	 2.3314137457	 0.0484278832	 0.160499
C	 2.3787871308	 2.3384968465	 0.7061921499	-0.261261
O	 2.2451159471	 2.4145531993	-0.7227993219	-0.259948
H	-1.977512886	 2.1206615983	 0.0831348316	 0.25566
H	 0.7415309312	 4.9623154925	-1.2137772835	 0.135942
H	-1.076848476	 4.7995133537	-1.3026393214	 0.122796
H	-1.2247412428	 4.8099430942	 1.2227760718	 0.121319
H	 0.5826866113	 5.0030199584	 1.3465004957	 0.123659
H	 2.7313725385	 3.2475800253	 1.1905555879	 0.123837
H	 2.78713626	 1.4041905167	 1.0863228973	 0.141497
