12
gdb 131184	3.49656	1.14486	0.87643	4.5263	58.86	-0.2432	-0.0153	0.2278	1190.582	0.077344	-505.944233	-505.936483	-505.935538	-505.97737	27.093	
O	-0.0566821543	 1.3182933838	 0.0945283539	-0.421124
C	 0.0508697974	-0.0131067573	-0.0212061047	 0.320639
C	 0.2638628201	-0.8749508004	-1.0739285072	 0.269288
O	 0.4669920664	-0.4940220685	-2.3707769026	-0.239459
C	-0.1054067273	-1.2604006006	-3.3574370739	 0.16013
O	 0.0633104362	-1.0054582982	-4.5060500066	-0.252015
N	 0.2924652733	-2.1453812795	-0.6156053092	-0.248006
N	 0.0980835374	-2.1376536335	 0.6743502945	-0.126638
N	-0.0415712506	-0.8379518982	 1.0415639631	-0.21794
H	 0.06887278	 1.7104076185	-0.7786835353	 0.32813
H	-0.6985664612	-2.0911132772	-2.9466470968	 0.130816
H	-0.1859790572	-0.596345629	 2.0092795348	 0.296179
