19
gdb 71205	2.35031	2.01015	1.61189	2.9765	78.63	-0.2279	-0.0021	0.2258	941.4419	0.160643	-385.882862	-385.8755	-385.874556	-385.914294	29.823	
C	-0.0348489988	 1.5246789886	 0.0850976624	-0.50537
C	 0.0589850019	 0.0217645159	 0.0585046972	 0.194978
C	 0.8863651521	-0.7799822515	-1.0052876402	-0.281842
C	 0.808959856	-1.9157137036	 0.0302862889	-0.034673
C	-0.7101339804	-2.1377096267	 0.4464474334	-0.160131
C	-0.3251631407	-1.7133226007	 1.9015858294	-0.252659
C	 0.7510014167	-0.8746861148	 1.1858246758	-0.071226
C	-1.2355189615	-0.7914149048	-0.0421907515	 0.436268
O	-2.3316242735	-0.4501631548	-0.3946480053	-0.354779
H	 0.9557091186	 1.9904404504	 0.0858673417	 0.1126
H	-0.5842404215	 1.88680295	-0.7899168509	 0.135428
H	-0.5736837453	 1.8697390369	 0.9740371745	 0.124275
H	 0.4480323405	-0.9138458863	-2.0000353263	 0.105944
H	 1.9066451209	-0.3954817834	-1.09915991	 0.103706
H	 1.4610612581	-2.7877192626	 0.0328400537	 0.076466
H	-1.2845001718	-3.0331513277	 0.2206846398	 0.082606
H	-1.0920524518	-1.2209936857	 2.5086045882	 0.107685
H	 0.1210844923	-2.5365176531	 2.4664333326	 0.107677
H	 1.6318860682	-0.4604412462	 1.6755878868	 0.073047
