24
gdb 118548	1.94789	0.98443	0.7205	3.5276	87.29	-0.2481	0.0344	0.2825	1692.7312	0.215612	-405.592717	-405.581225	-405.58028	-405.631357	40.178	
C	-0.0824912741	 1.4027291478	 0.1370379362	-0.380722
C	 0.0202581202	-0.1216441875	 0.0369043066	-0.169249
C	 0.7219322246	-0.5870954949	-1.2429416495	-0.174575
C	 0.8265329623	-2.1141257387	-1.3954499916	 0.024566
C	 1.4061798933	-2.510130532	-2.7650538534	-0.179814
C	 1.4195594235	-4.0176189469	-3.0272459723	-0.38464
N	 1.6080214025	-2.6996311262	-0.3067347752	-0.266607
C	 1.1178559246	-3.5996555973	 0.5871097451	 0.15451
O	-0.0156640393	-4.0314793371	 0.6065373716	-0.327603
H	 0.9090676946	 1.8697234457	 0.132526769	 0.110467
H	-0.6460914533	 1.8202870898	-0.7048356137	 0.113602
H	-0.5882129414	 1.7069483998	 1.0585779906	 0.114512
H	 0.5575924179	-0.5117183546	 0.9090285649	 0.099136
H	-0.9830900288	-0.5637217403	 0.078572615	 0.107921
H	 0.1838706311	-0.1957453734	-2.1158494312	 0.098283
H	 1.7308327678	-0.1499738672	-1.2921137031	 0.082924
H	-0.1701199438	-2.5544440218	-1.2882128264	 0.1209
H	 0.8154759993	-2.0060505605	-3.5393184057	 0.101575
H	 2.424909086	-2.1054601473	-2.8520885354	 0.086344
H	 0.4088089024	-4.4355408611	-2.9790018206	 0.127998
H	 1.8289332034	-4.2379707148	-4.0177438996	 0.111679
H	 2.0291201828	-4.5450695636	-2.2876643637	 0.118265
H	 2.5738966244	-2.4232615507	-0.2119798367	 0.241092
H	 1.89105444	-3.906026607	 1.3208989191	 0.069434
