14
gdb 4265	3.88599	1.97412	1.31979	3.7008	68.21	-0.2346	-0.025	0.2095	883.2197	0.108547	-378.761825	-378.754906	-378.753962	-378.793102	25.516	
C	 0.0273526816	 1.4883095194	-0.0440736256	-0.469564
C	-0.0617487676	-0.0018838257	 0.029987251	 0.405524
N	-1.1335668338	-0.649853203	-0.1971204042	-0.346133
C	-1.1401866541	-2.0645472904	-0.1072934983	 0.323235
N	-2.1861941685	-2.7650162111	-0.3247246514	-0.524777
C	 0.1317450667	-2.6837105467	 0.2520660229	-0.157739
C	 1.1971348507	-1.9117789852	 0.4695541958	 0.042384
O	 1.147943374	-0.548703694	 0.3689796669	-0.222491
H	 0.7749845255	 1.7858713478	-0.7862721284	 0.151051
H	-0.945018746	 1.8965856551	-0.3143493506	 0.157955
H	 0.3471554238	 1.896289208	 0.9200917705	 0.151045
H	-2.9580624734	-2.1365683663	-0.5591811839	 0.217541
H	 0.1941328715	-3.7601549785	 0.3373800232	 0.129162
H	 2.1883792597	-2.2506858994	 0.7403264419	 0.142807
