18
gdb 106188	2.78686	1.53639	1.37401	1.9826	70.8	-0.2075	0.0633	0.2707	1007.9535	0.149308	-439.024452	-439.016805	-439.015861	-439.056843	29.459	
O	-0.0097780411	 1.3856990827	-0.2767888773	-0.419363
C	 0.0087200799	-0.0098183688	 0.0070450868	-0.236428
C	-1.4007477458	-0.4912523317	 0.0098994982	 0.31726
C	-2.0464258975	-1.8636180735	-0.067898132	-0.136188
N	-2.8894852732	-1.5981989859	 1.1015606095	-0.320015
C	-2.5352666916	-0.1410181648	 1.0088217578	-0.072569
C	-3.5338185018	 0.6083504774	 0.134742314	-0.092244
O	-3.5176290724	-0.1182043388	-1.1050585229	-0.27391
C	-2.2920138116	-0.8141002446	-1.1481805919	 0.055929
H	 0.8836846781	 1.7253737607	-0.1675341161	 0.288947
H	 0.5866952054	-0.5676961464	-0.7477017402	 0.089882
H	 0.4758833172	-0.2068132449	 0.9852326032	 0.095048
H	-1.6054250129	-2.8392601391	-0.2478465607	 0.090161
H	-3.8785786851	-1.7706726316	 0.9177626549	 0.216177
H	-2.2878133743	 0.3312346807	 1.9611204789	 0.080885
H	-4.5570687294	 0.5924827273	 0.5259521461	 0.104598
H	-3.2207280364	 1.6520328317	-0.0198359183	 0.108627
H	-1.8947618175	-0.9545231804	-2.1467071401	 0.103202
