18
gdb 46517	3.63515	1.24951	1.08622	4.0924	72.08	-0.2307	0.014	0.2447	1131.8935	0.149284	-439.098411	-439.090525	-439.089581	-439.131081	30.348	
O	 0.0274802994	 0.1936709327	 0.725128034	-0.324922
C	-0.0102637168	 1.215847706	 0.0958399766	 0.397876
C	-1.3245626515	 1.9516665204	-0.1785668693	-0.314365
N	-1.3009972804	 3.0216588794	-1.1748887705	-0.342964
C	-0.0810598686	 3.7820893924	-1.0476515826	 0.307204
C	-0.0745606802	 5.19278754	-1.5617312932	-0.327376
C	-0.1093462781	 4.9343679614	-0.0738829111	-0.283546
C	 1.1571241706	 2.938327505	-1.1888389766	-0.12237
O	 1.1447943483	 1.774360482	-0.3359030698	-0.226797
H	-2.0686593331	 1.1984174133	-0.4463190116	 0.141749
H	-1.637582077	 2.3666142727	 0.7886315256	 0.146928
H	-1.3587156457	 2.6236058638	-2.108639485	 0.223616
H	 0.8409472811	 5.5780088368	-1.998174661	 0.118125
H	-0.9869941024	 5.5392894384	-2.032476817	 0.127977
H	-1.045172379	 5.1145811944	 0.4414087937	 0.128385
H	 0.7830413127	 5.140547055	 0.5066308249	 0.12203
H	 1.2602031267	 2.584305477	-2.2241418912	 0.109419
H	 2.0670417641	 3.4865994493	-0.9275455058	 0.119032
