19
gdb 89849	2.83076	1.38578	1.22185	3.2745	70.54	-0.2514	0.0639	0.3153	1086.1244	0.159748	-460.150352	-460.142199	-460.141255	-460.183017	32.432	
O	-0.2947847309	 1.456438997	-0.388394558	-0.454951
C	-0.0418499211	 0.0944944128	-0.0389069215	 0.087396
C	-1.3355482682	-0.721734831	 0.0326726068	-0.319921
C	-1.646012161	-0.9030936025	-1.4447105562	 0.407767
C	-2.9775639296	-1.1578637395	-1.98897988	-0.259888
O	-2.436075731	 0.1701699055	-2.0170648777	-0.290824
C	-0.3213472109	-1.1939625465	-2.1349347499	-0.318896
C	 0.767661585	-0.5923386719	-1.1836038082	 0.13376
O	 1.6493353961	 0.3076395542	-1.8042507342	-0.440664
H	-1.0834699921	 1.4848744722	-0.9466391578	 0.308649
H	 0.5201952039	 0.1229223498	 0.8974568697	 0.084117
H	-1.140042562	-1.692552468	 0.5041849688	 0.112002
H	-2.1365352904	-0.2202902495	 0.5810171419	 0.117536
H	-3.0806969016	-1.6307070561	-2.9646401407	 0.120198
H	-3.8209537952	-1.3043391562	-1.3147627497	 0.116305
H	-0.1767679593	-2.2709866703	-2.2662637213	 0.106748
H	-0.2780091082	-0.7237293272	-3.1192685046	 0.125987
H	 1.3731394852	-1.4025945743	-0.7613798499	 0.080288
H	 1.2492371312	 1.1805915818	-1.6693624176	 0.28439
