19
gdb 112507	2.98244	1.02291	0.89973	3.3628	75.86	-0.2539	0.0098	0.2637	1334.0334	0.159586	-419.192189	-419.182805	-419.181861	-419.227004	34.147	
C	-0.2761078403	 1.5267825825	 0.1667453548	-0.407644
C	-0.1242137469	 0.0170253649	 0.0314648989	-0.043539
C	 0.6148145847	-0.5348995417	-1.2299168225	 0.031296
C	 0.8734736974	 0.3435545515	-2.4470758661	-0.076199
O	 1.8971415938	-0.2258533769	-3.2470977731	-0.422249
N	 1.8385832893	-0.7379708219	-0.4067627339	-0.333579
C	 1.0537250465	-0.6277558229	 0.8432993644	-0.130813
C	 1.6828359388	 0.1589286756	 1.9053949846	 0.300908
N	 2.1607235157	 0.7830748007	 2.7527872208	-0.328588
H	 0.6769122785	 2.0478998282	 0.0442746971	 0.144597
H	-0.9783456495	 1.9143603045	-0.5779853988	 0.122556
H	-0.664339413	 1.7815877002	 1.1575265235	 0.134204
H	-1.0805799686	-0.4719178574	 0.2251848602	 0.091158
H	 0.1713421449	-1.4823156454	-1.5657172599	 0.077336
H	-0.0214666762	 0.4026430046	-3.0758606034	 0.109619
H	 1.1382077866	 1.3627016616	-2.1356244536	 0.094669
H	 2.7014967792	-0.189193549	-2.7163311557	 0.289076
H	 2.3051572243	-1.6303911235	-0.5259159725	 0.23186
H	 0.7563556448	-1.5938892157	 1.2721874751	 0.11533
