16
gdb 44918	3.1253	1.48106	1.45983	2.5917	69.56	-0.2481	-0.0356	0.2125	954.7448	0.126723	-437.925687	-437.91895	-437.918006	-437.956875	26.986	
N	-0.0583871607	 1.2701652052	-0.0274982501	-0.556542
C	-0.0334510961	 0.0121642739	-0.0145161941	 0.443102
O	 1.1068254479	-0.7685097962	 0.0056755684	-0.26364
C	 0.6697692548	-2.1577817384	-0.0025715545	-0.009384
C	-0.6160399821	-2.0985837503	-0.8334374911	-0.262884
C	-1.2041739684	-0.9446155124	 0.0200941163	-0.117605
C	-1.1915834636	-1.5664528268	 1.4432485974	-0.34314
C	 0.1092233753	-2.3938985921	 1.4169110459	 0.437041
O	 0.5757276906	-3.0709226924	 2.2890576496	-0.312341
H	 0.8890242567	 1.6532231681	-0.0217759859	 0.228459
H	 1.4985550414	-2.7918063846	-0.3059639615	 0.107677
H	-0.4309121857	-1.8249338533	-1.8745370141	 0.129919
H	-1.2032264308	-3.0198366556	-0.7889291177	 0.121313
H	-2.1438425422	-0.4991708263	-0.2942108112	 0.107067
H	-1.1872751208	-0.831104988	 2.2511634495	 0.152542
H	-2.0433787063	-2.236708071	 1.598698943	 0.138417
