19
gdb 82326	2.5573	1.73813	1.29191	1.9916	73.82	-0.2297	0.0616	0.2913	1017.4993	0.161512	-419.151805	-419.144117	-419.143173	-419.18371	30.909	
O	 0.5481062715	 0.6955625076	-0.8031541658	-0.425971
C	 0.1410817971	-0.3852453432	 0.0156372565	 0.039413
C	 0.5695114166	-0.313162964	 1.4716259334	-0.054804
C	-0.2341870616	 0.5577146397	 2.3751211718	-0.262254
N	-0.4731241373	-0.8900176699	 2.3460486855	-0.101798
C	-1.604025312	-1.2733049147	 1.4701019982	-0.227135
C	-1.3778048123	-0.6043252856	 0.1183317	 0.294392
C	-2.3294327302	 0.340759429	-0.5192136992	-0.292227
N	-2.1677650688	-1.0320747207	-1.0340906838	-0.38312
H	 0.3405303179	 1.5096515146	-0.3304172711	 0.281772
H	 0.5982218187	-1.2686438876	-0.4490710785	 0.100265
H	 1.6004336904	-0.5474278036	 1.7193992983	 0.096566
H	 0.212618959	 0.9248162613	 3.2941447754	 0.121246
H	-0.9827107988	 1.2172376049	 1.9409436501	 0.114699
H	-1.5862870474	-2.3629843397	 1.3583946062	 0.119755
H	-2.5559607052	-1.0001345795	 1.9348755879	 0.113015
H	-3.2869689701	 0.5431617742	-0.045787559	 0.11649
H	-1.920210927	 1.1565929938	-1.1081171688	 0.113129
H	-1.5875223203	-1.0043640766	-1.871532007	 0.236567
