20
gdb 87735	3.29776	1.13042	0.97481	0.9118	82.56	-0.2235	0.0078	0.2314	1271.4466	0.170876	-403.123994	-403.115276	-403.114332	-403.157468	33.75	
C	-0.1733132703	 1.479754267	 0.0429024973	-0.313739
N	-0.0169191418	 0.0344319637	 0.1065558912	-0.129302
C	 1.2875380797	-0.5089907042	-0.2466300592	-0.299258
C	 0.8151618322	-0.5346477404	 1.1750627576	 0.328547
C	 1.4856553542	 0.284457938	 2.2873959096	-0.347394
C	 1.653819153	-0.7031077559	 3.4793792593	 0.098597
O	 1.3215980675	-0.1476077495	 4.7457710211	-0.432584
C	 0.7964259821	-1.8840877273	 3.0842960801	-0.143731
C	 0.339432034	-1.7795008156	 1.8372096951	-0.11742
H	 0.7361029816	 2.0464980462	 0.2997360993	 0.10289
H	-0.4679959488	 1.7563878609	-0.9744205311	 0.124634
H	-0.9742201191	 1.7914462856	 0.7213804425	 0.121799
H	 1.2824551236	-1.4113821703	-0.853903279	 0.11082
H	 2.0893762247	 0.1917430538	-0.4811462141	 0.104273
H	 2.4317311298	 0.7393430172	 1.9879465259	 0.10855
H	 0.8257660655	 1.096489948	 2.614427083	 0.105341
H	 2.7030293308	-1.0023409911	 3.5914168576	 0.09699
H	 0.3711134899	 0.0133733339	 4.7461737685	 0.273432
H	 0.6154274639	-2.7051846948	 3.7686458154	 0.101317
H	-0.2875667425	-2.4921883351	 1.3138508699	 0.106238
