14
gdb 29616	3.25425	1.14648	0.87634	2.9578	65.78	-0.2126	-0.0059	0.2067	1229.6857	0.100698	-473.851959	-473.843788	-473.842844	-473.885571	29.34	
N	 0.3181936734	 1.3732077373	 0.2423139419	-0.616578
C	 0.0966188742	 0.0067854764	 0.075260275	 0.135683
C	-1.0341254614	-0.7387630095	 0.2344565637	-0.073124
O	-0.7625886086	-2.0708355867	 0.0483399908	-0.143257
C	 0.5512309139	-2.1831247169	-0.2411588072	-0.092372
C	 1.1228480621	-0.9486500772	-0.2337221485	 0.228789
O	 2.4232902584	-0.5948917965	-0.5146220517	-0.232191
C	 3.4022707673	-1.0792749802	 0.3065171185	 0.153988
O	 4.5547243318	-0.8627882066	 0.1077804118	-0.254272
H	 1.1082529918	 1.7037659629	-0.296391732	 0.259329
H	-0.4943583354	 1.9461935242	 0.0613466217	 0.251992
H	-2.0541718009	-0.4954063916	 0.4761230413	 0.133768
H	 0.9291627078	-3.1707332523	-0.4441741895	 0.149871
H	 2.9819020856	-1.6759972432	 1.1352995343	 0.098374
