16
gdb 53873	4.08418	0.78827	0.66608	4.0043	68.32	-0.2557	-0.1012	0.1545	1599.3316	0.12062	-475.078468	-475.0684	-475.067456	-475.116061	33.344	
C	 0.2405220245	 1.4715167272	 0.0276577874	-0.477268
C	 0.2022389778	-0.0337594673	 0.0486429935	 0.31349
O	 0.2010392147	-0.7107560956	 1.0492394962	-0.266078
C	 0.162027242	-0.7333696221	-1.3283199521	 0.254141
O	 0.1619874074	-0.0874886022	-2.3520913776	-0.290303
C	 0.1236616832	-2.2442011348	-1.3064630394	-0.22136
N	 0.0889778945	-2.7488950667	-2.6535644721	-0.293991
C	 0.0511964572	-4.0778206153	-2.9254103614	 0.156953
O	 0.0429294182	-4.9498514039	-2.0826703804	-0.321698
H	 1.1157629403	 1.8164402944	-0.5323660736	 0.160445
H	-0.6337101012	 1.861319039	-0.5037781251	 0.160448
H	 0.2669636078	 1.852819045	 1.0482887962	 0.149321
H	 0.9924292366	-2.6164043832	-0.7469609325	 0.166289
H	-0.7445515898	-2.5718294456	-0.7189119441	 0.16627
H	 0.0944069425	-2.0628709562	-3.3945671959	 0.262047
H	 0.0285079643	-4.2786246428	-4.0144419794	 0.081294
