13
gdb 133373	3.17048	1.40226	0.97316	3.9995	65.52	-0.2178	-0.0559	0.1619	1086.4354	0.090408	-494.069176	-494.061826	-494.060882	-494.100923	28.18	
N	-0.0342319587	 1.3817768702	 0.1499912597	-0.566834
C	-0.0324872515	 0.002337531	 0.0397409037	 0.284585
N	-1.1558290696	-0.6529872478	 0.0251380939	-0.27824
N	-1.0783560205	-2.0025065686	 0.0072809951	-0.287584
C	 0.0514179156	-2.8154236855	-0.0209658512	 0.445959
O	-0.0383083351	-4.0311557195	-0.0408680832	-0.398052
C	 1.2883899743	-2.0402909609	-0.0288645032	-0.374301
C	 1.2269426439	-0.6970904303	 0.0034621727	 0.295816
F	 2.3234150854	 0.063247594	-0.0118133027	-0.068089
H	 0.7550543965	 1.8440148497	-0.2757506592	 0.262975
H	-0.9237737214	 1.80446828	-0.0740052979	 0.264212
H	-1.9711607558	-2.4751765254	 0.0060033468	 0.274355
H	 2.2292270268	-2.5732364068	-0.0613048845	 0.145199
