17
gdb 17309	2.73436	2.45478	1.70526	1.4371	68.08	-0.2187	0.0608	0.2795	826.3966	0.141524	-363.763251	-363.755846	-363.754902	-363.794313	29.025	
C	-0.0463845954	 1.4885239273	-0.0111486881	-0.49522
C	-0.0551642437	-0.0135707847	-0.014018046	 0.282515
C	-0.9281871971	-0.8526414399	 0.8535651778	 0.036272
O	-1.9173891273	-1.7374200826	 0.3976764983	-0.421242
C	 0.5644542662	-1.0507072	 0.952797334	-0.118751
N	 1.329968332	-1.7335376225	-0.153599383	-0.146275
C	 0.4146941303	-2.2551482612	-1.2005864425	-0.251708
C	 0.6713387938	-0.8013052161	-1.1265971092	-0.087954
H	 0.957488714	 1.8792004699	-0.212818506	 0.12442
H	-0.7183364758	 1.8865071855	-0.7817656745	 0.126852
H	-0.3746426691	 1.8864738815	 0.9537824936	 0.119975
H	-1.2601435586	-0.2660477583	 1.7159070344	 0.091593
H	-2.0283372028	-2.4196125608	 1.0698098136	 0.287474
H	 1.0979112969	-0.9194638931	 1.8881551439	 0.09642
H	 0.9705202631	-2.7964275735	-1.9623561824	 0.11504
H	-0.550447424	-2.6604864867	-0.9395810459	 0.145639
H	 1.2720657076	-0.2729653547	-1.861549908	 0.094951
