21
gdb 115966	3.15423	1.24268	1.03046	2.5897	77.54	-0.2544	0.0717	0.3261	1216.999	0.184585	-424.217593	-424.209239	-424.208295	-424.251124	32.11	
O	-0.0091670446	 1.4551395502	-0.2166930001	-0.424983
C	 0.0677034057	 0.0641744938	 0.035700282	-0.080554
C	-1.3068676828	-0.5815745946	-0.0379129243	 0.10191
O	-1.8186901864	-0.3477896593	-1.3556211447	-0.280545
C	-2.9751429464	-1.1701053367	-1.4813803836	-0.09546
C	-2.628399642	-2.4882784172	-0.777785308	-0.027669
C	-1.6891919586	-3.4497111555	-1.5581888801	-0.218052
C	-0.4931003729	-3.0239421563	-0.6638754996	-0.228091
C	-1.4332441391	-2.0955889622	 0.1645681509	-0.05074
H	-0.5226676804	 1.5468125799	-1.0278337343	 0.29153
H	 0.750887908	-0.4304224341	-0.670263056	 0.090999
H	 0.4795044859	-0.0568340312	 1.0433348258	 0.10544
H	-1.9600699223	-0.0728503433	 0.6929575302	 0.069207
H	-3.8382831915	-0.6879899428	-0.9946722922	 0.089329
H	-3.1942681257	-1.2809006296	-2.5474448585	 0.10704
H	-3.502953288	-2.9524145098	-0.3185612477	 0.070759
H	-1.9629193634	-4.5034553196	-1.467954271	 0.100141
H	-1.5812235382	-3.2148214262	-2.6209714824	 0.100697
H	-0.0459283951	-3.8334643438	-0.0828863043	 0.100776
H	 0.3072241538	-2.5084766316	-1.1981029268	 0.107325
H	-1.5276738861	-2.36110729	 1.2188342446	 0.070941
