17
gdb 8116	3.12334	1.96716	1.50998	1.8375	64.81	-0.1971	0.0624	0.2595	880.8602	0.140739	-400.931166	-400.923043	-400.922099	-400.963	30.802	
C	-0.2524591804	 1.4952746367	 0.040107565	-0.327305
N	 0.1105565027	 0.088382857	 0.0220178704	-0.064036
C	 1.1869804823	-0.3795234024	-0.8898871258	-0.237618
C	 1.8557947782	-1.1029684029	 0.2871704811	 0.320447
O	 2.3106440786	-2.4064390246	 0.2378903924	-0.458287
C	 2.2244727713	-0.1309671587	 1.3573586025	 0.013425
O	 2.7800989694	 1.1100042776	 1.0228236311	-0.421518
C	 0.7603463665	-0.5093288743	 1.1795892382	-0.13657
H	 0.6023999998	 2.1803389111	 0.1496808263	 0.099343
H	-0.7753206717	 1.7463954504	-0.8893716338	 0.118833
H	-0.9494563404	 1.6724317822	 0.8664189854	 0.1155
H	 0.8105918	-1.0649322616	-1.6562150385	 0.108694
H	 1.7849888108	 0.4134725116	-1.3541782816	 0.105833
H	 3.2599205294	-2.3888923249	 0.0730060501	 0.289237
H	 2.6766488656	-0.6257783059	 2.220372036	 0.090209
H	 2.5115873233	 1.7476098909	 1.6925136255	 0.288277
H	 0.1770613147	-0.9463057822	 1.9848725255	 0.095535
