17
gdb 33107	6.36427	0.78321	0.70355	0.9683	71.55	-0.1985	0.0559	0.2545	1556.9581	0.136157	-455.173877	-455.164894	-455.16395	-455.208508	32.051	
C	-0.0019947589	 1.3919028774	 0.0785325699	-0.220048
O	-0.0181258164	-0.0123700703	 0.0160928491	-0.233046
C	 0.6875270571	-0.6136413251	 1.0787774078	-0.161169
C	 0.6166828734	-2.0967912444	 0.929262471	 0.249451
C	-0.0073144179	-2.8204882652	-0.0419899512	-0.17596
N	 0.2334493816	-4.1540757229	 0.2877007064	-0.303322
C	 0.9758982413	-4.1391346211	 1.4200068968	 0.441302
O	 1.3653597861	-5.2972853986	 1.9813655018	-0.426817
N	 1.2354596881	-2.9338957628	 1.8492672034	-0.42313
H	 1.0232616002	 1.7925198497	 0.0277377889	 0.103969
H	-0.5691246348	 1.7646391235	-0.7779481285	 0.124545
H	-0.4684275986	 1.7662767944	 1.0040146211	 0.103956
H	 1.7411784947	-0.2824408057	 1.085173381	 0.09941
H	 0.2625325948	-0.3091367835	 2.0517160702	 0.099393
H	-0.5790143233	-2.5328500934	-0.905597712	 0.137423
H	-0.0754039882	-4.973032661	-0.2063793614	 0.270526
H	 1.8748863507	-5.0559692412	 2.7649324358	 0.313519
