14
gdb 123680	4.08321	1.5787	1.23556	3.5953	66.48	-0.2483	-0.023	0.2253	941.2398	0.103385	-436.651638	-436.645604	-436.64466	-436.682056	24.031	
C	-0.0537081274	 1.5508304903	-0.0114447244	-0.397322
C	 1.4537777665	 1.8821369358	-0.0243539297	 0.066683
O	 2.1811692348	 1.4333568956	 1.1179299529	-0.240214
C	 2.2622764539	 0.6370320085	-0.0823769387	-0.152414
C	 1.2386151927	-0.4304041644	-0.0806762817	 0.428611
C	-0.0309824204	 0.0438041772	-0.0027006842	 0.152855
C	-0.8018040339	-1.1404942809	 0.0761713987	-0.120704
N	-0.0456673721	-2.2191095495	 0.022193877	-0.140234
O	 1.2831360619	-1.7588283293	-0.0692594771	-0.230036
H	-0.5373190451	 1.9878143804	 0.8687020966	 0.139102
H	-0.5453167708	 1.9678950965	-0.8976991545	 0.125092
H	 1.7981941458	 2.8196501837	-0.4524571177	 0.110088
H	 3.2407825712	 0.5467165184	-0.5395424052	 0.121781
H	-1.8716786771	-1.275744702	 0.153061428	 0.136712
