16
gdb 1672	4.44042	1.61962	1.51846	2.3876	57.15	-0.2424	0.0332	0.2756	864.1732	0.135126	-362.946498	-362.937565	-362.936621	-362.98071	30.391	
C	-0.0133177674	 1.6853612819	 0.2512760485	-0.387729
C	-0.0537161959	 0.16238085	 0.0380490294	-0.080049
C	 0.762082661	-0.574534607	 1.1041249994	-0.071051
O	 2.1131767956	-0.1514284634	 0.9884622984	-0.427681
C	-1.5005477466	-0.3277843572	 0.0998107472	 0.406924
N	-2.0656982756	-0.6413966628	-1.1018387213	-0.525897
O	-2.1110839693	-0.4196405055	 1.1493161796	-0.376686
H	 1.0230746205	 2.0249712466	 0.2970050795	 0.136634
H	-0.5216911826	 2.2141313298	-0.560858265	 0.10845
H	-0.5117125401	 1.9440746996	 1.1903402568	 0.134356
H	 0.3831246569	-0.0742585622	-0.9401907801	 0.073858
H	 0.3396355683	-0.3447138584	 2.0910644212	 0.113617
H	 0.67392632	-1.6616968777	 0.9513820443	 0.08843
H	 2.601984862	-0.5069785792	 1.73580363	 0.288573
H	-1.5758229856	-0.5345626144	-1.971919074	 0.258989
H	-3.0355449711	-0.9123753902	-1.1180915839	 0.259263
