15
gdb 44743	3.178	1.74794	1.54506	5.6054	64.76	-0.2784	-0.0299	0.2485	877.6596	0.115384	-457.808118	-457.801869	-457.800924	-457.838751	25.264	
O	 0.0091779985	 0.0481719743	 0.5768603222	-0.35519
C	-0.0127332145	 1.1286555135	 0.0720863284	 0.466706
O	-1.1930231171	 1.7475006651	-0.1938211728	-0.273679
C	-1.1948533538	 3.0375097227	-0.8750941992	 0.07919
C	-0.0560793088	 3.8722219487	-0.2868421508	-0.263166
C	 1.0896343803	 3.0696222852	-0.9055220888	 0.07919
O	 1.1421997475	 1.7803259665	-0.2249251699	-0.273679
C	 0.5985354227	 2.8441266058	-2.3253622274	-0.077977
C	-0.7355937322	 2.8253715808	-2.307592344	-0.077977
H	-2.2050295934	 3.4207256154	-0.7404136813	 0.099481
H	-0.075526659	 4.8952034024	-0.6673052515	 0.122944
H	-0.0416330836	 3.8791488517	 0.8050609499	 0.127998
H	 2.0918702264	 3.4811259289	-0.7976453294	 0.099481
H	 1.2503677827	 2.6286407288	-3.1618139946	 0.123339
H	-1.4031549559	 2.59133846	-3.1264706508	 0.123339
