17
gdb 7054	4.67792	0.91134	0.81772	4.0456	75.31	-0.2448	0.0269	0.2717	1410.7436	0.139807	-363.869608	-363.859706	-363.858762	-363.907117	32.871	
C	 0.113733304	 1.438947178	 0.0293840189	-0.498939
C	 0.0428493708	-0.0149520058	-0.0028291379	 0.087431
C	-0.0088371091	-1.2178214004	-0.0132126703	 0.037656
C	-0.1023899542	-2.6763310589	-0.0476661016	-0.112416
C	-1.562973081	-3.1652964199	-0.0212853137	-0.381599
N	 0.6170670097	-3.1914810593	-1.2183660062	-0.274227
C	 1.2403462002	-4.3963004886	-1.2079611573	 0.159183
O	 1.2422631368	-5.1670368801	-0.2697087446	-0.329953
H	 1.1513538571	 1.7879887513	-0.0079379698	 0.151996
H	-0.4192331463	 1.8843460039	-0.8177087335	 0.149329
H	-0.3356362857	 1.8333494295	 0.9472492238	 0.154155
H	 0.4112766192	-3.1019929761	 0.8221148967	 0.140887
H	-2.1083742939	-2.7986267347	-0.8953685328	 0.11749
H	-1.5781949784	-4.2577372202	-0.0195984519	 0.141827
H	-2.0663426399	-2.8017972168	 0.8786770765	 0.126414
H	 0.6800599737	-2.6052090593	-2.035050511	 0.252154
H	 1.7571425971	-4.6045114327	-2.1658549353	 0.078614
