16
gdb 28497	3.14925	1.4232	0.98688	2.7341	78.55	-0.206	-0.0238	0.1822	1152.0221	0.125619	-434.142828	-434.134623	-434.133679	-434.17542	31.35	
C	-0.0161286078	 1.5361930707	-0.0341563107	-0.476708
C	-0.0109939785	 0.0343678461	-0.0259837822	 0.227051
N	-0.0993367873	-0.6345744625	-1.1747411843	-0.277348
C	-0.0959860603	-1.9646550328	-1.1522413541	-0.099587
C	 0.0021588568	-2.6764468562	 0.0516950594	 0.352806
N	-0.0471389709	-4.0543724057	 0.1048029912	-0.570326
N	 0.1008598912	-2.0239089209	 1.2179238482	-0.408619
C	 0.0888394865	-0.7015707546	 1.1689407228	 0.368322
O	 0.1845524992	-0.0308688588	 2.3366270779	-0.412438
H	 0.8989046642	 1.9430499439	 0.4110459995	 0.130731
H	-0.0983369178	 1.8899009392	-1.0631519827	 0.133667
H	-0.8529228924	 1.9372717831	 0.5488510118	 0.131482
H	-0.1743027699	-2.4835527427	-2.1039669978	 0.094751
H	 0.2367561979	-4.5475998017	-0.7269298151	 0.255571
H	 0.3068495248	-4.4508846526	 0.9623099376	 0.255048
H	 0.2395340442	-0.7017315144	 3.0312780985	 0.295597
