18
gdb 51741	2.95255	1.08628	0.88017	2.6332	74.49	-0.254	0.0016	0.2555	1317.3191	0.147164	-439.065902	-439.057354	-439.056409	-439.100076	31.201	
O	-0.5912119516	 0.3297692241	-0.4746791935	-0.271696
C	-0.3203729439	 1.4559095134	-0.1881385311	 0.164051
O	 0.9478684281	 1.911799477	-0.1385482519	-0.188623
C	 1.1753219356	 3.2697127988	 0.2212575432	 0.058607
C	 2.0743543828	 3.5344630171	 1.4538450466	-0.256768
C	 2.7939438513	 4.6547805136	 0.6416733806	-0.301428
C	 2.1929190108	 4.0354100704	-0.6249799401	 0.331326
C	 2.8933530415	 3.4857934417	-1.8040066681	-0.29263
N	 2.0194585729	 4.6738709408	-1.9181356304	-0.374189
H	-1.065849465	 2.2367460636	 0.0607280122	 0.080105
H	 0.2156142054	 3.7994243286	 0.2890506035	 0.090852
H	 1.5736616307	 3.8144749383	 2.3818616877	 0.109489
H	 2.7259754326	 2.6772567655	 1.6353813289	 0.129653
H	 2.3902908219	 5.6503038717	 0.8452057471	 0.116736
H	 3.8824614995	 4.6926112502	 0.705801392	 0.116554
H	 3.9524345562	 3.6853531942	-1.9431395403	 0.123497
H	 2.5452216267	 2.5363069957	-2.200397149	 0.132994
H	 1.1258940744	 4.4135578654	-2.3308249073	 0.231471
