18
gdb 79787	3.77042	1.7248	1.6	1.309	72.75	-0.2276	0.065	0.2926	891.9323	0.150288	-401.87011	-401.863847	-401.862902	-401.900457	26.471	
C	-0.1379587216	 1.6026608616	 0.0196205421	-0.419774
C	 0.0201732197	 0.0952262843	-0.0439202659	 0.056456
C	 0.8291838737	-0.5975057998	-1.1707877806	-0.096985
C	 2.230864455	 0.0381629152	-1.0928207683	 0.07833
O	 3.1764467681	-1.0457887302	-1.2990164134	-0.29895
C	 2.7394953681	-1.5214926723	-0.0206828835	 0.07453
C	 2.339753134	-0.1179167363	 0.4796704594	-0.066497
N	 0.9736875782	-0.5553490956	 0.9330959537	-0.169002
C	 1.1870741806	-1.6742782134	-0.0882268236	-0.026854
H	 0.8206465018	 2.1228973276	-0.0727553556	 0.120594
H	-0.7893818518	 1.9547849465	-0.7873706265	 0.121689
H	-0.5897944699	 1.8974090517	 0.9720148832	 0.130522
H	-0.9539647003	-0.3890535839	 0.0888592711	 0.083318
H	 0.4291118454	-0.8235305627	-2.1591952178	 0.071668
H	 2.4652643993	 0.9357191472	-1.6608437341	 0.086906
H	 3.3820269318	-2.2605493658	 0.452532312	 0.092483
H	 2.9260703806	 0.5641954285	 1.0908647466	 0.08162
H	 0.6232412772	-2.5989558127	 0.0155306512	 0.079944
