22
gdb 112766	2.30339	1.21252	0.90792	3.9512	86.53	-0.2952	0.0329	0.3281	1387.5771	0.193721	-367.234114	-367.224166	-367.223222	-367.269221	36.531	
C	-0.0906358493	 1.6129886653	 0.082644585	-0.386151
C	 0.0237758581	 0.0927384379	-0.0728716187	-0.205351
C	 0.6798679397	-0.5670766239	 1.131463901	 0.044846
C	-0.0589889989	-0.5924961846	 2.4967829914	-0.244378
C	 0.494094258	-2.0194927603	 2.7495625194	 0.035397
C	-0.3813120252	-3.0537795831	 3.4354577217	-0.418256
C	 0.7901833484	-2.1360679952	 1.2060632621	-0.219872
C	-0.2398705697	-2.8402563835	 0.4580763048	 0.293206
N	-1.0668043074	-3.3974116413	-0.1291311802	-0.348876
H	 0.8952297569	 2.0771421958	 0.1981876736	 0.113861
H	-0.5703211607	 2.0626881929	-0.7915756581	 0.119093
H	-0.6869968391	 1.878845424	 0.9620040512	 0.120836
H	-0.9711845634	-0.3409883479	-0.2275968028	 0.11853
H	 0.6030096874	-0.1439595062	-0.9747495507	 0.102183
H	 1.6906056868	-0.165918882	 1.2676139068	 0.081307
H	 0.1860357744	 0.1816215357	 3.2271166675	 0.102621
H	-1.1455252053	-0.6110381748	 2.3556009976	 0.11139
H	 1.4627543813	-1.9529696786	 3.2554384022	 0.085434
H	-1.3384548805	-3.1705193358	 2.918377004	 0.139119
H	 0.1050405015	-4.0347041122	 3.4644230887	 0.122339
H	-0.5874597209	-2.7522163523	 4.4680475829	 0.118394
H	 1.761448448	-2.5596140201	 0.9370480704	 0.114326
