25
gdb 102572	2.13413	1.12623	0.86132	1.185	89.75	-0.2445	0.0879	0.3324	1505.1658	0.226909	-389.476236	-389.46521	-389.464266	-389.512308	40.473	
C	 0.6467879772	 1.181953547	 0.0620326902	-0.387207
C	 0.1072593724	-0.2439295602	 0.1932367749	-0.169687
C	-1.4118597388	-0.3368255369	 0.0111783624	 0.101083
O	-1.6780660862	 0.1323581804	-1.3073128554	-0.245156
C	-3.0272568673	 0.4182074678	-1.5873234321	-0.233797
C	-1.9139970597	-1.7570119142	 0.210717986	-0.003971
C	-1.9444015436	-2.3892092212	 1.5833746246	-0.306929
C	-3.2368954667	-2.1419549477	 0.8495804831	-0.003739
C	-4.2413122138	-1.1451232005	 1.3865495827	-0.410647
H	 1.7348352915	 1.2032726483	 0.1777579778	 0.106081
H	 0.3957536248	 1.5998435124	-0.9155874928	 0.131956
H	 0.2184700548	 1.8386028584	 0.8283483082	 0.105312
H	 0.578739589	-0.8936350493	-0.5546450045	 0.099553
H	 0.3608015142	-0.6579497217	 1.1750747169	 0.095946
H	-1.8958369041	 0.3374182417	 0.7392676657	 0.054771
H	-3.4457825716	 1.149464094	-0.8779512775	 0.099494
H	-3.0613250975	 0.8484241901	-2.5920443796	 0.120739
H	-3.6602872449	-0.4798455355	-1.5690358218	 0.110672
H	-1.5885957849	-2.4099907951	-0.5962939697	 0.086592
H	-1.5758474777	-3.4023155172	 1.7011886369	 0.109275
H	-1.7343737282	-1.7433473795	 2.4318141544	 0.107213
H	-3.6980852099	-3.0238085967	 0.4108070736	 0.082714
H	-3.7554518885	-0.2805575828	 1.8483460474	 0.117112
H	-4.9052395533	-0.7719973952	 0.5992154656	 0.11521
H	-4.8679047673	-1.6124590963	 2.1544702432	 0.117411
