20
gdb 9276	5.9099	0.73128	0.68281	3.0643	72.83	-0.2491	-0.02	0.2291	1610.6926	0.174007	-386.149556	-386.139409	-386.138465	-386.185651	34.771	
C	-0.067012158	 1.5883596135	-0.1750304288	-0.391739
C	 0.0564066431	 0.0654389429	-0.038580901	 0.03903
C	 0.7354232484	-0.537537115	-1.2708273551	-0.079789
O	-0.0662901836	-0.2554319948	-2.4079394444	-0.422555
C	 0.8095741804	-0.363761802	 1.2320693124	-0.202555
C	 0.1169892206	 0.0470256543	 2.5441583546	-0.280752
C	 0.7880572313	-0.5809241181	 3.743994007	 0.16065
O	 1.2381735661	 0.0227587032	 4.6830482612	-0.236825
H	 0.922098099	 2.0623715804	-0.1468800271	 0.10849
H	-0.536941896	 1.8429988996	-1.127180547	 0.137233
H	-0.668004728	 2.0218218255	 0.6290920591	 0.11365
H	-0.9553118758	-0.3629148613	 0.0010605015	 0.082821
H	 1.7461625244	-0.1092179798	-1.3796036304	 0.08431
H	 0.8527707481	-1.6246347855	-1.1323491058	 0.082219
H	 0.3982259995	-0.5652212023	-3.1903892887	 0.2881
H	 0.9293429946	-1.4559392526	 1.2247212463	 0.096904
H	 1.8239434487	 0.057319658	 1.2161635598	 0.109055
H	 0.1029532697	 1.1302159318	 2.6850374688	 0.126587
H	-0.9234784641	-0.3106070879	 2.5249631542	 0.117508
H	 0.8495204818	-1.6951211198	 3.6992408536	 0.067655
