19
gdb 32924	5.84908	0.80255	0.71741	1.8522	81.63	-0.1907	0.0361	0.2268	1615.7051	0.159498	-419.253929	-419.24457	-419.243626	-419.288714	33.566	
C	 0.094872332	 1.5244789639	-0.045653847	-0.397892
C	-0.1116926591	 0.016673254	-0.1356494115	-0.109367
N	 0.6989984507	-0.5475818427	-1.209512727	-0.403606
C	 0.7985194848	-1.9047679075	-1.3192165339	 0.499904
N	 0.497990252	-2.809248391	-0.4377109739	-0.359899
C	 0.871246294	-4.0018489755	-1.061733699	-0.193245
C	 1.3681004562	-3.7586670751	-2.2926451391	 0.317198
C	 1.9034733807	-4.5773133428	-3.4057812802	-0.493989
O	 1.3253371193	-2.3790877484	-2.4748270555	-0.238974
H	 1.1454655189	 1.7653134188	 0.1403406317	 0.130719
H	-0.2100259002	 2.0243149083	-0.9726245778	 0.113793
H	-0.5068827019	 1.9415827019	 0.7664620882	 0.125309
H	 0.1954925642	-0.4741253489	 0.791408287	 0.143044
H	-1.1783329959	-0.2173736922	-0.2735264981	 0.104151
H	 0.6573446968	-0.0656085147	-2.0959527945	 0.244788
H	 0.7458359725	-4.9549098951	-0.5715249792	 0.111896
H	 1.3172157816	-4.4527168375	-4.3241786113	 0.133366
H	 2.9419079588	-4.3165235864	-3.6426466565	 0.135057
H	 1.8747502448	-5.633372429	-3.1265919024	 0.137746
