18
gdb 18756	2.85823	2.23225	1.57087	0.6285	66.67	-0.2422	0.0586	0.3009	862.9609	0.15374	-384.901947	-384.894321	-384.893377	-384.933787	29.306	
C	 0.2455935893	 1.4396793114	-0.43523558	-0.416094
C	 0.036553669	 0.0266750942	 0.0833805457	 0.144007
O	 0.5244356115	-0.9885024857	-0.8354632411	-0.309873
C	 1.2759798372	-1.6363228041	 0.2085433646	 0.122255
C	 2.7450715996	-1.1479754757	 0.2704420351	-0.292542
C	 2.3481097266	-0.1998722432	 1.4492014893	 0.136802
O	 2.7854213381	 1.133352097	 1.4904553198	-0.428387
C	 0.8482160635	-0.5709756954	 1.2601105842	-0.1474
H	 1.2638930559	 1.586146687	-0.8087282909	 0.109185
H	-0.4273049593	 1.6309664522	-1.2770983062	 0.130211
H	 0.0370715189	 2.1779355358	 0.3453690979	 0.130295
H	-1.0376909709	-0.1278088494	 0.2599302602	 0.081901
H	 1.0719989132	-2.7068885121	 0.2772905756	 0.077137
H	 3.5046887212	-1.8941343184	 0.5159458123	 0.1038
H	 3.0329455401	-0.636276449	-0.6517863173	 0.1067
H	 2.6845016694	-0.6332804974	 2.3961379402	 0.097486
H	 2.5841532896	 1.5490291089	 0.6475667772	 0.281064
H	 0.2767586371	-0.778396926	 2.1645519933	 0.073452
