17
gdb 125846	3.09386	1.51593	1.10857	1.3846	75.47	-0.2437	0.0173	0.2611	1081.5294	0.137637	-417.992213	-417.984327	-417.983382	-418.024762	29.701	
C	-0.3893250232	 1.5970132473	-0.1819634427	-0.398126
C	 0.0321206525	 0.1549634826	 0.0100200941	 0.00545
C	 0.794959428	-0.571369389	-1.2041741873	-0.040016
O	 0.9725507782	 0.1445300846	-2.3931857015	-0.409859
C	 1.9620521419	-0.7071123687	-0.2291075597	 0.313668
C	 3.1431795851	-1.1624997912	 0.3330293454	-0.394989
C	 3.0327111626	-0.7203368337	 1.678107345	 0.013567
N	 1.8831848009	-0.0697750131	 1.9444037252	-0.307029
N	 1.2934340803	-0.0701427949	 0.7473730947	 0.090017
H	 0.4284592663	 2.2029342795	-0.5820501718	 0.114066
H	-1.2284275042	 1.6469665623	-0.8819910746	 0.136888
H	-0.7044658113	 2.0364572395	 0.7686288182	 0.14139
H	-0.7860210951	-0.4487527197	 0.4163849772	 0.106452
H	 0.3201313531	-1.5147913048	-1.4843044489	 0.115833
H	 1.5946669704	 0.8606415874	-2.2255059258	 0.289757
H	 3.9552372976	-1.7098127012	-0.1151126754	 0.110174
H	 3.7575175269	-0.8479428767	 2.4697476479	 0.112758
