20
gdb 90613	3.28248	1.42656	1.27428	3.4451	78.25	-0.2229	0.0688	0.2917	1070.5204	0.172033	-403.085951	-403.078138	-403.077194	-403.117747	32.035	
C	-0.0854113454	 1.5163735282	 0.0537101813	-0.513782
C	 0.1126489064	 0.0336099888	 0.0020993313	 0.342441
N	-0.8255657002	-0.888859804	 0.6945850743	-0.39438
C	 0.634768041	-0.9479631756	 1.0004500154	-0.114507
C	 1.3057496386	-1.7866428038	-0.1037913297	-0.057609
C	 0.454603764	-2.9240483384	-0.7794870602	 0.135657
O	-0.4772683004	-3.6117485676	 0.002099389	-0.437014
C	-0.0743337261	-1.8862240467	-1.8352690568	-0.281324
C	 0.7642121269	-0.7690078769	-1.1591274084	-0.077575
H	 0.8237593042	 2.0430785139	-0.2548072924	 0.128929
H	-0.8961677005	 1.8311663658	-0.6142557037	 0.131316
H	-0.3370795464	 1.8478613298	 1.0676174065	 0.116892
H	-1.266975881	-0.3586857884	 1.4447794232	 0.228908
H	 0.9697464772	-0.8077314023	 2.0219154905	 0.092624
H	 2.3730042224	-1.9577953335	 0.0377268668	 0.063843
H	 1.0963838181	-3.6821471254	-1.2380107824	 0.080062
H	-1.0384266945	-2.9177521401	 0.3812451317	 0.291548
H	 0.2358999092	-2.1069377165	-2.8599533605	 0.093774
H	-1.1564207275	-1.7429869605	-1.8123262822	 0.104516
H	 1.4458984141	-0.1825131067	-1.7753163836	 0.065679
