15
gdb 127679	2.52982	1.87634	1.08459	5.1858	73.48	-0.2224	-0.0335	0.1889	1044.5014	0.114152	-450.151114	-450.142998	-450.142054	-450.184639	29.301	
C	 0.0097449702	 1.4166526418	-0.0073081639	-0.316277
N	-0.0515011174	-0.0405657545	-0.019562719	-0.081968
N	-0.2966095323	-0.6147508489	-1.2456582139	-0.245755
C	-0.3530993524	-1.8934989946	-1.2716058123	 0.108397
N	-0.1875370983	-2.7034921851	-0.1755789408	-0.384815
C	 0.0644075664	-2.2138455429	 1.1064504725	 0.286249
N	 0.2279413091	-2.9007977776	 2.163131595	-0.484121
C	 0.1384411703	-0.7031726565	 1.1777813891	 0.407316
O	 0.3493303264	-0.1018481924	 2.2083595337	-0.347042
H	 0.9873327786	 1.7527013236	 0.348305492	 0.1498
H	-0.1619635701	 1.7562810518	-1.0268226708	 0.146232
H	-0.7508797855	 1.8229967441	 0.6645330127	 0.14985
H	-0.5441939366	-2.3839220307	-2.218051809	 0.146208
H	-0.2497458402	-3.7045326582	-0.2951363307	 0.256791
H	 0.154217102	-3.90394816	 1.9800353155	 0.209135
