14
gdb 133676	3.25692	0.96298	0.87419	1.44	54.8	-0.2739	0.0172	0.2911	1256.0413	0.097154	-564.386435	-564.377517	-564.376572	-564.420836	31.498	
N	-0.0930961324	 1.4710566168	 0.0614269183	-0.511082
C	-0.0051631781	 0.0267309621	 0.000179777	-0.125259
C	 0.663092892	-0.5621493817	-1.2783178337	-0.364292
C	-0.0145746408	-0.0865569011	-2.4785908286	 0.252853
N	-0.5773736051	 0.3185116555	-3.4030213017	-0.298809
C	 0.7611302623	-0.4624121937	 1.2309170535	 0.310746
F	 0.1380446424	-0.1512521002	 2.3627315096	-0.054973
F	 0.9174453087	-1.7971937097	 1.1993378268	-0.085582
F	 1.9910665196	 0.0844982641	 1.268775837	-0.091629
H	 0.8229535378	 1.8935528179	-0.0538414162	 0.242403
H	-0.6926399436	 1.8225429653	-0.6772315031	 0.258775
H	-1.0162878298	-0.3838190615	 0.085183307	 0.135167
H	 1.7142643783	-0.2547774951	-1.3143595763	 0.162402
H	 0.6436555886	-1.6558807588	-1.2564696496	 0.16928
