18
gdb 97596	4.37079	0.57493	0.52712	3.1831	82.47	-0.2671	0.0144	0.2814	2018.2015	0.145508	-401.932956	-401.922386	-401.921442	-401.97093	35.985	
C	-0.0112278494	 1.5094556241	-0.1708014768	-0.39166
C	-0.039836876	-0.0185549539	 0.0217212159	-0.167895
C	 0.7334570043	-0.4557283584	 1.3007452374	-0.330231
C	 2.1474936359	-0.0916066377	 1.2518818582	 0.260789
N	 3.2637265491	 0.2018402642	 1.1918824667	-0.309514
C	-1.4077488966	-0.5283725857	 0.0831600086	 0.015776
C	-2.5379461512	-0.9376594891	 0.1703971181	 0.105858
C	-3.9023049796	-1.4663706384	 0.2155546719	-0.196325
O	-3.9863433898	-2.8476085315	-0.1023713822	-0.398901
H	 1.0202634611	 1.866694122	-0.2327071734	 0.145837
H	-0.5323105939	 1.7864605281	-1.0900203571	 0.133148
H	-0.5062667412	 2.0130730773	 0.6650303467	 0.129198
H	 0.4654776449	-0.4814126965	-0.8357778196	 0.127214
H	 0.2752219836	 0.0066837085	 2.1816593345	 0.159953
H	 0.6515393973	-1.5392350813	 1.4296356914	 0.163782
H	-4.3084307986	-1.3697850547	 1.2285032081	 0.142959
H	-4.5467377635	-0.8611029038	-0.4418676695	 0.121377
H	-3.5638443063	-2.9741462532	-0.9583523687	 0.288635
