22
gdb 110612	3.05262	1.26142	1.112	1.2775	86.42	-0.2311	0.0848	0.316	1227.3581	0.193944	-367.154781	-367.1459	-367.144956	-367.188127	34.644	
C	 0.3183804778	 1.5390627306	 0.0542165402	-0.373868
C	-0.2265875089	 0.1225434639	-0.1173306353	-0.114245
N	 0.5271532233	-0.5791896389	-1.1515181642	-0.084804
C	 1.7387711542	-1.3165962059	-0.8538570163	-0.060134
C	 1.6889399403	-2.1212384506	 0.4324035272	-0.127986
C	 1.7173307845	-3.5905601713	 0.0909047471	-0.331294
C	 0.417949879	-2.8363997606	-0.0608330259	 0.346463
C	-0.8342253744	-3.2302432816	 0.6759827829	-0.49795
C	 0.4839193654	-2.0159913999	-1.3438102305	-0.132502
H	 1.3605757542	 1.5171745969	 0.3900110624	 0.116432
H	 0.2823044189	 2.083541274	-0.8934869032	 0.124454
H	-0.2640937284	 2.091072323	 0.7984424848	 0.108278
H	-0.2107715757	-0.3984196228	 0.8504783778	 0.092201
H	-1.2717552212	 0.1611236366	-0.4472029673	 0.097593
H	 2.6378371723	-1.0809911124	-1.4138838113	 0.091584
H	 1.9027393534	-1.7608440021	 1.4323252617	 0.088058
H	 2.2662914991	-3.93174687	-0.7835463052	 0.105591
H	 1.7648829702	-4.273515151	 0.9357906853	 0.105889
H	-0.6006499975	-3.6216114012	 1.6717885806	 0.11687
H	-1.5204802343	-2.3869362255	 0.7986175487	 0.121767
H	-1.3730502433	-4.0170960422	 0.134507192	 0.120893
H	 0.264270931	-2.386972429	-2.3405551312	 0.086707
