23
gdb 89413	2.66139	1.39794	1.06693	1.8101	84.84	-0.2494	0.0783	0.3276	1242.5519	0.205263	-388.301113	-388.291708	-388.290763	-388.334883	36.637	
C	 0.1079359745	 1.616359749	-0.0751246499	-0.409664
C	 0.0568155992	 0.0921205953	 0.0232166477	 0.03427
C	 0.5878412454	-0.6374477325	-1.2417506564	-0.293728
C	 1.1275922945	-1.9747589897	-0.742536262	 0.414055
C	 0.9332511355	-3.238291503	-1.5353174429	-0.490018
O	 2.4156154665	-1.8132659328	-0.1197882835	-0.293276
C	 1.2557357097	-1.9053788253	 0.7233867185	-0.02916
C	 0.7861281613	-0.5543859862	 1.2554312962	-0.033229
C	 1.9465656453	 0.2524954789	 1.8533182348	-0.391101
H	 1.1343826532	 1.9787498209	-0.1915662123	 0.121627
H	-0.4649229806	 1.9641893059	-0.9416314353	 0.110498
H	-0.3183031363	 2.0939381904	 0.8136891747	 0.111779
H	-0.9978115531	-0.1960726675	 0.1217036279	 0.072365
H	-0.2039549906	-0.7680439435	-1.9865559541	 0.09419
H	 1.3990554632	-0.0790474916	-1.7232133124	 0.107399
H	 1.4123820281	-3.1573147041	-2.5175712643	 0.12641
H	 1.37268227	-4.0921221304	-1.0131579	 0.127288
H	-0.1316138008	-3.4361382891	-1.6988129373	 0.118752
H	 1.225745006	-2.7889667939	 1.3594274119	 0.082266
H	 0.0484151705	-0.7266232566	 2.0486049233	 0.067391
H	 2.7332293032	 0.4145996326	 1.1127493458	 0.133287
H	 1.6090154507	 1.2236671807	 2.225672249	 0.109118
H	 2.3919920946	-0.2887124575	 2.6948771605	 0.109481
