21
gdb 102294	2.31802	0.98712	0.8168	3.672	80.16	-0.235	0.028	0.263	1503.2086	0.180838	-420.408116	-420.397403	-420.396459	-420.444405	38.542	
C	 0.0783576604	 1.5578965114	 0.1812017188	-0.391829
C	 0.0568302491	 0.0284513565	 0.1233272495	 0.064312
C	 0.2609435923	-0.5801191435	 1.5228881451	-0.387018
N	-1.1711239036	-0.3831598789	-0.5626932542	-0.282133
C	-1.3310261793	-1.7892196192	-0.8925722897	-0.142746
C	-2.2913873688	-2.5486344544	 0.0581627671	-0.081472
O	-3.5411843079	-1.894954634	 0.1490306005	-0.416133
C	-1.8659721858	-1.9240993424	-2.2687333563	 0.281596
N	-2.3442547531	-2.0497849665	-3.3137019731	-0.327665
H	 1.0142326162	 1.9186917349	 0.6176495844	 0.116107
H	-0.0329498105	 1.9815106666	-0.8196624436	 0.130094
H	-0.7433943876	 1.9331497182	 0.8033016027	 0.114398
H	 0.8889104198	-0.2985351986	-0.5155403378	 0.087291
H	-0.5539763386	-0.2880522886	 2.195502477	 0.117271
H	 0.3006901336	-1.6738550784	 1.492139059	 0.109837
H	 1.2016734806	-0.2329742576	 1.9634402384	 0.116655
H	-2.0067903775	-0.0543369948	-0.0890449194	 0.229149
H	-0.3537082232	-2.2863781737	-0.8723528702	 0.124344
H	-2.3942425049	-3.5932785232	-0.2681797822	 0.111558
H	-1.8669944891	-2.5397953574	 1.065128987	 0.124101
H	-3.9911246821	-1.9911309366	-0.699122473	 0.302282
