19
gdb 94227	3.21382	1.08584	0.9861	2.1709	77.03	-0.2496	0.0365	0.2861	1259.0625	0.156766	-422.982527	-422.973058	-422.972114	-423.01661	36.206	
O	 0.3092239752	 0.9524584501	-0.693342276	-0.438903
C	 0.1341889264	-0.1666887352	 0.1211931978	 0.134942
C	 0.0741533963	-0.0312579573	 1.6705426271	-0.268135
C	-1.0515890242	-1.1042967857	 1.6726854169	-0.266267
C	-1.2865670895	-0.8045473145	 0.1646577854	 0.361834
O	-2.1924915285	 0.2719852818	-0.0225112274	-0.494578
C	-1.6030706796	-1.9558485659	-0.8011464253	-0.419401
C	-2.9794086649	-2.4160070093	-0.6505134958	 0.263068
C	-4.1311233394	-2.7227051875	-0.484581873	-0.429354
H	-0.5273537118	 1.4353369889	-0.6626366749	 0.293264
H	 0.8834131324	-0.9091019154	-0.1742146696	 0.082821
H	 0.9869018404	-0.2416554982	 2.231055587	 0.098927
H	-0.3066855745	 0.9519439336	 1.9561257912	 0.111347
H	-0.6692364338	-2.1158245646	 1.8361367417	 0.100671
H	-1.9071990097	-0.9363616321	 2.3289896087	 0.104562
H	-3.0880802136	-0.0862305639	 0.0148328706	 0.288474
H	-1.4397396848	-1.601536308	-1.8267985333	 0.144874
H	-0.9045919854	-2.7831074974	-0.6300226913	 0.129993
H	-5.139356201	-3.0310667994	-0.3563892098	 0.201861
