15
gdb 77770	2.90906	1.54594	1.17057	4.8928	65.94	-0.2483	0.0042	0.2525	1021.2657	0.111096	-457.686907	-457.679384	-457.67844	-457.71874	29.103	
O	-0.0606046653	 1.4423734806	-0.0438773461	-0.431758
C	 0.0146160606	 0.0490597191	 0.004541576	 0.163046
C	 0.0128787798	-0.6683700187	 1.4122104496	-0.354912
C	-1.4573439383	-0.1735701922	 1.4752515266	 0.462131
O	-2.2293358234	 0.303119097	 2.2385247921	-0.30508
C	-1.3723085807	-0.6624675412	 0.0001443654	-0.324312
C	-0.597447866	-1.8439062858	 0.6229374293	 0.533167
C	-0.0816247972	-3.1035473387	 0.1085927206	-0.308124
O	-1.1154334765	-3.0385551832	 1.125085153	-0.28733
H	 0.798714695	 1.8075362249	 0.1904664753	 0.293559
H	 0.7374577594	-0.370685047	-0.7038053714	 0.08884
H	 0.7911812996	-0.6849836991	 2.1710413434	 0.101968
H	-2.1183721386	-0.6696502669	-0.789267688	 0.109694
H	-0.4133501173	-3.4771075954	-0.8582786201	 0.130447
H	 0.8767183789	-3.4859029436	 0.4549365143	 0.128662
