19
gdb 61861	2.00337	1.16744	0.83229	5.2948	73.66	-0.259	-0.0253	0.2337	1429.9879	0.154808	-460.215985	-460.205409	-460.204465	-460.252975	36.157	
C	 0.024693532	 1.6617962491	 0.0528679469	-0.401133
C	-0.0007521069	 0.1396068429	-0.0027683027	 0.124135
C	 0.6875525197	-0.5198632755	 1.1894804681	-0.31297
C	 0.8635470612	-2.027756858	 1.0215883753	 0.394953
C	 1.1965973824	-2.8089993753	 2.2753146857	-0.477769
O	 0.7485042421	-2.5595558073	-0.0595726628	-0.299094
O	-1.3778498168	-0.2862419462	 0.0011055481	-0.204138
C	-1.8256775903	-1.0428890095	-1.0231373734	 0.169875
O	-2.9535180771	-1.4313653052	-1.081088007	-0.28228
H	 1.0555044793	 2.0290564637	 0.0419477361	 0.120515
H	-0.5007012164	 2.0833124036	-0.8081316413	 0.131567
H	-0.4640532913	 2.0250876344	 0.9618650346	 0.133244
H	 0.4746589874	-0.2172909962	-0.9235675786	 0.107383
H	 1.6882603367	-0.0883022399	 1.3304347412	 0.13012
H	 0.1327031391	-0.3071586212	 2.1107689333	 0.131656
H	 2.0074980905	-2.330396069	 2.834915933	 0.13628
H	 0.320520084	-2.8230460552	 2.9347875768	 0.153682
H	 1.4685769242	-3.8330146855	 2.0175631703	 0.148786
H	-1.0474152097	-1.2504824196	-1.7783014336	 0.095189
