18
gdb 76583	3.35477	0.81127	0.77256	1.1024	97.5	-0.2213	-0.0209	0.2003	1545.2261	0.144573	-364.729581	-364.719656	-364.718712	-364.764565	36.04	
C	 2.0377839684	-0.8444364809	 2.6093365878	-0.423434
C	 1.1138627009	-1.1227961539	 1.4456599281	 0.014184
C	 0.2082079089	-0.0591928041	 0.8641048668	-0.274988
C	 0.2421434479	 1.2795680803	 1.3683048486	 0.484829
C	 0.2364159626	 2.4258579856	 1.7646790645	-0.30103
C	 0.2349316184	 3.7079784785	 2.216087877	 0.299047
C	 0.2341789191	 4.8480238377	 2.6160942268	-0.563916
N	 1.3360483817	-0.6297379407	 0.0956434971	-0.097497
C	 2.4916520098	 0.2081227146	-0.2016197292	-0.316323
H	 2.954224914	-1.4381834954	 2.5232375205	 0.125862
H	 2.3118931226	 0.2088547767	 2.6872577714	 0.138814
H	 1.5454373857	-1.1288604668	 3.5446608437	 0.129617
H	 0.6945917446	-2.1290349622	 1.4524168409	 0.098338
H	-0.7670230481	-0.3662060341	 0.4899693428	 0.117939
H	 0.2326161429	 5.8492818853	 2.968944498	 0.191782
H	 2.3011662458	 0.7378774541	-1.1395482796	 0.131648
H	 2.7372690871	 0.9546613276	 0.5640860752	 0.119964
H	 3.3589954076	-0.4424985526	-0.3491780303	 0.125164
