17
gdb 10841	4.51853	1.49441	1.18936	2.9911	65.91	-0.2574	0.018	0.2754	987.1504	0.143734	-401.014988	-401.007449	-401.006505	-401.046824	28.516	
O	-0.0008631929	 1.430623813	 0.0572894357	-0.426738
C	 0.0125337206	 0.0132128946	 0.0241623822	 0.098457
C	-1.4254138322	-0.4849186539	 0.0327823049	-0.218648
C	-1.4309839596	-2.0138826023	-0.0871640705	-0.278324
C	-0.5688340732	-2.536809504	-1.2139151021	 0.384818
N	-0.8827450939	-3.57929379	-1.8583023258	-0.498201
O	 0.6283676055	-1.900987867	-1.4260444366	-0.253369
C	 0.6938603539	-0.480989632	-1.2546006295	-0.101426
H	 0.9033131264	 1.7429553313	 0.165571676	 0.287372
H	 0.5430699793	-0.398442181	 0.898074	 0.075347
H	-1.932831311	-0.1653146465	 0.9473169669	 0.111495
H	-1.9563036665	-0.0260208172	-0.8102734849	 0.115548
H	-1.0364127856	-2.4471546714	 0.8422848643	 0.12747
H	-2.4373060097	-2.4126477698	-0.2203296841	 0.136481
H	-0.1557075611	-3.7932269688	-2.5450201091	 0.218237
H	 0.2252517236	 0.0206503207	-2.1127250082	 0.115038
H	 1.7608300665	-0.2371169158	-1.2581554291	 0.106443
