21
gdb 115626	2.54533	1.1878	0.96565	1.8199	79.27	-0.2493	0.0762	0.3255	1334.5593	0.180223	-424.197246	-424.187554	-424.18661	-424.232097	35.342	
C	 0.0304111276	 1.532818864	-0.4013181136	-0.388016
C	 0.0401735767	 0.0453890472	-0.0383936663	-0.179595
C	-1.3566195536	-0.4830955144	 0.2446536159	 0.046697
O	-2.235891205	-0.4103147391	-0.9135304437	-0.299521
C	-2.3937233352	-1.8446216352	-0.9779926393	-0.15722
C	-1.5386769831	-2.0031264727	 0.2722334387	 0.344859
O	-0.4855372548	-2.9344209794	 0.415244296	-0.281572
C	-1.5679903024	-2.9665797978	 1.3704772631	-0.012171
C	-1.2350982575	-2.5988625585	 2.7923973283	-0.422444
H	 1.0377238416	 1.8874568191	-0.638137821	 0.112617
H	-0.6081876963	 1.7082734484	-1.2715914677	 0.137366
H	-0.3538365621	 2.1412882871	 0.4251125954	 0.111315
H	 0.4822091031	-0.5429085245	-0.8503965522	 0.107119
H	 0.6612575064	-0.1325896339	 0.8484941609	 0.10238
H	-1.806388008	 0.0490835534	 1.0958671263	 0.074812
H	-3.4440362206	-2.1507777104	-0.8976959518	 0.106309
H	-1.9556477395	-2.2770086539	-1.886433397	 0.114845
H	-2.2172275347	-3.8365914436	 1.2527934318	 0.092592
H	-0.6093048994	-1.7034603273	 2.8313968487	 0.129643
H	-2.1517447959	-2.409183512	 3.3613592265	 0.126217
H	-0.6965801073	-3.4147393264	 3.285144751	 0.133767
