15
gdb 50026	3.14649	1.082	0.98167	3.1617	69.37	-0.2605	-0.071	0.1895	1213.2362	0.109563	-457.750402	-457.742095	-457.741151	-457.784148	29.657	
O	-0.5972956986	 0.7557337668	 0.8262170978	-0.239455
C	 0.1975113272	 0.9600506668	-0.0542042649	 0.152654
C	 1.2943282086	 1.9690293554	 0.0446769803	-0.142281
O	 2.3990483001	 1.7589654595	-0.8407616793	-0.258979
C	 1.565457932	 2.8493290027	-1.1243051229	 0.322298
C	 0.7683179559	 3.1105438874	-2.4173478194	-0.343908
C	 1.0276591393	 4.6405821709	-2.2464682607	-0.346975
C	 1.9585597233	 4.328282071	-1.0539398472	 0.34287
O	 2.7043153089	 4.9593709586	-0.369388489	-0.283404
H	 0.1809302941	 0.4117202067	-1.0212627488	 0.095546
H	 1.5395452328	 2.3343445578	 1.0401911846	 0.140793
H	 1.2610175901	 2.6827834573	-3.292920946	 0.137184
H	-0.2775406279	 2.8023693747	-2.4076974845	 0.129913
H	 1.5194084472	 5.1467672926	-3.0801582087	 0.146727
H	 0.152154947	 5.2249428619	-1.9501329114	 0.147017
