21
gdb 114393	3.86233	0.95115	0.92285	2.1974	79.79	-0.2381	0.074	0.3121	1380.4736	0.180308	-424.179412	-424.16992	-424.168976	-424.213221	36.172	
C	 0.1986996172	 1.2888522065	 0.1409386771	-0.239398
O	-0.2132950294	-0.0179700966	-0.1878733149	-0.247179
C	 0.5051085367	-0.5703644442	-1.264046414	 0.134073
C	 1.9150875595	-1.1405555809	-0.8700243907	-0.2874
C	 1.4065599371	-2.5554084866	-1.1708271103	-0.127082
C	 0.0208540687	-1.990359229	-1.5400596454	-0.121168
C	 0.8612815951	-2.6827564855	-2.5724985249	 0.406491
C	 1.4562341561	-2.0352487871	-3.803650495	-0.463138
O	 0.3202118015	-3.9591522684	-2.8348829583	-0.47391
H	 1.2492452837	 1.3245214901	 0.4674819679	 0.10543
H	 0.081335636	 1.9771013858	-0.711194532	 0.10399
H	-0.4343870792	 1.6318395878	 0.9626540333	 0.127494
H	 0.489052505	 0.1283689419	-2.1161190626	 0.057511
H	 2.7931772643	-0.7899811409	-1.4224740968	 0.089107
H	 2.0794277962	-0.9852465057	 0.198780349	 0.114441
H	 1.6380002138	-3.4467652741	-0.599199744	 0.082761
H	-0.9667263938	-2.3589906312	-1.2939283308	 0.101298
H	 1.846874064	-1.0340605599	-3.6089045977	 0.123313
H	 2.285980948	-2.6415333806	-4.1885216725	 0.105367
H	 0.6999514408	-1.9624063451	-4.5914642391	 0.128377
H	 1.0530625985	-4.5465959063	-3.0508986084	 0.279621
