15
gdb 131322	4.93317	1.30372	1.05029	4.4789	67.09	-0.2055	0.0364	0.2419	1072.9981	0.117215	-450.151783	-450.144898	-450.143954	-450.183081	26.476	
O	-0.0156711223	 1.2287673177	-0.1100194083	-0.406555
C	 0.0163395036	-0.1088479186	-0.0610856003	 0.417201
N	-0.1101196688	-0.8369742666	-1.156385275	-0.351307
N	-0.0947119634	-2.0991714895	-0.6015359061	 0.026518
C	 0.1367858549	-3.4254904363	-1.1280248062	-0.16903
C	 0.003982732	-4.240574791	 0.1926887127	-0.180928
N	 0.3833122331	-3.2716258734	 1.2516228622	-0.40893
C	 0.1299834383	-2.0229897841	 0.7172681354	 0.463121
N	 0.1738976739	-0.7730910167	 1.1347060095	-0.47938
H	 0.1185204199	 1.5360191264	 0.7943471323	 0.309572
H	-0.6027371616	-3.7171938167	-1.8764181499	 0.137501
H	 1.1394829688	-3.5100324576	-1.5662814905	 0.131223
H	-1.032775064	-4.5790812694	 0.3158048758	 0.122585
H	 0.6621945364	-5.110913555	 0.2091658456	 0.130385
H	 0.0247595191	-3.4524385691	 2.1786599726	 0.258024
