14
gdb 26596	2.46019	1.87486	1.07104	1.6601	68.69	-0.2356	-0.0564	0.1792	1039.3174	0.101063	-473.89379	-473.886032	-473.885088	-473.926334	28.483	
C	 0.026802299	 1.5342991708	 0.0410326645	-0.476875
C	-0.0296689635	 0.0393124149	 0.0360465106	 0.209494
C	-1.1849260678	-0.6693177214	-0.0829759978	 0.163608
O	-2.4064860882	-0.1103965627	-0.2096035352	-0.4256
C	-1.1684358267	-2.12135289	-0.080427261	 0.382773
O	-2.1567783175	-2.8097315156	-0.1822162421	-0.376018
O	 0.0763574907	-2.6984767677	 0.0486066926	-0.190052
C	 1.1697899064	-1.9053597766	 0.1611875595	 0.114593
N	 1.1799036991	-0.6322243449	 0.1614922095	-0.311054
H	 0.6613654291	 1.8891574315	-0.7782591523	 0.14658
H	-0.9679326746	 1.9686444992	-0.0617686808	 0.14892
H	 0.4809007867	 1.8901003208	 0.9721786244	 0.146579
H	-3.0293727554	-0.8536268135	-0.2735324376	 0.313562
H	 2.0732627827	-2.496960425	 0.2549357157	 0.15349
