16
gdb 37818	3.08749	2.03957	1.74879	0.8828	73.12	-0.23	-0.0033	0.2267	828.667	0.12579	-400.615672	-400.609586	-400.608642	-400.645723	25.857	
C	-0.029046839	 1.4805376467	-0.2205477392	-0.406213
C	 1.4349170456	 1.8736425709	 0.0234820663	-0.041576
C	 2.1830703385	 0.9236227175	 0.6095300573	-0.204427
C	 1.3291557331	-0.2635221353	 0.8726372435	 0.215005
N	 0.5307354957	-0.5376158777	 2.1312656397	-0.379563
C	-0.307602778	-1.1482355481	 1.0522481773	-0.159718
C	 0.9012287798	-1.5908615249	 0.1395461771	 0.014526
O	 0.4224549758	-0.9091222591	-1.0432824425	-0.347903
C	 0.052266125	-0.0051044282	 0.050262751	 0.440094
H	-0.7017360356	 2.0042125437	 0.4680228948	 0.135423
H	-0.3644311765	 1.6930306093	-1.2405836382	 0.131
H	 1.8057842683	 2.8567669373	-0.251391839	 0.103907
H	 3.226682179	 1.0350104814	 0.8777076122	 0.104804
H	 0.9791263787	-1.2704003285	 2.6862515437	 0.211673
H	-1.2554503054	-1.6562746034	 1.2371558597	 0.090111
H	 1.3904784951	-2.5609115917	 0.0279432663	 0.092858
