16
gdb 116640	2.65972	0.85321	0.67397	3.4853	82.47	-0.2569	0.0041	0.261	1638.3863	0.11943	-400.653088	-400.642815	-400.641871	-400.68963	35.385	
C	 0.0120772145	 1.3832439774	-0.0306580272	-0.253503
O	-0.0149661138	-0.0394978185	 0.0432896075	-0.189258
C	 0.56729981	-0.6874793112	-0.9753904283	 0.147241
N	 0.5922429441	-1.9482031672	-0.9997492671	-0.19312
C	 1.2557934921	-2.5493574738	-2.1623001987	-0.364041
C	 2.4107204591	-3.3489635138	-1.7283185904	 0.36871
C	 3.3715136089	-3.9799348465	-1.3830655656	-0.449007
C	 0.3006092724	-3.3686948087	-2.9224790267	 0.368639
C	-0.480932762	-4.016009886	-3.563269061	-0.448938
H	 1.0403058377	 1.7634168145	-0.0389559331	 0.132333
H	-0.5191550776	 1.7473498367	-0.9178210865	 0.132366
H	-0.4957867977	 1.7441463791	 0.8639188318	 0.152182
H	 1.0000271199	-0.0351056216	-1.7504679694	 0.080171
H	 1.6375675527	-1.770691327	-2.8497755104	 0.115002
H	 4.2136966905	-4.5472251857	-1.0720570466	 0.200613
H	-1.1728660706	-4.5979314077	-4.1204132983	 0.200609
