17
gdb 84548	3.75754	1.25374	1.06988	1.6583	74.05	-0.2365	-0.0277	0.2087	1109.7927	0.136296	-421.84133	-421.833666	-421.832722	-421.873725	29.754	
O	 0.3329990665	 1.2743167284	-0.2915631755	-0.431938
C	 0.0730457852	-0.0948957953	 0.0024269692	 0.094548
C	 0.5846667597	-0.4935761511	 1.3674846563	-0.118507
C	-0.3985195436	-0.7901166579	 2.2219983057	-0.079965
C	-1.7591293502	-0.7445775217	 1.5796839234	-0.199049
C	-1.428470182	-0.4519049628	 0.0709889367	-0.063186
C	-1.8001113191	-1.920347076	-0.3061801395	-0.36706
C	-2.2667106878	-2.1414891602	 1.140188833	 0.408709
O	-2.8629871485	-3.0122598183	 1.7001285474	-0.289942
H	 0.0848293545	 1.7863402552	 0.4863630421	 0.27655
H	 0.5640890759	-0.6452744548	-0.8090109492	 0.093135
H	 1.6418355773	-0.4755676982	 1.6080502997	 0.106198
H	-0.2658643752	-1.0720173159	 3.2607422685	 0.11579
H	-2.4936558515	-0.1449942358	 2.1260561976	 0.097657
H	-2.0399313542	 0.3008869046	-0.4255540616	 0.088054
H	-2.5946275805	-2.0495965593	-1.0459202136	 0.13565
H	-0.9522126764	-2.5475229909	-0.6010026302	 0.133357
