23
gdb 121092	4.48525	0.74698	0.69454	1.659	90.18	-0.2246	0.0244	0.2489	1754.1473	0.204521	-388.31172	-388.301532	-388.300588	-388.347534	36.904	
C	-0.1534874684	 1.5493183884	-0.0792847741	-0.382557
C	-0.0336336305	 0.0239556781	-0.0394801666	-0.160789
C	 0.7995597419	-0.5424313627	-1.1936931544	-0.170422
C	 0.8924820913	-2.0729866303	-1.1732432752	 0.089333
O	-0.4177504478	-2.6505470829	-1.2807874993	-0.279969
C	-0.4702582743	-3.557631026	-2.3732689335	-0.150847
C	 0.8917829265	-3.5053384907	-3.0193142539	 0.29897
C	 1.2266451955	-4.3065418421	-4.2349094886	-0.492844
C	 1.6570682504	-2.6694340524	-2.3227771765	-0.217454
H	 0.8305558874	 2.028953299	-0.0232582728	 0.109025
H	-0.6298676274	 1.8848104609	-1.0073856839	 0.112605
H	-0.7536773066	 1.9243731291	 0.7558183938	 0.109935
H	 0.4150359394	-0.2855546338	 0.9141998888	 0.089335
H	-1.0289121213	-0.4319984316	-0.0721313729	 0.11635
H	 0.3697251879	-0.2345203747	-2.155531069	 0.092308
H	 1.8185790551	-0.1325679953	-1.1552453423	 0.085103
H	 1.3274017148	-2.3789412096	-0.204653261	 0.073661
H	-0.7142363608	-4.5719833604	-2.0139568177	 0.097275
H	-1.2738300668	-3.2655924719	-3.0690329461	 0.098924
H	 1.0967069322	-5.3806069152	-4.0510280889	 0.129354
H	 0.5647323427	-4.051621068	-5.0722720285	 0.12943
H	 2.2582151929	-4.1393822938	-4.5546886988	 0.128277
H	 2.6918194859	-2.4228703141	-2.5287968386	 0.094997
