21
gdb 38596	3.0317	2.07076	1.76806	0.1321	84.04	-0.2643	0.0932	0.3576	883.5317	0.188366	-349.949742	-349.943918	-349.942974	-349.979411	26.81	
C	-0.0430032105	 1.5018960651	 0.0606355457	-0.246271
C	 1.50507322	 1.511033797	-0.0004439237	-0.033385
C	 2.0698387713	 1.3118385814	 1.4181189881	-0.243873
C	 1.8275690881	-0.1750284477	 1.6532894866	 0.002208
C	 0.4031198255	-0.7642996692	 1.3134081449	-0.05149
C	 1.162348057	-1.9975068535	 0.7370248857	-0.23257
C	 2.2188737372	-0.9289574722	 0.3498737657	-0.038878
C	 1.466282326	 0.0400937106	-0.5896068627	-0.024167
C	 0.0152428855	-0.0385670548	 0.0084356118	 0.000195
H	-0.5128063243	 1.9754931865	 0.9300663194	 0.083241
H	-0.4973225789	 1.9081198435	-0.8479735921	 0.090814
H	 1.989045511	 2.3074143522	-0.5684212903	 0.055413
H	 3.148157718	 1.5120481951	 1.4548204868	 0.089786
H	 1.5886634818	 1.9691210054	 2.1508069004	 0.090812
H	 2.2435170783	-0.5938713718	 2.5715507542	 0.059958
H	-0.3680837763	-0.8702083714	 2.0783179239	 0.053711
H	 1.5258370265	-2.6740819138	 1.5147763758	 0.091674
H	 0.6757045412	-2.5709836023	-0.0581842207	 0.085033
H	 3.2540174691	-1.1825617852	 0.1161396333	 0.053209
H	 1.5892931724	-0.0766954024	-1.6654084313	 0.056712
H	-0.7721352891	-0.5641095527	-0.5377521916	 0.057869
