18
gdb 133705	2.54272	1.23429	1.14871	2.2481	64.7	-0.2877	0.0874	0.3751	1154.7058	0.142393	-533.462415	-533.453007	-533.452063	-533.496783	34.574	
C	-0.0632590055	 1.4796310234	-0.1796447084	-0.421464
C	 0.1117929963	-0.0165205571	-0.0405661804	-0.028349
C	 1.4672599964	-0.6735483842	-0.1250473954	-0.335332
C	 0.7231309869	-0.6557728557	 1.1917852754	 0.159065
C	 1.2361621722	 0.1651180235	 2.3601159431	-0.481622
C	 0.1113745384	-1.9607767385	 1.6309959979	 0.256942
F	 0.9921574307	-2.7163891728	 2.3128225005	-0.084624
F	-0.9412332319	-1.7617705366	 2.4461864899	-0.085252
F	-0.3246146661	-2.7032913238	 0.5978644817	-0.085803
H	 0.7886441353	 2.0353132251	 0.2209962518	 0.118405
H	-0.1611204827	 1.750932177	-1.2360847688	 0.125402
H	-0.9642069999	 1.8271448293	 0.3373502907	 0.125493
H	-0.6930582487	-0.5939054436	-0.4852413155	 0.103733
H	 1.5547492466	-1.6123951853	-0.6586936538	 0.128449
H	 2.340667568	-0.0327206814	-0.1920819003	 0.113877
H	 1.7125933893	 1.0847719956	 2.0171640802	 0.122139
H	 0.4215085339	 0.4349147642	 3.0389548029	 0.133578
H	 1.9768497611	-0.403911479	 2.9294635886	 0.135363
