19
gdb 50039	3.1713	1.06283	0.99492	3.6243	78.15	-0.2344	-0.0183	0.2161	1269.5099	0.158992	-423.030352	-423.021886	-423.020942	-423.064803	31.488	
O	 0.2276572577	-0.0103859286	-0.5185728647	-0.273087
C	 0.1640662867	 1.1316481	-0.1297576676	 0.157755
C	 1.3132194711	 2.0426545828	 0.0128999514	-0.176242
C	 1.0807963718	 3.5573682147	-0.0700954573	-0.373012
C	 1.4260843835	 2.9699642076	 1.2396981771	 0.449182
C	 0.4927331975	 2.8726119115	 2.4544664479	-0.31961
C	 1.432797268	 3.2057073951	 3.6324644693	-0.214938
C	 2.7992827493	 2.8163910966	 3.0626467478	-0.087379
O	 2.7343191251	 3.2052883862	 1.6925922556	-0.278559
H	-0.8168036412	 1.58149042	 0.1592790061	 0.058643
H	 2.2579226061	 1.6645897201	-0.3609957596	 0.11562
H	 1.8419673796	 4.1340033288	-0.5825703503	 0.137288
H	 0.0595367859	 3.8900182945	-0.2315159486	 0.123109
H	-0.3515549196	 3.5623637553	 2.3822310745	 0.116854
H	 0.0882203857	 1.8624457595	 2.5603335641	 0.12354
H	 1.4151640064	 4.2778507439	 3.8487557653	 0.115599
H	 1.1780026031	 2.6667417736	 4.5476303462	 0.108986
H	 3.642141331	 3.3435456143	 3.5152303902	 0.115161
H	 2.9736501722	 1.7327995941	 3.1501781924	 0.10109
