20
gdb 121576	4.97765	0.5677	0.53794	3.8704	88.96	-0.245	-0.0126	0.2324	2136.7476	0.16846	-403.16476	-403.153406	-403.152462	-403.205174	37.783	
C	 0.1688013787	 1.461625575	 0.1127788444	-0.378005
C	 0.2999449951	-0.0553902159	-0.042080443	-0.165566
C	 0.2179413787	-0.4970131911	-1.509437636	-0.155113
N	 0.3325344073	-1.934278846	-1.6891311959	-0.315455
C	 1.5185718694	-2.5417956098	-1.992044425	 0.259992
O	 2.5579158607	-1.9347377565	-2.1885710205	-0.368972
C	 1.4251972114	-3.9921709628	-2.0715550982	-0.050678
C	 1.4006759268	-5.1949666473	-2.1463481841	 0.147439
C	 1.3836081023	-6.6453400195	-2.2421458486	-0.504785
H	 0.9642484435	 1.9840814912	-0.4294717599	 0.124156
H	-0.7898171733	 1.8213963085	-0.2780686782	 0.113138
H	 0.2313240984	 1.7590431646	 1.1635540351	 0.116992
H	 1.2566548027	-0.3969631293	 0.3684690324	 0.119002
H	-0.4871896986	-0.5600172592	 0.5331268762	 0.089299
H	-0.7283711959	-0.1634790738	-1.9524738817	 0.100022
H	 1.0327353087	-0.045030155	-2.0806248298	 0.145313
H	-0.4584961886	-2.5237636717	-1.4864396839	 0.249103
H	 2.3908128326	-7.0595406682	-2.1277318764	 0.161287
H	 0.7460048989	-7.0874568982	-1.4691110713	 0.15422
H	 0.9983561112	-6.967169205	-3.2159100855	 0.15861
