16
gdb 11801	3.49096	1.75637	1.32378	1.8996	65.02	-0.2431	-0.0283	0.2149	925.673	0.128241	-383.726141	-383.718356	-383.717412	-383.75842	28.699	
C	-0.4418226432	 1.403291799	-0.0356414425	-0.413922
C	 0.0542295138	-0.0355440462	 0.0103326425	-0.181607
C	 1.3292637065	-0.3950951443	-0.7828905706	 0.395942
O	 1.7247451436	-0.1032624437	-1.873484136	-0.295067
C	 1.936431497	-1.1673864725	 0.4056881111	-0.443416
C	 0.7869779834	-0.5921455071	 1.2496799435	 0.429761
C	 0.821305474	-0.0679480395	 2.6141769298	-0.258214
O	 0.144565459	-1.2945502044	 2.2927114857	-0.268966
H	 0.3415945332	 2.1018859666	 0.2740883963	 0.122573
H	-0.7411687177	 1.6664978796	-1.0541803497	 0.140425
H	-1.3059910061	 1.5443691863	 0.6208416827	 0.127403
H	-0.7473070749	-0.731878148	-0.2734971276	 0.119796
H	 1.8674456066	-2.2533959946	 0.2784771489	 0.146824
H	 2.9621092505	-0.9064646444	 0.677990437	 0.137142
H	 1.7246041128	-0.1771483392	 3.2130126424	 0.120203
H	 0.1726125414	 0.7598670123	 2.8965957864	 0.121123
