19
gdb 13423	3.38424	1.20115	1.10865	1.6528	81.71	-0.2125	0.0435	0.256	1199.5028	0.162864	-327.876211	-327.866358	-327.865414	-327.912354	33.968	
C	 0.0658674232	 1.5528645775	-0.219593666	-0.499406
C	 0.0180966535	 0.1000823162	-0.1387081064	 0.040192
C	-0.0140964851	-1.103629726	-0.0702756095	 0.122526
C	-0.0349112401	-2.5405742968	-0.0372975483	-0.218674
C	-0.427992654	-3.2794861412	 1.2185743209	 0.013078
C	-0.7621383872	-2.5538316022	 2.5023790537	-0.419791
N	-1.2996012003	-3.3014369125	 0.0505407796	-0.103491
C	-2.5639017751	-2.5781128735	 0.0675156066	-0.310865
H	 0.9918418634	 1.9455220117	 0.2153919962	 0.149487
H	 0.0152619718	 1.8977745095	-1.2584268232	 0.149379
H	-0.7712713807	 2.0081782795	 0.3210372306	 0.148439
H	 0.6967045271	-3.0097770181	-0.6930514601	 0.105267
H	 0.0705848623	-4.2360603124	 1.377313678	 0.09012
H	-1.0846974976	-1.5260182103	 2.3283839469	 0.132996
H	-1.5496127107	-3.0799189627	 3.053253239	 0.120516
H	 0.1235425039	-2.5188339084	 3.1451906564	 0.123143
H	-2.5250170555	-1.5813980449	 0.5255585861	 0.113205
H	-2.9078145683	-2.4587413511	-0.9645910045	 0.124521
H	-3.3036597705	-3.1824358643	 0.602058914	 0.119358
