17
gdb 35288	4.10019	0.81749	0.73049	3.0828	74.04	-0.2725	0.0124	0.2848	1504.2485	0.135907	-417.965535	-417.956896	-417.955952	-418.000151	30.841	
N	-0.3493189669	-1.0542721018	 0.5866373029	-0.334559
C	-0.166209527	 0.0520752157	 0.3053147905	 0.331574
C	 0.0605581745	 1.4234519037	-0.0846337341	-0.204405
N	 0.7128373517	 2.2970519569	 0.9134069098	-0.314369
C	 1.44040866	 1.9594462545	-0.3114953673	 0.002905
C	 2.6848540254	 1.1146909063	-0.1524420937	-0.254287
C	 3.8610598867	 1.9666415425	 0.2640400853	 0.09887
C	 5.2111118694	 1.7516788343	-0.2662662455	-0.176812
O	 4.4005999684	 2.8263578868	-0.7475390209	-0.242296
H	-0.7374636638	 1.8388540669	-0.6939474895	 0.134352
H	 0.3079013673	 3.2280502945	 0.8618996763	 0.248852
H	 1.5111653442	 2.725906226	-1.0810812184	 0.11823
H	 2.5069063084	 0.3382624588	 0.5989058639	 0.133605
H	 2.9106419782	 0.6189956506	-1.103074059	 0.115386
H	 3.7622768432	 2.4419574113	 1.2406724341	 0.106821
H	 6.0785979964	 2.0467662568	 0.3218689192	 0.119257
H	 5.3848372139	 0.9435766362	-0.9758848735	 0.116875
