19
gdb 33566	2.2347	1.48048	1.16905	0.8784	86.4	-0.2553	0.0333	0.2886	1151.8472	0.158165	-348.69946	-348.690273	-348.689329	-348.733409	34.968	
C	-0.2599731108	-1.3231491483	-0.5387987425	-0.413807
C	-0.1330767229	-0.1616126621	-0.2586065614	 0.247921
C	 0.0441233256	 1.2422606436	 0.1144828925	-0.078572
C	-0.4289512182	 1.5384630874	 1.5733375946	-0.221761
C	 0.2728050382	 2.8589728776	 1.950264212	-0.216431
C	 1.5523057087	 2.9329259921	 1.0646034205	-0.216453
C	 1.5485390783	 1.6524684943	 0.2051796619	-0.221745
C	-0.6626662349	 2.1133798588	-0.8345177735	 0.345215
C	-1.2304438215	 2.8520156311	-1.5936288981	-0.491782
H	-0.3796650196	-2.3461151061	-0.7970315054	 0.190643
H	-1.5170615306	 1.5814107052	 1.6475802324	 0.114181
H	-0.0811860407	 0.7141374264	 2.2036426608	 0.110262
H	-0.3814108791	 3.7091127418	 1.7413001271	 0.113997
H	 0.5038367021	 2.8895207472	 3.0181053636	 0.101346
H	 1.5190020739	 3.8187009452	 0.4253074715	 0.114009
H	 2.4664484543	 3.0034387007	 1.6595514708	 0.101335
H	 2.0795893021	 0.8388359835	 0.7088980758	 0.110255
H	 1.9949295418	 1.7836576317	-0.7821744639	 0.114177
H	-1.7380455068	 3.4899495798	-2.2741517489	 0.197211
