15
gdb 42778	2.53792	2.00743	1.65153	2.6271	64.77	-0.2286	-0.0314	0.1971	859.3513	0.112936	-457.674245	-457.667691	-457.666746	-457.705016	26.297	
O	-0.0398251961	-0.0068933331	 0.0501655823	-0.314866
C	-0.0441476587	 1.1827855498	-0.0015561831	 0.390646
C	-1.0478511169	 2.3480606958	 0.0789584701	-0.03186
C	 0.0428852681	 3.0277407649	 1.0163590982	-0.350214
C	 0.9805833989	 2.3459318279	-0.0377017073	 0.278972
O	 2.3106859669	 2.1814353739	-0.5212722472	-0.346603
C	 1.7587358915	 2.2793160336	-1.8930385262	-0.172665
C	 0.548121272	 3.0580699394	-1.2849712413	 0.088474
O	-0.8776196162	 2.8786215335	-1.2753890133	-0.297734
H	-2.0968050459	 2.2787215485	 0.3468560247	 0.119291
H	 0.0781369803	 4.1169395529	 1.0408189602	 0.132309
H	 0.0099109446	 2.5968848624	 2.0188171855	 0.136456
H	 2.4306178187	 2.8320521247	-2.5511446463	 0.127163
H	 1.5307234673	 1.285570436	-2.2898098072	 0.140305
H	 0.7784627455	 4.1284837097	-1.2967471392	 0.100326
