14
gdb 129190	5.13587	1.05416	0.87463	1.5625	79.74	-0.2311	-0.0876	0.1435	1226.4191	0.102581	-432.883687	-432.87633	-432.875386	-432.915838	27.387	
N	-0.0826944754	 1.3730735049	 0.0111294104	-0.544898
C	-0.033370214	 0.0939563975	 0.003553884	 0.386886
N	 1.157680127	-0.6679193841	-0.0079247078	-0.280801
N	 1.2965549257	-1.9847453934	-0.0162575154	-0.201935
C	 0.2003119832	-2.7016462028	-0.013800606	 0.208235
C	 0.3431990674	-4.1802911586	-0.0231454032	 0.1125
O	 1.3846583964	-4.785776625	-0.031644472	-0.250952
C	-1.1033026247	-2.0894841017	-0.0025048195	-0.150658
C	-1.2190681494	-0.7455145848	 0.0058523919	-0.097986
H	 0.8464336936	 1.797029483	 0.0079841087	 0.206211
H	 2.0370535918	-0.1671376594	-0.0103382835	 0.274928
H	-0.636668717	-4.7103317403	-0.0190050249	 0.074641
H	-1.9814227744	-2.7277294058	-0.0008994012	 0.125701
H	-2.1725146701	-0.2324601696	 0.0144746687	 0.138127
