17
gdb 73913	2.91214	1.3979	1.0255	5.4602	81.84	-0.2468	-0.039	0.2079	1147.7312	0.137278	-380.882176	-380.874152	-380.873208	-380.914723	30.334	
C	-0.0350856415	 1.514838199	 0.1105012104	-0.521966
C	-0.0269370563	 0.0265589191	 0.0258464345	 0.281085
C	-0.0029036449	-0.7400878639	-1.0839689388	 0.092846
C	-0.0190167453	-2.2328963609	-0.7777617155	-0.315237
C	 0.0255771604	-2.2596720748	 0.7443499366	-0.048182
N	 1.2503554922	-1.6618733486	 1.3066517479	-0.327259
C	-0.0027974846	-0.8533637356	 1.23220077	-0.143166
C	 0.0523196947	-0.2441416626	-2.412854875	 0.202846
N	 0.0865414893	 0.1414079106	-3.5058430047	-0.351612
H	 0.8615348769	 1.8734503183	 0.6307988201	 0.147579
H	-0.0720658471	 1.9770278536	-0.8782279499	 0.154238
H	-0.8972427916	 1.8660314101	 0.6909767627	 0.13576
H	-0.9268844228	-2.708684482	-1.1668098104	 0.12354
H	 0.8390830216	-2.7487399573	-1.2210405765	 0.138904
H	-0.4633244312	-3.0626153196	 1.2844578316	 0.09874
H	 1.3601844781	-1.994490806	 2.2635572188	 0.234686
H	-0.4848248881	-0.5447557394	 2.1536603482	 0.097197
