19
gdb 79033	4.64318	1.31643	1.25783	1.6742	77.68	-0.2459	0.0752	0.3211	1038.7658	0.161753	-385.823394	-385.816677	-385.815733	-385.854048	28.756	
O	 0.1957191324	 1.3978262113	-0.1882296395	-0.454187
C	 0.0498320902	 0.0101493966	-0.0387870545	 0.164924
C	 0.0277320097	-0.6509287455	 1.3557108414	-0.11249
C	-1.4693527411	-0.1798725214	 1.5512450237	-0.045471
C	-2.1988286938	-1.2497772228	 2.3558490586	-0.064071
C	-3.0984163151	-2.2045329436	 1.604295548	-0.296918
C	-1.6226483703	-2.5005963164	 1.7369471116	-0.057167
C	-0.6806420803	-1.8972998687	 0.7015800326	-0.018445
C	-1.3520506326	-0.6412770789	 0.0558931012	-0.122326
H	-0.3587709026	 1.8421160113	 0.4607530919	 0.28158
H	 0.7275122447	-0.4380267373	-0.7703895673	 0.08028
H	 0.8138853147	-0.6683823328	 2.1138162004	 0.067447
H	-1.6937940443	 0.8642169387	 1.7812804375	 0.050855
H	-2.3162099499	-1.1287375882	 3.4264987201	 0.084496
H	-3.7703072451	-2.8091823629	 2.2056225413	 0.106985
H	-3.5089615721	-1.9190567554	 0.6420052846	 0.112049
H	-1.2925766728	-3.3452520936	 2.3304142012	 0.085415
H	-0.0967921689	-2.5647904989	 0.0653300627	 0.064942
H	-2.139089713	-0.6316443512	-0.6997936756	 0.072104
