17
gdb 43336	2.94372	1.82496	1.37952	3.9064	77.7	-0.2296	-0.0501	0.1794	943.1762	0.138956	-384.692634	-384.686108	-384.685164	-384.723392	26.966	
O	 0.0285366467	-0.007712919	 0.0364050018	-0.348071
C	-0.0430881275	 1.206992625	-0.0053620486	 0.382137
C	-1.3408986806	 1.9131110485	-0.0831129588	-0.169917
C	-1.408887552	 3.2500824371	-0.0368414513	-0.049792
C	-0.1812084098	 4.0804840611	 0.1903929065	-0.097483
C	 0.4735250913	 3.8453687141	 1.6109488014	-0.241327
C	 1.6329169422	 3.1295099253	 0.9298434688	-0.065297
C	 1.1187756597	 3.5153100547	-0.4426943905	-0.095887
C	 1.1917947148	 2.0592242848	-0.0724238957	-0.137046
H	-2.2179090087	 1.2829261666	-0.1877623522	 0.108668
H	-2.3712896334	 3.7537775764	-0.090249533	 0.106812
H	-0.3559584531	 5.1347623408	-0.022804564	 0.083434
H	 0.7953555564	 4.7928949194	 2.0498168096	 0.112199
H	-0.1202546269	 3.2907538776	 2.3426449415	 0.108258
H	 2.6521663417	 3.1001234448	 1.2950103041	 0.098394
H	 1.6370152337	 3.93433965	-1.2964843812	 0.095133
H	 2.0385604755	 1.5102682328	-0.4727749884	 0.109785
