17
gdb 52153	4.54022	0.81368	0.79304	3.9342	69.96	-0.2513	0.0024	0.2537	1435.786	0.135012	-458.899931	-458.891828	-458.890884	-458.934419	29.232	
O	 0.2636964336	 0.0980821902	-0.5713109551	-0.27018
C	 0.2510394274	 1.2876951291	-0.4804842152	 0.175551
O	 0.9614041693	 1.9568301422	 0.4468423303	-0.173385
C	 0.8963506199	 3.3919299035	 0.45144727	-0.14385
C	 2.26889372	 3.9541968843	 0.1379397683	 0.034226
C	 2.8294471603	 4.1018594349	-1.3073788375	 0.039338
C	 1.8810192659	 5.2936892905	-1.5842691778	-0.232638
C	 2.5140472973	 5.4574044525	-0.1808889918	 0.025588
O	 3.816079474	 5.0672219685	-0.7670053117	-0.302081
H	-0.340324736	 1.9594439714	-1.1347264982	 0.075112
H	 0.1250603961	 3.73002093	-0.2493836072	 0.110669
H	 0.5871969543	 3.6880124675	 1.4592640409	 0.130008
H	 3.0178678404	 3.5534338947	 0.8243154117	 0.106328
H	 3.1987041111	 3.3326436837	-1.9852475482	 0.108331
H	 2.2487731916	 5.9986527667	-2.3297380415	 0.119615
H	 0.8067385801	 5.1183081237	-1.6724036246	 0.095736
H	 2.5022377848	 6.3148971665	 0.4924363476	 0.101632
