19
gdb 84222	3.17398	1.5317	1.30385	2.5202	81.21	-0.2333	-0.0388	0.1945	1052.1034	0.158947	-381.982628	-381.974667	-381.973722	-382.014652	31.422	
C	-0.1652491839	 1.5010130077	-0.390333565	-0.383015
C	 0.0184306534	 0.0348656251	-0.0164113206	 0.026796
N	 0.8503100614	-0.6353971753	-1.0617930304	-0.207203
C	 1.6346650435	-1.3896231787	-0.3998646341	 0.144939
C	 3.0650861061	-0.978790579	-0.1555174946	-0.301086
C	 2.3904292242	-0.5748582175	 1.2183114945	 0.267933
C	 3.211324036	-0.4692864736	 2.4774681468	-0.470415
C	 0.8697505892	-0.2607978016	 1.2320223395	-0.102029
N	 1.3466197311	-1.6339372581	 1.051609494	-0.166735
H	 0.802594673	 1.9747515064	-0.5764720669	 0.120346
H	-0.77072998	 1.5929786954	-1.2956659307	 0.130022
H	-0.669546403	 2.0393372965	 0.4196387157	 0.111626
H	-0.9671946666	-0.4350853943	 0.1247997639	 0.09263
H	 3.7943975374	-1.7654318469	 0.0593010509	 0.123738
H	 3.4621338351	-0.2293664638	-0.83917133	 0.128313
H	 3.759456554	 0.4784272357	 2.5053842428	 0.128465
H	 2.574489408	-0.5226884994	 3.3646796236	 0.13311
H	 3.9386047835	-1.2862666029	 2.5322392721	 0.129138
H	 0.4705255278	-0.0136073159	 2.2144369085	 0.093424
