17
gdb 36486	4.23656	1.0678	0.93154	2.4376	73.92	-0.2521	0.0572	0.3092	1241.9701	0.134928	-421.77109	-421.762956	-421.762012	-421.804253	30.542	
C	-0.1028251662	-1.172859737	-0.0776578803	-0.443576
C	-0.0573264844	 0.0276984255	-0.0794472139	 0.307357
C	 0.0023928988	 1.482957925	-0.0573690086	-0.363899
C	 1.4327961826	 2.0324610658	 0.0444944384	 0.112152
O	 2.1430727427	 1.6716417948	-1.138342133	-0.264507
C	 3.0554682998	 2.6998409424	-1.504459063	-0.105478
C	 2.5190722792	 3.9631896691	-0.8691909172	 0.026749
O	 1.124718549	 4.1692664257	-1.1256017059	-0.248526
C	 1.5115328882	 3.5468041854	 0.1055095568	-0.009738
H	-0.1446643313	-2.2335427718	-0.0895026037	 0.193883
H	-0.4475198824	 1.9016742777	-0.9640358795	 0.152144
H	-0.5764558836	 1.8607379815	 0.7955985758	 0.126296
H	 1.9257962639	 1.6166173169	 0.9385657578	 0.08322
H	 4.070272994	 2.5006052242	-1.123266527	 0.0986
H	 3.0947048562	 2.7399891438	-2.5978185609	 0.123283
H	 3.1316540285	 4.8544780093	-0.768121152	 0.106665
H	 1.281528135	 4.0873667118	 1.0195161363	 0.105375
