16
gdb 45815	2.62914	1.90981	1.26555	2.7647	72.82	-0.2417	-0.0225	0.2192	970.8712	0.12771	-434.061855	-434.054761	-434.053817	-434.093721	27.178	
N	-0.0831713439	 1.2964380399	 0.2174417398	-0.511748
C	 0.0049987139	 0.0396399611	 0.0377666257	 0.384347
N	 1.1783293645	-0.6997250265	-0.0700896372	-0.353413
C	 1.2201145215	-2.0056580954	-0.5455401298	 0.089193
N	 0.23820285	-2.7344337384	-0.8854641837	-0.245248
C	-1.0978091021	-2.2036793998	-0.7229359424	-0.054921
C	-1.7731912335	-2.6986754924	 0.5770839619	-0.07433
O	-1.6097019132	-1.4022544266	 1.1961873864	-0.288362
C	-1.2438713	-0.7995999185	-0.0667905895	 0.063936
H	 0.8370501551	 1.7399402783	 0.2844902718	 0.205183
H	 2.0547524021	-0.2136176343	 0.0462301038	 0.25018
H	 2.2329552766	-2.3989761427	-0.6279988755	 0.123598
H	-1.6622833981	-2.3656007056	-1.6438009244	 0.095826
H	-2.8317045708	-2.9688451686	 0.4717812432	 0.103386
H	-1.2366162415	-3.4883514229	 1.1109129295	 0.116734
H	-2.0511075506	-0.1740069375	-0.4609698895	 0.095638
