25
gdb 104195	2.35189	1.23592	1.17414	1.6931	88.08	-0.2377	0.0734	0.3111	1289.9211	0.226444	-389.489999	-389.479289	-389.478345	-389.524787	41.023	
C	 0.0085779046	 1.599640907	 0.121579929	-0.4003
C	-0.1102586553	 0.0868709948	-0.1046159797	-0.223023
C	 0.6764107968	-0.4500439127	-1.3151665298	 0.253015
C	 0.2772536669	 0.268590563	-2.6024121196	-0.474076
C	 2.1897258231	-0.5533695322	-1.0073040649	-0.118718
O	 2.0978817903	-1.9665926774	-0.7597199191	-0.323699
C	 0.7667310328	-2.0318335217	-1.3515250987	 0.371217
C	-0.1775403453	-2.855207152	-0.4844932365	-0.43687
C	 0.8625192152	-2.6510444235	-2.7478940608	-0.42813
H	 1.0557526141	 1.9164834505	 0.1842522739	 0.116542
H	-0.4662262749	 2.1763844259	-0.6772046118	 0.119261
H	-0.4754038943	 1.8828666834	 1.0613046251	 0.114423
H	 0.2437281172	-0.4240909253	 0.7969818875	 0.107913
H	-1.1698938966	-0.1779463627	-0.2142393436	 0.092836
H	 0.5141924549	 1.3351869713	-2.5430664632	 0.119057
H	 0.7985360995	-0.1276038214	-3.4760784532	 0.115552
H	-0.8002956681	 0.1835870038	-2.786617732	 0.11276
H	 2.8442498641	-0.3254805854	-1.8612791466	 0.086265
H	 2.5561068351	-0.0077042204	-0.129555703	 0.095575
H	-0.2251495828	-2.4885976987	 0.5412224467	 0.11927
H	-1.1898356098	-2.8581928786	-0.9030462237	 0.112846
H	 0.1741871277	-3.8916625778	-0.4525173581	 0.120418
H	 1.1437584063	-3.704811574	-2.656737823	 0.118745
H	-0.094547574	-2.5982400749	-3.2777762643	 0.111127
H	 1.6229056328	-2.1585556611	-3.3583848005	 0.117996
