17
gdb 48992	3.24692	1.48933	1.30824	2.5702	67.76	-0.2529	-0.0383	0.2146	991.0795	0.136679	-458.966595	-458.95926	-458.958316	-458.998603	28.245	
O	-0.7571862415	 1.0243514912	 0.4665253238	-0.259106
C	 0.3113152186	 0.8556064169	-0.0630164538	 0.079358
C	 1.4363391582	 1.8532357828	-0.011190737	 0.293814
C	 1.6059117999	 2.6755726896	 1.2759491358	-0.105483
O	 2.4753986956	 3.7498627938	 0.8565331218	-0.282123
C	 2.7488699081	 3.5123863591	-0.5286797237	 0.061041
C	 3.6124644165	 2.247718668	-0.6307095126	-0.084135
O	 2.6785233916	 1.1969026744	-0.2887100198	-0.326606
C	 1.4072945365	 2.9906615689	-1.0632398085	-0.27521
H	 0.5483455258	-0.0534408216	-0.6563758131	 0.097784
H	 0.6558277529	 3.0733763313	 1.6465872665	 0.123608
H	 2.0891454848	 2.0823955635	 2.0586208571	 0.115121
H	 3.1693580171	 4.4150909423	-0.9707372587	 0.092693
H	 4.0125622523	 2.0737450844	-1.6373042497	 0.105017
H	 4.4349492616	 2.266528935	 0.0908555424	 0.117984
H	 1.4386934946	 2.6139212327	-2.0872020003	 0.116275
H	 0.5862297876	 3.6947365278	-0.9268568102	 0.129968
