23
gdb 99128	3.49348	0.75043	0.72217	2.5508	86.89	-0.235	-0.0059	0.2291	1728.7111	0.20324	-388.307294	-388.296473	-388.295529	-388.345383	38.467	
C	-0.5582298691	 1.3305469008	 0.5242762901	-0.374985
C	-0.155202846	-0.1401134584	 0.5702900455	-0.286178
C	 1.2384787882	-0.3787581356	 1.129956658	 0.392491
O	 1.9670984515	 0.5302238989	 1.4582255626	-0.313863
C	 1.6770683137	-1.8344943338	 1.2957021965	-0.319993
C	 1.6447581998	-2.2144945152	 2.7690711146	 0.020461
C	 0.3961799785	-2.7751173998	 3.4134491514	-0.294764
C	 1.6191698141	-3.6470767662	 3.2516184249	-0.009775
C	 1.6167743533	-4.8353109055	 2.314516463	-0.404155
H	 0.1466395655	 1.906848686	-0.0802613765	 0.132019
H	-1.558815703	 1.4477699596	 0.0986773529	 0.107628
H	-0.5549575206	 1.7666680037	 1.5266398133	 0.130193
H	-0.8580961509	-0.7343572564	 1.1715462939	 0.123888
H	-0.188535435	-0.5953257633	-0.4303820389	 0.120558
H	 1.0397402675	-2.4986320634	 0.7048902872	 0.095683
H	 2.7016848295	-1.9151929316	 0.9148844499	 0.121973
H	 2.2230553107	-1.5270910758	 3.3798593396	 0.10331
H	 0.1149176957	-2.4306305416	 4.4025929852	 0.112714
H	-0.4491334429	-2.990429492	 2.7652754979	 0.10517
H	 2.1883704089	-3.817329368	 4.162410702	 0.086508
H	 0.9999401332	-4.6596400089	 1.4282601007	 0.114098
H	 2.6292607665	-5.0770160638	 1.9720575649	 0.118608
H	 1.2162846909	-5.7223662798	 2.8174001914	 0.11841
