18
gdb 15137	8.76623	0.66783	0.65014	2.9657	69.95	-0.25	-0.0214	0.2286	1662.0002	0.151609	-384.927639	-384.918715	-384.917771	-384.962793	30.415	
O	-0.674859915	 0.6515871129	 0.4543828538	-0.236509
C	 0.1658091011	 0.9181646834	-0.3648727652	 0.158744
C	 1.3358040632	 1.8482211292	-0.1389999105	-0.275712
C	 1.3655881619	 2.9897275489	-1.1691496259	-0.186563
C	 2.5999010194	 3.8901486111	-1.0232635102	-0.219883
C	 2.6205446847	 4.9945613087	-2.0514825582	 0.096352
C	 3.8588455649	 5.4609974197	-2.6858509953	-0.180199
O	 2.9540449503	 4.607453482	-3.3888733568	-0.236232
H	 0.1244886017	 0.4794631928	-1.3903486767	 0.072238
H	 1.2871099814	 2.2277529241	 0.8861366177	 0.120375
H	 2.2553115511	 1.2524254864	-0.238736548	 0.118916
H	 1.3512846657	 2.5751306895	-2.1844963696	 0.123733
H	 0.455592761	 3.5945094557	-1.0663487012	 0.111591
H	 2.6218229025	 4.3347606738	-0.019410461	 0.105728
H	 3.5110440501	 3.2891453385	-1.1289567745	 0.104813
H	 1.7870763918	 5.698504766	-1.996957705	 0.092827
H	 3.9276445429	 6.4813454448	-3.0605140089	 0.116508
H	 4.8085052811	 5.0060050324	-2.4060876246	 0.113271
