21
gdb 76646	2.98046	1.06151	0.9235	1.9897	79.26	-0.2287	0.053	0.2818	1350.1995	0.182322	-424.184981	-424.175802	-424.174858	-424.219634	34.81	
O	 0.0155485688	 1.2786088486	-0.2808237664	-0.430437
C	-0.0449912018	-0.097432164	-0.0582436477	 0.076671
C	-0.3265088954	-0.5558824554	 1.3529983443	 0.010883
O	-0.5809694896	 0.4752539253	 2.2798388881	-0.424921
C	-1.3750478518	-0.75677261	 0.281660305	-0.120405
C	-2.6655218859	 0.0156966784	 0.2700802031	 0.071604
C	-3.5528745874	-0.0361036467	-1.0081631754	-0.233099
C	-4.8030952352	-0.0700455789	-0.0881714392	-0.210291
C	-3.8829511214	-0.5223899119	 1.0777891414	-0.231653
H	-0.1844859248	 1.6938027348	 0.5698018063	 0.283121
H	 0.6680536803	-0.6376329139	-0.6738553386	 0.097167
H	 0.1758841884	-1.4269437684	 1.7687334732	 0.089597
H	 0.2512175607	 0.6844925837	 2.7184956407	 0.296045
H	-1.4736127755	-1.7894584307	-0.0485480659	 0.080521
H	-2.4827326364	 1.057853444	 0.5401965193	 0.070617
H	-3.456422439	 0.7824224639	-1.7252030191	 0.099755
H	-3.4222474724	-0.9831632942	-1.5426160796	 0.092611
H	-5.2070893005	 0.9323941828	 0.0813656513	 0.100244
H	-5.6260770029	-0.730028898	-0.3723204182	 0.092288
H	-3.8513430317	-1.6138601949	 1.1629061809	 0.092006
H	-4.0569220368	-0.1022832644	 2.0712728365	 0.097677
