11
gdb 33285	3.48173	0.83801	0.70684	4.0223	75.88	-0.3098	-0.0856	0.2242	1459.8998	0.06446	-414.362925	-414.354786	-414.353842	-414.396544	28.015	
N	 0.0623409054	-3.7034233696	-0.0364328037	-0.315972
C	 0.0384165326	-2.5427065174	-0.0187746227	 0.209925
C	 0.0112105164	-1.177664362	 0.0065483535	 0.144885
C	-0.0081161925	 0.028506962	 0.0339979265	 0.044417
C	-0.0376399901	 1.466869086	 0.0696344111	 0.08964
C	 0.5469207794	 2.2010387942	 1.2282262784	-0.191779
O	 1.2277990463	 2.136508907	-0.0115052317	-0.223623
C	-1.1206097741	 2.0898643016	-0.6727996545	 0.235036
N	-1.9900827809	 2.5815264052	-1.2523427734	-0.308215
H	 0.1209382704	 3.1674118025	 1.4890343553	 0.160537
H	 0.9745997068	 1.6152424404	 2.0386499712	 0.15515
