19
gdb 111067	3.36756	1.08374	0.96201	2.6385	72.51	-0.2432	0.0644	0.3076	1283.9908	0.157421	-460.075462	-460.066401	-460.065457	-460.109712	33.271	
C	-0.3186849158	 1.413994121	 0.2179015432	-0.239268
O	 0.2911392567	 0.1911034556	-0.1481901045	-0.252215
C	 0.8500186559	-0.4917205026	 0.9266124874	 0.110326
C	 0.0125795292	-1.4955588614	 1.7891232932	-0.003107
C	-0.1119944652	-2.4296209756	 0.5681181123	-0.260598
C	 1.354793973	-1.9300137064	 0.6588221044	 0.332819
C	 2.5900313635	-2.4372029879	-0.0231126864	-0.194753
O	 2.7400318062	-3.8319497667	 0.1634275026	-0.413672
O	 1.2987102683	-2.1389060838	 2.1373401227	-0.35539
H	 0.396573153	 2.0864113816	 0.7142480524	 0.113364
H	-0.6713879756	 1.8863794918	-0.7012622574	 0.133707
H	-1.1744172249	 1.259890972	 0.8909367464	 0.112465
H	 1.5370763566	 0.1254880278	 1.5198327916	 0.081718
H	-0.6859743202	-1.3143516505	 2.605584296	 0.09346
H	-0.253005848	-3.484535766	 0.8026673755	 0.109127
H	-0.7045909346	-2.0837385506	-0.2791675429	 0.113762
H	 2.5169737885	-2.2593588483	-1.1009696829	 0.125455
H	 3.4610055382	-1.876690541	 0.3533091079	 0.098103
H	 2.644238985	-3.993406919	 1.1094912684	 0.294699
