16
gdb 16195	3.20832	2.30486	1.51202	2.5698	71.46	-0.2371	-0.015	0.2221	840.6303	0.131037	-346.628339	-346.621455	-346.620511	-346.659326	26.765	
O	 0.0762459102	 0.0465239011	 0.0057740298	-0.331792
C	 0.0212905024	 1.2520070985	 0.0120333499	 0.335198
C	-1.2539382817	 2.1124064483	 0.0318834669	-0.381752
C	-0.720484821	 3.5221757761	 0.0309390606	-0.100498
C	 0.6158715754	 3.5549558558	 0.0137726889	-0.152417
C	 1.1956732275	 2.192554247	 0.0005412678	 0.22717
C	 2.4693622324	 1.7758223805	 0.7272996037	-0.297239
C	 2.4499761306	 1.7819829561	-0.7625014773	-0.297233
H	-1.8794794294	 1.8752919202	-0.8383173404	 0.137996
H	-1.8569782879	 1.8679851415	 0.9158389101	 0.137966
H	-1.364117849	 4.3931308435	 0.0428419273	 0.101607
H	 1.2240570066	 4.4522249771	 0.0095763255	 0.101675
H	 3.0142967189	 2.5550810507	 1.2485839635	 0.120849
H	 2.426088695	 0.8152373615	 1.2294106677	 0.138801
H	 2.3935564434	 0.8255708166	-1.2712322363	 0.138812
H	 2.9812758166	 2.5655629055	-1.2913298377	 0.120856
