19
gdb 60911	3.047	0.98323	0.89569	1.9061	79.46	-0.2318	-0.0319	0.1999	1366.7228	0.157575	-423.036193	-423.026779	-423.025835	-423.071865	32.913	
C	-0.013109219	 1.5712119086	 0.181414059	-0.418432
C	-0.0332323199	 0.0350679887	 0.0270889328	-0.172132
C	 0.7820824824	-0.5847434501	 1.1588818997	 0.165043
O	 1.8228296233	-1.167256395	 1.008696286	-0.242515
C	-1.4267849337	-0.5361614358	 0.0289912862	 0.298898
C	-1.9378333087	-1.4238652907	-0.8216520475	-0.221736
C	-3.3596219149	-1.7360114377	-0.4605056256	-0.102687
O	-3.6266243537	-0.9596240822	 0.7056001164	-0.263808
C	-2.4901501727	-0.1757966669	 1.043839256	-0.156195
H	 1.0084000947	 1.9509779577	 0.0910974278	 0.134825
H	-0.6259365539	 2.0397918342	-0.5935078498	 0.134639
H	-0.4042575144	 1.8836621884	 1.1554917761	 0.12889
H	 0.4707501467	-0.2472238799	-0.901855996	 0.10204
H	 0.3421723398	-0.444596842	 2.1739112751	 0.076403
H	-1.4276692647	-1.871028583	-1.6659100945	 0.108625
H	-4.0664313638	-1.4676511894	-1.2624429641	 0.106566
H	-3.5150938904	-2.8036616748	-0.2390504432	 0.110102
H	-2.1843005456	-0.3966643424	 2.079185941	 0.106082
H	-2.7484828014	 0.8949812421	 1.0102607247	 0.105393
