22
gdb 114241	4.07883	0.84252	0.78382	0.4782	84.31	-0.2333	0.0786	0.3118	1560.6624	0.192836	-404.30549	-404.295754	-404.29481	-404.340472	36.132	
C	 0.288660287	 1.7731638952	-0.7592949857	-0.240029
O	-0.3748034527	 0.5328536682	-0.6633153382	-0.240569
C	 0.4309446314	-0.5544695931	-1.0277690091	 0.156717
C	 1.5229921119	-1.042587192	-0.0208629946	-0.320013
C	 0.9768556266	-2.4628111951	-0.2209551607	 0.342265
C	-0.2867785247	-1.9179085625	-0.9006308944	-0.346767
N	 1.819664272	-3.5398439849	-0.7504098452	-0.382271
C	 1.1623580398	-3.6973857829	 0.5685402085	-0.071119
C	 2.069397102	-3.769586988	 1.7725531073	-0.39173
H	 1.1593141867	 1.8282753935	-0.0886562163	 0.109023
H	 0.6338168359	 1.9704086229	-1.7866498956	 0.104257
H	-0.425829319	 2.5482369273	-0.4718551464	 0.126175
H	 0.8556864625	-0.3998030558	-2.0313212383	 0.067499
H	 2.5701236614	-0.883638568	-0.2849277891	 0.107057
H	 1.3277900539	-0.6548939652	 0.9843497681	 0.105037
H	-1.1357434809	-1.8377953569	-0.2148990344	 0.116135
H	-0.6150438906	-2.4008093875	-1.8254251931	 0.099014
H	 1.3112133078	-4.0643534672	-1.4593270112	 0.223507
H	 0.3008404783	-4.364872027	 0.6050891647	 0.077576
H	 2.9074617378	-3.0761741451	 1.6643708533	 0.125853
H	 1.524320408	-3.5152542151	 2.6884654459	 0.1135
H	 2.4802992748	-4.7777710708	 1.8930630447	 0.118883
