17
gdb 46720	3.07721	1.73249	1.28589	2.5139	72.53	-0.2414	-0.0236	0.2178	972.4877	0.137845	-421.796473	-421.789617	-421.788673	-421.829037	26.843	
O	-0.0489060392	 0.0105458113	-0.360231061	-0.318153
C	-0.0232110099	 1.176476918	-0.0388742114	 0.337633
C	-1.303458915	 1.9153559396	 0.3335778361	-0.175416
O	-1.1320301606	 3.2792677565	 0.6916789349	-0.28734
C	 0.1731293718	 3.7729370934	 0.6590282463	 0.176502
C	 1.1179700961	 3.4618939754	-0.5416796001	-0.114911
C	 2.2927778367	 3.8342380593	 0.3997386082	-0.230041
C	 1.3540091407	 2.9574500885	 1.2686661386	-0.114882
C	 1.2229741947	 1.9994028117	 0.0279536835	-0.105498
H	-1.9923808423	 1.8495861347	-0.5186275216	 0.138106
H	-1.7731866993	 1.3791385673	 1.1684369653	 0.138124
H	 0.1062296144	 4.8205007172	 0.9596586113	 0.089907
H	 0.9850017001	 3.7349728157	-1.5888431677	 0.087097
H	 3.2595572783	 3.3929953827	 0.1507344995	 0.107372
H	 2.3895793547	 4.8866952819	 0.6803791824	 0.099505
H	 1.4927455627	 2.6498367	 2.3054547911	 0.087101
H	 2.1064048863	 1.4200848466	-0.2486393153	 0.084894
