16
gdb 65740	3.07723	1.20774	1.0996	3.6327	65.66	-0.2732	-0.0032	0.27	1133.6005	0.123053	-475.064859	-475.056486	-475.055541	-475.09828	30.162	
C	 0.0694399479	 1.5427412195	 0.0528094513	-0.441765
C	-0.0016586099	 0.028052426	-0.008126255	 0.430261
C	 0.768093788	-0.6526396409	-1.1670501206	-0.223331
N	 1.5915621118	-1.6882553864	-0.5308654527	-0.24899
C	 1.4304631529	-1.5347490154	 0.7123194814	 0.110252
O	 0.6100565913	-0.5381354366	 1.1645324578	-0.245606
O	-1.358824582	-0.4265882678	-0.0933761764	-0.228324
C	-2.1625251574	-0.2972923063	 0.9913317569	 0.160069
O	-3.3143318758	-0.6085539106	 0.9580828656	-0.268355
H	 1.1125432523	 1.8663830496	 0.0785537651	 0.140644
H	-0.4134675617	 1.9677654362	-0.8309901647	 0.147562
H	-0.4341273423	 1.9271896066	 0.9435580878	 0.13713
H	 0.0678390815	-1.0930925523	-1.8801463952	 0.148102
H	 1.4097505714	 0.0533148304	-1.7038906631	 0.125415
H	 1.8984480887	-2.1170588359	 1.4971270512	 0.15185
H	-1.6446369064	 0.0949505539	 1.8806603506	 0.105087
