17
gdb 71969	2.76036	1.70479	1.2296	4.4791	77.88	-0.2356	0.0072	0.2428	1018.4725	0.136974	-380.817649	-380.810021	-380.809076	-380.849517	29.84	
C	-0.0454977761	 1.4901535609	 0.0016241142	-0.509868
C	 0.0192551483	-0.0061831276	-0.034544498	 0.279404
C	 0.907128747	-0.8977453636	-0.9068329446	-0.254779
C	 0.0351666504	-2.0695727114	-0.3984927277	-0.054653
N	 0.4573158592	-2.1578545755	 1.0461103746	-0.365969
C	-0.2913105129	-0.8869543992	 1.2111822591	 0.222631
C	-0.6588925983	-0.3372593496	 2.4708041632	 0.177016
N	-0.9714765261	 0.1062957852	 3.4937797439	-0.355898
C	-1.1045220427	-1.021835223	-0.061974239	-0.196049
H	 0.9009703091	 1.9137768972	 0.3540713015	 0.137902
H	-0.2452921388	 1.8921874022	-0.9972063142	 0.126729
H	-0.8360554528	 1.8404355272	 0.6721544654	 0.141819
H	 0.7327539912	-0.6861507383	-1.9652310278	 0.108592
H	 1.9772536055	-0.959571961	-0.6918042848	 0.112874
H	-0.0637716901	-3.0054718444	-0.9417688944	 0.090779
H	-0.109292049	-2.8840635536	 1.4859090049	 0.226548
H	-2.1667225938	-0.9371415555	-0.2509154263	 0.112923
