13
gdb 19228	3.61776	1.97281	1.41303	5.9564	60.81	-0.2598	-0.0345	0.2253	837.4993	0.095258	-398.607084	-398.600326	-398.599381	-398.638409	24.373	
O	-0.1366643129	 0.0660328686	 0.2599181584	-0.271458
C	-0.0084615019	 1.2523509369	 0.1099765388	 0.145804
N	 1.1788734156	 1.8967521172	-0.1837270587	-0.132632
C	 1.4908209518	 3.3321509194	-0.1573834639	-0.012692
C	 2.1906517947	 3.6767178161	 1.1149111958	-0.288561
C	 2.9664498271	 2.9955881141	-0.0149734022	-0.21764
C	 2.5661777224	 1.5323490969	-0.0918448949	 0.446728
O	 3.1182745904	 0.4796579041	-0.115662224	-0.306502
H	-0.8465933655	 1.9776925911	 0.1664813329	 0.084381
H	 1.0214636961	 4.0189780176	-0.847562719	 0.135955
H	 2.4481232766	 4.7215506349	 1.2610095505	 0.13906
H	 1.9570264089	 3.1300773547	 2.0230544218	 0.142873
H	 3.8261705769	 3.4466422385	-0.4873093456	 0.134683
