18
gdb 2372	4.15323	1.87865	1.49554	2.2061	64.28	-0.2434	0.073	0.3164	877.0549	0.158722	-326.952955	-326.944489	-326.943545	-326.985786	30.473	
C	-0.0521034799	 1.4903818606	-0.2218798534	-0.406797
C	 0.0442391054	 0.0249254617	 0.202025016	 0.144527
O	 0.7059187397	-0.1222106584	 1.4576200022	-0.432957
C	-1.3205683331	-0.6351234408	 0.2311756781	-0.032586
N	-1.8600777702	-1.1138974901	-1.0532979007	-0.342993
C	-1.552225441	-2.0872178742	 0.0126965825	 0.002546
C	-0.4614575958	-3.0964379921	-0.2534699645	-0.391554
H	 0.9394134836	 1.9508860984	-0.236249021	 0.121519
H	-0.4964938877	 1.572392683	-1.2182968322	 0.13131
H	-0.6824358724	 2.0571432725	 0.4762849112	 0.098578
H	 0.6762771119	-0.5083142639	-0.513369329	 0.094323
H	 0.2169736987	 0.3940507871	 2.1079093881	 0.27386
H	-2.0201552749	-0.1399017088	 0.9092017214	 0.064995
H	-2.8597241973	-0.9418078502	-1.1107911187	 0.228839
H	-2.4068362319	-2.4958276246	 0.552112098	 0.078542
H	 0.3347751602	-2.6703449519	-0.8668717683	 0.12875
H	-0.0233347066	-3.4484192889	 0.6861085982	 0.124188
H	-0.8647620288	-3.9628132693	-0.788613288	 0.11491
