19
gdb 9350	7.49615	0.77288	0.71559	1.9911	69.18	-0.2445	0.0177	0.2622	1601.0586	0.164024	-402.234447	-402.22437	-402.223426	-402.271205	33.692	
C	-0.0508327407	 1.4523324969	 0.0934013905	-0.383932
C	-0.0075061168	-0.0706503124	-0.0596611173	-0.189356
C	 0.7821698946	-0.4934551963	-1.2872714398	-0.042008
O	 0.7683956758	-1.933902044	-1.3486229819	-0.242728
C	 1.425632316	-2.4896338295	-2.3821202652	 0.412802
O	 2.0073140896	-1.8629072997	-3.2327549678	-0.360591
C	 1.3351216442	-4.01357586	-2.3318180355	-0.273336
N	 2.0167613698	-4.708661473	-3.4090907412	-0.485952
H	 0.9557337985	 1.8722011753	 0.1954323774	 0.120948
H	-0.5218327047	 1.9275835839	-0.7738756653	 0.120951
H	-0.6220574608	 1.7392826601	 0.980545493	 0.121056
H	 0.4443583272	-0.5280726023	 0.8279690987	 0.1095
H	-1.0241898448	-0.4729967874	-0.1356574899	 0.109503
H	 0.3463859482	-0.0933910037	-2.2092388297	 0.119094
H	 1.820941099	-0.1486984999	-1.2416488985	 0.119091
H	 1.7317739969	-4.3428768697	-1.3642301768	 0.137259
H	 0.2736160886	-4.2877359762	-2.3224119943	 0.137275
H	 1.6520988772	-4.3757920583	-4.2976800537	 0.235235
H	 2.9941026322	-4.4291335137	-3.4142035425	 0.23519
