17
gdb 76166	2.1581	1.45001	1.21238	3.0487	70.66	-0.2563	0.0225	0.2788	1105.2528	0.132965	-455.126985	-455.116785	-455.115841	-455.161411	37.027	
C	-0.0634531637	 1.554141891	-0.0250799415	-0.455043
C	 0.0445378337	 0.0499271206	-0.05704359	 0.328637
O	-1.0699373875	-0.6339648134	-0.5422098778	-0.442318
C	 1.3215155902	-0.618355178	-0.4183589635	 0.051137
O	 2.3915780356	 0.1856114349	-0.7634995766	-0.40808
C	 0.8483272741	-0.6691333382	 1.0625021581	-0.019853
N	 1.5668055594	 0.1408776238	 2.0081506804	-0.552982
C	 0.3146880354	-1.9254682686	 1.5329048094	 0.247684
N	-0.0972747035	-2.9154321624	 1.9712907764	-0.351839
H	 0.866428956	 2.0045906085	 0.319127323	 0.159928
H	-0.2892518188	 1.9191365118	-1.0311941739	 0.137576
H	-0.8762461845	 1.8665902789	 0.6410256875	 0.108358
H	-1.7909304563	-0.541440971	 0.0918419987	 0.291466
H	 1.2192638591	-1.557600055	-0.9598445128	 0.121018
H	 3.207873938	-0.2398914789	-0.4808639379	 0.29628
H	 0.9660358933	 0.4140349486	 2.7795431597	 0.245817
H	 2.3452608894	-0.3749977827	 2.4067436208	 0.242216
