18
gdb 66296	2.44075	1.47471	1.22161	4.162	72.93	-0.2353	-0.0527	0.1826	1089.7273	0.14609	-439.112114	-439.103078	-439.102134	-439.146326	32.912	
C	-0.0304253706	 1.6018039771	-0.026936707	-0.396125
C	 0.0214965702	 0.0695945806	-0.0616330814	 0.071422
N	 0.7891035454	-0.4552341133	-1.1978597065	-0.343531
C	 2.1412141237	-0.8137725814	-0.7160883626	-0.180279
C	 1.9803251576	-1.2502660736	 0.7450004067	-0.326536
C	 0.7741724486	-0.4423844806	 1.2187326902	 0.373312
O	 0.4518442697	-0.2019855984	 2.3485510832	-0.298948
C	-1.3812876051	-0.5244437796	-0.0446516195	 0.133885
O	-2.3781302726	 0.0698611139	 0.2587330139	-0.23264
H	 0.9792958108	 2.0212569877	-0.0433382031	 0.115008
H	-0.5744576332	 1.9729179921	-0.8980143457	 0.131625
H	-0.5388009029	 1.9322501453	 0.8804851867	 0.151547
H	 0.3362349901	-1.2847869806	-1.5708611291	 0.219476
H	 2.5728227704	-1.5829826347	-1.3591546228	 0.116521
H	 2.7901106965	 0.0674908069	-0.7818425299	 0.122227
H	 1.7116585054	-2.3133194003	 0.8118590429	 0.133663
H	 2.8419120589	-1.0825303415	 1.3943843603	 0.137664
H	-1.4141276928	-1.6017628695	-0.3407386763	 0.07171
