18
gdb 37035	2.93785	1.81354	1.48824	1.791	74.74	-0.2361	0.0268	0.2629	936.0151	0.150197	-401.924456	-401.91752	-401.916576	-401.955598	28.243	
C	 0.0078732099	 1.3266336239	-0.0326865232	-0.381042
C	 1.3972084681	 0.7166602893	-0.0418143902	 0.217572
C	 1.7623602702	 0.2408411334	 1.378026922	-0.290419
C	 0.5116664113	-0.7145295896	 1.3680994461	-0.290356
C	 0.1700538075	-0.1617075026	-0.0101455726	 0.392771
O	-0.2106251291	-0.9440881346	-1.1005035581	-0.261785
C	 0.6343008912	-0.8484055093	-2.1793362982	 0.104733
N	 1.6842607	-0.1688426301	-2.3486175096	-0.264557
C	 2.2375123615	 0.6900842823	-1.2915615329	-0.256227
H	-0.3555258498	 1.859850911	 0.8425284712	 0.110065
H	-0.325507114	 1.7320502372	-0.9825665135	 0.127101
H	 2.7039441744	-0.3115145066	 1.4169475948	 0.11032
H	 1.7786577226	 1.0166546554	 2.1494238959	 0.103014
H	 0.8063556334	-1.7651188951	 1.3273815471	 0.117404
H	-0.2414155758	-0.5854164875	 2.1511698712	 0.102218
H	 0.2563884209	-1.4859667304	-2.9756078827	 0.124778
H	 2.3921936585	 1.6846688792	-1.7283849423	 0.115598
H	 3.2382042392	 0.3057848841	-1.058901855	 0.118813
