16
gdb 65794	2.25517	1.58611	1.35894	5.6808	75.08	-0.261	-0.0684	0.1926	1025.2523	0.124215	-400.801124	-400.792813	-400.791869	-400.834402	30.578	
C	-0.0316905481	 1.5424170856	 0.0409519122	-0.426567
C	-0.0090790996	 0.0014400513	-0.0355326068	 0.006556
C	 0.8008886457	-0.5518458499	-1.2429726321	-0.319617
C	 1.9436736374	-1.3063214373	-0.6175031986	-0.046535
C	 1.9201813192	-1.3105560992	 0.7196186831	-0.172988
C	 0.7645670755	-0.5463149197	 1.2217577831	 0.375999
O	 0.4521500812	-0.3171031554	 2.3610536879	-0.321412
C	-1.373596858	-0.5232880968	-0.0275191188	 0.272343
N	-2.4512770417	-0.9416648939	-0.0376334481	-0.340819
H	 0.9915347235	 1.9282109014	 0.0032046808	 0.128269
H	-0.5985458756	 1.9657600952	-0.7917731786	 0.137575
H	-0.4875600454	 1.8575154323	 0.9818504139	 0.161084
H	 0.1993813963	-1.2067641988	-1.8819494607	 0.150167
H	 1.1634206376	 0.258778947	-1.8858720903	 0.133523
H	 2.6991893828	-1.7887850125	-1.2282569697	 0.130188
H	 2.6301681194	-1.7808812094	 1.3868161727	 0.132234
