21
gdb 84785	2.61502	1.5368	1.2267	1.6433	82.85	-0.2367	0.0263	0.263	1116.1054	0.182983	-387.088354	-387.07984	-387.078896	-387.121794	32.837	
C	 0.4712011355	 1.6265627929	-0.6122701505	-0.399979
C	 0.0342697356	 0.2576262148	-0.0624185127	-0.083219
C	 0.2111239372	-0.8356423494	-1.0937882096	-0.06659
C	 1.2248064509	-1.6481816316	-0.8017367018	-0.072412
C	 1.8882518704	-1.2644030878	 0.4969308528	-0.306325
C	 0.8865456794	-0.2709318263	 1.1259492557	 0.437856
C	 1.4014062781	 0.6894264878	 2.2244519763	-0.357894
C	 0.5198968981	-0.1352948335	 3.1778259497	-0.06983
O	 0.0328940782	-0.9509588324	 2.0965993108	-0.321519
H	 1.5319397629	 1.6249806242	-0.8851789654	 0.117013
H	-0.0988452258	 1.8742764846	-1.5135372466	 0.116139
H	 0.3044143174	 2.4293895233	 0.1126027292	 0.113466
H	-1.0049669776	 0.3296833342	 0.2798310454	 0.085742
H	-0.4060291672	-0.8940182212	-1.9841258727	 0.088351
H	 1.5620178468	-2.4789596454	-1.4114444102	 0.090716
H	 2.0529170099	-2.1082620156	 1.1755142111	 0.113297
H	 2.8669857165	-0.7941268515	 0.3242028912	 0.102224
H	 2.4761398719	 0.6479784214	 2.4117996953	 0.106398
H	 1.1027578414	 1.7320892246	 2.1078074278	 0.108457
H	 1.0607007927	-0.7260556935	 3.9283644682	 0.09811
H	-0.2902240724	 0.4090765206	 3.6782921262	 0.099999
