17
gdb 124131	3.73713	0.98599	0.78791	2.8762	90.1	-0.2181	-0.0096	0.2085	1437.0421	0.136151	-380.878578	-380.869231	-380.868287	-380.915354	31.821	
C	-0.0824681289	 1.4622936976	-0.0430052655	-0.510161
C	-0.0205796207	 0.0096079745	-0.0370246678	 0.165868
C	 0.039635372	-1.1962356339	-0.0317072581	-0.060296
C	 0.1156300673	-2.6045494945	-0.0248765005	 0.258885
C	 1.2118050711	-3.4603556298	-0.0475072669	-0.341841
C	 0.6588373884	-4.7490224021	-0.0280809099	-0.012045
N	-0.6738071643	-4.7164878942	 0.0048669758	-0.253458
N	-0.9916740386	-3.4124645019	 0.0019245998	-0.049136
C	-2.3790579313	-3.0089808194	 0.0875468181	-0.325106
H	 0.8809137702	 1.8955691081	 0.2471679654	 0.156674
H	-0.3348640604	 1.8496309897	-1.0367007896	 0.153143
H	-0.8371287899	 1.8314605097	 0.6603769031	 0.152816
H	 2.2483347767	-3.169130286	-0.0818780939	 0.108416
H	 1.1690895332	-5.7008144217	-0.0423569684	 0.111201
H	-2.7377652201	-3.0527248275	 1.1212816591	 0.14221
H	-2.4740828167	-1.9868617837	-0.2806429646	 0.148991
H	-2.9782673181	-3.6840810949	-0.524876396	 0.15384
