18
gdb 11050	3.4469	2.33338	1.99444	1.3398	71.35	-0.2347	0.0123	0.247	773.9689	0.155583	-347.809956	-347.803402	-347.802458	-347.840021	27.268	
C	 0.0303883483	 1.4971455066	 0.0714849764	-0.488229
C	-0.0263882163	-0.004220549	-0.0658486623	 0.399237
C	 0.6893517375	-0.7021363134	-1.2379325693	-0.248586
C	 0.3159908912	-2.1076294101	-0.7032018699	-0.104308
C	 0.9198456676	-1.9684432769	 0.7293982485	-0.068469
O	 0.6670960709	-0.6064561272	 1.0801219856	-0.30833
C	-1.1831608874	-1.9410961446	-0.5184407329	-0.088312
C	-1.3945943558	-0.6792285173	-0.1301479539	-0.10605
H	 1.0672979464	 1.8426663949	 0.1037259986	 0.123248
H	-0.4748646554	 1.9762885482	-0.7725220173	 0.117839
H	-0.4633694002	 1.81634036	 0.9943840592	 0.126909
H	 0.2450035014	-0.4871569559	-2.2110153475	 0.100204
H	 1.7643797651	-0.4975282899	-1.2518891842	 0.094802
H	 0.6585795303	-2.9798339067	-1.2589352158	 0.06659
H	 0.4453705227	-2.642630211	 1.4522399908	 0.094762
H	 2.0019738023	-2.1536633709	 0.7289622503	 0.095307
H	-1.9047849076	-2.7466724887	-0.5740654292	 0.097148
H	-2.3209006509	-0.2283790881	 0.2036767429	 0.096239
