15
gdb 19126	3.42999	1.80163	1.36471	2.0887	67.03	-0.2486	0.0155	0.2641	906.2509	0.117689	-362.568624	-362.561017	-362.560073	-362.600631	28.326	
C	-0.0808041966	-1.1924883466	 0.0655638603	-0.402031
C	-0.0433337941	 0.0083882706	 0.0528630184	 0.29125
C	-0.0469140245	 1.4530416588	 0.0258676197	 0.162954
C	 0.5921359831	 2.1962935769	 1.1336255761	-0.201445
O	 1.2433008216	 2.0748899189	-0.129246542	-0.264573
C	-1.1555083154	 2.0791394792	-0.7804667178	-0.070261
C	-1.0105241369	 3.4578040978	-1.3010031297	-0.247441
N	-0.9608099154	 2.3053860207	-2.220717141	-0.316362
H	-0.1035850861	-2.2544634227	 0.0743894572	 0.202679
H	 0.2197644286	 3.1900991629	 1.3755663022	 0.122111
H	 1.0529753099	 1.6428686751	 1.9491159896	 0.129328
H	-2.1435959434	 1.7049401901	-0.5237376536	 0.102787
H	-1.8892788378	 4.0880616402	-1.4006455226	 0.118284
H	-0.0822137944	 3.9787966334	-1.0889807921	 0.128002
H	 0.0133768915	 2.1192426648	-2.4530655147	 0.244717
