18
gdb 124849	3.62213	1.15941	1.08821	4.8742	77.22	-0.2484	0.002	0.2505	1173.7536	0.149108	-398.121345	-398.113195	-398.112251	-398.155058	30.611	
C	-0.1661623894	 1.476662884	 0.3082904977	-0.456683
C	 0.0075923382	-0.0125227469	 0.041659957	 0.226896
C	 1.3659607417	-0.4980063883	-0.434563946	-0.298814
C	 0.9030205912	-0.8016907883	 0.9672714324	-0.2933
C	-1.1963566355	-0.696846379	-0.4888549169	 0.29106
C	-2.1165494882	-1.565712723	 0.0553853258	-0.165314
N	-3.0642558831	-1.8653781757	-0.8768842369	-0.185844
N	-2.7918074891	-1.2290730297	-1.9787600049	-0.119086
N	-1.6681020674	-0.5204946819	-1.7519414588	-0.247844
H	 0.7596367815	 1.9096198766	 0.6989028105	 0.119927
H	-0.4290317345	 2.021261676	-0.6055359909	 0.114998
H	-0.9609183636	 1.6530496795	 1.0402363861	 0.132289
H	 1.3976208956	-1.3173060817	-1.1438861937	 0.123057
H	 2.1425568495	 0.2467887285	-0.5715364563	 0.117029
H	 1.3654285385	-0.2671219454	 1.7897937019	 0.117878
H	 0.6282065739	-1.8247181735	 1.1957633662	 0.125683
H	-2.1479835929	-1.98187912	 1.0491823843	 0.120854
H	-1.2764081264	 0.0345982687	-2.4963115975	 0.277213
