20
gdb 13009	2.56679	2.42611	1.63679	0.2563	79.41	-0.2227	0.0233	0.246	895.4947	0.177502	-311.876309	-311.868477	-311.867533	-311.907777	31.06	
C	-0.1764972693	 1.5479259262	 0.0252261907	-0.394992
C	 0.0336378571	 0.0268916092	-0.0098708991	-0.083539
C	 0.8586710369	-0.4657640357	-1.184584154	-0.088166
C	 1.8492289055	-1.2766101963	-0.8063464936	-0.084712
C	 1.9083758806	-1.413864833	 0.6771088655	-0.120408
C	 2.2049163658	-0.1216604113	 1.420374526	-0.325067
C	 0.7731010638	-0.5531479375	 1.2116361066	 0.355225
C	-0.0554181195	-0.955577201	 2.4085755719	-0.485574
H	 0.7780991424	 2.0811030962	 0.067005739	 0.116873
H	-0.7124704461	 1.8903887938	-0.8663520855	 0.110094
H	-0.7666865075	 1.8411858239	 0.8998897359	 0.113062
H	-0.9653576595	-0.4361390705	-0.0566254765	 0.073522
H	 0.6480321581	-0.1611124489	-2.2043963139	 0.087665
H	 2.5590482814	-1.7567306047	-1.4711338529	 0.091655
H	 2.1835227026	-2.3582947278	 1.1354821352	 0.080394
H	 2.5901200987	-0.203477484	 2.4324338266	 0.10335
H	 2.6149353802	 0.7032023752	 0.8471063641	 0.108048
H	-0.5490570809	-0.0871766425	 2.8624427137	 0.115628
H	-0.8376975891	-1.6708426312	 2.1282771074	 0.114845
H	 0.5610096187	-1.4223753901	 3.1834909928	 0.112095
