15
gdb 132424	3.18705	1.36411	0.96086	2.2028	74.46	-0.2125	-0.041	0.1715	1141.6382	0.112173	-461.954502	-461.946775	-461.945831	-461.986797	29.254	
C	-0.0168227575	 1.5222236805	-0.0190065187	-0.470699
C	-0.0471243494	 0.0226985674	-0.0188095442	 0.197763
C	-1.178792404	-0.7143290254	-0.1249115361	-0.142182
C	-1.1591041613	-2.1514091271	-0.1202454604	-0.379109
C	 0.0451800232	-2.7289754054	-0.0049577391	 0.397841
F	 0.2534681362	-4.0263239612	 0.0172033652	-0.040547
O	 1.1943767465	-2.0698782009	 0.1026339275	-0.246934
C	 1.2357075897	-0.6563787229	 0.1047748747	 0.340947
N	 2.3532537174	-0.0678974875	 0.2107479054	-0.52802
H	 0.6018115392	 1.8988173673	-0.8403134497	 0.144995
H	-1.0250100891	 1.932809188	-0.1154427648	 0.113678
H	 0.4372798911	 1.9026546752	 0.9018646118	 0.14506
H	-2.1365208312	-0.2122205157	-0.2169336481	 0.114171
H	-2.0510716607	-2.7537383625	-0.2034128627	 0.125204
H	 3.1207467799	-0.7344162996	 0.2851512892	 0.227831
