16
gdb 31581	3.36942	1.192	0.89063	1.049	69.47	-0.1831	0.0406	0.2237	1264.4078	0.125228	-471.226627	-471.217757	-471.216813	-471.260045	32.439	
C	 0.0072258212	 1.3197007719	-0.0146467353	-0.234431
O	-0.0719911001	-0.1090584435	-0.0137789752	-0.251219
C	-1.3044747921	-0.5979332216	-0.0111684203	 0.49873
N	-2.4269175378	 0.0541081714	 0.0023667262	-0.436328
C	-3.3820089147	-0.9603644562	 0.0093012752	 0.259853
N	-4.7333430863	-0.650033419	-0.0499626689	-0.597038
C	-2.783479596	-2.1772819221	 0.0088242378	 0.181934
N	-3.2761558807	-3.470356589	 0.0118847735	-0.605356
O	-1.3802823894	-1.9253470199	-0.0184110766	-0.224894
H	 1.071451167	 1.5546630971	-0.0267076995	 0.135832
H	-0.4880356635	 1.7319293542	-0.8980656057	 0.144229
H	-0.466912564	 1.7321576246	 0.8803232226	 0.140926
H	-4.9548980082	 0.200260289	 0.4505909016	 0.249569
H	-5.3198254433	-1.4202359053	 0.242427339	 0.250495
H	-3.0973623937	-3.9871495919	-0.8436437272	 0.244418
H	-2.9648333583	-4.0281919297	 0.8004291426	 0.24328
