21
gdb 73278	2.44626	1.65533	1.31325	2.5457	77.45	-0.2357	0.077	0.3127	1072.6582	0.183935	-424.217147	-424.208919	-424.207975	-424.249974	32.173	
C	-0.1111661493	 1.5083808358	 0.055949702	-0.440507
C	 0.0343813521	-0.0096506955	 0.012470206	 0.402023
C	-1.2822217654	-0.67245675	-0.3856145959	-0.128664
O	-1.3727400086	-2.0370197807	-0.0345348082	-0.242081
C	-1.1836064552	-2.2204051334	 1.356594044	-0.077247
C	 0.2804411541	-1.9907955842	 1.7293730168	-0.22907
C	 0.7997159503	-0.6263830999	 1.2285375564	-0.101253
C	 1.97666976	-0.6987817879	 0.2330687922	-0.086411
O	 1.1197448711	-0.3874062197	-0.8805432591	-0.318478
H	 0.850510211	 1.9817217758	 0.2732865387	 0.120373
H	-0.4612569697	 1.8858658908	-0.9109599072	 0.124861
H	-0.8283348525	 1.814899248	 0.8248730209	 0.114016
H	-2.1198988818	-0.1153301453	 0.0691808591	 0.07958
H	-1.3835351124	-0.6166621255	-1.4742521276	 0.120057
H	-1.8473290969	-1.5434453431	 1.9227120419	 0.0812
H	-1.4846742901	-3.2476805442	 1.5818243904	 0.107825
H	 0.4086888737	-2.0794722582	 2.8136265859	 0.096246
H	 0.8655789718	-2.7960681316	 1.2726351906	 0.110411
H	 0.9351658482	 0.0722455871	 2.0570883689	 0.071803
H	 2.7552231805	 0.0627469961	 0.3786946022	 0.092669
H	 2.455147399	-1.6785873544	 0.1209671319	 0.102647
