19
gdb 7990	3.61741	1.61354	1.17275	3.6886	72.89	-0.233	0.0379	0.2709	1050.4607	0.166298	-365.12165	-365.11326	-365.112316	-365.154406	30.659	
C	-0.6844382377	 1.34834236	 0.025763778	-0.405885
C	 0.1715525446	 0.0850497895	-0.0033480644	 0.022487
C	 1.1968756231	 0.0494942683	-1.1610465546	-0.174274
N	 2.2677687246	-0.7829063493	-0.6474369812	-0.064439
C	 3.3597920855	-1.24545757	-1.4692573823	-0.343673
C	 2.2687422579	-0.9073971518	 0.7196202042	 0.401691
O	 3.1047864315	-1.4954237699	 1.374564345	-0.395347
C	 1.0473799438	-0.148113822	 1.239663963	-0.343906
H	-0.0627827628	 2.2411386706	 0.1579985373	 0.117975
H	-1.2496725164	 1.4683068838	-0.9049612261	 0.116447
H	-1.4041586743	 1.3175598384	 0.8497445961	 0.121894
H	-0.4843830898	-0.7856539578	-0.1224415355	 0.087744
H	 0.7742662107	-0.3750154447	-2.0796352107	 0.106869
H	 1.5613096431	 1.0608634628	-1.4067584522	 0.096988
H	 3.9072412721	-0.4068188904	-1.9204405232	 0.119226
H	 4.0382471761	-1.8103522475	-0.8275492587	 0.164772
H	 2.9987901244	-1.8927578601	-2.2775519803	 0.120892
H	 1.3989849919	 0.7992971984	 1.6688838868	 0.122905
H	 0.557282132	-0.7049978384	 2.0404257889	 0.127633
