17
gdb 15354	6.14942	0.89393	0.84505	4.3292	69.4	-0.2751	0.0339	0.309	1320.5713	0.141667	-363.855168	-363.846487	-363.845543	-363.889166	30.586	
O	-0.1250321162	 1.3308149121	-0.7125140621	-0.417035
C	 0.0245698045	 0.1181735189	 0.0111966841	-0.097323
C	-1.3366826998	-0.5215607759	 0.1071684357	-0.006372
C	-1.8703160285	-1.3759781618	-1.0157062621	-0.274506
C	-1.5466306084	-2.00451548	 0.3152236054	-0.01111
C	-0.3891255858	-2.984509611	 0.459762968	-0.368755
C	-0.7938191978	-4.3575989799	 0.1499391275	 0.265968
N	-1.1252830953	-5.4380226853	-0.0905904554	-0.304217
H	 0.7195556562	 1.7912613941	-0.7041240238	 0.287835
H	 0.7347965324	-0.5548210904	-0.4950686272	 0.079358
H	 0.420504404	 0.3082519468	 1.0221881226	 0.090049
H	-2.0599396421	 0.1173295337	 0.606177892	 0.100909
H	-2.9091314899	-1.2763025216	-1.3074346444	 0.124107
H	-1.1954335453	-1.581197697	-1.8412484389	 0.120574
H	-2.3958471338	-2.2666104021	 0.9388509564	 0.107995
H	 0.4389487541	-2.718218737	-0.2044621154	 0.150085
H	 0.0094847218	-2.9687927336	 1.4815794776	 0.152437
