14
gdb 128932	7.34137	0.78309	0.71488	2.839	70.52	-0.2296	-0.004	0.2255	1455.9052	0.101745	-432.861154	-432.853152	-432.852208	-432.89507	28.13	
N	-0.1283844282	-1.0748614049	 0.2540237792	-0.284832
C	-0.0485630758	 0.0632948743	 0.077814703	 0.25361
C	 0.0591574739	 1.500896759	-0.1764002833	-0.272458
N	 1.4277968751	 1.9505451701	 0.0461033357	-0.417572
C	 1.7028185304	 3.2942380355	 0.0297463203	 0.55266
C	 2.8699047076	 4.0043640889	-0.0631706349	-0.385621
C	 2.4260391093	 5.3441102814	 0.0538662347	 0.058468
N	 1.1294687908	 5.4569190271	 0.1981457102	-0.159443
O	 0.6594855333	 4.1196391222	 0.1782014299	-0.222813
H	-0.3045252229	 1.706036315	-1.1948155719	 0.163321
H	-0.6029643736	 2.0370443328	 0.5095686681	 0.193336
H	 2.1447898255	 1.366785424	-0.3571732389	 0.269189
H	 3.8719405119	 3.6313188309	-0.1841662554	 0.116406
H	 3.0216932327	 6.2467919137	 0.0375906732	 0.135748
