16
gdb 5543	3.17332	1.97187	1.31177	3.4962	67.37	-0.2066	0.0391	0.2457	934.7172	0.130749	-379.950248	-379.942033	-379.941089	-379.983569	28.778	
C	 0.0210842941	 0.9931265899	 0.414123017	-0.249279
O	-0.5299439011	 0.2286594516	-0.6611687078	-0.269968
C	 0.3665989433	-0.5180515385	-1.3482992557	 0.278139
C	 0.8187444608	-1.8028456958	-1.1894201852	 0.191443
C	 0.4550876656	-2.7834131386	-0.1238504006	-0.494943
N	 1.700720048	-2.1058048704	-2.2103017265	-0.309175
C	 1.7738389436	-1.033820076	-2.9619738926	 0.002729
N	 0.9884364107	-0.0264919165	-2.4838450596	-0.300828
H	 0.5171051826	 0.3436318925	 1.1441694	 0.129162
H	 0.7437641776	 1.7332921488	 0.0474644546	 0.114737
H	-0.8153730937	 1.5090426933	 0.8897141962	 0.134208
H	-0.3412359029	-2.3839426394	 0.5102551288	 0.120266
H	 0.1044444838	-3.7230758016	-0.5631670691	 0.134328
H	 1.3138823911	-3.0262751216	 0.5122753314	 0.127221
H	 2.3680901608	-0.9260940331	-3.8573009922	 0.126052
H	 0.8185589257	 0.8741473354	-2.8992401787	 0.265908
