14
gdb 4346	3.88501	1.95966	1.31314	2.2668	66.28	-0.2515	-0.0364	0.2151	885.167	0.109186	-378.800093	-378.793245	-378.792301	-378.83168	25.171	
C	-0.0316626693	 1.5074357706	-0.0000411952	-0.468361
C	 0.005377201	 0.004958415	-0.0218254623	 0.327124
C	-0.1209969922	-0.727343818	-1.2045897592	-0.188389
C	-0.0708751554	-2.110096292	-1.0958230569	 0.018176
N	 0.089485043	-2.7353674485	 0.0703839015	-0.352466
C	 0.1992705179	-1.9316468426	 1.1340393795	 0.441829
O	 0.3617644733	-2.5291439399	 2.3236274989	-0.390444
N	 0.1670499644	-0.6046029548	 1.1584337734	-0.333493
H	 0.8963768813	 1.8983228496	 0.4287234768	 0.149489
H	-0.1654819633	 1.9255680501	-0.9999273762	 0.122059
H	-0.8474617718	 1.8523097412	 0.642915487	 0.149484
H	-0.2520248258	-0.2405024535	-2.1624543221	 0.101832
H	-0.162228188	-2.7458641446	-1.9736956712	 0.118844
H	 0.3650953348	-3.4796218726	 2.1460610961	 0.304318
