19
gdb 119364	3.05564	1.14396	0.98742	2.29	76.82	-0.2275	0.0092	0.2367	1280.3332	0.158154	-422.990583	-422.981795	-422.980851	-423.024914	32.401	
C	 0.0475929924	 1.5043708296	-0.0578386154	-0.387877
C	 0.0326075981	-0.0109860801	 0.0124235949	-0.076876
O	 0.5863518732	-0.5168129519	-1.2078473297	-0.297565
C	 0.6998521373	-1.8729745033	-1.2481659613	 0.317583
C	-0.4343039674	-2.9816556586	-1.3289055746	-0.300327
C	 0.8966831328	-3.7928333621	-1.4272966572	-0.18113
C	 1.4077370842	-2.6643209894	-2.3896398537	-0.288179
C	 1.3988794079	-2.8753349017	-0.2983818967	 0.391359
O	 1.9862417657	-2.9189164321	 0.7389449322	-0.33908
H	 1.0707999471	 1.8739594701	-0.1679748775	 0.131981
H	-0.5392285547	 1.8561888314	-0.9110956382	 0.127792
H	-0.378792852	 1.9284884087	 0.8559693703	 0.119559
H	 0.624260932	-0.3760516906	 0.861646665	 0.127847
H	-0.9949854788	-0.3854310088	 0.1318669534	 0.097527
H	-1.0639128795	-3.1473793606	-0.4531573945	 0.112625
H	-1.0114089782	-2.9497372271	-2.2554389889	 0.11152
H	 1.0086249719	-4.8647782012	-1.5454348356	 0.103744
H	 0.8882526519	-2.6249937836	-3.3495583037	 0.11217
H	 2.4859376962	-2.5356698487	-2.4977245989	 0.117327
