21
gdb 41693	2.96167	1.75358	1.47677	1.3407	80.47	-0.2321	0.0789	0.311	980.1962	0.186157	-387.06876	-387.061875	-387.060931	-387.099698	29.394	
C	-0.028104905	 1.4880216788	-0.256311891	-0.243161
C	 1.5000309341	 1.5651913692	 0.0300942739	-0.250747
C	 1.4780157727	 0.0987490278	 0.5535830301	-0.023164
C	 1.5789792862	-0.1191757912	 2.0625667675	-0.032885
C	 0.3926920887	 0.5717895226	 2.7983633893	-0.25888
C	-0.4500867523	-0.6514143955	 2.3443273687	 0.133553
C	 0.8704114753	-1.4727409968	 2.3701610173	-0.242952
O	-0.953304996	-0.5090035056	 1.0252189036	-0.28436
C	-0.0078736994	-0.0323702909	 0.0760909408	 0.131041
H	-0.6454868038	 2.0558923331	 0.4425208857	 0.109582
H	-0.3418059868	 1.7400009235	-1.2722098122	 0.096092
H	 2.1075264401	 1.6931355524	-0.8686465165	 0.100335
H	 1.8122540167	 2.317841749	 0.7588652558	 0.099445
H	 2.1733273266	-0.5781111679	 0.046611183	 0.067268
H	 2.5919849334	 0.0514983287	 2.4368997197	 0.0599
H	 0.5398035337	 0.5632203608	 3.8817295266	 0.099262
H	 0.0698567856	 1.5676497005	 2.4894436929	 0.098857
H	-1.29551704	-0.9776000877	 2.9523855279	 0.072634
H	 0.9670807858	-2.2843535309	 1.6436476167	 0.094734
H	 1.0943369825	-1.8435326867	 3.3737798453	 0.096695
H	-0.124652368	-0.6513076431	-0.8185674352	 0.076752
