19
gdb 91083	3.42089	1.39462	1.2156	1.4599	81.61	-0.2179	0.0155	0.2334	1072.7808	0.16083	-385.851726	-385.844288	-385.843344	-385.883367	30.402	
O	-0.2481120277	 1.4058401338	-0.1369635208	-0.426626
C	 0.0058507388	 0.0303869611	-0.0179332073	 0.051896
C	 0.2706772533	-0.6024481962	 1.4087201784	-0.297561
C	-0.6710099644	-1.7986463749	 1.0128593251	-0.048991
C	-1.9205744592	-2.2808801866	 1.7310416725	-0.066118
C	-2.8661914113	-1.2953513957	 2.3650270713	-0.283689
C	-3.1162785194	-1.7297626341	 0.9327144959	-0.061767
C	-2.5362552793	-0.780019754	-0.0726449027	-0.223874
C	-1.2046973777	-0.860713114	-0.0478324341	 0.228877
H	 0.5939693302	 1.8647727577	-0.2136696967	 0.284619
H	 0.7874287719	-0.2973131014	-0.7203227394	 0.073971
H	 1.3064699	-0.8450354925	 1.6599063885	 0.093558
H	-0.1691458324	 0.0335556272	 2.1796371905	 0.115274
H	-0.079536282	-2.6373748034	 0.6292075374	 0.071336
H	-1.9473868566	-3.2988939083	 2.1009763764	 0.081158
H	-3.5280317029	-1.6909966205	 3.1288291561	 0.107784
H	-2.5440897447	-0.2731273099	 2.5360707422	 0.114885
H	-3.9941820494	-2.3292753747	 0.7152513148	 0.083685
H	-3.1260218173	-0.0226476035	-0.5754839783	 0.101586
