17
gdb 42598	3.8957	1.68005	1.57797	3.1416	74.07	-0.2308	0.0047	0.2356	878.0474	0.139745	-384.6967	-384.690837	-384.689893	-384.726753	25.224	
O	 0.0429404171	 0.0023649141	-0.060017286	-0.327017
C	-0.0057510236	 1.1906944201	 0.0334940025	 0.445169
C	-1.1125726461	 2.2716853987	 0.0428988493	-0.177883
C	-0.8138045977	 3.0147933188	 1.3510287788	-0.068844
C	-0.1106523853	 4.3219828258	 1.0499660123	-0.072386
C	-0.1660553008	 4.5522296754	-0.4455094936	-0.244108
C	-0.1154546831	 3.0868543798	-0.8715787724	-0.055449
C	 1.0019647482	 2.3633763865	-0.0213010912	-0.177883
C	 0.7198021623	 3.081266904	 1.3044771731	-0.068844
H	-2.1439874179	 2.065290977	-0.2330797331	 0.081673
H	-1.3629609282	 2.8282627245	 2.2630701564	 0.096924
H	-0.1238378359	 5.1304490571	 1.7698651374	 0.090411
H	-1.0887187707	 5.0463602925	-0.7678870876	 0.105834
H	 0.6891978307	 5.1234478112	-0.8218748652	 0.105832
H	-0.1371760124	 2.8451082405	-1.9321649359	 0.087973
H	 2.0287552253	 2.24623267	-0.3597657198	 0.081674
H	 1.3372281881	 2.9452902641	 2.1811079452	 0.096925
