14
gdb 2652	19.681	0.95161	0.9181	2.8308	65.2	-0.2535	0.0143	0.2679	1212.9401	0.110223	-324.52558	-324.517269	-324.516325	-324.559569	27.529	
C	-0.0576293021	 1.424186975	 0.1254719106	-0.317157
N	 0.0226088271	-0.0149191289	 0.2578625062	-0.197913
C	-1.0186796317	-0.6781642982	 0.029148983	 0.14842
O	-1.0116879485	-2.0258716387	 0.1348234313	-0.204133
C	-2.261830856	-2.6589737188	-0.1523374509	-0.227121
C	-2.1197274225	-4.0978831985	-0.0028012118	 0.286346
C	-2.0375835795	-5.2897290145	 0.1114132425	-0.404378
H	 0.6709513386	 1.7652772357	-0.6186952421	 0.130518
H	-1.0534079903	 1.7937748806	-0.1705566503	 0.095478
H	 0.2155137639	 1.8957871861	 1.0762282586	 0.130519
H	-1.9891920348	-0.2458628458	-0.2649148774	 0.07326
H	-3.0393232125	-2.2871910804	 0.5304440362	 0.138959
H	-2.58019236	-2.419307343	-1.177089724	 0.138966
H	-1.9556652818	-6.3436732706	 0.214971508	 0.208235
