18
gdb 93189	2.85752	1.34299	0.94907	5.2295	74.88	-0.2531	-0.0626	0.1905	1221.6003	0.147667	-439.116515	-439.107931	-439.106987	-439.150504	31.785	
C	-0.1817134164	 1.521437763	-0.0099116506	-0.404435
C	 0.0352668617	 0.0063214407	-0.0373059644	-0.026011
C	 0.8966321164	-0.4112421535	-1.2222064982	-0.072291
O	 1.0366412803	-1.8335278693	-1.3300675648	-0.257561
C	 1.2692033103	-2.599433811	-0.2266108573	 0.28083
N	 1.5934994336	-3.8189755024	-0.3205919625	-0.462033
C	 1.0688913134	-1.9850944517	 1.1650131142	 0.324098
O	 1.195233417	-2.6633615961	 2.1508700466	-0.267308
C	 0.7166914882	-0.5082196406	 1.2348678518	-0.313555
H	 0.7725813962	 2.055561297	 0.0645097986	 0.122284
H	-0.6923618102	 1.8672572866	-0.9142187083	 0.122792
H	-0.7913866516	 1.8106459257	 0.8511919968	 0.12874
H	-0.9384012744	-0.4904934475	-0.1451016566	 0.098003
H	 0.4555962135	-0.1001061655	-2.1725536484	 0.123061
H	 1.8941082027	 0.046824908	-1.1463756085	 0.108846
H	 1.673040285	-4.080849399	-1.306616226	 0.228446
H	 1.6625618516	 0.0361258219	 1.3807862662	 0.13207
H	 0.1206764927	-0.3447068763	 2.1369856614	 0.134023
