20
gdb 122866	6.90587	0.50275	0.47529	2.2079	73.24	-0.2454	0.0162	0.2616	2253.062	0.168973	-477.441818	-477.430605	-477.42966	-477.480756	37.266	
N	 0.3057111102	 1.2890089305	-0.0260685422	-0.485755
C	-0.0189584675	-0.1251146096	 0.0243018195	-0.273667
C	-1.5097283577	-0.4518824926	-0.0309978151	 0.413719
O	-2.3924016788	 0.3661312863	-0.109366833	-0.360084
O	-1.713120791	-1.7811563862	 0.0196302292	-0.241263
C	-3.0870322193	-2.2122995105	-0.0251055481	-0.065342
C	-3.0933069119	-3.7298992432	 0.0425669864	-0.190234
C	-4.5063579285	-4.2998146582	 0.0023987041	-0.072954
O	-4.3981219574	-5.7119547362	 0.0705226857	-0.418651
H	-0.0944684706	 1.6892755003	-0.8704033276	 0.235361
H	-0.1732677868	 1.7644280376	 0.7340811281	 0.235417
H	 0.4719504707	-0.6516015278	-0.8025839564	 0.138513
H	 0.3893063157	-0.5705475876	 0.9391231837	 0.138536
H	-3.6283678417	-1.7609961017	 0.8134546864	 0.120642
H	-3.5463131712	-1.8398201134	-0.9471715292	 0.120669
H	-2.5192288756	-4.1402693066	-0.794877491	 0.119288
H	-2.6009197227	-4.0615422416	 0.9628108791	 0.119293
H	-5.0944731007	-3.9022789456	 0.8459491299	 0.08931
H	-5.0122689491	-3.9813555526	-0.9239532777	 0.089309
H	-5.2845817963	-6.0836362612	 0.0458326885	 0.287891
