17
gdb 60950	3.72915	1.05073	0.96558	2.2747	69.1	-0.2442	-0.0359	0.2082	1228.2831	0.134588	-458.913401	-458.90512	-458.904176	-458.947212	30.457	
O	 0.0752317765	 1.6301924315	 0.0429412529	-0.440055
C	 0.0065266229	 0.229110194	 0.1035947189	 0.028731
C	 0.6731606752	-0.386178734	-1.1091957292	 0.131866
O	 1.1720493631	 0.291934903	-1.9753082234	-0.266624
C	 0.6442579032	-0.3145495132	 1.3727104722	-0.071214
C	 0.0642104814	-0.09276882	 2.7588795072	-0.142888
C	-1.45005401	-0.2483953235	 2.7247294522	-0.100238
O	-1.3397209417	-1.5315293683	 2.0409683566	-0.283529
C	 0.0854910929	-1.4747732644	 2.1451492508	 0.07182
H	 0.5242224473	 1.8310144942	-0.7935846776	 0.293222
H	-1.0412258787	-0.1153149753	 0.0805778163	 0.112856
H	 0.6791647942	-1.4937227331	-1.1545746584	 0.10543
H	 1.7316069618	-0.2707654598	 1.3888929239	 0.101552
H	 0.6429467006	 0.3379505685	 3.5637517956	 0.108256
H	-1.8944604187	-0.3878744714	 3.7155014377	 0.116472
H	-2.0306082618	 0.4846901218	 2.1541839283	 0.124671
H	 0.6112004118	-2.3918933798	 2.3855480062	 0.109673
