21
gdb 116277	1.8979	1.48119	0.90584	2.3594	79.53	-0.2458	-0.0226	0.2232	1329.656	0.182015	-424.247464	-424.237977	-424.237033	-424.282868	34.155	
C	-0.0613140789	 1.5959838147	-0.0148072851	-0.392338
C	 0.0047024997	 0.0670608021	 0.0346267478	-0.202829
C	-1.3746495041	-0.5790846512	-0.0062233822	 0.122427
O	-1.9984702061	-0.3036628792	-1.2512850404	-0.248042
C	-3.1284482694	-1.153797704	-1.3225311747	-0.077326
C	-2.6569970228	-2.5107193992	-0.7548222876	-0.262921
C	-1.4427757993	-2.1375376901	 0.1410624153	-0.103172
C	-0.1831333259	-2.8171738362	-0.3472499349	 0.160603
O	 0.5950686041	-3.4098235125	 0.3551437259	-0.261075
H	 0.9411914922	 2.0327117406	 0.0110912108	 0.114252
H	-0.5593760871	 1.9315948055	-0.92802786	 0.136734
H	-0.6216356813	 1.9934780389	 0.8389241287	 0.113474
H	 0.5996994197	-0.3058184042	-0.807072073	 0.108783
H	 0.5114540121	-0.2633471461	 0.9490386508	 0.113289
H	-1.990743818	-0.1558442492	 0.8075194588	 0.069214
H	-3.954936676	-0.7484365287	-0.7167680248	 0.093593
H	-3.454577667	-1.1995036748	-2.3641717378	 0.112581
H	-3.4390729909	-3.0254308748	-0.1933501596	 0.116155
H	-2.3454501231	-3.1758740159	-1.5671151262	 0.113419
H	-1.5793772886	-2.415836178	 1.1880308444	 0.093187
H	-0.0169301393	-2.7371862276	-1.4473758063	 0.079991
