19
gdb 66193	2.26706	1.51825	1.40535	4.3391	79.82	-0.2409	0.0132	0.2541	1066.9535	0.16061	-382.089996	-382.081463	-382.080519	-382.122744	32.949	
C	 0.0027088269	 1.525574686	 0.0305763929	-0.423738
C	-0.0189142153	-0.0118698359	-0.0030575307	 0.076233
C	 0.6917038087	-0.5503455461	-1.2755681353	-0.273519
C	 1.0481360523	-2.0083373481	-1.1471510907	-0.06444
C	 1.0231565937	-2.6567382731	 0.0147934265	-0.038621
C	 0.6554461619	-1.981780773	 1.3105460185	-0.234523
N	 0.5929274888	-0.5162640924	 1.2376006065	-0.305932
C	-1.4301564633	-0.4575598481	-0.0211695338	 0.31683
N	-2.5361158769	-0.7900560942	-0.0550624381	-0.350621
H	 1.040294149	 1.8734347987	 0.0730430077	 0.117821
H	-0.4611944338	 1.9414194807	-0.8673119679	 0.135593
H	-0.5262428822	 1.8944695589	 0.9112906773	 0.146564
H	 0.0561420509	-0.3893045987	-2.154590787	 0.12473
H	 1.5951833245	 0.0533921573	-1.4440233822	 0.10754
H	 1.3239850563	-2.5276077791	-2.0608511926	 0.094923
H	 1.2496926599	-3.7190121794	 0.0591404773	 0.093872
H	-0.3170001064	-2.3585761735	 1.6593321728	 0.141285
H	 1.3738364639	-2.2423540955	 2.0962379902	 0.11391
H	 1.5357051211	-0.1400474644	 1.2787919187	 0.222095
