21
gdb 36356	4.36992	0.7613	0.69497	0.813	90.	-0.2467	0.057	0.3037	1658.0795	0.181155	-349.892175	-349.882654	-349.88171	-349.927385	35.811	
C	 0.0639185048	-1.1971938905	-0.4672714491	-0.445217
C	 0.0345032713	-0.0515808425	-0.1046001782	 0.304861
C	 0.0237372959	 1.3390036701	 0.3413398286	-0.379241
C	 1.3844551431	 2.0095290606	 0.2019939357	 0.000964
C	 1.7911319434	 2.6743803966	-1.0890223083	-0.301014
C	 1.5331644067	 3.5147751921	 0.1414080205	-0.02574
C	 0.3700879798	 4.4550539917	 0.212674644	 0.033487
C	 0.0847698528	 5.2178700909	 1.4851242369	-0.269746
C	 0.6105442153	 5.9443939015	 0.2720833215	-0.28361
H	 0.0812263962	-2.2080758946	-0.7907955584	 0.192024
H	-0.7299514078	 1.8930352199	-0.2301102104	 0.12623
H	-0.3036989229	 1.380090551	 1.388860147	 0.131922
H	 2.1717178226	 1.4817934312	 0.7327820464	 0.092268
H	 2.80815851	 2.5543441738	-1.4455315858	 0.110686
H	 1.0483196113	 2.7164197825	-1.8803853301	 0.111602
H	 2.4195417914	 3.8994995087	 0.6419119022	 0.078565
H	-0.5018402247	 4.1509032556	-0.3593190873	 0.078412
H	-0.9483991939	 5.3753390157	 1.7747709798	 0.110417
H	 0.7616525646	 5.0723323315	 2.3207481853	 0.110792
H	 1.640121146	 6.2869164249	 0.2923620598	 0.111568
H	-0.062651846	 6.5985092793	-0.27094345	 0.110768
