13
gdb 4264	4.16192	1.86149	1.29656	5.5368	62.62	-0.2492	-0.0421	0.2071	877.5715	0.096237	-398.655631	-398.648879	-398.647935	-398.686791	24.515	
C	 0.07087875	 1.5066613776	 0.0151968313	-0.47598
C	-0.0568915407	 0.0217583379	 0.0051079637	 0.395226
C	-1.1746928227	-0.7052651142	-0.1509574862	-0.316491
C	-1.1335796818	-2.169526049	-0.1365117312	 0.392588
O	-2.1066841196	-2.875398981	-0.2711721948	-0.3386
N	 0.1628138831	-2.7369691425	 0.0517304723	-0.300083
C	 1.1525318223	-1.9577456881	 0.1891250081	 0.125046
O	 1.1508498429	-0.5987237875	 0.1816303366	-0.215926
H	 0.7458346064	 1.8385025529	-0.780921691	 0.154469
H	-0.904333235	 1.9739179241	-0.1274016828	 0.148826
H	 0.4950151705	 1.848246463	 0.965418211	 0.154483
H	-2.1314623444	-0.2186855758	-0.2908150724	 0.125387
H	 2.1655081689	-2.3237951974	 0.3358852354	 0.151055
