20
gdb 17913	3.13184	2.16693	2.08218	0.1925	77.78	-0.2316	0.0263	0.2579	814.2747	0.180402	-311.88423	-311.877521	-311.876577	-311.91447	28.187	
C	-0.1341066787	 1.5484300976	-0.0001012686	-0.43089
C	 0.0543578722	 0.0337002652	 0.0147255007	 0.054284
C	 1.065103441	-0.5800594896	-0.9962905995	-0.061167
C	 2.4239492502	-0.0011239369	-0.4725817006	-0.203604
C	 2.2292434486	-0.0102547265	 1.0738051082	-0.203602
C	 0.7837941899	-0.5931638127	 1.2375913176	-0.061158
C	 0.868206818	-2.0396564426	 0.7791555517	-0.080422
C	 1.0354436961	-2.0318713889	-0.5479378895	-0.080419
H	 0.8009084403	 2.1015888767	 0.1206198324	 0.117124
H	-0.5869900662	 1.8692502502	-0.9448850084	 0.112887
H	-0.8071155465	 1.8590048335	 0.8069009421	 0.112888
H	-0.9223729116	-0.4452893647	-0.1110816755	 0.067249
H	 0.8773709783	-0.397054766	-2.0557879288	 0.051658
H	 3.2698138364	-0.6115310971	-0.7966593459	 0.095051
H	 2.5899796766	 1.0123059191	-0.8499606124	 0.093659
H	 2.9692574922	-0.6256245257	 1.5903403055	 0.095054
H	 2.2950767765	 0.9984826528	 1.4922932162	 0.093657
H	 0.3390079179	-0.4221054784	 2.2195156055	 0.051656
H	 0.8956547625	-2.8959469615	 1.4422259056	 0.088046
H	 1.2277458664	-2.8804893146	-1.1933203162	 0.08805
