19
gdb 97687	2.74069	0.80043	0.67254	0.8583	81.66	-0.256	0.0185	0.2744	1702.5656	0.156315	-422.970593	-422.960182	-422.959238	-423.008288	36.201	
C	 0.0319412034	 1.3618741929	-0.3296950987	-0.380855
C	-0.2307392508	-0.0548464889	 0.1903307239	-0.263405
C	 0.7044919383	-0.4479267651	 1.3225237619	 0.209098
C	 1.2370434376	-1.8242841337	 1.4024293154	-0.217383
O	 2.0520919976	-0.7677669563	 0.9089670365	-0.26403
C	 0.5970761746	 0.3252361875	 2.5386489132	 0.009782
C	 0.4652057879	 0.9916559953	 3.5347348616	 0.128589
C	 0.35735082	 1.7574970369	 4.7762231131	-0.202098
O	 0.2422474846	 0.947729313	 5.9373732587	-0.399577
H	 1.0587461414	 1.4524370835	-0.6960704346	 0.13296
H	-0.6470787937	 1.6045080941	-1.1520243854	 0.114418
H	-0.112899151	 2.1043823785	 0.4606343916	 0.127776
H	-1.2641001454	-0.1443160799	 0.545681641	 0.109922
H	-0.1005397312	-0.7813574037	-0.6187205286	 0.106569
H	 1.5272096896	-2.2303571375	 2.3698836476	 0.117358
H	 0.9113127562	-2.5568710869	 0.6643228024	 0.115605
H	 1.2136892684	 2.4469320783	 4.8490845312	 0.123589
H	-0.5452874695	 2.3781233603	 4.7554361975	 0.143077
H	 0.982986842	 0.3324719118	 5.9343481519	 0.288604
