20
gdb 95645	2.1982	1.71824	1.03976	4.2745	76.07	-0.2317	0.0118	0.2435	1171.5896	0.171277	-440.314506	-440.305561	-440.304616	-440.348497	33.346	
C	 0.3795305247	 1.6276318922	-0.0100715458	-0.404636
C	 0.2250054025	 0.1012732207	 0.0026274978	-0.08885
N	 0.7093065454	-0.5188396751	-1.233590123	-0.081163
C	-0.119659527	-0.1920718667	-2.3853633007	-0.32566
C	 0.859711928	-1.9539536053	-1.0656811823	-0.16857
C	 1.9240713819	-2.2056979272	-0.0215223103	-0.072332
O	 1.6041489545	-1.5897189136	 1.2334298454	-0.226178
C	 0.8842473142	-0.4503095998	 1.2818813215	 0.418251
O	 0.7168319812	 0.0865908684	 2.3439344347	-0.331984
H	 1.4099479022	 1.8990128178	-0.257194562	 0.125874
H	-0.2862700591	 2.0904249931	-0.7414144113	 0.11582
H	 0.1351337723	 2.018527495	 0.9777491953	 0.153116
H	-0.8505915978	-0.1333870329	 0.1518339554	 0.091593
H	-0.1133146485	 0.8834751919	-2.5720443069	 0.130572
H	 0.2858593885	-0.6862023812	-3.27305451	 0.121714
H	-1.1715505489	-0.5140402572	-2.263478731	 0.096896
H	-0.0863788709	-2.453353226	-0.7749408999	 0.089637
H	 1.1836890584	-2.3967398777	-2.0134617383	 0.111847
H	 2.0339565177	-3.2718785476	 0.1925595932	 0.121471
H	 2.8864831609	-1.8108409688	-0.3657089619	 0.122581
