23
gdb 111875	2.43927	1.33989	1.25438	1.01	85.27	-0.2335	0.0777	0.3112	1192.9987	0.208084	-388.283309	-388.274562	-388.273618	-388.316568	34.032	
C	 0.3489162774	 1.300552515	 0.1575066076	-0.234845
O	-0.279857411	 0.1211241563	-0.3043634364	-0.229817
C	 0.4601664124	-0.5320793386	-1.2894716738	 0.113461
C	 1.4121254334	-1.6529687983	-0.9086049419	-0.092991
C	 1.5633233621	-2.0661621167	 0.5551443593	-0.211789
C	 0.5968390895	-3.1867967704	 0.9689059239	-0.183388
C	-0.8463994987	-2.8233643131	 0.6038114933	-0.192916
C	-1.0175887313	-2.7049694046	-0.9210384925	-0.205531
C	 0.0949555476	-1.9422820486	-1.627020461	-0.088594
H	 1.3371830063	 1.0974547332	 0.5931011237	 0.110691
H	 0.4752965127	 2.0298350731	-0.6572495844	 0.106599
H	-0.2990998024	 1.734463273	 0.9226912738	 0.125541
H	 0.7565922081	 0.1235279477	-2.1106853238	 0.073843
H	 2.3142424399	-1.7291901999	-1.5083767514	 0.077733
H	 2.5969498323	-2.3812125566	 0.7298789518	 0.090328
H	 1.3884990703	-1.2030586917	 1.2087611538	 0.10139
H	 0.8773359965	-4.1218347432	 0.46449454	 0.087592
H	 0.6853711444	-3.3705033363	 2.045701883	 0.085265
H	-1.5410715469	-3.581050846	 0.9831503978	 0.083065
H	-1.1099990636	-1.8742741093	 1.0812523755	 0.111764
H	-1.0366656957	-3.7176416693	-1.3447722259	 0.093035
H	-1.9881836968	-2.2533679715	-1.1582666014	 0.099212
H	 0.1771345037	-2.1801607542	-2.684401831	 0.080351
