20
gdb 33128	3.11923	1.03078	0.78516	1.1071	83.84	-0.1658	0.0652	0.2311	1470.6164	0.172099	-399.349942	-399.340062	-399.339118	-399.385019	36.284	
C	-0.0233452038	 1.5325673526	-0.0046714993	-0.398534
C	-0.0044979341	 0.0087110686	-0.0651431967	-0.099808
N	 0.8103385882	-0.4593893669	-1.1750052082	-0.413532
C	 0.8641816328	-1.8458730794	-1.3860917528	 0.27676
C	 0.4357063012	-2.8785810017	-0.5774509177	-0.169469
N	 0.7406867476	-4.060393849	-1.218520845	-0.260898
C	 1.3641570454	-3.7971503366	-2.41626844	-0.152028
C	 1.452439579	-2.4299735443	-2.5503048786	 0.135784
N	 1.9380773245	-1.6518153353	-3.6290607855	-0.621785
H	 0.9920121746	 1.9294273184	 0.0866367572	 0.125092
H	-0.4725668647	 1.9571572814	-0.9102104056	 0.113777
H	-0.611481434	 1.8795911408	 0.8497973165	 0.115279
H	 0.429446417	-0.3926055188	 0.8600066143	 0.104916
H	-1.0381578439	-0.3799088623	-0.1160915035	 0.083579
H	 0.5808848409	 0.0194699372	-2.0402194093	 0.226827
H	-0.054132835	-2.8718014993	 0.3811392041	 0.105207
H	 0.562307234	-4.9759602118	-0.8513953033	 0.254231
H	 1.6836671765	-4.5909906544	-3.0721390778	 0.101455
H	 2.3454457053	-2.228865445	-4.3551587107	 0.233399
H	 2.6499857784	-0.9995174441	-3.3126308282	 0.239747
