21
gdb 68409	2.46852	1.84264	1.39575	1.7383	81.65	-0.2525	0.0935	0.346	1020.9387	0.183658	-387.068848	-387.061046	-387.060101	-387.100579	32.145	
C	-0.0309188081	 1.5265635816	 0.088959964	-0.518587
C	 0.025036221	 0.0182632339	 0.0787748706	 0.273188
C	 0.8301612574	-0.794546023	-0.9912616333	-0.263401
C	 0.6994171016	-1.9390045989	 0.0533831736	-0.027015
C	 0.8103012699	-0.8264574241	 1.1357685511	-0.26783
C	-0.8174284187	-2.2151966265	 0.041054503	-0.308559
C	-1.2966945704	-0.7515937321	 0.0435041278	 0.464365
C	-2.5896687923	-0.2679592336	 0.5264960675	-0.288393
O	-2.303546263	-0.3404273487	-0.8801746715	-0.297146
H	 0.9677734746	 1.9600748996	-0.0215038586	 0.112429
H	-0.656158125	 1.8913317357	-0.7327120597	 0.134008
H	-0.4532656679	 1.9046067189	 1.0270253438	 0.114198
H	 0.3765433968	-0.9336838496	-1.9767971212	 0.101945
H	 1.8555093297	-0.4299049106	-1.0915452267	 0.09276
H	 1.3642767157	-2.8022584822	 0.0468014129	 0.062576
H	 1.8324962752	-0.4632821635	 1.269013338	 0.096163
H	 0.3419318282	-0.9999379393	 2.1102306667	 0.087268
H	-1.1572257664	-2.7360803824	-0.8586890091	 0.112459
H	-1.1542649112	-2.7766840418	 0.9179461202	 0.09941
H	-3.3313850902	-0.9805800994	 0.8868506126	 0.110004
H	-2.6895234469	 0.7399316062	 0.9270850384	 0.110158
