17
gdb 97561	3.11229	0.72159	0.63412	1.6615	74.39	-0.257	-0.0365	0.2205	1739.9431	0.131843	-458.939244	-458.928544	-458.9276	-458.9778	35.964	
C	-0.2305560476	 1.430857923	 0.0903232192	-0.481851
C	-0.0087970787	-0.0506229966	-0.0585520082	 0.372599
O	 1.0691097322	-0.5515507531	-0.2809507155	-0.307337
C	-1.2374696283	-0.9935083405	 0.0595845163	-0.121512
O	-0.8553461317	-2.3069905231	-0.2444666578	-0.414304
C	-1.8281981984	-0.8653098318	 1.3962445443	 0.081826
C	-2.3004134062	-0.7594351403	 2.500165665	 0.024206
C	-2.9245027503	-0.6847105127	 3.821392846	-0.195619
O	-4.3419627717	-0.6242710407	 3.7773087127	-0.399406
H	 0.7212479601	 1.9587496002	 0.0269738512	 0.15162
H	-0.9000635578	 1.7841779686	-0.7024249044	 0.151412
H	-0.7234967844	 1.6446708632	 1.0427146908	 0.165508
H	-1.9778606198	-0.6461255675	-0.6807955473	 0.118762
H	 0.1146649732	-2.2724360849	-0.3082471962	 0.295404
H	-2.5736471021	-1.5332469638	 4.4300662752	 0.126314
H	-2.603666313	 0.2264595841	 4.3384782781	 0.141673
H	-4.6472899256	-1.3755206543	 3.2577247905	 0.290704
