17
gdb 49912	4.65837	0.95298	0.90972	2.6116	69.35	-0.2478	-0.0281	0.2197	1287.8696	0.134295	-458.920443	-458.912012	-458.911068	-458.954898	29.792	
O	-0.5722765243	 0.4319193093	-0.1373970015	-0.232078
C	 0.1758938778	 1.3259186969	-0.4273223799	 0.139029
C	 1.5195445582	 1.582850963	 0.214205925	 0.057931
C	 1.518484349	 2.7131947875	 1.2799756505	-0.330424
C	 1.9699250396	 1.5804939956	 2.2378513075	 0.111206
O	 1.9070389994	 0.6011386209	 1.1799105631	-0.279977
C	 3.356238137	 1.7283400895	 2.8100336615	 0.054986
C	 4.397080406	 0.7233871079	 2.5676232617	-0.167696
O	 4.3948589623	 1.9711078566	 1.862682563	-0.238011
H	-0.0815293064	 2.0819592103	-1.2082693363	 0.071795
H	 2.2748641945	 1.711118465	-0.5741023761	 0.108361
H	 2.2558740652	 3.4983863614	 1.118217197	 0.136785
H	 0.5423929579	 3.1483427751	 1.4980341025	 0.122974
H	 1.2613574225	 1.3423935123	 3.0414276101	 0.093467
H	 3.4121745955	 2.3386754917	 3.7138250912	 0.095306
H	 5.2011641291	 0.5982368593	 3.2906381086	 0.11661
H	 4.1498040567	-0.1435339124	 1.9614049821	 0.139736
