17
gdb 10123	2.20397	1.58393	1.01595	3.6283	67.22	-0.2488	-0.0361	0.2127	1150.8678	0.139844	-401.03136	-401.022223	-401.021279	-401.066417	30.942	
C	 0.3332469579	 1.410446423	 0.1834213306	-0.375605
C	 0.0284137938	-0.0617209942	-0.1093655188	-0.169592
N	 0.562905568	-0.5341402247	-1.3824678761	-0.049026
C	 1.9867586748	-0.7789283052	-1.5121818944	-0.263854
C	 2.4230950178	-2.0404619695	-0.7797219374	 0.155336
O	 3.480756776	-2.1657673932	-0.2230816446	-0.230329
C	-0.2434173386	-0.7041598608	-2.4734243302	 0.15307
O	 0.1298898006	-1.0535255044	-3.5728322629	-0.335922
H	 1.4095459182	 1.5990946055	 0.2316100156	 0.133442
H	-0.0921312249	 2.0561829611	-0.5903968704	 0.130893
H	-0.097356516	 1.6969367634	 1.1476842521	 0.127735
H	 0.4210634827	-0.6940787718	 0.6966022951	 0.122765
H	-1.0547683776	-0.2201263694	-0.1303871773	 0.124612
H	 2.1803181193	-0.9287899682	-2.5818604097	 0.174557
H	 2.5874372819	 0.0658596684	-1.1622365068	 0.132817
H	 1.6710882524	-2.8623368084	-0.814027107	 0.08851
H	-1.3027774764	-0.4864280216	-2.2372982179	 0.080589
