21
gdb 117551	2.17429	1.04804	0.84312	1.2248	81.75	-0.2562	0.0447	0.3009	1484.8361	0.178694	-424.183147	-424.17211	-424.171166	-424.219502	39.482	
C	-0.4376727471	 1.1203323685	 0.4892502224	-0.229624
O	-0.2754668543	-0.2555604228	 0.2361257336	-0.236838
C	 0.4433563108	-0.5154606797	-0.949428874	-0.06785
C	 0.648309997	-2.0360693982	-1.0439158899	-0.191971
C	 1.1975543512	-2.3958341929	-2.3484629547	 0.288154
C	 1.7054334229	-2.6755541557	-3.4029322059	-0.452482
C	 1.5783301871	-2.5411465626	 0.0979481699	 0.136038
C	 1.5847759432	-4.0640634433	 0.2173817605	-0.414081
O	 2.8889228715	-2.0168462246	-0.053542224	-0.437992
H	 0.5312502059	 1.6311824133	 0.5994575458	 0.110966
H	-0.9998308095	 1.6192350741	-0.3158169084	 0.104968
H	-0.9975786571	 1.2167386561	 1.4225586747	 0.128015
H	-0.1099972583	-0.1507529348	-1.828779628	 0.093657
H	 1.4257271105	-0.0205108858	-0.932344971	 0.110082
H	-0.335544665	-2.5065938986	-0.9198021928	 0.112295
H	 2.121327241	-2.9296966296	-4.3467037671	 0.19954
H	 1.1992042524	-2.0987863589	 1.0232443113	 0.108086
H	 1.9184351227	-4.5284616212	-0.7172719948	 0.119803
H	 2.2649194188	-4.3695297557	 1.0166864496	 0.123939
H	 0.5845896089	-4.4465276225	 0.4471185199	 0.114542
H	 3.2227139976	-2.3294534951	-0.9042719871	 0.280752
