17
gdb 127577	2.01435	1.92652	0.9971	1.6811	86.18	-0.2235	-0.0148	0.2087	1166.2087	0.135138	-380.872265	-380.862865	-380.86192	-380.907803	32.919	
C	-0.0763453004	 1.4099604235	 0.0080314691	-0.327501
N	-0.0030937095	-0.0357638898	 0.029557157	-0.055743
N	-0.0531373995	-0.7305990257	-1.1139168497	-0.253246
C	-0.0298509081	-2.0116951594	-0.7450964619	-0.07492
C	 0.0303417157	-2.1655790715	 0.6523993646	 0.075432
C	 0.0838259831	-3.4223294507	 1.4618633794	-0.521632
C	 0.0426908992	-0.8551134437	 1.1284173416	 0.202733
C	 0.0963275649	-0.3628682146	 2.447806925	 0.267573
C	 0.1416582685	 0.0533982482	 3.5781438845	-0.471075
H	 0.5251496108	 1.8186061418	 0.8219431871	 0.15012
H	 0.3124601432	 1.750255953	-0.9515148254	 0.158141
H	-1.1091759644	 1.7566845628	 0.1216561702	 0.14268
H	-0.0509059657	-2.7844256234	-1.5002608867	 0.111393
H	 0.999924676	-3.9911849029	 1.2661133705	 0.132923
H	 0.0552531664	-3.1957884995	 2.5307584063	 0.135179
H	-0.7605176165	-4.0824673777	 1.2353519467	 0.132055
H	 0.1818277164	 0.4164607398	 4.5752098017	 0.195887
