16
gdb 22856	3.0342	1.3482	0.94425	2.9554	78.2	-0.2311	-0.0688	0.1623	1195.6449	0.123234	-437.881666	-437.873082	-437.872137	-437.915115	31.375	
C	 0.0023628396	 1.5020930806	 0.0213020857	-0.489532
C	-0.0087784519	 0.010033232	-0.0164783458	 0.232008
C	-1.0480891601	-0.8323988683	-0.1256240489	-0.182879
C	-0.6540815542	-2.2867824343	-0.1280709979	-0.342636
C	 0.8513654921	-2.2187315018	 0.001559867	 0.282769
N	 1.5508388168	-3.2873666575	 0.0345728094	-0.204813
O	 2.9077221345	-3.0655969837	 0.1553744685	-0.347391
C	 1.2592886838	-0.7652293458	 0.0721671813	 0.262324
O	 2.3742251519	-0.30353512	 0.1783865818	-0.322301
H	 0.6115286792	 1.9019457964	-0.7966303419	 0.145789
H	-1.0052809697	 1.9180984918	-0.0534328549	 0.121164
H	 0.4643332241	 1.8588408558	 0.948284985	 0.145801
H	-2.0858365572	-0.525318515	-0.2062460613	 0.110682
H	-1.1141486244	-2.8391110109	 0.7008479983	 0.137533
H	-0.9654434155	-2.7958863825	-1.0487780478	 0.137533
H	 3.261905191	-3.9625975669	 0.1632871016	 0.31395
