17
gdb 84544	3.73784	1.32299	1.11313	4.2016	73.34	-0.2529	-0.0062	0.2466	1097.8404	0.137127	-421.869819	-421.862332	-421.861388	-421.901886	28.759	
C	-0.3510738032	 1.4059283151	-0.0448755654	-0.40463
C	 0.078445092	-0.0684829427	 0.0064446265	-0.049846
C	 0.9566677467	-0.4694677176	-1.1607782744	-0.064506
C	 2.1911189089	-0.8238514307	-0.7993864461	-0.090452
C	 2.3668603828	-0.7983115752	 0.6958285223	-0.272069
C	 0.9656790665	-0.3959339989	 1.217776259	 0.105665
O	 0.7657904073	-1.7600397583	 1.7277077451	-0.257856
C	 2.0345380963	-2.1452415154	 1.3668277796	 0.452208
O	 2.5615014901	-3.1906514289	 1.5629457736	-0.321708
H	 0.5202081037	 2.0693121437	-0.0330130173	 0.122798
H	-0.9147310751	 1.6156731963	-0.9588782032	 0.123566
H	-0.9872098925	 1.659070468	 0.8095362806	 0.122703
H	-0.8203097917	-0.6973528731	 0.0563445802	 0.107129
H	 0.5943424417	-0.4479216606	-2.1830813935	 0.104402
H	 2.9814274643	-1.1414075039	-1.4684937532	 0.114678
H	 3.2654767342	-0.3022033058	 1.0663567142	 0.111145
H	 0.8998823077	 0.315442528	 2.042233472	 0.096776
