16
gdb 29479	3.13798	1.66778	1.10383	1.8801	77.99	-0.2044	-0.0187	0.1857	1054.4952	0.125984	-400.788274	-400.781073	-400.780128	-400.819831	27.739	
C	-0.0193004077	 1.5293741331	 0.0560194374	-0.506295
C	-0.0069674332	 0.0351881592	 0.0268898576	 0.185229
C	-0.0261469535	-0.7921325599	-1.0474120213	-0.17585
C	-0.0033237285	-2.2682418321	-0.6557214612	-0.416566
C	 0.032625549	-2.1619470168	 0.8366300752	 0.227756
C	 0.0294394022	-0.8523698565	 1.1795031561	 0.277908
O	 0.0620394931	-0.7504080537	 2.5327572393	-0.205351
C	 0.0833277102	-2.0656346442	 2.9330009317	 0.023778
N	 0.0677943144	-2.9433880157	 1.9748154589	-0.337906
H	 0.8716041116	 1.9229586287	 0.5589974816	 0.136982
H	-0.0515804518	 1.9407870924	-0.9556443023	 0.129893
H	-0.8869425248	 1.9074884	 0.6089792407	 0.136928
H	-0.0546741989	-0.4646087765	-2.0789650194	 0.099804
H	-0.8875348509	-2.7977172549	-1.0326386232	 0.138745
H	 0.8705053832	-2.7820300309	-1.0760601727	 0.138748
H	 0.1110298157	-2.2351485922	 3.9973150715	 0.146197
