16
gdb 34809	4.1246	1.32521	1.24531	6.6687	72.66	-0.2568	0.033	0.2898	1008.0178	0.127863	-396.86536	-396.858823	-396.857879	-396.896233	26.575	
N	-0.0480627246	-1.1605944553	-0.0743211666	-0.334811
C	-0.0162465305	-0.0063279681	-0.0182996872	 0.283869
C	-0.0349508619	 1.4431179026	-0.0090527207	-0.149985
C	-0.0625467707	 2.087400803	 1.4136524931	-0.028627
N	 1.3997752459	 1.7301869803	 1.4840709663	-0.298886
C	 1.3747979916	 2.1148351647	 0.0272391468	-0.028623
C	 1.0277427596	 3.6267965759	 0.0698363805	-0.05785
N	-0.3657866848	 3.964489218	-0.3021187784	-0.329847
C	-0.0374379039	 3.606463722	 1.0972792155	-0.057853
H	-0.7434898263	 1.8339499435	-0.7358932438	 0.151453
H	-0.7141322775	 1.7218335233	 2.2052542317	 0.09554
H	 1.9341071106	 2.3920289029	 2.0511293496	 0.208421
H	 2.1963473531	 1.7774150615	-0.6020798789	 0.09554
H	 1.8087236625	 4.3753094915	 0.0056434615	 0.106884
H	-0.455860955	 4.9768642571	-0.3754699756	 0.237889
H	-0.1443822982	 4.338028237	 1.8895544662	 0.106884
