13
gdb 7208	4.45635	1.14249	0.91454	0.727	66.27	-0.2443	-0.0814	0.1628	1206.0237	0.093048	-398.62237	-398.613324	-398.61238	-398.658847	29.833	
C	 0.0146162779	 1.4516389414	 0.0096097822	-0.507234
C	 0.0270284565	 0.001294861	 0.0018596147	 0.158753
C	 0.0444582437	-1.2056781519	-0.0047074772	 0.055211
C	 0.0350843972	-2.6395183265	-0.0121818366	 0.089558
O	-0.9772394915	-3.3134328721	-0.0051046931	-0.305402
C	 1.4291272631	-3.3129812233	-0.0303810434	 0.343798
N	 1.3264017944	-4.6600631399	-0.0364304556	-0.534057
O	 2.4571431477	-2.6679678384	-0.0377609756	-0.349764
H	 1.0306431343	 1.8584664698	 0.0048243603	 0.16802
H	-0.5147703059	 1.8374798794	-0.8684498219	 0.166476
H	-0.5029152234	 1.8283120445	 0.8986379617	 0.166435
H	 0.4101225955	-5.0782264334	-0.0290095075	 0.279367
H	 2.1568197004	-5.2267517205	-0.0481344779	 0.268838
