17
gdb 19399	3.07667	2.16196	1.60526	1.5821	67.95	-0.2345	0.0698	0.3043	848.7743	0.142004	-363.78978	-363.782561	-363.781617	-363.820943	28.014	
C	-0.0665447678	 1.5931800457	-0.1088939038	-0.413885
C	 0.0471637715	 0.0824514354	 0.0263313855	-0.071809
C	 1.048700616	-0.6710719731	-0.876289472	-0.056903
N	 2.4018615407	-0.2041547201	-0.4935133844	-0.33786
C	 1.7353208211	-1.2760911363	 0.2993685048	-0.174796
C	 0.8027468243	-0.5345580688	 1.2363206365	 0.484725
C	 1.0018994468	-0.0741848428	 2.6063946881	-0.262227
O	 0.1170582496	-1.1695149525	 2.297305177	-0.2867
H	 0.9249637926	 2.0526121014	-0.0950606198	 0.138091
H	-0.5601457165	 1.8668058736	-1.0478107571	 0.112452
H	-0.6579332613	 2.01740077	 0.7096009322	 0.115477
H	-0.9348874434	-0.400265966	-0.0254720578	 0.091786
H	 0.859997702	-1.0925080583	-1.8557640145	 0.095326
H	 3.0671318025	-0.66646658	-1.1132204082	 0.231373
H	 2.1832580473	-2.2522013651	 0.4360620521	 0.103619
H	 1.9098261899	-0.3440209632	 3.1437469335	 0.115592
H	 0.5087344347	 0.83311014	 2.9519901479	 0.115741
