16
gdb 76568	3.10951	1.25143	1.23861	2.2318	65.94	-0.223	0.0192	0.2423	1063.2165	0.124449	-475.000685	-474.992667	-474.991723	-475.033317	30.139	
O	-0.031229805	 1.3384616201	-0.1015277522	-0.427828
C	-0.0337276112	-0.0540143384	-0.051398629	 0.027148
C	-0.423484685	-0.7062638688	 1.2559230192	-0.041077
O	-0.8058959868	 0.1712876853	 2.2871399635	-0.429339
C	-1.3708768244	-0.7658723054	 0.0859332435	 0.253359
C	-2.6901454762	 0.0052656044	 0.0465123017	-0.174941
O	-3.5598586234	-0.8944654001	-0.6884799636	-0.222815
C	-2.8079285467	-1.9850520503	-0.9618465959	 0.101617
N	-1.597557414	-2.0297738542	-0.5775689348	-0.309735
H	-0.2730046647	 1.6409452946	 0.7856229773	 0.286182
H	 0.7274314824	-0.5103548699	-0.6757992268	 0.115539
H	 0.0495968344	-1.634282718	 1.5663854234	 0.110081
H	-0.0432756386	 0.3069990592	 2.8603715127	 0.301858
H	-3.1278109567	 0.1855770582	 1.0319476024	 0.133127
H	-2.6122622731	 0.9499410355	-0.4986344209	 0.134327
H	-3.323515711	-2.763709302	-1.5117132105	 0.142499
