23
gdb 119417	3.19234	0.93291	0.84398	1.6299	87.11	-0.2237	0.0848	0.3085	1525.2229	0.204083	-388.264308	-388.254333	-388.253389	-388.299458	37.164	
C	 0.0491291541	 1.5322580901	 0.0534842372	-0.38552
C	-0.030759113	 0.0077919017	 0.1585205298	-0.15471
C	-1.4421671671	-0.5359155206	-0.1167949946	-0.297959
C	-1.5045082694	-2.0296890586	-0.0585117463	 0.46088
C	-1.6402685039	-2.8894921639	 1.1671710631	-0.381357
C	-2.6128363624	-3.0643442115	 0.0105417641	 0.182126
C	-4.1042538773	-2.9607207646	 0.1341941226	-0.493646
C	-1.8562290664	-3.7473930008	-1.1250405694	-0.123123
O	-0.7908543867	-2.7628982439	-1.0706387265	-0.332034
H	 1.0635053174	 1.8922296608	 0.251567965	 0.112032
H	-0.2360855516	 1.87612731	-0.9471061499	 0.114615
H	-0.6221542365	 2.0166989718	 0.771925395	 0.110373
H	 0.6666145289	-0.4526862803	-0.5505052208	 0.118557
H	 0.2877374921	-0.315312773	 1.1573230903	 0.097876
H	-2.1496395382	-0.1242820937	 0.6143214431	 0.096269
H	-1.7762868248	-0.2009746709	-1.107579569	 0.101092
H	-0.8867713588	-3.6427401429	 1.3845182212	 0.107238
H	-2.0668141483	-2.4014279171	 2.0391394039	 0.107327
H	-4.3874742762	-2.1922763323	 0.8607588013	 0.120395
H	-4.5695968553	-2.7019403187	-0.8237805796	 0.11866
H	-4.5442938949	-3.9066234065	 0.4733524346	 0.122044
H	-1.4908147091	-4.7687371941	-0.9593288674	 0.098364
H	-2.379152993	-3.696434331	-2.0885151975	 0.100504
