18
gdb 33948	3.11012	1.41612	1.23151	4.4321	79.62	-0.2628	0.0293	0.2921	1060.8684	0.150093	-364.811956	-364.804676	-364.803732	-364.843484	29.442	
N	 0.0568687183	-1.1384171492	-0.0103987768	-0.352043
C	 0.0424099949	 0.0187376009	 0.0150461358	 0.197987
C	 0.0196610476	 1.452283747	 0.051436624	 0.198244
C	 0.3670782329	 2.2127053058	-1.2221543991	-0.330367
C	 1.311560162	 2.2734565188	-0.059799089	-0.071802
C	 1.2288841003	 3.419306801	 0.9530431828	-0.255757
C	-0.1243441718	 3.3073308378	 1.6633027733	-0.029382
C	-1.3990512053	 3.4992577351	 0.8799840553	-0.306018
C	-0.8641619502	 2.107696814	 1.1064820756	-0.094934
H	 0.6708040152	 1.6113987585	-2.0716866177	 0.137343
H	-0.2346562474	 3.0738542221	-1.484610078	 0.126902
H	 2.260346688	 1.760702742	-0.1690530169	 0.113292
H	 2.0311510988	 3.3002315222	 1.6877655435	 0.116986
H	 1.3762753006	 4.3963715179	 0.4785904134	 0.113378
H	-0.1482614729	 3.5299201023	 2.724237283	 0.094935
H	-2.2846982101	 3.7735966915	 1.4433738976	 0.119051
H	-1.3646861024	 3.9453813967	-0.1072436976	 0.116783
H	-1.4232184083	 1.4331562656	 1.7427442709	 0.105402
