20
gdb 47555	2.45361	1.60863	1.09364	3.818	79.25	-0.2321	-0.0181	0.214	1133.2957	0.172954	-403.144783	-403.136886	-403.135942	-403.177187	31.185	
O	 0.0022757227	-0.1137371583	 0.0738732467	-0.294383
C	 0.0244125378	 1.0929327872	 0.0332414939	 0.397339
C	-1.2573382776	 1.9213060881	 0.0057311637	-0.291031
C	-1.4320507911	 2.880459978	-1.1909897799	-0.199911
C	-0.284768931	 3.8897303631	-1.375523494	-0.232687
C	 0.939058506	 3.2550646954	-2.0083782652	 0.0246
C	 2.3231645372	 3.5390669287	-1.5405386631	-0.265385
N	 1.7242929607	 2.2223089768	-1.3219231703	-0.084458
C	 1.3522574131	 1.8639915614	 0.0484454141	-0.243542
H	-2.0939671795	 1.2196537058	 0.0533295124	 0.120643
H	-1.2705036202	 2.5172310966	 0.9303203357	 0.112843
H	-1.5519690171	 2.2972585289	-2.1124718523	 0.113791
H	-2.3730283884	 3.4216098409	-1.0441084989	 0.104405
H	-0.6184049749	 4.7031529571	-2.0302258985	 0.106576
H	-0.0385396909	 4.3557584722	-0.4145166787	 0.098092
H	 0.8023184776	 3.0247837625	-3.0651706505	 0.094541
H	 3.1563955007	 3.5703220082	-2.2376362717	 0.119112
H	 2.4292972742	 4.1962972554	-0.6777390329	 0.107972
H	 1.2613551096	 2.7362946398	 0.7166154534	 0.086635
H	 2.1245231411	 1.2022238923	 0.4492924363	 0.124847
