21
gdb 108238	2.16883	1.55914	1.17038	2.0654	79.54	-0.2195	0.0664	0.2859	1169.4593	0.179835	-424.182584	-424.172439	-424.171495	-424.217639	36.818	
C	-0.249533097	 1.2930958413	-0.0193611416	-0.258096
O	 0.142565463	-0.0632229435	 0.1292362512	-0.281745
C	 0.7459973109	-0.5864800552	-0.9932281789	 0.357351
C	 2.1714612607	-0.267178045	-1.4511491925	-0.300257
C	 2.3414692773	-1.7673304761	-1.8779252777	-0.277046
C	 0.9144279084	-2.0472945189	-1.4265102041	 0.332173
O	 0.5899488471	-3.2614543206	-0.8537286341	-0.461432
C	-0.0604232709	-1.1559868033	-2.1622916383	-0.150147
C	-1.5315009618	-1.4233041603	-1.9096395127	-0.452911
H	 0.6153803508	 1.9449026661	-0.2050835249	 0.114947
H	-0.9651212915	 1.4190979609	-0.8434157755	 0.110395
H	-0.7236649229	 1.592886805	 0.9179235827	 0.127751
H	 2.275943165	 0.4773043535	-2.247504051	 0.091372
H	 2.8257055218	 0.0011624122	-0.6183237286	 0.108893
H	 2.5591187025	-1.9599022721	-2.9339393786	 0.09349
H	 3.0753891461	-2.2884072916	-1.2593754672	 0.114089
H	-0.3451976116	-3.4394233607	-0.9961185113	 0.289774
H	 0.1748804711	-0.8445222412	-3.1826828824	 0.06722
H	-1.7368751968	-1.5452970566	-0.8419359776	 0.137188
H	-2.1495705279	-0.5931695495	-2.264959342	 0.123439
H	-1.8726233443	-2.3236745545	-2.4369735048	 0.113551
