17
gdb 37603	2.89944	2.38521	2.04377	2.5354	67.97	-0.2352	0.08	0.3152	768.4118	0.140875	-421.821262	-421.816052	-421.815108	-421.850509	23.73	
C	-0.0147024135	 1.5837061928	 0.0057862581	-0.210293
C	 1.5217053055	 1.6654777439	 0.0180774838	 0.065431
O	 1.8004192558	 0.9706081269	 1.2442254975	-0.256928
C	 1.1539209144	-0.2752825973	 1.0395672503	 0.158367
O	 2.0687185713	-1.1569007015	 0.4313563878	-0.23309
C	 2.1199209245	-0.7152689443	-0.9016822733	 0.090132
C	 1.9327753207	 0.7726417744	-1.1835552636	-0.127682
C	 0.78126718	-0.2296409444	-1.3379641048	-0.11199
C	 0.0202178507	 0.0394767745	-0.0293137115	-0.113419
H	-0.4518155213	 2.0178864871	 0.9085696373	 0.104007
H	-0.4835841779	 2.0073553159	-0.8859569278	 0.101016
H	 1.9924730129	 2.646717807	 0.0530787316	 0.079639
H	 0.8487796227	-0.6947254904	 1.9972179511	 0.091462
H	 2.7843584812	-1.3090883527	-1.5168159583	 0.106758
H	 2.4418630435	 1.2083443937	-2.0346991904	 0.090192
H	 0.2850824309	-0.4864944143	-2.2645008256	 0.090456
H	-0.9098041015	-0.5081482613	 0.1114897379	 0.075943
