14
gdb 13045	4.68386	1.37542	1.12297	1.6399	60.24	-0.2655	0.0058	0.2713	997.1879	0.107614	-415.874888	-415.867282	-415.866338	-415.908444	26.267	
N	 0.4657892852	 1.2655432901	 0.1976760548	-0.544938
C	 0.2066533448	 0.0421862637	 0.1196978915	 0.40341
O	 0.9750086795	-1.0763373341	 0.3279085139	-0.249662
C	-0.1975664137	-1.9556981939	 0.2182228038	-0.086419
C	-1.0675766674	-0.7326183292	-0.1529584337	-0.064844
N	-2.1748761153	-0.369637721	 0.6925009905	-0.291171
C	-3.3509345848	-1.0491009505	 0.6292784527	 0.151781
O	-3.5185091469	-2.04180242	-0.0472012292	-0.321236
H	 1.4395553112	 1.4337793501	 0.4550513442	 0.23668
H	-0.0555465466	-2.708905027	-0.5572442399	 0.136477
H	-0.4315711779	-2.4143197336	 1.1803218114	 0.13403
H	-1.3641567825	-0.7417553936	-1.2059503495	 0.136983
H	-2.1098038649	 0.4965208374	 1.2054894732	 0.269403
H	-4.1334454306	-0.6041261284	 1.2730918862	 0.089506
