17
gdb 113746	4.37854	0.83906	0.77295	2.0773	69.68	-0.2698	0.0167	0.2865	1439.5636	0.135275	-455.112608	-455.103084	-455.10214	-455.147725	33.769	
N	-0.2000694128	 1.4586496734	-0.0561975082	-0.496099
C	 0.0150441223	 0.0185355748	-0.1297951491	-0.156326
C	 1.0193902318	-0.3630121555	-1.1530891185	 0.247664
N	 1.7947813884	-0.6227199407	-1.9703355225	-0.31345
C	 0.4451812519	-0.5649640087	 1.2224725058	 0.060293
O	 1.1363650566	 0.3041709453	 2.110922953	-0.258859
C	-0.1376554917	-0.2391990127	 2.5332512596	 0.029225
C	-1.257129465	 0.7305841751	 2.8232930917	-0.111184
O	-1.1193694179	 1.2749756826	 4.1277644184	-0.415945
H	 0.6313755009	 1.8954239411	 0.3306610096	 0.255087
H	-0.3547345882	 1.8399980056	-0.983489646	 0.251054
H	-0.9271129562	-0.4652672746	-0.4198213309	 0.145478
H	 0.8951440929	-1.5532071418	 1.1181930878	 0.118085
H	-0.0264304383	-1.0032017058	 3.3052372013	 0.108873
H	-1.3069751553	 1.5003270231	 2.0478034713	 0.130899
H	-2.2062235556	 0.1820765721	 2.8257130446	 0.114161
H	-0.320408254	 1.8128763167	 4.1305310122	 0.291046
