22
gdb 58129	2.63553	1.05339	0.92216	3.0898	80.65	-0.2574	0.0269	0.2843	1383.5956	0.190384	-441.488847	-441.477713	-441.476769	-441.52475	40.71	
C	-0.010886349	 1.5032357814	-0.1496111036	-0.436428
C	-0.068906841	-0.0102350812	 0.0360959068	 0.119494
O	 0.693338315	-0.4315405917	 1.1633357135	-0.435884
C	-1.5109077191	-0.5964955545	 0.1139547016	 0.342703
C	-1.4221700841	-2.1259299577	 0.1419535922	-0.430897
C	-2.2840872165	-0.0532835678	 1.3201543442	-0.43627
O	-2.1053249341	-0.1355296719	-1.1274807943	-0.232298
C	-3.3564845052	-0.5027561594	-1.4495405883	 0.122893
N	-3.8777818178	-0.0743934896	-2.5190809953	-0.448082
H	 1.0281832281	 1.8145495045	-0.2881506534	 0.124289
H	-0.5930355235	 1.8105169802	-1.0197605938	 0.155383
H	-0.4068177821	 2.029660847	 0.7276420935	 0.105962
H	 0.4035679145	-0.4859780647	-0.8314169479	 0.097516
H	 0.5947799406	 0.2330013883	 1.8524470259	 0.283602
H	-0.7751508796	-2.430040908	 0.9672536604	 0.145233
H	-2.4005801387	-2.5945163536	 0.2807199845	 0.108883
H	-0.9894938388	-2.4953755754	-0.7923793142	 0.128901
H	-2.4336659665	 1.026234079	 1.2414443786	 0.132257
H	-3.2658469568	-0.5256266262	 1.4136305315	 0.118594
H	-1.7312846172	-0.2697570558	 2.2387797532	 0.122081
H	-3.8366953899	-1.1718105574	-0.7271110547	 0.087261
H	-4.8200140685	-0.4479631457	-2.6145236404	 0.224805
