15
gdb 16033	3.48057	1.79453	1.47078	4.6893	67.06	-0.2596	-0.0068	0.2528	881.3022	0.118761	-362.631269	-362.623964	-362.62302	-362.662741	27.029	
C	-0.0016334949	 1.5641926611	-0.0015163388	-0.422583
C	 0.0456329446	 0.0557919192	-0.0816926946	-0.072832
C	 0.6497508352	-0.7417118566	-1.2170234344	-0.192311
C	 1.9515048697	-0.1047216898	-1.6906606834	-0.100634
O	 2.4616832624	-0.0237118511	-0.3283785702	-0.312344
C	 1.3160445119	-0.7256358528	 0.1581724263	 0.325267
C	 1.4906506156	-1.7371976057	 1.1503910244	 0.226583
N	 1.6092093396	-2.5559265742	 1.9596017163	-0.345626
H	 0.9677012991	 2.0031301613	-0.2461986695	 0.143969
H	-0.752932752	 1.967532312	-0.6878933561	 0.126161
H	-0.2638454312	 1.8826258253	 1.0118031671	 0.134453
H	-0.8218398417	-0.455845825	 0.3298580389	 0.116702
H	 0.1300926464	-1.5529874422	-1.7077869169	 0.12476
H	 2.5735570055	-0.7801493732	-2.2858063167	 0.129507
H	 1.8957212198	 0.8772257715	-2.1710448426	 0.118927
