17
gdb 35339	3.73423	1.42133	1.27508	2.2659	80.23	-0.2267	0.0465	0.2732	1018.7944	0.134545	-384.521453	-384.514097	-384.513153	-384.552944	29.986	
C	-0.3680661032	-1.2867959928	-0.3542418653	-0.491437
C	-0.1725704978	-0.1168954749	-0.1564919039	 0.393874
C	-0.0013847015	 1.3042889874	 0.042048872	-0.231324
C	-0.0799712829	 1.8582653315	 1.5480249665	-0.344046
C	 1.4350882161	 2.0357655303	 1.4418963069	 0.382944
C	 2.8582623871	 2.6473757012	 1.4645238895	-0.313119
C	 2.7839104629	 1.4248684763	 0.4492597476	 0.023124
O	 2.067008941	 0.6772295538	 1.4750998028	-0.322113
C	 1.437291872	 1.9750608757	-0.0861558239	-0.045842
H	-0.5110204666	-2.326649429	-0.5126006559	 0.192776
H	-0.6980790461	 1.8421461967	-0.6073620528	 0.109138
H	-0.6336697913	 2.7988628195	 1.5871783141	 0.115742
H	-0.4336530807	 1.1709578998	 2.3176431742	 0.131562
H	 2.9738623042	 3.6572984782	 1.0624652681	 0.103374
H	 3.4734175366	 2.460152569	 2.3461094114	 0.116281
H	 3.6168421038	 0.9281192626	-0.0550715544	 0.098225
H	 1.4455098364	 2.8996210847	-0.6653155969	 0.08084
