14
gdb 68107	3.29048	1.29269	1.08432	4.3735	68.78	-0.2648	-0.0217	0.2431	1075.276	0.10005	-436.663115	-436.655085	-436.654141	-436.695876	29.37	
O	-0.0482629147	 1.3542430838	 0.1279450011	-0.454007
C	 0.0376417755	-0.0036249997	 0.0510581689	 0.270439
C	 0.6851562678	-1.0216069202	 1.0803033452	-0.324045
C	 0.0511416259	-1.9430222291	-0.0154786288	 0.066283
C	-1.1868994311	-0.9757594955	 0.0102293102	-0.30084
C	 0.0465630728	-3.3702635841	-0.0591680494	 0.178589
N	 0.0516591534	-4.5257667735	-0.1113801235	-0.344502
C	 0.6493586018	-0.9096375479	-1.0262729378	 0.365251
O	 1.260581369	-0.8630975576	-2.0416418662	-0.304711
H	 0.7159875423	 1.7451452239	-0.3114805832	 0.308737
H	 1.7709569104	-1.0411187613	 1.180332032	 0.132574
H	 0.1722879225	-1.0608245947	 2.0425321024	 0.13415
H	-1.758392608	-1.0181365943	 0.9388096598	 0.134194
H	-1.8240882877	-0.9561026197	-0.8741816607	 0.137888
