17
gdb 106591	3.32017	1.62716	1.42803	1.6386	71.08	-0.222	-0.021	0.201	957.9791	0.135666	-421.786576	-421.779206	-421.778262	-421.818178	29.549	
C	 0.0827355688	 1.382126557	 0.0560610701	-0.262757
O	 0.0382148247	-0.0374857799	-0.0324528412	-0.311793
C	 0.6177972365	-0.5613355426	-1.1551262483	 0.428866
O	 2.0168861858	-0.2321709627	-1.3050270146	-0.271474
C	 2.2036419651	-1.0185987056	-2.4919641933	-0.065565
C	 1.7000219676	-2.3967217871	-1.9825718536	-0.083217
C	 0.7095220717	-2.1059624056	-1.1481427709	-0.11914
C	 1.0944314899	-0.4207922105	-3.3961815984	-0.077016
C	 0.1037865342	-0.1246429118	-2.5636202853	-0.159427
H	 1.1156619636	 1.7408195764	 0.1051426148	 0.139132
H	-0.4154338077	 1.8546363701	-0.8004297387	 0.113631
H	-0.4449455658	 1.6500195064	 0.9730346657	 0.128217
H	 3.2287957485	-0.9624716613	-2.8534057817	 0.083955
H	 2.0659369591	-3.3580062403	-2.3130772989	 0.112719
H	 0.0400401644	-2.7457494168	-0.5929678521	 0.117177
H	 1.1330159217	-0.3617075232	-4.4747423676	 0.112323
H	-0.893276668	 0.2373389476	-2.7698581759	 0.11437
