24
gdb 59865	2.99414	0.82494	0.76113	3.2641	87.82	-0.2375	0.0394	0.2769	1691.1058	0.214894	-405.604624	-405.592966	-405.592022	-405.643435	41.545	
C	 0.0646848175	 1.4342935784	 0.9957712915	-0.381895
C	-0.0334657059	 0.2362588494	 0.043710652	 0.052417
C	 0.9537670376	-0.8759018828	 0.41511734	-0.38373
N	-1.3981258608	-0.2816729959	-0.0007942485	-0.328699
C	-2.1850460018	-0.2398504837	-1.1146540487	 0.42793
O	-1.8111301097	 0.2334956408	-2.1761055047	-0.397198
C	-3.5870894721	-0.837691641	-0.9550039203	-0.083924
C	-4.63446841	 0.2446009587	-1.2582328983	-0.377432
C	-3.7319370949	-2.0368618976	-1.9053198963	-0.377257
H	 1.0788980523	 1.8458436554	 0.9954257675	 0.118819
H	-0.6279538653	 2.2256150126	 0.6967086319	 0.126863
H	-0.1744039667	 1.1411679464	 2.0254160456	 0.105561
H	 0.1657598883	 0.5717306674	-0.9773802099	 0.127117
H	 0.7496346289	-1.2657951498	 1.4200512688	 0.105999
H	 0.8889313893	-1.7069470251	-0.2924537062	 0.125509
H	 1.980858036	-0.4979966056	 0.4100249617	 0.119756
H	-1.7799212141	-0.6799678195	 0.842566395	 0.236402
H	-3.7230334705	-1.1850441508	 0.0777447136	 0.059197
H	-4.5730218786	 1.0734053256	-0.5455157831	 0.111195
H	-4.4688490682	 0.6480965284	-2.2606347581	 0.142574
H	-5.6454573715	-0.1717437771	-1.2091469703	 0.108383
H	-3.022480433	-2.8330841567	-1.657629401	 0.111271
H	-4.742742773	-2.4527557052	-1.8502075533	 0.108978
H	-3.538694524	-1.7195094822	-2.933546039	 0.142166
