19
gdb 101563	3.40593	0.81901	0.72833	1.5682	68.98	-0.2736	-0.0004	0.2731	1570.7449	0.156303	-497.329066	-497.318589	-497.317645	-497.365606	36.524	
C	-0.0983994934	 1.5454996873	 0.0370147631	-0.399786
C	-0.0458363667	 0.0253099214	-0.0185077424	 0.105785
C	 0.7459566684	-0.5227524669	-1.203045602	-0.072979
O	 2.0805813513	-0.0573892645	-1.2286871613	-0.415412
O	 0.6545310333	-0.485906804	 1.1591914225	-0.269461
C	-0.0548207855	-0.656742142	 2.2779233995	 0.417318
O	-1.2360666699	-0.4282473935	 2.3990030776	-0.373258
C	 0.7908891181	-1.1877545417	 3.4226737361	-0.143612
O	 0.0155510786	-1.3654082748	 4.5724671714	-0.417837
H	 0.9113210644	 1.9611630579	 0.0139669988	 0.137314
H	-0.6458828348	 1.9251726427	-0.8313027683	 0.125636
H	-0.6156582554	 1.8794241821	 0.9387245503	 0.139267
H	-1.0546695597	-0.3968456091	-0.0136408101	 0.112991
H	 0.7014664287	-1.6222509423	-1.1858957623	 0.098173
H	 0.2761705071	-0.1837551358	-2.1320239757	 0.118163
H	 2.4911174979	-0.343859825	-0.4053195451	 0.291869
H	 1.2530043049	-2.1327697601	 3.0996735746	 0.123737
H	 1.614043766	-0.4782900538	 3.5975765933	 0.124449
H	-0.8805193034	-1.0896157178	 4.3281742901	 0.297641
