25
gdb 59985	2.39384	0.83709	0.82215	1.7262	85.34	-0.2584	0.0671	0.3255	1644.3554	0.225705	-426.634836	-426.623041	-426.622097	-426.672066	43.404	
C	-1.8580160037	 1.6865371269	-1.2518378276	-0.401732
C	-1.8292886053	 0.1615448972	-1.3602550844	 0.124522
O	-0.8715610115	-0.2661393003	-2.3311481989	-0.428175
C	-1.5911018493	-0.5083192077	 0.0001367091	-0.204669
C	-1.5951991393	-2.0491349287	-0.0296939586	 0.034084
C	-0.8675761233	-2.6092138659	 1.2019416156	-0.431813
C	-3.038813205	-2.5930458192	-0.1573756004	 0.137749
C	-3.112228275	-4.0943189252	-0.4421292744	-0.417861
O	-3.8405440268	-2.2434127458	 0.972915926	-0.438533
H	-2.0026006406	 2.1351360157	-2.2384663862	 0.121233
H	-2.6658330732	 2.0217802856	-0.5935404039	 0.118944
H	-0.9139381275	 2.0648849912	-0.8388622095	 0.103141
H	-2.7884457502	-0.1742759914	-1.7719365331	 0.092267
H	-0.0079425	 0.0500311365	-2.0420438083	 0.273683
H	-0.6219229763	-0.1541537725	 0.3817841989	 0.068912
H	-2.3497594767	-0.1658049051	 0.7137930296	 0.11059
H	-1.0516133864	-2.3633219436	-0.9290605491	 0.084036
H	 0.1642491781	-2.2461476588	 1.2368335025	 0.113956
H	-1.3520004942	-2.2854462728	 2.1310125338	 0.110323
H	-0.8264717849	-3.7028021617	 1.2027100266	 0.112785
H	-3.5219553705	-2.0728116404	-0.9923374641	 0.087614
H	-2.6879948708	-4.6830011481	 0.3794038573	 0.10835
H	-4.1544387643	-4.3997817807	-0.5694750895	 0.122022
H	-2.5618865773	-4.3495142037	-1.3534013698	 0.120135
H	-3.5539007959	-2.7870455014	 1.7142440482	 0.278437
