20
gdb 113835	4.17486	0.80674	0.73734	2.0237	77.21	-0.2334	0.0736	0.3069	1570.5937	0.169296	-440.21669	-440.207037	-440.206093	-440.252299	34.845	
C	 0.2641204242	 1.755236655	-0.5004928673	-0.314942
N	 0.105974706	 0.3288221496	-0.2506148784	-0.083241
C	 1.2877948683	-0.4427803604	 0.091553674	-0.256957
C	 0.2205692104	-0.2027559595	 1.1113199439	-0.022087
C	 0.5110990008	 0.6708761475	 2.2864587415	 0.050502
O	-0.6074022047	 1.103035376	 3.078886639	-0.275142
C	 0.3717628553	 0.2501046644	 3.6924620622	 0.019576
C	-0.1306956929	-1.0929313656	 4.1621685309	-0.085953
O	-0.8981110772	-0.9534907871	 5.3464756695	-0.418229
H	 1.1109596966	 2.2253113637	 0.0229507629	 0.10119
H	 0.4166058099	 1.9006168704	-1.574431782	 0.126768
H	-0.6527669955	 2.2771652096	-0.2108300184	 0.135916
H	 1.3908245979	-1.4161330104	-0.3810159304	 0.119704
H	 2.2263923598	 0.0962924932	 0.2273271054	 0.106246
H	-0.4941700782	-0.9968035688	 1.3086387993	 0.098225
H	 1.2375916357	 1.4622595874	 2.1015868661	 0.094164
H	 0.9935365515	 0.7622027341	 4.4298830207	 0.098058
H	-0.7047494808	-1.5917352596	 3.3703921715	 0.097468
H	 0.7173654932	-1.7365733511	 4.4204021171	 0.115041
H	-1.6270211101	-0.3581951985	 5.1377880624	 0.293695
