14
gdb 125414	3.22421	1.16184	0.8664	4.117	65.83	-0.2726	-0.0307	0.2419	1245.022	0.0997	-473.837745	-473.829513	-473.828569	-473.871597	28.364	
C	-0.0675592273	 1.4824557412	 0.1274868286	-0.505599
C	 0.0264328131	-0.0044065853	 0.0205931175	 0.024007
C	-0.0622405101	-0.8244691289	-1.0579133481	 0.021443
O	 0.0763142343	-2.1155238258	-0.7073070012	-0.171225
N	 0.280034354	-2.1909504149	 0.6641847218	-0.229208
C	 0.2361293938	-0.9463361412	 1.0705141579	 0.434959
O	 0.4063187826	-0.5925130462	 2.3707334813	-0.226317
C	 0.0236912327	-1.4833570284	 3.3515943023	 0.164921
O	 0.2506769296	-1.2604937419	 4.4955820773	-0.245003
H	 0.855389301	 1.9100086952	 0.5321126558	 0.150756
H	-0.2500139145	 1.9331920659	-0.8507555819	 0.134922
H	-0.880766562	 1.7814343413	 0.7966667917	 0.14665
H	-0.2195212156	-0.6403796338	-2.1097087684	 0.160816
H	-0.4978432415	-2.3584638673	 2.9384884654	 0.138877
