21
gdb 57219	2.5253	1.3222	1.13346	3.5297	79.12	-0.229	0.061	0.29	1202.111	0.181451	-420.432092	-420.421993	-420.421049	-420.466845	37.805	
C	 0.1550139437	 0.5334226452	 0.892711391	-0.361406
N	-0.4502837455	-0.5041790358	 0.0726049598	-0.140692
C	-1.6648317178	-1.0757221875	 0.4116752892	 0.442574
N	-2.13313768	-0.7708015663	 1.6871830711	-0.573605
O	-2.2672357737	-1.8457268886	-0.3165405784	-0.410708
C	 0.0063528872	-0.655082415	-1.293671694	 0.365788
C	-0.6523949239	 0.2775901036	-2.2932179343	-0.453587
C	 1.463571691	-1.0217628104	-1.4724328231	-0.325274
C	 0.382443656	-2.0404573616	-1.7349120382	-0.269
H	 0.2374326513	 0.2049881633	 1.9335233892	 0.136781
H	 1.1636675097	 0.728000593	 0.5254811248	 0.14039
H	-0.3982673754	 1.4852143007	 0.8680545454	 0.11577
H	-1.9387026617	 0.1351375644	 2.0822501612	 0.247933
H	-3.0860181927	-1.0782118918	 1.8090856039	 0.257436
H	-0.4946631183	 1.3288467802	-2.0246451873	 0.106129
H	-0.2451866134	 0.1264872269	-3.2973140357	 0.113581
H	-1.7287577258	 0.0843544194	-2.329317273	 0.14184
H	 1.992262001	-0.5855390254	-2.3132516066	 0.110583
H	 2.0697289536	-1.1557829082	-0.5830889486	 0.1122
H	 0.2534901467	-2.839849564	-1.0174862426	 0.129647
H	 0.157842148	-2.3155789221	-2.7593403739	 0.11362
