17
gdb 124499	2.61507	1.29016	1.06496	2.9047	71.83	-0.2374	-0.0357	0.2017	1187.7246	0.13436	-455.132311	-455.123319	-455.122374	-455.166554	32.539	
C	 0.0079871788	 1.5790316799	 0.0111358163	-0.385963
C	 0.0537118459	 0.040229972	-0.0563551148	-0.099901
C	 0.7857543444	-0.4451871312	-1.3224665352	-0.385963
C	 0.6643357656	-0.5380354125	 1.1775036298	 0.347984
C	 0.2075784596	-1.3624442631	 2.1624520116	 0.219607
O	-1.0112717094	-1.9189878493	 2.2961556188	-0.428882
N	 1.2209461411	-1.561315959	 3.0553630946	-0.205115
N	 2.2541727236	-0.9222863329	 2.6880078294	-0.022306
O	 1.9428223498	-0.2535486036	 1.4912434577	-0.22074
H	 1.0188407486	 1.9943587719	 0.0636195052	 0.135233
H	-0.4804982687	 1.9807775594	-0.881560912	 0.118999
H	-0.5460646878	 1.92197351	 0.8894219984	 0.125233
H	-0.9748512576	-0.3377621801	-0.0824870509	 0.108424
H	 1.8264764327	-0.107590206	-1.3212467529	 0.135232
H	 0.7829236673	-1.5367466793	-1.3892388631	 0.125239
H	 0.2978716165	-0.0451325752	-2.2162517854	 0.118998
H	-1.0031413703	-2.4466051208	 3.1038639725	 0.313921
