17
gdb 124811	2.53709	1.49401	0.99088	2.5912	70.79	-0.2115	-0.0042	0.2073	1166.6575	0.136182	-455.133624	-455.124954	-455.12401	-455.166862	32.809	
C	 0.0583340555	 1.4314776653	 0.9081762667	-0.397039
C	-0.202942398	 0.4125805042	-0.1953289164	 0.004796
O	 0.8037343088	-0.6131632629	-0.2295087457	-0.426812
C	-1.5659922562	-0.2247722473	-0.1268059926	 0.330917
N	-2.4918027384	 0.1650707894	 0.7172520826	-0.210356
O	-3.5874721327	-0.6381222758	 0.4858189453	-0.177794
C	-3.2887418736	-1.518352755	-0.5015812786	-0.008344
C	-2.0174590547	-1.3144432824	-0.9416878444	 0.069798
N	-1.2823693283	-1.9043509117	-1.9691430033	-0.615797
H	 1.0656105121	 1.8400506718	 0.7962360857	 0.120891
H	-0.6687404596	 2.2458044359	 0.8640377245	 0.14274
H	-0.0312441912	 0.966915611	 1.8954453988	 0.123225
H	-0.1031607482	 0.8996947586	-1.1732195754	 0.115102
H	 0.7965558867	-1.0479745993	 0.6314833428	 0.285401
H	-4.0721606858	-2.2073820331	-0.7725200288	 0.137743
H	-1.6029308804	-2.8270965758	-2.2277957147	 0.244502
H	-0.2922839461	-1.9078181631	-1.7527519265	 0.261026
