18
gdb 106206	3.85821	1.3992	1.29991	2.2611	74.06	-0.2192	0.0677	0.287	1015.788	0.149132	-401.880527	-401.873268	-401.872324	-401.912339	28.805	
O	 0.617039075	 0.1112220905	-0.7928812385	-0.418913
C	-0.180781595	 0.4090312029	 0.3447462731	-0.22539
C	-1.5141693178	-0.240527387	 0.1615305368	 0.36757
C	-2.2643823739	-0.3953666038	-1.1392026521	-0.134398
C	-3.7331500159	-0.1137869297	-0.8893081969	-0.176236
N	-3.9017645233	-0.5796716067	 0.495255221	-0.12112
C	-2.9907394738	-1.7141719498	 0.7343886736	-0.061041
C	-1.8713726039	-1.6242404755	-0.3412961999	-0.142235
C	-2.6456414847	-0.354619555	 1.2302484094	-0.149059
H	 1.4743159495	 0.5301917978	-0.6743456635	 0.290524
H	 0.2926106674	 0.0369665633	 1.268976456	 0.090454
H	-0.3101399088	 1.4987508384	 0.4653402118	 0.08915
H	-1.7585514317	-0.1802163381	-2.0711600824	 0.104425
H	-3.9850647886	 0.950001474	-0.951588818	 0.104772
H	-4.3996367411	-0.6760701537	-1.5513640809	 0.106242
H	-3.3546173643	-2.598002313	 1.2421528913	 0.092129
H	-1.226567753	-2.4156331788	-0.6935234304	 0.094992
H	-2.6673017459	 0.0901645243	 2.2175838596	 0.088134
