16
gdb 80689	3.49118	1.19994	1.1559	4.0683	71.7	-0.2546	-0.0779	0.1767	1111.0765	0.123712	-437.883957	-437.87598	-437.875036	-437.91686	29.134	
C	-0.0538698579	 1.5670090953	 0.0348306449	-0.413775
C	 0.0850799686	 0.0628982969	 0.0410415301	-0.057061
C	 1.3665150414	-0.6677770512	-0.2186175126	 0.029492
O	 2.5672015035	 0.0582304989	-0.008730306	-0.236581
C	 2.5761681385	 0.3775175688	 1.3202260859	 0.281514
C	 3.7625274477	 1.172160836	 1.7532448036	 0.101415
O	 3.9350813173	 1.5621068874	 2.8769435031	-0.223708
N	 1.6213678504	-0.0516288287	 2.0508177147	-0.26218
C	 0.7200002358	-0.7414309733	 1.1743231209	-0.050584
H	 0.7730199372	 2.0631885891	 0.546496312	 0.135707
H	-0.0873226781	 1.9450800128	-0.991921249	 0.126868
H	-0.9778017043	 1.8656645446	 0.5388928963	 0.131409
H	-0.7653065384	-0.46694921	-0.3818890078	 0.105599
H	 1.4764512778	-1.4607908102	-0.9472706294	 0.117608
H	 4.481693636	 1.3644801288	 0.9309796218	 0.103136
H	 0.1988351943	-1.5954720051	 1.5888432514	 0.111143
