14
gdb 98150	2.33486	1.26452	0.90535	5.3243	68.38	-0.2851	-0.02	0.2651	1256.4187	0.097691	-436.679385	-436.669742	-436.668798	-436.715298	32.374	
C	-0.3920716255	 1.3714747439	-0.6810903702	-0.246442
O	-0.2790474137	-0.0575415491	-0.808149101	-0.230282
C	 0.9202798643	-0.5640133211	-0.5067991649	 0.476285
O	 1.8689934008	 0.0536725528	-0.1173188577	-0.328134
C	 0.8916510719	-2.0955190404	-0.7521242697	-0.443286
C	 0.9201018549	-2.3777920566	-2.1875108617	 0.342117
C	 0.9429871442	-2.5954723559	-3.3667098662	-0.433574
C	 1.9959548045	-2.7559945623	-0.0437562175	 0.323706
N	 2.8386474246	-3.306172119	 0.5201752742	-0.310299
H	-0.1869951952	 1.6781268217	 0.346887253	 0.152999
H	 0.3138563761	 1.8678860689	-1.3505768744	 0.153236
H	-1.4182353124	 1.6092290879	-0.9579292239	 0.145828
H	-0.0528394884	-2.4679881691	-0.3349255364	 0.179924
H	 0.966598154	-2.7950086716	-4.4100734137	 0.217921
