23
gdb 119971	3.08753	0.85362	0.82615	2.0891	83.49	-0.2484	0.0704	0.3187	1576.878	0.204504	-425.399321	-425.3888	-425.387856	-425.435281	38.243	
C	-0.4963778038	 1.5009680042	 0.2706624082	-0.379758
C	 0.0957335621	 0.1309743458	-0.0831993373	-0.191599
C	 0.8423309653	-0.4759740873	 1.0873774352	-0.043406
C	 0.1528163955	-1.4133770699	 2.0443801355	 0.103305
O	-1.1597659263	-1.7946752121	 1.7552609987	-0.430424
C	 1.2586751246	-1.9425660261	 1.1575657709	-0.121285
C	 0.8928999216	-2.9410212215	 0.0876991896	-0.099331
O	 0.2425271696	-4.0502554337	 0.7122942614	-0.242851
C	-0.092316065	-5.0708404717	-0.20176308	-0.22991
H	 0.2852064847	 2.206679834	 0.5740078882	 0.108798
H	-1.0239683759	 1.9354858092	-0.5842055121	 0.10744
H	-1.2074631493	 1.4127411017	 1.0978417803	 0.130181
H	-0.7164560406	-0.5361514475	-0.3834204141	 0.113766
H	 0.7694089804	 0.231315631	-0.9442308227	 0.088064
H	 1.5565447083	 0.2034019815	 1.5478869539	 0.08021
H	 0.3653193775	-1.3104189093	 3.1081323296	 0.08154
H	-1.1354821648	-2.7524966665	 1.6235030461	 0.292851
H	 2.2042025222	-2.1468623662	 1.6507507673	 0.087167
H	 0.2252287388	-2.5075769985	-0.6688858165	 0.101303
H	 1.7933711374	-3.2936874939	-0.4388363452	 0.095326
H	-0.5811271335	-5.8691097254	 0.3617791733	 0.129849
H	-0.7799491984	-4.7117128865	-0.9832823539	 0.109194
H	 0.8035213096	-5.4791270913	-0.6940115965	 0.109569
