18
gdb 81489	2.21016	1.96371	1.18707	0.6752	78.88	-0.2461	0.029	0.2752	1048.3284	0.146576	-401.838059	-401.829747	-401.828803	-401.870275	33.282	
C	-0.107334708	 1.5207352132	-0.0194741579	-0.477924
C	-0.0345328196	-0.0108693226	-0.0208633472	 0.215966
C	-1.3378029444	-0.5485880354	-0.3880650757	 0.184376
C	-2.4471605146	-0.9020383536	-0.6992516283	-0.412858
C	 1.2546664585	-0.6835045531	-0.6319020607	-0.129586
N	 2.0074697936	-0.0926667503	 0.5415133992	-0.328343
C	 0.7637435198	-0.7084610059	 1.1470282603	-0.129589
C	 1.0043229187	-1.9660744877	 0.2383979646	 0.157629
O	 0.0722611756	-2.9544956855	-0.0326771412	-0.437829
H	 0.8580323283	 1.9447732547	 0.2529370433	 0.151212
H	-0.3976423411	 1.8840200648	-1.0100874962	 0.12283
H	-0.8672220579	 1.8601591738	 0.6911100917	 0.12283
H	-3.4216200113	-1.2250065971	-0.9731011309	 0.200681
H	 1.6166724116	-0.5919900448	-1.6576192834	 0.086709
H	 2.8152670298	-0.6850424738	 0.7561283787	 0.213772
H	 0.547898731	-0.6463232597	 2.2152362933	 0.08671
H	 1.9368725022	-2.4823672748	 0.4885054583	 0.082571
H	-0.7732126222	-2.5441815621	-0.260295678	 0.290844
