19
gdb 91520	2.57783	1.39499	1.09962	2.1393	76.61	-0.2426	-0.0188	0.2238	1165.205	0.156756	-423.012073	-423.00295	-423.002006	-423.046126	33.817	
C	 0.2025564228	 1.7562859671	 0.0856535922	-0.409954
C	 0.0755300635	 0.2499422626	 0.1738225279	 0.076827
O	 0.8773070006	-0.4641866894	-0.8189604071	-0.298026
C	 1.4410461569	-1.2913046756	 0.1873245695	 0.082164
C	 2.2471229907	-0.5216281591	 1.156032066	-0.349528
C	 0.7302270584	-0.5305783345	 1.3229468449	 0.141893
C	 0.1042409305	-1.1171176786	 2.5308844041	 0.292932
C	-1.3705797027	-0.8308287488	 2.754370447	-0.498191
O	 0.7415108955	-1.810680876	 3.2984202007	-0.324033
H	 1.2282205626	 2.0861336141	 0.2684958098	 0.126376
H	-0.0975744944	 2.1004041494	-0.9089054299	 0.133976
H	-0.4535486033	 2.2327753662	 0.8220995565	 0.121996
H	-0.9714890121	-0.0523241807	 0.0453352198	 0.085261
H	 1.5035457671	-2.3582696847	 0.0066031007	 0.1221
H	 2.7378828775	-1.1028772489	 1.9291759092	 0.150226
H	 2.7534163563	 0.3825945349	 0.8336726587	 0.121097
H	-1.9727036506	-1.2842198755	 1.9587495116	 0.14435
H	-1.6759073463	-1.2440906813	 3.7160167748	 0.144409
H	-1.568802363	 0.2466831988	 2.7319075036	 0.136125
