21
gdb 104069	3.14955	1.03257	1.00164	2.2427	80.57	-0.2257	0.0335	0.2592	1321.49	0.181397	-424.243312	-424.233698	-424.232754	-424.277495	36.623	
C	 0.4301073058	 1.3732428589	 0.1508932203	-0.492982
C	 0.0357903809	-0.0630703786	 0.0149614343	 0.335079
C	 0.0988118092	-0.8236593382	-1.0809200624	-0.164715
C	-0.431564579	-2.2148650584	-0.8564167971	-0.320633
C	-0.5745992493	-2.3061144984	 0.6961156028	 0.43212
O	-1.7846845507	-2.9216147758	 1.1113999744	-0.492694
C	 0.596687623	-3.0857084282	 1.2992208572	-0.131472
O	 0.4659413027	-4.435343966	 0.8562026315	-0.43649
C	-0.5512411902	-0.8363631432	 1.175382613	-0.364794
H	 1.1943559868	 1.505711323	 0.9278895686	 0.120395
H	 0.8252036509	 1.7738890871	-0.7868247337	 0.121309
H	-0.425163707	 1.9924791954	 0.4514969286	 0.125142
H	 0.4595890435	-0.4808024514	-2.0458249756	 0.080195
H	-1.4209117071	-2.3496795484	-1.312435683	 0.108451
H	 0.2121256836	-3.0051726494	-1.2573870209	 0.108011
H	-1.6430969235	-3.8715321777	 1.0083620963	 0.281933
H	 1.5516597681	-2.6462092371	 0.9758239156	 0.095247
H	 0.5344856324	-3.0279672914	 2.3951213144	 0.093432
H	 1.0691683965	-4.9864332759	 1.3616626552	 0.293773
H	 0.0192615873	-0.7079940427	 2.1052766377	 0.089365
H	-1.577288794	-0.5148754536	 1.3971087028	 0.119325
