16
gdb 3606	5.38809	1.92811	1.64922	2.7619	61.84	-0.2279	0.0807	0.3086	784.3891	0.136567	-325.718022	-325.711149	-325.710205	-325.74893	25.972	
O	 0.0050849789	 1.3925968634	 0.0401795066	-0.433657
C	 0.052505116	 0.0022301559	 0.0419424878	 0.136144
C	-0.4466637145	-0.77507722	 1.2373395949	-0.344561
C	-1.2461289434	-0.7595322602	-0.0516782002	-0.00463
N	-2.4138760052	 0.0810505897	-0.0761864821	-0.086222
C	-3.31468007	-0.0599464475	-1.2177283908	-0.222101
C	-3.713374149	-0.5529963345	 0.1298724272	-0.216795
H	-0.9367577605	 1.6168500702	 0.0879807282	 0.285411
H	 0.9181748051	-0.3729500648	-0.4950333622	 0.099246
H	 0.0510811431	-1.6967779525	 1.5190339944	 0.110289
H	-0.8426752163	-0.1921232293	 2.0618470939	 0.120863
H	-1.2891204745	-1.6775133851	-0.6413608175	 0.075643
H	-3.729016994	 0.8632328693	-1.6118150007	 0.122625
H	-3.0616565009	-0.8042955221	-1.969976125	 0.11817
H	-3.7282317855	-1.629303898	 0.2857812071	 0.117963
H	-4.4220113192	 0.0065330556	 0.7335906283	 0.121611
