11
gdb 910	5.86771	2.83938	1.91346	7.3926	54.43	-0.2323	-0.0284	0.2039	604.9605	0.081579	-339.489014	-339.483703	-339.482759	-339.518156	19.72	
O	 0.0150212782	-0.0513893588	 0.0028711043	-0.357637
C	-0.0138614139	 1.1618390488	 0.00912891	 0.37761
C	-1.2656083678	 1.933390126	 0.0304192799	-0.217999
C	-1.2442189155	 3.2790554271	 0.0373686801	 0.018695
N	-0.0343419246	 3.9353329814	 0.0245923551	-0.29401
C	 1.1213334713	 3.2028430602	 0.005192303	 0.103321
N	 1.187979883	 1.9215194678	-0.0026260031	-0.300317
H	-2.2009244393	 1.3890055388	 0.0402154186	 0.122386
H	-2.1279447136	 3.9056246607	 0.0527116547	 0.140308
H	 0.0065149631	 4.9413251595	 0.0294801708	 0.273153
H	 2.0346996791	 3.7973753287	-0.0037887334	 0.134489
