21
gdb 101185	3.68435	0.94764	0.87985	2.4755	79.13	-0.2542	0.0641	0.3182	1391.0569	0.183319	-424.162213	-424.153563	-424.152619	-424.195997	33.567	
O	 0.1279963581	 1.3892210864	-0.4064598542	-0.426674
C	 0.0538408758	 0.0085243848	-0.1275963679	-0.05719
C	-1.4049963383	-0.4548968073	-0.0503031338	 0.032448
O	-2.0899542971	-0.0098016114	-1.2335271339	-0.44273
C	-1.5349141473	-1.9575000879	 0.1230912262	 0.043424
C	-1.2992895749	-2.6708332432	 1.4969364547	-0.059801
C	-2.6873614515	-2.1385492965	 1.9631454501	-0.224577
C	-2.8954253182	-2.6293752663	 0.5000218565	-0.05558
C	-2.0647132867	-3.8856486121	 0.8953703858	-0.222048
H	-0.5675764781	 1.5495222937	-1.0584258466	 0.283788
H	 0.5808384937	-0.5877122706	-0.8962275319	 0.068068
H	 0.5628452378	-0.1670909063	 0.826697206	 0.108093
H	-1.8916485203	 0.0959491054	 0.7588094706	 0.096112
H	-1.8193388153	-0.5840841352	-1.9601560478	 0.280256
H	-1.0224545726	-2.4558053762	-0.7136576393	 0.051726
H	-0.3729864636	-2.6982302656	 2.0729702212	 0.074005
H	-3.1864715373	-2.7245568718	 2.7394555392	 0.092637
H	-2.7865183486	-1.0713950125	 2.1638590884	 0.10043
H	-3.8178783981	-2.6029887478	-0.0808582885	 0.076571
H	-1.5701821591	-4.4270334769	 0.083801222	 0.088592
H	-2.5278235983	-4.5692380828	 1.6113370533	 0.092451
