20
gdb 110575	3.20482	1.36111	1.13139	2.7399	79.64	-0.2253	0.069	0.2943	1134.8335	0.170496	-403.047112	-403.038645	-403.0377	-403.080007	32.716	
C	 0.0382099482	 1.2714982054	-0.3850318081	-0.519949
C	 0.1041582078	-0.1982956583	-0.0997799986	 0.38142
C	 0.5724007474	-1.3308771558	-1.0308906867	-0.036829
C	 2.044417055	-1.4404109633	-1.3639909603	-0.124732
O	 2.3678698137	-0.3576012849	-2.230473592	-0.418683
C	 0.026501611	-2.0183865558	 0.2242320292	-0.035296
C	 0.5601422781	-0.9376103696	 1.2101250313	-0.118243
C	-0.8476279194	-0.7877997802	 1.7697491752	-0.197439
N	-1.1641851252	-1.0273955021	 0.2975763972	-0.194522
H	 1.0334664314	 1.6446982992	-0.6431506667	 0.136709
H	-0.6238802144	 1.4605992746	-1.2360051734	 0.132696
H	-0.3384903317	 1.8353646354	 0.4747627888	 0.116291
H	-0.051965147	-1.4530940357	-1.9228853271	 0.083689
H	 2.6476333108	-1.402584746	-0.4427993332	 0.084673
H	 2.2463329258	-2.4098155049	-1.8468037801	 0.088658
H	 3.2923250375	-0.4391678414	-2.4827350078	 0.287742
H	-0.1356987296	-3.0788900763	 0.4281254458	 0.076585
H	 1.5317480824	-0.8928801288	 1.7141876106	 0.061723
H	-1.2263912232	-1.5777115675	 2.4271481111	 0.0966
H	-1.1651924185	 0.1937921261	 2.1358656646	 0.098907
