23
gdb 64437	2.12068	1.60472	1.20587	2.8057	84.9	-0.2312	-0.0087	0.2225	1173.3588	0.206282	-388.341999	-388.332696	-388.331751	-388.375427	36.479	
C	 0.0083292116	 1.5431082111	-0.0172881132	-0.414851
C	-0.00477415	 0.0093929223	 0.0079255348	 0.165224
C	-1.470401232	-0.4822153116	 0.0810997551	-0.423289
C	 0.697679772	-0.545581541	-1.2612693837	-0.214812
C	 0.9638584386	-2.0556876776	-1.2318621857	-0.210463
C	 1.7814080072	-2.4436292605	 0.0049600321	-0.198691
C	 1.0798720908	-1.9837764779	 1.2965804905	-0.296637
C	 0.7351164427	-0.4984985431	 1.2609997725	 0.379224
O	 1.0286153361	 0.2384406582	 2.1751332765	-0.319885
H	 1.031795429	 1.9285632007	-0.0309367856	 0.117045
H	-0.5103284354	 1.9106325991	-0.9092437348	 0.101277
H	-0.4832494026	 1.9553162807	 0.8667290406	 0.125868
H	-2.0285187491	-0.1033300441	-0.7819610575	 0.118818
H	-1.5541736285	-1.5718351204	 0.0783142244	 0.116325
H	-1.9591894126	-0.1095848118	 0.9868310141	 0.127245
H	 0.0953984834	-0.2795537613	-2.1387294748	 0.094281
H	 1.6572697016	-0.0238803727	-1.3784774624	 0.098642
H	 0.0173720478	-2.6109720978	-1.2368546416	 0.098752
H	 1.4956228894	-2.3504034935	-2.1434035596	 0.097359
H	 1.9501510888	-3.5251875181	 0.0393040885	 0.099447
H	 2.7723635415	-1.9742557791	-0.052113959	 0.105847
H	 0.1472831741	-2.5510462049	 1.4194143243	 0.116616
H	 1.6909020356	-2.1626847369	 2.1845838445	 0.116656
