19
gdb 55364	3.11485	1.3835	1.09186	2.6821	74.4	-0.2389	0.0314	0.2703	1126.1774	0.161451	-419.229138	-419.220917	-419.219973	-419.262368	31.76	
N	 0.569486402	 0.225996051	 0.8014877471	-0.519925
C	-0.1948545602	 0.4085738865	-0.3090515114	 0.388016
O	 0.0550107592	 1.2238139994	-1.1768083218	-0.368609
C	-1.4439330518	-0.4763998209	-0.3485806411	-0.062049
C	-2.0203058914	-0.6947609668	-1.7630898667	-0.241749
C	-2.7211766213	-2.0649450273	-1.6523751625	-0.238753
C	-1.9563822862	-2.7832240886	-0.5491730913	-0.006592
C	-0.4739512257	-2.7367643332	-0.5992676292	-0.25424
N	-1.2151295564	-1.8034693984	 0.2735546678	-0.122945
H	 1.4304893408	 0.7404119216	 0.8854413315	 0.257308
H	 0.3753237805	-0.5432943957	 1.4213130821	 0.270694
H	-2.1968287382	 0.017961549	 0.2801734637	 0.108244
H	-2.7010115291	 0.1070049717	-2.0524382272	 0.114952
H	-1.2181765346	-0.7014219877	-2.5041968263	 0.125107
H	-3.7664663129	-1.9458943829	-1.3462253911	 0.107959
H	-2.7203538654	-2.6190092992	-2.5959289437	 0.109697
H	-2.4500309287	-3.5874666967	-0.0110987126	 0.092512
H	 0.1073823522	-3.4799283106	-0.0620997487	 0.115818
H	 0.0080661873	-2.3500683313	-1.4934262686	 0.124555
