17
gdb 123447	5.37972	0.94802	0.83427	6.568	73.23	-0.249	0.0131	0.2621	1332.8858	0.138838	-414.164733	-414.157018	-414.156074	-414.198245	28.081	
C	 0.0822546602	 1.2950717562	 0.5517017694	-0.193698
C	-0.0411261964	-0.1115155337	 0.0203093805	 0.013859
C	-1.3815437548	-0.6682065404	-0.2810202482	-0.248401
N	-0.4482996359	-0.3511428012	-1.3748414081	-0.306373
N	 1.3668238287	 1.9035950232	 0.2166856192	-0.024316
C	 2.054551347	 2.8408150249	 0.936493925	 0.022036
N	 3.1427075686	 3.2092560795	 0.3122636437	-0.223863
N	 3.1912142924	 2.4984440415	-0.8708419492	-0.226294
C	 2.1291992874	 1.7346939561	-0.9084983215	 0.016469
H	-0.7365573809	 1.9121515517	 0.1578743076	 0.123498
H	-0.0045331195	 1.2956272469	 1.6432854313	 0.138092
H	 0.7370628084	-0.7894176459	 0.3638676698	 0.117919
H	-1.5718283958	-1.7260277736	-0.1292048044	 0.134265
H	-2.2470331895	-0.0269239599	-0.1331798285	 0.120031
H	-0.7244852695	 0.52449372	-1.8147802976	 0.235895
H	 1.7182433869	 3.2059599921	 1.8950313225	 0.138918
H	 1.8731835826	 1.0416138025	-1.6941958214	 0.161965
