18
gdb 37784	2.69468	2.04566	1.48902	1.3992	75.4	-0.2318	-0.0097	0.2221	913.9722	0.150774	-401.892448	-401.885763	-401.884819	-401.923151	27.692	
C	 0.0121556147	 1.4609263447	-0.24554194	-0.193564
C	 1.5307558122	 1.3892286268	 0.0791668507	 0.12401
O	 2.1101783892	 2.2681503099	 1.0152885822	-0.265704
C	 2.0677193382	 1.8651874675	 2.37919577	-0.123748
C	 0.685143713	 1.5984613088	 2.9379567122	-0.085522
C	-0.1123824578	 0.6219461567	 2.5037412317	-0.067672
C	 0.2093587211	-0.2984912131	 1.3863053553	-0.036965
C	 1.3052619889	-0.087993172	 0.4076980011	-0.128413
N	-0.1505511198	-0.0220121811	-0.0361296589	-0.154123
H	-0.59497898	 2.0861118421	 0.4117552296	 0.111669
H	-0.2009875094	 1.7049499002	-1.2878299695	 0.109678
H	 2.122244485	 1.5017151644	-0.8334330511	 0.098332
H	 2.6931530838	 0.9709654153	 2.5217987546	 0.107131
H	 2.5429726951	 2.6837479276	 2.9249691009	 0.112722
H	 0.3487959423	 2.2381556962	 3.7497899678	 0.099802
H	-1.0835933704	 0.4722544044	 2.9715076495	 0.096404
H	-0.0032016382	-1.3451834029	 1.5973077031	 0.103033
H	 1.9549649422	-0.9019651657	 0.100839581	 0.09293
