19
gdb 45784	2.77239	1.43271	1.0754	2.703	82.54	-0.228	-0.0112	0.2168	1151.7529	0.159938	-385.914743	-385.906775	-385.90583	-385.947479	31.338	
O	 0.0116879977	-0.0839706664	 0.0528834549	-0.309358
C	-0.0231146249	 1.1194242751	-0.0449269054	 0.381625
C	-1.3372275948	 1.8915979463	-0.1152389471	-0.360109
C	-1.2465401015	 3.1594253841	-0.9252397855	-0.090908
C	-0.1106481626	 3.6168248385	-1.4537936729	-0.109915
C	 1.2028740179	 2.9574167922	-1.25670298	 0.335635
C	 2.0331796166	 2.636788526	-2.4918362724	-0.297731
C	 2.4652726998	 3.7354024838	-1.5618163912	-0.321038
C	 1.2283567372	 1.9833776891	-0.0823772737	-0.391263
H	-2.1050294236	 1.2155376923	-0.5074998895	 0.134841
H	-1.644484559	 2.1172023576	 0.9185274099	 0.133704
H	-2.1765736712	 3.6946173999	-1.0966079742	 0.094385
H	-0.1218266341	 4.516050736	-2.065683235	 0.088588
H	 2.5936503549	 1.7079637251	-2.4888752973	 0.123939
H	 1.6271149094	 2.909833893	-3.4594916482	 0.11783
H	 2.3579753115	 4.7631180423	-1.8931804917	 0.116147
H	 3.3269665896	 3.5606329964	-0.9260875588	 0.116329
H	 1.2500590197	 2.5621462211	 0.8531214376	 0.120512
H	 2.1070084475	 1.3345861175	-0.0998986997	 0.116787
