19
gdb 68272	2.31889	1.52936	1.44785	4.3872	80.23	-0.2475	0.0114	0.2589	1052.0416	0.158732	-382.010909	-382.002152	-382.001208	-382.043909	33.414	
C	-0.3114452525	 1.6266088988	-0.1577629338	-0.52307
C	-0.0775291835	 0.1434970071	-0.035799818	 0.270809
C	 0.5836734787	-0.8399341941	-1.0342734426	-0.22714
N	 0.1882885565	-1.7872073387	 0.1178184597	-0.168104
C	 0.7337388982	-0.6564653344	 1.0119420493	-0.22415
C	-1.1528718952	-0.9922715565	 0.1410946944	 0.173965
C	-2.0275050502	-1.1197101394	 1.3891743557	-0.48331
C	-2.0082256617	-1.2581689705	-1.0222440927	 0.244946
N	-2.7321830007	-1.4404443543	-1.9053893817	-0.349826
H	 0.6368958643	 2.1593783818	-0.2838793008	 0.129458
H	-0.9435141833	 1.8507115185	-1.0232707685	 0.139886
H	-0.8044347535	 2.0245308148	 0.7355123853	 0.126847
H	 0.0801530192	-1.052292783	-1.9786396361	 0.138214
H	 1.6649886014	-0.767537004	-1.1675086982	 0.105989
H	 1.8215152552	-0.5743033711	 0.9600559378	 0.110182
H	 0.4046479796	-0.6910853581	 2.0493001545	 0.107771
H	-1.5201743565	-0.80779782	 2.3015097847	 0.129506
H	-2.9260100698	-0.5070802227	 1.274387713	 0.144387
H	-2.3436777065	-2.1599917643	 1.5086483381	 0.153639
