23
gdb 96444	2.02579	1.80737	1.21218	1.3158	84.4	-0.2399	0.0759	0.3157	1139.1459	0.208424	-388.280776	-388.272431	-388.271487	-388.313076	34.02	
C	-0.2604093391	 1.5297723358	 0.0380539821	-0.407634
C	-0.0241924128	 0.0113183253	 0.0168175664	 0.001691
C	 0.4560050401	-0.5047361797	-1.3609795011	-0.205043
C	 1.7636601272	 0.0803620311	-1.914172029	-0.071051
O	 2.9456051353	-0.2852241508	-1.2243614658	-0.239325
C	 3.0896606828	 0.3145593977	 0.0530926	-0.10662
C	 2.3634165616	-0.4377386885	 1.1481871822	-0.008705
C	 1.5563119534	 0.2993063312	 2.1915101558	-0.321209
C	 0.8554299819	-0.537197734	 1.1486823686	-0.00863
H	 0.6558377731	 2.1139392821	-0.0844055233	 0.117854
H	-0.9376105684	 1.8170680408	-0.7737902631	 0.109379
H	-0.7212342214	 1.8361792952	 0.9817269913	 0.118217
H	-1.0140337875	-0.4383044639	 0.1717571332	 0.073372
H	 0.562998754	-1.5953046914	-1.3143642208	 0.099612
H	-0.3249738651	-0.2966706344	-2.1059982809	 0.086861
H	 1.903182588	-0.2878545113	-2.9363814864	 0.102264
H	 1.6930361716	 1.1792061306	-1.9753322028	 0.084041
H	 4.1653175563	 0.3219153953	 0.2622414631	 0.103532
H	 2.7628045242	 1.3648740832	 0.0147785731	 0.085557
H	 2.8857994493	-1.3305285076	 1.4807488084	 0.083348
H	 1.5754062474	-0.0538735716	 3.2168861344	 0.108146
H	 1.5019361413	 1.3793672481	 2.1014778684	 0.110885
H	 0.4947455069	-1.494793933	 1.5155370862	 0.083461
