19
gdb 57298	3.73851	0.60968	0.59322	1.462	82.16	-0.2527	-0.0321	0.2206	1918.1886	0.154083	-423.01118	-423.000128	-422.999183	-423.049352	38.36	
C	 0.3381976178	 1.5512102215	 0.1313893584	-0.383689
C	 0.0096408599	 0.0550206867	 0.0402749817	 0.168881
C	 0.6654195912	-0.7253207594	 1.1948125747	-0.40005
O	-1.4171676543	-0.0228554652	 0.1434754638	-0.439367
C	 0.4577129737	-0.493285643	-1.2518442707	 0.144257
C	 0.8027720346	-0.9542119335	-2.3104117093	-0.043676
C	 1.257025175	-1.5391248429	-3.5635201866	-0.415692
C	 2.1459017647	-2.7665473357	-3.3480924398	 0.174109
O	 3.0977056825	-3.0273767777	-4.031113633	-0.229165
H	 1.4169051178	 1.7143260108	 0.0747723595	 0.122129
H	-0.1458638032	 2.0912263607	-0.6849410032	 0.13245
H	-0.0345942623	 1.9442152539	 1.0813930333	 0.123923
H	 0.3042054733	-0.3307820751	 2.148630553	 0.12448
H	 0.4086596588	-1.7877244176	 1.135664	 0.111445
H	 1.7551487164	-0.638826828	 1.1607157115	 0.124664
H	-1.6722216342	-0.9378279984	-0.017324144	 0.279799
H	 0.3930489759	-1.8767658148	-4.1569915867	 0.157229
H	 1.8055528848	-0.8233133645	-4.1845414055	 0.157104
H	 1.8280745976	-3.4170750377	-2.5041858772	 0.091169
