14
gdb 48462	1.89517	1.67312	1.30216	4.4818	65.29	-0.2619	-0.0524	0.2094	1025.5602	0.098568	-473.851486	-473.842763	-473.841819	-473.885742	29.794	
O	-0.6327431887	 0.6645537362	 0.7536424891	-0.25145
C	 0.057491517	 1.0012723524	-0.1736422306	 0.120244
C	 1.2263070012	 1.9581017977	-0.0384597464	-0.056012
C	 1.4297496777	 2.5979437171	 1.3529632235	-0.218516
N	 2.6817257309	 1.8385865626	 1.4797427735	-0.320552
C	 2.5840086337	 1.1601063419	 0.3047765971	 0.406907
O	 3.2235007343	 0.3180843678	-0.2472728533	-0.31774
C	 1.4097583558	 2.8376363623	-1.251114699	 0.105056
O	 1.1197833332	 2.5010748567	-2.3695630494	-0.242655
H	-0.0993233022	 0.6292663544	-1.2022576067	 0.132472
H	 1.5715547669	 3.6827879978	 1.3506597275	 0.124403
H	 0.6549294116	 2.3079176098	 2.0647424896	 0.154737
H	 3.2904500539	 1.6716076501	 2.2680500837	 0.268231
H	 1.8624034147	 3.8310657131	-1.0375088286	 0.094875
