19
gdb 126553	5.35283	0.78518	0.73149	2.4053	79.23	-0.2729	-0.0169	0.256	1615.1333	0.159816	-415.392856	-415.383492	-415.382548	-415.428616	32.334	
C	 0.0007052749	 1.5574583649	 0.1013209551	-0.382587
C	 0.0111100531	 0.0277557877	 0.0841915747	-0.163433
C	-1.394904716	-0.568578015	-0.1212865723	-0.280779
C	-1.3937613871	-2.0603757876	-0.1093911133	 0.383691
N	-1.4661459321	-2.8215728803	-1.1995613925	-0.308498
N	-1.3989426079	-4.0429532867	-0.6818228305	 0.152771
C	-1.4458926383	-5.2515263426	-1.4786297325	-0.318027
N	-1.2923681579	-4.0598743552	 0.6401546128	-0.12893
N	-1.2869771647	-2.8075657426	 1.0197069986	-0.261889
H	 1.0085180859	 1.9575989373	 0.2476782865	 0.115641
H	-0.3857936268	 1.9631997922	-0.840278544	 0.115518
H	-0.630665317	 1.9404857082	 0.9106690316	 0.117851
H	 0.6704175405	-0.3332464419	-0.714327226	 0.104734
H	 0.42219767	-0.3569104337	 1.0243039116	 0.119496
H	-2.0579660255	-0.2136913159	 0.6755833151	 0.123313
H	-1.811157196	-0.2266726523	-1.0738721749	 0.119137
H	-0.6100055924	-5.2653465572	-2.1813730381	 0.159976
H	-1.3752026044	-6.0949454375	-0.7929913028	 0.171656
H	-2.3855360882	-5.2938809519	-2.033566799	 0.160359
