16
gdb 105778	2.33258	1.52425	1.23998	4.8631	64.49	-0.2848	0.0166	0.3014	1060.4889	0.123715	-475.020695	-475.011932	-475.010987	-475.055038	30.846	
O	 0.0974013511	 1.3667245748	-0.0828423003	-0.405406
C	 0.0409245901	-0.0315922442	 0.0334261488	-0.108877
C	-1.4044490353	-0.5378244021	 0.0374727824	 0.265155
O	-2.0011686724	-0.1907150655	-1.1879816736	-0.266553
C	-3.0516258008	-1.1386315818	-1.3829334033	-0.128411
C	-2.5105822966	-2.4115691009	-0.69841858	-0.103433
O	-1.4317530939	-1.9394783169	 0.1208104744	-0.273141
C	-2.1947251729	 0.0525034518	 1.16522549	 0.282589
N	-2.8259069808	 0.4769435994	 2.0344215743	-0.337491
H	-0.3480988524	 1.6072152241	-0.9034108583	 0.300103
H	 0.5476249375	-0.5571612951	-0.7880587781	 0.110344
H	 0.5218663137	-0.3048736439	 0.9757513966	 0.140084
H	-3.9759990032	-0.7865797791	-0.9094450773	 0.133197
H	-3.211793864	-1.2482635346	-2.456337962	 0.134109
H	-3.2671752097	-2.9029111746	-0.0792827644	 0.130242
H	-2.1025301403	-3.1345109815	-1.4106493291	 0.127488
