19
gdb 82871	2.53475	1.94257	1.44151	2.1335	74.15	-0.2374	0.0695	0.3069	960.6003	0.160139	-422.986958	-422.979516	-422.978572	-423.018241	30.705	
C	 0.1263103229	 1.5245449954	-0.213410711	-0.514464
C	-0.0120263888	 0.0413102098	-0.0729734844	 0.490159
O	 0.4593325154	-0.7477169096	-1.1788755505	-0.331246
C	-0.2731592575	-1.8345443252	-0.5454450448	 0.056158
C	 0.6311493925	-2.1206859575	 0.6741477368	-0.221541
C	 0.3802308943	-0.7343646397	 1.2932679507	-0.180711
C	-1.1416029704	-0.8276903544	 1.5980707895	 0.122373
O	-1.7302063622	 0.3464099373	 2.1258315771	-0.446259
C	-1.2996087273	-0.81561856	 0.0731806491	-0.127744
H	 1.1841587385	 1.8090752024	-0.2402567151	 0.122425
H	-0.3434949064	 1.8689474475	-1.1397110751	 0.125884
H	-0.3531744191	 2.0213384894	 0.6324745805	 0.137374
H	-0.5518892182	-2.6366580535	-1.227091783	 0.079368
H	 0.2954608306	-2.9419187398	 1.314930047	 0.09399
H	 1.6583908094	-2.3000917711	 0.352239091	 0.108813
H	 1.0852740553	-0.3333334277	 2.0214168817	 0.060238
H	-1.470595391	-1.7187794091	 2.151330454	 0.061773
H	-1.4078493966	 0.4577829181	 3.0259801386	 0.283556
H	-2.2365176115	-0.6127754924	-0.4421205521	 0.079854
