13
gdb 25291	7.96232	0.66894	0.6171	6.6096	85.63	-0.2379	-0.0637	0.1742	1660.5725	0.090358	-415.62549	-415.617693	-415.616749	-415.659018	27.089	
O	-0.0991504082	-0.0214767597	-0.0009407009	-0.242171
C	-0.0028337942	 1.1874996009	 0.0080623322	-0.009789
C	 1.2351378317	 1.9087251446	-0.0002387462	 0.209538
C	 2.264796254	 2.5473948101	-0.0067265804	-0.078083
C	 3.4754463102	 3.264208393	-0.014817719	 0.136424
C	 4.7513318086	 2.7333032909	-0.0337701973	-0.178387
N	 5.5915377781	 3.8093116756	-0.0345881469	-0.222888
C	 4.813772958	 4.9378536712	-0.0165972873	 0.000455
N	 3.5398542865	 4.651890689	-0.0043524422	-0.292397
H	-0.9008291329	 1.8385083547	 0.0238513577	 0.097614
H	 5.1041792292	 1.7160874231	-0.0460593642	 0.156588
H	 6.5978037117	 3.7744520364	-0.0463480204	 0.279916
H	 5.2418569174	 5.9290998001	-0.0134837052	 0.14318
