14
gdb 18696	3.36556	2.41675	1.56565	3.5854	57.21	-0.2671	-0.0037	0.2634	775.9912	0.108772	-419.691648	-419.685369	-419.684425	-419.722246	23.845	
O	 0.008698083	 0.0192955008	 0.2658128783	-0.329644
C	-0.0118378648	 1.187812685	 0.0002597742	 0.43186
O	-1.2013572634	 1.8211281321	-0.2154180834	-0.226017
C	-1.1462945871	 3.0805134142	-0.8938154786	 0.009269
O	-0.3056999399	 3.9893713806	-0.2577905969	-0.231633
C	 1.0263090429	 3.5417103607	-0.2499351893	 0.088827
C	 1.5210854118	 3.0138940376	 1.0545223304	-0.298312
C	 1.2070716167	 2.0520172454	-0.0915299547	-0.211062
H	-0.8351011438	 2.9048369179	-1.9336726249	 0.107661
H	-2.1584682155	 3.4837704916	-0.8588523572	 0.138299
H	 1.6866437479	 4.1018072477	-0.9064636419	 0.110806
H	 2.5664821915	 3.1378456502	 1.3109786439	 0.132063
H	 0.8279209541	 3.0530958255	 1.8863612347	 0.147868
H	 2.0519833569	 1.5603027607	-0.5570821147	 0.130015
