19
gdb 39599	3.25102	1.5594	1.11718	0.152	76.37	-0.23	0.0114	0.2414	1080.4386	0.162357	-423.022657	-423.015709	-423.014765	-423.053746	28.658	
C	-0.0543034926	 1.5327235489	 0.0303726248	-0.334394
C	 1.4368405527	 1.8361495372	-0.0603250268	-0.057696
C	 2.1876623963	 0.8199672586	 0.3788653477	-0.150085
C	 1.2808895361	-0.2578999297	 0.9069244394	 0.123669
O	 1.6613654611	-1.6157811099	 0.7810916159	-0.274576
C	 0.5873641662	-2.401849062	 1.2943225996	-0.089973
C	-0.7594520133	-2.0868143661	 0.6188190701	-0.09289
O	-1.0856938769	-0.6975237903	 0.6551505285	-0.271621
C	 0.0068242216	 0.0046939983	 0.1041993535	 0.151275
H	-0.4940024494	 1.9505058878	 0.9471098882	 0.119692
H	-0.6343353627	 1.9139483081	-0.8148064991	 0.10955
H	 1.8167197604	 2.7865987596	-0.4168874549	 0.100261
H	 3.2682800016	 0.7928450879	 0.4442167054	 0.105596
H	 1.0658534365	-0.0592061384	 1.9758967282	 0.073926
H	 0.8488071508	-3.4503791905	 1.1244005639	 0.10949
H	 0.4950357909	-2.2354774298	 2.3802147395	 0.096141
H	-0.7279202914	-2.4288501076	-0.4283299504	 0.097559
H	-1.5650725397	-2.6178128311	 1.1343463354	 0.108912
H	 0.2058969618	-0.3743587711	-0.9131660888	 0.075163
