23
gdb 121114	3.57105	0.8431	0.80498	0.6877	82.74	-0.2565	0.0854	0.3419	1593.5594	0.205555	-425.444447	-425.434535	-425.433591	-425.480301	36.204	
C	 0.5243394754	 1.4041914687	 0.0054511894	-0.385298
C	 0.147368493	-0.0669917354	-0.0173783925	-0.041049
O	 0.7402847558	-0.6629757443	-1.1642796867	-0.257447
C	 0.4578795408	-2.0313943732	-1.3050857899	 0.2288
C	 1.093801603	-2.5129534614	-2.6244821093	-0.283765
C	 2.1322097002	-3.5736930794	-2.1918561609	 0.038114
C	 3.416533899	-3.5900231268	-3.0173707282	-0.409852
C	 2.3264718355	-3.217778907	-0.7112246723	-0.102131
O	 1.0362755452	-2.8066766357	-0.2688105942	-0.254352
H	 1.6103497763	 1.5216669152	 0.0628311278	 0.124501
H	 0.1739130896	 1.9077394044	-0.9002195139	 0.123051
H	 0.0765627131	 1.8979652523	 0.8732103701	 0.113749
H	 0.4946901366	-0.5766606898	 0.8903904808	 0.107499
H	-0.948017576	-0.1871119255	-0.0626818083	 0.083804
H	-0.6271691229	-2.1937368866	-1.2324959364	 0.065274
H	 0.3465498204	-2.9134687911	-3.3129150827	 0.105488
H	 1.5742300332	-1.6572256695	-3.1064260079	 0.116757
H	 1.6631222759	-4.5638983299	-2.2357546672	 0.077596
H	 3.9134512774	-2.6136051613	-2.9889403683	 0.119137
H	 4.1233391108	-4.3376569932	-2.6413148555	 0.11477
H	 3.2111995917	-3.8285967479	-4.0657663918	 0.11842
H	 2.6427523037	-4.0581435412	-0.0878905254	 0.104239
H	 3.0576353222	-2.4020184512	-0.5992274365	 0.092694
