16
gdb 43864	3.73477	1.03715	0.90674	3.3368	77.61	-0.239	0.0299	0.2689	1262.9884	0.122471	-400.718632	-400.710137	-400.709193	-400.752043	32.1	
O	 0.0617431818	-0.0132483452	 0.0720554036	-0.352897
C	-0.0220718496	 1.1820874366	 0.0278899365	 0.438028
C	-1.1645008415	 2.233083761	-0.0257653544	-0.478785
C	-0.0330205655	 3.2696021106	-0.0245353157	 0.417555
C	 0.0890997634	 4.5603815955	-0.7504217081	-0.351832
C	 0.0594432909	 4.5460834678	 0.7882335263	-0.285492
C	-1.0838089645	 5.0287382982	 1.5015024958	 0.339529
C	-2.0554795029	 5.4133919395	 2.0981307284	-0.457753
N	 0.9256199207	 2.1865156191	 0.0011408563	-0.38846
H	-1.7686622718	 2.1920822093	-0.9335787436	 0.137175
H	-1.8084742797	 2.2495054115	 0.854788217	 0.149645
H	 1.0376121908	 4.8096371368	-1.2145373713	 0.124426
H	-0.7857795899	 4.947952086	-1.2602794125	 0.137979
H	 1.0180876489	 4.7257647741	 1.2685176478	 0.117068
H	-2.9082896508	 5.7617430845	 2.6260039659	 0.20048
H	 1.9326233296	 2.1667565246	 0.0665242082	 0.253333
