16
gdb 129763	3.3707	1.58206	1.0862	2.9634	79.65	-0.1877	0.009	0.1967	1058.2015	0.127734	-396.952	-396.944597	-396.943653	-396.98356	28.999	
N	 0.1547750252	 1.4147741822	 0.1417067269	-0.610265
C	-0.0407428543	 0.0332522715	 0.0515450385	 0.156061
C	-1.1591488459	-0.7753563602	 0.0326786099	 0.234038
C	-2.6124897442	-0.8542447667	 0.0085201284	-0.238892
C	-2.9783609445	-2.1523254429	-0.0213153856	-0.088763
C	-1.7729138836	-3.0866644086	-0.0243048657	-0.405275
C	-0.6422900827	-2.0958945497	 0.0160807522	 0.327679
N	 0.6734748568	-2.1525041271	 0.0173374269	-0.34278
N	 1.024444488	-0.8261949827	 0.0413246549	-0.244341
H	 0.7870988037	 1.7769489325	-0.5634109423	 0.2499
H	-0.7205642887	 1.9176751791	 0.0857494047	 0.255408
H	-3.2949978295	-0.0131638485	 0.0161103207	 0.08856
H	-3.9970605817	-2.5176085907	-0.0415185767	 0.093114
H	-1.777517761	-3.766985752	 0.8369041004	 0.130566
H	-1.7491464106	-3.7210958035	-0.9194660604	 0.13069
H	 1.9943714929	-0.5811969427	 0.1433375873	 0.264302
