20
gdb 110890	2.52033	1.50917	1.13452	1.91	78.74	-0.2169	-0.0116	0.2053	1148.7795	0.172423	-403.132698	-403.124617	-403.123672	-403.165485	31.395	
C	-0.0720640697	 1.5835819936	 0.0015709975	-0.384996
C	-0.0446970456	 0.0528879588	-0.0212944888	-0.20613
C	 0.7733661438	-0.506322939	-1.1823530952	-0.066953
N	 2.2498688243	-0.2480280303	-1.1083141812	-0.1328
C	 2.7257020451	-1.1442523605	-2.2371452095	-0.18981
C	 2.2657205538	-2.337858728	-1.3493539018	-0.146718
C	 2.7038726712	-1.382348258	-0.2011618963	-0.195563
C	 0.769549367	-2.0515779533	-1.312282472	 0.427861
O	-0.1655097076	-2.8051150632	-1.3493315844	-0.341447
H	 0.9420813507	 1.987213441	 0.0650692844	 0.13602
H	-0.5329955329	 1.9821841382	-0.9089768985	 0.113981
H	-0.6461242608	 1.9536454381	 0.8563491664	 0.111888
H	 0.3449067084	-0.3257968477	 0.9310672139	 0.099913
H	-1.058914943	-0.3522132968	-0.1144765525	 0.121434
H	 0.4002155208	-0.0672196643	-2.1166097885	 0.098196
H	 2.2387896856	-0.9770453422	-3.2020459955	 0.113311
H	 3.8109196801	-1.0778578453	-2.3427902297	 0.118005
H	 2.5820283487	-3.3732403126	-1.4631600697	 0.086693
H	 3.786474782	-1.3382822368	-0.0645456009	 0.119871
H	 2.2070627581	-1.4476571716	 0.7691721323	 0.117243
