21
gdb 85827	2.43815	1.29464	1.08992	4.7158	83.68	-0.2216	0.0393	0.2609	1236.1032	0.181273	-383.266827	-383.256964	-383.25602	-383.301015	36.713	
C	-0.2053349339	 1.5498867908	 0.0710655692	-0.423736
C	 0.0392403748	 0.0444940222	-0.0140618225	 0.01292
N	 1.1744063412	-0.4099199721	-0.8491566153	-0.058814
C	 1.6405878406	 0.3448327644	-1.9885060476	-0.330909
C	 2.0443893734	-0.5952625545	 0.3121904267	-0.200968
C	 0.7784139918	-0.6020670842	 1.2268150157	 0.104361
C	 0.8547293195	 0.1628124091	 2.5496877079	-0.460057
C	 0.2944154371	-1.9598890162	 1.464904284	 0.275832
N	-0.0977178917	-3.0264084968	 1.6793914811	-0.349653
H	 0.6987520366	 2.1137061298	 0.3188913383	 0.122231
H	-0.5776845006	 1.9227961756	-0.8881964505	 0.127761
H	-0.9649745189	 1.7715411443	 0.8271320215	 0.127295
H	-0.8997492983	-0.4557831549	-0.2777835581	 0.095527
H	 1.9867221029	 1.3661004016	-1.7469048883	 0.093885
H	 2.4767866883	-0.1885350373	-2.453211643	 0.128084
H	 0.8436761747	 0.4218918883	-2.7353900657	 0.126356
H	 2.6599347592	-1.5002912831	 0.2956606797	 0.120788
H	 2.6883369258	 0.2701554975	 0.5456062642	 0.085575
H	 1.2262016708	 1.1774090191	 2.3926510516	 0.125165
H	-0.1261585425	 0.2212576279	 3.0299768841	 0.138767
H	 1.5343546291	-0.3455630414	 3.239898027	 0.139591
