17
gdb 105864	2.22449	1.54952	1.23263	4.667	69.42	-0.2466	-0.0162	0.2304	1074.6478	0.134772	-458.939908	-458.931243	-458.930299	-458.973467	32.218	
O	 0.0016345362	 1.5006468308	 0.1726640028	-0.414137
C	 0.0619735642	 0.1018762124	-0.0393939053	-0.179698
C	-1.3183997716	-0.5006382958	 0.0409098582	 0.167933
C	-1.935006212	-1.1575455607	 1.241892462	 0.064679
O	-3.1060464046	-0.6236754175	 1.7857095535	-0.415094
C	-1.9275301236	-1.9595611246	-0.0161897431	-0.195726
C	-3.0644066321	-1.4873014888	-0.9416513371	-0.348379
C	-2.3917850151	-0.1001064595	-0.923189494	 0.393518
O	-2.4970567137	 0.8858665091	-1.60479966	-0.339477
H	-0.6238667767	 1.849765571	-0.4758776388	 0.299583
H	 0.510186533	-0.1352973654	-1.017772341	 0.095126
H	 0.7204754285	-0.3112875069	 0.7320028351	 0.108244
H	-1.1869317367	-1.4536643768	 1.9797587659	 0.10193
H	-3.5525273609	-1.319579283	 2.2808314322	 0.291443
H	-1.3799119849	-2.8872310748	-0.1256908912	 0.109769
H	-3.0340719849	-1.9171190285	-1.9463081332	 0.132919
H	-4.0779037951	-1.5535417109	-0.5412170659	 0.127367
