18
gdb 126983	3.20755	1.08689	0.82435	3.2562	76.4	-0.2134	0.0034	0.2168	1394.5321	0.147438	-435.270628	-435.261306	-435.260362	-435.305856	32.515	
C	-0.0211332688	 1.4888761208	 0.0413978046	-0.391774
C	 0.0173752182	-0.0271179037	 0.0186175355	-0.043081
O	-1.3401809037	-0.491654804	 0.0196708785	-0.285734
C	-1.5069007227	-1.8246611475	 0.000839264	 0.340487
C	-2.723771675	-2.4799816118	-0.0012313146	 0.21546
C	-4.1275576795	-1.9846137217	 0.0148865337	-0.513156
N	-2.3388231717	-3.7849507866	-0.023274098	-0.221869
N	-1.0068020855	-3.9321735419	-0.0335743806	-0.139156
N	-0.4943491085	-2.7255904889	-0.0189470597	-0.283793
H	 0.9977909658	 1.887022283	 0.0413396191	 0.12117
H	-0.5445789602	 1.877998896	-0.8366446844	 0.126655
H	-0.5341719778	 1.851624087	 0.936705677	 0.126645
H	 0.5305235326	-0.4065562872	-0.8726440349	 0.118864
H	 0.5408846536	-0.432813455	 0.8921166391	 0.118838
H	-4.6876431357	-2.2976433707	-0.8739669105	 0.137245
H	-4.6793830264	-2.3322228699	 0.8959896653	 0.137096
H	-4.1173774986	-0.8928266069	 0.0360861855	 0.158561
H	-2.920508216	-4.6078288709	-0.0318861498	 0.277543
