19
gdb 107268	3.32057	1.38852	1.27243	0.3294	73.52	-0.2358	0.0726	0.3084	1075.3258	0.159584	-422.969264	-422.961622	-422.960678	-423.001479	30.343	
C	 0.2132328469	 1.4997830231	-0.1594637836	-0.383407
C	-0.1018378073	 0.021947255	 0.1088921298	-0.296478
C	 0.5943667838	-0.5060443496	 1.3287717332	 0.451626
O	 2.0106001732	-0.7758565422	 1.238145299	-0.294695
C	 1.1137720163	-1.8512736817	 1.5715263176	-0.057775
C	 0.7927734146	-1.9850843886	 3.0815964064	 0.031949
C	 1.2798990762	-0.6475479471	 3.6817416242	-0.226301
C	 0.11725115	-0.1830723856	 2.7788291134	-0.015869
O	-0.5776514001	-1.440355119	 3.1087968024	-0.302851
H	 1.2880499838	 1.644741653	-0.3033860387	 0.134545
H	-0.3015653023	 1.8509378673	-1.0582950329	 0.116562
H	-0.1027934598	 2.1355661256	 0.6744511684	 0.117208
H	-1.1815522884	-0.119350329	 0.2422644805	 0.115638
H	 0.1961908592	-0.5831705601	-0.7540011991	 0.109044
H	 1.0657867947	-2.6831614044	 0.877283264	 0.106379
H	 0.89437847	-2.9550335568	 3.5660041922	 0.082849
H	 1.0101227134	-0.5730126096	 4.7343896659	 0.110457
H	 2.2910177585	-0.3020004302	 3.4779928209	 0.122856
H	-0.4811885628	 0.71043686	 2.9529586363	 0.078263
