17
gdb 85016	2.37868	1.61673	1.04896	4.9593	70.83	-0.2419	-0.0342	0.2077	1126.3898	0.135392	-455.174247	-455.16542	-455.164476	-455.207911	32.802	
C	-0.2116786228	 1.5493262227	-0.0701706738	-0.397474
C	 0.0316580458	 0.0458800643	 0.0391640211	-0.076388
N	 0.7322107539	-0.5376194627	-1.1073955621	-0.346039
C	 1.9075540698	-1.1740142516	-0.7958490365	 0.346238
N	 2.902826647	-1.5409504976	-1.4994052208	-0.570026
C	 1.9094892923	-1.4144616181	 0.7057703803	 0.003547
O	 3.1776459387	-1.4500940602	 1.2709627893	-0.422916
C	 0.9812284284	-0.3053674451	 1.2088036272	 0.361983
O	 0.9767925978	 0.2261840129	 2.2823288014	-0.292613
H	 0.7252714425	 2.0829329765	-0.2549975021	 0.132545
H	-0.911963723	 1.7773751215	-0.8796478386	 0.118808
H	-0.6349835403	 1.9142720866	 0.8686646953	 0.153039
H	-0.927815081	-0.4648372018	 0.2106723428	 0.115217
H	 0.5609113974	-0.1967542273	-2.0408156438	 0.245281
H	 2.8187409653	-1.2894157861	-2.4839611352	 0.211231
H	 1.3537987011	-2.357806721	 0.8845958865	 0.117218
H	 3.7757554069	-1.6201335931	 0.5250660588	 0.300348
