16
gdb 105851	2.14294	1.62342	1.22216	2.8924	65.11	-0.2381	-0.0077	0.2304	1068.3266	0.123179	-474.994217	-474.98567	-474.984726	-475.027567	31.397	
C	 0.1791747517	 1.4158148984	-0.2917147365	-0.335806
N	-0.1371394499	 0.0267929391	 0.0575500088	-0.3823
C	 0.5480848656	-0.4794558067	 1.1745735568	 0.082871
C	 2.0282204207	-0.9563564388	 1.0629265669	 0.106446
O	 3.0767556309	-0.5035230622	 1.8369492214	-0.419101
C	 1.0057248276	-1.9008116258	 1.5513499366	-0.051183
O	 0.7925697883	-1.619191061	 2.961789433	-0.291826
C	 0.228272916	-0.367037423	 2.6455112783	 0.408709
O	-0.330600694	 0.368760385	 3.3885699949	-0.320842
H	 1.2464092225	 1.4946403337	-0.5188059731	 0.13703
H	-0.3794674721	 1.6904219394	-1.1904269173	 0.124503
H	-0.0554419229	 2.1377616972	 0.5033239955	 0.128737
H	-1.1386988536	-0.1004943694	 0.1518331223	 0.234085
H	 2.3074527375	-1.0552967837	 0.0175559424	 0.136595
H	 2.8994573878	-0.7691674788	 2.7492076229	 0.30522
H	 0.6987334737	-2.8716922735	 1.1876362571	 0.136863
