21
gdb 77816	2.22353	1.4558	1.28753	3.3506	83.01	-0.2309	-0.008	0.2229	1144.0365	0.182415	-387.123816	-387.114832	-387.113888	-387.157162	34.558	
C	-0.1958990717	 1.4934098294	-0.1278430127	-0.428282
C	 0.0629106212	 0.0059950593	-0.0046197532	-0.044768
C	 1.3945669765	-0.6931107906	-0.3085047867	-0.216694
C	 2.6452767862	 0.1213785857	-0.3010421341	 0.416628
O	 3.4654393033	 0.1677791086	-1.1856628617	-0.33381
C	 2.7746714345	 0.8290096522	 1.0578464683	-0.339513
C	 1.7105002175	 0.1976302641	 1.9801866037	-0.287034
C	 0.8036229603	-0.6819050856	 1.1009515171	 0.314835
C	 0.2245843145	-1.9237766401	 1.7376498329	-0.480284
H	-0.3101722778	 1.7796226183	-1.1785711454	 0.130038
H	-1.1250616474	 1.7572216957	 0.3895373992	 0.121581
H	 0.5980110007	 2.1104031584	 0.2963260506	 0.123301
H	-0.768474658	-0.5843557782	-0.38627004	 0.09238
H	 1.3731858472	-1.5576608053	-0.9619098168	 0.098462
H	 3.7947946858	 0.6894626652	 1.4255200412	 0.130434
H	 2.6484625138	 1.9072138447	 0.914676469	 0.132299
H	 2.1921492897	-0.4398507828	 2.728375574	 0.107595
H	 1.132109137	 0.9458561958	 2.53255533	 0.104597
H	-0.4341836169	-1.6640896036	 2.5751630786	 0.120732
H	-0.3657236995	-2.5028704167	 1.0206164492	 0.118021
H	 1.0147460333	-2.5754173046	 2.1278380667	 0.119481
