21
gdb 95835	2.8432	1.24371	0.98074	0.8814	75.1	-0.2455	0.0715	0.317	1259.5096	0.182557	-461.366142	-461.35708	-461.356136	-461.399533	34.897	
C	 0.7358217649	 1.3827401493	 0.1513795838	-0.400443
C	-0.1620782439	 0.1902493717	-0.144477474	 0.190387
O	 0.3740827788	-0.4666924626	-1.2609801449	-0.245061
C	-0.2735782132	-1.6847951429	-1.623148285	-0.0933
C	 0.4364965764	-2.8875212853	-1.0024673914	-0.186912
C	 0.3495521202	-2.9530089421	 0.5213379469	 0.112738
O	 1.2435194397	-3.9805657177	 0.9330733865	-0.433251
C	 0.7047952779	-1.6192904557	 1.1996826898	-0.112453
O	-0.3232512933	-0.6647380477	 0.9762170752	-0.259861
H	 1.752233171	 1.0528176166	 0.3835096867	 0.124861
H	 0.7802699455	 2.0430834905	-0.7184852527	 0.12605
H	 0.3390816651	 1.9386795046	 1.0040120399	 0.123234
H	-1.1907450073	 0.5253272732	-0.3542162213	 0.073623
H	-1.3351066799	-1.6547667822	-1.3410843091	 0.102559
H	-0.2180245567	-1.7492321425	-2.7146065605	 0.107607
H	 0.0286046398	-3.8129965862	-1.4246684039	 0.101086
H	 1.495816423	-2.8461489149	-1.2823245395	 0.11556
H	-0.6859744057	-3.1930267383	 0.8129352334	 0.070511
H	 1.129213408	-4.1155340313	 1.8793577225	 0.282872
H	 0.7596917253	-1.7692349854	 2.2852455205	 0.088124
H	 1.6863035843	-1.2705649412	 0.8581104772	 0.112069
