15
gdb 7741	3.47907	1.84997	1.24591	5.5395	67.64	-0.2185	-0.0265	0.192	923.2813	0.120032	-399.827422	-399.82019	-399.819246	-399.858753	27.487	
N	 0.0685267158	 1.3569351521	 0.1540622921	-0.556797
C	-0.0260846221	 0.004493571	-0.0103696748	 0.344627
C	-1.1928959943	-0.6840309561	-0.0704733538	-0.294896
C	-1.2022004349	-2.1349983342	-0.0587721391	 0.358812
O	-2.212404027	-2.8162948134	-0.0136367554	-0.356374
C	 0.1764029677	-2.8048153302	-0.0576082664	-0.193298
O	 1.1957766338	-1.9996891796	-0.6292522739	-0.235926
C	 1.293162585	-0.7386692741	-0.0255033544	-0.14971
H	 0.9066204516	 1.8244037662	-0.1525334854	 0.260598
H	-0.7746245241	 1.9046583016	 0.0802884948	 0.265254
H	-2.1541105311	-0.1783785691	-0.0720927468	 0.084863
H	 0.4301688349	-3.0791827106	 0.9818366787	 0.107376
H	 0.1246186777	-3.7222677139	-0.6464404556	 0.136284
H	 2.0370296164	-0.1731290111	-0.6000637981	 0.114333
H	 1.6693485807	-0.8132229784	 1.011914608	 0.114854
