18
gdb 77731	2.32074	1.97246	1.61277	0.8994	70.28	-0.2179	0.0558	0.2738	924.042	0.1492	-439.012038	-439.004628	-439.003684	-439.043501	29.862	
O	 0.1926511687	 1.234769973	 0.3324423597	-0.431239
C	 0.0338991519	-0.1300531131	 0.1518479685	 0.033987
C	-1.3781712448	-0.6899166514	 0.0183523483	 0.160537
C	-2.5328700435	 0.2608203183	-0.2332253205	-0.309809
C	-2.3413198499	 0.6348028879	-1.7360979469	-0.093682
O	-0.9312207495	 0.4299779861	-2.0429570968	-0.310085
C	-0.4777150817	-0.573265919	-1.1951999602	 0.254663
C	-0.5676783279	-2.0923699045	-1.3558094	-0.24514
N	-1.4472137227	-2.1507918793	-0.1388489976	-0.361804
H	 0.0860763826	 1.6402823528	-0.5398572334	 0.297205
H	 0.7834410333	-0.7237278119	 0.6754360853	 0.092069
H	-3.4935110086	-0.2287430147	-0.0630535411	 0.120634
H	-2.4675957942	 1.1483988358	 0.4015198456	 0.123745
H	-2.9432838756	-0.0181380534	-2.3808844617	 0.114123
H	-2.5758776073	 1.6754234147	-1.9754789257	 0.113987
H	-1.1047985838	-2.4111560134	-2.2555185561	 0.117551
H	 0.3802507454	-2.6414190374	-1.2954414688	 0.10385
H	-1.0541029423	-2.6715614105	 0.6408377814	 0.219407
