15
gdb 26616	2.36461	1.87358	1.04651	4.4725	74.64	-0.1778	-0.0097	0.1681	1058.4512	0.114769	-454.020336	-454.012493	-454.011549	-454.052194	30.817	
N	-0.0307908156	 1.3938040066	 0.1537755996	-0.585571
C	-0.0523139178	 0.0120226962	 0.0602197038	 0.087207
C	-1.2044701457	-0.7362452056	 0.0356882768	 0.318908
O	-2.3899150216	-0.0530473016	 0.0425949563	-0.449399
C	-1.1579582269	-2.1582576968	 0.0020091023	-0.27844
C	 0.0501726454	-2.7791447092	-0.0151656506	 0.013729
N	 1.1934657219	-2.0315904593	-0.0071716768	-0.376384
C	 1.2438983734	-0.638479126	 0.0153905722	 0.397816
O	 2.3152262699	-0.036984462	-0.0107126081	-0.426579
H	 0.8674385082	 1.7705154945	-0.1210768513	 0.261147
H	-0.8269508291	 1.8655328168	-0.2480146907	 0.253345
H	-3.119739439	-0.678051183	-0.0005799779	 0.298484
H	-2.0715022104	-2.7409072562	-0.0054461269	 0.094406
H	 0.1732006763	-3.8531565577	-0.0355301114	 0.131126
H	 2.0988162409	-2.4777186269	-0.0381505072	 0.260205
