19
gdb 70011	3.5827	1.40634	1.16977	1.4973	82.07	-0.2326	0.008	0.2406	1104.1524	0.159585	-385.842769	-385.835061	-385.834117	-385.874619	30.692	
C	-0.2704989863	 1.5198405053	 0.0524889966	-0.512092
C	 0.1841455596	 0.1008545592	-0.0173520876	 0.297893
O	-0.637221153	-0.9188148509	 0.6146755086	-0.273649
C	 0.7410873175	-0.8483470531	 0.9858129506	-0.078308
C	 1.6067003618	-1.5466093989	-0.1004155777	-0.062843
C	 1.4972335225	-2.9502401389	-0.7102822706	-0.251699
C	 1.4689062962	-2.6290512111	-2.2462482597	-0.237588
C	 0.7874116747	-1.2585580418	-2.3110671502	-0.230553
C	 0.8751905769	-0.6900497463	-1.114839725	 0.260804
H	 0.5508126039	 2.2014308835	-0.189687739	 0.129041
H	-1.081414932	 1.7023797753	-0.6613673907	 0.134455
H	-0.6398145047	 1.7506579743	 1.0549242866	 0.135834
H	 0.9621418522	-0.6993877648	 2.0375280348	 0.096479
H	 2.6491966398	-1.2209994085	 0.0239287977	 0.079172
H	 2.3026955592	-3.6361417501	-0.4333844805	 0.090741
H	 0.5415202664	-3.4020062951	-0.4256401658	 0.115729
H	 2.484341138	-2.6069021778	-2.6680270103	 0.104233
H	 0.9150934256	-3.3827959567	-2.8167908442	 0.105509
H	 0.2633996117	-0.8993482935	-3.1889838738	 0.096844
