14
gdb 5369	5.36553	1.59702	1.24009	2.475	70.47	-0.2281	-0.0277	0.2004	929.6873	0.10849	-378.743227	-378.73629	-378.735346	-378.774697	25.103	
C	 0.0624757832	 1.4351586577	 0.0932726481	-0.330368
N	 0.1141914881	-0.0122914201	 0.0556279412	-0.308194
C	 0.5186949157	-0.6114852412	-0.994769642	 0.359523
C	 0.5747520489	-2.0707083296	-1.0425387146	-0.186215
C	 0.9998524992	-2.6874576399	-2.1464435115	 0.053056
O	 1.3956553226	-1.9963468112	-3.2641856777	-0.194564
C	 1.3250935677	-0.6413598064	-3.1703192824	 0.12937
N	 0.9407751878	 0.0500761549	-2.1817848354	-0.311906
H	 0.6830743932	 1.7889437386	 0.9260049564	 0.121902
H	 0.3880372356	 1.9270372622	-0.8291958561	 0.127128
H	-0.9646652214	 1.7457020391	 0.321766922	 0.121861
H	 0.2675598878	-2.6365562153	-0.1728879589	 0.128128
H	 1.0820119196	-3.755961926	-2.2922985681	 0.145343
H	 1.6573394519	-0.186776043	-4.1000425208	 0.144936
