16
gdb 25496	4.23367	0.99035	0.86163	1.0249	78.92	-0.2517	-0.0388	0.2129	1299.1766	0.125644	-400.816166	-400.80837	-400.807426	-400.850285	28.012	
O	-0.6369686912	 1.1035551723	 0.9312884612	-0.233317
C	 0.0090224587	 1.1087990494	-0.0829478741	 0.163817
C	 1.3840305756	 1.7468098889	-0.226116643	-0.383938
C	 1.354944953	 2.8502172416	-1.2605908528	 0.236886
C	 1.9319113464	 2.6859811092	-2.5222859625	-0.062598
N	 1.9194096727	 3.6105385371	-3.4838781428	-0.259246
C	 1.3115446595	 4.7673376585	-3.2124701613	 0.005277
C	 0.7020034463	 5.0444592995	-1.9907125383	-0.110688
C	 0.7223186733	 4.0689545882	-1.0026151296	-0.147354
H	-0.3781009418	 0.6494631103	-1.0205119538	 0.085416
H	 1.6894673525	 2.1179055559	 0.7560614578	 0.132606
H	 2.0882827466	 0.9662178887	-0.5401868342	 0.127403
H	 2.4393250702	 1.7530979214	-2.7640276972	 0.105053
H	 1.3123490742	 5.5085683488	-4.0079866947	 0.113408
H	 0.2232509195	 6.0025551822	-1.8215776347	 0.10806
H	 0.2541712346	 4.2460753079	-0.03874971	 0.119215
