18
gdb 54127	2.78069	1.29742	1.08253	0.8682	73.63	-0.2515	-0.0297	0.2218	1165.895	0.144735	-439.113373	-439.104005	-439.103061	-439.148198	34.154	
C	 0.2539144337	 1.3441090997	 0.3806133149	-0.484413
C	-0.0499831213	 0.1360427119	-0.4760104834	 0.338678
O	 0.6115290866	-0.1734792214	-1.4396237967	-0.303389
C	-1.2405517177	-0.7436702184	-0.0717322763	 0.296866
C	-2.048234707	-1.1999823231	-1.2701787986	-0.442146
C	-0.8677083364	-1.8284888895	 0.9816471161	-0.400562
C	-1.7870490811	-1.0443027182	 1.8897736481	 0.427948
N	-2.1663783944	-1.1625762466	 3.0774051588	-0.537898
O	-2.0921182449	-0.0884877389	 0.9392453633	-0.280985
H	 1.1469925003	 1.8402250164	 0.0001375934	 0.142561
H	-0.5978832537	 2.0315755051	 0.3737083937	 0.157517
H	 0.4014759387	 1.0537250435	 1.4265662456	 0.149291
H	-1.3854724169	-1.6883145027	-1.98753549	 0.154067
H	-2.8337040125	-1.8950988837	-0.9625268898	 0.125038
H	-2.5165349162	-0.3434198323	-1.7640278553	 0.134842
H	-1.2027522304	-2.8379275869	 0.7384923917	 0.146406
H	 0.1764464815	-1.8601331319	 1.2976961927	 0.145655
H	-2.8065605983	-0.4119079828	 3.3420522114	 0.230522
