19
gdb 113728	3.49849	0.85742	0.75766	4.3062	77.17	-0.2666	0.0093	0.2759	1528.3203	0.158097	-419.1884	-419.178379	-419.177434	-419.224501	35.435	
C	-0.3716242004	 1.559170326	 0.3169917675	-0.385327
C	 0.1974130624	 0.2071491438	-0.1277952509	-0.179477
C	 0.9548899514	-0.4771553519	 0.9883031875	-0.002084
N	 0.1724475293	-1.2299956082	 1.9835983493	-0.329181
C	 1.1296830984	-1.9470970816	 1.1334791969	-0.068597
C	 0.5372012791	-2.9461236192	 0.1512533901	-0.009251
O	 1.2848137155	-3.0549993753	-1.0463369093	-0.40998
C	 0.3855130602	-4.2648614096	 0.8047154027	 0.256326
N	 0.3188213666	-5.2979367254	 1.318264107	-0.317371
H	 0.4252946707	 2.2403666401	 0.6359238194	 0.112897
H	-0.9172983644	 2.0441469731	-0.4974952774	 0.11748
H	-1.0598933322	 1.4298771456	 1.1579551988	 0.13092
H	-0.6199150583	-0.4354215828	-0.4686184034	 0.106272
H	 0.8720305057	 0.3411595577	-0.9820722684	 0.109187
H	 1.7896925421	 0.1101968853	 1.3732650768	 0.088118
H	 0.53825291	-1.1123417972	 2.9235891675	 0.24132
H	 2.0607191112	-2.2869606064	 1.5868152951	 0.094924
H	-0.4577256209	-2.6038751811	-0.1429010752	 0.149054
H	 2.1554188036	-3.4091807929	-0.8315276139	 0.294771
