21
gdb 113537	3.05183	1.03177	0.93046	2.1389	78.83	-0.2578	0.0648	0.3226	1362.3372	0.18108	-424.196541	-424.186968	-424.186024	-424.231508	35.445	
C	-0.2983880897	 1.3907436791	 0.3394174198	-0.388904
C	 0.0396567547	-0.0453091608	-0.0535158868	-0.087813
C	 1.3605762228	-0.21463309	-0.8730347353	-0.230937
C	 2.0826779139	-0.7582286607	 0.3973372208	-0.320774
C	 0.7117792637	-0.8602747035	 1.0678858228	 0.453395
O	 0.4896495684	-0.6514595414	 2.4558106625	-0.303723
C	 0.174872009	-1.9456918726	 1.8941762185	-0.079367
C	-1.2879190473	-2.3041764269	 1.9474534709	-0.079693
O	-1.7044188822	-2.5593604735	 3.2786428259	-0.41829
H	 0.5700350399	 1.8996333175	 0.7712716197	 0.119458
H	-0.6255336644	 1.9633294358	-0.5344710936	 0.113819
H	-1.0974279363	 1.4155822954	 1.0863273716	 0.124176
H	-0.8362933392	-0.5229917549	-0.5034971563	 0.074326
H	 1.2769710201	-0.9607338487	-1.666088036	 0.105267
H	 1.7688260979	 0.7041020789	-1.299752437	 0.103295
H	 2.6539461231	-1.6836346621	 0.2933724988	 0.107143
H	 2.7149399416	-0.0107155407	 0.884325871	 0.118555
H	 0.8555892266	-2.7357851504	 2.2167661266	 0.096156
H	-1.8821361742	-1.5008903278	 1.487114917	 0.091193
H	-1.4722590147	-3.2255878301	 1.383856619	 0.109885
H	-1.4671165638	-1.7786062826	 3.79231766	 0.292834
