17
gdb 124754	2.63971	1.27773	1.01471	4.6612	71.64	-0.2133	0.0142	0.2275	1199.0008	0.135427	-455.137366	-455.128358	-455.127414	-455.171876	33.128	
C	 0.0492150026	 1.6048179803	 0.2320153901	-0.403744
C	 0.0031650846	 0.0932299798	-0.0304298481	-0.007451
O	 0.7230526753	-0.6232209873	 0.9716417048	-0.433974
C	-1.3905595377	-0.4496159234	-0.0363139482	 0.118701
C	-2.2088153049	-0.7348401298	-1.0973849653	 0.367744
N	-2.0652484403	-0.5894853045	-2.4587115412	-0.596542
O	-3.395910936	-1.1856309536	-0.6753294452	-0.217073
N	-3.394907494	-1.2238818563	 0.7398751725	-0.165338
C	-2.2091292221	-0.7855978727	 1.0753974534	-0.02153
H	 1.0833559012	 1.9712413962	 0.2247342806	 0.103513
H	-0.5058567616	 2.1486730896	-0.5380422536	 0.127602
H	-0.3951431413	 1.8328167683	 1.2052816374	 0.130826
H	 0.4575500083	-0.0931572158	-1.0211727522	 0.050247
H	 1.5695536328	-0.1818523655	 1.0972874146	 0.282398
H	-1.1096936968	-0.6395031483	-2.7826443652	 0.262725
H	-2.6828459121	-1.1834813245	-2.9953496724	 0.267619
H	-1.9481016082	-0.7313427127	 2.123021858	 0.134276
