19
gdb 77176	3.36975	1.02505	0.83411	2.374	76.92	-0.2456	-0.0255	0.2201	1372.1037	0.157705	-423.013618	-423.004541	-423.003597	-423.047978	33.514	
O	 0.4124972833	 0.7572620446	 0.7909497745	-0.435205
C	 0.1903688921	-0.333014151	-0.0491677235	 0.055188
C	-1.2503856354	-0.9377729553	-0.2615880381	-0.031862
C	-0.9173943888	-1.1219917278	-1.7830737683	-0.366093
C	 0.1923261925	-0.092131503	-1.5571323414	 0.333432
O	 0.6534831036	 0.8084755292	-2.2033922772	-0.309744
C	-1.6345620146	-2.1433472594	 0.5481961858	 0.010208
C	-2.2887818448	-1.9779459121	 1.897414595	-0.266767
C	-3.085162987	-2.5169587679	 0.7354946092	-0.276307
H	 0.5253599962	 1.5309385788	 0.2241413712	 0.295852
H	 0.8720824792	-1.1551372494	 0.2162090125	 0.102085
H	-1.9855130776	-0.1354111005	-0.1396252229	 0.084478
H	-0.5216034506	-2.1199503789	-1.9983156347	 0.128957
H	-1.6759562131	-0.8674276692	-2.5245080354	 0.133223
H	-0.9382278952	-2.9746267837	 0.4558456266	 0.079146
H	-2.0075614859	-2.6600632724	 2.6917456961	 0.115303
H	-2.4989405003	-0.9684728069	 2.2343896177	 0.121322
H	-3.8346988497	-1.8703075817	 0.2909073679	 0.112491
H	-3.350398044	-3.5683093434	 0.7337048149	 0.114294
