16
gdb 9743	4.05822	1.49944	1.45229	1.4655	61.66	-0.2637	-0.04	0.2237	908.8094	0.13016	-420.887735	-420.880179	-420.879235	-420.920217	27.807	
O	 0.0357087682	 1.4754662111	-0.0975619541	-0.475864
C	-0.0047587828	 0.0735034824	-0.0501903179	 0.296001
C	-1.4541607366	-0.4921679074	-0.1080692626	-0.274263
C	-1.57943321	-0.9639319934	-1.5625087136	-0.087603
O	-0.2882572134	-1.4660904913	-1.8764818463	-0.236847
C	 0.6395402512	-0.5483131745	-1.3399680434	-0.138969
C	 0.7140993802	-0.4087003814	 1.1905709656	 0.105964
O	 1.2108817399	 0.3527647121	 1.9849248377	-0.277231
H	 0.4877537711	 1.7521239631	 0.7160361397	 0.29288
H	-1.5732210768	-1.346319645	 0.566868156	 0.108102
H	-2.1626667298	 0.28625884	 0.1779395926	 0.127915
H	-2.3003325491	-1.770630657	-1.7121564944	 0.115501
H	-1.8451742261	-0.1226506401	-2.2214056856	 0.106288
H	 0.8308785255	 0.2968255365	-2.0159952844	 0.120203
H	 1.5788119397	-1.0822332722	-1.1637572325	 0.112343
H	 0.7617336789	-1.5089375929	 1.3231805433	 0.10558
