22
gdb 39496	2.32585	1.67965	1.16584	1.0019	82.	-0.2169	0.0866	0.3035	1127.8139	0.196911	-404.306495	-404.298366	-404.297421	-404.338909	32.592	
C	 0.0235112078	 1.4883626464	-0.0126794507	-0.25953
C	 1.2745754628	 0.6707377909	-0.0267920987	 0.021584
C	 2.251975616	 0.754380254	 1.1331517267	-0.229724
C	 2.9380691444	-0.572877511	 1.4909233347	-0.204362
C	 1.9668809594	-1.7254407969	 1.7535375445	-0.061518
O	 1.0269484513	-1.4828215405	 2.7873963924	-0.265648
C	-0.1040992174	-0.661538211	 2.5238185811	-0.065752
C	-0.6682731642	-0.7018504042	 1.0977257556	-0.18225
N	-0.0455876254	 0.0406618901	 0.0009497782	-0.077794
H	-0.1778587905	 2.0327581234	 0.9113923218	 0.100719
H	-0.3523230958	 1.9785257331	-0.9091011165	 0.10878
H	 1.7708255928	 0.5221844475	-0.9874772158	 0.08642
H	 3.019123777	 1.4880373509	 0.8547468667	 0.098842
H	 1.76240133	 1.1620057535	 2.0209002982	 0.107976
H	 3.6064442244	-0.881764019	 0.675129687	 0.093299
H	 3.5678166786	-0.4206964267	 2.3750140749	 0.101389
H	 1.4631195127	-2.0092071958	 0.820042202	 0.104677
H	 2.5304436901	-2.60331681	 2.0875476159	 0.103478
H	-0.8883379503	-1.0431399281	 3.1894452816	 0.104204
H	 0.0856138563	 0.3768211726	 2.8321326983	 0.088356
H	-0.7294181859	-1.7539189471	 0.7912742693	 0.118524
H	-1.7037830541	-0.345794192	 1.1557763429	 0.108331
