20
gdb 102781	1.7098	1.3398	0.84141	1.3611	78.27	-0.2456	-0.0249	0.2207	1422.4983	0.167146	-440.307223	-440.296376	-440.295432	-440.344952	37.125	
C	-1.1204651929	 1.3934045542	-0.0808470001	-0.400542
C	-0.6396776143	-0.056098552	 0.0034248282	-0.178406
C	 0.5964099669	-0.2284956446	 0.8941184645	 0.00578
O	 0.2532520495	 0.1450363109	 2.2299629975	-0.186873
C	 1.1731305697	 0.8104817125	 2.9589055218	 0.123864
N	 0.981266295	 1.0043436649	 4.1902687038	-0.442238
C	 1.1056684097	-1.6805984927	 0.8200292744	 0.35378
C	 0.9482350911	-2.5511351068	 2.0456898764	-0.477399
O	 1.5881307923	-2.0731005944	-0.2165024235	-0.300676
H	-0.3472508226	 2.0427412046	-0.5064797685	 0.115394
H	-2.0064290803	 1.4686486932	-0.717689055	 0.121692
H	-1.3808275637	 1.7784867889	 0.908558355	 0.139706
H	-1.4404510873	-0.6958589136	 0.3935715089	 0.113141
H	-0.374360809	-0.4395575536	-0.9862684612	 0.130099
H	 1.4044226577	 0.4159992634	 0.5204692785	 0.106083
H	 2.0379921348	 1.1454671714	 2.3688787949	 0.09326
H	 1.7506672557	 1.5438112075	 4.5814901938	 0.232514
H	 1.567619214	-2.1707473051	 2.8654588558	 0.155172
H	-0.083287167	-2.5200284641	 2.4102958864	 0.154952
H	 1.2422452705	-3.5727431546	 1.8035215383	 0.140699
