21
gdb 83827	2.71829	1.42466	1.13055	1.1877	83.29	-0.2279	0.0317	0.2596	1152.6648	0.184909	-387.081558	-387.073409	-387.072465	-387.113881	32.814	
O	 0.0708715595	 1.4581320562	-0.1313489361	-0.411971
C	 0.0075612778	 0.0672436459	 0.0177438137	 0.047455
C	-1.3608677458	-0.5395294748	 0.1501302615	-0.034065
C	-2.6184741984	 0.298864293	 0.0519726719	-0.230789
C	-3.7366160108	-0.4170750989	-0.7211590987	-0.239424
C	-3.4849024329	-0.6849260284	-2.1852213355	-0.026583
C	-2.3595330183	-0.5813249799	-2.8955828366	-0.057982
C	-0.980620635	-0.1685863237	-2.4188454507	-0.290774
C	-0.544783741	-0.7942128987	-1.103018437	-0.062582
H	 0.8292697275	 1.6632272945	-0.6884526658	 0.289013
H	 0.8052724535	-0.3522275717	 0.6308078123	 0.082413
H	-1.4353114242	-1.3746281805	 0.842750437	 0.078233
H	-2.9770022456	 0.535731433	 1.0611110401	 0.091717
H	-2.3936344916	 1.2579468789	-0.4210651247	 0.119958
H	-3.9720851643	-1.3716440925	-0.2244068439	 0.101913
H	-4.6603774952	 0.1733722911	-0.6414896738	 0.098248
H	-4.3750287623	-1.0058444581	-2.7260969122	 0.077978
H	-2.4282237654	-0.8041306027	-3.9588712673	 0.078575
H	-0.2500981185	-0.4320343286	-3.1925343965	 0.09348
H	-0.9313223198	 0.9241993542	-2.3328607374	 0.116509
H	-0.1124159992	-1.7866610383	-1.1972603305	 0.078677
