21
gdb 107405	3.10097	1.21425	1.09702	2.8249	77.62	-0.2537	0.0828	0.3365	1217.5845	0.182896	-424.235163	-424.226488	-424.225544	-424.268385	34.012	
C	-0.3666771658	 1.4597140256	 0.2193158561	-0.381939
C	 0.1790249449	 0.0528809622	-0.0588675802	-0.280509
C	 0.9562737927	-0.518563621	 1.0996551184	 0.424756
C	 2.2767310402	 0.0826204252	 1.5606374987	-0.310262
C	 2.7986842846	-0.9081139981	 2.6353258609	 0.124184
O	 2.3564784134	-0.5557885259	 3.9336432599	-0.441802
C	 2.2397976012	-2.2877299613	 2.1934027926	-0.270793
C	 0.9431751355	-1.9358124377	 1.4968803242	-0.017449
O	 0.1562341693	-0.9678950229	 2.2268237358	-0.318614
H	 0.4405504868	 2.1779289286	 0.3941738082	 0.120799
H	-0.9564475603	 1.8218132198	-0.627632443	 0.115267
H	-1.0102218267	 1.4534151068	 1.1040863895	 0.133897
H	-0.6508277624	-0.6243720305	-0.2881534048	 0.106375
H	 0.8300058978	 0.0708920517	-0.9424273602	 0.10114
H	 2.9615700368	 0.1442780568	 0.7053648004	 0.099856
H	 2.1768991682	 1.0846674294	 1.9864354426	 0.11643
H	 3.8900966831	-0.9104455633	 2.6852544417	 0.081756
H	 1.3906346536	-0.554972516	 3.8823018016	 0.284552
H	 2.9094825445	-2.7880980604	 1.482827253	 0.102178
H	 2.1095128614	-2.9442950789	 3.0581196714	 0.117572
H	 0.3617887713	-2.6850523199	 0.9646128632	 0.092608
