22
gdb 111680	2.41767	1.29425	1.13455	2.1115	80.94	-0.2255	0.062	0.2875	1218.5901	0.195654	-404.323395	-404.31434	-404.313396	-404.357148	34.695	
C	-0.5098266886	 1.5859038645	 0.4909540775	-0.406907
C	-0.1034373569	 0.132552672	 0.229972842	 0.0343
C	 0.5564691635	-0.1202716832	-1.1482355854	-0.255246
C	 1.6124932657	-1.224545406	-0.888000781	-0.163907
N	 1.8536904715	-1.3459233911	 0.5679120239	-0.128708
C	 2.330792354	-0.1180713797	 1.2497463288	-0.022739
C	 3.0412011339	 1.0260290505	 0.5623978821	-0.095056
O	 4.4298454788	 0.750091083	 0.4175656226	-0.423826
C	 0.8799390583	-0.4576743561	 1.2355737122	-0.068442
H	 0.3514788684	 2.2586894438	 0.4244909823	 0.120868
H	-1.254288208	 1.9224345	-0.2380985859	 0.11632
H	-0.947517357	 1.7014954142	 1.4879898614	 0.117267
H	-1.007857998	-0.4860120439	 0.2981182334	 0.080669
H	-0.1783851422	-0.4334047132	-1.8951305206	 0.101824
H	 1.0134146786	 0.7966316912	-1.5303920971	 0.108885
H	 1.2439173803	-2.1992542811	-1.2229178733	 0.111631
H	 2.5515402759	-1.0406309955	-1.4226880286	 0.095276
H	 2.8538743538	-0.3752690127	 2.1712614766	 0.09846
H	 2.5930049139	 1.2901608695	-0.4017269074	 0.09075
H	 2.9854004146	 1.9166505658	 1.1983357501	 0.114631
H	 4.5114318441	-0.1026371947	-0.0220555438	 0.287877
H	 0.4485670155	-0.8358876775	 2.1605691501	 0.086072
