19
gdb 95743	2.80795	1.15394	0.85794	1.5081	87.58	-0.2308	-0.0228	0.208	1337.6791	0.159399	-385.879201	-385.870448	-385.869504	-385.912423	33.981	
O	 0.1118480699	 1.420819899	 0.1664181679	-0.434028
C	 0.0335121844	 0.0015777438	 0.0514511095	 0.105776
C	-1.4125215016	-0.5065273857	 0.0687562501	-0.223094
C	-1.4620376193	-1.9987303967	-0.2753924166	-0.225524
C	-0.9189722931	-2.2570688596	-1.6874120985	-0.291375
C	 0.3543955035	-1.4758376376	-1.968385454	 0.134158
C	 0.7749620019	-0.4812660332	-1.1685141238	-0.186389
C	 1.0833052011	-1.8477211899	-3.1337813337	 0.225233
C	 1.6608761596	-2.201380438	-4.1307215722	-0.407535
H	-0.271181722	 1.795298205	-0.6351082645	 0.275767
H	 0.5514038742	-0.3612933793	 0.9508073385	 0.100879
H	-1.861421754	-0.3028563083	 1.0454331131	 0.103247
H	-1.9898778382	 0.0615122442	-0.6745711276	 0.08821
H	-0.8606562526	-2.5577229707	 0.4531779801	 0.106288
H	-2.4849496522	-2.3802398724	-0.1940150377	 0.099508
H	-0.7236839678	-3.324397177	-1.8383949948	 0.117327
H	-1.6701835956	-1.9848143607	-2.441958693	 0.117865
H	 1.6992133775	 0.0430026237	-1.3950539482	 0.099953
H	 2.1837060643	-2.4987688167	-5.0055971546	 0.193733
