20
gdb 47942	2.19139	1.74384	1.15702	3.591	74.72	-0.2497	0.0429	0.2926	1110.6059	0.17394	-440.335718	-440.327458	-440.326514	-440.368553	31.965	
O	-0.0681259619	 0.0042165743	-0.3173539873	-0.395688
C	-0.0439483486	 1.1771980817	-0.0313257134	 0.453887
N	-1.120290408	 1.9383132433	 0.3061456164	-0.32606
C	-1.1269386681	 3.3972698468	 0.2255925674	-0.154204
C	-0.9895150222	 3.9842399426	-1.1947262668	-0.187027
C	 0.4104826411	 4.0215178806	-1.8479564738	-0.177689
C	 1.0257374816	 2.6785764958	-2.2999831341	-0.217124
C	 1.8288028445	 1.9602106839	-1.2130736182	-0.079582
O	 1.0963791644	 1.9390002219	 0.0164111481	-0.252935
H	-2.0016248679	 1.4519669564	 0.2524999402	 0.25343
H	-2.0827811901	 3.7226903808	 0.6478229701	 0.105108
H	-0.339951785	 3.7909232913	 0.8741279837	 0.129857
H	-1.6877675632	 3.4581128993	-1.8597181648	 0.097289
H	-1.3476912584	 5.020513439	-1.1401966537	 0.099096
H	 0.3191512528	 4.6621206805	-2.7326821578	 0.098935
H	 1.109801324	 4.5356756651	-1.1755324899	 0.101271
H	 0.2360314903	 2.013031798	-2.6711575807	 0.115206
H	 1.700109376	 2.8484698284	-3.147778001	 0.098792
H	 2.088822257	 0.9396900448	-1.5131846891	 0.12681
H	 2.7475413716	 2.5058411056	-0.9810010054	 0.11063
