21
gdb 110975	2.37899	1.25613	1.08435	1.482	79.37	-0.2338	0.0677	0.3015	1263.9836	0.18017	-424.167876	-424.158253	-424.157309	-424.202068	36.224	
C	 0.1008588529	 1.5577368595	 0.1747114424	-0.380297
C	-0.1751872886	 0.0767935891	-0.1116010407	-0.220284
C	 0.6042798601	-0.4443576583	-1.3070656404	-0.005407
C	 2.093456403	-0.8411599059	-1.1318562435	-0.020075
O	 1.6865292715	-2.0271193423	-0.3516865969	-0.345825
C	 0.7451630768	-1.9892312966	-1.5087216384	 0.363374
C	-0.3078017244	-3.0462403855	-1.612660253	-0.524911
C	 1.9907650744	-1.7482569017	-2.3959258618	 0.081772
O	 1.7643026793	-1.2204391385	-3.6737410418	-0.431534
H	 1.1574417094	 1.7270205632	 0.4092482211	 0.114501
H	-0.1501618913	 2.1846940677	-0.6882980924	 0.112307
H	-0.4878588703	 1.9124350989	 1.0263466204	 0.112034
H	 0.0715456755	-0.5295626593	 0.7651195567	 0.113501
H	-1.2481739816	-0.0598424267	-0.3017026396	 0.091382
H	 0.3906945467	 0.1094091965	-2.2254760055	 0.083801
H	 2.9359297388	-0.2617588061	-0.7517539511	 0.083198
H	-1.0230462107	-2.9693706082	-0.7882675926	 0.132703
H	-0.8513157717	-2.9347607953	-2.5560929285	 0.135858
H	 0.1453003074	-4.0420542875	-1.5886336942	 0.132339
H	 2.6995380376	-2.5837884349	-2.3843558588	 0.080821
H	 2.6156204851	-1.034454958	-4.0814812613	 0.290742
