18
gdb 12356	2.77712	2.1652	1.49093	3.5533	74.	-0.2331	-0.0471	0.1859	899.8809	0.155166	-347.849595	-347.842055	-347.841111	-347.881292	28.817	
C	-0.2085180934	 1.5057116394	 0.074914741	-0.399908
C	 0.0284030372	-0.0144602413	-0.0229638101	-0.080535
C	 0.8038497842	-0.4275777558	-1.28589698	-0.232612
C	 2.2730370212	 0.0163054994	-1.2471561024	-0.257943
C	 2.9176601238	-0.299105689	 0.072137324	-0.036112
C	 2.2233889115	-0.5483161376	 1.1904859157	-0.145882
C	 0.7464621709	-0.4858552129	 1.2440633104	 0.377741
O	 0.1354243344	-0.7445016608	 2.2628182076	-0.34531
H	 0.7322660559	 2.0636548901	 0.1272118113	 0.120517
H	-0.765823387	 1.8637487293	-0.7967369658	 0.115513
H	-0.7860501656	 1.7401916182	 0.9729805332	 0.137463
H	-0.9496910903	-0.5065316268	-0.0186886136	 0.094394
H	 0.7764404527	-1.5205572605	-1.3729364666	 0.107696
H	 0.3091911747	-0.0274140718	-2.1780648495	 0.098394
H	 2.8370592684	-0.4624211269	-2.0563727031	 0.113125
H	 2.3620240459	 1.0966854403	-1.435653052	 0.123617
H	 4.0054827368	-0.3165650932	 0.1014421737	 0.105749
H	 2.7146493287	-0.7900956602	 2.1281191963	 0.104094
