18
gdb 30747	2.93084	1.27078	0.94324	1.9672	75.8	-0.1791	0.0546	0.2337	1242.9369	0.145917	-439.104714	-439.094727	-439.093783	-439.139734	35.363	
C	 0.2122649131	 0.9419640734	-0.4638746903	-0.247873
O	-0.4368395565	 0.2210402801	 0.5849230185	-0.269632
C	 0.3911942005	-0.5298680449	 1.3563541558	 0.296832
C	 0.765114839	-1.8514042066	 1.2334948173	 0.040985
C	 0.3713749786	-2.8071282201	 0.1510198842	-0.53972
C	 1.598858924	-2.1191364054	 2.3650336771	 0.250899
O	 2.2081914747	-3.3058033789	 2.664555852	-0.451114
C	 1.7053494877	-0.9811984685	 3.1245765812	-0.186265
N	 0.9668398646	-0.0010146418	 2.4794243361	-0.31001
H	 0.7218283499	 0.2603000029	-1.1551239593	 0.12305
H	-0.5683845731	 1.4882150071	-0.9977341659	 0.12988
H	 0.9455338813	 1.6532193505	-0.0633163456	 0.115316
H	 1.219473367	-3.1108964286	-0.4773311997	 0.119577
H	-0.0767680651	-3.7247335651	 0.5554050802	 0.11981
H	-0.3756507767	-2.3500453963	-0.5036354537	 0.135855
H	 1.9653317928	-3.9473851545	 1.9908142958	 0.294076
H	 2.2337470836	-0.7898290192	 4.0420157907	 0.118123
H	 0.7526219246	 0.9093404261	 2.8456706755	 0.260211
