15
gdb 133134	2.29991	1.86391	1.03621	4.5069	75.95	-0.206	-0.0319	0.1741	1076.8409	0.113153	-458.099028	-458.090989	-458.090045	-458.131769	29.723	
C	 0.0164235962	 1.4964510361	 0.0144916312	-0.502153
C	-0.0360753899	-0.0005420897	 0.0231030072	 0.250357
C	-1.1751532986	-0.7312413255	 0.0943892615	 0.168398
F	-2.3507928609	-0.1099644579	 0.1625915645	-0.057285
C	-1.1660576534	-2.1816950944	 0.0995346815	 0.177061
N	-2.2547769454	-2.8670670786	 0.1676321362	-0.556242
C	 0.2019978069	-2.7052052767	 0.0194111765	-0.059555
N	 1.2932903271	-2.009271558	-0.0489122171	-0.187212
N	 1.1619287298	-0.676307184	-0.0462942515	-0.295761
H	 0.593439061	 1.8752761701	 0.865784906	 0.144808
H	 0.4877968867	 1.8689132053	-0.9021434276	 0.144782
H	-0.992173036	 1.9037349489	 0.0733195172	 0.167018
H	-2.0377125868	-3.8661096612	 0.1585107467	 0.206603
H	 0.3378763452	-3.783772215	 0.0155085033	 0.124096
H	 2.0298081982	-0.1695052094	-0.1004228056	 0.275086
