12
gdb 124060	3.88757	1.67036	1.17698	4.0046	63.08	-0.238	-0.0554	0.1826	922.4622	0.078498	-468.781559	-468.774824	-468.77388	-468.813237	24.071	
C	-0.0119531364	 1.5091516536	 0.1213237473	-0.175923
O	 1.2594932148	 2.0288000333	-0.3347305559	-0.237225
C	 2.2610384274	 1.2182625072	-0.7576755538	 0.127813
N	 2.285252927	-0.0533114763	-0.8332029633	-0.335583
C	 1.1047437832	-0.6397609524	-0.4150890847	 0.240497
C	 0.0030321792	 0.0219857583	 0.0381135956	 0.341335
O	-0.9602582666	-0.7900169446	 0.3620327536	-0.259192
N	-0.3391433039	-2.1964969447	 0.0524918161	-0.023302
N	 0.7981893908	-1.9792299916	-0.3685763517	-0.139365
H	-0.1691037626	 1.8600923347	 1.1487341133	 0.155135
H	-0.7981337523	 1.946376101	-0.5065204743	 0.155133
H	 3.1160788694	 1.8184644016	-1.0513680021	 0.150678
