20
gdb 33409	1.97091	1.41565	0.88123	4.0736	83.05	-0.29	0.0361	0.3261	1339.7071	0.170954	-366.000321	-365.991196	-365.990252	-366.034954	33.769	
N	-0.2983955044	-1.0937446459	-0.0563094053	-0.329052
C	-0.1407339968	 0.0507958507	-0.0248327511	 0.288507
C	 0.0707682403	 1.5084220534	-0.0028038491	-0.207478
C	 1.5622280005	 1.8213741979	 0.0483990459	 0.039638
C	 2.0508107527	 3.064438263	 0.7450514751	-0.277639
C	 2.3239645929	 1.7055925161	 1.3416216726	-0.270449
C	-0.6277645791	 2.1578667796	-1.1924758753	 0.039626
C	-2.1153577528	 2.3876315556	-1.1737509099	-0.270451
C	-1.1689732233	 3.5591268322	-1.0792722569	-0.27764
H	-0.3945110751	 1.8818323532	 0.9196206313	 0.11263
H	 2.0944551043	 1.5277359596	-0.8517870583	 0.099501
H	 2.8731822159	 3.6107309466	 0.2973728395	 0.119693
H	 1.3187030937	 3.6954152266	 1.237680682	 0.114386
H	 1.7714391946	 1.421708571	 2.2313737777	 0.120291
H	 3.3342840107	 1.3149698059	 1.306308558	 0.122285
H	-0.1955995782	 1.8796333421	-2.1493680094	 0.099501
H	-2.6672535802	 2.237036347	-2.0942448982	 0.122284
H	-2.6607925377	 2.102621177	-0.2799930599	 0.120289
H	-1.0831629248	 4.0644202146	-0.123179577	 0.114385
H	-1.0676567432	 4.2162192339	-1.9354915816	 0.119693
