21
gdb 72159	2.56026	1.88314	1.77035	1.3048	79.89	-0.2459	0.0772	0.3231	924.7971	0.187491	-387.088623	-387.082046	-387.081102	-387.118977	29.422	
O	-0.0774067411	 1.3610045414	 0.0153214484	-0.512581
C	 0.0687389808	-0.0321645395	 0.0023567034	 0.435454
C	 0.8342202691	-0.7336780583	 1.1549718058	-0.27001
C	 0.257197622	-2.1225955365	 0.7962848172	-0.034088
C	-1.2170805629	-1.8098631594	 1.1521686883	-0.202696
C	-1.362731785	-0.7851459437	 0.0031568464	-0.060631
C	-1.2290537669	-1.7895585481	-1.1650789166	-0.202697
C	 0.2487975969	-2.1083442391	-0.8299770056	-0.034089
C	 0.8222106096	-0.713301779	-1.1702091289	-0.270048
H	 0.8014370627	 1.7552455608	 0.0133562327	 0.273508
H	 1.9183527431	-0.629607757	 1.052800806	 0.077165
H	 0.5465427658	-0.4077854394	 2.1570451018	 0.091654
H	 0.7203044977	-2.9951742554	 1.2559352172	 0.059589
H	-1.9143703785	-2.6449255706	 1.0501326696	 0.086232
H	-1.3173186926	-1.4036254001	 2.16121991	 0.089849
H	-2.2150935715	-0.107433349	 0.0134973844	 0.068895
H	-1.9253268461	-2.6263439292	-1.0704939746	 0.086236
H	-1.3396744454	-1.3657128664	-2.1657685829	 0.089845
H	 0.7070601403	-2.9726864022	-1.3096105812	 0.059591
H	 0.5242283872	-0.3699432523	-2.163401169	 0.091649
H	 1.9073500749	-0.6109364369	-1.0774251425	 0.077173
