23
gdb 58464	2.98353	0.99228	0.95768	2.216	81.76	-0.2489	0.0597	0.3086	1405.1607	0.203601	-425.424367	-425.414125	-425.413181	-425.459092	39.467	
C	 0.0780496976	 1.5358430781	-0.1318343848	-0.419026
C	 0.0343748363	 0.0253313271	 0.1257180053	 0.100706
O	 0.5963232057	-0.2970372617	 1.3895371136	-0.443709
C	-1.3799611405	-0.5548854763	 0.0440992044	 0.382335
O	-2.158397776	-0.0598959587	 1.1412774568	-0.496759
C	-2.1497825699	-0.5030208144	-1.3043038616	-0.300659
C	-2.6462614141	-1.9548634272	-1.0423289678	 0.052506
C	-2.671465427	-2.9348128355	-2.2040276664	-0.40888
C	-1.5301774033	-2.0956803026	 0.0333745314	-0.260116
H	 1.1049705969	 1.8971450583	-0.0371307666	 0.128921
H	-0.2873733274	 1.7863625186	-1.1336594827	 0.114292
H	-0.5277639571	 2.0782437773	 0.6036917599	 0.099457
H	 0.6578761173	-0.4791271284	-0.6229301321	 0.076252
H	-0.1132526742	-0.1469684212	 2.028597341	 0.281406
H	-2.3894154377	 0.8563294054	 0.9518945751	 0.28057
H	-2.9001736947	 0.285947784	-1.4133275357	 0.089675
H	-1.4651225611	-0.455990691	-2.1584539568	 0.097098
H	-3.6249951281	-1.9253410312	-0.5546195074	 0.080095
H	-1.6974386946	-2.9767890619	-2.705656971	 0.109324
H	-2.9127687991	-3.948061505	-1.863590522	 0.116228
H	-3.4193691906	-2.6489210937	-2.9523837579	 0.112981
H	-0.6340190518	-2.582952666	-0.3620538723	 0.099365
H	-1.7953647666	-2.5508181841	 0.9889943774	 0.107936
