19
gdb 93131	2.78066	1.24807	1.05093	3.5087	76.87	-0.2398	-0.0196	0.2202	1188.8719	0.159516	-423.04815	-423.03951	-423.038566	-423.08191	32.465	
O	 0.1214947723	 1.376503112	-0.1381712089	-0.441881
C	 0.0716255658	-0.0409521992	-0.0020051786	 0.093854
C	 0.7593412942	-0.5038408508	 1.2874631547	-0.285998
C	-0.0865803738	-0.1958786105	 2.4992921611	-0.067154
C	-1.392818222	 0.065298207	 2.4292555193	-0.05957
C	-2.1830446415	 0.0554582945	 1.1457399905	-0.284577
C	-1.3888522035	-0.5554898833	-0.0303663259	-0.074175
C	-2.0602090002	-0.2176009491	-1.3447144148	 0.138272
O	-2.6267316342	-1.0156999325	-2.0481080684	-0.254544
H	-0.0997359316	 1.7565813207	 0.7199360026	 0.287579
H	 0.6137511984	-0.4298172072	-0.8702177068	 0.095272
H	 0.9753507324	-1.579821565	 1.2356545107	 0.118588
H	 1.7311416309	-0.0013805094	 1.3620959466	 0.11614
H	 0.4136583972	-0.1841429188	 3.4642057731	 0.094618
H	-1.9461117975	 0.302137708	 3.3349532399	 0.094854
H	-3.1153677141	-0.5040722136	 1.2843631232	 0.126963
H	-2.4963006465	 1.0808251063	 0.8965432931	 0.116097
H	-1.3818538676	-1.6467271113	 0.0621548179	 0.093974
H	-1.9963982186	 0.8571706421	-1.6229360791	 0.091688
