21
gdb 61217	3.04735	0.92449	0.88267	3.15	82.74	-0.2547	0.0322	0.2869	1420.3398	0.181615	-383.269662	-383.259647	-383.258703	-383.304747	36.836	
C	 0.4194572331	 1.6958816869	-0.1220464311	-0.412505
C	 0.1254173382	 0.1985388782	 0.0398451821	-0.051061
C	 0.5243687182	-0.5978067275	-1.232273861	-0.356751
C	-0.2612113941	-0.215986284	-2.4028975079	 0.265559
N	-0.8976294386	 0.09851426	-3.3150731659	-0.31193
C	 0.7818446665	-0.4103408878	 1.2781544849	 0.355608
C	 2.2962689369	-0.3750058508	 1.3586807885	-0.463527
C	 0.000991195	-0.3730472792	 2.5418250684	-0.291436
N	 0.1891667087	-1.6496833467	 1.8229281683	-0.359596
H	 1.4854422208	 1.8791922337	-0.2915565566	 0.123767
H	-0.1286992367	 2.1088070373	-0.9735644763	 0.143623
H	 0.1213714349	 2.2462529997	 0.7748382219	 0.124766
H	-0.9588480667	 0.0786582726	 0.1633427061	 0.088011
H	 1.583964239	-0.441337169	-1.4630594877	 0.154163
H	 0.3937133079	-1.672273741	-1.0614701029	 0.155746
H	 2.6740738239	 0.652027231	 1.3796192911	 0.122272
H	 2.6273643484	-0.8819299478	 2.2676120627	 0.135206
H	 2.7602861265	-0.890999062	 0.5111105423	 0.119683
H	 0.5164161191	-0.305700575	 3.4960093795	 0.119672
H	-0.9822341503	 0.0909395139	 2.5278579992	 0.112334
H	-0.6670933607	-1.8809087326	 1.3227066346	 0.226396
