23
gdb 65503	3.34614	1.1565	1.12046	0.2374	89.09	-0.2474	0.0905	0.3379	1241.7822	0.206161	-351.112543	-351.103803	-351.102858	-351.145871	35.116	
C	 0.0609190347	 1.6357755717	-0.0812960822	-0.477276
C	 0.0572986701	 0.1093242872	-0.0414604377	 0.326343
C	 1.1678412956	-0.6142747015	-0.9006178932	-0.290047
C	 1.6876454627	-1.3043262621	 0.3656324628	-0.027962
C	 2.1368872358	-0.2780066995	 1.3645923177	-0.305815
C	 0.6660380153	-0.5519640101	 1.2197711941	-0.063234
C	-1.2999621857	-0.5183532003	-0.3248157446	 0.002141
C	-2.6137325285	 0.071275547	 0.1253313254	-0.287165
C	-2.2764880655	 0.0070452775	-1.3463953495	-0.292304
H	 1.0595923346	 2.0283227566	 0.1277406686	 0.113475
H	-0.2331667943	 2.0152278932	-1.065775088	 0.115101
H	-0.6177439202	 2.062531082	 0.664396872	 0.116009
H	 0.7370962322	-1.2960669424	-1.6372279175	 0.100512
H	 1.8863813879	 0.038147958	-1.4095150548	 0.086523
H	 1.9979962032	-2.3400853369	 0.4322033701	 0.079488
H	 2.5851214551	-0.6728567944	 2.2712264845	 0.108073
H	 2.5752836567	 0.6599045479	 1.0321892217	 0.101829
H	 0.0736776425	-0.9151172865	 2.0525928535	 0.077735
H	-1.256740637	-1.6039504008	-0.2637198028	 0.079123
H	-3.3704264966	-0.6016358587	 0.5140865044	 0.107374
H	-2.6141278578	 1.0489712183	 0.593686055	 0.111559
H	-2.0531082928	 0.9417095417	-1.8482702377	 0.110967
H	-2.8018159181	-0.7097491579	-1.9682161918	 0.107551
