18
gdb 15792	3.22239	1.41326	1.10597	3.769	70.47	-0.2451	0.0163	0.2614	1105.0555	0.153299	-381.090997	-381.08226	-381.081316	-381.12518	30.841	
C	 0.1513536481	 1.5441627564	-0.0541651398	-0.389483
C	-0.0063639015	 0.0245769682	-0.0219229898	 0.069348
O	 0.6308157136	-0.5551981196	-1.1701807864	-0.197954
C	-0.1038982506	-0.7094674993	-2.2889260285	 0.130111
N	 0.4408099679	-1.12065256	-3.3496359699	-0.44162
C	 0.6256993993	-0.5915994888	 1.2130357686	 0.018973
C	 1.0809602208	-1.9998670715	 1.2343194158	-0.248594
N	 2.0618046811	-0.8953606479	 1.2455912625	-0.321348
H	 1.2105705817	 1.8156344463	-0.0534499866	 0.142405
H	-0.3151157106	 1.966208287	-0.9492679613	 0.120654
H	-0.3225491177	 1.9935270894	 0.8238648939	 0.12487
H	-1.0749824541	-0.2367765268	-0.0385033057	 0.08922
H	-1.1648889646	-0.4580386653	-2.1515792817	 0.088453
H	-0.253894706	-1.2009780349	-4.0890612427	 0.231228
H	 0.2484434945	-0.1530784354	 2.135377376	 0.092745
H	 1.0223037282	-2.5721478199	 2.1556924083	 0.116697
H	 0.9778940222	-2.5782249632	 0.3215897337	 0.127339
H	 2.4347850677	-0.7948559049	 0.3032418434	 0.246954
