19
gdb 107135	2.85125	1.28122	1.13919	0.7708	74.87	-0.2267	0.0655	0.2921	1170.7535	0.156926	-422.947647	-422.938946	-422.938002	-422.980841	33.837	
C	-0.2036051866	 1.5091071609	 0.182382966	-0.382451
C	 0.1014624899	 0.0142647517	 0.0197347024	-0.30413
C	 0.7618195372	-0.3170043351	-1.2818052854	 0.440759
O	 1.5307005875	-1.5338468251	-1.3758497613	-0.290255
C	 2.1497767533	-0.2901093989	-1.7399644991	-0.148883
C	 1.6876932409	 0.1039192804	-3.1890642327	 0.360986
O	 2.2980731425	 1.1140190941	-3.9054304843	-0.454305
C	 0.75041239	-0.9176145711	-3.7683747855	-0.352014
C	 0.2525744332	 0.0624094479	-2.7183780434	-0.198472
H	 0.7122004253	 2.1062146764	 0.1316198845	 0.124045
H	-0.879502049	 1.8686131076	-0.5996802911	 0.12343
H	-0.6811362895	 1.7017025183	 1.1472915531	 0.118119
H	 0.7589727637	-0.3316304904	 0.8246728144	 0.114846
H	-0.827959316	-0.5650727046	 0.1032665268	 0.109232
H	 3.0780843374	-0.0123369791	-1.2522658899	 0.104022
H	 2.9818795225	 0.7194277771	-4.4590084922	 0.288403
H	 0.4154284934	-0.6732860163	-4.7719799888	 0.112573
H	 0.8468360925	-1.9721773376	-3.5427051529	 0.133464
H	-0.5405541682	 0.7707742936	-2.9157091803	 0.100631
