19
gdb 39964	4.72106	1.01281	0.98234	1.6931	75.86	-0.2413	0.0583	0.2996	1259.199	0.15831	-422.974061	-422.965931	-422.964987	-423.007469	31.093	
C	 0.1999989366	 1.5670175352	-0.0163848604	-0.260831
O	 1.2748469363	 0.6298804658	-0.1937075184	-0.27359
C	-0.0341507147	 0.1240309121	-0.0213626645	 0.456207
C	-0.4715498756	-0.7918359782	 1.12543406	-0.372363
C	-1.4782789978	-1.4504791028	 0.1418479342	 0.446969
C	-1.851385405	-2.9430008108	 0.1553532983	-0.361214
C	-3.2906999621	-2.4402918589	 0.3733611245	-0.070956
O	-2.8557454503	-1.0642092152	 0.3475218246	-0.317617
C	-0.779836294	-0.7343156963	-1.0472581779	-0.372369
H	 0.2075713993	 2.1118756144	 0.9269385705	 0.115816
H	-0.0509539458	 2.1601133142	-0.8950467335	 0.115816
H	 0.3276500725	-1.4753487116	 1.429789447	 0.112916
H	-0.9174597254	-0.328667198	 2.0083981333	 0.116937
H	-1.6730705423	-3.4711891721	-0.7834229804	 0.11298
H	-1.4224165843	-3.5180737816	 0.9783645086	 0.112972
H	-4.0015268366	-2.658875414	-0.4323445825	 0.104239
H	-3.7501912312	-2.7051662322	 1.3330181124	 0.104228
H	-1.4502147967	-0.2292812353	-1.7462006273	 0.116941
H	-0.1018071128	-1.3952273245	-1.5968177884	 0.11292
