21
gdb 84663	2.82876	1.39874	1.06804	0.1659	91.8	-0.2286	0.0216	0.2502	1205.5747	0.184777	-349.951016	-349.94286	-349.941915	-349.983929	32.599	
C	-0.9190872025	 1.2741806707	 0.1182705874	-0.385189
C	 0.0093034061	 0.0392650039	-0.0087016564	-0.096243
C	 0.5429506391	-0.0253698488	-1.4165067083	-0.045979
C	 1.7578091453	-0.2663915143	-1.9103151574	-0.091729
C	 3.0373788747	-0.5673026319	-1.2350694476	-0.068073
C	 3.8845372373	 0.5374484724	-0.6235583739	-0.282029
C	 3.2701175295	-0.5450117335	 0.2498637913	-0.068073
C	 2.2570579739	-0.2185739096	 1.2750232732	-0.091729
C	 0.9482877386	 0.0134528872	 1.1696504323	-0.045979
H	-0.3452580868	 2.2004535145	 0.0144238467	 0.123054
H	-1.691707679	 1.2634290226	-0.6566263201	 0.111913
H	-1.4175829873	 1.289687311	 1.0923264568	 0.111913
H	-0.6526448478	-0.8379457285	 0.1082163406	 0.099604
H	-0.2368190408	 0.167697276	-2.1532267513	 0.079012
H	 1.8454820375	-0.2452444414	-2.996584173	 0.081994
H	 3.6196245339	-1.3196286006	-1.7630377511	 0.088013
H	 4.9563653183	 0.5325657313	-0.7914766064	 0.109997
H	 3.4288644616	 1.5193885938	-0.5668796593	 0.120503
H	 3.9893995492	-1.2842133179	 0.596229608	 0.088013
H	 2.6727024544	-0.1660136328	 2.2812991789	 0.081994
H	 0.4303660849	 0.231600196	 2.1035889095	 0.079012
