16
gdb 52541	3.93736	0.71783	0.62441	3.8076	79.05	-0.2447	-0.066	0.1787	1740.9032	0.121542	-437.916583	-437.906407	-437.905463	-437.95535	34.223	
C	-0.3572168137	 1.2950695149	-0.3182483285	-0.504469
C	-0.0969753016	-0.0959049813	 0.005368461	 0.157789
C	 0.1050614695	-1.2525994994	 0.2869278838	 0.00464
C	 0.3650870146	-2.6343391573	 0.6032590539	 0.202949
O	-0.2388549065	-3.2098258234	 1.493004071	-0.315015
C	 1.4595191	-3.2967387192	-0.2244933339	-0.412076
C	 1.2788653728	-4.7825411273	-0.5873593987	 0.387295
N	 0.7698344642	-5.5617446471	 0.4013605464	-0.511172
O	 1.6404413495	-5.1967411682	-1.6702579892	-0.358003
H	 0.3005600527	 1.6528810179	-1.1165572252	 0.163036
H	-1.3942653713	 1.4246178829	-0.6465502493	 0.169331
H	-0.2076532346	 1.9308877925	 0.561010191	 0.167823
H	 1.6299164952	-2.7516769945	-1.1529474282	 0.147925
H	 2.3823004723	-3.215619078	 0.3677340194	 0.165881
H	 0.2997393795	-5.114900701	 1.1776423988	 0.277555
H	 0.5550189272	-6.5175112914	 0.1653379077	 0.256512
