21
gdb 86631	3.01081	1.06272	0.86453	3.4976	87.8	-0.2462	-0.0529	0.1933	1392.2423	0.182075	-387.128951	-387.119662	-387.118717	-387.162962	34.849	
C	-0.1542881567	 1.5481238779	-0.0733393404	-0.41287
C	 0.0763710436	 0.0395663409	-0.0164245879	 0.020504
C	 0.895140029	-0.5347131944	-1.2019872795	-0.32615
C	 1.5338824564	-1.7665737033	-0.6033582212	 0.240203
C	 2.1824504832	-2.8196021486	-1.385974155	 0.06577
O	 2.2774259987	-2.8135960583	-2.5942875895	-0.27298
C	 1.4563040528	-1.7573562963	 0.7361091836	-0.15028
C	 0.7907917066	-0.5100728715	 1.2642624356	-0.046068
C	 1.8316752757	 0.4317865171	 1.9024606763	-0.392067
H	 0.7886892703	 2.1041921047	-0.0761451124	 0.118479
H	-0.696903443	 1.8184087828	-0.9851559322	 0.11784
H	-0.7476258514	 1.8975928227	 0.7786066543	 0.112973
H	-0.9033999926	-0.4534978753	-0.045681495	 0.081291
H	 0.2782906133	-0.7631437648	-2.0758317244	 0.120821
H	 1.6670859102	 0.1666962625	-1.5475568834	 0.112233
H	 2.5957910119	-3.658239345	-0.7807370012	 0.063739
H	 1.8740321684	-2.5241048831	 1.3827408508	 0.104726
H	 0.0511058164	-0.7543703414	 2.0372998098	 0.080452
H	 2.598458555	 0.7298112733	 1.1803461008	 0.12331
H	 1.3571157267	 1.3376289915	 2.2908495117	 0.122198
H	 2.3377457855	-0.0639785913	 2.7371212492	 0.115878
