23
gdb 87485	2.8723	1.35	1.11131	0.0235	91.04	-0.254	0.095	0.349	1224.4894	0.20576	-351.090933	-351.082127	-351.081183	-351.123817	35.212	
C	-0.1326316073	 1.5772569528	 0.0062170157	-0.403863
C	-0.0484989809	 0.0654223032	 0.0187564327	-0.121049
C	 1.27726571	-0.6247835276	-0.2952944572	-0.404809
C	 0.7019084557	-0.666992386	 1.0811520039	 0.470724
C	 1.2056690302	-0.2236525997	 2.4728004357	-0.143836
C	-0.1855713604	-0.686591691	 3.0059731733	-0.222805
C	 0.2784845062	-1.8095416477	 2.0277498504	-0.147263
C	 1.6859698181	-1.698260402	 2.7104469389	 0.065827
C	 2.9444459144	-2.2533688667	 2.0634564197	-0.442608
H	 0.7813774113	 2.024510108	 0.410988392	 0.112317
H	-0.2665492821	 1.9610091343	-1.0115939949	 0.113945
H	-0.9720378561	 1.938620871	 0.6111440688	 0.114886
H	-0.9312054446	-0.4366784707	-0.3737938169	 0.079062
H	 1.2576186346	-1.5236173741	-0.9049089836	 0.106961
H	 2.1374290039	 0.013460414	-0.4811054143	 0.106575
H	 1.7393056028	 0.6938768265	 2.7282638186	 0.065321
H	-0.235134242	-0.9550194581	 4.0651481867	 0.084021
H	-1.0491011281	-0.0958859097	 2.6941884655	 0.092122
H	-0.2612386509	-2.7216575533	 1.7644688283	 0.064243
H	 1.6590163464	-1.9783247707	 3.7707599637	 0.056735
H	 3.0234080972	-2.000006996	 1.0054036731	 0.130123
H	 3.8366546575	-1.8682747289	 2.570525819	 0.11156
H	 2.9690099341	-3.3456452577	 2.1517275407	 0.11181
