14
gdb 48830	2.80011	1.62487	1.15906	3.829	62.81	-0.2677	-0.0601	0.2077	1001.9223	0.101484	-473.842096	-473.834739	-473.833795	-473.874192	26.868	
O	-0.9329218539	 1.2582468693	-0.2696410359	-0.273584
C	 0.1757416466	 0.8588190789	 0.0002102425	 0.079028
C	 1.3664737595	 1.7433085525	-0.0609975788	 0.057198
N	 1.1526236827	 3.217880698	-0.0286471076	-0.346319
C	 1.6548955933	 2.61636988	-1.2460423132	-0.103172
C	 3.1686897556	 2.6871162932	-1.3386564996	-0.080271
O	 3.6793756893	 1.9984044352	-0.1823358588	-0.229991
C	 2.7013845758	 1.3403122541	 0.4983919877	 0.446061
O	 2.9253377204	 0.5515603239	 1.3692076347	-0.340217
H	 0.3715224938	-0.1841148526	 0.3118142865	 0.121851
H	 0.1402518402	 3.3401027601	-0.1156289037	 0.26158
H	 1.0402476318	 2.5707605523	-2.1383083279	 0.133244
H	 3.542444415	 2.1826544637	-2.2352394498	 0.130373
H	 3.5374178899	 3.7156367514	-1.3133770561	 0.144219
