17
gdb 29537	3.03206	1.56854	1.0559	2.4162	75.48	-0.1756	0.0499	0.2255	1093.9144	0.139279	-418.021303	-418.013549	-418.012605	-418.053242	30.242	
O	 0.1561416261	 1.3794398925	-0.0514839272	-0.456166
C	 0.0750257999	 0.015242463	-0.0047981633	 0.180513
C	 0.0291279221	-0.8144753751	-1.1097223384	-0.167663
N	-0.018339809	-2.1295715564	-0.6628340795	-0.390618
C	-0.023032671	-2.1263824041	 0.7016348831	 0.302389
C	 0.0528185215	-0.8303904714	 1.1337231807	 0.149376
N	 0.0537693532	-0.6975519471	 2.5552025844	-0.429522
C	-0.2850769885	-2.0806235479	 3.0137688382	-0.156251
C	-0.0022539087	-3.0924000266	 1.8438703519	-0.3555
H	-0.0986963571	 1.7134697424	 0.8146581267	 0.298374
H	 0.0116706269	-0.572042416	-2.1586500376	 0.116643
H	-0.1326787451	-2.9272201583	-1.2613766636	 0.25701
H	 0.9821462878	-0.4480779834	 2.8895910842	 0.22239
H	 0.2590614184	-2.3230739099	 3.9297464807	 0.101394
H	-1.3558489492	-2.1039058295	 3.2424769137	 0.117446
H	-0.7731721706	-3.8697468917	 1.8141535935	 0.107056
H	 0.9672112734	-3.6021075506	 1.9508889929	 0.10313
