13
gdb 4987	3.44954	2.38234	1.40995	3.4242	63.6	-0.2191	-0.0139	0.2053	804.9863	0.098235	-394.842162	-394.835506	-394.834562	-394.872588	25.639	
N	-0.0529432232	 1.3748647535	-0.1140780065	-0.56695
C	-0.0170040616	 0.0123615602	-0.0535584495	 0.347694
N	-1.1630427428	-0.6628977389	 0.024220601	-0.324492
C	-1.0819599243	-1.9969874919	 0.0354725181	 0.059083
N	 0.0166367193	-2.7382502638	-0.0140573159	-0.266754
C	 1.1698463382	-2.04929889	-0.0829594135	-0.100251
C	 1.2181594702	-0.6734048733	-0.1070288521	 0.265128
O	 2.3536773237	 0.0851721187	-0.1709104284	-0.456258
H	 0.7951966603	 1.877876144	 0.0856195803	 0.270178
H	-0.9249596003	 1.8077199532	 0.1437447838	 0.262858
H	-2.0280550192	-2.5292009518	 0.0954790466	 0.110508
H	 2.0917884355	-2.63084579	-0.1190053924	 0.096434
H	 3.1245860741	-0.4925433198	-0.1827556113	 0.302822
