22
gdb 9264	5.44375	0.7751	0.713	0.8848	85.01	-0.2565	0.0595	0.316	1630.7838	0.197523	-313.049846	-313.039472	-313.038528	-313.085572	37.291	
C	-0.1555035744	 1.5345290092	 0.0747615156	-0.392156
C	 0.0253212789	 0.0157674813	-0.0163904256	-0.172505
C	 0.8089940625	-0.4737638049	-1.2504434073	 0.04649
C	 2.2592749142	 0.0325122624	-1.2437315552	-0.393548
C	 0.7334988121	-2.008967232	-1.3377197138	-0.174003
C	 1.2875504521	-2.6031359094	-2.6503946198	-0.371258
C	 1.1056990367	-4.0474179295	-2.7331528914	 0.295178
C	 0.9427604725	-5.2377852631	-2.7751927926	-0.437383
H	 0.7977347405	 2.0578909774	 0.1952251897	 0.118382
H	-0.6397997741	 1.9293814204	-0.8257122309	 0.11288
H	-0.7832154599	 1.8002429475	 0.9311174942	 0.112898
H	 0.525836467	-0.3496316441	 0.8912353132	 0.093199
H	-0.9651547778	-0.4566460392	-0.025245064	 0.092735
H	 0.3095500345	-0.0638278563	-2.1422689784	 0.06712
H	 2.8058265061	-0.2778436378	-2.139040349	 0.11429
H	 2.3044735975	 1.1243276282	-1.2050892764	 0.116184
H	 2.8011277423	-0.3546066011	-0.3719703982	 0.112886
H	 1.2711638012	-2.4548170414	-0.4911899149	 0.104439
H	-0.3112616941	-2.3244743619	-1.2374589503	 0.104525
H	 0.7895431016	-2.1242411667	-3.5043904092	 0.12679
H	 2.3542656569	-2.3714251919	-2.7528823616	 0.131517
H	 0.804770424	-6.2891967571	-2.824084124	 0.19134
