19
gdb 42770	2.43629	1.91726	1.59657	2.829	79.31	-0.2299	-0.0015	0.2285	944.0421	0.161711	-385.862007	-385.855024	-385.85408	-385.893068	28.945	
O	-0.0182111861	 0.0167078623	 0.063912219	-0.340725
C	-0.0344484469	 1.2113202893	 0.002501415	 0.421851
C	-1.0855763761	 2.3298803017	 0.055767658	-0.140866
C	-0.0047710553	 3.0329272686	 0.9879630676	-0.350583
C	 1.0077375024	 2.335169112	 0.0222038633	 0.212815
C	 2.4481043749	 2.0792815713	-0.4458023967	-0.345006
C	 1.8733725173	 2.1791100689	-1.9122888217	-0.271923
C	 0.6979187423	 3.0176701549	-1.3180549119	 0.028618
C	-0.8576612076	 2.9070765043	-1.3793113368	-0.276875
H	-2.104233294	 2.1578010647	 0.3975256163	 0.08556
H	 0.0208943071	 4.1249253047	 0.979400312	 0.108324
H	-0.0483926912	 2.6508598761	 2.0097218904	 0.118317
H	 3.1315984954	 2.9041744528	-0.2275444929	 0.109161
H	 2.9015597648	 1.1345625378	-0.1389116367	 0.116985
H	 2.4997739677	 2.6577744194	-2.6673110637	 0.099436
H	 1.5537486263	 1.1984933139	-2.2740121623	 0.125335
H	 1.0075772093	 4.0674153575	-1.2823356176	 0.078411
H	-1.237214608	 2.2202322851	-2.1423386381	 0.117134
H	-1.3374561124	 3.8775686746	-1.5301234332	 0.104032
