14
gdb 132804	2.43684	1.87537	1.06094	2.3522	69.17	-0.2206	0.0028	0.2234	1031.674	0.103023	-474.221145	-474.213476	-474.212532	-474.252908	29.723	
N	-0.0277053501	 1.363939877	-0.1502527496	-0.572558
C	 0.0012196294	-0.0006210817	-0.0543656001	 0.294406
N	-1.1697251657	-0.6630345464	-0.0420064305	-0.342429
C	-1.0859082293	-1.9893479768	-0.0026662964	 0.058648
N	 0.0055606998	-2.7476901495	 0.0333137243	-0.342452
C	 1.1786173703	-2.0889091961	 0.0378665007	 0.294573
N	 2.3313926501	-2.8198477277	 0.1298513249	-0.572564
C	 1.2010507084	-0.7002671423	-0.0102887271	 0.123988
F	 2.3808428663	-0.0352961385	-0.0142157959	-0.105082
H	 0.7969240173	 1.8682005683	 0.1308933944	 0.26233
H	-0.9140166243	 1.7882027909	 0.0734804371	 0.263435
H	-2.0335591825	-2.5235077512	 0.0004959118	 0.111888
H	 2.2345921384	-3.7985426754	-0.0898891358	 0.263456
H	 3.1886288818	-2.3763802805	-0.1559891979	 0.262362
