18
gdb 16965	3.3501	2.17637	1.99078	1.7363	65.67	-0.2456	0.0846	0.3302	788.0332	0.156345	-384.956671	-384.950051	-384.949107	-384.987226	26.502	
C	-0.2433325646	 1.5551568652	-0.0436685814	-0.414378
C	 0.0308636072	 0.0622472727	 0.0199115176	 0.150124
O	 0.7538927824	-0.3804468722	-1.1518631778	-0.299024
C	 1.8216466419	-1.176415852	-0.6370442691	 0.195087
C	 2.9387076742	-0.2387999739	-0.142429443	-0.232301
C	 2.2927593823	 0.2655287966	 1.1852202841	-0.226389
C	 0.9416345158	-0.4792049122	 1.1455238905	 0.025377
O	 1.3125501495	-1.741089905	 0.5565765265	-0.252445
H	 0.6781284682	 2.1354504792	-0.1374641982	 0.122975
H	-0.8697334588	 1.7808206302	-0.9112052745	 0.131337
H	-0.7780157523	 1.8864809787	 0.8533033958	 0.114995
H	-0.9241619271	-0.4802892273	 0.0598177361	 0.081436
H	 2.087620645	-1.9508215554	-1.3563094654	 0.08892
H	 3.867144899	-0.787534301	 0.0350377263	 0.104672
H	 3.1327920889	 0.5567661267	-0.8638990955	 0.109619
H	 2.8659403493	-0.0562538565	 2.0571246355	 0.109417
H	 2.1884479647	 1.3505025878	 1.2337462448	 0.106267
H	 0.4477757842	-0.6412046614	 2.1027623278	 0.084312
