16
gdb 14045	4.94682	1.63254	1.50924	2.6435	66.47	-0.2384	0.0062	0.2445	867.0882	0.131035	-383.716764	-383.709921	-383.708977	-383.748149	25.584	
C	-0.0506414943	 1.4681100615	-0.02314202	-0.121356
O	 1.3641073663	 1.6590488549	 0.1702765703	-0.272845
C	 1.5686762595	 0.2543822139	 0.4161341761	-0.121356
C	 0.1197184516	-0.0762621617	-0.0371882018	 0.330515
O	-0.6711593212	-0.7951319084	 0.8920008402	-0.305177
C	-1.3221663676	-1.8942126893	 0.2550576121	-0.134665
C	-0.8815651811	-1.8254719827	-1.1792240334	-0.10928
C	-0.0634773646	-0.7920540104	-1.3396072397	-0.13506
H	-0.643662449	 1.8095970752	 0.8350630227	 0.107108
H	-0.4137931006	 1.9453860901	-0.9405566547	 0.100702
H	 2.3914888262	-0.1572580516	-0.1795611277	 0.100702
H	 1.7292010343	 0.0310636434	 1.478755344	 0.107108
H	-1.0275460117	-2.8355024207	 0.7435451245	 0.112027
H	-2.4127355524	-1.7972631201	 0.3677830441	 0.112026
H	-1.2041496576	-2.5295203538	-1.9353721823	 0.112316
H	 0.4236821522	-0.4722246103	-2.2517420942	 0.117237
