23
gdb 100807	3.6891	0.76564	0.66696	1.685	88.65	-0.2544	0.0512	0.3056	1740.5459	0.201762	-388.262786	-388.251269	-388.250325	-388.299848	41.726	
C	-0.2304744883	 1.5518037463	-0.0033005658	-0.392898
C	 0.0451401573	 0.0449651392	 0.0079847244	-0.176345
C	 0.8065794482	-0.4755778853	-1.2284452388	 0.029241
C	 2.2689248657	-0.0030285582	-1.2305757982	-0.410472
C	 0.6857285747	-2.0148874591	-1.3127870024	 0.126747
O	-0.6725435072	-2.432076919	-1.3035271782	-0.419581
C	 1.4281482787	-2.6128559073	-2.5312417863	-0.414705
C	 1.2894831879	-4.0595209301	-2.6372758387	 0.3189
C	 1.1901594789	-5.2540119	-2.7215637951	-0.435984
H	 0.6891414727	 2.1456785021	-0.0093501773	 0.115021
H	-0.8152916654	 1.8393813391	-0.8846798836	 0.110729
H	-0.8019407155	 1.8477766486	 0.8820106222	 0.114256
H	 0.6155904653	-0.2187580902	 0.9095826329	 0.089654
H	-0.9028581991	-0.4957687733	 0.0752953304	 0.115405
H	 0.3110984856	-0.0685990655	-2.1258403817	 0.055309
H	 2.7742809525	-0.2056014685	-2.178719784	 0.117023
H	 2.3322035201	 1.075006861	-1.0599485179	 0.118787
H	 2.8383562835	-0.4954021742	-0.4329004503	 0.117679
H	 1.1133001335	-2.4533638427	-0.4022867857	 0.097692
H	-1.0778014326	-2.1464483663	-2.1303253434	 0.277294
H	 1.0467860606	-2.1348275753	-3.4463600184	 0.116714
H	 2.4914205927	-2.3561631886	-2.4768137165	 0.136816
H	 1.0949754404	-6.3088360427	-2.7938870877	 0.192721
