20
gdb 70696	2.24228	1.83043	1.2043	3.0751	78.91	-0.2315	-0.0108	0.2207	1088.2447	0.172561	-403.168804	-403.160501	-403.159557	-403.201409	32.488	
C	-0.0643550729	 1.5386152613	 0.0304294516	-0.47703
C	 0.0871993794	 0.0376601222	-0.0218222566	 0.195076
N	-0.7677986782	-0.818737655	 0.8463924374	-0.360047
C	 0.6621355316	-0.7173448797	 1.1468315701	-0.068741
C	 1.4701237411	-1.99823467	 0.9763870732	-0.203625
C	 1.7878694224	-2.3320651123	-0.491459071	-0.214259
C	 0.5960120234	-2.039268267	-1.4256765121	-0.309883
C	 0.2919073941	-0.5533143508	-1.3928662306	 0.381614
O	 0.2645474593	 0.1424947612	-2.3847664304	-0.324045
H	 0.8037893705	 2.0337670137	-0.4134125176	 0.137744
H	-0.9425795492	 1.8583603417	-0.5381153867	 0.13814
H	-0.1686730844	 1.8822463713	 1.0645790164	 0.104807
H	-1.3081784797	-0.2174634686	 1.46442105	 0.233617
H	 0.9401600355	-0.0946766339	 1.9954381789	 0.088803
H	 2.4040076039	-1.9151636416	 1.5423949884	 0.100794
H	 0.8961577701	-2.8153485578	 1.4286391479	 0.114477
H	 2.6464261127	-1.735484296	-0.8245617464	 0.10869
H	 2.0859115781	-3.3814608248	-0.5817290307	 0.10418
H	 0.812456558	-2.3191660338	-2.4588920098	 0.114363
H	-0.286531126	-2.59128749	-1.083449252	 0.135327
