13
gdb 2825	4.90354	1.6547	1.35555	3.2289	57.35	-0.2574	-0.0419	0.2155	844.5763	0.099929	-344.458268	-344.451318	-344.450374	-344.489721	24.096	
O	-0.0332875969	-0.0267089153	-0.4337099847	-0.253945
C	-0.0025490323	 1.1130258352	-0.0442892028	 0.16129
C	 1.2429964293	 1.9176123444	 0.0428624255	-0.100422
C	 1.1765448779	 3.4111685865	-0.1263429971	-0.307867
C	 1.5166979386	 2.8670379033	 1.2345279813	-0.100464
C	 0.5472447487	 3.0202520949	 2.3494385044	 0.161305
O	 0.8715317879	 3.1111095437	 3.5062323343	-0.253943
H	-0.9347821553	 1.6448912639	 0.2511132113	 0.077211
H	 2.1192723072	 1.39721947	-0.3278260242	 0.127466
H	 1.9589105309	 3.8990612307	-0.6947316784	 0.147174
H	 0.1890524921	 3.8479486658	-0.2475258068	 0.137555
H	 2.5519537185	 2.8980966799	 1.5560218523	 0.12745
H	-0.5225578369	 3.0740354769	 2.0463987048	 0.07719
