21
gdb 72790	2.50531	1.68591	1.33388	1.0392	85.14	-0.2329	0.0167	0.2496	1068.3104	0.183544	-387.086026	-387.077889	-387.076945	-387.11818	32.869	
C	 0.1798436755	 1.7432246123	 0.1041798345	-0.420911
C	-0.0397108318	 0.2315647825	 0.1693769131	 0.364952
C	 0.9150842018	-0.5398948641	-0.8147220782	-0.27316
C	 1.8962090919	-0.7609778618	 0.3891157417	-0.323405
C	 0.698486787	-0.4860011152	 1.2747089156	 0.278295
C	 0.107701739	-1.044652028	 2.3229093064	-0.245215
C	-1.3889273177	-0.8491277798	 2.4299485655	-0.264381
C	-1.9779825503	-0.9415853324	 1.0078299095	-0.070763
O	-1.4438361418	 0.0311218067	 0.1198890538	-0.31761
H	 1.2438201898	 1.9957628547	 0.0756088689	 0.110949
H	-0.2940883295	 2.137354209	-0.8004921726	 0.122595
H	-0.2729261684	 2.2329629134	 0.9705163742	 0.118496
H	 0.4671063468	-1.4809799911	-1.1400151217	 0.11089
H	 1.2869903687	 0.0145026836	-1.6800499799	 0.096379
H	 2.36962272	-1.7403559143	 0.4845154427	 0.110206
H	 2.6719325308	 0.0101896626	 0.4309951482	 0.11131
H	 0.6222396942	-1.728509594	 2.99206385	 0.086864
H	-1.8421669005	-1.6245041766	 3.0568242323	 0.101327
H	-1.6577064754	 0.1170224248	 2.8755859774	 0.113796
H	-1.8063547955	-1.9593577073	 0.6233931672	 0.08719
H	-3.0575444749	-0.7614827949	 1.0132922113	 0.102197
