18
gdb 9665	4.69952	1.1227	1.04529	2.7536	70.25	-0.2533	-0.0334	0.2198	1183.1969	0.150373	-384.942406	-384.933131	-384.932187	-384.976868	32.377	
C	-0.3926604487	 1.4719601621	 0.3446459387	-0.376891
C	 0.3925878334	 0.2021485758	-0.0096386471	-0.221812
C	 0.8067825497	-0.5559058394	 1.2290877289	 0.033006
O	-0.1790317924	-1.3236720347	 1.9120132762	-0.286046
C	 0.9238133278	-2.0358542235	 1.3134345673	 0.267038
C	 0.6371014489	-2.9828406194	 0.1771731271	-0.471576
C	 1.8913905087	-2.5273691681	 2.3513351844	 0.126028
O	 2.5990220451	-3.4925410143	 2.2182581834	-0.25368
H	 0.2035876264	 2.1480461012	 0.9667823496	 0.119467
H	-0.6814255163	 2.0160845835	-0.558986283	 0.119523
H	-1.3024343338	 1.2207880191	 0.8977472733	 0.136799
H	-0.2127371634	-0.4382407206	-0.6560656754	 0.111244
H	 1.2982039903	 0.4642713764	-0.5712623821	 0.1099
H	 1.4427320473	 0.0228200311	 1.9064337358	 0.089951
H	-0.0917049198	-2.5687791912	-0.5195957821	 0.129196
H	 1.5617200876	-3.211598793	-0.3596476972	 0.142407
H	 0.2449919442	-3.9258766802	 0.5688970201	 0.141038
H	 1.891834875	-1.9100545649	 3.2775745423	 0.084408
