17
gdb 126772	2.60034	1.37454	0.95601	1.4456	71.51	-0.2003	0.0458	0.2461	1224.8597	0.137679	-451.366262	-451.357419	-451.356474	-451.400192	32.553	
C	-0.2469418141	 1.553234476	-0.139828702	-0.374082
C	 0.1162690336	 0.0732353716	-0.0147506781	-0.149091
N	 0.8067001969	-0.42952822	-1.185303865	-0.024306
N	 0.1598657781	-0.5521688089	-2.4048126368	-0.350948
C	 1.1293391282	-1.0039372803	-3.1819724122	 0.404557
N	 0.9651801196	-1.2235856892	-4.5357824896	-0.581558
N	 2.3421489964	-1.1935746347	-2.5740313278	-0.431471
C	 2.0783891243	-0.8169302571	-1.3390323965	 0.452678
O	 2.9388838484	-0.8051652339	-0.3120196412	-0.428363
H	 0.6521268535	 2.1697922596	-0.2305176741	 0.126033
H	-0.8676756137	 1.715117694	-1.0240854734	 0.148649
H	-0.8032230735	 1.8797784181	 0.7439924276	 0.117237
H	 0.7751816901	-0.1013767852	 0.8394369082	 0.135296
H	-0.7866342282	-0.5299569009	 0.1275572922	 0.126832
H	 0.0021892688	-1.3686354189	-4.80288119	 0.255214
H	 1.5829062393	-1.9352405177	-4.8977736658	 0.255267
H	 3.7817715323	-1.1239496724	-0.6580620458	 0.318057
