21
gdb 40989	3.6762	1.51263	1.44279	0.2538	87.33	-0.2252	0.0901	0.3153	1013.1981	0.185565	-349.858487	-349.851812	-349.850868	-349.889034	29.132	
C	-0.0496698633	 1.5705247091	 0.1649318374	-0.271974
C	 1.5053605475	 1.4978524195	-0.1597881536	-0.345069
C	 1.1717346613	 0.1350547756	-0.8073320148	 0.3165
C	-0.0980834302	 0.0010821726	 0.0174041931	-0.020962
C	-0.3057595742	-0.9501977825	-1.1974313426	-0.096949
C	 0.3280411351	 0.097829256	-2.1398576217	-0.016945
C	 1.1416533529	-0.6001927601	-3.231630479	-0.246496
C	 1.7826954748	-1.7527295723	-2.4069275426	-0.238546
C	 1.2270057082	-1.418322248	-1.0259445382	-0.112526
H	-0.3150545104	 1.9473838922	 1.1552311439	 0.096206
H	-0.6082515613	 2.1361306364	-0.5821947828	 0.11115
H	 1.938992048	 2.279710784	-0.7906473696	 0.096229
H	 2.0954628845	 1.4074855885	 0.7573743196	 0.105701
H	 0.0111162598	-0.4945413386	 0.9868066467	 0.062289
H	-1.1384225695	-1.6236471106	-1.4319110804	 0.05722
H	-0.2553086413	 0.9721156737	-2.4283859345	 0.057239
H	 0.5074567159	-0.9673990113	-4.0453451881	 0.094402
H	 1.8882017227	 0.0665468605	-3.6759220802	 0.094522
H	 1.4657417106	-2.7434334419	-2.7488115795	 0.09635
H	 2.8767614761	-1.7339933428	-2.4263276869	 0.098449
H	 1.4829957727	-2.0561883299	-0.1775997463	 0.063209
