14
gdb 133199	3.12469	1.38436	0.96506	2.9404	68.79	-0.2419	-0.0622	0.1797	1121.4391	0.101109	-478.018252	-478.010674	-478.00973	-478.050437	28.281	
C	-0.0315631391	 1.5337359171	 0.0139268696	-0.481798
C	-0.0081694998	 0.0346108165	-0.0156616698	 0.222421
N	-0.0404654535	-0.5788647052	-1.1655313017	-0.23333
N	-0.0184107991	-1.9158567723	-1.1586578522	-0.275231
C	 0.0361689351	-2.7936089693	-0.0633353725	 0.446251
O	 0.0497039579	-3.998400203	-0.2323440669	-0.38864
C	 0.0712119473	-2.0816110238	 1.2027453935	-0.380325
C	 0.0489994671	-0.7315840483	 1.1974301397	 0.290143
F	 0.0795599047	-0.039663816	 2.3345484734	-0.057917
H	 0.8609373034	 1.9329317647	 0.5073488507	 0.144074
H	-0.0753594052	 1.9147888562	-1.006931786	 0.14865
H	-0.8979265853	 1.9042123165	 0.5720864189	 0.144075
H	-0.0449557901	-2.3486747271	-2.0725289598	 0.277406
H	 0.1143148965	-2.6549658161	 2.119127143	 0.144221
