20
gdb 98688	3.28523	0.93496	0.88785	2.0631	78.63	-0.2452	0.0288	0.274	1423.2629	0.168754	-440.309483	-440.299117	-440.298173	-440.34513	37.487	
C	-0.335438981	 1.4041653499	 0.1673034747	-0.333539
N	-0.2046025434	-0.0292601257	 0.3328800381	-0.326554
C	 0.9228673084	-0.6138327193	 0.8344804603	 0.434514
O	 1.9114785883	 0.0297043358	 1.1595361841	-0.396897
C	 0.8457120029	-2.1043763384	 0.9454985418	-0.176921
C	 2.1478368862	-2.8928900435	 0.9858283391	-0.34272
C	 1.2862454698	-2.822911459	 2.2098765989	 0.405746
C	 1.7347065558	-2.0815469826	 3.4459874232	-0.465023
O	 0.4674839854	-3.9391274444	 2.4665978958	-0.466159
H	 0.6295422655	 1.8478637694	 0.4143813206	 0.171461
H	-0.5964435345	 1.6610138202	-0.8651587849	 0.123857
H	-1.0991626358	 1.8205810913	 0.8347697435	 0.124558
H	-0.9926674982	-0.6159439994	 0.1159586191	 0.246669
H	 0.0091405788	-2.5867451735	 0.4506094134	 0.087426
H	 2.1751184568	-3.8271408734	 0.4371858979	 0.111111
H	 3.0484959135	-2.2892077798	 0.9641523761	 0.13747
H	 2.2777189058	-1.174137564	 3.1794183365	 0.162526
H	 0.8697133923	-1.812499333	 4.0607325946	 0.11945
H	 2.3925655641	-2.7197218207	 4.0492658213	 0.10165
H	 0.9981623495	-4.5812019698	 2.9518661458	 0.281376
