21
gdb 119089	2.14559	1.23239	0.93369	2.7045	74.81	-0.2499	0.0626	0.3125	1348.9428	0.180553	-461.326201	-461.316164	-461.31522	-461.361936	35.97	
C	-1.5534755207	 1.5478040399	-1.2320088564	-0.382807
C	-1.7430692585	 0.0440538375	-1.3385278191	-0.07015
O	-1.2870373008	-0.5419218718	-0.1218307023	-0.307076
C	-1.5564842793	-1.921062501	 0.0447370126	 0.320404
C	-0.6917249254	-2.7635421813	-0.8880946632	-0.106401
O	 0.6761808701	-2.4522606476	-0.7181146296	-0.428039
C	-1.4769705619	-2.3438990394	 1.5225925926	-0.121182
O	-2.7762139503	-2.9729085083	 1.4399652701	-0.274546
C	-3.0328150276	-2.3731615931	 0.1554002412	-0.130363
H	-1.8859868568	 2.038581126	-2.1513980749	 0.120182
H	-2.1288296018	 1.9486428069	-0.3931287866	 0.130933
H	-0.4994351234	 1.7921259182	-1.0714955891	 0.127783
H	-2.8036695284	-0.2001643769	-1.4988838431	 0.099511
H	-1.1826386224	-0.3518656741	-2.1978536735	 0.101825
H	-0.8251196423	-3.8237598783	-0.6494626301	 0.11906
H	-1.0144058409	-2.6214218328	-1.9330894747	 0.085644
H	 0.7196693107	-1.4932084172	-0.6161600669	 0.287862
H	-0.6855879952	-3.0482313429	 1.7957565505	 0.1179
H	-1.4739369784	-1.4861637933	 2.2059176888	 0.105721
H	-3.7416398781	-1.5368935304	 0.2235024084	 0.099437
H	-3.3953936984	-3.10271659	-0.5785185846	 0.104301
