18
gdb 6184	3.7136	1.55941	1.46759	2.1445	67.64	-0.2418	-0.0226	0.2192	944.2922	0.152074	-384.975241	-384.967127	-384.966182	-385.007455	30.861	
C	 0.0301048402	 1.4334105564	 0.2329086221	-0.417404
C	-0.0653496971	-0.0696447489	-0.0640574755	 0.369945
C	-1.5156609224	-0.5316564685	-0.125293692	-0.426363
C	 0.7650129832	-0.4544531665	-1.3021885554	-0.370233
C	 2.1446155198	-0.7618627015	-0.7238046045	 0.370657
O	 3.1868191738	-0.8540561889	-1.3146634767	-0.29921
C	 1.941927701	-0.9231100847	 0.7854160836	-0.188237
O	 0.554568047	-0.8175699193	 1.0144840425	-0.288875
H	 1.0715289868	 1.769745887	 0.2740989681	 0.117352
H	-0.4769416889	 2.0165199553	-0.5425055499	 0.118438
H	-0.4373135127	 1.6547135298	 1.1962710016	 0.127377
H	-2.0500160477	-0.0262719021	-0.935463203	 0.117389
H	-1.5645712425	-1.6111156315	-0.2922840348	 0.120779
H	-2.0250104534	-0.3074511957	 0.8165040499	 0.126241
H	 0.3797396693	-1.3725095153	-1.7625839784	 0.132858
H	 0.8228116245	 0.3126095031	-2.0768227528	 0.131898
H	 2.2999662609	-1.8993992925	 1.129673602	 0.135932
H	 2.5231043682	-0.1485488762	 1.3112482234	 0.121457
