18
gdb 50699	2.90598	1.43587	1.08786	2.3407	71.35	-0.2346	-0.0317	0.203	1105.4296	0.148224	-439.05327	-439.045359	-439.044415	-439.086163	29.742	
O	-0.4651284392	 0.6277324651	-0.722153965	-0.247352
C	 0.1108909634	 1.0741437886	 0.2369896139	 0.154186
C	 1.3474268801	 1.9496443229	 0.1516612973	-0.070369
C	 1.5456219058	 2.5789744606	-1.232488551	-0.108885
O	 2.6539926043	 3.4570192877	-1.1879371744	-0.238477
C	 2.3803061861	 4.5931058004	-0.3870050775	-0.107333
C	 1.8708687757	 4.239418022	 1.0143025659	-0.025513
C	 0.4120223623	 4.0240124227	 1.2353221398	-0.25758
N	 1.3423299908	 2.8932394289	 1.2753184534	-0.104727
H	-0.2262455437	 0.8666189071	 1.276440622	 0.096089
H	 2.207894469	 1.2847817401	 0.329497973	 0.119373
H	 1.7702574228	 1.8043826547	-1.9677331604	 0.130264
H	 0.637510476	 3.1045657578	-1.5688845728	 0.099193
H	 3.3225834679	 5.1407354552	-0.3096097749	 0.118974
H	 1.6541573818	 5.2427584606	-0.9031677028	 0.09741
H	 2.4641160455	 4.6345949739	 1.8357368021	 0.102511
H	-0.0477372144	 4.270760016	 2.1880864999	 0.122296
H	-0.2407417941	 4.1455240656	 0.3724099016	 0.11994
