20
gdb 111333	2.55142	1.40169	1.06956	2.3371	78.78	-0.2335	0.0767	0.3102	1197.9232	0.170223	-403.078169	-403.06959	-403.068646	-403.111472	32.792	
C	-0.0123506213	 1.6504254067	-0.0474735304	-0.378167
C	-0.1599518333	 0.1250761619	-0.0199338314	-0.205831
C	 0.6389880803	-0.5530856537	-1.1216148482	-0.033513
N	 2.1524731434	-0.3886559951	-1.10050191	-0.140247
C	 2.6647879238	-1.1644296184	 0.044884409	-0.249766
C	 2.2875089015	-1.9007955814	-1.1790672426	-0.133149
C	 0.7892010878	-2.079338237	-1.2066380895	 0.437037
C	-0.0570114932	-3.2039463272	-0.8026162288	-0.272758
O	 0.1170637747	-2.8450873269	-2.1842566595	-0.280404
H	 1.0360885333	 1.9415991853	 0.0642811244	 0.136704
H	-0.3704596149	 2.0635227344	-0.9965521562	 0.119391
H	-0.5848579356	 2.117093045	 0.7594931686	 0.111352
H	 0.1372742545	-0.2607173134	 0.962348633	 0.096333
H	-1.2144237032	-0.1526462351	-0.1473012449	 0.104879
H	 0.3049070404	-0.1870654398	-2.0988055839	 0.102396
H	 3.7207851576	-0.9896666577	 0.2271125264	 0.125854
H	 2.0658040454	-1.2741316582	 0.9453311133	 0.115142
H	 2.9931002689	-2.3878392776	-1.8432819581	 0.1112
H	 0.400332421	-4.1461324842	-0.5029062249	 0.11691
H	-1.051586911	-3.0202165977	-0.3983893563	 0.116636
