19
gdb 79078	2.91986	1.69198	1.46851	2.0635	78.24	-0.2401	-0.0038	0.2363	990.47	0.16007	-382.040104	-382.032288	-382.031344	-382.071924	30.877	
C	 0.0236689664	 1.6284159594	-0.0662591498	-0.417373
C	 0.092488791	 0.1097758419	-0.004286251	 0.023513
C	 0.6689001759	-0.7176463258	-1.1534215006	-0.112442
N	 2.1855194717	-0.8862708958	-1.0891540476	-0.197273
C	 2.8304795847	 0.024375895	-0.1943623014	 0.026419
N	 2.351017259	 0.1438585506	 0.9793674779	-0.185873
C	 1.1148167729	-0.6464168434	 0.9424155994	-0.108731
C	 1.2974135456	-1.6842201394	-0.2192524996	 0.34982
C	 1.370614486	-3.1767764556	-0.1748572085	-0.522837
H	 0.9993909855	 2.0758452818	-0.2663261458	 0.129394
H	-0.6614017987	 1.9398970481	-0.8627670861	 0.112641
H	-0.3477334228	 2.0433598405	 0.8764279361	 0.120875
H	-0.8992532909	-0.3041319773	 0.2093672318	 0.087
H	 0.244348944	-0.860866804	-2.1407148702	 0.100386
H	 3.7048604226	 0.5610265131	-0.5496404981	 0.124122
H	 0.769083061	-0.9530095578	 1.92767229	 0.076008
H	 0.457518412	-3.5990318498	 0.2582571723	 0.124265
H	 1.4934020636	-3.5809431928	-1.1834779901	 0.136896
H	 2.2183919605	-3.5102237787	 0.4334263713	 0.133192
