16
gdb 296	5.16119	3.14248	2.83176	1.888	56.09	-0.2425	0.0728	0.3154	569.1031	0.142192	-271.618179	-271.611373	-271.610429	-271.649191	24.362	
C	-0.139018086	 1.5613656483	 0.0027949064	-0.45198
C	 0.0042519596	 0.0424352889	 0.0076115731	 0.302872
C	-1.3305600456	-0.6526564399	-0.2518782314	-0.446742
C	 1.1828857768	-0.5175341371	-0.8336593804	-0.10228
O	 1.804538021	-1.1012721194	 0.3275065255	-0.272829
C	 0.8025277079	-0.5469571551	 1.2017025649	-0.10228
H	 0.8209349068	 2.0535677123	 0.1893042098	 0.118079
H	-0.5173318416	 1.9178052308	-0.9622069456	 0.115711
H	-0.8420992468	 1.8926834155	 0.7756496002	 0.115711
H	-1.7428688294	-0.3616221069	-1.2248111877	 0.114743
H	-1.2181655658	-1.7416625455	-0.2466202427	 0.121107
H	-2.0678563856	-0.3867667264	 0.5142776803	 0.114743
H	 0.920379036	-1.2738520708	-1.5846780348	 0.094723
H	 1.8221631063	 0.2421349633	-1.3039546894	 0.09185
H	 1.2248985449	 0.1959325325	 1.892114172	 0.09185
H	 0.2905149215	-1.3225763205	 1.7858372696	 0.094723
