17
gdb 79377	2.43462	1.87171	1.21544	1.3274	80.51	-0.2172	0.0187	0.2359	1026.0387	0.134937	-380.709652	-380.701891	-380.700947	-380.741553	30.778	
C	 0.0719559167	 1.463752726	-0.3824312664	-0.338142
N	 0.0404496103	 0.0275470194	-0.1137630371	-0.110486
C	-1.0414440235	-0.4607448844	 0.7819242317	-0.090406
C	-0.1662639277	-1.6587046696	 1.2596654352	-0.049539
N	-0.3304922991	-1.4278147164	 2.7259007342	-0.375859
C	-0.3349085054	-0.0351652564	 2.1548394018	 0.291477
C	-0.4979081437	 1.1283741528	 2.9676812478	 0.07623
C	-0.6534441551	 2.0993116471	 3.6622815153	-0.387201
C	 0.7772680928	-0.4396835883	 1.0902307681	-0.060596
H	 1.0429711142	 1.7229262543	-0.8166846292	 0.122242
H	-0.6979765451	 1.7037092649	-1.1228508898	 0.120833
H	-0.0907852533	 2.0928898267	 0.50544314	 0.119215
H	-2.1038574612	-0.4276391101	 0.5295976769	 0.087804
H	-0.0665805436	-2.6403510742	 0.8015206694	 0.095832
H	-1.2768312449	-1.6800984715	 3.0238227759	 0.213406
H	-0.7831566249	 2.959587234	 4.2714452728	 0.185744
H	 1.8595161534	-0.3891009041	 1.2098166935	 0.099445
