18
gdb 98895	3.11432	1.15472	0.99829	4.492	69.26	-0.2343	0.0242	0.2585	1246.0141	0.147902	-476.246647	-476.237486	-476.236542	-476.282355	31.682	
C	-0.4655449236	 1.2281084606	-0.3230795017	-0.333209
N	-0.2416577641	-0.1989984429	-0.4299137941	-0.305025
C	 0.875414823	-0.7208321126	-0.9938920217	 0.35696
O	 1.7744627541	-0.079632227	-1.5042424024	-0.376233
C	 0.943484131	-2.2657843435	-0.9864363054	 0.126873
O	-0.0568942338	-2.8302002124	-0.1476930766	-0.282488
C	-0.7582371942	-3.8160981832	-0.9080051574	-0.091473
C	-0.5641991879	-3.3213652122	-2.337269898	-0.099432
O	 0.7506406281	-2.7825228885	-2.2900111678	-0.24582
H	 0.3434538608	 1.7264674297	-0.8590975569	 0.170337
H	-1.4233670033	 1.5127437599	-0.7716794742	 0.125115
H	-0.4573683906	 1.5590138958	 0.7218484813	 0.127348
H	-0.8488725571	-0.8512159926	 0.0405347559	 0.255692
H	 1.9495610799	-2.5567541739	-0.6597295629	 0.110455
H	-0.3079425209	-4.8065076732	-0.7597404277	 0.113788
H	-1.7985712889	-3.8371734822	-0.5748944688	 0.117478
H	-0.5828788467	-4.1113331437	-3.0909007092	 0.123593
H	-1.3043579158	-2.5513529281	-2.5987461124	 0.106042
