14
gdb 967	3.69883	3.29997	1.7675	1.5911	60.16	-0.1802	0.0407	0.2209	693.8386	0.11402	-324.606601	-324.599633	-324.598689	-324.637445	25.302	
C	-0.0190985432	 1.537497028	 0.0470376056	-0.512295
C	 0.0203531582	 0.0407583476	 0.0192763517	 0.186195
C	 0.0464914441	-0.7733223459	-1.0774769058	 0.281845
N	 0.1245046805	-0.5317870873	-2.4457223307	-0.594275
O	 0.0794213879	-2.0806391883	-0.7215949316	-0.172859
C	 0.0732773431	-2.1182688778	 0.6516084652	-0.03137
C	 0.0464031665	-0.859525337	 1.1457389195	-0.251167
H	 0.9658847605	 1.9817430744	 0.238964796	 0.129421
H	-0.3767822285	 1.9508549464	-0.9031820447	 0.106595
H	-0.694443309	 1.9025947423	 0.8283511077	 0.126893
H	-0.1237319143	 0.4204436561	-2.6787904711	 0.250518
H	-0.4363293466	-1.1805781995	-2.9856684191	 0.252649
H	 0.0847350146	-3.1020168806	 1.0878179799	 0.127167
H	 0.0329069961	-0.5817134083	 2.1890797573	 0.100681
