15
gdb 133116	2.58952	1.57973	0.9875	3.1887	72.49	-0.2266	-0.0198	0.2068	1123.4999	0.113844	-458.147055	-458.138971	-458.138027	-458.180444	28.827	
C	-0.0035675581	 1.4671795136	 0.0254479296	-0.316273
N	-0.0512041323	 0.0197338332	-0.0464770373	-0.365501
C	-1.2100295458	-0.6809216428	-0.0173667367	 0.32931
N	-2.3820453771	-0.0372346425	-0.0315467432	-0.341507
C	-3.4850761881	-0.7918220288	-0.0249479354	 0.06573
N	-3.5698918139	-2.1156711223	 0.0023542441	-0.274763
C	-2.3888486411	-2.7653472919	 0.0238513115	-0.086443
C	-1.1982460095	-2.0914651117	 0.0138191713	 0.160249
F	-0.0134611866	-2.7264169651	 0.0368939017	-0.087867
H	 1.0154057664	 1.7932820665	-0.1915449255	 0.127026
H	-0.6827002327	 1.9021089938	-0.7110826736	 0.156523
H	-0.2951224438	 1.8438209687	 1.0138119589	 0.134679
H	 0.7975975292	-0.5063325627	 0.0696199823	 0.258897
H	-4.4263015902	-0.2471857375	-0.0408225768	 0.115173
H	-2.4024714564	-3.8518598903	 0.0497038293	 0.124766
