18
gdb 104545	2.44248	1.30867	1.0372	2.699	80.23	-0.2652	0.0136	0.2788	1220.2688	0.14534	-401.921409	-401.912211	-401.911267	-401.955383	34.435	
C	-0.0563586759	 1.6358961158	 0.0994538565	-0.391081
C	 0.1904115112	 0.1304905382	 0.2168811219	-0.229186
C	 0.6805845558	-0.5090639479	-1.0822491475	 0.208858
C	 0.5583524102	-2.0595952745	-1.1635513641	-0.415091
C	-0.5025114884	-1.7738506213	-2.2006712541	 0.437107
N	-1.2638573843	-2.4814723529	-2.8997842636	-0.54059
O	-0.3648136662	-0.4023018684	-2.1340163212	-0.275066
C	 1.9440454376	 0.0375919274	-1.5504946098	 0.33318
C	 3.0020754907	 0.4735174591	-1.917385927	-0.461003
H	 0.866485092	 2.1687427676	-0.1463458652	 0.132284
H	-0.7888762589	 1.844226847	-0.6852784849	 0.137549
H	-0.4409403988	 2.0361253173	 1.0415819759	 0.117185
H	 0.9335996569	-0.0802012379	 0.9952429662	 0.114114
H	-0.7339215744	-0.3826884341	 0.5060243281	 0.108819
H	 1.4385855643	-2.578453051	-1.5426640838	 0.147379
H	 0.2025851638	-2.5433990126	-0.2524680039	 0.139135
H	-1.8547188771	-1.9077885888	-3.5040699519	 0.229358
H	 3.9332823314	 0.8616713168	-2.2503777118	 0.207052
