16
gdb 83456	3.0547	1.13459	1.02686	4.0413	68.41	-0.2528	0.0194	0.2722	1178.2532	0.123737	-437.84189	-437.833641	-437.832697	-437.875378	30.357	
O	-0.0646912969	 1.4217594453	-0.0157332124	-0.42883
C	-0.1044986416	 0.0364217381	-0.050856142	 0.084111
C	-0.4260470243	-0.7679002333	 1.1657747491	-0.038376
O	-1.3259941297	-0.011500158	 1.9850526323	-0.301685
C	-2.3508454615	-0.0693946414	 0.9464365291	-0.142434
C	-1.3963246804	-0.7710649142	-0.0141107449	 0.230702
C	-1.7729455766	-1.8467285786	-1.001808447	-0.464528
C	-2.5485366331	-1.3214783123	-2.1301242524	 0.267758
N	-3.1711590297	-0.8969973141	-3.0057577895	-0.300009
H	-0.3089265668	 1.6784866553	 0.8841037755	 0.300196
H	 0.6536199856	-0.3846521536	-0.7071601856	 0.112609
H	 0.1810379746	-1.5271659704	 1.647297646	 0.113887
H	-3.1860212198	-0.6951277601	 1.2780051122	 0.121484
H	-2.7108122263	 0.9229200415	 0.6577917813	 0.13099
H	-0.8726749245	-2.3326016221	-1.3952664311	 0.157578
H	-2.364927539	-2.6333451419	-0.5167053006	 0.156548
