19
gdb 82864	2.52856	2.07493	1.77002	2.0032	72.68	-0.2415	0.0826	0.3241	877.5449	0.163218	-423.025269	-423.01885	-423.017905	-423.055627	27.894	
O	 0.1219438211	 1.3907329203	 0.141593432	-0.452893
C	 0.0049922075	-0.0099328401	 0.0318910633	 0.162054
C	-1.4583980114	-0.5542006226	-0.1088515401	-0.079497
C	-2.2287785182	 0.2842973312	-1.1561064132	-0.245796
C	-1.4373009214	-0.4982870532	-2.2241358311	 0.108312
O	-0.0936887301	 0.0169375844	-2.3478169329	-0.304364
C	 0.6453566642	-0.5690090746	-1.2553931138	 0.039933
C	 0.2032426965	-2.0333891326	-1.2605064095	-0.24446
C	-1.278033436	-1.675718574	-1.2046252991	-0.050193
H	 0.0211144282	 1.7388144286	-0.7533988898	 0.286427
H	 0.4858261326	-0.4301353247	 0.9213781965	 0.082587
H	-1.9364878538	-0.7823784479	 0.8439451595	 0.065627
H	-3.2904565539	 0.02066782	-1.1806648294	 0.099108
H	-2.1284197564	 1.3718774521	-1.1321568084	 0.097779
H	-1.8452337755	-0.641218823	-3.226533887	 0.073716
H	 1.7019746956	-0.3384168001	-1.3930990874	 0.078318
H	 0.4950603145	-2.5590405311	-2.1735189929	 0.106876
H	 0.5570988246	-2.5902769291	-0.3882306815	 0.103408
H	-2.0247250578	-2.4663037636	-1.2459356252	 0.073056
