14
gdb 75690	3.04296	1.3178	1.09205	2.9877	63.62	-0.2583	-0.066	0.1923	1073.9542	0.098558	-473.7942	-473.785868	-473.784924	-473.827533	29.495	
O	 0.1012636802	 1.5440367264	 0.0097259977	-0.421398
C	 0.0123331951	 0.145543043	-0.0020625847	-0.103068
C	 0.1070317007	-0.6268867024	 1.3356465133	 0.375204
O	 0.9167849653	-0.7373443324	 2.1995366334	-0.286924
N	-1.1783712023	-1.2928407958	 1.1857069895	-0.18936
C	-2.1665380519	-0.1849801803	 1.137071961	-0.269935
C	-1.3978959851	-0.4175819023	-0.1005612156	 0.225205
C	-2.0106864328	-1.0437851024	-1.3027665561	 0.079432
O	-3.1051930884	-1.5465606133	-1.3036178582	-0.240798
H	 0.9970020032	 1.7859320522	 0.2716983671	 0.304503
H	 0.6771788882	-0.3162484969	-0.7495988112	 0.112177
H	-3.1875630938	-0.5499578495	 1.1371452124	 0.169196
H	-1.9760571316	 0.7141574391	 1.715271642	 0.155541
H	-1.3783588968	-1.0166178955	-2.2161192704	 0.090224
