15
gdb 127826	4.53797	1.0939	0.88723	3.8292	72.34	-0.2483	-0.0561	0.1922	1251.9776	0.113173	-450.128603	-450.120322	-450.119377	-450.161917	29.618	
C	-0.0717349005	 1.3866137054	 0.0662828605	-0.343236
N	-0.0589587081	-0.0625273137	 0.0341400988	-0.271205
C	 0.5584761066	-0.6181459586	-0.9350118138	 0.250606
N	 1.2532292364	-0.0216195948	-1.9625923467	-0.566772
C	 0.6008622281	-2.0936671054	-1.0004085573	 0.461401
N	 1.1108103449	-2.8048683947	-1.9690181323	-0.339434
C	 0.8788349641	-4.0808857594	-1.5283627415	 0.034948
N	 0.2720386153	-4.1647477758	-0.3757525113	-0.103364
O	 0.0837336192	-2.8283516916	-0.0156367522	-0.183261
H	 0.9444476008	 1.810803565	 0.0730306342	 0.121924
H	-0.6007007658	 1.8171169827	-0.8002769421	 0.112917
H	-0.5881562224	 1.7261853416	 0.9664530493	 0.134529
H	 1.0383009769	 0.9359725475	-2.184308823	 0.2625
H	 1.5131838651	-0.6145495636	-2.7360751878	 0.276232
H	 1.1668202795	-4.9655182047	-2.0771017948	 0.152214
