19
gdb 15072	2.4296	1.93173	1.19867	3.5768	72.96	-0.2376	0.0289	0.2666	1046.6605	0.164921	-365.070343	-365.061573	-365.060629	-365.1044	31.553	
C	-0.4827382733	 1.1405530273	 0.538784455	-0.373971
C	 0.2704529926	-0.1437755765	 0.1820820546	-0.155285
N	 0.6504754904	-0.2623626905	-1.2248111908	-0.050018
C	 1.9797938428	-0.2583604403	-1.5640162307	 0.150443
O	 2.4524763147	-0.4838953053	-2.6557172285	-0.336696
C	-0.3669065046	-0.6768461971	-2.1530937455	 0.041752
C	-1.3999409706	 0.3093128764	-2.6650551815	-0.273489
C	-0.336984033	-0.2276289383	-3.583830471	-0.26572
H	 0.1060895926	 2.0231926163	 0.2711565265	 0.123515
H	-1.4450179496	 1.1998369356	 0.0258813535	 0.133833
H	-0.6740464812	 1.1702059005	 1.6163341547	 0.118424
H	 1.1879634363	-0.2034449175	 0.7765175137	 0.114986
H	-0.335364186	-1.0181631859	 0.4552387068	 0.109119
H	 2.6086257349	 0.0048917958	-0.6885849793	 0.067699
H	-0.7274667842	-1.6880775803	-1.9676540439	 0.096749
H	-2.4214618007	-0.039360896	-2.7705526233	 0.113149
H	-1.3042377789	 1.3418297382	-2.3516121986	 0.119365
H	 0.4655794931	 0.4331411044	-3.8787766184	 0.146733
H	-0.6111549152	-0.9599798868	-4.3342967732	 0.119409
