14
gdb 29896	3.35423	1.49403	1.04034	5.1981	68.1	-0.2682	-0.0589	0.2093	1066.2587	0.102236	-470.068671	-470.060965	-470.060021	-470.101418	27.707	
C	 0.3019198844	 1.4185747053	 0.0214942999	-0.327298
N	-0.0183331558	-0.0061399604	 0.0124460928	-0.109744
C	-0.3743989413	-0.664107487	-1.1163419036	 0.120588
N	-0.6730917469	-1.9139080322	-1.2200568786	-0.353508
C	-0.6326858213	-2.6823738404	-0.073832154	 0.445621
O	-0.8769026201	-3.8440188411	 0.0080328492	-0.309809
O	-0.2625608951	-2.0253426879	 1.1342496386	-0.25368
C	 0.0478217829	-0.7088561197	 1.2212267696	 0.483417
N	 0.3771265565	-0.1158294663	 2.2861712928	-0.564225
H	 1.3225984039	 1.5703734225	 0.3775067262	 0.167911
H	 0.1996505237	 1.8019073006	-0.9948992379	 0.139118
H	-0.3761048848	 1.9502336806	 0.6917188082	 0.167923
H	-0.4016283891	-0.0451542848	-2.0114318671	 0.148194
H	 0.3765518428	-0.7657724791	 3.0696500939	 0.245491
