20
gdb 114989	3.61521	1.02874	0.84084	1.1193	76.55	-0.2508	0.0196	0.2704	1381.9332	0.171709	-440.303172	-440.294226	-440.293282	-440.336958	33.576	
C	-0.0223426201	 1.526006462	 0.0872139613	-0.385795
C	 0.0544888283	 0.0006610278	 0.012469778	 0.049413
C	 0.6873413203	-0.4899167037	-1.2984961935	-0.241404
C	 0.9603150462	-1.9851979657	-1.2098689646	 0.10364
C	 1.7537999301	-2.5563867923	-2.3778230906	-0.071883
O	 1.9839538042	-3.9416771464	-2.2350383285	-0.422373
O	 1.7443187914	-2.2840013198	-0.0303242971	-0.259097
C	 1.5212345518	-1.5086778928	 1.0609292209	 0.126707
N	 0.7779510662	-0.4964919057	 1.1875315074	-0.273269
H	 0.9803299908	 1.963522553	 0.0400369829	 0.117788
H	-0.6152130774	 1.9298224509	-0.7400569875	 0.106653
H	-0.4790853828	 1.8336454321	 1.0311651858	 0.127388
H	-0.9704803409	-0.3932828322	 0.0748761671	 0.088501
H	 0.0337716144	-0.2831362941	-2.1526063425	 0.10798
H	 1.6313167754	 0.0430729078	-1.4701352457	 0.107932
H	 0.0182075881	-2.5420067709	-1.1157005506	 0.095753
H	 1.1835730959	-2.4206087315	-3.3027539196	 0.11249
H	 2.6963952418	-1.9936985426	-2.4756484389	 0.092867
H	 2.4006762769	-4.0613360676	-1.3740083997	 0.292677
H	 2.1070807294	-1.8812642481	 1.8998391052	 0.124033
