14
gdb 75664	2.98978	1.30377	1.10503	1.4433	68.19	-0.269	-0.0604	0.2086	1086.061	0.098981	-436.667262	-436.65917	-436.658226	-436.700153	29.269	
C	-0.0527849164	 1.5938879467	 0.0725161385	-0.419757
C	 0.0237039522	 0.0775834593	-0.0179483	-0.199671
C	 1.1095913961	-0.5932051311	-0.9217933173	 0.430033
O	 1.3140962602	-0.6017822807	-2.0948800584	-0.280944
C	 1.7110772004	-1.3335519403	 0.279057073	-0.181375
O	 2.0366330121	-0.2885310867	 1.2155395762	-0.258033
C	 0.6738182194	-0.7028551774	 1.1483672092	 0.316311
C	 0.0435115492	-1.2347171964	 2.3157130318	 0.207397
N	-0.509877058	-1.6444007162	 3.2444325415	-0.325366
H	 0.8972874903	 2.0078609366	 0.4180475692	 0.145728
H	-0.2728291668	 2.012379693	-0.9136599115	 0.145852
H	-0.8440023799	 1.9079513208	 0.7594620922	 0.138515
H	-0.9431026135	-0.3625903163	-0.2914936818	 0.129954
H	 2.2336022846	-2.2780902814	 0.3734799372	 0.151356
