21
gdb 110527	3.50313	1.127	1.07176	1.1891	81.91	-0.2302	0.0744	0.3046	1242.3746	0.182757	-387.036203	-387.027715	-387.026771	-387.069233	33.564	
C	 0.0400950884	 1.5177112369	-0.1378415412	-0.377096
C	-0.0786872301	-0.002761715	 0.0135491569	-0.213322
C	 0.7406242511	-0.5499283935	 1.1785690507	 0.055265
C	 0.8966710766	-2.054105531	 1.404391131	-0.14575
C	 2.147671914	-2.5317152243	 0.5984515077	-0.152255
C	 2.7365683017	-1.3035150622	-0.0896198009	-0.2316
C	 2.3052675372	-0.5007061438	 1.1683019003	-0.159581
C	 2.2729446389	-1.893714339	 1.9606325488	 0.375285
O	 2.7620159906	-2.311091685	 3.1701209673	-0.45591
H	 1.0744364666	 1.8173310629	-0.3392014414	 0.116318
H	-0.5785221142	 1.8875569687	-0.9613746084	 0.110024
H	-0.2794307262	 2.0321820323	 0.7755863449	 0.112813
H	-1.1307555625	-0.2740865449	 0.174068497	 0.092288
H	 0.2143796831	-0.4943010763	-0.9208989602	 0.097204
H	 0.393444362	-0.0923864486	 2.1136429301	 0.071873
H	 0.1478464653	-2.7753538649	 1.7076149441	 0.083922
H	 2.2494404706	-3.5767894787	 0.3344924809	 0.083755
H	 3.8261049737	-1.3748014777	-0.1623493343	 0.090408
H	 2.3340071979	-0.9886195207	-1.0578835598	 0.091044
H	 2.8349651645	 0.4034396914	 1.462341163	 0.066401
H	 3.7120713209	-2.4514744569	 3.0855743738	 0.288911
