21
gdb 91337	2.89904	1.29739	1.0804	1.9981	84.31	-0.2293	0.0186	0.2479	1208.5284	0.183652	-387.100974	-387.092588	-387.091644	-387.133795	33.258	
C	-0.0338729168	 1.5026945313	-0.0301287202	-0.489313
C	 0.0347725407	 0.0078938896	-0.0398921844	 0.330121
C	-0.0968914421	-0.800248283	-1.0992159233	-0.207508
C	 0.0045131832	-2.2603667038	-0.7543564787	-0.101009
C	 1.3650567708	-2.9398549074	-1.1167259191	 0.155725
O	 2.0763723983	-2.4983580091	-2.2446541061	-0.431469
C	 1.8953228983	-2.5899436788	 0.3022088076	-0.278731
C	 0.4492834323	-2.2226974655	 0.748850965	-0.012088
C	 0.2365180233	-0.7807667591	 1.2416332622	-0.314372
H	 0.8957195782	 1.9395588656	 0.3569011007	 0.125276
H	-0.2112390446	 1.9091532144	-1.0295053995	 0.123333
H	-0.8370836622	 1.8556657825	 0.6295342245	 0.126935
H	-0.2845291543	-0.4512543517	-2.1104237565	 0.089399
H	-0.8906806637	-2.8244254575	-1.0376601413	 0.065881
H	 1.2438755375	-4.0189157535	-1.2478253642	 0.085581
H	 2.1412838884	-1.5383281785	-2.1813306287	 0.275972
H	 2.4022993307	-3.3893911387	 0.8476648808	 0.099215
H	 2.5546294191	-1.715549344	 0.2822703103	 0.091427
H	-0.0061679694	-2.9754831369	 1.3933615912	 0.065389
H	 1.0924165933	-0.4133558706	 1.8246003963	 0.099389
H	-0.6418516408	-0.6809804153	 1.8955542534	 0.100846
