21
gdb 94837	3.66249	1.18776	1.04335	1.5225	79.26	-0.2554	0.0876	0.343	1231.8568	0.183264	-424.223739	-424.215338	-424.214394	-424.256412	33.122	
C	 0.0867553878	 1.4992549067	 0.008734431	-0.409144
C	 0.0409865091	-0.0127411593	 0.0012303251	 0.229811
O	 0.6645118559	-0.4695397656	-1.1783971577	-0.249426
C	 0.6630916622	-1.8896442468	-1.2577374315	-0.165109
C	 1.3198770223	-2.4857529875	-0.0298365799	 0.358515
C	 1.7912616342	-3.9125272055	-0.0440610122	-0.327817
C	 2.7947466586	-2.7817672639	-0.0519054191	-0.292375
C	 0.6975198949	-1.9029936019	 1.2221683493	-0.16511
O	 0.6969530582	-0.4821169662	 1.1581065888	-0.249426
H	 1.1277730684	 1.8309241381	-0.0038872383	 0.135273
H	-0.423434492	 1.8925127723	-0.8733279375	 0.124509
H	-0.3987717975	 1.882925794	 0.9087564524	 0.124508
H	-1.0036059894	-0.3864902222	 0.0137223565	 0.047743
H	-0.3753167055	-2.2555342428	-1.344861848	 0.086154
H	 1.1956355912	-2.1561523464	-2.1751993975	 0.104665
H	 1.6822337103	-4.497032116	 0.8643113013	 0.112255
H	 1.6569712322	-4.4872346564	-0.9552969427	 0.112255
H	 3.3412502377	-2.5892634814	-0.9692248494	 0.11595
H	 3.3665316626	-2.5990626679	 0.8519085329	 0.11595
H	-0.3381253433	-2.2699521309	 1.3341428133	 0.086154
H	 1.2552867821	-2.1792811403	 2.121572113	 0.104665
