20
gdb 62219	4.62641	0.56695	0.55381	3.385	84.02	-0.2431	0.0276	0.2707	1996.7248	0.168502	-403.141384	-403.130736	-403.129792	-403.178501	36.922	
C	-0.1968335012	 1.4232456178	 0.038606538	-0.350176
N	 0.0237392327	-0.0105878255	-0.0483133723	-0.031588
C	-0.0247100988	-0.8067615965	 1.1638725798	-0.182191
C	-1.4384967408	-0.9922576324	 1.7329223927	-0.181765
C	-1.4245537115	-1.8382571555	 3.0217204491	-0.352153
C	-2.753438195	-2.0237523191	 3.590262084	 0.28683
C	-3.8598967201	-2.1618268376	 4.03846023	-0.425241
C	 0.3054486022	-0.5771901311	-1.2577835738	 0.151892
O	 0.367391426	 0.0091851043	-2.317539109	-0.340848
H	 0.4905514009	 1.8726186407	 0.7654601168	 0.122988
H	-0.0128500247	 1.845509388	-0.9493214225	 0.170777
H	-1.2233319953	 1.6584954599	 0.3410510006	 0.130252
H	 0.4093448358	-1.7877326202	 0.9382134918	 0.117957
H	 0.6214764263	-0.3424634617	 1.9228988519	 0.108391
H	-1.8907752132	-0.019708844	 1.951536716	 0.119875
H	-2.0728294606	-1.4751149097	 0.9822085249	 0.12202
H	-0.9765188137	-2.8190775552	 2.8127903226	 0.133091
H	-0.772467302	-1.361112561	 3.7656455753	 0.132657
H	-4.8330959846	-2.2909811266	 4.4428771756	 0.197466
H	 0.4808705376	-1.6674719148	-1.1644626117	 0.069765
