18
gdb 11548	5.99671	0.9801	0.93061	1.5127	68.77	-0.2655	0.0191	0.2846	1293.7007	0.152526	-384.96239	-384.953498	-384.952554	-384.997337	30.837	
C	 0.2146758065	 1.2862504067	 0.234095917	-0.239225
O	 0.1212883741	-0.1193067182	-0.0277689536	-0.233857
C	 0.6459433615	-0.5226156911	-1.2046282152	 0.453026
O	 1.1760996425	 0.2243063144	-1.987573753	-0.356157
C	 0.4410273641	-2.013424793	-1.4019400492	-0.357323
C	 1.3569880151	-2.5951560237	-2.4528639274	 0.053809
C	 2.6983436168	-3.1594288195	-2.0621164963	-0.251993
C	 1.5894744217	-4.0822967256	-2.5081872551	-0.284674
H	 1.2597020841	 1.6053708611	 0.2608510255	 0.140276
H	-0.3052515494	 1.8592971384	-0.537996841	 0.139143
H	-0.2559854621	 1.4398286094	 1.2053405561	 0.131414
H	 0.56252345	-2.5179144871	-0.4378661036	 0.123158
H	-0.6130560008	-2.1534902795	-1.6808758146	 0.132977
H	 1.321365656	-2.0705384495	-3.4015410648	 0.102392
H	 3.5379420867	-2.9980752184	-2.7285290566	 0.11623
H	 2.9628937022	-3.1600952497	-1.0093880083	 0.108814
H	 1.1127403528	-4.7012708044	-1.7547349078	 0.108659
H	 1.669643228	-4.5546383003	-3.4809221822	 0.11333
