13
gdb 3649	6.64978	2.96368	2.10499	2.9336	60.06	-0.235	0.0333	0.2683	597.8768	0.105219	-303.481839	-303.476542	-303.475597	-303.51102	19.699	
C	-0.0418992969	 1.5256065994	 0.0284402766	-0.167944
C	 1.5374407132	 1.4174684831	-0.0316452238	-0.374679
C	 1.3317253318	-0.0208332289	 0.4327166895	 0.379739
C	 1.5982918658	-1.3195257259	 0.8254984708	-0.390064
C	 0.2940553468	-1.8368305286	 1.0657889308	 0.013597
N	-0.6962858422	-0.9525375442	 0.8465064928	-0.307302
N	-0.0001704951	 0.124113898	 0.4662904574	 0.095931
H	-0.4419999114	 2.2143101742	 0.7768162948	 0.135536
H	-0.5438498262	 1.6780593889	-0.9303293206	 0.135527
H	 1.9602582028	 1.5408746607	-1.0311109952	 0.132223
H	 2.0614989967	 2.0744639125	 0.665936238	 0.132229
H	 2.5389295249	-1.8329101028	 0.9309638707	 0.105188
H	 0.0399296396	-2.8344214264	 1.3946735981	 0.110018
