19
gdb 117287	4.64293	0.70585	0.61975	4.237	74.25	-0.2599	0.0104	0.2702	1792.7114	0.157364	-456.406866	-456.396371	-456.395426	-456.443763	36.433	
C	 1.2446783738	 1.4021186807	 0.4970972698	-0.385737
C	 0.8988768956	-0.0888300175	 0.5139073063	-0.155149
C	 1.0820574136	-0.741518464	-0.8563061817	-0.262985
C	 0.7520707615	-2.2098657151	-0.8830988902	 0.407886
N	 0.3602132355	-2.8725116609	 0.1078673806	-0.498025
O	 0.9670110076	-2.6676846905	-2.1995087995	-0.287386
C	 0.7573176266	-3.9674780002	-2.5751642239	 0.504736
N	 1.0964829989	-4.0997753225	-3.8845503868	-0.550792
O	 0.3571652709	-4.8644481414	-1.8705801948	-0.385168
H	 2.286569677	 1.5685649868	 0.20025635	 0.111492
H	 0.6100702721	 1.9528686775	-0.2067063503	 0.111174
H	 1.1069013911	 1.8487389736	 1.4863554071	 0.115145
H	 1.5201188357	-0.6149470314	 1.2457269117	 0.115834
H	-0.1344287015	-0.2357537762	 0.8441076888	 0.115493
H	 0.4603966956	-0.2416491325	-1.6117102206	 0.117448
H	 2.1151209705	-0.6209378867	-1.209984097	 0.118848
H	 0.1938861055	-3.8484302223	-0.1348714035	 0.260712
H	 1.2855354132	-3.2861089732	-4.4425760409	 0.271049
H	 0.8705639067	-4.9691073844	-4.334824255	 0.275424
