19
gdb 87593	3.32887	1.30805	1.2009	1.9519	81.91	-0.2287	0.0075	0.2361	1118.5365	0.160802	-382.024158	-382.016361	-382.015417	-382.056227	31.152	
C	-0.1041536584	 1.5115971964	-0.1078456157	-0.398086
C	-0.0062757988	 0.0138952404	 0.0534356641	-0.038291
N	 1.3218240596	-0.5946268874	-0.1183921545	-0.395043
C	 0.6606440399	-0.6536561176	 1.2078478154	 0.360338
C	 1.308871369	 0.0278202493	 2.367794594	-0.143289
C	 1.260301382	-0.7275380359	 3.470200604	-0.06741
C	 0.5295398841	-2.0025613803	 3.2048032898	-0.09664
N	-0.8974994264	-1.7773629823	 2.8175240758	-0.335951
C	 0.1363065428	-1.9555491361	 1.7720819084	-0.16438
H	 0.7951430951	 2.0056323837	 0.267217286	 0.125749
H	-0.2135792181	 1.7772128477	-1.1649915607	 0.118091
H	-0.9713771891	 1.9045676019	 0.4328595044	 0.123826
H	-0.856453041	-0.5355194945	-0.3511693095	 0.080681
H	 1.250036099	-1.4995941061	-0.5796316562	 0.224724
H	 1.740035012	 1.0177787174	 2.2938527884	 0.104011
H	 1.6547237461	-0.4571960457	 4.4417894706	 0.101112
H	 0.7885068053	-2.9222854797	 3.7180752432	 0.090749
H	-1.3986963788	-2.6602396648	 2.915407524	 0.225622
H	 0.1050886155	-2.8394713264	 1.1412379585	 0.084187
