20
gdb 111587	3.21375	1.41686	1.28781	2.6074	77.12	-0.213	0.063	0.276	1057.4342	0.173222	-403.074476	-403.066929	-403.065984	-403.106544	30.268	
O	 0.0781754615	 1.4781581244	 0.3867338221	-0.427943
C	 0.1360211265	 0.1487885862	-0.1070335274	-0.081531
C	-1.2107690464	-0.531121881	 0.0346407553	 0.040928
C	-1.4610306094	-2.0260600418	-0.2498267069	-0.093064
C	-0.4851651428	-3.0003867357	 0.4668000348	-0.240915
C	-1.1853209321	-2.7227061791	 1.8224582863	-0.041716
C	-0.836062788	-1.3361470427	 2.3867351456	-0.184006
N	-1.7760082526	-0.6326621737	 1.4391254012	-0.190306
C	-2.3357825884	-2.0045716466	 1.0465580591	 0.013144
H	-0.4803805145	 1.459646983	 1.1729365988	 0.295287
H	 0.4100136002	 0.2085176007	-1.1671624354	 0.106259
H	 0.9299516837	-0.4245338302	 0.3954594354	 0.084889
H	-1.9408417599	 0.0646825877	-0.5278215118	 0.090741
H	-1.812680809	-2.302244669	-1.2448008116	 0.069285
H	-0.675495093	-4.0259819007	 0.1375057111	 0.105916
H	 0.5908221083	-2.812063906	 0.3994632142	 0.097569
H	-1.313936756	-3.5541385153	 2.5163005261	 0.068819
H	-1.2067371467	-1.1917645873	 3.4067433904	 0.108782
H	 0.2104228145	-1.0158013535	 2.3547696864	 0.104902
H	-3.4071364659	-2.1867369193	 1.1216014864	 0.07296
