18
gdb 86167	2.76675	1.19698	0.89886	3.9557	81.57	-0.2674	-0.0452	0.2222	1294.7956	0.147753	-401.98292	-401.974009	-401.973065	-402.016734	32.942	
C	-0.0358336936	 1.5753690921	-0.0573449523	-0.400967
C	 0.0424925928	 0.0458809262	 0.0157676656	-0.023838
C	 0.7836984193	-0.6152741338	-1.1760073452	-0.241831
C	 1.5597968373	-1.8166358453	-0.6042152961	 0.012235
O	 2.8217372247	-1.9042893396	-1.2371212195	-0.421825
C	 1.6292298819	-1.478271212	 0.8855486865	 0.177797
C	 0.8053454404	-0.4752830222	 1.2088612474	-0.161306
C	 2.4723211264	-2.2145925139	 1.7585222192	 0.190773
N	 3.1847320708	-2.8555610762	 2.4105010787	-0.339718
H	 0.9659022124	 2.0159423915	-0.0922700789	 0.127114
H	-0.5757095097	 1.8919858572	-0.9551760168	 0.12437
H	-0.5592247007	 1.988910576	 0.8108087904	 0.119687
H	-0.9859724221	-0.3421172765	 0.0734983795	 0.097134
H	 0.1159245547	-0.8961289298	-1.9928404789	 0.109929
H	 1.5302054253	 0.079030758	-1.5757511487	 0.1275
H	 1.0036619858	-2.7584671092	-0.7359205191	 0.086152
H	 3.2724909053	-2.6930505372	-0.9158651177	 0.29574
H	 0.6698822391	-0.0837330354	 2.2113767159	 0.121055
