14
gdb 33436	2.20403	1.98551	1.176	5.0298	72.51	-0.2702	-0.0076	0.2626	1001.3235	0.099249	-399.442962	-399.435323	-399.434379	-399.475001	29.151	
C	-0.0805322142	-1.2474406727	-0.0984836071	-0.390065
C	-0.0525879911	-0.0474594137	-0.0505975336	 0.191029
C	-0.0178421923	 1.4014242402	 0.008140228	 0.063069
C	-0.9881264776	 2.0086249225	-0.9011394397	 0.236604
N	-1.7679109269	 2.445336868	-1.6328087207	-0.327549
C	 0.1338665325	 2.1403587463	 1.3986401229	 0.025783
C	 1.5778553975	 1.6072910079	 1.5249516431	-0.249617
C	 1.3654091857	 2.1634757487	 0.099909667	 0.025783
O	 0.6528592503	 3.3141381958	 0.6781910693	-0.29515
H	-0.1103906511	-2.308589741	-0.1457331372	 0.207886
H	-0.6438697799	 2.2943574847	 2.1449517006	 0.12646
H	 2.2238319579	 2.2233866346	 2.1484759572	 0.128201
H	 1.7332390734	 0.5364037468	 1.6532351181	 0.131104
H	 2.0664108859	 2.3452331419	-0.7131900479	 0.12646
