15
gdb 69015	2.75678	1.40106	1.17119	4.2039	73.76	-0.2576	-0.0139	0.2437	1075.9308	0.11003	-420.594605	-420.586194	-420.58525	-420.627609	31.225	
C	-0.0325706975	 1.5827789615	 0.0539480575	-0.489808
C	 0.0231294172	 0.0865037059	 0.0102829652	 0.021688
C	-0.9061018634	-0.8499797606	 0.7887599577	-0.366326
C	 0.5723260365	-0.9640148677	 0.976579355	 0.268782
O	 1.1041556832	-1.7496734873	-0.1401160016	-0.293019
C	 0.7071146726	-0.7631751878	-1.0346082144	 0.442022
O	 0.9373461299	-0.708707925	-2.1974583604	-0.322776
C	 1.3278651562	-0.8519613004	 2.1672396289	 0.229469
C	 1.9588640427	-0.7509534683	 3.1858350776	-0.404381
H	 0.9349154076	 2.0214411541	-0.2058521233	 0.144789
H	-0.777335853	 1.9615692064	-0.653282773	 0.145963
H	-0.3091592312	 1.9300188493	 1.0535784029	 0.134664
H	-1.4531578143	-0.3612454033	 1.5893742952	 0.142479
H	-1.4283434933	-1.6605742358	 0.2905685004	 0.141551
H	 2.5212750469	-0.6672583009	 4.0831487525	 0.204902
