19
gdb 69661	4.05875	1.12007	1.03703	2.5291	75.09	-0.243	0.0726	0.3155	1188.0745	0.158679	-422.964844	-422.956599	-422.955654	-422.997945	31.743	
O	-0.1569209077	 1.4533469192	-0.0110499216	-0.462584
C	-0.0725301844	 0.0739659117	 0.0283513444	 0.413492
C	-0.2961411142	-0.7898172601	-1.1785694547	-0.349327
C	-1.2247755514	-0.9179694254	 0.0152187778	-0.189588
C	-0.5452023169	-1.7482310263	 1.1034299978	 0.322477
C	-1.3099017197	-2.1108450051	 2.392050153	-0.14009
O	-1.1223873516	-3.5209727205	 2.1645058788	-0.275234
C	-0.3467038423	-3.2729071639	 0.9736964915	-0.131248
C	 0.6255094218	-0.716923986	 1.1430581952	-0.390515
H	 0.5728435004	 1.7880091576	-0.5438120001	 0.286423
H	-0.7329670757	-0.2672159518	-2.0237462396	 0.115935
H	 0.3879563389	-1.5937673111	-1.4441157868	 0.105106
H	-2.2911493635	-0.7463635317	-0.0735790911	 0.095958
H	-0.8373318802	-1.7766450706	 3.3258407205	 0.096897
H	-2.372058224	-1.8328991383	 2.4114324039	 0.101209
H	-0.7939520176	-3.736551398	 0.0849952957	 0.100892
H	 0.6880708842	-3.6258291251	 1.0797298397	 0.09598
H	 1.634354178	-1.0917602365	 0.9349541361	 0.091229
H	 0.635775556	-0.1633770483	 2.0859687796	 0.11299
