20
gdb 103565	2.36414	1.2109	1.13636	2.9956	75.69	-0.2486	0.021	0.2696	1230.0921	0.16862	-440.311963	-440.301779	-440.300835	-440.347043	37.12	
C	 0.0644185096	 1.4863717973	-0.2236002929	-0.401872
C	-0.0450179649	-0.0032441902	 0.1184327491	-0.187604
C	-1.4778748125	-0.5468858455	 0.1408980774	 0.30449
C	-2.3508449602	 0.0685791321	 1.2302403506	-0.445056
N	-2.1304526528	-0.5487445363	-1.197280824	-0.364531
C	-2.0664882872	-1.8985036733	-1.3929855383	 0.398288
O	-2.2613739759	-2.622436478	-2.3368978963	-0.38012
C	-1.5518676428	-2.1222424605	 0.0459674907	-0.078327
O	-0.3529482475	-2.8408731081	 0.1560571385	-0.427364
H	 1.1139672319	 1.7908484183	-0.2707615548	 0.123185
H	-0.3812678783	 1.7077449249	-1.2001288709	 0.108471
H	-0.427573868	 2.1202092823	 0.5204174929	 0.120521
H	 0.533309191	-0.5913240225	-0.5997812175	 0.105939
H	 0.4067359023	-0.1953105374	 1.0986906359	 0.108914
H	-2.4905925559	 1.14287143	 1.0753506714	 0.121492
H	-3.3403467969	-0.397763848	 1.2410090811	 0.121666
H	-1.8917863239	-0.0710539342	 2.2143139018	 0.127575
H	-2.33839897	 0.1999169892	-1.8431734548	 0.247867
H	-2.3193033976	-2.5295643547	 0.7175123297	 0.094012
H	-0.2924244804	-3.4116171654	-0.6191298994	 0.302454
