21
gdb 59432	3.19032	1.03398	0.90981	1.2396	79.26	-0.2534	0.0663	0.3197	1380.5367	0.180488	-424.198476	-424.188816	-424.187872	-424.233553	35.849	
C	 0.0465753449	 1.4104173332	-0.069398886	-0.410143
C	 0.0351048051	-0.0560998078	 0.3563909811	 0.107626
O	 0.6622112646	-0.2572407995	 1.6213159236	-0.430516
C	-1.3706830235	-0.6228294987	 0.376699583	-0.073761
O	-1.9614033873	-0.9134357049	-0.9012824247	-0.29677
C	-1.6804763669	-1.9956197309	-0.0238453407	 0.456098
C	-0.7279219311	-3.1592292203	-0.3151896535	-0.31038
C	-1.6208787472	-4.033375549	 0.6180230877	-0.21163
C	-2.7336237575	-2.943369367	 0.5532776088	-0.312964
H	 1.0695666179	 1.7957428591	-0.0863994343	 0.123909
H	-0.3932053063	 1.5223097045	-1.0647366669	 0.138412
H	-0.5410823505	 2.0220500392	 0.6274594618	 0.104833
H	 0.6281220044	-0.6423635548	-0.3531179818	 0.095399
H	 0.2491142693	 0.341166647	 2.2537067335	 0.279162
H	-2.0502376027	-0.1294099452	 1.0795253674	 0.077671
H	-0.7875906411	-3.4698310617	-1.3624421072	 0.112458
H	 0.3215009893	-3.0362989444	-0.0388450216	 0.117097
H	-1.8873078585	-5.0255655529	 0.2509024805	 0.104054
H	-1.1953549681	-4.1306193289	 1.6189955058	 0.11222
H	-3.2209341494	-2.6521822679	 1.487038775	 0.102909
H	-3.5026624854	-3.1775241488	-0.1889929016	 0.114318
