14
gdb 4516	3.72132	1.71506	1.18065	0.5265	60.51	-0.1588	0.0619	0.2208	942.9464	0.107097	-415.872417	-415.864174	-415.86323	-415.904386	30.5	
N	 0.0464350912	 1.4509522576	-0.1421471441	-0.618052
C	 0.0429775986	 0.0413886791	-0.0636307562	 0.195659
C	-1.0601746544	-0.7648300173	-0.0145964741	 0.219291
O	-2.3874756724	-0.4541783182	 0.0973353794	-0.442785
N	-0.6338514491	-2.0952818674	-0.0744849351	-0.348699
C	 0.7283609183	-2.1069387925	-0.1125368827	 0.389047
O	 1.3470023737	-3.3172109807	-0.1253964212	-0.438089
C	 1.1965506883	-0.8163700617	-0.1289334872	-0.377707
H	 0.7703970142	 1.8537543756	 0.442377028	 0.23672
H	-0.8456863205	 1.8221012579	 0.1662337211	 0.237889
H	-2.7666699186	-0.3434758446	-0.7836533466	 0.298341
H	-1.2108138683	-2.894972347	 0.1200791287	 0.262821
H	 2.2968321838	-3.1662397592	-0.1230723947	 0.304718
H	 2.2269849651	-0.5057371316	-0.2099711953	 0.080846
