20
gdb 93638	1.91151	1.62206	1.3459	3.9321	77.37	-0.2776	0.0186	0.2962	1106.1616	0.171406	-403.171772	-403.162611	-403.161667	-403.205797	33.944	
C	 0.633258201	 1.6372982966	-0.0347908934	-0.415418
C	 0.221972097	 0.1608571962	 0.0019336024	-0.028529
C	 0.9286120297	-0.667554681	-1.1063633842	-0.092729
O	 1.6030446187	-1.7635934448	-0.4724902372	-0.243243
C	 1.8552241522	-1.3991860638	 0.8660688366	-0.056984
C	 3.1039418993	-0.6072569672	 0.9849561018	 0.285411
N	 4.0752445908	 0.013848486	 1.0702888779	-0.34033
C	 0.5964997918	-0.6126935945	 1.3033782199	 0.009718
C	 0.7252223008	 0.1964363569	 2.5913320371	-0.429233
H	 1.7113291608	 1.763117087	 0.1048300822	 0.145191
H	 0.3724598747	 2.0750074585	-1.0041442666	 0.118581
H	 0.1197424904	 2.2190484007	 0.7360785775	 0.119257
H	-0.862610532	 0.1056877915	-0.1319399081	 0.084487
H	 0.23881157	-1.101460371	-1.8347013547	 0.115872
H	 1.6572197521	-0.0487999613	-1.6473737693	 0.112045
H	 1.9914741783	-2.3196218355	 1.4421052274	 0.129942
H	-0.1646384974	-1.3861328367	 1.4531649238	 0.094013
H	 1.5127403324	 0.951172481	 2.5257868744	 0.146412
H	-0.2154278106	 0.7050840995	 2.8225744642	 0.123711
H	 0.9608747299	-0.4580932979	 3.4368683083	 0.121825
