18
gdb 66475	3.51093	1.59139	1.45571	0.7883	74.45	-0.2163	0.0703	0.2867	958.1098	0.147836	-401.859237	-401.851991	-401.851047	-401.890272	30.	
C	-0.0219134667	 1.4689925548	 0.0434298652	-0.495926
C	 0.0301739279	-0.0303756719	-0.0371610002	 0.360207
C	 1.1180911373	-0.8041834571	-0.8166247216	-0.290471
C	 0.8076548974	-1.9031785729	 0.2096738418	-0.084198
N	 0.3846968504	-0.8391811959	 1.2459575746	-0.208861
C	-1.0245379121	-1.4077880176	 1.2898547842	-0.129903
C	-1.2659905401	-0.8581330814	-0.0958405718	-0.186711
C	-0.6843272232	-2.2618319445	 0.0998232313	 0.373206
O	-1.3025756279	-3.3586316792	-0.4540784671	-0.461829
H	 0.9551277865	 1.8762012038	 0.3208990453	 0.123631
H	-0.313697459	 1.8991339536	-0.921806128	 0.117888
H	-0.752798297	 1.7920900857	 0.7921602785	 0.124054
H	 0.9566538745	-1.0172211629	-1.8762241249	 0.102588
H	 2.1074715614	-0.3656354068	-0.6580495427	 0.107539
H	 1.5303287614	-2.6613779	 0.5156020968	 0.070047
H	-1.6445135892	-1.5223394876	 2.1700778317	 0.097072
H	-2.1947219651	-0.69675559	-0.6288276355	 0.091348
H	-1.1520388965	-4.1155381601	 0.1230732226	 0.290318
