20
gdb 72881	3.12411	1.39965	1.17999	2.0941	79.06	-0.2386	0.0705	0.309	1118.2655	0.170857	-403.092377	-403.084124	-403.08318	-403.125087	32.377	
C	-0.1694895628	 1.5206335336	 0.2823260836	-0.475917
C	 0.0533352027	 0.0450916712	 0.0859680526	 0.456754
C	-1.1638028398	-0.9230264725	 0.0244974587	-0.368159
C	-0.4005684247	-1.8760616848	 0.9641218676	 0.366717
C	-0.9732918954	-2.7410849629	 2.0164369644	-0.318675
N	-0.269017663	-3.3262353582	 0.8554629539	-0.359463
C	 0.8016437154	-0.9324279709	 1.0540823976	-0.206277
C	 1.7917141576	-1.0970232077	-0.1057210091	-0.088379
O	 0.9992530917	-0.2469985695	-0.9727752436	-0.333139
H	 0.7785001801	 2.0374563883	 0.4582877343	 0.123776
H	-0.630464788	 1.9541893342	-0.6126342976	 0.12901
H	-0.8343743614	 1.7069769155	 1.131859011	 0.115921
H	-2.0881066342	-0.520637643	 0.4511753324	 0.101187
H	-1.3605627821	-1.2966786733	-0.9842593694	 0.109912
H	-0.4593442958	-2.861441056	 2.9670082484	 0.11792
H	-2.0560709774	-2.8295682106	 2.0730933558	 0.11097
H	-0.9441545221	-3.6881949893	 0.1858522104	 0.23147
H	 1.1829209772	-0.6677401241	 2.0401623611	 0.074618
H	 2.7839354299	-0.6638899916	 0.071485104	 0.097053
H	 1.9018498124	-2.1144997785	-0.4966402362	 0.114702
