23
gdb 59468	2.87871	1.01458	0.9514	2.659	85.99	-0.2324	0.0696	0.302	1408.2009	0.206245	-384.425098	-384.415282	-384.414338	-384.460032	36.781	
C	 0.7828501681	 0.9032412548	-0.7550211928	-0.390528
C	 0.1897903554	-0.0799464059	 0.263619196	 0.021328
C	 0.0589587016	 0.5570930144	 1.6546813522	-0.390812
C	-1.1628233838	-0.5771354953	-0.2114663756	 0.006141
N	-1.1956637682	-1.5568713249	-1.3131647467	-0.358223
C	-1.6914993945	-1.9519644343	 0.0157553386	-0.060471
C	-0.9218964957	-3.0420265163	 0.7075155575	-0.003817
C	-0.8100764977	-4.3754898898	 0.0636837588	-0.240582
N	 0.3646850333	-3.4929199247	 0.1632753768	-0.315266
H	 1.7759870749	 1.241858518	-0.4428819591	 0.11087
H	 0.8748213655	 0.4338670998	-1.7388817017	 0.12328
H	 0.1478735924	 1.7916950157	-0.8612895867	 0.104536
H	 0.8609131412	-0.9412963754	 0.3427929636	 0.101316
H	-0.615497981	 1.4218560626	 1.6315520138	 0.108133
H	-0.3363486849	-0.1553898385	 2.3856930468	 0.115955
H	 1.030988688	 0.9065174718	 2.0167292608	 0.114783
H	-1.920706162	 0.2079492464	-0.2498724709	 0.076489
H	-1.9622053941	-1.3714855657	-1.9523498752	 0.233785
H	-2.771561683	-2.0275669685	 0.142987037	 0.085307
H	-0.9537066901	-2.9973621579	 1.7948794363	 0.091626
H	-0.7683833839	-5.275709446	 0.6704213315	 0.113386
H	-1.2735380056	-4.4997113574	-0.9120296343	 0.109575
H	 0.4820423844	-3.0294041828	-0.7381681368	 0.243188
