19
gdb 111880	2.5965	1.49652	1.3706	1.1234	71.52	-0.225	0.0632	0.2882	1053.2095	0.159659	-460.109371	-460.101133	-460.100189	-460.142213	31.067	
C	 0.3605059359	 1.1469902946	 0.2654033195	-0.23632
O	-0.3550623773	 0.1264884337	-0.4165548726	-0.233274
C	 0.4191870645	-0.5354573451	-1.3542122738	 0.042158
C	 1.3910756399	-1.6188479223	-0.8727793041	-0.019889
O	 1.4408555141	-1.8505225241	 0.5047308895	-0.249048
C	 0.6498701678	-2.9679711942	 0.901141383	-0.087823
C	-0.7933119048	-2.7745319458	 0.4697878217	-0.072898
O	-0.9025110286	-2.6844445205	-0.9502760784	-0.26139
C	 0.1178522764	-1.9943459785	-1.6006529858	 0.037236
H	 1.2017639036	 0.7294931129	 0.8300841763	 0.131139
H	 0.7373550607	 1.9045939181	-0.4373813312	 0.104737
H	-0.3431626757	 1.6224586632	 0.9526294378	 0.125056
H	 0.7290329054	 0.0682223768	-2.2105190631	 0.082138
H	 2.3536368089	-1.7382274679	-1.3677959785	 0.091293
H	 1.0549662754	-3.8957252204	 0.4695194716	 0.09914
H	 0.7215186286	-3.0252096451	 1.9907267045	 0.112242
H	-1.4019874432	-3.6352932833	 0.7639871682	 0.106513
H	-1.1971977238	-1.8685909397	 0.9358601341	 0.120682
H	 0.2027213221	-2.3430530227	-2.6252657885	 0.108306
