16
gdb 50188	2.34873	1.65243	1.19263	3.9529	75.9	-0.2358	0.0185	0.2543	1047.3332	0.123463	-400.694987	-400.686913	-400.685969	-400.727955	30.194	
O	 0.0768199639	 0.141299903	-0.5247870889	-0.31977
C	 0.1120857151	 1.3197905372	-0.2492980629	 0.139795
N	 1.2189687292	 1.969835258	 0.2086061393	-0.045517
C	 2.6300726065	 1.5562113793	 0.0729078395	-0.194119
C	 3.0118965007	 3.0452380481	 0.0377558651	-0.108847
C	 2.2786173534	 3.7698090347	-1.0850304264	-0.228003
C	 1.9925824807	 3.1726495991	-2.3557440592	 0.311546
C	 1.7434886844	 2.6548417584	-3.4123673008	-0.41672
C	 1.5414554074	 3.3833255627	 0.1919299559	-0.045171
H	-0.7701505976	 1.9911255098	-0.2905708359	 0.072197
H	 2.9942597235	 1.0317795282	 0.9601370718	 0.128898
H	 2.8355690749	 0.9674761271	-0.8247749431	 0.143916
H	 3.8666357313	 3.486119601	 0.5305942917	 0.112681
H	 2.521445774	 4.8297982705	-1.1134276133	 0.123851
H	 1.5191484379	 2.1980012851	-4.3445250633	 0.204743
H	 1.0310045848	 4.1005293578	 0.8233147307	 0.12052
