24
gdb 122523	3.37477	0.67868	0.62142	2.1775	87.59	-0.2158	0.0659	0.2818	1924.1634	0.215882	-405.514116	-405.503169	-405.502224	-405.551069	39.166	
C	-0.0956525074	 1.6542174667	-0.2804809504	-0.378051
C	-0.0298249412	 0.1791642542	 0.12486251	-0.163114
C	-1.3709403715	-0.545233446	-0.0283723272	-0.15588
C	-1.3010627217	-2.0209482961	 0.3662967587	-0.153732
N	-2.6264104929	-2.6328803008	 0.2746962207	-0.090676
C	-3.0262162036	-3.2324335193	-0.9960251456	-0.248892
C	-2.754915356	-4.086132609	 0.1939172434	 0.00387
C	-1.5829631575	-5.0481639409	 0.2333574142	-0.115331
O	-0.7083048041	-4.8410084632	-0.8674500453	-0.403163
H	 0.8737154302	 2.1477459566	-0.1577026751	 0.10784
H	-0.3944621515	 1.7631202336	-1.3290731174	 0.112833
H	-0.8266273883	 2.1984719952	 0.3277469755	 0.113735
H	 0.7323098966	-0.3326497915	-0.477916299	 0.09275
H	 0.3077074586	 0.1017408996	 1.1672375959	 0.091696
H	-2.1376746307	-0.0521295283	 0.5818384405	 0.099953
H	-1.7115839244	-0.4694554776	-1.0699597186	 0.092999
H	-0.5511313537	-2.540499139	-0.2479444453	 0.103648
H	-0.9759970043	-2.1012127027	 1.4125531947	 0.088962
H	-4.0468363459	-3.0387721632	-1.3169212159	 0.10534
H	-2.2891694226	-3.2753533505	-1.7942315775	 0.127998
H	-3.6031983066	-4.4672084591	 0.7624910406	 0.087419
H	-1.0459693479	-4.9302611697	 1.1885152371	 0.095541
H	-1.9920169375	-6.0711287031	 0.2180850634	 0.095145
H	 0.0873776639	-5.3602901659	-0.7180333975	 0.289109
