19
gdb 49308	3.14028	1.15416	0.89047	3.0075	80.9	-0.2491	-0.0547	0.1944	1288.6253	0.160266	-423.047903	-423.039634	-423.03869	-423.081058	31.202	
O	-0.1792316121	 0.009411027	-0.2290738046	-0.277083
C	-0.0292031255	 1.210239349	-0.2286018516	 0.096556
C	 1.2580239572	 1.9031450579	 0.0005012187	 0.21511
C	 1.22901454	 3.2457655528	-0.0253342301	-0.13209
C	 2.3885890828	 4.1837466059	 0.1596799697	-0.26635
C	 3.3385501583	 3.8463909364	 1.3193210912	-0.070234
O	 4.0946258883	 2.6714739826	 1.1285530281	-0.239213
C	 3.3961447071	 1.4600310435	 1.3601729997	-0.081156
C	 2.4765547319	 1.0390720061	 0.2126359785	-0.31375
H	-0.8893050443	 1.8949510667	-0.4047349968	 0.069753
H	 0.2636024145	 3.7116651071	-0.2229865641	 0.098567
H	 2.9823098751	 4.2102284157	-0.7659739679	 0.133786
H	 2.0136444691	 5.2021835943	 0.3120114252	 0.109199
H	 4.067616061	 4.6574368484	 1.4190778758	 0.109107
H	 2.7671837559	 3.7876756604	 2.2599092957	 0.091689
H	 4.1705984613	 0.6978735915	 1.4929398741	 0.110219
H	 2.8231467241	 1.5268268731	 2.299034219	 0.090994
H	 2.1325702613	 0.0139696303	 0.3856208306	 0.132345
H	 3.0719600338	 1.0162409915	-0.7102240414	 0.122552
