17
gdb 123914	3.44191	1.54155	1.1086	3.913	73.87	-0.2073	-0.0027	0.2046	1056.0258	0.139712	-418.008905	-418.001935	-418.000991	-418.040317	27.767	
C	-0.0228323186	 1.5322592004	-0.0053367765	-0.213431
C	 1.4111555109	 2.0926014359	 0.0009192248	-0.16419
N	 2.2088743665	 1.6925227003	 1.1691746926	-0.411624
C	 1.9509107251	 0.3943857454	 1.6265207026	 0.120718
C	 2.5345613918	-0.37660369	 2.5839352857	-0.028373
O	 1.9196678162	-1.5777278778	 2.6421129569	-0.17335
N	 0.910388427	-1.62342324	 1.6889883884	-0.231565
C	 0.9309132642	-0.4547044566	 1.097305604	 0.358461
C	-0.0045621601	-0.009430276	 0.0153435597	-0.319148
H	-0.5647146726	 1.9086056632	 0.871029428	 0.105558
H	-0.5522193531	 1.8916774613	-0.8934480119	 0.104053
H	 1.9286797813	 1.7490883936	-0.9056461097	 0.114041
H	 1.3999893952	 3.1848869701	-0.0381483853	 0.10764
H	 2.1957691004	 2.3837296944	 1.906090913	 0.237683
H	 3.3385983402	-0.2208618743	 3.2848699889	 0.140368
H	-1.0034907238	-0.4240668464	 0.1754870735	 0.128394
H	 0.3423433294	-0.3857923735	-0.9555923847	 0.124765
