23
gdb 81582	3.28472	1.14861	0.99239	0.1968	90.02	-0.2681	0.0951	0.3632	1314.6135	0.207022	-351.086942	-351.078427	-351.077482	-351.120391	33.881	
C	-0.1955326342	 1.5025040963	 0.3398654518	-0.442973
C	 0.0313916617	 0.009423494	 0.1491997404	 0.072146
C	 1.1055511195	-0.5483229171	-0.8420807142	-0.076668
C	 2.200989909	-0.1444268892	 0.1850266909	-0.241592
C	 1.0591729556	-0.7922396315	 1.0206029692	-0.076728
C	 1.0211519537	-1.9105844423	-0.0766871627	 0.038247
C	-0.1580434072	-2.8456239592	-0.249625158	-0.043625
C	-0.2414232859	-4.0998085489	 0.5887223753	-0.274726
C	-1.2516026144	-3.0010333682	 0.7825048893	-0.251573
H	 0.7253379929	 2.0824236846	 0.438453386	 0.115572
H	-0.7531233554	 1.9130684913	-0.5097765096	 0.114252
H	-0.7966259049	 1.6841513594	 1.2382538312	 0.113574
H	-0.9357741996	-0.4892708694	 0.0566459199	 0.075054
H	 1.1365359971	-0.4142873213	-1.9262201866	 0.058948
H	 3.1403085193	-0.7025496996	 0.1356335593	 0.086008
H	 2.3917007276	 0.918609938	 0.3304366443	 0.090375
H	 1.0399597138	-0.9319360275	 2.1042694372	 0.060544
H	 1.9566278887	-2.4794655828	-0.1387924569	 0.062636
H	-0.4764174867	-2.9662856962	-1.2828589493	 0.082581
H	-0.5586809038	-5.0222190624	 0.1147744073	 0.107006
H	 0.509109345	-4.2326071493	 1.3619935216	 0.108705
H	-1.1815280847	-2.4083989503	 1.6883601421	 0.114388
H	-2.267583987	-3.1624998886	 0.4380611817	 0.10785
