17
gdb 34637	3.20915	1.35908	1.02012	0.8566	83.63	-0.2277	-0.0234	0.2043	1146.1765	0.13591	-384.644119	-384.636259	-384.635315	-384.676413	30.685	
C	 0.0644899093	-1.2105604327	-0.0719989754	-0.425847
C	-0.0129098242	-0.0095724706	-0.012545489	 0.234283
C	-0.0474905961	 1.4107695874	 0.0493936557	 0.152948
C	-1.1899265014	 2.1146409341	 0.0218919355	-0.17387
C	-1.1738670193	 3.6165039121	 0.1158462439	-0.123775
O	-0.0648126111	 4.119155555	 0.8481346437	-0.255573
C	 1.1769580819	 3.6051366936	 0.4596195029	 0.091491
C	 1.8337441481	 2.6457446607	 1.4147731114	-0.30088
C	 1.2515192254	 2.1482150684	 0.1009746841	-0.164504
H	 0.1169585451	-2.2698500126	-0.1212746696	 0.193768
H	-2.1505751364	 1.617793567	-0.0629186315	 0.10366
H	-1.2069420673	 4.0582218922	-0.8960947138	 0.107989
H	-2.0620753822	 3.9739330847	 0.6466921072	 0.121972
H	 1.7945655616	 4.3152124766	-0.0872852266	 0.090094
H	 2.9129638498	 2.6638086258	 1.519415595	 0.114545
H	 1.2794781004	 2.4257116046	 2.3197804848	 0.127891
H	 1.9679995163	 1.8547379436	-0.6600853582	 0.105808
