15
gdb 28832	3.10031	1.48712	1.15489	6.3174	79.84	-0.2298	-0.0688	0.161	1044.6011	0.114923	-413.002618	-412.995107	-412.994163	-413.03446	29.125	
N	 0.1134039624	 1.2313011158	 0.3567989833	-0.571211
C	 0.0022581795	-0.0967026008	 0.0166218601	 0.307629
C	-1.1892655727	-0.7681939551	 0.0441697041	-0.194194
C	-1.3984610234	-2.0986854802	-0.4653167699	-0.003974
N	-0.5550638213	-3.0657058731	-0.5926438337	-0.255673
C	 0.7380215011	-2.896970335	-0.0693249757	 0.330078
N	 1.2604574936	-3.6263751737	 0.8261020668	-0.484533
N	 1.5250021541	-1.9081285484	-0.6962721078	-0.183311
C	 1.2013699418	-0.6800236164	-0.6077772005	-0.029125
H	 1.0282767193	 1.5712070333	 0.6087481885	 0.267808
H	-0.6385489152	 1.6408640957	 0.8886426172	 0.264313
H	-2.0795333468	-0.2193502694	 0.3433519042	 0.091853
H	-2.420984115	-2.3191680413	-0.7823228313	 0.115021
H	 0.5725451961	-4.3163854953	 1.1343556343	 0.221108
H	 1.8683811965	 0.0465572838	-1.0814151098	 0.12421
