16
gdb 65435	4.79736	0.7955	0.76914	2.3715	72.41	-0.2706	-0.0489	0.2216	1441.1572	0.122275	-437.896699	-437.887717	-437.886773	-437.931189	32.236	
O	-0.0665314474	 1.3444935355	 0.1423298972	-0.466386
C	-0.0254454083	-0.0317445385	-0.0062092362	 0.333645
C	-0.6251570315	-0.8853372235	 1.0933482594	-0.333597
C	-1.3438410599	-0.7823847728	-0.2193270994	-0.087813
C	-2.603464312	 0.0578394911	-0.3518749497	-0.365484
C	-3.7888870328	-0.6452898269	 0.1390810699	 0.268159
N	-4.7170363829	-1.2135835732	 0.5270708603	-0.303905
C	 1.1578693272	-0.5149252219	-0.7482701996	 0.101735
O	 1.9734280434	 0.2555685224	-1.2026446975	-0.284802
H	 0.6906306741	 1.673116821	-0.3698064754	 0.30233
H	-0.1455241604	-1.821847528	 1.3562421631	 0.134131
H	-1.0165193425	-0.3184647549	 1.9311217634	 0.150544
H	-1.3108105984	-1.6566339304	-0.8628887709	 0.116261
H	-2.4835019624	 0.9965219033	 0.1971392234	 0.177095
H	-2.7674494628	 0.3308538385	-1.40041103	 0.159525
H	 1.2461919166	-1.6129391318	-0.8728184079	 0.098563
