23
gdb 83872	1.9689	1.7753	1.25418	1.314	85.13	-0.2366	0.0761	0.3127	1147.3968	0.207159	-388.286977	-388.278065	-388.277121	-388.320081	35.045	
C	-0.2842966682	 1.5644652437	-0.2453404513	-0.41077
C	-0.0110600146	 0.0864666415	-0.0731742991	-0.038314
C	 1.3561029051	-0.4996343698	-0.3460279542	 0.056108
O	 2.3926796818	 0.4028082582	-0.6114544687	-0.253072
C	 3.3123127268	 0.5611998952	 0.4623249416	-0.074717
C	 2.6142395049	 1.1278458329	 1.694925331	-0.217634
C	 1.5195244044	 0.1633636359	 2.1960444304	 0.017001
C	 0.564421436	 0.8303921767	 3.1934240753	-0.399441
C	 0.7919674121	-0.5472494683	 1.0552060056	-0.078665
H	 0.6167107673	 2.1626791831	-0.105086523	 0.128797
H	-0.648293474	 1.7621514767	-1.2597510901	 0.115831
H	-1.0496401138	 1.9172185818	 0.4538250558	 0.112761
H	-0.8360127335	-0.5416313013	-0.4024070604	 0.079642
H	 1.4395121522	-1.4182146167	-0.9251786731	 0.081921
H	 3.7941586384	-0.4009020783	 0.7022774445	 0.085043
H	 4.0847648669	 1.2417999561	 0.0925996247	 0.103715
H	 3.3447513506	 1.300950202	 2.4943570929	 0.092518
H	 2.1871382948	 2.1048177994	 1.4404215082	 0.104921
H	 2.0479834624	-0.6372031619	 2.7343821691	 0.072898
H	 0.0199847907	 1.6574556942	 2.7273307793	 0.121244
H	-0.1738782267	 0.1155610896	 3.5716278897	 0.110338
H	 1.1139701328	 1.2323706673	 4.0520500021	 0.107565
H	 0.4050117632	-1.517251808	 1.3582909698	 0.082311
