17
gdb 45886	2.51017	1.75812	1.19467	2.732	75.85	-0.2153	-0.0077	0.2076	1034.3167	0.139368	-418.019784	-418.012314	-418.01137	-418.051995	28.943	
O	 0.0228798577	-0.1164376699	-0.0185491765	-0.369605
C	 0.0020893414	 1.0984203366	 0.0753050989	 0.414959
N	-1.2059641434	 1.75831506	 0.1329945255	-0.35044
C	-1.5604173066	 3.109207641	 0.0941832877	 0.024381
C	-0.8461139977	 4.1720116408	-0.2759653412	-0.079937
C	 0.5600012963	 4.2279052939	-0.8053661165	-0.294066
C	 1.5659005159	 3.2741363533	-0.190538633	-0.02489
N	 1.4138463748	 2.9121620151	 1.2133943614	-0.32824
C	 1.2918629731	 1.8558967268	 0.1819009341	-0.118472
H	-1.9707654756	 1.0986724942	 0.1611331841	 0.252766
H	-2.5888125822	 3.2564529505	 0.4089171186	 0.107097
H	-1.3609154095	 5.1242600709	-0.205784543	 0.093303
H	 0.5619240558	 4.0602853374	-1.8938915849	 0.119786
H	 0.942302011	 5.246820468	-0.6679943219	 0.112507
H	 2.5800278843	 3.4384410561	-0.5562441997	 0.090846
H	 2.3128478567	 2.8320846884	 1.6798493604	 0.241609
H	 2.117361798	 1.1586801568	 0.0718801059	 0.108398
