23
gdb 109889	2.4438	1.38794	1.12129	1.499	84.27	-0.2498	0.0558	0.3057	1221.8157	0.206278	-388.264669	-388.255477	-388.254532	-388.298547	35.68	
C	-0.4759183735	 1.6550688797	-0.5346679806	-0.390361
C	-0.4031597866	 0.1431667666	-0.2877686875	-0.193211
C	 0.5193081181	-0.5689778046	-1.2752710903	-0.020022
C	 2.0748394985	-0.42434273	-1.068962023	 0.114282
O	 2.5849471525	 0.474791994	-0.1121258325	-0.422479
C	 2.1955216266	-1.9496136076	-0.8312206572	-0.045155
C	 1.8808056472	-2.4466845181	 0.6095087463	-0.242355
C	 0.420937191	-2.7816702394	 0.1840181007	-0.220235
C	 0.6729795617	-2.123458897	-1.1942813777	-0.050908
H	 0.515623077	 2.1069979814	-0.4458439429	 0.137188
H	-0.8552504286	 1.8686223306	-1.5402706267	 0.11075
H	-1.1424086885	 2.143628276	 0.1832988301	 0.105775
H	-0.0784675705	-0.0372570339	 0.7455341216	 0.079151
H	-1.4075813302	-0.2940639726	-0.3611128353	 0.097262
H	 0.2349731517	-0.2577047465	-2.2865390487	 0.066736
H	 2.5631443305	-0.1400436369	-2.005166286	 0.087456
H	 2.2581421412	 0.2165200381	 0.7556144007	 0.281036
H	 3.0064605721	-2.4685282143	-1.3442626504	 0.061725
H	 2.4737078239	-3.3072084207	 0.9264065178	 0.107016
H	 1.9761692806	-1.69071497	 1.3975802722	 0.079045
H	 0.2582384182	-3.859168627	 0.0963338058	 0.099316
H	-0.3862145467	-2.3705094324	 0.795783577	 0.097466
H	 0.3319031738	-2.6696817354	-2.0744677032	 0.060522
