18
gdb 59855	3.24808	0.9514	0.82182	1.9258	70.2	-0.2471	-0.0411	0.2059	1441.7609	0.145114	-476.297093	-476.286881	-476.285937	-476.333019	36.06	
C	 0.0460085003	 1.4779312538	-0.0256771846	-0.398236
C	-0.0098816249	-0.0451116944	 0.0078908498	 0.140344
C	-1.4181655785	-0.6083236675	-0.0977998662	-0.392668
O	 0.7190267737	-0.5779545748	-1.1387099958	-0.228351
C	 2.0315126784	-0.7022142096	-1.0203093052	 0.377093
O	 2.6933735128	-0.4122250613	-0.0483870173	-0.383143
C	 2.6588970119	-1.2878451717	-2.3094158893	 0.292512
N	 3.9981149126	-1.4193452101	-2.1616206477	-0.512922
O	 2.0154705972	-1.575416686	-3.2933015636	-0.336302
H	 1.0775033961	 1.8284065924	 0.0516316435	 0.140332
H	-0.3920639425	 1.8581214534	-0.9535761819	 0.12983
H	-0.5189582247	 1.8884372099	 0.8168112782	 0.122799
H	 0.4909387647	-0.4130703182	 0.9078599028	 0.111841
H	-1.9005769285	-0.2723687101	-1.0203604923	 0.134107
H	-1.4008872191	-1.7011228901	-0.096183272	 0.130611
H	-2.0188580914	-0.2693891225	 0.751324332	 0.121681
H	 4.4261301429	-1.1436220841	-1.2932841113	 0.280669
H	 4.547179499	-1.7884225593	-2.918785949	 0.269804
