17
gdb 85703	2.50422	1.38164	1.06469	3.5682	72.96	-0.2601	0.026	0.2861	1139.1268	0.136432	-417.978642	-417.97027	-417.969326	-418.01183	31.477	
O	 0.6600885461	 0.6048318265	-0.9819474928	-0.421961
C	 0.1622112432	-0.3291060905	-0.0660003037	 0.069912
C	 0.1935108657	-0.0258827495	 1.4617838988	-0.286672
C	-1.2253714028	-0.6762503589	 1.5907966346	-0.214805
C	-2.2076938729	-0.0000705757	 2.417851528	 0.281522
N	-2.9904551389	 0.564916028	 3.0546474979	-0.333353
C	-1.3546085504	-0.5404672077	 0.0560975484	 0.295455
C	-2.3896094985	 0.1838603372	-0.7118145127	-0.308157
N	-2.2648370435	-1.2870641609	-0.7831003182	-0.366163
H	 0.2488557971	 1.456397304	-0.7951268959	 0.284787
H	 0.6763368494	-1.2695236029	-0.2930767546	 0.105898
H	 0.9936417296	-0.4697684232	 2.0542312824	 0.126334
H	 0.1538693227	 1.0492965201	 1.6538698395	 0.123957
H	-1.1636321466	-1.7285865646	 1.8822910943	 0.134099
H	-3.2833629189	 0.5445684706	-0.2110578556	 0.147321
H	-2.0588525363	 0.773459561	-1.5634455685	 0.120592
H	-1.8016486949	-1.5638309835	-1.6465881719	 0.241234
