19
gdb 65226	2.6852	1.41907	1.10105	3.9235	74.47	-0.2731	0.0081	0.2812	1145.6689	0.158992	-423.043144	-423.034542	-423.033598	-423.076623	32.302	
C	 0.0819942551	 1.5062761344	 0.5103763717	-0.46143
C	 0.0334314468	 0.0728200657	 0.0149698222	 0.340077
C	 1.0945196196	-0.3789200068	-0.9637077606	-0.312935
C	 1.1201946825	-0.8749432687	 0.4633791226	-0.303561
C	-1.3740384677	-0.4704720675	-0.1258896607	-0.268627
C	-2.237546715	-0.0224985619	-1.3265322074	-0.096282
O	-2.3562066169	-1.414458137	-1.7708759697	-0.241108
C	-1.5650543159	-1.861088685	-0.7459155059	 0.456586
O	-1.2134289571	-2.9778849556	-0.5328140746	-0.330837
H	 1.1152494694	 1.8550428076	 0.5978853114	 0.120979
H	-0.4396795383	 2.1872245616	-0.1731393535	 0.115934
H	-0.3872022412	 1.600999737	 1.4969248919	 0.118762
H	 0.8289011992	-1.0912485821	-1.7376378564	 0.129541
H	 1.8360110176	 0.3507532927	-1.2706173332	 0.110833
H	 1.881759197	-0.4843145688	 1.129890847	 0.109837
H	 0.8528504237	-1.9115972005	 0.6325545764	 0.146219
H	-1.9070773422	-0.3953805054	 0.8284788546	 0.112778
H	-3.2209943726	 0.395433055	-1.1047193782	 0.125152
H	-1.7200408942	 0.5748846551	-2.0799618078	 0.128082
