20
gdb 113867	4.0915	0.79826	0.73363	1.4691	75.41	-0.2484	0.0649	0.3133	1555.5951	0.171397	-440.222191	-440.212928	-440.211984	-440.258428	32.904	
O	-0.1466939417	 1.4087628823	-0.7544529532	-0.420339
C	 0.0206698945	 0.3123434291	 0.127884148	-0.067085
C	-1.2807437779	-0.4364339212	 0.3043481096	-0.041926
N	-1.7373492458	-1.1685828043	-0.8947414107	-0.358473
C	-1.4224737531	-1.9198529802	 0.3348063611	-0.040334
C	-0.2849971073	-2.9021946953	 0.2775953929	-0.02568
C	 0.2330539382	-3.4527031599	 1.6282244524	-0.085479
O	-0.1040881497	-4.8053941869	 1.2641739257	-0.271023
C	-0.6573654565	-4.3801502033	 0.0026172165	-0.086884
H	-0.5015354635	 1.0364963189	-1.5707019774	 0.289466
H	 0.8095354658	-0.365122214	-0.2274134196	 0.089607
H	 0.3488369144	 0.7320715919	 1.0847903036	 0.109754
H	-2.0378733989	 0.1258575383	 0.8488479046	 0.092153
H	-2.7423686158	-1.0767663767	-1.0111313262	 0.236208
H	-2.2734522712	-2.2835880508	 0.912903421	 0.088379
H	 0.5028576825	-2.5353954933	-0.3800187175	 0.090117
H	 1.3059695129	-3.3308313979	 1.8195210632	 0.103365
H	-0.3239317808	-3.1126596281	 2.5122459062	 0.097064
H	-1.7350236416	-4.5826806675	-0.064130193	 0.095884
H	-0.1547454345	-4.853288491	-0.8489223371	 0.105228
