18
gdb 69086	2.51208	1.5892	1.19698	3.3407	76.68	-0.273	0.0232	0.2961	1069.5004	0.148524	-401.964261	-401.95606	-401.955116	-401.996752	31.303	
C	-0.0534906854	 1.5421432977	 0.0295978128	-0.485061
C	 0.0552177748	 0.0392456449	-0.0020159548	 0.254337
C	-0.7781802404	-0.8305848451	 0.8933283543	-0.359208
C	 0.7285389635	-0.7828731716	 1.1033302061	 0.140263
C	 1.5164262679	-1.8761791945	 0.3810890758	-0.150124
O	 0.9359360232	-1.9502311408	-0.9115727869	-0.252326
C	 0.5198980962	-0.6419842855	-1.2839283933	-0.133815
C	 1.2811875791	-0.1810557956	 2.2767358346	 0.201375
N	 1.7356956759	 0.3055984237	 3.2236684252	-0.350962
H	 0.8679609608	 2.012011908	-0.3302824259	 0.130987
H	-0.8770876813	 1.8844996432	-0.6064378837	 0.12952
H	-0.2398161983	 1.9047420775	 1.0439667423	 0.142619
H	-1.386857634	-0.335140668	 1.6409021907	 0.135501
H	-1.1829983116	-1.7584059252	 0.5021653058	 0.137593
H	 2.5809089742	-1.599473079	 0.339001409	 0.112596
H	 1.4261460735	-2.8637808803	 0.8421238856	 0.127076
H	-0.2688961454	-0.7518417393	-2.0350349608	 0.11933
H	 1.3487761372	-0.0669460501	-1.7280299668	 0.100298
