18
gdb 112470	3.53898	1.04336	0.83512	3.1001	75.44	-0.2155	-0.0025	0.213	1331.8846	0.148833	-439.129759	-439.121164	-439.12022	-439.163256	32.161	
O	 0.0023769538	 1.4380793193	 0.0592435928	-0.421918
C	 0.0357508518	 0.0212638384	-0.007968809	-0.089124
C	-1.4058606321	-0.4867111603	 0.0308681955	-0.050363
C	-1.4446156774	-2.0163453365	-0.1363527366	-0.340129
C	-2.8025938704	-2.6470051639	 0.1509447654	 0.391718
O	-3.2183361932	-3.6423151336	-0.4050842749	-0.361342
N	-3.5073675245	-2.0257353867	 1.1592141722	-0.327973
C	-3.1058735222	-0.8362933544	 1.7810100897	-0.003616
C	-2.1164094455	-0.0844784054	 1.2990179548	-0.100708
H	 0.9068975182	 1.7617271734	 0.0963946769	 0.28972
H	 0.5206549517	-0.3231550866	-0.9352944268	 0.089951
H	 0.595032072	-0.406650906	 0.8399356071	 0.087063
H	-1.9218300236	-0.0199824397	-0.8231803163	 0.101446
H	-1.141921614	-2.3326389668	-1.1365585175	 0.129989
H	-0.7418950182	-2.4744953069	 0.5756112223	 0.126235
H	-4.3706887581	-2.4731339209	 1.4268824948	 0.253889
H	-3.669747838	-0.5788710186	 2.669976105	 0.115504
H	-1.8342380101	 0.8380934352	 1.7882326247	 0.109659
