17
gdb 1516	8.38043	1.19046	1.06988	1.5546	61.45	-0.2674	0.0194	0.2869	1115.7103	0.146457	-346.898838	-346.890086	-346.889142	-346.933065	29.202	
C	 0.0154259383	 1.5833680531	-0.0525252857	-0.386294
C	-0.0021297945	 0.054194326	 0.0031318185	-0.155517
C	 0.6878688482	-0.5825069372	-1.2033967491	-0.309232
C	 0.6795020872	-2.0965677046	-1.164204044	 0.443805
O	 0.1936366871	-2.7778601128	-0.2964035776	-0.355705
O	 1.2999405114	-2.6063247858	-2.2500991507	-0.234468
C	 1.3485398246	-4.036470047	-2.3126960798	-0.238589
H	 1.0403006819	 1.970863088	-0.0748029674	 0.113739
H	-0.4968736412	 1.9567848195	-0.9464635979	 0.113739
H	-0.4835048058	 2.0148280442	 0.820371165	 0.116007
H	 0.4849747313	-0.2962464892	 0.9193347157	 0.112953
H	-1.033495809	-0.3101539727	 0.0582784164	 0.112953
H	 0.2155632871	-0.2686417796	-2.1429617204	 0.128743
H	 1.7321958502	-0.2547580335	-1.2829480492	 0.128743
H	 1.8839993818	-4.4437816915	-1.4511437193	 0.138998
H	 0.3400344425	-4.4579043599	-2.3270984761	 0.138989
H	 1.8749778186	-4.276186237	-3.2367515881	 0.131136
