16
gdb 19408	3.05625	2.18991	1.61422	2.7089	64.07	-0.2462	0.0607	0.307	825.3438	0.130134	-383.678659	-383.671595	-383.670651	-383.70968	27.453	
O	 0.2430258352	 1.390008563	-0.1746150353	-0.428203
C	 0.0099257897	 0.0159572819	-0.0013395244	 0.046334
C	 0.3070686236	-0.6631566094	 1.3444644013	-0.090865
C	-0.7007196927	-0.2668257613	 2.3905133346	-0.301714
C	-1.0990007975	-1.28526492	 1.357885192	-0.142944
C	-1.4314982007	-0.5443972175	 0.0790528377	 0.420662
C	-2.6916323468	 0.0074340756	-0.4185360395	-0.275709
O	-2.0640970384	-1.1314472661	-1.037383887	-0.284525
H	-0.0946019198	 1.8513085269	 0.6005515505	 0.281827
H	 0.5314289426	-0.4867902179	-0.8210920968	 0.111827
H	 1.2502296663	-1.1215284807	 1.6136038534	 0.096
H	-0.5049377965	-0.6511519741	 3.3861056279	 0.122637
H	-1.1664799614	 0.7172950528	 2.3900941171	 0.101273
H	-1.3959857208	-2.2977073111	 1.5967850803	 0.105727
H	-3.6221867046	-0.2027649659	 0.1070866166	 0.115101
H	-2.6796000283	 0.9195169839	-1.0133796485	 0.122573
