16
gdb 14619	6.03589	0.7358	0.70866	4.8479	67.1	-0.2632	0.0152	0.2784	1521.9498	0.130369	-379.965521	-379.956587	-379.955643	-380.001573	29.836	
O	 0.4439221731	 0.7817054409	-1.5221829012	-0.318906
C	 0.2094694903	 1.4537201473	-0.5409938114	 0.154872
N	 1.0783730205	 1.6582879746	 0.4878486397	-0.276921
C	 2.4220557706	 1.108290188	 0.4880881205	-0.167877
C	 3.4760767801	 2.1066065276	-0.0094385986	-0.183405
C	 4.8816622131	 1.4749420719	-0.0238910122	-0.338154
C	 5.9128627457	 2.4170679838	-0.4513398648	 0.25848
N	 6.7159932582	 3.1771991378	-0.7864080005	-0.30009
H	-0.756301542	 1.9696461919	-0.3740006691	 0.081391
H	 0.7990797215	 2.2751565638	 1.2338310612	 0.251302
H	 2.6678045161	 0.7682078014	 1.5010476594	 0.111801
H	 2.3990521722	 0.2322865001	-0.1657979645	 0.151765
H	 3.2105389645	 2.4358307493	-1.0182834429	 0.144956
H	 3.4834056885	 2.9965607115	 0.6294225528	 0.117211
H	 5.1454394864	 1.1047540296	 0.9743699998	 0.151592
H	 4.9003436413	 0.6082395005	-0.6949499382	 0.161985
