21
gdb 109593	1.97626	1.60184	1.14292	1.7146	74.11	-0.2473	0.0487	0.296	1176.3208	0.181043	-461.336475	-461.326503	-461.325559	-461.371086	37.057	
C	 0.4865119882	 0.7114456352	-0.4291367918	-0.251359
O	-0.0097973643	-0.5715882909	-0.0790670078	-0.27558
C	-1.4123773329	-0.6095491199	 0.1369536658	 0.019892
C	-2.1620654213	-1.1524898418	-1.1204067012	 0.126792
O	-1.5556223612	-0.9247649062	-2.3660733063	-0.431692
C	-2.131735372	-2.5938055529	-0.502070265	-0.093227
C	-1.0715916912	-3.5257383899	-1.0799325745	-0.411598
C	-1.7534199289	-1.937323317	 0.8717734328	 0.129993
O	-0.7306863374	-2.4960953938	 1.647807637	-0.435333
H	 1.5670460868	 0.6126855081	-0.5584266201	 0.130847
H	 0.0387919818	 1.0721881086	-1.362750378	 0.131941
H	 0.2859582023	 1.4412952113	 0.3676829585	 0.11918
H	-1.7530039978	 0.3319644568	 0.5849499067	 0.063073
H	-3.1780639216	-0.7558285166	-1.1927412922	 0.087528
H	-0.6279463525	-1.1689843258	-2.2668699662	 0.288322
H	-3.1024363122	-3.0981470603	-0.503979015	 0.067906
H	-0.0740325453	-3.0752600588	-1.0641898932	 0.109246
H	-1.0164051757	-4.4475384238	-0.4946875956	 0.127661
H	-1.3103503013	-3.7855367811	-2.1154167852	 0.121305
H	-2.6335547823	-1.8196488954	 1.5115552403	 0.083159
H	 0.0940214786	-2.1323834958	 1.2993131608	 0.291944
