19
gdb 79411	2.69315	1.60946	1.25797	2.685	82.05	-0.234	-0.0174	0.2166	1059.3194	0.159477	-385.789533	-385.781782	-385.780838	-385.821666	30.645	
C	-0.2258702206	 1.629914005	 0.1707667179	-0.420804
C	-0.0013634761	 0.1314951015	-0.0104830078	-0.137491
C	 0.4813124603	-0.6145285525	-1.3185423588	-0.036871
C	 1.6014891954	-0.4102367512	-2.401107791	-0.082379
C	 2.4433886412	 0.3166399266	-1.3401449179	-0.232248
C	 1.8159694477	-0.937007726	-0.6123262699	 0.143161
C	 2.2487983328	-1.7654666663	-1.8683860795	-0.31452
C	 1.199030746	-0.5800725401	 0.7543013726	 0.307991
O	 1.4374392008	-0.7615269964	 1.9074869978	-0.295821
H	 0.6422158805	 2.2379329935	-0.0901960293	 0.127993
H	-1.0667410646	 1.9660022758	-0.4443401447	 0.126005
H	-0.4707923187	 1.8387613876	 1.2175243579	 0.135337
H	-0.9196159201	-0.3743488942	 0.3131869565	 0.110907
H	-0.1624325815	-1.475874189	-1.5168025781	 0.075123
H	 1.4849198293	-0.1407590007	-3.4544888275	 0.075754
H	 3.5300949409	 0.2801126566	-1.4489214654	 0.100904
H	 2.1161966694	 1.3071742591	-1.0339900067	 0.106198
H	 1.6844918469	-2.6835246343	-2.0468485936	 0.106535
H	 3.3164442404	-1.8973930451	-2.0629640425	 0.104227
