17
gdb 19095	3.64136	2.76558	2.75089	1.7426	68.94	-0.2108	0.0678	0.2787	651.5102	0.146295	-326.643261	-326.638223	-326.637279	-326.671949	22.362	
C	-0.0249852191	 1.5326895153	 0.1030746842	-0.24439
C	 1.5162760417	 1.4988814558	-0.0317237397	-0.060862
C	 2.1963762231	 0.7624878923	 1.1751101632	 0.004711
C	 1.2082005527	 0.2888618764	 2.2546708307	-0.244276
C	 0.7205287173	-0.6956690823	 1.178037301	 0.004711
C	-0.0100324416	-0.0091314666	-0.028696643	-0.060862
C	 1.3999718645	 0.0888473565	-0.6926964568	 0.020146
N	 2.0803241555	-0.5974190981	 0.4729085478	-0.16783
H	-0.4744280342	 1.9893665275	 0.9903213388	 0.095724
H	-0.4723331777	 1.9836755908	-0.7883532021	 0.101596
H	 2.0441402291	 2.3520693413	-0.4567843801	 0.066526
H	 3.1915639494	 1.1099092118	 1.4601565365	 0.070159
H	 1.7368350209	-0.2445914678	 3.0490831987	 0.111528
H	 0.5075296856	 0.9989290105	 2.7007780802	 0.09972
H	 0.3617071627	-1.6860268679	 1.4657696526	 0.070159
H	-0.8703734207	-0.5275102774	-0.4510039564	 0.066526
H	 1.6538508323	-0.1701760164	-1.7213790056	 0.066715
