14
gdb 124143	3.72201	0.95389	0.76291	2.2517	76.6	-0.2307	-0.0194	0.2113	1423.1405	0.100209	-436.662261	-436.653775	-436.652831	-436.697631	29.728	
C	-0.034389481	 1.4811080276	-0.0054513128	-0.510325
C	 0.0022984941	 0.0275949338	-0.005159183	 0.228495
C	 0.0315171465	-1.1778601552	-0.0047022005	-0.121821
C	 0.0413266373	-2.5874264527	-0.0025929196	-0.018263
C	 1.0909588075	-3.4584766548	-0.0700620102	-0.028226
O	 0.6744203979	-4.7275307405	-0.0400991353	-0.169456
N	-0.7226243046	-4.7457191333	 0.0520159149	-0.242584
C	-1.0768711629	-3.4862033827	 0.0728836477	 0.338998
O	-2.3549407317	-3.101256526	 0.1563896348	-0.411119
H	 0.9772562589	 1.9008790574	 0.0116825817	 0.152887
H	-0.5396039771	 1.8662703745	-0.8982566127	 0.154013
H	-0.5687372162	 1.8645453723	 0.8708841857	 0.154509
H	 2.1565174133	-3.3052719013	-0.1406197256	 0.158931
H	-2.9013428518	-3.8981300591	 0.1939834449	 0.313961
