13
gdb 21452	5.88971	1.5924	1.25349	4.4329	62.61	-0.2288	-0.0109	0.218	890.9443	0.099751	-390.99644	-390.989999	-390.989055	-391.027202	23.724	
N	 0.0928735755	 1.3305169371	 0.0066414792	-0.476681
C	 0.0108182001	 0.0558986306	 0.0022599874	 0.094312
N	-1.1902927195	-0.6032113149	 0.0114156867	-0.388247
C	-2.4380134063	-0.0101252787	 0.0267713667	 0.5072
N	-3.5792175368	-0.6762964449	 0.0362206321	-0.362114
C	-4.492320115	 0.337456421	 0.0494404406	 0.032948
N	-3.9929490823	 1.5600467989	 0.0490219931	-0.222766
N	-2.653288478	 1.3169015102	 0.0339690059	-0.235014
H	 1.0628565002	 1.6314222466	-0.0016915701	 0.23643
H	 0.8582285177	-0.6358884353	-0.0089216804	 0.112657
H	-1.2037333561	-1.6101147096	 0.0079833907	 0.278533
H	-5.557370189	 0.1611383582	 0.059892331	 0.124417
H	-1.9376969906	 2.0312411509	 0.0296402071	 0.298323
