21
gdb 113861	3.42448	0.96841	0.86185	2.0693	79.3	-0.2484	0.0784	0.3267	1409.385	0.182299	-424.182655	-424.173231	-424.172286	-424.217815	34.175	
O	-0.1172679745	 1.2891854221	-0.7389991551	-0.42549
C	 0.0167708502	 0.0680081593	-0.0148636083	-0.117951
C	-1.3509910528	-0.5591176122	 0.0681611703	 0.003083
C	-1.8756024041	-1.4252835502	-1.0535016169	-0.289703
C	-1.5656272638	-2.0392475475	 0.2875689424	-0.04545
C	-0.4553078723	-3.0475203665	 0.4566072923	 0.122623
C	-0.7484722065	-4.5000700306	 0.0042995082	-0.285741
C	 0.4940245904	-4.324093524	-0.8875462583	-0.061991
O	 0.6198513782	-2.9355490301	-0.5116530151	-0.284964
H	 0.7547759936	 1.6899697729	-0.8002435592	 0.282151
H	 0.7182222082	-0.6172578542	-0.5056142863	 0.119553
H	 0.3958368637	 0.2614138902	 1.0028286312	 0.076409
H	-2.0816825175	 0.0892901966	 0.545243751	 0.087083
H	-2.9096921264	-1.3173225651	-1.3608001754	 0.10545
H	-1.1792963276	-1.6445074874	-1.8556799826	 0.124611
H	-2.4175113694	-2.2890710048	 0.9178196721	 0.084994
H	-0.0477937367	-2.9919411331	 1.4768903917	 0.074139
H	-0.6902573745	-5.2696154028	 0.7750917755	 0.108022
H	-1.6857649035	-4.6016382692	-0.5456502347	 0.1147
H	 1.3732079403	-4.9052506909	-0.581598049	 0.101674
H	 0.3471699548	-4.4432323424	-1.9668161239	 0.106797
