18
gdb 17175	3.99235	1.83166	1.59087	1.6526	71.37	-0.2275	0.0873	0.3148	880.6921	0.153394	-347.71922	-347.712064	-347.71112	-347.750607	27.889	
C	-0.0593380037	 1.5565165706	 0.0713815082	-0.379625
C	 0.0048323189	 0.0245883709	 0.0858416711	-0.329559
C	 0.7836724671	-0.5073238493	 1.2489485339	 0.502435
O	 0.3258827017	-0.1905373271	 2.6086276633	-0.365302
C	 1.5158104121	-1.0056742524	 2.8013310042	 0.089791
C	 1.2197592961	-1.9689690847	 1.6130408936	-0.14397
C	 2.6290714057	-1.7710357439	 1.0148631227	-0.280935
C	 2.308290473	-0.3848059755	 1.613150628	-0.132795
H	 0.9388477502	 1.9918326517	-0.0409012194	 0.117258
H	-0.6786862897	 1.914132434	-0.7561098483	 0.111944
H	-0.4836696802	 1.9302014812	 1.0070046507	 0.14138
H	-1.0077484065	-0.3950854931	 0.1300841274	 0.113938
H	 0.4618596998	-0.3527501469	-0.8376717492	 0.10741
H	 1.8396514994	-1.2276570691	 3.8176973354	 0.091672
H	 0.5792325236	-2.8510644739	 1.6324199044	 0.078988
H	 3.4414794638	-2.3293758315	 1.4880764636	 0.09839
H	 2.7139610195	-1.8292785083	-0.0738559819	 0.099093
H	 2.9042859293	 0.5277180873	 1.6346299323	 0.079886
