18
gdb 36833	4.764	0.61493	0.57638	1.9193	82.77	-0.2487	0.0216	0.2702	1910.968	0.146889	-401.860229	-401.851045	-401.850101	-401.896803	32.202	
C	 0.1717245597	 1.4586102057	-0.6646639274	-0.395819
C	-0.0533836147	 0.0417955476	-0.3931328685	 0.091155
C	-0.2210198443	-1.1252034468	-0.1457261353	 0.104615
C	-0.4321166098	-2.5222770592	 0.1181557278	-0.114966
C	 0.1068607105	-3.1747465635	 1.3284003197	-0.159887
O	-1.2777562164	-2.8700914841	 1.2287892008	-0.215923
C	 1.4261925978	 2.0061950675	 0.0006606249	 0.04876
C	 1.4634809681	 3.4170429491	 0.454501128	-0.248035
N	 1.434478575	 2.3151348129	 1.43436199	-0.305636
H	 0.238516816	 1.6167279002	-1.7496798713	 0.138563
H	-0.6988103451	 2.0385265755	-0.3275335247	 0.127654
H	-0.5899507811	-3.1469408891	-0.7605853723	 0.115522
H	 0.3636145143	-4.2327901545	 1.2898832481	 0.118741
H	 0.671024017	-2.5753368645	 2.0401837162	 0.127581
H	 2.3483279537	 1.5446461943	-0.3457266787	 0.102616
H	 2.3918257968	 3.9800577872	 0.4240240405	 0.121847
H	 0.5675817714	 4.0178136725	 0.3151311379	 0.110689
H	 0.4971324212	 2.2116516693	 1.8172133042	 0.232522
