22
gdb 92657	2.86648	1.45872	1.12477	1.4876	83.01	-0.2098	0.086	0.2958	1168.9033	0.196114	-404.333078	-404.324827	-404.323882	-404.365633	32.533	
C	-0.0432970946	 1.5144738897	-0.0138803471	-0.323707
N	-0.0190832291	 0.0733533751	 0.0768785639	-0.071473
C	-1.2567674347	-0.6320991643	 0.4653541309	-0.183272
C	-0.3982674218	-1.6412104353	 1.2531193267	 0.098164
O	-0.1485519141	-2.781607465	 0.4590119599	-0.265493
C	 1.1793920229	-3.2777559917	 0.5434018248	-0.064897
C	 2.1837844812	-2.2410030163	 0.0421740699	-0.198379
C	 2.1448599058	-1.0022156069	 0.9471144308	-0.23069
C	 0.7112423817	-0.5505653624	 1.201319337	 0.031803
H	 0.9654874505	 1.8945693459	-0.2082802906	 0.11836
H	-0.6815663069	 1.8256551648	-0.8478721874	 0.120525
H	-0.4210847915	 2.0026028332	 0.9063592241	 0.085947
H	-1.9076031379	-0.0381912297	 1.1283580084	 0.078536
H	-1.8448197012	-1.0400369901	-0.3621854397	 0.108606
H	-0.7457288206	-1.9359746691	 2.251094172	 0.065348
H	 1.4204463229	-3.5753863605	 1.5795483523	 0.078418
H	 1.1948662516	-4.1811809679	-0.073037151	 0.104995
H	 3.1908671672	-2.6720211067	 0.020171055	 0.089035
H	 1.9118672381	-1.9671161068	-0.9825007742	 0.11756
H	 2.6086223939	-1.2433355711	 1.9131608342	 0.093946
H	 2.7254689781	-0.1767790855	 0.5183656977	 0.098216
H	 0.6583886886	 0.0726823007	 2.1118546524	 0.048452
