13
gdb 12760	3.45328	1.82532	1.53399	3.7305	58.21	-0.2597	-0.0069	0.2528	826.8148	0.094556	-398.551247	-398.544253	-398.543309	-398.582422	26.04	
O	-0.0330994764	 1.4365911329	 0.0560781389	-0.446703
C	-0.0182540061	 0.0673333404	 0.0134534567	 0.313432
C	-0.307970211	-0.7785886316	-1.2056624244	-0.365495
C	-1.1435211423	-0.932735851	 0.0366347327	 0.049945
O	-0.4750051588	-1.7765865261	 0.9867769001	-0.282653
C	 0.6038463857	-0.8153535476	 1.1137009135	-0.073114
C	 1.9300385015	-1.3857218846	 0.8789770985	 0.277573
N	 2.9852478778	-1.8080037826	 0.6692600278	-0.319435
H	 0.6298058744	 1.7745919302	-0.5570365824	 0.30214
H	-0.7937413154	-0.2188065349	-1.9995639554	 0.131143
H	 0.3574774554	-1.5756750654	-1.5249686946	 0.142282
H	-2.2200037665	-0.84587854	 0.1030997388	 0.129729
H	 0.5690580116	-0.32550444	 2.0927917396	 0.141157
