18
gdb 50719	2.79574	1.41715	1.0288	4.7799	75.44	-0.2264	-0.0168	0.2097	1151.6351	0.150351	-435.283616	-435.27548	-435.274536	-435.316702	30.455	
N	-0.0262345718	 1.3454943362	 0.0726925669	-0.444427
C	 0.0311186193	 0.0828832319	-0.021065288	 0.321972
C	 1.3026839947	-0.763925276	-0.0923943764	-0.251948
N	 1.2558461836	-1.9144656472	-0.9945048462	-0.281309
C	 0.0455110416	-2.703207854	-0.7740310349	-0.164372
C	-1.2253781942	-1.8592256783	-0.8882943514	-0.180875
N	-1.1610078223	-0.6884639347	-0.006337024	-0.09924
C	-2.2596723884	-0.3737364996	 0.7838195856	 0.160531
O	-2.3440486407	 0.5106414035	 1.5928003488	-0.290532
H	 0.9175592512	 1.7365823793	 0.0935024083	 0.222181
H	 2.1432600311	-0.1224778086	-0.3708932243	 0.115052
H	 1.4996644378	-1.1402355171	 0.9220799839	 0.135257
H	 1.2716982262	-1.5867090095	-1.956667397	 0.222496
H	 0.0136406786	-3.5242927714	-1.4970476742	 0.11268
H	 0.1043005877	-3.1452490207	 0.2287923629	 0.118015
H	-1.3524778588	-1.5323869555	-1.9309675669	 0.112026
H	-2.1108408865	-2.44286881	-0.6177829275	 0.120161
H	-3.0790616592	-1.0985520381	 0.5959656244	 0.072331
