16
gdb 51071	3.68473	1.343	1.19126	2.6607	69.12	-0.2381	0.0115	0.2496	1036.8578	0.124849	-437.832964	-437.825611	-437.824667	-437.865456	27.934	
O	 0.4000158824	 1.8705642017	 1.5244860158	-0.30422
C	 0.1453417925	 1.7947718247	 0.3450386294	 0.131341
N	 1.0258780477	 1.3833885427	-0.6220788125	-0.456689
C	 2.3180664916	 0.9344156413	-0.314933387	 0.38976
C	 3.4824110327	 1.6079041726	 0.3995494486	-0.124087
C	 3.6535715833	 0.4217045834	 1.3460350026	-0.229604
C	 2.9827375868	-0.41210538	 0.227767793	 0.016272
O	 3.9453633303	-0.3794754116	-0.8654783383	-0.287892
C	 3.6353926573	 1.0011835891	-1.0111088009	-0.009321
H	-0.8392299011	 2.0629643113	-0.086585122	 0.080734
H	 0.6651014985	 1.2386192505	-1.5540596644	 0.253806
H	 3.6106965568	 2.6648866729	 0.5908642668	 0.101877
H	 4.6614139673	 0.1131843518	 1.6376905825	 0.101003
H	 2.9981161502	 0.5270076635	 2.2124941608	 0.131039
H	 2.5350825022	-1.3907999331	 0.3840887926	 0.092155
H	 3.9752849816	 1.5358275093	-1.888296577	 0.113826
