13
gdb 27655	3.14046	1.31189	0.92664	1.8916	70.94	-0.1926	0.0056	0.1982	1159.0411	0.08886	-452.74723	-452.739085	-452.738141	-452.779712	30.518	
N	 0.1461613907	 1.3607101849	-0.1116011245	-0.603739
C	-0.0112944132	-0.004292478	-0.0472767432	 0.272009
C	-1.0858032447	-0.846156194	-0.0368474774	 0.070106
N	-0.6060910223	-2.1795173365	-0.0910183234	-0.432682
C	 0.6668044486	-2.0374960058	-0.1128806265	 0.455158
O	 1.6252476018	-2.9613119879	-0.1399202465	-0.405172
O	 1.1302330245	-0.7610982594	-0.0962116103	-0.181429
C	-2.4438991463	-0.4818986692	 0.0166098112	 0.196258
C	-3.5964369439	-0.1308350863	 0.0690683214	-0.413825
H	 0.8807469603	 1.7215497003	 0.4851658962	 0.264046
H	-0.7282937766	 1.8458349813	 0.0418602154	 0.269648
H	 1.1815989945	-3.8192685654	-0.1351730328	 0.32388
H	-4.6156834034	 0.162973226	 0.1079926004	 0.185742
