19
gdb 108543	2.71017	1.64241	1.22873	1.5971	73.99	-0.2316	0.0679	0.2996	1046.8672	0.160321	-422.963572	-422.955928	-422.954984	-422.995662	30.373	
O	 0.0891131366	 1.3972274648	 0.0841345492	-0.419461
C	 0.0055888562	-0.0078648663	-0.1413962902	-0.185956
C	-1.4184535865	-0.5087148832	-0.1071461993	 0.332631
C	-2.4405536679	 0.046179479	-1.0965241919	-0.293303
C	-3.717301601	-0.7419115389	-0.6746180299	-0.25785
C	-3.151461519	-1.5816955813	 0.4633900983	-0.030165
C	-1.7005809514	-2.031285924	 0.1230841197	-0.003251
O	-1.3017176091	-1.9319453404	 1.5360254938	-0.321463
C	-2.1255264426	-0.743687475	 1.2756723612	 0.004118
H	-0.1298941222	 1.5548041432	 1.0078657159	 0.283519
H	 0.4355409417	-0.1707093311	-1.136295635	 0.10617
H	 0.6057561458	-0.572805755	 0.5837258756	 0.10868
H	-2.5476433919	 1.1289037007	-0.9935735455	 0.114309
H	-2.1473911121	-0.1529068759	-2.1327196406	 0.10157
H	-4.5254178295	-0.0857633396	-0.3371497804	 0.105123
H	-4.1174284282	-1.3604582253	-1.4836810267	 0.105093
H	-3.7858629182	-2.2795302449	 1.0087349955	 0.079588
H	-1.3515541295	-2.8961183389	-0.4438477441	 0.08804
H	-2.2954249714	-0.0513817677	 2.1030881344	 0.082607
