19
gdb 57763	2.81352	0.72068	0.64256	1.2247	86.74	-0.2549	0.0304	0.2852	1810.4203	0.155186	-385.825729	-385.814736	-385.813792	-385.863724	38.845	
C	 0.1067355815	 1.5847846562	-0.1222290821	-0.383565
C	-0.0285133164	 0.0586730992	-0.0198875895	-0.016973
O	 0.3887644602	-0.5860935409	-1.2216476624	-0.413804
C	 0.6819928622	-0.4667851187	 1.151817446	 0.062098
C	 1.3128595397	-0.8818342497	 2.0899558872	 0.078174
C	 2.0559678278	-1.4212246677	 3.2349951286	-0.326895
C	 2.115972172	-2.9692681576	 3.1917511039	-0.375656
C	 3.4020419416	-0.8428362915	 3.3237434545	 0.344017
C	 4.5133532503	-0.3951647621	 3.4086483433	-0.468253
H	 1.1602469642	 1.8697833991	-0.2079173783	 0.119286
H	-0.4279110131	 1.9380504451	-1.0078367277	 0.124568
H	-0.3057883661	 2.0736448336	 0.7651706665	 0.124647
H	-1.0922604103	-0.1941202033	 0.0677982058	 0.116932
H	 1.3493118781	-0.518898794	-1.2634780276	 0.282963
H	 1.51223267	-1.1373326568	 4.1480652631	 0.138347
H	 2.6386539832	-3.3473349979	 4.0738202627	 0.127739
H	 1.1035874896	-3.3795829008	 3.1696019098	 0.128965
H	 2.6486863505	-3.3025805363	 2.2985550067	 0.138028
H	 5.4916621951	 0.0113045243	 3.4813552696	 0.199382
