17
gdb 72639	2.4154	1.33606	1.18608	2.8987	71.29	-0.242	-0.0194	0.2226	1118.5344	0.133438	-458.931441	-458.922579	-458.921635	-458.964786	33.18	
O	-0.1310886793	 1.423150973	 0.0469967011	-0.450651
C	-0.0837818945	 0.048003236	 0.0664307078	 0.332082
C	 0.7341861463	-0.7988076935	 1.0483899196	-0.291611
C	-0.4606034967	-1.8128618723	 1.1142037688	-0.291567
C	-1.2261105083	-0.9218199245	 0.1290467972	 0.332038
O	-2.5743364437	-0.6511628051	 0.1808200232	-0.450647
C	-0.4075402293	-0.8104864952	-1.1759787914	-0.265274
C	-1.0622476387	-0.1120797155	-2.3035842379	 0.135471
O	-0.8787415011	-0.403186859	-3.4639852411	-0.282183
H	 0.6303091774	 1.7547595127	-0.4434096719	 0.294753
H	 1.6904828504	-1.1821972262	 0.6812965306	 0.104389
H	 0.8872453237	-0.2807650315	 1.9974425432	 0.121128
H	-0.2598342794	-2.8375922266	 0.7888664563	 0.104367
H	-0.934846426	-1.8270964409	 2.0977694941	 0.121151
H	-3.0541555949	-1.3733945269	-0.241493502	 0.29476
H	 0.2600741048	-1.6161993535	-1.4751834199	 0.093832
H	-1.7459172007	 0.7119797189	-2.0170283777	 0.097961
