21
gdb 51889	4.06911	0.84473	0.74341	4.403	80.58	-0.2727	0.013	0.2857	1538.4043	0.183853	-424.280261	-424.27147	-424.270525	-424.315053	32.783	
O	 0.0345491623	-0.0451102466	-0.1568957433	-0.280596
C	 0.034510059	 1.1493091193	-0.192729657	 0.159739
O	 1.0784732583	 1.8932945004	 0.2064278977	-0.186382
C	 0.9735547684	 3.3299381167	 0.1412940219	 0.117958
C	 0.9811865806	 3.894806828	 1.5617844676	-0.199715
C	 0.9902592222	 5.4314162107	 1.5447862063	-0.20184
C	 2.1609840784	 5.9763403088	 0.7143040467	-0.180551
C	 2.1470417384	 5.4000384147	-0.7086527362	-0.202536
C	 2.1377860653	 3.8633940598	-0.6927182744	-0.199664
H	-0.8152135371	 1.7610657787	-0.5571907966	 0.072628
H	 0.0235221908	 3.5894197575	-0.3497992057	 0.082322
H	 0.115110085	 3.5141630345	 2.1140884261	 0.100411
H	 1.8755932609	 3.5188845099	 2.0741501083	 0.113042
H	 0.0445291329	 5.797050705	 1.1210859774	 0.096683
H	 1.0359591221	 5.8115015873	 2.5706418971	 0.101199
H	 2.1234735647	 7.0704910489	 0.6797103054	 0.095928
H	 3.1076952237	 5.7105786301	 1.2039928161	 0.098736
H	 1.2559769837	 5.7648392589	-1.2383222521	 0.096674
H	 3.011749525	 5.7574513844	-1.2774077353	 0.101176
H	 3.0714862291	 3.4868418166	-0.2566752838	 0.112954
H	 2.0764448062	 3.4603436562	-1.7091477862	 0.101834
