21
gdb 42103	3.57152	1.24546	1.18096	0.8053	78.	-0.2412	0.0881	0.3293	1157.148	0.184603	-424.250297	-424.242201	-424.241257	-424.28405	31.232	
C	-0.0332057577	 1.5323583014	 0.2353889155	-0.203753
C	 1.414464746	 2.0202045772	 0.028096298	-0.205236
C	 2.244549512	 0.8219581143	 0.5022322416	-0.252526
C	 1.4873824345	-0.4014414956	-0.0546561486	 0.505428
C	 0.0062903524	 0.0441332315	-0.1749398208	-0.269654
O	 1.9591775098	-0.7771915126	-1.3453890195	-0.28946
C	 2.8717842241	-1.8455046273	-1.1563143717	-0.1105
C	 2.2453498566	-2.5897198207	 0.0205933682	-0.097913
O	 1.6776616809	-1.5384420906	 0.788470426	-0.31191
H	-0.3021079205	 1.6274355218	 1.2938617376	 0.099713
H	-0.7660295833	 2.1085013883	-0.3355676197	 0.095245
H	 1.601388426	 2.2035498291	-1.0367288905	 0.106423
H	 1.6391914284	 2.9441287073	 0.5677427847	 0.092885
H	 3.2871370721	 0.8314462221	 0.1740027148	 0.093616
H	 2.2317930396	 0.7586310397	 1.596086876	 0.106794
H	-0.6216014548	-0.5920602471	 0.4518007785	 0.110202
H	-0.3030604211	-0.0937029028	-1.2139511361	 0.113734
H	 2.9241643849	-2.425739435	-2.0804441307	 0.113063
H	 3.8782536548	-1.4776348899	-0.9044431068	 0.096505
H	 1.4694034911	-3.2904576564	-0.3202663859	 0.099026
H	 2.9683171841	-3.1316479749	 0.6373510094	 0.108317
