21
gdb 63143	2.30718	1.98175	1.55306	2.4325	76.14	-0.2475	0.0783	0.3257	979.1033	0.184136	-424.23715	-424.229111	-424.228167	-424.26911	32.379	
C	-0.0565968303	 1.5268984792	 0.0200197047	-0.462848
C	 0.0048182435	-0.0052135751	-0.0007031879	 0.277961
C	-1.4163408185	-0.565767466	-0.1335494324	-0.462843
C	 1.0500739914	-0.6115478642	-0.9933067989	-0.116926
C	 2.3571350669	-0.0425837662	-0.4108540914	-0.093255
O	 2.1148468589	-0.0626908034	 1.0141931536	-0.273643
C	 0.8180823089	-0.6189545133	 1.1617412929	 0.202266
O	 0.8512849416	-2.0072799437	 0.8714890091	-0.273642
C	 1.0271534556	-2.0893901416	-0.5610601747	-0.093257
H	 0.9045335885	 1.9865369581	 0.2510905331	 0.135621
H	-0.4038661423	 1.913069531	-0.9447586883	 0.112749
H	-0.7710032435	 1.8632479556	 0.7790547065	 0.11595
H	-1.8453261253	-0.3052118414	-1.1075123972	 0.112748
H	-1.4575413215	-1.6487578955	-0.0157861563	 0.135621
H	-2.0650466844	-0.1284197934	 0.6329686254	 0.115951
H	 0.8947442556	-0.432503117	-2.0577384983	 0.073689
H	 3.2269264837	-0.6677767123	-0.6436430693	 0.103432
H	 2.5703910803	 0.9818594647	-0.7359885137	 0.099813
H	 0.4874185014	-0.4795731364	 2.19025008	 0.087369
H	 0.2034233285	-2.660843485	-1.0033096372	 0.099813
H	 1.9671307513	-2.6065679038	-0.7859248998	 0.103431
