22
gdb 14794	12.03036	0.52693	0.51453	2.1759	76.88	-0.2492	0.0785	0.3278	2171.0296	0.197921	-387.332017	-387.321303	-387.320359	-387.368926	36.226	
C	-0.0568675454	 1.472925889	-0.0584329824	-0.382173
C	 0.0217952787	-0.0532826986	 0.0239896061	-0.181828
C	 0.7568976091	-0.5324865047	 1.2682180098	-0.030088
O	 0.7848180034	-1.9430849928	 1.2674784089	-0.246174
C	 1.4471526084	-2.4904560197	 2.3852618372	-0.053343
C	 1.412332277	-4.0083649355	 2.2731885057	-0.182572
C	 2.1064209924	-4.698750319	 3.439601009	-0.071593
O	 2.0117489706	-6.0996220388	 3.2318926766	-0.419588
H	 0.9412917884	 1.9240217724	-0.0862671233	 0.11544
H	-0.5887814826	 1.7909683827	-0.9596919706	 0.116961
H	-0.5857405522	 1.8934038528	 0.8041658778	 0.115441
H	-0.9848540097	-0.4868036747	 0.0265706126	 0.106613
H	 0.5323863488	-0.4563769651	-0.8581116597	 0.106611
H	 1.7849418687	-0.1281830526	 1.2854372707	 0.079824
H	 0.2538318377	-0.1589525994	 2.1781766138	 0.079828
H	 2.4902483005	-2.1290604906	 2.4272332798	 0.081153
H	 0.9589999581	-2.1598284532	 3.3194944384	 0.081189
H	 0.3712476636	-4.3445758257	 2.2244173815	 0.115538
H	 1.8920293561	-4.3139419867	 1.3373627637	 0.115491
H	 3.1591493977	-4.374999552	 3.494313497	 0.084122
H	 1.6276899304	-4.4041133694	 4.3883456455	 0.084096
H	 2.4510917303	-6.5419246884	 3.963896142	 0.285052
