14
gdb 23333	2.26185	1.54504	1.06296	1.3782	71.8	-0.2517	0.0018	0.2535	1101.308	0.098205	-436.511787	-436.503811	-436.502867	-436.544485	30.111	
O	-0.0620416295	 1.3974467111	-0.1715953586	-0.393309
N	 0.0861571379	-0.0026750073	-0.1331103818	-0.312349
C	-1.0214453953	-0.5795714151	-0.0009136897	 0.52705
C	-2.5387894535	-0.4311657634	 0.0574823828	-0.04733
O	-2.5914830144	-1.5205790058	-0.9551500554	-0.309246
C	-1.573118462	-1.9901154498	 0.0241745797	-0.040091
C	-2.5595223577	-1.5462141675	 1.1630002179	-0.176259
C	-2.0837716306	-1.2825195488	 2.5013792662	 0.29083
C	-1.6868016157	-1.0629115406	 3.6142970292	-0.424192
H	 0.8500350373	 1.6915175287	-0.271447432	 0.311304
H	-3.1885420459	 0.4301330642	-0.0701801987	 0.125607
H	-1.0966811563	-2.953047403	-0.1420013349	 0.121267
H	-3.489226749	-2.1190310983	 1.1262390277	 0.123033
H	-1.3332697553	-0.8668219943	 4.5964727176	 0.203685
