18
gdb 10506	3.52402	1.29698	1.08289	2.7096	68.31	-0.248	-0.025	0.223	1127.5598	0.150901	-384.932176	-384.923237	-384.922292	-384.9665	31.532	
C	-0.8503219121	 1.1314416893	-0.1754271038	-0.386592
C	 0.0311727105	-0.1044217672	 0.0430048799	-0.246052
C	 0.6191726515	-0.6661450867	-1.2401848535	 0.398611
C	 1.6185833648	 0.2260742123	-1.9682375837	-0.356958
C	 2.1170032664	-0.3295573413	-3.2871528981	 0.145543
O	 3.2729053036	-0.325194232	-3.627099864	-0.246506
C	 0.6626249301	-2.1234703542	-1.4344628786	-0.233758
O	-0.3334401925	-1.3282736	-2.0888706884	-0.269473
H	-0.2781235869	 1.9847545589	-0.5528266421	 0.119475
H	-1.6466612238	 0.9114311058	-0.8927000171	 0.136446
H	-1.3159206416	 1.4416112399	 0.7642825613	 0.11966
H	 0.8495988111	 0.1306605926	 0.7353260936	 0.104211
H	-0.5649289691	-0.893291114	 0.5140802982	 0.107777
H	 1.1283551114	 1.1832004704	-2.1989396862	 0.133391
H	 2.4803870105	 0.4457621804	-1.330429347	 0.128688
H	 1.3188126601	-0.7314090371	-3.9457304818	 0.103608
H	 1.4116595502	-2.5671516032	-2.090355703	 0.123829
H	 0.2910886957	-2.7832314138	-0.6520078858	 0.118099
