13
gdb 24511	4.11657	1.73321	1.21968	2.8107	71.62	-0.2519	-0.0533	0.1986	915.2698	0.09389	-415.67856	-415.672899	-415.671955	-415.70855	22.583	
O	-0.063980953	 1.3422234516	 0.0098289431	-0.204527
C	 1.2293361407	 1.7932128258	 0.0001457237	 0.013723
C	 2.1406328956	 0.7903967085	-0.0141874027	-0.297569
C	 1.367634467	-0.4238502345	-0.0136391805	 0.281382
C	 0.0238695074	-0.0156317857	 0.0013658754	 0.292122
C	-0.9766866114	-0.9663521465	 0.0054995335	-0.085421
N	-0.6305288186	-2.2562229565	-0.0050160263	-0.255192
C	 0.6794870404	-2.5532939832	-0.0190879342	 0.051441
N	 1.7167588521	-1.7162666951	-0.0242036998	-0.338091
H	 1.3313788043	 2.8669077409	 0.0052272172	 0.155033
H	 3.2138039359	 0.8892915393	-0.0238316487	 0.136241
H	-2.0340401274	-0.7158259441	 0.0169218663	 0.131443
H	 0.919888927	-3.6131824805	-0.0273108669	 0.119415
