19
gdb 55152	2.76062	1.45567	1.29515	3.6315	74.13	-0.2389	-0.0036	0.2353	1065.3532	0.159198	-423.04369	-423.035494	-423.03455	-423.077008	31.378	
C	 0.8165327588	 0.8465454129	 0.2457794251	-0.489743
C	-0.2219635789	-0.2215950491	-0.0437091927	 0.417511
O	-0.911532161	-0.6724678537	 0.8414459072	-0.310505
C	-0.4316919602	-0.6656273941	-1.5035775566	-0.130598
C	 0.8348051669	-0.6467080885	-2.4036793253	-0.271819
C	 1.3821283016	-2.053578169	-2.2748110776	 0.057434
O	 1.4094953992	-2.5170909734	-0.9162293196	-0.255921
C	 0.323873131	-2.9317121095	-1.7651393526	 0.058733
C	-0.9434494931	-2.1269001996	-1.5589318462	-0.251899
H	 1.8177539815	 0.4064392572	 0.1842658642	 0.156742
H	 0.7730608117	 1.6655263872	-0.479673818	 0.128261
H	 0.6612363274	 1.2300433258	 1.2547298347	 0.140045
H	-1.1831932862	 0.0309670112	-1.8957380817	 0.103011
H	 0.5608833876	-0.464840193	-3.4499082833	 0.106892
H	 1.5599247737	 0.1209750069	-2.1237791959	 0.111429
H	 2.1954127268	-2.4016412958	-2.9062091004	 0.094974
H	 0.2866343318	-3.9962562392	-1.9795036564	 0.096154
H	-1.4794393721	-2.3824263027	-0.6429785255	 0.141661
H	-1.6134899465	-2.2878063633	-2.4113501493	 0.097641
