14
gdb 16102	4.49878	1.78067	1.52897	4.95	67.36	-0.2493	-0.0163	0.233	826.1299	0.108761	-341.573205	-341.566824	-341.56588	-341.603595	24.649	
N	 0.0936758156	-1.1399392959	 0.0295322012	-0.335909
C	 0.0570686468	 0.0153756258	 0.0142025369	 0.222316
C	-0.0389296885	 1.4544446595	-0.0141546552	 0.164602
C	 0.3703518341	 2.23639418	-1.2287014388	-0.258385
N	 1.2156839331	 2.2633391374	-0.0416929064	-0.125501
C	 0.9812891921	 3.4099635619	 0.8688184802	-0.215578
C	-0.4384263851	 3.2669583801	 1.3683737707	-0.089692
C	-0.9981317667	 2.1549726588	 0.8970890353	-0.132845
H	 0.8082598031	 1.719172292	-2.0774429263	 0.140676
H	-0.2468436077	 3.1003053068	-1.4666825971	 0.126065
H	 1.7093156141	 3.3686002966	 1.6884428858	 0.132425
H	 1.1558244772	 4.3501247581	 0.3315086039	 0.126916
H	-0.9181150916	 3.9955176603	 2.0106179016	 0.117983
H	-1.9910727865	 1.7782741986	 1.1016917882	 0.126927
