21
gdb 58675	1.76678	1.51801	1.1101	2.5521	79.42	-0.2465	-0.0227	0.2238	1235.0346	0.179208	-424.226656	-424.216259	-424.215315	-424.261656	38.126	
C	-0.5649746688	 1.4529302756	 0.1241461791	-0.402869
C	-0.0428365621	 0.0293456597	-0.1270009314	-0.049009
C	 0.6790767971	-0.086445886	-1.4799153346	-0.405662
C	 0.8322402866	-0.4615096827	 1.0243483278	 0.226224
C	 0.1656316481	-1.0840928	 2.2577333867	-0.369083
C	 0.9091400643	-1.9611941734	 1.3124017345	 0.072517
O	 0.2234951245	-2.7942013784	 0.4283275132	-0.420057
C	 2.0993123418	 0.2643462617	 1.3117503824	 0.091678
O	 2.8434656499	-0.0038859431	 2.2286130309	-0.280343
H	 0.248933851	 2.1863403211	 0.1485478915	 0.115263
H	-1.2527831442	 1.7568941475	-0.6715250738	 0.114653
H	-1.099701964	 1.5183020893	 1.0771079987	 0.115519
H	-0.9047759398	-0.644198794	-0.1674965397	 0.087042
H	 1.5682042248	 0.5524338475	-1.5265168076	 0.112017
H	 0.9896454467	-1.1183380883	-1.664281304	 0.135439
H	 0.0163430626	 0.2210978538	-2.2954489052	 0.111848
H	 0.6224716432	-0.8664506232	 3.2166292751	 0.138354
H	-0.9184753594	-1.1259471278	 2.2365201044	 0.118026
H	 1.8881620086	-2.3171003939	 1.6294380084	 0.114349
H	-0.2068641974	-3.4859020469	 0.9415831973	 0.294714
H	 2.3459129564	 1.0924995618	 0.6140159063	 0.07938
