16
gdb 84199	3.33671	1.14648	0.89581	3.5729	75.52	-0.2377	-0.0758	0.162	1254.2802	0.123831	-437.950987	-437.942566	-437.941622	-437.984347	30.72	
C	-0.10758602	 1.5833409706	 0.0355529824	-0.392559
C	 0.0290109029	 0.0542006767	-0.0375181418	-0.167386
C	 0.8210730846	-0.4860656203	-1.1971574705	-0.204083
C	 1.8285206879	-1.2406971538	-0.7194317614	 0.277033
N	 1.8127783282	-1.2784264034	 0.678181162	-0.39394
C	 0.7848657067	-0.5090859395	 1.1914251363	 0.42037
O	 0.5417918943	-0.3130473079	 2.3576577861	-0.368848
C	 2.8558926325	-1.962953295	-1.468341287	 0.086134
O	 3.7283500258	-2.6142718987	-0.9366484489	-0.282237
H	 0.8715360047	 2.0671984264	-0.0241658175	 0.129456
H	-0.7280857429	 1.9606171793	-0.7818264068	 0.121306
H	-0.5691242654	 1.8580191468	 0.9873364435	 0.150899
H	-0.9786602623	-0.3852304903	-0.0250860784	 0.131194
H	 0.6158211824	-0.3029109948	-2.2423160918	 0.125069
H	 2.5069075181	-1.7604892604	 1.2271207078	 0.276525
H	 2.7760374124	-1.8662020255	-2.570078464	 0.091068
