19
gdb 50579	3.61423	1.09149	0.9326	2.0905	75.54	-0.2491	-0.0233	0.2258	1253.8737	0.160121	-423.035656	-423.027558	-423.026613	-423.068992	30.577	
O	-0.2827102106	 0.0776857076	-0.0615374408	-0.248035
C	-0.0795724937	 1.2612152301	 0.0173455671	 0.147548
C	 1.28189587	 1.9214762307	-0.0196290533	-0.059991
C	 1.4013065671	 2.8069574095	-1.2787054093	-0.225689
C	 2.8096482052	 3.406823715	-1.3907211909	-0.2501
C	 3.2255111407	 4.1192707312	-0.1248661282	 0.070414
O	 2.2499729562	 4.9890809499	 0.4568428624	-0.255282
C	 2.5933083626	 3.7882422199	 1.1628487536	 0.035845
C	 1.4990601124	 2.7416109237	 1.2732892397	-0.250958
H	-0.9256983703	 1.9835791365	 0.1209319151	 0.072255
H	 2.0259922025	 1.1193501772	-0.0789080604	 0.091351
H	 1.1823409752	 2.213592819	-2.1721714956	 0.11074
H	 0.663484281	 3.6155252173	-1.2334914151	 0.121125
H	 3.5418182123	 2.6152414466	-1.5981000469	 0.10864
H	 2.8554005198	 4.1056337309	-2.2344205457	 0.112669
H	 4.2407169973	 4.5184782757	-0.1165290692	 0.089668
H	 3.1582573841	 3.9710566683	 2.0771456498	 0.095133
H	 0.5708242492	 3.2604808621	 1.5486244708	 0.119082
H	 1.7316368591	 2.0613906489	 2.0994038167	 0.115584
