14
gdb 8741	3.85785	1.3126	1.18328	2.0038	62.03	-0.3204	-0.0122	0.3082	1006.6372	0.105855	-378.740462	-378.73185	-378.730906	-378.773743	29.839	
C	-0.0537106148	 1.5766125461	 0.0987095284	-0.422944
C	-0.0274436432	 0.0412455648	-0.0087509587	-0.156419
C	-1.3829080169	-0.5148059759	 0.0306961411	 0.274782
N	-2.4520388048	-0.9498995852	 0.0733341304	-0.306396
C	 0.6935245661	-0.4631374133	-1.2983411066	-0.012011
O	 0.0914490362	-0.0121640323	-2.4865660896	-0.400338
C	 2.1246566533	-0.1014544091	-1.2372387374	 0.258619
N	 3.2344000641	 0.2168604473	-1.1919560302	-0.307723
H	 0.9658368942	 1.9711730478	 0.0834788553	 0.154229
H	-0.6243749609	 2.0159189368	-0.7238408713	 0.142024
H	-0.5294196441	 1.8831906831	 1.0321582822	 0.155393
H	 0.5227344507	-0.3692038324	 0.8469042332	 0.151417
H	 0.6216628864	-1.5550097395	-1.3268749084	 0.163897
H	 0.2788320136	 0.9264156619	-2.6011727183	 0.30547
