20
gdb 30862	2.58116	1.26342	0.90081	1.9724	84.95	-0.1818	0.0534	0.2352	1350.6141	0.169496	-403.185183	-403.17498	-403.174036	-403.220661	36.187	
C	 0.3140292392	 0.9607014599	-0.4084890493	-0.246772
O	-0.2648458232	 0.2422119767	 0.6808552392	-0.271042
C	-1.3188421148	-0.5481603661	 0.3460409612	 0.263665
C	-1.3700106952	-1.8683051195	-0.0315976383	 0.18825
C	-0.1971870855	-2.7816785758	-0.2145107017	-0.510073
C	-2.7594615369	-2.1728448537	-0.1964305504	-0.322513
C	-3.4997495027	-1.0481462891	 0.0829483981	 0.317794
C	-4.9743115539	-0.8179850749	 0.0836548079	-0.501279
N	-2.603899572	-0.0499048669	 0.404133976	-0.359536
H	 1.145746569	 1.5374453495	 0.0024315628	 0.127988
H	 0.6876019394	 0.2764829822	-1.179458167	 0.123772
H	-0.4115581111	 1.646001705	-0.8656732895	 0.111172
H	-0.3103963973	-3.7039754734	 0.3670344502	 0.121635
H	-0.061018925	-3.079878135	-1.2615577581	 0.117302
H	 0.7243259638	-2.2939910716	 0.1165759271	 0.122797
H	-3.1697547668	-3.128506848	-0.4900958588	 0.082941
H	-5.3490404836	-0.5150174815	 1.0701260928	 0.122511
H	-5.2768309493	-0.0411505641	-0.6305461137	 0.122015
H	-5.4911396384	-1.7396145702	-0.1942665369	 0.135601
H	-2.8361180756	 0.8696016364	 0.7382873784	 0.253773
