19
gdb 95432	2.57872	1.40084	0.94978	3.7754	79.66	-0.2486	-0.0583	0.1904	1242.4293	0.158842	-423.067699	-423.058714	-423.05777	-423.101791	33.244	
C	 0.0259771365	-0.7716586246	 1.3084518187	-0.490266
C	 0.0751426206	-0.0123597531	-0.003467944	 0.311751
O	 0.0786600722	 1.2104062656	-0.0204162262	-0.334043
C	 0.1146017068	-0.7639484819	-1.2719179014	 0.217229
C	 0.0994054016	-2.0917344672	-1.4489175997	-0.173247
C	 0.1818312905	-2.4722523356	-2.9038797394	-0.26508
C	-0.0725349791	-1.1317533372	-3.6361292948	-0.23182
C	 0.2293826213	-0.0276450058	-2.6025471241	 0.046527
O	-0.6829028761	 1.0408356414	-2.7510021967	-0.443841
H	-0.8542549126	-1.4220201987	 1.3434688064	 0.143275
H	 0.9077979242	-1.4113171911	 1.4190982427	 0.141174
H	-0.0142163007	-0.0595513637	 2.1332070354	 0.144457
H	 0.0596902774	-2.8310684579	-0.6552215413	 0.104166
H	 1.1773646867	-2.8815358376	-3.1277532985	 0.120451
H	-0.5333206989	-3.2572054386	-3.1740209157	 0.116162
H	 0.5080654076	-1.0271084743	-4.554645024	 0.10466
H	-1.1314839103	-1.0394574307	-3.8946049859	 0.123875
H	 1.2642458195	 0.3413587422	-2.7132201838	 0.071061
H	-0.5375629271	 1.6102181288	-1.9820909376	 0.29351
