17
gdb 34413	2.70689	1.5418	1.28986	4.6748	71.89	-0.2502	0.0162	0.2664	1019.6686	0.138242	-417.999746	-417.992224	-417.99128	-418.031824	28.976	
N	-0.1779253266	-1.2103399176	-0.0640065336	-0.344515
C	-0.1073237407	-0.0574489969	-0.0157368309	 0.263
C	-0.0006129214	 1.3998322511	 0.0291845968	 0.138955
C	-0.7179238597	 2.0863135885	-1.1520063786	-0.285687
C	 0.1626625346	 3.3175569447	-1.4242250079	-0.099033
O	 1.4917198261	 2.8998751069	-1.1248938529	-0.24569
C	 1.4371319172	 2.0548927692	-0.0074415455	 0.065686
C	 1.0711772469	 2.7168419815	 1.3489419239	-0.202126
N	-0.2016783113	 1.9569899136	 1.3848655059	-0.348581
H	-0.7186162669	 1.4184735773	-2.0174640484	 0.137515
H	-1.755357996	 2.3364916658	-0.9140021439	 0.119628
H	 0.1434204359	 3.6460112815	-2.4652052978	 0.127203
H	-0.1348610395	 4.1661957118	-0.7910155887	 0.100943
H	 2.3080545419	 1.4006161813	-0.0173725484	 0.115193
H	 1.7329997256	 2.4770615177	 2.1868822911	 0.12019
H	 0.979163881	 3.8059951472	 1.2728525502	 0.111293
H	-1.0522267272	 2.4939591766	 1.5088725885	 0.226026
