21
gdb 81936	2.0782	1.80487	1.09149	1.7328	85.02	-0.2171	0.0217	0.2389	1171.3606	0.181981	-387.099076	-387.089801	-387.088857	-387.132579	35.549	
C	-0.0461595037	 1.5250707025	 0.1569393176	-0.501178
C	-0.0326183592	 0.0347199827	 0.0141897457	 0.214814
C	-0.0252223433	-0.7009842359	-1.1080464771	 0.158179
C	 0.0094279481	-0.2559162968	-2.5355293527	-0.493444
C	-0.0343962181	-2.1979361513	-0.7981567051	 0.043278
O	 0.9519389681	-2.9401346835	-1.5110927136	-0.431108
C	 0.0831018886	-2.259679898	 0.7223597426	-0.06786
C	 1.306604184	-1.6441824526	 1.3660628395	-0.29972
C	 0.027384968	-0.8422792487	 1.2324475761	-0.115696
H	 0.8297339924	 1.873953611	 0.7188673522	 0.126861
H	-0.0582534552	 2.0363500093	-0.8083955715	 0.123971
H	-0.9277080573	 1.8560691077	 0.7210761318	 0.125772
H	 0.156710115	 0.8217520163	-2.6395436721	 0.116065
H	 0.8136808042	-0.7716753202	-3.0718154741	 0.13308
H	-0.9227517581	-0.5203561013	-3.053048321	 0.123304
H	-0.982410918	-2.6470546149	-1.124696649	 0.085842
H	 1.8084258423	-2.6990063146	-1.1403001511	 0.275117
H	-0.4042316408	-3.0708759694	 1.2489715248	 0.086882
H	 1.5771077458	-2.0221335782	 2.346765969	 0.111225
H	 2.1510360352	-1.3427859859	 0.7522823042	 0.101227
H	-0.5214385381	-0.5674930481	 2.1271172537	 0.08339
