19
gdb 54981	3.09768	1.06891	1.05812	2.4271	76.64	-0.2458	-0.0249	0.2209	1258.8759	0.156898	-423.018441	-423.009313	-423.008369	-423.053035	33.284	
C	 0.1387976224	-0.0087530922	 0.7405709663	-0.486287
C	-0.2782774657	 0.9690453463	-0.3353893208	 0.36465
O	-0.5939487157	 2.1152992642	-0.1053420032	-0.303592
C	-0.2671493026	 0.4863168374	-1.7618112957	-0.163253
O	 0.2884710608	-0.8106948666	-2.0373572245	-0.27468
C	-1.0988833646	-0.6441477238	-2.2250645246	 0.446964
C	-2.2101118215	-1.4155068307	-1.5020584719	-0.311304
C	-3.0881320199	-1.2142478254	-2.7746976237	-0.218461
C	-1.8214843014	-0.7731336111	-3.56836685	-0.305656
H	-0.4578931646	-0.9247523915	 0.7010517355	 0.146455
H	 1.1772700538	-0.314252388	 0.5728419329	 0.154279
H	 0.0395774646	 0.4649198449	 1.7177245451	 0.138545
H	-0.0273725982	 1.2670035784	-2.4834108187	 0.114227
H	-1.9269992814	-2.4608723609	-1.3472902477	 0.119469
H	-2.5884650462	-1.0074421074	-0.5625489036	 0.115708
H	-3.612364893	-2.0953853736	-3.1464405251	 0.110358
H	-3.8068226075	-0.4011573497	-2.6550326216	 0.117251
H	-1.8943786373	 0.1219683558	-4.1896994647	 0.114545
H	-1.3946843819	-1.585044226	-4.1646949542	 0.120782
