19
gdb 42415	2.91657	1.00045	0.82328	2.8892	82.58	-0.2578	-0.058	0.1998	1419.4109	0.157643	-385.85835	-385.849014	-385.848069	-385.894043	33.76	
O	-0.4311215627	 0.0712450467	 1.2905330467	-0.285154
C	-0.0142556874	 1.0131716024	 0.6508048145	 0.246814
C	 1.3665756062	 1.6070836598	 0.867501475	-0.329233
C	 2.4077412567	 0.9223371991	-0.0278726883	 0.059687
C	 2.4172604812	 1.1863939836	-1.5615199878	-0.221896
C	 3.9685559517	 1.1850677129	-1.5068143035	-0.212287
C	 3.8748236728	 1.4333918397	 0.0229974111	-0.237184
C	-0.8109625668	 1.6140741432	-0.4093870745	 0.288646
C	-1.4689306376	 2.1251551718	-1.2788725986	-0.460045
H	 1.3528604358	 2.6831506003	 0.6616122055	 0.106759
H	 1.6265028201	 1.44800236	 1.9191779425	 0.124884
H	 2.3825733408	-0.1556139085	 0.1651282351	 0.090847
H	 1.9222668108	 0.4590579473	-2.2087810471	 0.103177
H	 2.0235877309	 2.1807645077	-1.7947768908	 0.10372
H	 4.3807065596	 0.1971567478	-1.7308574209	 0.105695
H	 4.4985258226	 1.9263395757	-2.1088355164	 0.098403
H	 3.9134190727	 2.502020408	 0.2592721748	 0.099892
H	 4.5728129804	 0.9070295336	 0.6786091007	 0.100531
H	-2.0613711478	 2.5633807288	-2.0450331279	 0.216745
