21
gdb 83339	2.08277	1.65508	1.52644	2.0798	78.05	-0.2333	0.0719	0.3052	1056.039	0.182101	-424.210415	-424.201552	-424.200608	-424.243077	34.919	
C	-0.1204998311	 1.6222929347	 0.0167632003	-0.443988
C	 0.0025064259	 0.1088598303	-0.0186424166	-0.00292
C	 1.1690750063	-0.6109901126	-0.7795922856	-0.154608
C	 2.3936786666	-0.0063041973	-0.0928029581	-0.091929
O	 1.9566428433	-0.0449790365	 1.286486806	-0.317298
C	 0.6491681347	-0.6504407778	 1.1825884164	 0.423251
C	 0.0192957659	-0.8270618242	 2.532548835	-0.50642
C	 0.9275706685	-1.8161823451	 0.1945436595	 0.096855
O	-0.2183968516	-2.6006821097	-0.0359044295	-0.445109
H	 0.764374467	 2.0914609031	 0.4544084545	 0.131069
H	-0.2660386925	 2.0319046646	-0.9891727019	 0.111208
H	-0.9845367876	 1.9239086619	 0.61884404	 0.116034
H	-0.9420708216	-0.364419814	-0.2881138254	 0.090149
H	 1.1918015399	-0.7237689882	-1.8644656899	 0.060634
H	 3.3026426303	-0.6080905948	-0.2158126745	 0.097128
H	 2.6122126019	 1.0245254048	-0.3939540389	 0.100259
H	-0.1963800599	 0.1426035723	 2.9921334957	 0.124099
H	-0.9145345422	-1.3872056076	 2.4363492707	 0.133349
H	 0.6905916658	-1.3774946483	 3.1989958852	 0.125886
H	 1.8046649883	-2.4331138572	 0.4339872831	 0.065991
H	-0.0702390677	-3.1269302283	-0.8278148759	 0.286361
