16
gdb 85641	2.3904	1.43252	1.02416	4.5831	69.67	-0.2687	-0.0526	0.2161	1162.6605	0.12322	-437.919622	-437.91113	-437.910186	-437.953341	30.721	
C	 0.0251846081	 1.5857543513	 0.0610078651	-0.407732
C	 0.0625973536	 0.0811206994	-0.1109522963	 0.12256
C	 0.9166950067	-0.4474699675	-1.2687769268	-0.355388
C	 1.4267455937	-1.7879133141	-0.752837231	 0.387077
O	 1.9915178594	-2.6585463795	-1.3454298148	-0.275481
C	 1.0809616327	-1.8020054637	 0.7723117308	-0.146577
O	 0.6765679944	-0.4891853712	 1.069970487	-0.250767
C	 0.0253645615	-2.7949623018	 1.0446099719	 0.284316
N	-0.8224395683	-3.5551496905	 1.2414293017	-0.315278
H	 1.0391145425	 1.9862676541	 0.1547009193	 0.129405
H	-0.4591999104	 2.0538425569	-0.8008344684	 0.129188
H	-0.5371297544	 1.8510763758	 0.959927429	 0.140994
H	-0.9604991418	-0.3144647108	-0.1958150675	 0.101981
H	 0.3869346995	-0.5735050919	-2.2149983147	 0.15079
H	 1.7814969519	 0.2036732572	-1.4466069804	 0.146958
H	 1.9710798009	-2.0524547737	 1.3574549251	 0.157953
