13
gdb 42174	2.18364	1.71145	1.04777	2.8243	71.32	-0.2883	-0.092	0.1963	1076.4647	0.087556	-415.563443	-415.555005	-415.554061	-415.597	29.991	
O	 0.1231957368	 0.66936049	 1.4215408914	-0.311097
C	 0.0121333016	 1.414035488	 0.469069939	 0.222231
C	 1.119453391	 1.7841008111	-0.3727835467	 0.270794
C	 2.0394171111	 2.0960033329	-1.0825891297	-0.401726
C	-1.3479932905	 1.9827804806	 0.1172010278	 0.067303
C	-2.4576769432	 0.9531111579	 0.0701485596	-0.236911
N	-2.3735787936	 1.8863391787	 1.1723043897	-0.314027
C	-1.4050520999	 3.1385320128	-0.7441979974	 0.232944
N	-1.4418979861	 4.0517222773	-1.4511280541	-0.332699
H	 2.8515637358	 2.3759872543	-1.7098916416	 0.231247
H	-3.2707418501	 1.1215781801	-0.6286661518	 0.157002
H	-2.1526826185	-0.0782586796	 0.2224455949	 0.150969
H	-1.9192849143	 1.4293564861	 1.9656469189	 0.263972
