12
gdb 130540	3.62333	1.28718	0.94978	0.5318	71.41	-0.283	-0.0973	0.1857	1120.8611	0.076655	-435.451145	-435.443667	-435.442723	-435.483845	26.649	
O	 0.0165393835	-0.0600500446	 0.0041041769	-0.287442
C	-0.0317436468	 1.1546573659	 0.0078089615	 0.135402
C	 1.153662776	 1.9848884915	 0.0015566962	 0.29036
C	 2.1515243735	 2.656614202	-0.0037573785	-0.40833
C	-1.3326424245	 1.8542371708	 0.0190470734	 0.352609
C	-2.6056225949	 1.3626458306	 0.0267637925	-0.3043
C	-3.4032694175	 2.5309962449	 0.0358760422	 0.022283
N	-2.6746750434	 3.6258314792	 0.0334397735	-0.117105
O	-1.361211981	 3.2015031685	 0.0228967322	-0.207927
H	 3.0345092206	 3.2491594521	-0.0083090198	 0.223391
H	-2.9043556439	 0.3286502452	 0.0260311526	 0.153613
H	-4.4801606014	 2.6196071139	 0.0439061973	 0.147446
