23
gdb 113205	3.59909	0.83485	0.82065	1.363	86.87	-0.2439	0.0775	0.3214	1541.3457	0.204454	-388.256529	-388.246331	-388.245386	-388.29245	38.094	
C	 0.0107507016	 1.6152536101	-0.0785707823	-0.488538
C	 0.0153813711	 0.1003371164	 0.0305095746	 0.331612
C	 1.1141384717	-0.6625051892	-0.6814090754	-0.324308
C	 1.1059549457	-0.5978061318	 0.8268547439	-0.014405
C	 2.1876483697	 0.1247903195	 1.5856229979	-0.11502
O	 3.2840152542	-0.7719686047	 1.733694185	-0.418751
C	-1.332994082	-0.5775337075	 0.074084776	-0.025521
C	-2.5503639641	 0.0336052545	 0.7244022745	-0.278671
C	-2.5062896244	-0.1498415023	-0.7742148494	-0.281853
H	 1.0207033069	 2.0103219138	-0.2069458513	 0.116923
H	-0.5707326793	 1.9454634218	-0.946011931	 0.119352
H	-0.4184129907	 2.0892698351	 0.8110795922	 0.117612
H	 0.8669099899	-1.6036398921	-1.1611688559	 0.106621
H	 1.8738746245	-0.0868923164	-1.2014815376	 0.10506
H	 0.7915027366	-1.506362399	 1.3346811243	 0.085789
H	 2.4978425137	 1.034672491	 1.0508900555	 0.079901
H	 1.8062865036	 0.4402186556	 2.5707580109	 0.084572
H	 3.9456191915	-0.3422198806	 2.2840850017	 0.283082
H	-1.2464140171	-1.6537469537	 0.2031533315	 0.07777
H	-3.1979916763	-0.6104170026	 1.3092725444	 0.108453
H	-2.478466258	 1.0462932243	 1.1049419991	 0.11015
H	-2.4096719854	 0.7394937504	-1.3868099819	 0.111336
H	-3.1198911736	-0.9246175926	-1.2208849969	 0.108834
