17
gdb 124313	4.56474	1.00094	0.89388	2.8405	75.53	-0.2349	-0.0253	0.2096	1311.1889	0.135958	-418.044783	-418.036182	-418.035238	-418.079792	30.435	
C	 0.0758054683	 1.4422447554	-0.1716327888	-0.478313
C	 0.0366086505	-0.002465964	 0.2847131356	 0.375658
O	 0.7884421741	-0.4513126043	 1.1130984812	-0.275787
C	-1.0605821593	-0.8538925167	-0.370849445	-0.263164
N	-0.899183565	-2.2728992574	-0.1960227568	 0.063242
C	-0.8694666163	-2.9883984535	 0.9567334659	-0.014122
C	-0.6884101026	-4.3074512073	 0.6014406693	-0.233262
C	-0.6132155539	-4.2849680189	-0.8066409631	-0.001352
N	-0.7408281435	-3.0536792986	-1.2907235118	-0.268167
H	 0.4745408407	 1.4890846372	-1.1920563499	 0.155471
H	-0.9289945965	 1.8772146301	-0.2012788061	 0.138953
H	 0.7179435912	 2.0233141825	 0.4907666485	 0.151361
H	-2.0226110844	-0.5141092325	 0.040053679	 0.142424
H	-1.0916663467	-0.6707954955	-1.4473657268	 0.155778
H	-0.9564194989	-2.5074601792	 1.9167189927	 0.136974
H	-0.6153134644	-5.1555755892	 1.2623509253	 0.103643
H	-0.4750679833	-5.1124641479	-1.4871067492	 0.110662
