15
gdb 27847	2.00786	1.86744	0.97081	8.3063	72.79	-0.2161	0.0006	0.2166	1135.9123	0.115514	-450.195473	-450.187538	-450.186594	-450.227642	30.854	
N	 0.118171507	 1.3916383628	 0.1440133253	-0.592409
C	-0.0144338697	 0.011743022	 0.0283938445	 0.404728
C	-1.1652027663	-0.6923876968	-0.0118956119	-0.306961
C	-1.1493841322	-2.1577616951	-0.0115552121	 0.373454
O	-2.1662195357	-2.8252127473	-0.0173579814	-0.378038
N	 0.1213193387	-2.7795313121	-0.0347453422	-0.367628
C	 1.1807184233	-2.0540174998	 0.0061509895	 0.449039
N	 2.4344262415	-2.6314778511	 0.0954607874	-0.572956
H	 2.3870251903	-3.6313364918	-0.0442269535	 0.272235
H	 3.1675747118	-2.1907451786	-0.4426189378	 0.251447
N	 1.1940716987	-0.6693939996	 0.0117664402	-0.405462
H	 0.7930797638	 1.7979229008	-0.4931584147	 0.251962
H	-0.7673031314	 1.874923898	 0.0806510779	 0.264077
H	-2.1248795731	-0.193292318	-0.0490157919	 0.096331
H	 2.0045188134	-0.1970424134	 0.3843201308	 0.260181
