20
gdb 64340	2.39552	1.4745	1.16236	4.024	75.15	-0.2253	0.017	0.2422	1146.3248	0.170896	-440.326312	-440.317299	-440.316355	-440.359907	34.453	
C	 0.0561632269	 1.4580025745	 0.1474836127	-0.406318
C	-0.1131153904	-0.0465952141	-0.0510533026	 0.339667
C	-1.5925089532	-0.4232782182	-0.1757980531	-0.409677
C	 0.7132175981	-0.5449739411	-1.248877012	-0.201287
N	 0.8746263635	-1.9905577283	-1.2875386654	-0.293121
C	 1.4994870705	-2.4644914482	-0.0594962313	-0.308184
C	 1.0445584551	-1.8210617806	 1.2507013294	 0.38474
O	 1.3154622731	-2.292369613	 2.3225801487	-0.326479
O	 0.3726261126	-0.6493667034	 1.1897286542	-0.259675
H	 1.1102083292	 1.7092030915	 0.2950596514	 0.126096
H	-0.3126896178	 2.0033568102	-0.7268018513	 0.118514
H	-0.5016296115	 1.7927179969	 1.0259990668	 0.132743
H	-2.0524923428	 0.0970697034	-1.0216846041	 0.120443
H	-1.7213311773	-1.5002634962	-0.3233055757	 0.110477
H	-2.1273189248	-0.1470135919	 0.7361447386	 0.138293
H	 0.2428279597	-0.2031674882	-2.1764898673	 0.11143
H	 1.7135247707	-0.0946128796	-1.2073349204	 0.111045
H	-0.0243807084	-2.4413031778	-1.4181087496	 0.225457
H	 1.3700903633	-3.5437282528	 0.0450444492	 0.142097
H	 2.5835035735	-2.2891119331	-0.1163201582	 0.143738
