11
gdb 953	6.04892	2.75968	1.89509	2.7383	54.08	-0.2509	-0.0425	0.2084	609.0979	0.081173	-339.482903	-339.477651	-339.476706	-339.51177	19.707	
O	 0.1011516026	 1.3638356741	 0.134723067	-0.429291
C	 0.0681275921	 0.0119211865	 0.0398916593	 0.302316
C	 0.0811412543	-0.6943135781	-1.1614505576	-0.096182
N	 0.0472432473	-2.0256339731	-1.2020810785	-0.231204
C	-0.0000678821	-2.6522254606	-0.0272662666	 0.065198
N	-0.0167308984	-2.0795744208	 1.178862069	-0.237158
C	 0.0173908008	-0.750476852	 1.2087305315	-0.030387
H	 0.1344178183	 1.7490091675	-0.7483633179	 0.305351
H	 0.1200591122	-0.167266825	-2.1158804165	 0.105187
H	-0.0279409265	-3.7377994757	-0.0526093535	 0.119704
H	 0.0048494495	-0.2580097727	 2.1782325239	 0.126467
