17
gdb 14672	6.1202	0.67135	0.64865	3.9436	75.81	-0.2459	0.0262	0.2721	1738.207	0.140795	-363.865181	-363.855568	-363.854624	-363.902866	31.893	
C	-0.1446809862	 1.371609848	-0.5698341543	-0.36466
C	-0.0713138985	 0.1381871232	 0.3487229645	-0.314296
C	-1.3606308208	-0.521594197	 0.5276652262	 0.084214
C	-2.4413464323	-1.0371195909	 0.6581887522	 0.028971
C	-3.7339327977	-1.6898803839	 0.8347301042	-0.285818
N	-3.8545606156	-2.9053878963	 0.0339312873	-0.26866
C	-4.9547121415	-3.1723452283	-0.7174578587	 0.161
O	-5.9541996638	-2.4864688768	-0.7600376674	-0.322481
H	 0.8437318646	 1.8291141242	-0.6723411304	 0.116036
H	-0.5021524798	 1.0940935247	-1.5649750371	 0.13063
H	-0.8303701689	 2.1189824845	-0.1619649881	 0.131166
H	 0.6487387468	-0.5822393732	-0.060378113	 0.129812
H	 0.3241941617	 0.4320710007	 1.3294233085	 0.131819
H	-3.8964337504	-1.9164370372	 1.8977010066	 0.137937
H	-4.5579632198	-1.0403003384	 0.5223040783	 0.172768
H	-3.0541326492	-3.5130938878	-0.0339154106	 0.253329
H	-4.8374808385	-4.1098551254	-1.2959794181	 0.078232
