19
gdb 96385	2.45875	1.67296	1.31377	1.9442	70.63	-0.2482	0.0838	0.332	1033.3944	0.160096	-460.14517	-460.137129	-460.136185	-460.177409	31.719	
O	 0.0635487034	 1.4228177698	-0.0177705128	-0.437972
C	 0.0357453285	 0.006183466	-0.0119985675	 0.066058
C	 0.7261484605	-0.5484778575	 1.2417563232	-0.117773
O	-0.0544138423	-0.2291083625	 2.392770638	-0.248384
C	-1.3470375873	-0.7631661862	 2.28410062	 0.004754
O	-2.0520838405	-0.2292241643	 1.1856410359	-0.291828
C	-1.3901453695	-0.5186470016	-0.0299027558	 0.416168
C	-2.2387637652	-0.4534070109	-1.2496260918	-0.331906
C	-1.7516731685	-1.7992062318	-0.7412475071	-0.334567
H	-0.4188318944	 1.7039529775	 0.7693461159	 0.288481
H	 0.5713378858	-0.3189761282	-0.9099310983	 0.08414
H	 0.8574114287	-1.6394128554	 1.1598566634	 0.092387
H	 1.7007829599	-0.0768704218	 1.3833655541	 0.119801
H	-1.2951210876	-1.8631610154	 2.1941964058	 0.082337
H	-1.8939199716	-0.4755303736	 3.1837814732	 0.120287
H	-3.2857565732	-0.216764688	-1.0991338354	 0.127691
H	-1.8001041587	-0.041592533	-2.1515073481	 0.124853
H	-0.9844048661	-2.3228450984	-1.3019033991	 0.114612
H	-2.4817847116	-2.4400308548	-0.2598751638	 0.12086
