19
gdb 54114	2.24688	1.62341	1.37272	2.5961	74.9	-0.2331	-0.0135	0.2196	1058.315	0.1568	-422.999325	-422.990175	-422.98923	-423.033427	33.671	
C	-0.7157920161	 1.1380483909	 0.1646343486	-0.485604
C	 0.1752782306	-0.0810749879	 0.0552770041	 0.332926
O	 0.8862529704	-0.4538645874	 0.9598126907	-0.31466
C	 0.1231955038	-0.8300112992	-1.2687544544	 0.209497
C	 1.0501587201	-0.2705132021	-2.3353457882	-0.479708
C	-0.0558270096	-2.3351585202	-1.29415351	-0.168942
C	-1.0311874336	-2.7647418147	-0.2048086596	-0.110736
O	-2.0097594819	-1.7682431539	-0.6365932816	-0.29291
C	-1.1744089069	-1.4121149093	-1.7426649277	 0.040149
H	-0.6259413961	 1.7816984534	-0.7166033482	 0.129019
H	-1.7540029638	 0.7889828979	 0.2061707692	 0.165898
H	-0.4789845816	 1.6998932209	 1.0689972008	 0.13682
H	 2.0958747848	-0.3595011642	-2.0244394688	 0.14149
H	 0.9309446599	-0.8163173617	-3.2772309045	 0.124016
H	 0.8423980474	 0.786077129	-2.5349360465	 0.125617
H	 0.5918776295	-2.9890177726	-1.8627576572	 0.101313
H	-1.4333633911	-3.771832416	-0.3567149421	 0.110657
H	-0.7261166655	-2.6271158541	 0.8362237179	 0.131525
H	-1.6490397304	-1.2210787689	-2.6994609226	 0.103632
