19
gdb 13596	4.40144	1.19956	1.117	1.5632	73.95	-0.2263	-0.0219	0.2044	1160.2326	0.163556	-365.054161	-365.045075	-365.04413	-365.088267	32.439	
C	 0.4646501061	 1.5986007885	 0.2370853963	-0.379644
C	 0.9235835497	 0.1711197415	-0.0437921219	-0.287904
C	 0.1826375095	-0.4945294035	-1.1943301313	 0.38382
O	-0.6645247796	 0.0914060722	-1.8389410243	-0.328326
C	 0.5782955473	-1.9143782308	-1.4774880165	-0.100632
C	-0.423018737	-2.8138549888	-2.1454835492	-0.234404
N	 0.7707285496	-2.4240824054	-2.8515223491	-0.081834
C	 0.6429271505	-1.5268586066	-3.9981231917	-0.325852
H	 0.6044363188	 2.2323357525	-0.6422183657	 0.132443
H	-0.5989942283	 1.6241903322	 0.4877311014	 0.131284
H	 1.0276158216	 2.0296476713	 1.0695123108	 0.110228
H	 1.997712987	 0.1335750166	-0.2759844832	 0.127506
H	 0.8076650296	-0.4693972555	 0.8424108728	 0.124126
H	 1.2783091307	-2.3453851961	-0.7653746834	 0.090122
H	-0.4850342863	-3.8545032398	-1.8366437201	 0.118073
H	-1.3635015534	-2.3401848765	-2.4218693587	 0.132203
H	-0.1482454272	-0.776182573	-3.8973692791	 0.146199
H	 1.5982583857	-1.0160703581	-4.1548785226	 0.119346
H	 0.4434438457	-2.1460165007	-4.8782201146	 0.123247
