15
gdb 50121	5.86827	0.89557	0.84376	1.0645	73.03	-0.2504	-0.0435	0.207	1296.546	0.112402	-416.778584	-416.770568	-416.769624	-416.811819	29.023	
O	-0.0534382717	-0.0488669456	-0.1000182193	-0.247528
C	-0.0051446055	 1.1262929227	 0.1614868417	 0.151495
C	 1.2525156114	 1.9567239227	 0.0552496827	-0.07891
C	 1.2196038685	 3.2023836777	-0.9157485887	-0.309829
C	 1.5376627267	 4.1049248337	 0.2863204916	 0.252161
N	 0.4299122365	 3.8948280682	 1.2568290793	-0.35244
C	 1.5382967405	 2.9278637551	 1.2174293128	-0.130337
C	 2.3370062308	 5.282955138	 0.3102603964	 0.16973
N	 2.990102207	 6.2388572278	 0.3171924423	-0.335232
H	-0.9008102539	 1.6874922088	 0.4997860792	 0.104577
H	 2.0975846823	 1.3024887181	-0.1618672235	 0.111981
H	 2.020975356	 3.1575992041	-1.6527927888	 0.143501
H	 0.2694180086	 3.424538939	-1.4049231287	 0.134104
H	 0.5834234108	 4.5165410918	 2.0507712154	 0.256137
H	 2.1578532821	 2.7452690979	 2.0862069676	 0.130592
