19
gdb 100909	2.44893	1.00991	0.74717	1.8668	73.82	-0.2632	0.0334	0.2966	1479.7309	0.156222	-460.10961	-460.099098	-460.098153	-460.145433	38.084	
O	 0.0383107689	 1.4801824419	-0.1738901001	-0.4238
C	 0.0931965446	 0.0879882868	 0.0311532644	-0.070089
C	-1.3223203603	-0.5021910843	 0.0803658066	 0.099522
O	-2.0489751328	-0.0339244159	-1.0566748567	-0.435431
C	-1.3431511034	-2.043198667	 0.1782701284	-0.242279
C	-0.6549700802	-2.5725346228	 1.4647726537	-0.065922
O	-0.700401383	-3.9770092053	 1.5536873145	-0.419046
C	-2.7086961226	-2.5623748306	 0.1211323742	 0.313243
C	-3.8168291147	-3.0301949491	 0.1384280073	-0.446795
H	-0.6693871647	 1.6151443016	-0.8184272772	 0.286778
H	 0.6659749592	-0.4203560967	-0.7679228399	 0.075337
H	 0.6245650529	-0.0804800601	 0.9731819835	 0.11428
H	-1.85347358	-0.0763435753	 0.9387031864	 0.110188
H	-1.7603007403	-0.537361513	-1.8273446016	 0.286266
H	-0.7804090531	-2.4497793058	-0.6760212202	 0.106669
H	 0.4043850875	-2.3038364981	 1.4537138347	 0.119134
H	-1.1194143824	-2.088883498	 2.3387717399	 0.100692
H	-1.6286998285	-4.2355538975	 1.4947622006	 0.287
H	-4.8058594969	-3.4176260208	 0.1228461015	 0.204254
