21
gdb 60976	2.38682	1.07729	0.90101	1.4719	79.89	-0.2486	-0.028	0.2207	1406.5201	0.17801	-424.229592	-424.218853	-424.217908	-424.266329	38.068	
C	-0.3590488254	 1.3718935673	 0.203856987	-0.411926
C	 0.088821876	-0.0493926135	-0.1908749486	-0.109031
C	 0.9034411923	 0.0056230988	-1.4702403988	 0.165248
O	 0.5964866594	-0.5175135274	-2.5095237585	-0.246999
C	 0.9347520496	-0.651786758	 0.9196550291	 0.003886
O	 0.2608846975	-1.0009982954	 2.1307523726	-0.301693
C	 0.8976764765	-2.0552532482	 1.3760769709	 0.387836
C	-0.0358934004	-3.0799698645	 0.7694439685	-0.457929
C	 2.1310646165	-2.6324306066	 2.0389675394	-0.45183
H	 0.5012707837	 2.0403905276	 0.3223282807	 0.121148
H	-1.0217574336	 1.8001965102	-0.5531774469	 0.129657
H	-0.8921492976	 1.3345793743	 1.1571765876	 0.147916
H	-0.7861760573	-0.671759293	-0.3870216398	 0.099828
H	 1.8449155648	 0.600581702	-1.3853549914	 0.071419
H	 1.8716702572	-0.1106868507	 1.0859416658	 0.084184
H	-0.9604603028	-2.6280188427	 0.4086881094	 0.134044
H	 0.4486324795	-3.5979640473	-0.0648702041	 0.130555
H	-0.3012214638	-3.8314759502	 1.5208708422	 0.12599
H	 1.8449654906	-3.3233684533	 2.8392540384	 0.127309
H	 2.735654043	-3.1900634377	 1.3156515692	 0.12398
H	 2.7472812943	-1.8420958417	 2.4743474573	 0.126406
