19
gdb 71234	2.75886	1.85864	1.70046	2.0771	73.76	-0.2244	0.0751	0.2995	913.617	0.160663	-422.99166	-422.984683	-422.983739	-423.022473	29.217	
C	 0.0220011937	 1.5086533634	 0.0943672751	-0.473678
C	-0.0139441058	 0.007243345	-0.0476084312	 0.383294
C	 0.2671157349	-0.6676600536	-1.4270965269	-0.297917
C	-0.7773516345	-1.7260414883	-1.0338240663	-0.100033
C	-0.4446237019	-2.4640157594	 0.3141148011	 0.065266
C	 0.8725978879	-1.9748955827	 0.8949660575	-0.09102
O	 0.8362068493	-0.5489294017	 0.9489216626	-0.295321
O	-1.4924317472	-1.7344403385	 1.0193382734	-0.292012
C	-1.4202416379	-0.759376874	-0.0230065685	 0.083945
H	 1.0323320243	 1.8904716045	-0.083191274	 0.125493
H	-0.6579220589	 1.9797953167	-0.6217428288	 0.111777
H	-0.2797735378	 1.7979407367	 1.1056920354	 0.132515
H	-0.0952835276	-0.0567971705	-2.2593771337	 0.103258
H	 1.2990696053	-0.9678495384	-1.6274990466	 0.103748
H	-1.331110506	-2.3021247772	-1.7746174509	 0.075373
H	-0.576706939	-3.5475164144	 0.3653775276	 0.082317
H	 0.9997478039	-2.3317076494	 1.9218514938	 0.11697
H	 1.7252474042	-2.3308380424	 0.2956570192	 0.090917
H	-2.329542287	-0.1700811558	-0.1577403089	 0.075106
