20
gdb 6835	3.06609	1.43768	1.2696	2.1735	71.09	-0.252	0.0732	0.3252	1062.25	0.175339	-386.12639	-386.117245	-386.116301	-386.159686	34.325	
C	-0.0796462118	 1.5712192595	-0.107993666	-0.44777
C	-0.0023604659	 0.0485127256	-0.0167043064	 0.378478
O	-1.2883322129	-0.527054519	-0.1679871836	-0.477825
C	 1.1507084662	-0.5563303117	-0.8789251112	-0.277985
C	 2.0144796275	-0.6501505853	 0.4076020965	-0.232419
C	 0.7143092216	-0.5155663463	 1.2430567199	 0.039848
C	 0.7277266546	 0.2616405656	 2.5425573931	-0.117649
O	 1.4913516285	-0.4894726459	 3.4787130067	-0.423368
H	 0.8991735523	 2.0397295154	 0.0324597271	 0.120683
H	-0.4405940303	 1.8681253177	-1.1012107321	 0.10403
H	-0.770124665	 1.974675622	 0.6389057716	 0.122707
H	-1.7045767218	-0.1365928517	-0.9443666366	 0.271272
H	 0.8601067743	-1.5425332822	-1.2493337347	 0.105391
H	 1.5291595966	 0.0449474017	-1.7105809801	 0.085976
H	 2.6077803724	-1.5535035897	 0.5533307655	 0.106113
H	 2.6701369169	 0.2174677007	 0.531139741	 0.096211
H	 0.2960362885	-1.5084554025	 1.4358744015	 0.093679
H	 1.1700007464	 1.2589338055	 2.3878697446	 0.076779
H	-0.3052634874	 0.4098973118	 2.8977425729	 0.090943
H	 1.5208038793	 0.0022233687	 4.3045491004	 0.284907
