21
gdb 78167	1.94345	1.69334	1.18172	3.2805	82.48	-0.2318	-0.0091	0.2227	1164.2811	0.182707	-387.120075	-387.111219	-387.110274	-387.153623	34.064	
C	-0.1962429114	 1.4740783108	 0.1115506365	-0.423119
C	 0.0772470437	-0.009021328	-0.0282943757	-0.02455
C	 0.6823611231	-0.6808092392	-1.2198599639	-0.05917
C	 1.4505373585	-0.6750540235	 0.0968690029	-0.175876
C	 2.6687092146	 0.1681309444	-0.0969160221	 0.415405
O	 3.5943704325	 0.2597283884	 0.6723972026	-0.334404
C	 2.6020689254	 0.8363407334	-1.479498838	-0.35524
C	 1.4435409163	 0.16233448	-2.2563056709	 0.011156
C	 1.9599073482	-0.722230416	-3.3975538983	-0.403584
H	 0.5312064892	 2.101120757	-0.4068103232	 0.123619
H	-1.1840040835	 1.7137074074	-0.297717466	 0.122188
H	-0.1943622154	 1.769071591	 1.1658981605	 0.129564
H	-0.6850267098	-0.6130677844	 0.4594619831	 0.097513
H	 0.2228279677	-1.5972620074	-1.5767700369	 0.086576
H	 1.5429350439	-1.5313327141	 0.7537433288	 0.102122
H	 2.4755644558	 1.9164942068	-1.3522481942	 0.129462
H	 3.5685626801	 0.7006456578	-1.9746742842	 0.127957
H	 0.7758336906	 0.9194009118	-2.6840554745	 0.078114
H	 2.6301269746	-1.5013621133	-3.0164389917	 0.121283
H	 1.1345423611	-1.2171404836	-3.9201121191	 0.114645
H	 2.5166161447	-0.1307918393	-4.1313316959	 0.11634
