20
gdb 110458	2.73926	1.60449	1.2531	1.1459	78.85	-0.2001	0.0776	0.2777	1074.4443	0.170552	-403.061734	-403.053366	-403.052421	-403.094674	32.106	
C	-0.318602777	 1.4402973683	-0.211371373	-0.245074
O	 0.1399865121	 0.1281670172	 0.0270961738	-0.24791
C	 0.6350210195	-0.5094261232	-1.121521829	 0.183914
C	 1.2657475761	-1.8724846716	-0.9553665438	-0.171507
C	 0.8359027506	-2.2399889078	-2.3706862877	-0.105823
C	 0.1498899268	-2.9190212111	-1.2378693004	-0.01552
N	-1.1111268287	-2.24193328	-1.4950192892	-0.070846
C	-2.0170737951	-1.9270828698	-0.3929022056	-0.334583
C	-0.3201928465	-1.1858632803	-2.1775516435	-0.102842
H	 0.4731569843	 2.0729902715	-0.6428029357	 0.105726
H	-1.1833338256	 1.4609008484	-0.8911866516	 0.106824
H	-0.6202441479	 1.8608043679	 0.7507734596	 0.127549
H	 1.3254763961	 0.1611998335	-1.6570907883	 0.069339
H	 2.1929264555	-2.122156004	-0.456261281	 0.087879
H	 1.3815234583	-2.593987243	-3.2313711448	 0.098683
H	 0.2205276787	-3.9432987427	-0.8924053675	 0.095477
H	-1.5328320495	-1.4776906929	 0.4810870746	 0.12714
H	-2.788009849	-1.2391458152	-0.7568991531	 0.110126
H	-2.5214297094	-2.8512914858	-0.0885679084	 0.110501
H	-0.8287780894	-0.6027323894	-2.9442028253	 0.070945
