14
gdb 46243	2.812	1.37911	1.10557	6.5289	67.19	-0.2904	-0.0213	0.2691	1073.7206	0.101091	-436.702874	-436.695164	-436.694219	-436.73561	27.831	
O	-0.0505533116	 0.0732192643	-0.2201330731	-0.319438
C	 0.0023214899	 1.2329214507	 0.0198170737	 0.452724
O	-0.9954562357	 2.0630348862	 0.4842142325	-0.24722
C	-0.1056801539	 3.2268623642	 0.5119012951	-0.146665
C	 1.0229788639	 2.3440482586	-0.0017373292	 0.102628
C	 2.4730710711	 2.2528884864	 0.3454873515	-0.335279
C	 2.0669047551	 2.628528572	-1.0656164057	-0.237006
C	 2.2716546809	 1.7144374834	-2.1564053915	 0.31185
N	 2.4547015136	 1.002572275	-3.0486089227	-0.321261
H	-0.4634774281	 4.0064231531	-0.1639189433	 0.138313
H	 0.00220174	 3.6088171138	 1.5294681502	 0.137671
H	 2.9070677386	 3.0353771145	 0.9575205606	 0.145581
H	 2.8746085495	 1.2577742058	 0.4997976876	 0.169774
H	 2.1769612568	 3.6737426418	-1.3387495455	 0.148328
