19
gdb 92301	2.28949	1.8805	1.22479	4.2507	74.3	-0.2586	0.0101	0.2687	1052.8828	0.160739	-423.068199	-423.060248	-423.059304	-423.100976	30.378	
C	-0.0553499674	 1.6011645136	-0.0655888735	-0.407052
C	 0.0432647762	 0.0864106842	 0.0151598525	 0.038864
C	 0.9966907848	-0.672237501	-0.9552077566	-0.259305
C	 1.4614387735	-1.5792272942	 0.2218333159	-0.031079
C	 2.944376471	-1.5413750718	 0.5877603783	-0.102311
O	 3.1424252188	-0.3195409303	 1.3208109536	-0.225098
C	 1.9628789513	 0.209328262	 1.7592122909	 0.443436
O	 1.9271650855	 1.1789184479	 2.4614674328	-0.349713
C	 0.7917776655	-0.5939871965	 1.2095171797	-0.198276
H	 0.9299327241	 2.0737777274	-0.0160671107	 0.132053
H	-0.5284881926	 1.9011035422	-1.0071306632	 0.111545
H	-0.652906971	 2.0049758228	 0.7576314155	 0.129437
H	-0.9588704238	-0.3510266555	-0.041658553	 0.081637
H	 0.5354657047	-1.1730979653	-1.8088085645	 0.105048
H	 1.8052442131	-0.0327627881	-1.3250018177	 0.109769
H	 1.0599046781	-2.592321682	 0.1924489403	 0.083147
H	 3.2362157903	-2.3796610132	 1.2312890647	 0.115105
H	 3.6081172212	-1.5198304838	-0.28153838	 0.121831
H	 0.1789337667	-0.9585222385	 2.0360021749	 0.10096
