21
gdb 84149	2.36396	1.52233	1.05547	1.9732	84.27	-0.2369	0.0209	0.2578	1202.4388	0.183607	-387.099344	-387.090732	-387.089788	-387.132187	34.069	
C	 0.4790875997	 1.4136644563	 0.2278847724	-0.475693
C	-0.0151554894	-0.0008000561	 0.0876579128	 0.310137
C	 0.2625254013	-0.7500547829	-0.9827435866	-0.195604
C	-0.223321937	-2.1563817707	-1.2173197466	 0.066592
O	 0.7542704138	-2.9296423131	-1.9195050246	-0.434531
C	-0.6797382682	-2.8484702738	 0.0518789666	-0.04325
C	 0.2402885953	-2.8820981318	 1.2538534789	-0.304668
C	-1.0006105027	-2.0261960414	 1.2756468111	-0.031136
C	-0.8780121104	-0.5144390477	 1.2168795978	-0.314838
H	 1.1095429135	 1.5257395479	 1.1194340124	 0.122397
H	 1.0587407676	 1.7281974728	-0.6437811295	 0.122021
H	-0.3573976852	 2.1140829185	 0.3512116603	 0.122887
H	 0.867574907	-0.3444864965	-1.7908530945	 0.083992
H	-1.0700209948	-2.1234626342	-1.9173675377	 0.094226
H	 1.4861605532	-3.071977358	-1.3085351033	 0.275199
H	-1.2733296377	-3.7406528537	-0.1204912791	 0.086152
H	 0.2584577559	-3.7829048454	 1.8568451792	 0.109993
H	 1.1964389751	-2.3723149912	 1.1805157638	 0.108862
H	-1.8156310346	-2.3843860541	 1.8975345623	 0.08257
H	-0.4890932036	-0.1357396715	 2.1729551679	 0.102397
H	-1.8809044388	-0.0720476834	 1.1193877863	 0.112297
