19
gdb 117573	1.96067	1.18426	0.81094	1.5891	77.82	-0.2559	0.0484	0.3043	1443.1398	0.156107	-422.948032	-422.937985	-422.93704	-422.983899	35.32	
C	-0.0461579082	 1.3256618758	-0.634159673	-0.229245
O	 0.0853174584	-0.0231311255	-0.2530431071	-0.233536
C	 0.3934445262	-0.8683125566	-1.335826658	-0.076876
C	 0.4762251175	-2.3043974422	-0.7962875083	-0.202392
C	-0.8357413572	-2.8335795546	-0.4296375682	 0.341098
C	-1.9108777526	-3.2980733965	-0.1608334814	-0.479724
C	 1.1696536978	-3.2774186496	-1.7502674481	 0.070817
C	 1.2153634313	-3.1127188298	-3.206856343	-0.174858
O	 2.3607060407	-2.8311022313	-2.3917028905	-0.236094
H	 0.882694269	 1.717833201	-1.0778476007	 0.105645
H	-0.8604040913	 1.4667037495	-1.3624244403	 0.105546
H	-0.2762629977	 1.8976422542	 0.2677115993	 0.129929
H	-0.380995356	-0.7959635724	-2.1158989467	 0.092426
H	 1.3626805283	-0.6000912849	-1.7830594499	 0.110047
H	 1.0952818492	-2.2489068168	 0.1102047629	 0.128714
H	-2.8621820468	-3.6956196319	 0.0932088435	 0.198136
H	 1.2276750493	-4.2920744777	-1.3558984525	 0.109384
H	 1.3019525959	-3.9912497658	-3.8437287657	 0.121243
H	 0.7545620061	-2.245950105	-3.6755461221	 0.119739
