20
gdb 83832	2.05194	1.84079	1.27573	3.7201	78.87	-0.2336	0.0238	0.2575	1076.6511	0.173804	-403.186347	-403.178153	-403.177208	-403.219004	32.016	
C	-0.0601043407	 1.5952391771	 0.0170821131	-0.415712
C	 0.0246222101	 0.0862073268	-0.0373151209	-0.009957
C	 0.6554914494	-0.6747836466	-1.1796072171	-0.072575
C	 1.3582876628	 0.0501099884	-2.3256457665	-0.221675
C	 2.8712895813	 0.1147083384	-2.1004610691	-0.159272
N	 3.1656916486	 0.6193408912	-0.7606396179	-0.30918
C	 2.609405372	 0.0896499592	 0.3813949006	 0.378769
O	 3.1132865803	 0.2481331552	 1.4781280513	-0.378193
C	 1.3289876066	-0.6667377844	 0.1814848081	-0.151461
H	 0.8448324181	 2.0753878749	-0.3626239208	 0.130498
H	-0.9100990715	 1.960139153	-0.5707159153	 0.113839
H	-0.1985098638	 1.9309109731	 1.0496957779	 0.130223
H	-0.8347010836	-0.4092905646	 0.4071144981	 0.091004
H	 0.1647308887	-1.6028196687	-1.4551767675	 0.08821
H	 1.1618666528	-0.4706846925	-3.2676818178	 0.104787
H	 0.9685148439	 1.0665908136	-2.4425100677	 0.112763
H	 3.3128585733	-0.8824199412	-2.2514012641	 0.106863
H	 3.3389037715	 0.7870163838	-2.8263247869	 0.110065
H	 4.0756066079	 1.0292054985	-0.6010852558	 0.242606
H	 1.2765642721	-1.5510450754	 0.8060712583	 0.108397
