14
gdb 74176	2.42407	1.42469	0.90174	13.0488	79.95	-0.1773	-0.0389	0.1384	1188.4085	0.100611	-473.805098	-473.797031	-473.796087	-473.837935	29.277	
N	 0.0223024663	 0.9698667457	 0.0068073297	-0.497972
H	-0.2839603935	 0.0346872575	-0.2791363158	 0.333847
H	 1.0200575768	 0.9306117353	 0.2571854842	 0.318469
H	-0.0921172435	 1.5949683987	-0.7971303733	 0.333851
C	-0.7325315164	 1.45196637	 1.178633628	 0.078882
C	-2.0912995221	 1.6397748258	 1.2429903048	-0.434801
C	-2.3450279851	 2.1176867104	 2.5866977954	 0.415868
O	-3.3513601175	 2.4340018829	 3.1675776523	-0.380329
O	-1.0809301125	 2.1787257549	 3.2353789446	-0.248503
C	-0.1007770493	 1.771792982	 2.3725331732	 0.282618
C	 1.2768901536	 1.7088471187	 2.6872209601	 0.036932
O	 1.8588441006	 1.9820915422	 3.7208364924	-0.31623
H	-2.8537278126	 1.4846997882	 0.4975194626	 0.108236
H	 1.8848254854	 1.3376172475	 1.7962866518	-0.030867
