19
gdb 66632	3.3362	1.80675	1.65258	1.7289	76.54	-0.2447	0.0959	0.3407	902.567	0.162242	-385.873884	-385.867446	-385.866502	-385.904268	27.701	
C	 0.0095923481	 1.5298168762	-0.0193090162	-0.520782
C	-0.0036035868	 0.0311327407	 0.0155316226	 0.358041
C	 0.5014767019	-0.9953738464	-0.9718428433	-0.143283
C	 1.1613780496	-0.8777332951	 0.3901525826	-0.126774
C	 0.5915995374	-2.0537738227	 1.2401660771	 0.046035
C	-0.7079017929	-1.4554260646	 1.8192516286	-0.218037
C	-1.15844179	-0.9001905328	 0.4608708755	-0.143419
C	-0.5878398023	-1.9970939387	-0.5545312211	 0.065046
O	 0.058779313	-2.9658240386	 0.2619283551	-0.25478
H	 0.9658834835	 1.9067851776	-0.3975293501	 0.119704
H	-0.7809427392	 1.9216264948	-0.6696466604	 0.119178
H	-0.1415194278	 1.9557065552	 0.979607795	 0.120127
H	 1.0145229421	-0.8915883749	-1.9200858975	 0.08412
H	 2.1695760501	-0.4995701657	 0.4923969309	 0.084944
H	 1.2790414958	-2.572412177	 1.9054111425	 0.072117
H	-1.357410986	-2.2282667342	 2.2376355573	 0.100755
H	-0.5360016954	-0.6652678578	 2.5561794121	 0.094084
H	-2.1852463702	-0.5636228288	 0.332488528	 0.065908
H	-1.2383879609	-2.4663734972	-1.2885276085	 0.077015
