21
gdb 58477	2.46474	1.22446	1.13937	3.0214	74.81	-0.2419	0.0555	0.2974	1225.4959	0.178782	-461.348535	-461.338065	-461.337121	-461.383176	39.934	
C	 0.056195773	 1.4913483347	-0.3281563637	-0.398667
C	 0.0570363268	 0.0408500915	 0.1660504407	 0.086997
O	 0.5582950871	-0.0572856085	 1.4921308526	-0.444113
C	-1.3299333277	-0.5712475714	 0.1088163348	 0.398188
O	-2.1740076991	 0.0950101891	 1.0111861392	-0.492996
C	-1.9286674666	-1.0971327599	-1.1820042716	-0.422841
C	-1.5741974929	-2.0510342307	-0.0513922397	 0.293003
C	-0.4782272362	-3.0792607872	-0.1898194639	-0.442202
O	-2.6454628642	-2.480690111	 0.7668018014	-0.473576
H	 1.0552376913	 1.919559066	-0.2136619317	 0.11681
H	-0.2333936042	 1.5491959027	-1.3825976704	 0.109019
H	-0.6507091278	 2.0906625334	 0.2530002127	 0.12925
H	 0.7381973485	-0.549019397	-0.4558299944	 0.078376
H	-0.1671663562	 0.2371023106	 2.0581667081	 0.282155
H	-2.7671295414	-0.5843998251	 1.3645357916	 0.294106
H	-2.9798286684	-0.8831128087	-1.3478438827	 0.110736
H	-1.3153078047	-1.1169998948	-2.0778542492	 0.112759
H	 0.3421447498	-2.7139711152	-0.8117992544	 0.124156
H	-0.0751033782	-3.3456468366	 0.7913327722	 0.139645
H	-0.8688842401	-3.989335245	-0.6608660767	 0.10772
H	-3.2532660088	-3.0007667069	 0.2308338349	 0.291474
