14
gdb 133290	3.87671	1.13883	0.88508	1.5926	71.77	-0.2367	-0.0772	0.1594	1213.8754	0.09903	-477.941798	-477.933826	-477.932882	-477.974982	28.6	
C	-0.1613130429	 1.430129287	 0.1162147868	-0.321935
N	-0.1593747617	-0.0233682498	 0.086581478	-0.309865
C	 0.6617858465	-0.6550925369	 0.8109668157	 0.444744
O	 1.5609778178	 0.044642254	 1.6341952575	-0.299647
N	 2.4894068826	-0.5721471606	 2.4555275415	-0.042157
C	 2.5158753766	-1.8569569661	 2.4516885973	-0.070184
C	 1.6415116708	-2.6745466227	 1.648119348	 0.293901
F	 1.7888379387	-3.9893483593	 1.7522531206	-0.055842
C	 0.7364304956	-2.1012257199	 0.8469065641	-0.327593
H	 0.8065967659	 1.8475919248	-0.1911288773	 0.128542
H	-0.9306854346	 1.7969987653	-0.566515721	 0.121591
H	-0.3713280699	 1.8193483879	 1.1211912763	 0.128538
H	 3.252338415	-2.3147047665	 3.1038787686	 0.156376
H	 0.0534619195	-2.6589083472	 0.2210159539	 0.153531
