14
gdb 21668	3.51993	1.9182	1.31412	1.4749	59.61	-0.2135	0.0029	0.2165	879.4122	0.109938	-412.038009	-412.030658	-412.029714	-412.069579	27.158	
N	 0.0979966937	 1.3475346053	-0.0932028814	-0.597414
C	 0.0839393318	-0.0353274726	-0.0515434679	 0.280111
N	-1.0273179334	-0.7689060225	-0.0291345595	-0.286225
N	-0.552508188	-2.0195601939	 0.0664005124	-0.092719
N	 0.7606881832	-2.1543259852	 0.0911491543	-0.265796
C	 1.2060621697	-0.8982411919	 0.0269109875	 0.230494
C	 2.6487099862	-0.5155090964	 0.0160879068	-0.190127
O	 2.9372146141	 0.4194326765	-1.0295091312	-0.416217
H	 0.9165989635	 1.7063371883	-0.5673543359	 0.259788
H	-0.7620569292	 1.752096642	-0.4356749679	 0.253365
H	-1.1694746194	-2.812525919	 0.108499874	 0.289252
H	 2.9227484975	 0.0090013816	 0.9381263284	 0.129209
H	 3.2715410132	-1.4163622663	-0.053709001	 0.119093
H	 2.7423161269	-0.0193478159	-1.8649355686	 0.287185
