17
gdb 35874	2.18281	1.74366	1.19714	2.5407	71.65	-0.2642	0.0105	0.2747	1056.7134	0.137449	-417.989493	-417.981489	-417.980545	-418.02314	29.658	
N	-0.0489003317	-1.1847616019	 0.3236050694	-0.331199
C	-0.0142854034	-0.0389068008	 0.1764298079	 0.280947
C	 0.0390260008	 1.4304318061	-0.0145243734	-0.132442
O	-0.6292126249	 2.1041476079	 1.0282618441	-0.234347
C	 0.3203524908	 2.2668196055	 2.0908682558	-0.096923
C	 1.6535260447	 2.5890954972	 1.3980304217	-0.297999
C	 1.4904722243	 1.9573381032	 0.0127838083	 0.326058
C	 2.5672164476	 1.3218180879	-0.7791380114	-0.287635
N	 2.0621787218	 2.6603963397	-1.137202857	-0.351373
H	-0.4731780433	 1.6693644168	-0.9526049941	 0.131369
H	-0.05319914	 3.0646428739	 2.7345194222	 0.126279
H	 0.3855436294	 1.3401609358	 2.6779575547	 0.118224
H	 1.7939584609	 3.666115378	 1.2804833075	 0.133297
H	 2.5105724394	 2.187933497	 1.9437014286	 0.120182
H	 3.5809442699	 1.3024916846	-0.3888106737	 0.129364
H	 2.309638386	 0.4733516115	-1.4087068983	 0.131496
H	 1.4498407076	 2.6028911677	-1.9478240724	 0.234702
