17
gdb 86703	1.91805	1.78042	1.2032	3.0395	68.97	-0.2477	-0.0454	0.2022	1074.8069	0.132571	-458.955323	-458.946171	-458.945227	-458.990341	31.939	
C	 0.2909375625	 1.3532612412	-0.2346185194	-0.389204
C	-0.0278415679	-0.0567125561	 0.2188806023	 0.12826
O	 0.4457277544	-1.05587867	-0.7424698782	-0.30707
C	 1.3878965297	-1.5959235774	 0.1997292392	 0.024181
C	 2.801915106	-1.2985092202	-0.2635927922	 0.140923
O	 3.6741219446	-0.8606765508	 0.442460651	-0.234341
C	 0.8142320614	-0.7214504984	 1.3417160082	-0.171126
C	 1.7273202582	 0.063423159	 2.2573377409	 0.14529
O	 1.6592523976	 1.254446601	 2.4264118676	-0.25249
H	 1.3647658057	 1.4991307044	-0.3752695033	 0.130142
H	-0.2146179905	 1.5416219131	-1.1871363251	 0.121691
H	-0.0525029098	 2.0805430692	 0.5040778497	 0.141132
H	-1.1070944267	-0.1758125799	 0.3645946122	 0.092484
H	 1.2768576267	-2.6839719944	 0.3181331991	 0.106933
H	 2.9625408104	-1.5053741412	-1.3440865693	 0.107129
H	 0.1907828756	-1.3376939983	 2.0005321158	 0.117678
H	 2.4398387423	-0.5625828012	 2.8323319915	 0.098388
