21
gdb 112188	2.52586	1.23258	0.93141	3.0008	84.36	-0.2347	-0.0161	0.2186	1330.779	0.181113	-387.096636	-387.087253	-387.086308	-387.131277	35.006	
C	-0.0957395831	 1.6388202382	 0.0665938786	-0.383723
C	-0.1211406587	 0.1365208963	 0.3643580857	-0.187014
C	-1.4263301118	-0.5368402942	-0.0514410983	-0.08361
C	-1.6702099412	-0.6980219098	-1.5936333061	-0.374423
C	-1.7777543696	-2.220371187	-1.3777227623	 0.354516
O	-2.002921852	-3.1579309983	-2.0925929358	-0.319025
C	-1.504388795	-2.0745121459	 0.089097867	 0.22714
C	-0.6510895283	-3.0252967225	 0.9045532562	-0.310669
C	-2.1178385919	-2.9317557299	 1.1733218454	-0.309502
H	 0.8528889365	 2.0880610617	 0.3758497139	 0.115057
H	-0.2236962872	 1.8358563223	-1.003224069	 0.120197
H	-0.9006172755	 2.160343635	 0.5964084008	 0.115684
H	 0.7167261826	-0.3588553259	-0.1438286262	 0.0972
H	 0.0391051561	-0.0224891072	 1.4390157881	 0.095151
H	-2.270334101	-0.038747178	 0.4384910228	 0.073938
H	-2.5717110642	-0.2321566593	-2.0001541458	 0.128395
H	-0.8201399286	-0.4141952203	-2.2230023771	 0.12746
H	-0.2744359384	-3.9013053362	 0.3871706541	 0.134825
H	 0.0342878368	-2.5828073353	 1.619500474	 0.123012
H	-2.4452989028	-2.4227324028	 2.0740450273	 0.120804
H	-2.7571686927	-3.7440519108	 0.8435598668	 0.134589
