16
gdb 31368	3.14719	1.30443	0.92765	5.8507	76.88	-0.2014	-0.0097	0.1917	1207.3018	0.126504	-434.098261	-434.090225	-434.089281	-434.131029	29.888	
C	-0.0869150358	 0.5394524471	 0.711083685	-0.252642
O	 0.1808973125	 0.8112708337	-0.6604394995	-0.259917
C	 0.6669638258	-0.2029220458	-1.3967585102	 0.503926
C	 0.948069706	-1.469435633	-1.0316153998	-0.326798
C	 1.4759808726	-2.4117040614	-2.0165874309	 0.333031
N	 1.7481910667	-3.6194086978	-1.6843746929	-0.54772
N	 1.6703658509	-1.9321039289	-3.3407895164	-0.314202
C	 1.3780738752	-0.7151058874	-3.604221551	 0.0925
N	 0.8818497451	 0.1930627251	-2.7044233112	-0.37991
H	-0.838641515	-0.2507504506	 0.8129161004	 0.143912
H	 0.8271882387	 0.2408747315	 1.235631168	 0.143912
H	-0.4682271486	 1.4700210076	 1.1314931757	 0.144392
H	 0.7969194982	-1.8240092476	-0.0232964808	 0.112276
H	 2.1015768407	-4.1071569376	-2.5099618623	 0.208235
H	 1.5176801475	-0.3232879278	-4.6104034518	 0.129673
H	 0.6684013294	 1.1416186932	-2.9665745322	 0.269331
