18
gdb 58017	3.95545	0.78777	0.69907	4.0681	72.1	-0.2495	-0.0305	0.2191	1604.2317	0.144059	-476.263609	-476.252889	-476.251945	-476.302447	34.875	
C	 0.0352957712	 1.2852045727	-0.4017584392	-0.339807
N	-0.0156926678	-0.0871356996	 0.0709065476	-0.144987
C	 1.238840987	-0.6647376165	 0.5197986207	-0.340362
C	-1.2119454736	-0.7334294671	 0.07372849	 0.534619
O	-2.2676232082	-0.2584511053	-0.2896833622	-0.419733
O	-1.0878622051	-2.0145145117	 0.5451293802	-0.274203
C	-2.285520838	-2.782069288	 0.5996714774	-0.170047
C	-2.2164099226	-3.92277595	-0.3988566304	 0.144085
O	-2.8841672107	-4.9183402596	-0.3178401299	-0.229852
H	 0.7221990503	 1.3729301969	-1.2527667347	 0.124441
H	-0.9636126217	 1.5876884581	-0.7095049664	 0.171707
H	 0.3894101114	 1.9533426955	 0.3933757563	 0.124783
H	 1.6549264579	-0.0760313418	 1.3474364846	 0.126988
H	 1.0851211214	-1.6861432852	 0.8557314705	 0.162616
H	 1.9728701384	-0.6640557404	-0.296209456	 0.126602
H	-2.4049537847	-3.1791206385	 1.6114357556	 0.139957
H	-3.1417986496	-2.1432565062	 0.3547193787	 0.175499
H	-1.4953065458	-3.7507879032	-1.2301443828	 0.087694
