21
gdb 106588	3.21492	1.40089	1.29037	0.0993	85.94	-0.2177	-0.0014	0.2163	1101.5407	0.183939	-349.949288	-349.941443	-349.940499	-349.981379	32.395	
C	-0.0801942277	 1.5590507362	-0.0673401457	-0.388664
C	 0.0211715088	 0.0314674317	 0.0261903125	-0.28989
C	 0.7601990777	-0.4822199866	 1.256760183	 0.270332
C	 0.9025167876	-2.0319234936	 1.4181272533	-0.232691
C	 1.6853684754	-1.8966259226	 2.7572597232	-0.125144
C	 2.8090016156	-0.9639765439	 2.2610682816	-0.088317
C	 2.2630503203	-0.126470738	 1.3811334549	-0.105367
C	 0.6641444485	-1.0296998437	 3.5215826493	-0.088329
C	 0.12287822	-0.1920631239	 2.6388915402	-0.105354
H	 0.908378111	 2.0281366327	-0.1041027002	 0.118056
H	-0.6204534911	 1.8585956874	-0.9706871301	 0.112851
H	-0.6130506345	 1.9819600349	 0.7904987745	 0.118053
H	-0.9887715964	-0.3983207432	 0.0173345101	 0.094894
H	 0.5228996232	-0.3524294922	-0.8714037606	 0.094891
H	-0.0613693928	-2.5383147646	 1.5282399837	 0.088672
H	 1.4897008427	-2.4907807002	 0.6166905516	 0.088671
H	 2.0069016331	-2.810223111	 3.2567473208	 0.057221
H	 3.8281397037	-0.9847673428	 2.6236906581	 0.095646
H	 2.7376880974	 0.6942000749	 0.8594294016	 0.09441
H	 0.4868307385	-1.087208888	 4.5873318903	 0.095648
H	-0.600433961	 0.5918821165	 2.8211225079	 0.09441
