19
gdb 30845	2.31845	1.37799	0.90847	0.9253	81.81	-0.1798	0.0325	0.2123	1316.6025	0.159304	-419.231236	-419.221605	-419.220661	-419.265724	35.204	
C	 0.2959212849	 1.2079713193	 0.2643291321	-0.322903
N	-0.3541676162	 0.0189072441	-0.2966479223	-0.395168
C	 0.405314175	-0.7457581552	-1.1744916598	 0.240186
C	 0.7603360445	-2.0612479316	-1.1229929482	 0.21164
N	 0.3587654932	-2.994536236	-0.158037085	-0.612764
C	 1.5445887249	-2.3176133562	-2.2986306287	-0.34441
C	 1.6126635264	-1.1434310751	-2.9852722738	 0.368941
C	 2.2783451688	-0.7594480611	-4.2585560467	-0.48946
O	 0.9217952903	-0.1744340135	-2.3345488979	-0.218583
H	 1.1962201776	 0.9001371753	 0.8041617167	 0.126295
H	 0.5890020242	 1.9502485971	-0.4916676233	 0.116913
H	-0.3842238122	 1.6858623549	 0.9761242448	 0.113926
H	-1.2668594412	 0.2560610184	-0.6729715792	 0.229606
H	-0.0452134726	-2.5244862235	 0.6441996712	 0.242547
H	 1.1143910009	-3.5968960314	 0.1444286659	 0.238582
H	 1.9877489158	-3.2568077007	-2.593346603	 0.095561
H	 1.5550984165	-0.3928531514	-4.9962312951	 0.134562
H	 3.0160583173	 0.0366807078	-4.1037755196	 0.13335
H	 2.7928773719	-1.6236023911	-4.685027488	 0.131179
