15
gdb 42935	3.19871	1.22243	0.97474	7.2297	69.94	-0.2537	-0.036	0.2177	1163.1731	0.112549	-416.784381	-416.77644	-416.775496	-416.8177	28.851	
O	-0.0206241224	 0.0214153221	-0.2068944309	-0.287007
C	-0.0580830192	 1.203444031	-0.0558009429	 0.44877
C	-1.1526700188	 2.248363252	-0.0669893228	-0.183482
N	-0.9078397929	 3.0623148036	 1.1766200722	-0.328812
C	-0.1094174787	 3.3306107561	-0.0224141835	-0.076984
C	 1.0470382256	 2.3167320585	 0.0113198496	-0.127527
C	 2.0022170656	 2.3721679225	 1.2101725229	-0.356965
C	 2.9625408308	 1.2711494893	 1.2244686141	 0.268033
N	 3.7370999062	 0.4140283681	 1.2294644581	-0.302885
H	-2.1317828191	 2.2233445976	-0.5270794043	 0.125494
H	-1.665518044	 3.7437903291	 1.2189252872	 0.248112
H	-0.1259098502	 4.2867322552	-0.5284949686	 0.118103
H	 1.6003459425	 2.2953731479	-0.9333814882	 0.126279
H	 2.5644468564	 3.31374084	 1.1927323836	 0.152542
H	 1.4201814882	 2.3618554468	 2.1363958434	 0.17633
