21
gdb 115956	3.01537	1.32445	1.06894	1.0547	77.75	-0.2407	0.074	0.3146	1197.7209	0.183688	-424.20687	-424.198382	-424.197437	-424.240416	32.12	
C	 0.0374253235	 1.2990066406	-0.2838450378	-0.236741
O	-0.0093560186	-0.0319523227	 0.1799563526	-0.239201
C	-1.2950130721	-0.6089307795	 0.13613719	 0.116518
C	-1.7921619524	-0.9564945475	-1.2896026903	-0.123701
O	-2.7041094484	-2.028897903	-1.1237518835	-0.25792
C	-2.2267818573	-2.8450215318	-0.063860979	 0.121205
C	-1.0160338517	-3.7669964719	-0.3946767711	-0.246761
C	-0.1117260011	-2.9142327183	 0.541842193	-0.227907
C	-1.3122046481	-1.9704928368	 0.8461334189	-0.091658
H	 1.0586914743	 1.6573877392	-0.1334998647	 0.128879
H	-0.2077483562	 1.379732962	-1.3532216819	 0.109635
H	-0.6529665617	 1.9481336892	 0.2772857206	 0.106196
H	-2.0214662704	 0.0651816466	 0.6172041146	 0.069283
H	-2.3250741312	-0.1449252019	-1.7914964746	 0.106303
H	-0.9253116952	-1.2402765361	-1.9087492106	 0.095398
H	-3.0924998982	-3.3394574677	 0.3812767415	 0.076789
H	-1.1473251277	-4.8080540164	-0.0901257111	 0.09916
H	-0.7441912714	-3.7516330265	-1.4532587751	 0.107117
H	 0.250143879	-3.4500397172	 1.4215343607	 0.100258
H	 0.7373157605	-2.4202079612	 0.0676396889	 0.11636
H	-1.5856401355	-1.8801812791	 1.8977330188	 0.070788
