15
gdb 35889	2.2485	1.60203	1.12621	5.3521	68.74	-0.3023	-0.0003	0.302	1069.6722	0.113877	-416.830306	-416.822104	-416.821159	-416.864053	28.742	
N	-0.5731477741	-0.9494727243	-0.8522756212	-0.307637
C	-0.3315349096	 0.0935932172	-0.4185000416	 0.276308
C	-0.0425086564	 1.4155041642	 0.1180120666	-0.158283
C	-0.2763049381	 1.5708214486	 1.6404534899	-0.262851
C	 0.6871047812	 2.7196975594	 2.020607177	-0.09053
O	 1.4917151529	 2.9957449006	 0.8591011949	-0.239738
C	 1.4327110954	 1.8927072254	-0.0102976696	-0.048347
C	 2.402715878	 0.8415669054	 0.3710371977	 0.284738
N	 3.1692502886	 0.0425342873	 0.6999108589	-0.311747
H	-0.6459550918	 2.1491077278	-0.4261083216	 0.148575
H	-1.3190026035	 1.7974822297	 1.865951339	 0.138452
H	-0.0106343199	 0.6448111189	 2.154001063	 0.153871
H	 0.1689999727	 3.6484909593	 2.2712285092	 0.13046
H	 1.3309292053	 2.4388525159	 2.8608369554	 0.133551
H	 1.6704976393	 2.2397394646	-1.0190186676	 0.153177
