16
gdb 56708	2.81795	1.33071	1.01617	5.9564	75.36	-0.2661	0.0096	0.2757	1149.1448	0.123536	-396.863354	-396.854189	-396.853245	-396.897244	33.658	
N	 0.3680190917	 1.5616851208	 0.0056944091	-0.483079
C	 0.1015128993	 0.1192285185	 0.0166946492	-0.241309
C	 0.5263650244	-0.5716053201	-1.2093170574	 0.288042
C	 0.9040022439	-1.0846348664	-2.2304275713	-0.438985
C	 0.7587418916	-0.4966092966	 1.2653873651	 0.148544
C	 1.1023227988	-1.9478605194	 1.3151569375	-0.267118
N	 2.1665194315	-0.9433748359	 1.2273038775	-0.326575
C	 0.3613571009	 0.1526856689	 2.4998738744	 0.298052
N	 0.0131505582	 0.6249783457	 3.4951904966	-0.339989
H	 1.3549218712	 1.7303461853	-0.1690182378	 0.240946
H	-0.1422301909	 1.998865221	-0.7552023455	 0.244404
H	-0.9832778911	-0.0013043308	 0.1302271273	 0.13866
H	 1.2172578648	-1.5372892344	-3.1395936956	 0.211919
H	 1.0377475565	-2.4666914269	 2.2658216601	 0.145028
H	 0.8673335437	-2.5377626378	 0.4345710972	 0.137853
H	 2.4932072556	-0.8879373319	 0.2629148935	 0.243607
