17
gdb 44104	3.14097	1.68467	1.47419	2.8342	79.03	-0.2279	-0.0246	0.2033	932.0423	0.138141	-384.674492	-384.667968	-384.667024	-384.705268	27.046	
O	-0.1537756291	 0.0950152315	 0.203823012	-0.315966
C	-0.1023499919	 1.2940365981	 0.1420356699	 0.393919
C	-1.3525807715	 2.2544574831	 0.0126853973	-0.36898
C	-0.6311544965	 3.4488333262	 0.5652564857	 0.108293
C	-0.4681118691	 3.6479585177	 1.8843568333	-0.105319
C	 0.9962569623	 3.7633409224	 2.2486568139	-0.268934
C	 1.6636651506	 3.3478079199	 0.9411700123	-0.04639
C	 1.1637636048	 2.1397314186	 0.0543267592	-0.154845
C	 0.6967406143	 3.5629984588	-0.1622633344	-0.125084
H	-1.6503407048	 2.3243907358	-1.0399297286	 0.119915
H	-2.1897492157	 1.8826931713	 0.6044806178	 0.125615
H	-1.2273375372	 3.4288032972	 2.627808085	 0.103308
H	 1.3376954031	 4.7661161266	 2.5446884309	 0.114691
H	 1.2173238168	 3.0959361058	 3.0904030969	 0.123395
H	 2.7194439527	 3.5599865624	 0.7983691358	 0.092361
H	 1.9650212224	 1.6884681645	-0.5237895496	 0.10786
H	 0.8383515589	 4.1318118401	-1.0740838474	 0.09616
