19
gdb 103052	2.61352	1.49427	1.14773	1.0477	82.43	-0.2387	0.0367	0.2753	1130.2498	0.157502	-385.811371	-385.802452	-385.801508	-385.844642	33.958	
C	 0.0858282905	 1.1884920713	-0.308039412	-0.256026
O	-0.0478892981	-0.1235995072	 0.2141502209	-0.286909
C	-1.3345374179	-0.6548104743	 0.0820431497	 0.252139
C	-2.3593682771	 0.0224686999	 0.8436662174	 0.282682
C	-3.1989498142	 0.6056809092	 1.4777276205	-0.430714
C	-1.7960797368	-1.2666520636	-1.2297992294	-0.128986
C	-0.5994197348	-1.8605999119	-1.9844939012	-0.244228
C	-0.2715420717	-2.7528374984	-0.7454739469	-0.240316
C	-1.4740916242	-2.1497144944	-0.0103550032	-0.125098
H	 1.1358358855	 1.4658040748	-0.1932343716	 0.126465
H	-0.1859414473	 1.2275950697	-1.372022405	 0.110473
H	-0.5400596352	 1.903960228	 0.2405670163	 0.123127
H	-3.9398570289	 1.1132382324	 2.0442920023	 0.192262
H	-2.7565973058	-1.0030681478	-1.6555984221	 0.095859
H	-0.9121302426	-2.4510068932	-2.8480932039	 0.105335
H	 0.1722255022	-1.1542814552	-2.3005880901	 0.104994
H	-0.4072576796	-3.8160588657	-0.9531387044	 0.103538
H	 0.6992123562	-2.5976220193	-0.2712018666	 0.116146
H	-2.1441588503	-2.6754757342	 0.6587040892	 0.099257
