20
gdb 13289	6.57151	0.78573	0.74156	2.6328	72.08	-0.2419	0.0811	0.323	1538.2788	0.176441	-386.116827	-386.107671	-386.106727	-386.151829	31.912	
O	-0.0940290168	 1.4180745545	 0.2378285431	-0.420691
C	 0.0059713151	 0.0059505689	 0.1303938976	-0.075606
C	-1.4028130812	-0.5577408816	 0.0073144712	-0.164151
C	-1.4234857867	-2.0820876167	-0.1406869637	-0.208759
C	-2.8347667592	-2.6397581238	-0.1946535661	 0.166487
C	-3.0267905464	-4.1688274746	-0.0770419428	-0.301614
C	-3.8898281006	-3.8211924999	 1.1516477997	-0.056399
O	-3.5655960465	-2.4207025039	 1.0398456007	-0.292067
H	 0.7932214015	 1.7758942937	 0.3334643337	 0.284175
H	 0.6027797767	-0.2846752079	-0.7508403398	 0.079073
H	 0.5030123779	-0.4271483023	 1.0143217102	 0.083361
H	-1.9799623839	-0.270454167	 0.8924616228	 0.12821
H	-1.8907469806	-0.0881562698	-0.8557863733	 0.102339
H	-0.8967170119	-2.3855856764	-1.0566536316	 0.092879
H	-0.8958046408	-2.5497155913	 0.7011997856	 0.094414
H	-3.379920198	-2.1953260286	-1.0410482536	 0.070316
H	-3.5392574623	-4.6575757223	-0.9067950453	 0.108526
H	-2.108537346	-4.7148667912	 0.1506539216	 0.107289
H	-4.9656233137	-4.0018633335	 1.0282997799	 0.09948
H	-3.5705673666	-4.2414279063	 2.1126015899	 0.102738
