18
gdb 90864	3.72341	1.48095	1.25312	1.3588	77.77	-0.2236	-0.016	0.2075	1011.4926	0.148777	-401.851854	-401.844723	-401.843779	-401.882934	29.482	
O	 0.0607807483	 1.4587411675	 0.0202572633	-0.433616
C	 0.0621043398	 0.0475525219	-0.011810309	 0.088456
C	-1.435685863	-0.427066198	-0.0764669616	-0.151452
N	-1.5172396677	-1.8949226675	-0.0400896467	-0.089097
C	-1.4098399339	-2.8652429032	-1.1668846955	-0.029741
C	-0.5192069514	-2.5139705686	-2.4075764887	-0.298046
C	 0.4095269697	-1.8781789116	-1.3788618748	 0.121655
C	 0.6261956545	-0.5633205333	-1.267044128	-0.180361
C	-0.2736029449	-2.6205954495	-0.2301555438	-0.13303
H	 0.9713887437	 1.7570437877	 0.1077999759	 0.286428
H	 0.5009962495	-0.3775921612	 0.9030477921	 0.084659
H	-1.9770148515	-0.0365728877	 0.7918776858	 0.116169
H	-1.8953052692	-0.0034702409	-0.9761350912	 0.111209
H	-2.1409641196	-3.6670834858	-1.1564510287	 0.100808
H	-0.1711836535	-3.4568012888	-2.8442981169	 0.113249
H	-0.9194778426	-1.8666361067	-3.1931625945	 0.102441
H	 0.675153059	 0.0825511246	-2.1421033997	 0.097671
H	 0.1564332627	-3.229571689	 0.5568590723	 0.092598
