21
gdb 103227	3.64373	1.16983	1.07463	1.4163	82.	-0.204	0.0672	0.2712	1207.1193	0.181999	-386.999429	-386.990648	-386.989703	-387.032505	34.647	
C	-0.2125544005	 1.6693209611	 0.0402906715	-0.495508
C	 0.0144610329	 0.1546575183	 0.0556653603	 0.342508
C	-1.2452839862	-0.5908916489	-0.3710835799	-0.145442
O	-1.5666253907	-0.2123820272	-1.7040856399	-0.424046
C	 1.2477198406	-0.6019468905	-0.3842221906	-0.087325
C	 2.6299586282	-0.083429985	 0.1038266571	-0.074118
C	 2.6222661257	 1.1307002987	 0.9987069983	-0.310466
C	 2.1644861675	-0.1897325956	 1.5482531872	-0.066516
C	 0.7763087944	-0.6884418694	 1.0629597514	-0.126686
H	 0.5400136149	 2.1946958608	-0.5502578465	 0.133027
H	-1.1755450446	 1.8789339883	-0.4325096612	 0.120767
H	-0.2265780491	 2.096939823	 1.0472232147	 0.118842
H	-1.081853972	-1.6770929201	-0.3015137218	 0.083614
H	-2.0648352175	-0.3315364324	 0.3184321628	 0.085482
H	-2.441001327	-0.5559870977	-1.9090368849	 0.285861
H	 1.1823075924	-1.3615069937	-1.1542463758	 0.08731
H	 3.5505811347	-0.4568294417	-0.3261435202	 0.087386
H	 3.6188413436	 1.4069079863	 1.3347835921	 0.107916
H	 1.9691168096	 1.978672181	 0.8653294737	 0.113775
H	 2.6692316241	-0.6705606339	 2.3766072426	 0.085874
H	 0.294109379	-1.5269207114	 1.5534428092	 0.077745
