17
gdb 44152	3.50521	1.12279	1.02664	4.1443	72.96	-0.2692	0.0011	0.2703	1201.3887	0.136038	-421.804415	-421.796787	-421.795843	-421.837283	29.095	
O	-0.1497273095	 0.1171940505	-0.0610928372	-0.322431
C	-0.0199825314	 1.2944693138	 0.0087720397	 0.466744
O	-1.0289068685	 2.2447303018	 0.1781159964	-0.263856
C	-0.0606090366	 3.3126100592	-0.0134026878	 0.062135
C	 0.9275044755	 3.3100730555	 1.0941585746	-0.046103
C	 0.6260173687	 2.9177909634	 2.5032941135	 0.002304
C	 1.7435588433	 2.8229560021	 3.5123323534	-0.267184
C	 0.7447712745	 3.9479083351	 3.6018734608	-0.27271
C	 1.076565343	 2.3188978181	-0.0885446567	-0.302056
H	-0.3494801878	 4.1199313562	-0.671939142	 0.12863
H	 1.664714631	 4.1075727747	 1.0012632123	 0.105572
H	-0.1818423832	 2.2021797771	 2.605880324	 0.114471
H	 1.6992629183	 2.0278270649	 4.2478081664	 0.121727
H	 2.7483672543	 3.0628790131	 3.1799624462	 0.113102
H	 1.0775589639	 4.9445465993	 3.3302669276	 0.111947
H	 0.0089667807	 3.9294484557	 4.3977634962	 0.121077
H	 1.9584524039	 2.2655482995	-0.7097502273	 0.126631
