15
gdb 74823	3.55652	1.30294	1.08121	3.4413	71.94	-0.2696	-0.0105	0.2592	1102.8653	0.11268	-416.825162	-416.817427	-416.816483	-416.857477	28.884	
C	 0.0036223608	 1.4237399332	 0.1054683773	-0.481523
C	-0.0219096622	-0.0543839242	-0.0492359425	 0.389676
N	-0.0656133109	-0.7206745141	-1.1354954667	-0.288488
C	-0.0165000272	-2.1103511308	-0.7856455911	-0.059549
C	 1.2098346949	-2.5863507395	-0.0511126053	-0.338279
C	 0.0185591473	-2.1291932392	 0.756676148	 0.257976
O	 0.0026539323	-0.7637415245	 1.1282239174	-0.267343
C	-0.7140218051	-2.9990338569	 1.6242224243	 0.232639
N	-1.2991662991	-3.730114417	 2.3031306688	-0.339216
H	 0.9457595104	 1.7440334391	 0.5613487839	 0.154287
H	-0.1031884079	 1.8921251327	-0.872226482	 0.161535
H	-0.8065189203	 1.7479997633	 0.7653502965	 0.157054
H	-0.6001445428	-2.8004183106	-1.3817314677	 0.131563
H	 1.3951021122	-3.6541347409	-0.0483037691	 0.149577
H	 2.0910863278	-1.9537527705	-0.0402506419	 0.140088
