19
gdb 81526	2.27676	1.89009	1.23378	3.9448	76.48	-0.2313	-0.0002	0.2311	1044.137	0.157844	-422.974383	-422.965913	-422.964969	-423.006998	33.043	
C	-0.1293399804	 1.4806846595	-0.2574004853	-0.481587
C	-0.0001392112	-0.0205069871	 0.0257466754	 0.275842
C	-1.3957204384	-0.5970501834	-0.1890751132	 0.116545
O	-2.3203820428	-0.3706818133	 0.5498869307	-0.280899
C	 1.227814768	-0.8263536213	-0.5305510068	-0.161259
C	 2.1094523859	-0.134541527	 0.5489026921	-0.253214
C	 0.7962581538	-0.5214419564	 1.2904257482	-0.101372
C	 0.9415183679	-1.8891251534	 0.5806297271	 0.141629
O	-0.2231877482	-2.6714905206	 0.5217267539	-0.420737
H	 0.8048894057	 2.0309890312	-0.1387338134	 0.11824
H	-0.4812965147	 1.6468045311	-1.2824811978	 0.120147
H	-0.8749103496	 1.9107014455	 0.4171338229	 0.145576
H	-1.5429175149	-1.1458597616	-1.1472398943	 0.056048
H	 1.4858437956	-1.0105899711	-1.5757314574	 0.069145
H	 3.0083696446	-0.677032579	 0.8532572264	 0.096902
H	 2.3250612794	 0.9234494087	 0.4237928839	 0.107777
H	 0.539283345	-0.3493418046	 2.335230654	 0.08817
H	 1.8073477357	-2.4880611221	 0.8887000961	 0.07368
H	-0.0941314514	-3.3689552752	-0.1296676927	 0.289368
