17
gdb 108971	4.11192	1.34197	1.19121	3.3812	71.45	-0.2377	-0.0079	0.2298	1046.4023	0.137645	-417.95023	-417.943051	-417.942107	-417.981916	28.17	
O	 0.1111140883	 1.3576360799	-0.1176145578	-0.422554
C	 0.0255944142	-0.0298404643	 0.0739716758	-0.136023
C	-1.3897534812	-0.5069630932	 0.1272154585	 0.308906
N	-2.3922326355	 0.2796577492	 0.0599750773	-0.285834
C	-3.550789428	-0.5929891997	 0.0954599061	-0.009471
C	-3.5850507017	-1.8271751999	-0.8423356113	-0.093926
C	-2.1797546585	-2.1968135643	-1.2653107197	-0.189575
N	-1.6840671359	-1.9238548445	 0.1729729641	-0.216667
C	-3.141531963	-1.9331982901	 0.5964287533	-0.048776
H	-0.7999986467	 1.6841872382	-0.119250458	 0.296897
H	 0.5535867953	-0.5668988881	-0.7306008584	 0.113145
H	 0.5202317103	-0.3339336234	 1.0111992606	 0.120278
H	-4.505692811	-0.1521050958	 0.3492216937	 0.107817
H	-4.5129326067	-2.1384635582	-1.3048034448	 0.10356
H	-2.0687214021	-3.2622463296	-1.473421108	 0.12728
H	-1.6749057019	-1.6104246505	-2.0409877688	 0.119626
H	-3.486357306	-2.4977737657	 1.4535517575	 0.105316
