16
gdb 39252	2.9238	2.01467	1.44768	1.2189	68.33	-0.2414	0.01	0.2515	890.1394	0.127139	-437.88972	-437.883218	-437.882274	-437.9206	25.845	
C	-0.0620552889	 1.4297634463	 0.0308377656	-0.372753
C	 1.3296876104	 0.8315308932	 0.004418107	-0.102662
C	 2.0594751256	 0.4900938351	 1.2853567578	-0.1042
O	 1.1903700718	-0.3777436008	 2.047700984	-0.258544
C	 0.1288794929	-0.8223672331	 1.2819462483	 0.179636
O	 0.2440825522	-2.1946920042	 0.780975551	-0.250947
C	-0.0356219264	-2.1105937072	-0.5442569663	 0.09053
N	-0.1854558335	-0.9686058771	-1.092292226	-0.324549
C	 0.0969890118	-0.0509032812	-0.0242206381	 0.298669
H	-0.4427744751	 1.8648192676	 0.9515223838	 0.122054
H	-0.382210579	 1.9298908646	-0.8763762291	 0.13446
H	 1.9096282172	 0.9479068708	-0.9023922815	 0.113349
H	 2.9991813513	-0.0289473125	 1.0602185878	 0.117063
H	 2.2834466485	 1.3480883774	 1.9282556658	 0.116548
H	-0.7662844647	-0.8139483813	 1.9132331157	 0.10034
H	-0.1062549642	-3.0641694576	-1.0551668559	 0.141003
