19
gdb 66189	2.46752	1.61058	1.34602	1.4301	76.28	-0.2345	0.0149	0.2494	1048.9002	0.158241	-423.006533	-422.998063	-422.997119	-423.039593	32.152	
C	 0.1507965623	 1.596497455	 0.1190177755	-0.424796
C	-0.0238574884	 0.0773609684	 0.0229973909	 0.290362
O	 0.6641601066	-0.3967186025	-1.1410499612	-0.301296
C	 1.4642630983	-1.5335502173	-0.8212683217	-0.127701
C	 1.4507663761	-1.6032521471	 0.679614033	-0.091574
C	 0.6191659187	-0.6888280094	 1.1598992595	-0.109592
C	-1.5109828477	-0.2703502507	-0.0833855036	 0.069068
C	-2.1536136464	-0.5260087481	-1.3765619754	-0.178242
O	-1.8204720371	-1.5989753044	-0.4862225094	-0.242249
H	 1.2104463215	 1.8446893021	 0.215664164	 0.124988
H	-0.2407607626	 2.0795049575	-0.7809864229	 0.126564
H	-0.3823296991	 1.9993884159	 0.9864777465	 0.112657
H	 1.0416715625	-2.4426854267	-1.2749822853	 0.11607
H	 2.4714574216	-1.3889850971	-1.237681593	 0.104967
H	 2.0319566937	-2.319482085	 1.2464059825	 0.107749
H	 0.37528398	-0.505398461	 2.1985863081	 0.102346
H	-2.1242543391	 0.1076087111	 0.7376926595	 0.083155
H	-3.2190342923	-0.3350252021	-1.4976843221	 0.108497
H	-1.5479167087	-0.4765839186	-2.2770663748	 0.129028
