15
gdb 125114	3.47887	1.28076	0.94161	6.0779	71.97	-0.234	-0.0363	0.1977	1178.8243	0.112059	-453.980875	-453.972214	-453.97127	-454.015067	30.291	
C	 0.0427739076	 1.5517561202	 0.0113577628	-0.516794
C	 0.044242953	 0.0551635763	-0.0068390712	 0.020271
C	 0.0333669268	-0.7809451464	-1.092140639	 0.417904
O	 0.0135364905	-0.5644590411	-2.4223078053	-0.427448
N	 0.041981188	-2.0821337978	-0.6355482622	-0.0968
C	 0.0350182463	-3.2403749354	-1.4248083062	 0.18269
O	 0.0422818533	-4.3570742647	-0.9920189621	-0.267828
N	 0.058648568	-2.1216779663	 0.7370373375	-0.247575
C	 0.0605391999	-0.8563197328	 1.093673305	-0.019895
H	 0.9978156651	 1.9622399049	 0.358569941	 0.144209
H	-0.1436120871	 1.9709248288	-0.9846825736	 0.1052
H	-0.7399213866	 1.9445510214	 0.6686090326	 0.145673
H	 0.0301597425	 0.3851833777	-2.5837673399	 0.315962
H	 0.022260859	-2.9802379209	-2.4956507792	 0.119178
H	 0.0711559438	-0.6029587438	 2.1457235599	 0.125252
