13
gdb 3150	4.35145	2.80413	1.97053	2.6318	55.37	-0.2506	0.0202	0.2707	646.9635	0.103059	-340.623533	-340.617191	-340.616247	-340.653829	22.831	
O	 0.0550958221	 0.0188224935	-0.0443915671	-0.372162
C	 0.0323429828	 1.220598643	-0.0000481841	 0.384623
N	-0.9740310558	 2.1602111594	 0.0097318971	-0.348009
C	-0.0944422399	 3.3411881388	-0.0117305716	-0.22808
C	 1.072590886	 2.3369348901	 0.0340859542	 0.197279
C	 2.3691372241	 2.3209120717	 0.7418329082	-0.294298
N	 2.3066016314	 2.3926093104	-0.7280174775	-0.356422
H	-1.9765837262	 2.0678760855	-0.0361760775	 0.256807
H	-0.1461311827	 3.9259732321	-0.9347717519	 0.127019
H	-0.1994595304	 3.9952110581	 0.859189334	 0.118486
H	 2.7302856084	 3.2237813433	 1.2260266819	 0.128188
H	 2.6662321719	 1.3872943426	 1.2125120003	 0.135747
H	 2.4900887983	 1.4768920513	-1.1353063761	 0.250823
