19
gdb 102937	2.0936	0.94402	0.67827	2.8434	79.17	-0.2572	-0.0279	0.2294	1636.8833	0.15415	-422.98982	-422.979066	-422.978122	-423.027083	36.9	
C	 0.9204308453	 0.9768734145	-0.3131342434	-0.391318
C	 0.2708306849	-0.3898512623	-0.0891684449	-0.185108
C	-1.2481691245	-0.2989205506	 0.113680358	-0.051084
O	-1.803561056	 0.2448986016	-1.0792196055	-0.249953
C	-3.1712230363	 0.5693152548	-0.9980988342	-0.15294
C	-3.6066471034	 1.1032350123	-2.3504116697	 0.14168
O	-4.68226276	 1.5988871234	-2.5554599189	-0.238278
C	-1.8345288981	-1.6060098373	 0.4372178346	 0.331087
C	-2.3117823076	-2.6787231955	 0.6953630706	-0.455694
H	 1.9976374748	 0.8708575378	-0.4699091964	 0.116524
H	 0.4930909941	 1.4715843515	-1.1882896325	 0.134971
H	 0.772399577	 1.6324358017	 0.5523820792	 0.113941
H	 0.455359122	-1.0502889164	-0.9430986152	 0.119535
H	 0.6968258965	-0.8808960359	 0.7918932561	 0.11277
H	-1.4551760161	 0.3905396089	 0.9508323355	 0.095734
H	-3.7852073377	-0.3127686481	-0.7552042108	 0.136658
H	-3.3720596508	 1.3304976193	-0.2270527625	 0.121829
H	-2.8374391562	 0.98577103	-3.1452921809	 0.095696
H	-2.7326366279	-3.6260046497	 0.928174491	 0.20395
