21
gdb 84631	2.63511	1.77776	1.48358	0.1173	86.49	-0.2226	0.0084	0.231	1004.4635	0.185893	-349.973899	-349.966555	-349.965611	-350.005081	31.021	
C	-0.1024980519	 1.5714330948	-0.0181933924	-0.40585
C	 0.0228553328	 0.0390032724	-0.0078290612	-0.00879
C	 0.6772334133	-0.4636244846	-1.2825614453	-0.040143
C	 1.7025278234	-1.3175490356	-1.2925311755	-0.079849
C	 2.2745765043	-1.8290377031	 0.0236784271	-0.096695
C	 1.0936877017	-1.9967136351	 1.007991082	-0.226318
C	 0.7571110951	-0.5084777522	 1.2555855739	-0.068442
C	 2.1611097772	 0.0703274647	 1.3842760501	-0.064046
C	 3.025807287	-0.6759908643	 0.6958382661	-0.070825
H	 0.8805364839	 2.0481365044	-0.0815496015	 0.122624
H	-0.692448342	 1.908758728	-0.8768682644	 0.110639
H	-0.5984452059	 1.9314866509	 0.8899910834	 0.107812
H	-0.9998212122	-0.3682649843	 0.0226394192	 0.078675
H	 0.2756408703	-0.0739272109	-2.2162327889	 0.078801
H	 2.1565381214	-1.6362426693	-2.226636748	 0.082253
H	 2.872357407	-2.7323517164	-0.1179372354	 0.059033
H	 0.264001395	-2.569416732	 0.583543232	 0.090939
H	 1.4243698584	-2.4746859971	 1.9351081697	 0.090682
H	 0.1342984228	-0.3386143844	 2.1397063887	 0.057332
H	 2.3877243245	 0.9943520949	 1.9027363854	 0.090192
H	 4.0785648739	-0.4717128608	 0.5396331851	 0.091977
