19
gdb 53707	10.21666	0.44093	0.42718	1.1894	88.77	-0.2463	0.0366	0.2829	2497.3589	0.154901	-385.819792	-385.808582	-385.807638	-385.858913	37.334	
C	-0.0500239515	 1.4715716083	 0.0105855046	-0.498757
C	-0.0409995337	 0.0163505372	 0.0026058271	 0.137736
C	-0.0382575133	-1.1867185296	-0.0039082785	-0.000813
C	-0.0071115601	-2.642120246	-0.0118621391	-0.208201
O	-1.3269777447	-3.1597813826	-0.0025338588	-0.242773
C	-1.354562456	-4.5692454315	-0.0095410663	-0.035701
C	-2.8259498488	-4.9971008776	 0.0018031987	-0.352157
C	-2.9781460743	-6.4455278472	-0.0042204432	 0.285915
C	-3.073473027	-7.6434973217	-0.0096325284	-0.447571
H	 0.9701688489	 1.8708432285	 0.0030879477	 0.150335
H	-0.5687889286	 1.8717928602	-0.8672721311	 0.150882
H	-0.5520360553	 1.8622030169	 0.9023916411	 0.150881
H	 0.5353539758	-3.0029694814	-0.9029978656	 0.114784
H	 0.5515157856	-3.0123102469	 0.86534939	 0.114789
H	-0.8513974927	-4.9707960972	-0.9039213903	 0.099908
H	-0.8350522378	-4.9799346154	 0.8712407601	 0.099908
H	-3.3078952272	-4.5658105419	 0.8869800976	 0.142327
H	-3.3240704887	-4.5567629221	-0.8698643952	 0.142334
H	-3.1728717208	-8.70049229	-0.0146884805	 0.196173
