21
gdb 39513	2.29914	1.70906	1.17987	1.243	77.75	-0.2511	0.0778	0.3289	1105.9459	0.184777	-424.206892	-424.198869	-424.197924	-424.239365	31.72	
C	 0.0775058395	 1.4366390643	-0.1879281439	-0.237832
C	 1.4264505149	 2.1337411632	 0.0842770405	-0.070281
O	 2.1768426644	 1.5823284495	 1.1520929212	-0.23134
C	 1.82890968	 2.0157297112	 2.449380203	-0.068102
C	 0.4162635559	 1.6167328535	 2.8985878053	-0.272583
C	 0.1143314894	 0.1399580999	 2.7347845261	 0.06787
O	-1.1742683983	-0.2162281632	 2.2145938995	-0.268104
C	-0.0151166894	-0.5904934634	 1.4597789469	 0.08939
C	 0.1278525307	-0.079283885	 0.0385677672	-0.215585
H	-0.7367743822	 1.86465489	 0.4021592799	 0.117012
H	-0.1793657567	 1.6328676724	-1.2357248646	 0.095382
H	 2.0682014046	 2.0089250084	-0.7951870227	 0.107035
H	 1.2803676915	 3.2157644746	 0.2321523323	 0.087091
H	 2.576428155	 1.5622141591	 3.1098165164	 0.107348
H	 1.9360028199	 3.1101687414	 2.5319761629	 0.088429
H	 0.3104325603	 1.8882419388	 3.9562324418	 0.101819
H	-0.3347415769	 2.1992367781	 2.3619114205	 0.120271
H	 0.4153585193	-0.4699506949	 3.5903208134	 0.085595
H	 0.1951626521	-1.6621980759	 1.5227651839	 0.0815
H	-0.6730452167	-0.556120049	-0.5410571134	 0.106152
H	 1.0699521026	-0.4803682131	-0.3557830962	 0.108932
