12
gdb 131182	3.62883	1.14773	0.87352	0.8327	63.5	-0.2366	-0.0509	0.1857	1202.8651	0.075601	-505.894994	-505.886902	-505.885957	-505.929179	27.799	
O	 0.1356406696	 1.379877695	-0.0036708964	-0.421084
C	 0.0980588884	 0.0366745846	-0.0452121062	 0.196566
C	 0.0297556502	-0.783663847	-1.137755921	 0.454674
O	-0.0430634111	-0.4625379015	-2.4312963546	-0.213466
C	 0.1333204749	-1.4390128945	-3.3891514772	 0.107601
N	-0.0102217377	-1.1036743671	-4.5884649317	-0.411303
O	 0.0124968592	-2.0466165585	-0.7212306471	-0.225653
N	 0.0801056263	-1.995027565	 0.7233530771	-0.028756
N	 0.1240912542	-0.7715906597	 1.0451140718	-0.175948
H	 0.1682375399	 1.6440587729	 0.9237101652	 0.317629
H	 0.3883273713	-2.4133968565	-2.9708510821	 0.150061
H	 0.1546162648	-1.9008776126	-5.1999784178	 0.249679
