15
gdb 133074	3.79799	1.15368	0.88985	5.2781	72.08	-0.2328	-0.023	0.2098	1224.8805	0.114145	-458.163157	-458.155308	-458.154364	-458.196071	28.477	
C	 0.0730713594	 1.4398051895	 0.0071978167	-0.327267
N	-0.0640037555	 0.0018515284	 0.0032527859	-0.350911
C	-1.2404192417	-0.6671648591	 0.0102046007	 0.442096
C	-2.4973342943	-0.0276296997	 0.0210849315	-0.229724
C	-3.6027687155	-0.8551061748	 0.0269133105	 0.019224
N	-3.5328530622	-2.1948960937	 0.0227866298	-0.331431
C	-2.2960592688	-2.6588131509	 0.012496449	 0.343835
F	-2.1882044085	-3.9772613415	 0.0084680814	-0.063398
N	-1.1515516583	-2.011326151	 0.005987278	-0.396109
H	 1.1350391336	 1.6898960754	-0.0009168811	 0.140231
H	-0.3898543877	 1.8971164806	-0.876439188	 0.137481
H	-0.3749724668	 1.8911037833	 0.9015682115	 0.137402
H	 0.7572767673	-0.5805697691	-0.0033006771	 0.258587
H	-2.5996063949	 1.0485000606	 0.0247785771	 0.101125
H	-4.604182906	-0.4314001779	 0.0353594641	 0.118857
