20
gdb 56905	2.33152	1.1691	0.94384	4.8271	79.73	-0.2618	0.0356	0.2974	1328.6564	0.168422	-403.154856	-403.144698	-403.143754	-403.189981	37.392	
C	-0.0260709084	 1.4800855875	-0.1802684171	-0.391892
C	 0.0469637367	-0.0281635839	 0.1338052313	-0.175666
C	 0.7543686626	-0.2556006717	 1.4023144926	 0.281425
N	 1.3085016257	-0.4279830119	 2.4019338663	-0.327518
C	-1.337499209	-0.6625149226	 0.1658980826	-0.013121
C	-1.9908826864	-1.151256493	-1.1154420232	-0.371198
C	-1.5910790295	-2.1283745001	-0.0301845227	 0.399513
C	-0.478907438	-3.1284405438	-0.2545730774	-0.459528
O	-2.620177644	-2.6030999478	 0.7998920229	-0.465263
H	 0.9727395184	 1.9202262858	-0.2316031709	 0.134495
H	-0.5271254388	 1.6274936064	-1.1405155903	 0.129521
H	-0.5941209447	 2.007782173	 0.5906934156	 0.138985
H	 0.6437955012	-0.5114989101	-0.6489077816	 0.120524
H	-2.011151149	-0.2026756304	 0.8831645617	 0.11317
H	-3.047692853	-0.9491584513	-1.2467611851	 0.119075
H	-1.402839411	-1.127869408	-2.028544131	 0.109378
H	 0.3104348965	-2.7335265046	-0.8994158402	 0.11727
H	-0.0334557854	-3.4260063934	 0.6992256464	 0.147518
H	-0.8733832118	-4.0282648421	-0.7422586202	 0.111926
H	-3.0460829521	-3.3411749178	 0.3491789602	 0.281387
