18
gdb 66778	3.29973	2.08257	1.78442	1.4368	76.44	-0.2364	0.0699	0.3064	840.6321	0.149852	-364.743319	-364.737162	-364.736217	-364.773384	26.678	
C	-0.043011962	 1.4347441396	 0.0248795363	-0.491147
C	 0.0484002088	-0.0658785595	 0.0170544953	 0.354061
C	 1.3152664499	-0.8127915481	-0.32260782	-0.128931
C	 0.7452292579	-0.8549350026	 1.0987279471	-0.128933
C	 0.156023437	-2.259442014	 0.8416623365	-0.083329
C	-1.261347418	-2.0703188012	 0.2379902379	-0.063966
C	-0.7051233603	-2.0291675288	-1.148981134	-0.06397
C	 0.7404590352	-2.216217024	-0.6156589764	-0.083329
N	-1.1449246554	-0.7950458461	-0.4831163641	-0.163108
H	 0.87996409	 1.8801960898	 0.4083790096	 0.114882
H	-0.2131966459	 1.8197693698	-0.9855578545	 0.12543
H	-0.871752456	 1.771075216	 0.6559575844	 0.125434
H	 2.2168589355	-0.3522775162	-0.7096972004	 0.083174
H	 1.1204616906	-0.4333311309	 2.0240556607	 0.083173
H	 0.3715573258	-3.0871080869	 1.51222297	 0.071604
H	-2.2236908191	-2.3847953531	 0.626967339	 0.088676
H	-1.1260112392	-2.3035791323	-2.1101547673	 0.088675
H	 1.3762318952	-3.0128038214	-0.9929913903	 0.071603
