18
gdb 90518	3.11522	1.13228	1.0464	2.1953	77.11	-0.2363	0.0474	0.2837	1207.5502	0.1467	-401.855066	-401.846399	-401.845455	-401.888726	32.997	
O	 0.1726020108	 1.3473851854	-0.0733197284	-0.423512
C	 0.0686310555	-0.0591817103	 0.0263548141	 0.095684
C	 0.2914199031	-0.7792482009	 1.3865616558	-0.212351
N	-1.0727484061	-1.4143360687	 1.3260119736	-0.141386
C	-2.0624664555	-0.3254905629	 1.3271059104	 0.020032
C	-1.9673033322	 0.956828493	 2.1495664933	-0.413583
C	-2.0817636495	 0.7109515063	 3.5839188946	 0.324594
C	-2.1703056144	 0.4908865759	 4.7621566324	-0.459434
C	-1.3535045688	-0.5928951046	 0.0567686194	-0.078052
H	 1.1029886938	 1.5774226134	-0.1648033345	 0.287336
H	 0.6467275338	-0.5460552402	-0.7685629692	 0.087397
H	 1.0586289829	-1.5553337782	 1.3547078739	 0.109176
H	 0.4580195094	-0.1454685631	 2.2616197084	 0.11759
H	-3.0605183854	-0.7586327163	 1.3591677578	 0.107143
H	-1.0481111227	 1.5016168124	 1.9242732408	 0.154547
H	-2.7837324445	 1.6142057253	 1.8234853314	 0.134624
H	-2.2502036478	 0.3016004005	 5.8037055341	 0.19514
H	-1.8617612823	-1.0225182769	-0.8007860781	 0.095055
