16
gdb 13949	5.06084	1.30485	1.21442	1.4108	69.71	-0.2351	0.0449	0.28	1007.4864	0.12918	-346.519704	-346.512142	-346.511198	-346.551912	28.451	
C	-0.0570446583	-1.2115538128	 0.2276417467	-0.453414
C	-0.061631581	-0.0196269476	 0.0744945726	 0.312098
C	-0.0326530227	 1.4289460598	-0.1231664829	-0.472268
C	 1.3674955733	 1.9916805129	-0.0928016693	 0.29191
C	 2.0923916005	 2.4221767894	 1.1666600321	-0.332837
C	 1.9000369877	 3.3996661752	 0.0461894894	 0.04092
O	 2.892572403	 3.2119097039	-0.9641920079	-0.286337
C	 2.3940561113	 1.8688853675	-1.2173031586	-0.122031
H	-0.0626911664	-2.264141462	 0.3668172503	 0.198115
H	-0.510244947	 1.6728562648	-1.0819873019	 0.134065
H	-0.6389052647	 1.9166544035	 0.650798745	 0.133247
H	 1.4467040942	 2.5647215045	 2.0285705366	 0.114911
H	 3.0907309892	 2.0571201151	 1.3926817683	 0.117376
H	 1.4241764438	 4.3711368132	 0.1211899081	 0.105935
H	 3.1734266332	 1.1050966232	-1.1181838777	 0.111066
H	 1.9413556639	 1.8109774394	-2.2145378408	 0.107244
