20
gdb 96432	1.91351	1.82056	1.20614	3.3075	75.45	-0.2155	-0.0225	0.193	1115.5425	0.171405	-440.28502	-440.276306	-440.275362	-440.318306	33.098	
C	 0.0089224726	 1.5276962981	-0.08274325	-0.420357
C	 0.0863348648	 0.0083598555	-0.0004433922	 0.130681
O	 0.7379275661	-0.4478834029	-1.1740617683	-0.253481
C	 0.7320203314	-1.8661372036	-1.2851048196	-0.075012
C	 1.4361940346	-2.5076643545	-0.0903779348	-0.173218
N	 0.9011935256	-2.0344551127	 1.1949628533	-0.288769
C	 0.7994774709	-0.5765197414	 1.2561310309	-0.12032
C	 2.157147709	 0.0738960138	 1.4869690754	 0.180766
O	 3.2203206466	-0.4851415031	 1.4285536902	-0.23929
H	 1.0004590511	 1.9660498816	-0.2219590729	 0.136046
H	-0.6060584532	 1.8176891641	-0.9386720392	 0.13044
H	-0.4383741306	 1.9485442678	 0.8231540313	 0.116114
H	-0.9404702861	-0.4020625912	 0.0224218015	 0.059878
H	-0.309885064	-2.2268620626	-1.3524815243	 0.076334
H	 1.237948278	-2.1035680403	-2.2261650682	 0.108476
H	 1.3359097437	-3.5975449004	-0.1294296933	 0.098758
H	 2.5017937237	-2.266742395	-0.1174315055	 0.143391
H	-0.0260366973	-2.4254770129	 1.3352485608	 0.215532
H	 0.1933064755	-0.3078932119	 2.1338117338	 0.09283
H	 2.0975292675	 1.1570651613	 1.736123631	 0.0812
