21
gdb 117852	2.25066	1.09157	0.97791	2.1892	71.02	-0.2455	0.0656	0.311	1352.0884	0.180112	-498.476512	-498.465698	-498.464754	-498.512969	38.889	
C	-0.4433695705	 1.375883184	-0.5960560701	-0.230386
O	-0.7301860367	 0.0017408792	-0.7433426035	-0.252199
C	-0.8061476983	-0.6892540521	 0.4944538424	-0.093287
C	-1.0799830461	-2.1697140416	 0.2224604617	 0.269468
O	-0.9534805865	-2.813448378	 1.4843110045	-0.478777
C	-2.502611897	-2.3776364204	-0.3166342858	-0.09735
O	-2.7912746834	-3.7685773131	-0.4277013307	-0.441022
C	-0.0291509481	-2.7659856967	-0.7426547462	-0.107307
O	-0.2347524671	-2.4091731674	-2.0975611076	-0.430716
H	-0.4147809046	 1.8142132786	-1.5960489534	 0.132988
H	-1.2186539828	 1.8840329482	-0.0040649406	 0.115691
H	 0.5281902393	 1.5347882858	-0.1050664689	 0.115172
H	 0.1412921692	-0.5992844694	 1.0479328828	 0.106105
H	-1.6031757827	-0.2642198234	 1.1242163705	 0.098714
H	-1.4350045424	-3.6470243157	 1.3944318415	 0.289442
H	-3.2160384693	-1.9740984995	 0.4097073215	 0.108393
H	-2.6367363767	-1.8580632063	-1.2696956452	 0.1122
H	-2.3920636029	-4.0760339508	-1.2487863029	 0.30019
H	 0.9747785484	-2.4887330781	-0.3861424873	 0.092395
H	-0.0953461208	-3.8579290764	-0.6894921892	 0.097959
H	-0.257599481	-1.4430213972	-2.1111736635	 0.292327
