13
gdb 128176	2.4575	1.49345	0.93622	4.2177	71.85	-0.2408	-0.079	0.1618	1158.0583	0.089272	-448.904404	-448.896229	-448.895285	-448.937909	28.243	
C	-0.0389152543	 1.4933603825	 0.1065101186	-0.332888
N	 0.1595299954	 0.0586492182	-0.0485586449	-0.408599
C	 0.6526209568	-0.7002550764	 0.9596672084	 0.267017
C	 0.7082908932	-2.0656362662	 1.1315765126	 0.248573
O	 1.3591897272	-2.3012983523	 2.3021837736	-0.203914
N	 1.6870045013	-1.0688798108	 2.8333917682	 0.011696
N	 1.2776202418	-0.1517670298	 2.0598361718	-0.181627
C	 0.2313250199	-3.1256537741	 0.3492632593	 0.227568
N	-0.1886887303	-3.9597979336	-0.3390283672	-0.341741
H	 0.8789178406	 1.9521873604	 0.4781876808	 0.167822
H	-0.2694087669	 1.916732104	-0.8725189339	 0.140611
H	-0.8525661003	 1.7368616657	 0.8019807021	 0.137199
H	-0.4396648144	-0.4182581277	-0.7034065594	 0.268283
