21
gdb 92148	2.91466	1.47401	1.42934	1.835	81.1	-0.2186	0.0873	0.3059	1064.6477	0.183335	-387.068842	-387.060713	-387.059768	-387.100992	32.511	
C	-0.1253532103	 1.5812798198	 0.0418511195	-0.394017
C	 0.0241425099	 0.0557457084	-0.0045786706	 0.013036
C	 0.8250796056	-0.4589200435	-1.2450451966	-0.232498
C	 2.1572420446	-0.8946431846	-0.6515225839	 0.047425
O	 2.77083276	 0.2765812067	-0.0108213105	-0.312593
C	 2.2983756291	-0.2001858236	 1.251057183	 0.048322
C	 0.8121634941	-0.5172804652	 1.1802600019	-0.141896
C	 1.8504757532	-1.5302361487	 0.7317428357	 0.264987
C	 2.037472152	-2.9479734768	 1.1757889099	-0.519572
H	 0.8570489639	 2.0590330321	 0.0087999941	 0.136803
H	-0.7140139078	 1.9455746297	-0.8072343739	 0.105196
H	-0.6337366321	 1.8993873371	 0.9586787687	 0.1044
H	-0.9762885971	-0.3918132333	-0.0058492065	 0.06745
H	 0.3275499909	-1.314805329	-1.7169742372	 0.092873
H	 0.9581235411	 0.3146592555	-2.007473409	 0.104934
H	 2.8608807308	-1.3954725214	-1.3206125024	 0.073685
H	 2.835273271	 0.1042150352	 2.1429068212	 0.097191
H	 0.3145073047	-0.6788229843	 2.1319747449	 0.078713
H	 1.3423013184	-3.6246632906	 0.664003605	 0.119668
H	 3.0554670707	-3.3023266375	 0.9779441113	 0.12326
H	 1.8552317172	-3.045491526	 2.2510121453	 0.122633
