17
gdb 95601	2.27848	1.71267	1.0294	3.6443	69.47	-0.2381	-0.0846	0.1535	1129.2062	0.134662	-458.991978	-458.983394	-458.98245	-459.025966	31.293	
C	-0.011913682	 1.5324899325	-0.0562226469	-0.403063
C	 0.0489688366	 0.0147693615	-0.0150213891	 0.009066
O	 0.7490099116	-0.4465842581	-1.1638002734	-0.251026
C	 0.7955371212	-1.8568453607	-1.2597922645	-0.099904
C	 1.7072747513	-2.4373750175	-0.1709420233	-0.311791
C	 1.2906928277	-1.9581548768	 1.2059186725	 0.303278
O	 1.3822223455	-2.6138443933	 2.2112458286	-0.268451
C	 0.6945101634	-0.5168502985	 1.2750266196	 0.286787
O	 0.7142924616	 0.1012855825	 2.3072875166	-0.272211
H	 0.9983591503	 1.9488834341	-0.0874746892	 0.134987
H	-0.5553880073	 1.8605991274	-0.9448030075	 0.127118
H	-0.5120381286	 1.9083664895	 0.8377276989	 0.144863
H	-0.9785215512	-0.4002848231	-0.025907228	 0.098113
H	-0.2184879631	-2.2826246034	-1.1839643495	 0.102316
H	 1.1842120767	-2.0913382003	-2.2539617483	 0.124239
H	 1.7433224018	-3.5307054864	-0.1823046873	 0.130453
H	 2.7256151445	-2.0639909696	-0.3468991091	 0.145225
