19
gdb 4033	3.3948	1.18896	0.97781	1.5359	70.68	-0.2433	0.0134	0.2567	1220.9993	0.162312	-402.16002	-402.149955	-402.149011	-402.195041	35.636	
C	-0.8273014372	 0.9303718949	 0.06329485	-0.408532
C	 0.1422826581	-0.2526210466	-0.1274412471	-0.063415
C	 1.1536282937	 0.026031391	-1.2518128109	-0.080283
O	 0.5145115603	 0.198563177	-2.5106860139	-0.427073
C	 0.801810801	-0.6192678407	 1.1844915097	 0.353292
C	-0.0259405578	-1.2378981194	 2.2813474447	-0.470255
N	 2.051629733	-0.3770337235	 1.2989358916	-0.169357
O	 2.5399359171	-0.7484740771	 2.5637236861	-0.405638
H	-0.2800006129	 1.8364060758	 0.3470795006	 0.121664
H	-1.3745532133	 1.1259814343	-0.8637812632	 0.114955
H	-1.5679167139	 0.7288799005	 0.8423808394	 0.121904
H	-0.4545565385	-1.120055597	-0.4445451652	 0.091572
H	 1.7788214982	 0.8905849485	-0.9940863464	 0.102242
H	 1.8232454326	-0.8308280975	-1.3619704463	 0.116982
H	 0.165936515	 1.0932969225	-2.5492321142	 0.283622
H	-0.0497948179	-0.5880246321	 3.162360009	 0.146259
H	-1.0497246657	-1.4260385232	 1.9526709093	 0.118648
H	 0.4254821295	-2.180668734	 2.6055474197	 0.148953
H	 3.4744515886	-0.5283399034	 2.4911953474	 0.304459
