16
gdb 86656	2.88156	1.32415	1.04739	6.1805	67.01	-0.2473	-0.0311	0.2162	1131.1974	0.124123	-475.079258	-475.070877	-475.069932	-475.112753	30.259	
O	-0.1641329435	 1.4288059487	-0.0475656146	-0.432723
C	-0.0097582818	 0.0196743901	-0.0084696587	 0.107364
C	-1.4167318524	-0.5742607456	-0.1682667366	-0.180215
N	-1.5902915443	-0.6881417806	-1.6189351747	-0.125006
C	-2.8529540395	-0.8010013647	-2.1924615464	 0.161083
O	-3.094374344	-0.9296088852	-3.3611976016	-0.265952
C	-0.3593239711	-0.645985193	-2.3115988235	 0.436863
O	-0.2057796517	-0.7159333996	-3.4984673488	-0.319219
C	 0.7266413759	-0.5140616531	-1.2421045494	-0.37292
H	 0.708946057	 1.8302364243	-0.1043394194	 0.290887
H	 0.4487230926	-0.3026979293	 0.9349378456	 0.083074
H	-1.4846386207	-1.5559528266	 0.3156148553	 0.121046
H	-2.1639899491	 0.090642235	 0.2701252547	 0.143206
H	-3.6393490943	-0.7538087152	-1.4112324522	 0.082073
H	 1.537021711	 0.128931141	-1.5917051798	 0.132473
H	 1.147951906	-1.5094842361	-1.0557158797	 0.137966
