18
gdb 67249	3.06063	1.56601	1.29891	1.1876	75.85	-0.2239	0.0688	0.2927	1028.52	0.147719	-401.844819	-401.837285	-401.836341	-401.876557	29.987	
C	-0.0402434435	 1.5739364733	-0.0688765217	-0.531652
C	 0.0075811176	 0.0845006446	 0.0077758042	 0.301236
C	 0.068089583	-1.0333245479	-0.9723892882	 0.035569
O	 1.1920871289	-1.6947319902	-0.3827465502	-0.289686
C	 0.8685840117	-0.96492706	 0.8343558526	-0.115706
C	-0.4457410027	-1.6045910052	 1.2977089666	 0.438729
C	-0.6806269932	-2.8139035682	 2.0990906665	-0.320168
N	-1.0288837556	-1.4628557554	 2.6260384638	-0.384415
C	-1.0760732949	-1.0050366486	 0.0638188414	-0.271615
H	 0.9348194381	 1.9937074807	-0.3403143564	 0.128599
H	-0.764036398	 1.8937008789	-0.8261045493	 0.128557
H	-0.3468482445	 2.0151176919	 0.8859402282	 0.13021
H	-0.067498174	-1.0797246623	-2.0454508912	 0.109064
H	 1.7200615816	-0.7960764809	 1.4936109972	 0.081369
H	-1.5371005151	-3.4507273528	 1.8958086684	 0.120919
H	 0.1796822722	-3.3306794493	 2.5173987556	 0.114017
H	-0.3202980727	-1.1657805132	 3.2945317388	 0.227184
H	-2.1231009591	-0.9289676552	-0.1988085664	 0.097788
