19
gdb 24620	4.8909	1.00258	0.95849	4.0655	81.1	-0.2188	0.0314	0.2502	1282.4943	0.162561	-382.095075	-382.087425	-382.086481	-382.128283	29.193	
C	-0.0790387958	 1.538737175	-0.002015266	-0.212727
C	 1.4729844651	 1.5259950832	-0.0713088253	-0.239741
C	 1.4336014372	 0.0983746353	 0.5394850952	 0.069414
C	-0.0502258438	-0.0116758367	 0.0935297663	-0.239748
N	 2.3921108731	-0.8971022363	 0.1101147362	 0.007947
C	 3.226565073	-1.6361753424	 0.9244394476	-0.131445
C	 3.949699833	-2.4432536283	 0.0881309168	-0.09514
N	 3.5893126703	-2.22552436	-1.2211469012	-0.278192
C	 2.659219912	-1.298558375	-1.1693526448	 0.00142
H	-0.4426411212	 1.9978697009	 0.9210224295	 0.110264
H	-0.6148018163	 1.9791944972	-0.8441009527	 0.109121
H	 1.8285539778	 1.5000443288	-1.1047488575	 0.116908
H	 2.0303433041	 2.2911500498	 0.4731288585	 0.108575
H	 1.4983581029	 0.1509757857	 1.6284858038	 0.095359
H	-0.7444606868	-0.5099936435	 0.7734129342	 0.10858
H	-0.1291777942	-0.4762708073	-0.8928867308	 0.116912
H	 3.2173370433	-1.5121000561	 1.9950363066	 0.123287
H	 4.707017977	-3.1658354141	 0.3519136083	 0.106234
H	 2.1448199594	-0.8799823161	-2.0212284347	 0.122972
