16
gdb 26007	4.92871	1.00498	0.83911	3.1058	73.51	-0.2029	0.0133	0.2162	1322.837	0.124169	-437.951043	-437.942482	-437.941538	-437.98594	30.695	
C	 0.0317101451	 1.4263852551	-2.3206426243	-0.48296
C	 0.0779046006	-0.066615892	-2.5449929153	 0.411547
O	 0.2718074634	-0.6084079694	-3.6006751639	-0.331367
O	-0.1340982231	-0.7045645809	-1.3666448852	-0.271364
C	-0.1481847311	-2.0820661288	-1.2615055735	 0.336575
C	-0.3682404567	-2.6748019963	-0.0385083048	-0.1875
N	-0.3257760086	-4.0305519931	-0.2448214251	-0.233097
C	-0.0848777437	-4.2970441798	-1.5653908115	-0.066832
C	 0.0329905354	-3.1013664547	-2.2380046184	-0.268477
H	-0.9394316159	 1.7155158275	-1.9089488351	 0.149535
H	 0.7940871311	 1.7218958525	-1.59425691	 0.149541
H	 0.2016288762	 1.9376841049	-3.2672309362	 0.147278
H	-0.5459998872	-2.2414131874	 0.9306356372	 0.123499
H	-0.4536502245	-4.7219178001	 0.4718862454	 0.265137
H	-0.0156004094	-5.3104374748	-1.9258119875	 0.122361
H	 0.2227805383	-2.9628222427	-3.2854421416	 0.136126
