19
gdb 41803	2.43951	1.98889	1.5106	2.3301	75.33	-0.2398	0.0145	0.2543	950.1547	0.162594	-423.03534	-423.028262	-423.027318	-423.066749	28.631	
C	 0.2503829834	 1.7286303109	 0.1638250078	-0.289411
C	 1.5751166597	 1.9450771995	-0.5971057615	-0.214019
C	 2.1668545742	 0.5162583552	-0.6009487787	 0.02012
O	 1.0162787637	-0.3055971475	-0.7816186797	-0.240772
C	-0.0099567594	 0.2002132551	 0.0451011448	 0.216652
O	-0.0852730511	-0.502907115	 1.2601060604	-0.255952
C	 0.9169874991	-0.3249093891	 2.2435003975	-0.130446
C	 2.3579748051	-0.1346044901	 1.8452330489	-0.065771
C	 2.9030350897	 0.2150787072	 0.6806490458	-0.069641
H	 0.3235770139	 2.0279529982	 1.2115378371	 0.116924
H	-0.5747076362	 2.291763731	-0.2763410707	 0.112668
H	 1.3850292081	 2.2621239737	-1.6265901756	 0.106264
H	 2.2314285542	 2.6795736875	-0.1258274108	 0.105056
H	 2.8207499477	 0.339963033	-1.4594278677	 0.082485
H	-0.9588727247	-0.0353863063	-0.4422999231	 0.092638
H	 0.6520478954	 0.520270185	 2.9061703847	 0.106123
H	 0.8462209	-1.2205546101	 2.8726477885	 0.123616
H	 3.0246990878	-0.2612154992	 2.6979721372	 0.094503
H	 3.9811250593	 0.3579551409	 0.6426763852	 0.088962
