21
gdb 62055	4.09671	0.65727	0.59087	1.3414	85.55	-0.261	0.0336	0.2947	1882.2936	0.180177	-387.038715	-387.028464	-387.02752	-387.074778	37.606	
O	 0.1190895041	 1.5041090593	 0.0697862749	-0.415627
C	 0.0330494253	 0.0814681414	-0.0062202506	-0.064042
C	 0.6401409656	-0.4681638836	-1.3113311898	-0.184836
C	-0.0223990278	 0.1161730866	-2.5643397254	-0.207621
C	 0.5993424863	-0.3919568906	-3.847619733	 0.028326
C	 0.1579503726	-1.7052341981	-4.4457832045	-0.255832
C	-0.1886721155	-0.4053295819	-5.1315037738	-0.2769
C	 0.6359732114	-0.5543699153	 1.169328903	 0.294327
C	 1.1759409668	-1.0566907909	 2.1189966017	-0.439
H	 1.0365864707	 1.7261033271	 0.2646596204	 0.284382
H	-1.0447521027	-0.1265944932	-0.008603028	 0.116479
H	 1.7159959217	-0.2469040548	-1.3125067766	 0.094402
H	 0.5495901676	-1.5606145289	-1.3070334673	 0.110989
H	-1.0926009425	-0.1336147009	-2.558259864	 0.089051
H	 0.0363596794	 1.2094087252	-2.5204597464	 0.112758
H	 1.6582319976	-0.1638619528	-3.9496697021	 0.078311
H	 0.9018991976	-2.3484732632	-4.9027163881	 0.109351
H	-0.644560478	-2.2416184918	-3.948839408	 0.107454
H	-1.2214033991	-0.0736393781	-5.0946046112	 0.110021
H	 0.3216995726	-0.1575808193	-6.0557474808	 0.109594
H	 1.6331933061	-1.5031635163	 2.9673569096	 0.198414
