17
gdb 38029	3.90061	1.49159	1.17396	2.2729	82.15	-0.2158	-0.0256	0.1902	1037.0077	0.138349	-384.688856	-384.682152	-384.681208	-384.719954	27.136	
C	-0.0236248663	 1.4900260783	-0.0059555459	-0.250465
C	 1.4783322849	 1.9258525334	 0.0825773837	-0.362578
C	 2.2340421375	 0.6270680517	-0.0193785376	 0.322393
C	 3.4939891838	 0.1722244038	-0.1190084652	-0.306144
C	 3.4577119167	-1.3305194567	-0.1018933655	 0.0249
O	 2.9098832966	-1.8977506362	 1.1102437013	-0.257173
C	 2.0353794045	-1.7501672712	-0.0241528883	-0.163124
C	 1.2677981211	-0.4764560868	-0.0028463292	 0.382603
C	 0.0090083258	-0.026655426	-0.0096826212	-0.260084
H	-0.6125397477	 1.8799571112	 0.8329294659	 0.11527
H	-0.5060378372	 1.873982632	-0.914398216	 0.115014
H	 1.7505998734	 2.629718697	-0.7096603966	 0.120783
H	 1.6822182989	 2.4308276402	 1.032836321	 0.12717
H	 4.4079951165	 0.7494066381	-0.1660088806	 0.098857
H	 4.2295795503	-1.9322916396	-0.5730747262	 0.094997
H	 1.6438260884	-2.6736630745	-0.4394410511	 0.095105
H	-0.8934981572	-0.6270351048	-0.0233334085	 0.102475
