11
gdb 3843	5.89668	2.90957	1.94825	2.0006	56.55	-0.2312	-0.0749	0.1563	598.9715	0.081622	-335.613384	-335.60807	-335.607126	-335.642453	19.766	
N	-0.0770890831	 1.286113963	 0.3062354025	-0.546492
C	-0.008793183	 0.0490056654	-0.0165714369	 0.367781
N	 1.1381672491	-0.7039341387	-0.2652958542	-0.29146
N	 1.1749147789	-2.0077823492	-0.6039296966	-0.168577
C	 0.0270950015	-2.5973868453	-0.7019916537	 0.077678
N	-1.2119347108	-2.0163049557	-0.4932534412	-0.235931
C	-1.2160065241	-0.768600879	-0.1707001924	 0.031005
H	 0.8455474202	 1.7198217613	 0.3746376363	 0.20654
H	 2.0467526561	-0.2684936068	-0.1957746792	 0.270297
H	 0.0394892222	-3.6453799661	-0.9733698382	 0.139546
H	-2.1626089769	-0.2617196188	 0.0050396034	 0.149613
