13
gdb 46182	1.90187	1.67203	1.29387	3.5086	70.28	-0.2677	-0.0111	0.2566	1034.6301	0.086278	-419.366455	-419.358002	-419.357058	-419.399709	30.629	
O	-0.0834313029	 0.0823105919	-0.3034526708	-0.302836
C	-0.0281952699	 1.2236965196	-0.0029218587	 0.450476
O	-0.9979524509	 2.024364215	 0.5195747932	-0.232573
C	-0.1270958173	 3.1927117686	 0.5756270503	-0.09638
C	 1.0584222126	 2.3681053577	-0.020180282	-0.238728
C	 2.169958337	 2.1274264714	 0.886104317	 0.272293
C	 3.0660628953	 1.9195338332	 1.6575054425	-0.41876
C	 1.4761839944	 2.7522633109	-1.3590963216	 0.272294
C	 1.7894631423	 3.0692771458	-2.473834296	-0.418765
H	-0.4996398867	 3.9908919979	-0.0661021725	 0.145509
H	 0.0161709331	 3.5263317857	 1.6031826499	 0.14551
H	 3.8680067236	 1.7329709809	 2.328719957	 0.21098
H	 2.0798256095	 3.3434498512	-3.4581956984	 0.21098
