21
gdb 68667	2.64277	1.81469	1.47177	0.2126	87.03	-0.222	0.0095	0.2315	1004.6137	0.185053	-349.977874	-349.970418	-349.969474	-350.008951	31.733	
C	 0.0035093145	 1.5347217802	 0.0301378596	-0.48353
C	 0.0000970894	 0.0097278922	-0.000541821	 0.245579
C	 0.6472476768	-0.6199801628	-1.2602222641	-0.240544
C	 0.1178188984	-2.0656513165	-1.1476018441	-0.071974
C	 0.8842689921	-2.7830137197	-0.0030412593	-0.255886
C	 1.1056476801	-1.878088378	 1.1884325387	-0.059014
C	 0.7098999545	-0.6039971832	 1.2061109884	-0.076114
C	-1.3207870215	-1.7977838486	-0.7246183664	-0.084119
C	-1.3916123688	-0.6365512888	-0.0743086791	-0.09041
H	 1.0264648611	 1.926862171	 0.0240115594	 0.11455
H	-0.5219670887	 1.945776841	-0.838020188	 0.112967
H	-0.4906459727	 1.9138356383	 0.932335254	 0.1106
H	 0.2619863991	-0.1414485104	-2.166756993	 0.088474
H	 1.7391772751	-0.5469943621	-1.2535870549	 0.087916
H	 0.2032480001	-2.6403070165	-2.0744653965	 0.059739
H	 0.3409968473	-3.6848876185	 0.3147404805	 0.101908
H	 1.8548046727	-3.1401177759	-0.3760055283	 0.104644
H	 1.5934532154	-2.3154925733	 2.0565556728	 0.082239
H	 0.8625250773	 0.0174316099	 2.0853604608	 0.076767
H	-2.1275998414	-2.5096541733	-0.858465225	 0.088056
H	-2.2610208009	-0.2200381749	 0.4226082153	 0.088152
