21
gdb 91090	2.58913	1.67221	1.51572	1.7695	80.29	-0.2556	0.0782	0.3338	1009.2862	0.184735	-387.078023	-387.070468	-387.069523	-387.109701	31.	
C	 0.5543041771	 1.5282154878	-0.2819079036	-0.414486
C	 0.1167372118	 0.0954010969	-0.006984838	 0.038561
C	 0.633213278	-0.9953120368	-0.9976383324	-0.246031
C	 1.3639317728	-1.7241328232	 0.1695560803	-0.042714
C	 2.866728714	-1.550079117	 0.2397317928	 0.02399
O	 3.3053341497	-0.2178212251	-0.0821802843	-0.252161
C	 3.2165999891	-0.5888545727	 1.2994649232	 0.054407
C	 1.960828899	-0.0858159711	 1.9884172925	-0.268647
C	 0.7793190302	-0.6848498127	 1.1861657803	-0.033356
H	 1.6379395139	 1.58965388	-0.407540005	 0.140634
H	 0.0848494654	 1.8980026334	-1.2006331978	 0.106946
H	 0.2595809442	 2.2024023596	 0.5308613159	 0.103884
H	-0.9741873332	 0.070942836	 0.0830097936	 0.063683
H	-0.1565969726	-1.5874083506	-1.4656784791	 0.092012
H	 1.2992804466	-0.6206646602	-1.7781744532	 0.108626
H	 1.0906932568	-2.7714747593	 0.3224914259	 0.063986
H	 3.5412378039	-2.3392972591	-0.0846847787	 0.089967
H	 4.1664602895	-0.6121485472	 1.829876732	 0.09012
H	 1.9514069391	-0.446994025	 3.0235069007	 0.09845
H	 1.9367389172	 1.0078279392	 2.0311497088	 0.114114
H	 0.0262937074	-1.0933107328	 1.8634787458	 0.068016
