14
gdb 66757	2.88423	2.07432	1.50814	2.2916	63.09	-0.243	-0.0265	0.2165	843.3546	0.101183	-436.597948	-436.591451	-436.590507	-436.628683	25.948	
O	-0.0612209025	 1.3883799289	-0.0011444277	-0.467548
C	-0.016032484	 0.0193293799	-0.0500551508	 0.282415
C	 1.0253335089	-0.8088588355	 0.7336145088	-0.149394
C	 0.6651630753	-2.2084808051	 0.3370304608	-0.029362
C	-0.5217152882	-1.982088384	-0.6145061646	-0.214609
C	 0.4549377001	-0.9273692961	-1.2418561724	-0.075677
N	 1.6766783194	-1.4426773803	-0.4580292663	-0.171871
C	-1.322962477	-0.8083638906	-0.0023428835	 0.405172
O	-2.4712637113	-0.5722177356	 0.2120979729	-0.307013
H	 0.8373555586	 1.7362122943	 0.0304597469	 0.296234
H	 1.5700072784	-0.5365564083	 1.6302518848	 0.109567
H	 0.9198315997	-3.0942712971	 0.9057287033	 0.113231
H	-0.9805139735	-2.8111572725	-1.1428011314	 0.103687
H	 0.5150022462	-0.657633178	-2.2923810608	 0.105169
