15
gdb 130290	3.4189	1.59042	1.0943	3.8442	74.62	-0.2171	-0.0301	0.187	1036.5231	0.115177	-416.806556	-416.799654	-416.79871	-416.837621	27.478	
N	-0.0172381083	 1.4050034655	 0.1494311471	-0.592734
C	 0.0461393386	 0.0254096096	 0.0357938563	 0.237902
N	-1.0701352078	-0.6922584864	 0.0161952318	-0.237196
O	-0.6649417957	-2.054485707	-0.0100190448	-0.246386
C	 0.6639224044	-2.0605791786	-0.025401363	 0.415327
C	 1.1937444923	-0.8068410389	-0.0004623948	 0.11879
C	 2.6881618462	-0.921753327	 0.0074042561	-0.434536
C	 2.8756023198	-2.4346711375	-0.0259014133	-0.067524
C	 1.6924013432	-3.0857072051	-0.0422308611	-0.21157
H	 0.6842352636	 1.8941052598	-0.3881499969	 0.252223
H	-0.944393217	 1.7663524981	-0.0340840379	 0.259612
H	 3.1774060272	-0.4489508194	-0.8548818826	 0.131911
H	 3.1559439315	-0.4886350308	 0.9014897115	 0.140531
H	 3.8532987235	-2.8989043229	-0.0360235407	 0.111622
H	 1.5317003086	-4.1540527595	-0.0640130175	 0.122027
