17
gdb 39834	2.93891	1.76982	1.39889	3.2445	70.82	-0.2537	0.0543	0.308	946.3304	0.136932	-421.771	-421.764228	-421.763284	-421.802011	27.71	
C	-0.0711189031	 1.4399789296	 0.0341193294	-0.292653
C	 1.3079658334	 0.8306019791	 0.0242427388	-0.068934
C	 1.9457513	 0.6042097386	 1.3850478816	 0.027505
O	 1.1174809428	 0.9797487191	 2.4918116483	-0.249766
C	 1.17863828	-0.4083437582	 2.1263905495	-0.074509
C	 0.0422908999	-0.8673565276	 1.243657065	 0.474689
C	-0.4437768858	-2.2534081123	 1.289613428	-0.258139
O	-1.2109270379	-1.1912217655	 1.8544654619	-0.276623
C	 0.0796377043	-0.0610682162	-0.0350341091	-0.152992
H	-0.415295179	 1.8880761334	 0.9568258154	 0.148217
H	-0.4017252983	 1.9293839847	-0.8752520329	 0.111973
H	 1.9612158562	 0.963297391	-0.8292655652	 0.090112
H	 3.0114535681	 0.7619775959	 1.5225550274	 0.100415
H	 1.5859657013	-1.071362532	 2.8854038016	 0.101226
H	-0.8537793864	-2.7028506524	 0.3855213295	 0.115064
H	-0.0182208921	-2.9591894756	 2.0030449903	 0.114047
H	-0.2101950933	-0.5610879416	-0.9520179894	 0.090369
