19
gdb 114767	2.9519	1.47572	1.24023	0.4349	77.01	-0.2356	0.0104	0.2461	1080.9922	0.159885	-423.006679	-422.998577	-422.997633	-423.039312	31.293	
C	-0.6182813113	 1.0753490539	 0.4562067121	-0.240827
O	-0.3126595523	-0.3031949443	 0.5864214861	-0.238403
C	 0.9967234127	-0.5506496729	 1.0542913466	 0.153882
O	 1.1877324877	-0.0767780041	 2.3748637813	-0.264539
C	 0.7684762319	-0.8895067329	 3.4342936921	 0.122024
C	-0.512347688	-1.6582082634	 3.4371293136	-0.326794
C	 0.8285651859	-2.3940917046	 3.2807105964	-0.124726
C	 1.2213786327	-2.8549039807	 1.9355993592	-0.048548
C	 1.2854609108	-2.0162421632	 0.900593957	-0.108415
H	 0.0723701037	 1.5716593823	-0.2425148325	 0.104665
H	-1.6328681915	 1.139428083	 0.0572517059	 0.124869
H	-0.5720997987	 1.594388508	 1.4203428392	 0.124931
H	 1.7044174094	 0.0502847078	 0.4623845603	 0.078446
H	 1.1081080989	-0.4492939168	 4.3650972627	 0.10329
H	-1.034208724	-1.7613710749	 4.3828165416	 0.109595
H	-1.1380229833	-1.6098949904	 2.5549532329	 0.145818
H	 1.1678844733	-2.9903025088	 4.1208977575	 0.088979
H	 1.4693012289	-3.9048953262	 1.8075024948	 0.096108
H	 1.5567288033	-2.3530542218	-0.0935103266	 0.099646
