25
gdb 116291	2.13424	1.24313	0.89657	1.0063	89.08	-0.2453	0.0769	0.3221	1448.3547	0.229187	-389.505157	-389.494737	-389.493793	-389.541788	37.942	
C	-0.0728738311	 1.7370517879	-0.1823802409	-0.386476
C	-0.2798630832	 0.2212373061	-0.2655041399	-0.188724
C	 0.7124662783	-0.4831785971	-1.1941760701	 0.02668
C	 2.1957075442	-0.4180799007	-0.7728837019	-0.203892
C	 2.8934474081	-1.5570897191	-1.5629288177	-0.203909
C	 1.7514380566	-2.4739713571	-2.0860254515	-0.233679
C	 0.4783049381	-1.994257774	-1.3636400772	 0.116631
O	 0.3585635548	-2.5614251856	-0.0630137379	-0.250489
C	-0.1515940262	-3.8712933039	-0.0443752563	-0.231689
H	 0.9107106657	 1.9872179802	 0.2282943331	 0.116988
H	-0.1461574491	 2.2044738291	-1.171415523	 0.107814
H	-0.826534125	 2.2029478381	 0.4604083809	 0.108488
H	-0.2059118372	-0.2240752922	 0.7317143398	 0.110497
H	-1.3002426315	 0.0158857589	-0.615858966	 0.084375
H	 0.6206885099	-0.0466532825	-2.2001709533	 0.062837
H	 2.6468549356	 0.558562326	-0.966098461	 0.0905
H	 2.2682714754	-0.6035538396	 0.3040079427	 0.107182
H	 3.4796682011	-1.1602781057	-2.3969424356	 0.095148
H	 3.5910518524	-2.1071556483	-0.9263184639	 0.100875
H	 1.6186162789	-2.3521411241	-3.1665372126	 0.095404
H	 1.9442817205	-3.5357200565	-1.9111790291	 0.097651
H	-0.4361627487	-2.2117486742	-1.9375658851	 0.049419
H	-1.1473968702	-3.9258508463	-0.5129396352	 0.101529
H	 0.5043034145	-4.5912133401	-0.5570848313	 0.102915
H	-0.239278792	-4.170685479	 1.0034049729	 0.123925
