19
gdb 65141	3.01166	1.38571	1.25403	0.8136	74.31	-0.2336	0.0732	0.3068	1076.8042	0.158192	-422.949937	-422.941504	-422.940559	-422.983427	32.352	
O	-0.0136156651	 1.3914600675	 0.5359866566	-0.475769
C	 0.0226539258	 0.0703961503	 0.0424201426	 0.393989
C	 1.0911569837	-0.3214996706	-0.9445732895	-0.333123
C	 1.1344817135	-0.8510800302	 0.4784667224	-0.333173
C	-1.3779474355	-0.4536178847	-0.0229977719	-0.063158
C	-2.4706642571	 0.0727707828	-0.934291485	-0.148805
C	-1.9368702978	 0.2420191654	-2.353445454	-0.092559
O	-1.4423167425	-1.1279846534	-2.3765876696	-0.278793
C	-1.9752333791	-1.3511032431	-1.0702164385	 0.060623
H	 0.8892634826	 1.681110923	 0.7004776191	 0.277905
H	 0.8315483689	-0.9974209596	-1.7481905739	 0.146044
H	 1.8101899654	 0.4479287962	-1.2111309864	 0.100385
H	 1.8864407754	-0.4495394439	 1.1517611649	 0.101635
H	 0.9053013082	-1.8984961074	 0.6451330208	 0.116242
H	-1.7874493874	-0.6766153785	 0.9621291219	 0.097728
H	-3.4043090257	 0.4688634468	-0.5599233373	 0.099495
H	-2.7225615992	 0.3678134712	-3.1055659699	 0.110043
H	-1.1411830426	 0.9770720783	-2.5115392761	 0.118212
H	-2.4231585213	-2.31936451	-0.8752641563	 0.103078
