22
gdb 114533	3.58921	1.18396	1.06552	0.301	81.82	-0.2082	0.084	0.2922	1238.9248	0.196269	-404.313803	-404.305587	-404.304642	-404.346583	32.631	
C	 0.0963577854	 1.5039462655	 0.1728883649	-0.384788
C	-0.0016681638	-0.0225897884	 0.116008475	-0.192317
C	-1.4297583303	-0.5338823166	-0.04045249	 0.14706
C	-1.5046932111	-2.079350882	-0.2052397234	-0.208966
N	-2.7396597372	-2.6678464667	 0.3509014616	-0.124488
C	-3.8471285566	-1.6506335636	 0.1806090394	-0.207702
C	-3.2888867822	-0.9170330511	 1.4215062419	 0.122097
C	-2.7669352534	-2.3110455067	 1.8209117589	-0.183237
O	-2.192623052	-0.0792766639	 1.0891034194	-0.291116
H	 1.1329058683	 1.8273391608	 0.3078410015	 0.10893
H	-0.2776792759	 1.9582198513	-0.7515178557	 0.110505
H	-0.4973055806	 1.8955375842	 1.0025853843	 0.136522
H	 0.5912060063	-0.4080102313	-0.7239920207	 0.095037
H	 0.4209956393	-0.4611818267	 1.028669078	 0.099145
H	-1.8638739511	-0.0706546195	-0.9406156871	 0.06987
H	-1.4405398011	-2.3245347851	-1.2718576857	 0.103323
H	-0.6561782036	-2.5645876312	 0.2908564993	 0.104637
H	-3.8810887218	-1.1308426475	-0.7794947906	 0.108733
H	-4.8138871327	-2.1240427091	 0.3720568677	 0.108163
H	-3.9417200404	-0.3423701202	 2.0844115594	 0.073625
H	-3.5020851734	-2.933226047	 2.340753922	 0.102755
H	-1.8030368519	-2.3551330851	 2.3347156597	 0.102212
