15
gdb 20993	3.52507	2.11735	1.34412	5.1772	63.55	-0.2019	0.046	0.2479	874.8586	0.121142	-392.178125	-392.170211	-392.169267	-392.210016	28.777	
C	-0.0955898315	 1.4920596352	 0.0105820642	-0.357693
N	 0.009758253	 0.0489191604	 0.002219226	-0.077407
C	-0.0232189856	-0.7975384892	-1.0821280616	 0.373519
N	-0.0967445425	-0.311821759	-2.3875970434	-0.604476
N	-0.070119103	-2.0450836109	-0.7063662796	-0.291223
N	-0.0618547952	-2.052562898	 0.6892144266	-0.291217
C	-0.0103446045	-0.8091196198	 1.0777471073	 0.373505
N	-0.0682566799	-0.3374268645	 2.3891336535	-0.604477
H	 0.8871539291	 1.9786477569	 0.0072214795	 0.130787
H	-0.6483049513	 1.8106176205	-0.8763505976	 0.160164
H	-0.6374723376	 1.8010563978	 0.9075242927	 0.160166
H	 0.7254620152	 0.2152074882	-2.6647654365	 0.249247
H	-0.2137745125	-1.0951744263	-3.0205343794	 0.264928
H	-0.1779021964	-1.1275200921	 3.0149760515	 0.264927
H	 0.7572941924	 0.1865361507	 2.6621474768	 0.249249
