22
gdb 88474	2.75452	1.20508	1.12954	0.7364	81.56	-0.2258	0.0676	0.2934	1222.993	0.193339	-404.287321	-404.277899	-404.276955	-404.321444	35.427	
C	 2.1847134093	-2.1941740633	 0.9512589547	-0.323262
N	 1.343091956	-1.2123304413	 0.2819979984	-0.091766
C	-0.0616025421	-1.1504614231	 0.6767882344	-0.272768
C	 0.8656205757	-0.0305185769	 1.0049980124	-0.048378
C	 1.2743102265	 0.3823999805	 2.4075147127	 0.263346
C	 2.703443134	 0.9354685779	 2.4166722215	-0.448526
C	 0.2749892235	 1.3507953278	 3.0993375901	-0.110326
O	 0.26299758	 0.5533403036	 4.298701568	-0.275481
C	 0.9764561542	-0.5112216757	 3.6436243963	-0.125013
H	 1.9625688466	-2.3530077339	 2.0176312775	 0.108443
H	 2.0663439163	-3.1556184731	 0.4411225269	 0.12538
H	 3.2341428056	-1.8961383619	 0.8605198582	 0.125646
H	-0.7822507875	-1.0531533955	-0.1318143382	 0.114075
H	-0.3889027432	-1.795583046	 1.4901049269	 0.10914
H	 0.8184845846	 0.8426773285	 0.3505489791	 0.090072
H	 2.8101692266	 1.7465442143	 1.6879977438	 0.118436
H	 2.9568990363	 1.3321569777	 3.4049767493	 0.125284
H	 3.4334931656	 0.1607323198	 2.1637485506	 0.122471
H	 0.631326275	 2.3715582653	 3.2828518874	 0.099552
H	-0.7154873767	 1.3921175396	 2.6258460572	 0.096499
H	 0.3257019729	-1.3751857367	 3.4640248768	 0.096213
H	 1.851377271	-0.8405544974	 4.2175706362	 0.100963
