19
gdb 53471	6.04324	0.63705	0.60788	2.2735	86.76	-0.2375	-0.0099	0.2276	1880.1352	0.156504	-385.876628	-385.866334	-385.865389	-385.914815	35.247	
C	 0.1332900339	 1.5174472051	 0.005727212	-0.497948
C	 0.0520893955	 0.0644266827	-0.0060875379	 0.123188
C	-0.0212512859	-1.1361160069	-0.0155533867	 0.054948
C	-0.1161890963	-2.5848596724	-0.0266871194	-0.502646
C	-1.5458728018	-3.1469080669	 0.0357323701	 0.39232
O	-2.5276405534	-2.4434161714	 0.0901861501	-0.313551
C	-1.6321346746	-4.6368130555	 0.0239925102	-0.106174
C	-2.7655151325	-5.2737539708	 0.8162789571	-0.248485
C	-2.8361287153	-5.2578712502	-0.6708004575	-0.248469
H	 1.173486562	 1.8598041644	-0.0318367801	 0.144853
H	-0.3899180767	 1.950948407	-0.8536479884	 0.149542
H	-0.320119671	 1.9326234873	 0.912500369	 0.149631
H	 0.3569994198	-3.005970078	-0.9262392061	 0.147911
H	 0.4405430784	-3.0248444029	 0.8140721449	 0.147899
H	-0.6931891633	-5.1771618591	-0.0263868403	 0.088128
H	-2.5489458859	-6.2066029909	 1.3238123341	 0.118595
H	-3.4033565418	-4.5816904831	 1.353860559	 0.140831
H	-3.5213302115	-4.555143155	-1.1306479075	 0.140825
H	-2.6695620996	-6.1794555736	-1.2163617326	 0.118599
