16
gdb 124256	4.37805	1.03142	0.84	2.2844	76.13	-0.214	-0.0498	0.1642	1315.9936	0.12503	-434.111018	-434.102306	-434.101361	-434.144587	31.862	
C	-0.0208159319	 1.5040885186	-0.0902493275	-0.512475
C	-0.0346330607	-0.0114144378	 0.0428590394	 0.320617
O	-0.0506207188	-0.559091515	 1.1265667937	-0.306819
C	-0.0280832974	-0.8024730773	-1.1991020543	 0.310004
C	-0.0540579084	-2.1787170929	-1.3681236412	-0.365276
C	-0.0338705248	-2.3723621628	-2.7647983037	 0.387748
N	-0.1147722811	-3.5716373477	-3.4639847131	-0.591081
N	 0.0067919661	-1.2065385154	-3.4218678159	-0.292634
N	 0.0003532326	-0.2724331006	-2.4523032794	-0.282717
H	 0.8742877146	 1.8399833694	-0.6266009708	 0.138537
H	-0.8957916289	 1.8540320396	-0.6500254859	 0.140163
H	-0.0298991271	 1.9476416249	 0.9054139463	 0.15183
H	-0.0917748747	-2.9128925875	-0.5809938386	 0.124851
H	 0.378584161	-4.3345094532	-3.0224408993	 0.250605
H	 0.1634780272	-3.4690330508	-4.4309310192	 0.253028
H	 0.0273850223	 0.6970149283	-2.7160434606	 0.273619
