18
gdb 32776	3.05884	0.99645	0.79604	1.6115	75.61	-0.1832	0.0448	0.228	1412.8653	0.147642	-439.110389	-439.100924	-439.09998	-439.145625	34.274	
O	 0.1066908457	 1.4646169895	-0.2565545299	-0.415868
C	 0.083189378	 0.0502952812	-0.156653228	-0.051135
C	-1.3394989279	-0.5079872919	 0.0337652402	-0.340833
C	-1.3959233661	-1.9976626978	 0.0848024024	 0.208503
C	-1.4111577893	-2.8572577618	 1.1632708041	 0.251602
O	-1.3950787189	-2.4217907952	 2.4620823935	-0.456005
C	-1.4329661177	-4.1952900677	 0.6835066599	-0.278712
C	-1.4265831434	-4.1211013538	-0.6928394305	-0.077939
N	-1.3956589464	-2.8012338331	-1.0427272201	-0.297424
H	-0.1826808734	 1.8218505136	 0.5891587539	 0.282182
H	 0.507591982	-0.3209360904	-1.0959924387	 0.102609
H	 0.729246715	-0.3140320457	 0.6558971929	 0.100651
H	-1.7473602389	-0.1198597436	 0.9749905412	 0.113806
H	-1.974027432	-0.1136737165	-0.7706830724	 0.101921
H	-1.5372492964	-3.1783212127	 3.0373349297	 0.294852
H	-1.4501785613	-5.0985743054	 1.2750860039	 0.086326
H	-1.4450811224	-4.8984679318	-1.4391481553	 0.11682
H	-1.4135924366	-2.4530165366	-1.9849286868	 0.258646
