18
gdb 30307	2.89117	1.63267	1.10147	1.9386	77.57	-0.2237	0.0071	0.2308	1093.9457	0.150527	-401.990311	-401.982834	-401.98189	-402.022409	28.776	
C	-0.0096008252	 1.610096913	-0.0054626718	-0.396631
C	 0.0028460671	 0.079688916	 0.0759845593	-0.125906
C	 0.7067345023	-0.6135646302	-1.1555697177	-0.210524
C	 1.5716144186	-1.8237535588	-0.6456810762	-0.352271
C	 1.6564385679	-1.5130644599	 0.815684872	 0.230245
C	 0.8271356724	-0.5141287737	 1.1648316124	 0.319583
O	 0.9073592611	-0.3257075684	 2.5116364444	-0.204594
C	 1.8271295624	-1.2639179467	 2.8951361936	 0.032452
N	 2.3048366016	-2.0014079468	 1.94135769	-0.339091
H	 1.0093330511	 2.0043567702	-0.078015875	 0.120166
H	-0.5685638301	 1.9448746477	-0.8852250602	 0.117003
H	-0.4805580771	 2.0489962206	 0.8795208769	 0.124426
H	-1.0373838143	-0.2683704801	 0.1545977385	 0.090531
H	-0.0217644301	-0.9186720626	-1.9104853563	 0.105197
H	 1.3672504542	 0.1220398537	-1.6253873473	 0.111942
H	 1.0736320526	-2.784050976	-0.8276935969	 0.115519
H	 2.5415272417	-1.8697190275	-1.150528023	 0.116923
H	 2.0675442339	-1.2904376105	 3.9464332872	 0.14503
