16
gdb 10513	3.53002	1.34142	1.1138	2.425	61.24	-0.2572	-0.0322	0.225	1057.7545	0.127925	-420.85682	-420.848377	-420.847432	-420.890545	29.797	
O	 0.7868935624	-1.6524191357	-0.1832680583	-0.412577
C	-0.0958896168	-0.8202769862	-0.8959074385	-0.129563
C	-1.4472290049	-0.6914523982	-0.2021673094	 0.348215
C	-2.4029511001	 0.3294166923	-0.7921985092	-0.354088
C	-1.8979909978	 1.7533755691	-0.6315532067	 0.157708
O	-1.8821302332	 2.5736822067	-1.5118288062	-0.23749
C	-1.9464952759	-1.8089687502	 0.6066030485	-0.226284
O	-1.3380111731	-0.6643162403	 1.2335183155	-0.285141
H	 0.7424206626	-1.3578736098	 0.736162733	 0.294135
H	 0.3253893068	 0.1895067385	-1.0411473137	 0.104964
H	-0.2317945202	-1.258526429	-1.8910416705	 0.12414
H	-2.5884270732	 0.1375323728	-1.8535333559	 0.129022
H	-3.3595230778	 0.2646416962	-0.2579519439	 0.132764
H	-1.5482846917	 1.996987898	 0.3959539607	 0.098318
H	-3.0160783484	-1.913170316	 0.7787607319	 0.119383
H	-1.3604775088	-2.722207168	 0.6630087127	 0.136493
