17
gdb 42815	3.1623	1.52103	1.35318	2.58	72.73	-0.219	-0.0187	0.2003	992.5165	0.135975	-421.793315	-421.786141	-421.785197	-421.824821	28.846	
O	-0.0023542471	-0.0083280264	 0.0296976678	-0.310813
C	-0.0125371477	 1.180742403	-0.0328550917	 0.440271
C	-1.0454732417	 2.3377709628	 0.0142926468	-0.024338
C	-0.0314761183	 2.9872145676	 0.9998762463	-0.261165
C	 1.0245897277	 2.3360269399	 0.0347682398	-0.2696
C	 0.6563646922	 3.0432222018	-1.2600170937	 0.498965
C	 1.3343201843	 4.2347702512	-1.8502415929	-0.352181
C	 1.3408363728	 2.8917822939	-2.5762594215	-0.349014
O	-0.7847603434	 3.0222496704	-1.2212585306	-0.318561
H	-2.113293977	 2.2353136365	 0.1857910252	 0.103997
H	-0.0471367277	 4.0777077826	 1.0305864516	 0.124383
H	-0.0404849738	 2.5492681809	 1.9994772097	 0.122596
H	 2.0746482644	 2.1958940315	 0.2762070815	 0.097986
H	 0.6929578343	 5.0118235417	-2.2518222266	 0.128421
H	 2.257347562	 4.5883128721	-1.4023562385	 0.116544
H	 2.2680119685	 2.3300456184	-2.6217070011	 0.121201
H	 0.7062962704	 2.7965157923	-3.4501941822	 0.131308
