19
gdb 85755	3.2394	1.1872	1.01024	1.3348	80.66	-0.2513	0.0525	0.3038	1209.5297	0.159463	-385.851602	-385.843149	-385.842205	-385.884497	33.242	
O	-0.0572087343	 1.4455565984	 0.01948583	-0.436866
C	-0.0037209249	 0.0261578954	 0.0003807267	 0.120174
C	 0.6777950262	-0.5831178419	 1.2483990426	-0.287521
C	 0.0053874419	-1.9690344459	 1.4486452914	-0.181023
C	 0.0580393006	-2.4585800945	 2.821395565	 0.32345
C	 0.1003137479	-2.8552431637	 3.9557292419	-0.45681
C	-1.4102587335	-1.7780902686	 0.8860567994	-0.037886
C	-2.1637340813	-0.542538664	 1.2968536614	-0.28123
C	-1.4027231443	-0.5583720846	-0.0060116642	-0.04348
H	 0.843279448	 1.7785780106	-0.0487173359	 0.280913
H	 0.5162569681	-0.3164407155	-0.9090713301	 0.064768
H	 1.7629337578	-0.6663845423	 1.1467122226	 0.101393
H	 0.4788691676	 0.0635883105	 2.1067206691	 0.125248
H	 0.5162203689	-2.6992998976	 0.8063774127	 0.103622
H	 0.134424877	-3.208515502	 4.9563404834	 0.191813
H	-1.9694455559	-2.6696073515	 0.6270729272	 0.090219
H	-3.2448510962	-0.585697822	 1.2289636781	 0.112439
H	-1.8002629474	 0.0620098774	 2.1201002945	 0.124691
H	-1.9591248363	-0.5333433183	-0.9357802158	 0.086086
