17
gdb 67128	2.50343	1.89087	1.64969	3.2107	71.91	-0.2203	-0.0291	0.1912	907.1082	0.137469	-417.913762	-417.906615	-417.905671	-417.944809	29.206	
N	-0.2237308274	 1.4762963247	-0.0737986904	-0.615536
C	-0.0458392439	 0.0737477142	-0.0475562521	 0.17416
C	-1.0894190578	-0.9705023494	-0.3374863519	-0.087408
C	-0.8780233851	-1.7791796072	-1.6387947663	-0.231847
C	 0.4179069214	-1.2673262842	-2.3614516447	-0.173854
N	 1.4737916429	-1.5014749629	-1.3597135357	-0.211157
C	 1.1571414668	-0.8772931209	-0.3144775337	 0.222492
O	 1.0809701111	-1.4935257059	 0.9418102465	-0.265677
C	-0.2674593349	-0.9364536655	 1.0097012479	 0.038943
H	 0.5402310089	 1.962021438	 0.3847028656	 0.242772
H	-0.2959140118	 1.8308320392	-1.0216454191	 0.239409
H	-2.1115410951	-0.6436805058	-0.1504315375	 0.10309
H	-0.7627266629	-2.849519541	-1.4448955087	 0.129992
H	-1.7564977273	-1.6559502811	-2.2835529627	 0.10101
H	 0.6365590896	-1.8444387418	-3.2619083773	 0.113155
H	 0.2873079224	-0.215769637	-2.6544111464	 0.096482
H	-0.7276956769	-0.8977120336	 1.9883685163	 0.123973
