19
gdb 94014	3.1721	1.08103	1.01859	3.0557	79.23	-0.2389	-0.0299	0.209	1258.7029	0.158738	-423.043425	-423.034723	-423.033779	-423.077225	32.338	
C	 0.0882284634	 1.5392168133	-0.0417138103	-0.397949
C	 0.0293396053	 0.0151071622	 0.0227098962	 0.094156
O	 0.5989549567	-0.4705995845	-1.1867593062	-0.262409
C	 0.8677856773	-1.8595819694	-1.1691533097	-0.116693
C	 1.9572942372	-2.199065259	-0.1384490725	-0.124282
C	 3.3214323217	-1.6974045699	-0.5991364771	 0.157278
O	 4.3458772138	-2.3229863712	-0.5114647129	-0.252528
C	 1.6096134223	-1.5328844297	 1.1735984821	-0.11236
C	 0.7272876628	-0.53777137	 1.238689716	-0.055369
H	 1.1276925508	 1.8784822439	-0.0611194313	 0.128575
H	-0.4119503435	 1.8929097197	-0.9469029415	 0.129259
H	-0.4086742638	 1.9797414779	 0.8276232783	 0.117073
H	-1.0329446301	-0.2923687899	 0.0645641642	 0.080658
H	-0.0415220503	-2.4343369499	-0.9326070196	 0.10137
H	 1.1786741243	-2.1223374163	-2.1850064261	 0.115832
H	 2.0381407088	-3.2832991637	-0.0040427845	 0.097301
H	 3.2963697223	-0.6671864798	-1.0174112956	 0.09109
H	 2.1166653797	-1.8927491724	 2.0638194137	 0.108784
H	 0.4600468812	-0.0907721213	 2.1927785468	 0.100214
