13
gdb 62352	4.19911	1.14452	1.10168	1.1305	64.01	-0.2918	-0.0357	0.256	1068.3903	0.088897	-452.733858	-452.726186	-452.725242	-452.766104	28.355	
N	-0.1796510359	 1.4260618237	 0.0455995575	-0.543985
C	-0.0682890456	 0.0018453929	 0.0385712212	 0.112377
C	 1.0481257645	-0.5933533092	-0.6781992278	 0.241836
N	 1.9576018999	-1.0224553029	-1.2504083126	-0.321374
C	-0.5270406805	-0.8155453075	 1.2293375897	 0.077548
O	-1.5476677129	-0.1045200514	 1.9486799592	-0.247696
C	-2.3848556397	-0.1611275224	 0.8365223937	 0.485674
O	-3.5094278593	 0.1919927507	 0.7517330953	-0.303939
C	-1.3480521658	-0.8640818408	-0.02485265	-0.323308
H	 0.6320378268	 1.8607748769	 0.4716703536	 0.255685
H	-0.2842171313	 1.7911667977	-0.8949703155	 0.256487
H	 0.0556310472	-1.555801037	 1.757984708	 0.156024
H	-1.5093713773	-1.6240605308	-0.7745946523	 0.154674
