18
gdb 88747	3.43462	0.91295	0.78801	3.5229	74.39	-0.2433	-0.022	0.2213	1429.1409	0.146172	-439.040697	-439.031677	-439.030733	-439.075523	32.991	
O	-0.2485015367	 1.4641322388	 0.4506184168	-0.416729
C	-0.0712262526	 0.1105963575	 0.1453532584	 0.08906
C	-0.6421322658	-0.9328169561	 1.068911967	-0.334397
C	-1.3016100541	-0.6510565271	-0.2700657049	-0.024829
C	-2.6194919031	 0.0540905593	-0.3178337533	-0.018695
N	-3.3477720103	 0.0238531387	-1.5780721592	-0.342127
C	-3.9481771728	-0.6540465072	-0.4078483398	-0.13665
C	-4.0372003253	-2.135761078	-0.4975416421	 0.182581
O	-4.8107434241	-2.8014026147	 0.1451325136	-0.263968
H	 0.3084646475	 1.6741206065	 1.2072222378	 0.292339
H	 0.8562028406	-0.1200652348	-0.377702372	 0.093815
H	-0.1147892282	-1.8703376784	 1.2056616934	 0.11937
H	-1.1576085186	-0.5664068517	 1.9511695846	 0.119415
H	-1.1619764462	-1.3882586897	-1.052928601	 0.104133
H	-2.6435329715	 0.9747470824	 0.2597453787	 0.110335
H	-3.8248203255	 0.9032563344	-1.75498062	 0.24482
H	-4.7841357894	-0.1903405587	 0.110531938	 0.101576
H	-3.3254936938	-2.5927452413	-1.219322776	 0.079951
