19
gdb 75423	2.75594	1.31276	1.00173	4.3469	78.19	-0.2548	-0.0032	0.2516	1220.4451	0.159584	-423.065812	-423.057171	-423.056226	-423.099489	32.368	
C	 0.0739697842	 1.5248240642	-0.0655819801	-0.486753
C	-0.017947721	 0.0282386637	 0.0227726241	 0.31465
C	-1.1638319711	-0.655123062	 0.0534752537	-0.148656
C	-1.179228079	-2.1605037411	 0.0823110992	-0.288521
C	-0.5861411859	-2.7829095091	-1.1946738473	-0.302657
C	 0.8451822623	-2.4802143794	-1.6557147468	 0.382207
O	 1.3201328623	-3.1213155083	-2.5548675129	-0.313373
O	 1.5892710831	-1.4713692058	-1.1413323588	-0.221217
C	 1.2744298357	-0.7521028084	 0.0701020184	-0.168485
H	 0.622809382	 1.9421366039	 0.7884265565	 0.127938
H	 0.6191262686	 1.8314483845	-0.9672317934	 0.138239
H	-0.9161262632	 1.9872640107	-0.0907548863	 0.125578
H	-2.1146997551	-0.1299620024	 0.0070411124	 0.091561
H	-0.6360710047	-2.5335862982	 0.9609763993	 0.11641
H	-2.2042405941	-2.528531602	 0.1859571251	 0.108985
H	-0.6406387357	-3.8748770048	-1.149129596	 0.137591
H	-1.2065516562	-2.4935196965	-2.0517594931	 0.144488
H	 2.1303980934	-0.0859814809	 0.1953353694	 0.122252
H	 1.2791645143	-1.4556441383	 0.9112381264	 0.119762
