19
gdb 38639	2.86975	2.07731	1.76077	1.3424	77.13	-0.235	0.0164	0.2514	862.2828	0.164618	-385.916102	-385.910146	-385.909201	-385.946003	26.344	
C	-0.0405873414	 1.5684313716	-0.039027786	-0.225648
C	 1.4750034817	 1.8818151812	 0.0267317676	 0.071023
C	 2.0683462725	 1.514690572	 1.4097397185	-0.225648
C	 1.9460717196	-0.047783276	 1.3881129438	-0.075466
C	 0.7570706437	-0.5716583283	 2.1591981414	-0.085447
C	-0.3423951365	-0.5436415083	 1.4039018443	-0.085447
C	-0.0306917221	 0.0025920552	 0.0301430106	-0.075466
C	 1.5085462379	-0.2470735108	-0.101065343	 0.082815
O	 2.0274048143	 0.8605524923	-0.8152687898	-0.256933
H	-0.6138780631	 2.0251987843	 0.7711425743	 0.097953
H	-0.4440510177	 1.919277289	-0.9927041192	 0.102179
H	 1.7612141573	 2.8633664841	-0.3534876133	 0.072745
H	 3.1147915449	 1.8285880428	 1.4521063785	 0.102179
H	 1.533584785	 1.970472473	 2.2463804081	 0.097953
H	 2.8916713011	-0.5308176599	 1.6423118389	 0.069353
H	 0.809627398	-0.8791136462	 3.1974753636	 0.093252
H	-1.340589304	-0.8243211493	 1.7203472829	 0.093252
H	-0.6232633131	-0.4412489153	-0.7723296978	 0.069353
H	 1.807969582	-1.1827472513	-0.5716398334	 0.077997
