19
gdb 91431	2.93983	1.51137	1.20536	2.6968	75.4	-0.2365	-0.0013	0.2351	1063.8053	0.161025	-423.005321	-422.997718	-422.996774	-423.037118	30.674	
O	-0.2761800303	 1.4702343823	-0.3878349783	-0.436334
C	-0.0264232153	 0.0986069118	-0.0848958096	 0.05843
C	-1.414675059	-0.5131396967	 0.1790991018	-0.1942
C	-1.4875824909	-2.0374231749	 0.2351324246	 0.087003
C	-0.2027564927	-2.7868815031	 0.6543614962	-0.279956
C	 0.0202293063	-2.904745935	-0.8726367007	 0.056795
O	-1.3881854979	-2.6034640844	-1.0978280949	-0.286356
C	 0.9030667192	-1.8420879289	-1.4757880099	-0.063018
C	 0.8280512114	-0.5487731916	-1.1593927611	-0.075478
H	 0.5682555989	 1.9312788264	-0.4119990969	 0.281049
H	 0.5488790847	 0.0386793877	 0.8568783789	 0.08051
H	-1.7921838651	-0.0831984425	 1.1138749844	 0.100067
H	-2.0845164048	-0.1816284501	-0.6212885513	 0.128762
H	-2.4162066732	-2.3498899955	 0.7246188324	 0.077912
H	 0.5473128266	-2.2583619252	 1.2441446572	 0.105931
H	-0.4200218387	-3.7526891396	 1.1134511243	 0.109259
H	 0.2751408505	-3.896729636	-1.2561215274	 0.074231
H	 1.6103337045	-2.1577383734	-2.2381794762	 0.090298
H	 1.4830123357	 0.1525619689	-1.6753074936	 0.085096
