23
gdb 75540	2.09514	1.67343	1.20409	1.0616	88.14	-0.2333	0.029	0.2624	1177.4182	0.204957	-388.314224	-388.304588	-388.303644	-388.347932	37.556	
C	 0.0964193067	 1.532720954	-0.0087410696	-0.489091
C	 0.0245622575	 0.0264247521	-0.0242349681	 0.30416
C	-0.0913660091	-0.6470714446	-1.1713885413	-0.176902
C	-0.1233565232	-2.1469286045	-1.2520774745	-0.258106
C	 0.4168608711	-2.7303649738	 0.050184231	-0.08692
O	-0.1913993117	-2.1071745708	 1.1653392071	-0.289736
C	 0.0771612757	-0.705851328	 1.3161684347	 0.278911
C	 1.4480605453	-0.5252374614	 2.0015557915	-0.414763
C	-1.0433978436	-0.2227825634	 2.2497165373	-0.413202
H	 1.0145627833	 1.8954769141	 0.4684388237	 0.124078
H	 0.0741469506	 1.9285769197	-1.0276019712	 0.119717
H	-0.7399557122	 1.9789574357	 0.5415626976	 0.126468
H	-0.1586553416	-0.0930657919	-2.1056637272	 0.076564
H	-1.1480676916	-2.5019963824	-1.4301881361	 0.111487
H	 0.4773131752	-2.4994925051	-2.100463633	 0.098292
H	 0.1911244413	-3.7969012298	 0.1430279586	 0.10067
H	 1.5118541283	-2.6181336328	 0.0799576753	 0.08737
H	 2.2604879538	-0.8958860865	 1.3703399575	 0.1157
H	 1.6503002239	 0.5268033885	 2.2207193784	 0.113486
H	 1.4583808481	-1.0807272668	 2.9437113466	 0.119208
H	-1.0557496468	-0.8496180607	 3.1455968046	 0.1217
H	-0.8943135086	 0.8154851472	 2.5561565628	 0.111161
H	-2.0144169527	-0.310946969	 1.7552263641	 0.119749
