19
gdb 38402	4.16008	1.25858	1.24451	1.2351	78.19	-0.2286	0.0687	0.2972	1074.5302	0.161027	-381.967109	-381.959979	-381.959035	-381.998576	28.985	
C	 0.0803157602	 1.4410846561	-0.0477776923	-0.241796
C	 1.321996627	 0.6454423265	 0.0435123691	-0.114449
N	-0.0473352674	-0.0178898746	 0.0984112836	-0.123931
C	 0.231503806	-0.5776582326	-1.2717649669	-0.246587
C	 1.6680920859	 0.0042530673	-1.2938714329	 0.358554
C	 2.2584221713	 0.7182416685	-2.5366854311	-0.251127
N	 3.3328564646	-0.3249872943	-2.708630989	-0.12592
C	 4.1258820203	-0.2664336182	-1.4692793168	-0.24461
C	 2.8287884064	-0.9721043073	-1.4273932039	-0.108069
H	-0.2326616567	 1.9855062779	 0.8378609299	 0.12342
H	-0.2028215678	 1.9064083155	-0.9907154748	 0.110449
H	 1.9756880569	 0.6780337179	 0.9102639872	 0.095307
H	 0.2047989971	-1.6697604482	-1.2450103444	 0.117496
H	-0.4612714644	-0.2206911714	-2.0427544743	 0.103149
H	 1.5873423179	 0.7093177437	-3.3989774214	 0.112746
H	 2.6470934845	 1.7329553452	-2.3933549861	 0.103168
H	 5.0249891903	-0.8734788004	-1.5108402216	 0.123977
H	 4.2461518139	 0.6898043162	-0.9623923707	 0.110862
H	 2.753603114	-2.0507111779	-1.3211710234	 0.097362
