11
gdb 132689	3.17618	1.40881	0.97593	2.4942	57.17	-0.2487	-0.0599	0.1888	1037.9836	0.065524	-537.989197	-537.982572	-537.981628	-538.020472	25.012	
O	 0.0927257773	 1.3491263886	 0.1001225205	-0.403859
C	 0.0715500085	 0.0071083267	 0.0308524621	 0.295235
N	 0.0947299588	-0.6018371622	-1.1374199234	-0.311051
C	 0.0722485984	-1.9416900542	-1.1552679574	-0.157947
C	 0.0259693817	-2.6446017713	 0.0356033911	 0.302116
F	 0.0031674205	-3.9697795229	 0.0306457394	-0.060544
N	 0.001993259	-2.052027175	 1.2193356772	-0.335333
C	 0.0242815679	-0.7475764058	 1.2206069001	 0.261312
F	 0.0017417302	-0.1217836992	 2.3835903076	-0.039478
H	 0.1246230949	 1.6723353211	-0.8109803005	 0.308842
H	 0.0910854228	-2.4465695557	-2.1139560467	 0.140708
