17
gdb 62379	2.68256	1.81132	1.36584	1.0756	78.59	-0.2292	0.0084	0.2376	966.9394	0.135128	-384.613205	-384.605424	-384.60448	-384.644871	31.637	
O	 0.0061803074	 1.3549684098	-0.0938553835	-0.49121
C	 0.0268146031	-0.0564359816	-0.025780351	 0.307248
C	 0.9875069477	-0.586892774	-0.9880119776	 0.2615
C	 1.8293950831	-0.9177982922	-1.7811535049	-0.455073
C	 0.0234455376	-0.6528999322	 1.4601901648	-0.133685
C	-1.4582955302	-0.154580282	 1.5212552983	-0.240257
C	-1.4481218342	-0.6309537108	 0.0295792998	-0.108621
C	-1.1437683121	-2.1172914336	 0.2079008577	-0.088598
C	-0.1836945395	-2.1301353076	 1.1405872585	-0.086752
H	 0.9050324861	 1.6533355031	-0.2664354896	 0.28587
H	 2.5583933879	-1.235583087	-2.48514799	 0.194037
H	 0.7814085423	-0.3574279765	 2.1849644058	 0.064674
H	-2.1228454417	-0.695844649	 2.1967108932	 0.093952
H	-1.5537549324	 0.9251264387	 1.636530707	 0.118436
H	-2.1889330644	-0.3125198073	-0.7022130189	 0.072636
H	-1.584904834	-2.9316491537	-0.3480316661	 0.103254
H	 0.3745991934	-2.959655094	 1.5498903265	 0.10259
