17
gdb 82652	2.38217	1.74848	1.36098	2.1043	68.	-0.2279	0.0646	0.2926	985.803	0.134879	-458.89173	-458.883528	-458.882583	-458.923791	32.363	
O	-0.0746118878	 1.4976851051	 0.1123519881	-0.443463
C	 0.0072960234	 0.0902129944	 0.0936779438	 0.069524
C	 0.2539675531	-0.6912896852	 1.4287543191	-0.2052
C	-0.8239294567	-0.1380041259	 2.3987242056	-0.223027
C	-1.8477893402	-0.7990107007	 1.4808055819	-0.226405
C	-1.3128225084	-0.6461456703	 0.018823726	 0.328994
O	-2.1407053958	-0.7849262426	-1.07082963	-0.467276
C	-0.8153771572	-1.7498230549	 0.8994668223	 0.320992
O	-0.7709069956	-3.0917018131	 0.6460283772	-0.446851
H	 0.8182096975	 1.8570025858	 0.1063135365	 0.283168
H	 0.6845151121	-0.2688775021	-0.693317092	 0.077761
H	 1.2686941612	-0.9080269032	 1.7568710649	 0.068217
H	-0.7788682804	-0.6160006532	 3.3817389872	 0.089111
H	-0.8576239594	 0.9498071159	 2.5070829102	 0.102376
H	-2.9074065739	-0.9726288722	 1.621575598	 0.087822
H	-2.6767100031	 0.0128901969	-1.142232713	 0.291912
H	-0.8364312188	-3.5656508149	 1.4827818643	 0.292344
