15
gdb 67146	2.16259	1.86041	1.49522	2.4427	65.56	-0.2335	0.0008	0.2344	938.0921	0.110989	-457.710934	-457.702962	-457.702018	-457.7432	30.249	
O	-0.2227535006	 1.3722745303	 0.1768091765	-0.445857
C	-0.0526820574	 0.0318761558	 0.0189688645	 0.348492
C	-1.0286510148	-1.0946835723	-0.0443602761	-0.184956
C	-0.3713434653	-1.6963890982	-1.287917761	-0.239119
C	 0.8876212007	-0.8732218705	-0.8909406217	-0.25606
C	 1.3368483905	-1.5174390116	 0.4512096404	 0.36085
O	 2.3810722498	-1.9407680191	 0.8590022981	-0.340072
C	 0.0460203648	-1.0899638418	 1.0885622333	 0.178589
O	-0.2818362697	-0.9505905285	 2.4105113921	-0.453742
H	 0.4225526365	 1.7029004778	 0.813211024	 0.306258
H	-2.0689576208	-1.0876120313	 0.2589570712	 0.105371
H	-0.2494309123	-2.7847362353	-1.3280105981	 0.104948
H	-0.835050245	-1.3366096341	-2.2100215737	 0.116557
H	 1.6280459153	-0.5361205422	-1.6102738066	 0.099145
H	-0.7472778616	-1.740004409	 2.7084099071	 0.299596
