17
gdb 5975	3.65282	1.23027	1.14169	5.056	65.59	-0.2868	0.0181	0.3049	1111.2231	0.139434	-400.998676	-400.989291	-400.988346	-401.032626	33.061	
C	-0.186611471	 1.3681552541	-0.1044375235	-0.236259
O	-0.0805844017	-0.041239297	-0.0901144253	-0.257958
C	 0.7657975306	-0.5534025354	-1.0964438604	-0.092316
C	 0.6323854573	-2.0907654479	-1.0163693287	 0.196614
C	 1.2464774145	-2.644508239	 0.2819721321	-0.416064
O	-0.7374313619	-2.4426912751	-1.1220473812	-0.455347
C	 1.3270014444	-2.6707710623	-2.1835384328	 0.281347
N	 1.9105364261	-3.101408202	-3.0821696634	-0.332331
H	 0.7875005999	 1.8448122295	 0.0759273451	 0.119372
H	-0.5818017813	 1.7322570406	-1.063876326	 0.119998
H	-0.8741336397	 1.648382726	 0.6962398258	 0.138566
H	 0.4426291816	-0.2087896265	-2.0895960918	 0.116941
H	 1.809635875	-0.2436540494	-0.9406389625	 0.111857
H	 0.7808955274	-2.1435798421	 1.1337238766	 0.13652
H	 1.0562898313	-3.717337636	 0.3470891433	 0.144078
H	 2.3260092871	-2.4715374726	 0.3156443461	 0.129254
H	-1.2062554296	-1.7803753447	-0.5957739135	 0.295728
