18
gdb 41415	3.41119	1.9065	1.5592	2.5996	73.78	-0.2106	0.0754	0.286	885.4978	0.15028	-401.868685	-401.862396	-401.861451	-401.898948	26.807	
C	-0.0378124753	 1.4032606084	 0.1137020709	-0.165229
C	 1.496114795	 1.5283434449	-0.0872197054	-0.344965
C	 1.4525288322	 0.0784823047	-0.5577044095	 0.300085
C	 2.3180802188	-1.1102361446	-0.2024830086	-0.131852
O	 1.5563549466	-2.2118439769	-0.7295349551	-0.27339
C	 0.6499729678	-1.6815214346	-1.6761409554	 0.114638
C	-0.3790400871	-0.6454541206	-1.2436573705	-0.070537
C	 0.9064644804	-0.2471443432	-1.9771668763	-0.210976
N	 0.0478492457	-0.1038061747	 0.0499889765	-0.144919
H	-0.4403750355	 1.7593016733	 1.064102664	 0.10969
H	-0.6176664616	 1.8382785425	-0.7078415252	 0.102122
H	 1.8659645333	 2.2735850265	-0.7935612605	 0.107978
H	 2.0304789835	 1.6356962995	 0.8604266077	 0.116065
H	 3.3168945735	-1.0731673328	-0.6639791393	 0.090554
H	 2.4164891368	-1.245531614	 0.8782530753	 0.116254
H	 0.3745065263	-2.3899689295	-2.4477999767	 0.106846
H	-1.4158429238	-0.6538307922	-1.5667130054	 0.088216
H	 1.1534082933	 0.2079685033	-2.9292270365	 0.089421
