18
gdb 126804	2.95875	1.29588	0.98387	1.7254	75.58	-0.1937	0.0345	0.2283	1216.0122	0.148084	-435.278306	-435.268669	-435.267725	-435.313389	34.216	
C	-0.023943151	 1.540754499	-0.0509427153	-0.379904
C	-0.0389487779	 0.0160349749	 0.0752483567	-0.129395
N	-1.3787477508	-0.5401878593	-0.0031198726	 0.006655
N	-2.0635121644	-0.8038269297	 1.1285753309	-0.278982
C	-3.2709011487	-1.1998153067	 0.7207258127	-0.112334
C	-3.3591288573	-1.1964771921	-0.6831420796	 0.156474
O	-4.3777988296	-1.5535522669	-1.5268856803	-0.461179
C	-2.1213960007	-0.7638112737	-1.1248892766	 0.283434
N	-1.6385713577	-0.4976965366	-2.4187277482	-0.620007
H	 0.9997815488	 1.9164889861	 0.0438440596	 0.113703
H	-0.4179062675	 1.8488029602	-1.0227194913	 0.139812
H	-0.6337398298	 1.9927491068	 0.7360839343	 0.135056
H	 0.5741351147	-0.4372916509	-0.7098441871	 0.10979
H	 0.3600529358	-0.3016112286	 1.040791432	 0.13349
H	-4.0211681729	-1.4842888576	 1.4450551919	 0.100083
H	-5.2032647527	-1.5448920165	-1.0342712291	 0.299002
H	-2.4186994087	-0.4626425775	-3.0661064708	 0.256495
H	-1.0011628797	-1.2165287107	-2.7509235472	 0.247806
