17
gdb 28802	3.18295	1.61232	1.09963	2.8359	74.33	-0.1921	0.0557	0.2478	1063.0186	0.140089	-418.062389	-418.055172	-418.054228	-418.094007	28.119	
O	 0.1206983822	 1.3127203347	 0.1984036545	-0.431505
C	 0.1153488785	-0.0259910679	 0.0499147918	 0.418692
N	 0.15046053	-0.692709501	-1.0760890789	-0.384871
C	 0.1275847049	-2.033652593	-0.7017164408	-0.241881
C	 0.0841929407	-2.1424146487	 0.6572405646	 0.31151
C	 0.0037286385	-3.0849343284	 1.8198990441	-0.353237
C	 0.3889464792	-2.1635691226	 3.0163433553	-0.213631
C	 0.0033904196	-0.7263005805	 2.5791510358	-0.178151
N	 0.0827212015	-0.835660282	 1.1321775483	-0.067428
H	 0.1625486955	 1.6773044445	-0.6945882873	 0.311221
H	 0.1497356461	-2.8156545076	-1.44429763	 0.103929
H	-1.0116698407	-3.4827895665	 1.946955369	 0.117413
H	 0.6749592796	-3.943530969	 1.7355753398	 0.121629
H	-0.0979663866	-2.4520699661	 3.9502537308	 0.110511
H	 1.470105961	-2.2095641179	 3.1759744365	 0.12154
H	-1.0135662471	-0.4593687347	 2.8916809074	 0.122366
H	 0.687042697	 0.035700407	 2.9610405992	 0.131894
