19
gdb 37072	3.24289	1.61508	1.39211	0.1508	73.67	-0.2524	0.0889	0.3413	974.5916	0.162459	-423.015761	-423.008808	-423.007863	-423.046769	28.385	
C	 0.0413827346	 1.4220604298	-0.0663751107	-0.370229
C	 1.3687361082	 0.7116705715	 0.0063315341	 0.236506
C	 1.9686210278	 0.5178891654	 1.3823251955	-0.161331
O	 0.8924021396	 0.0577287674	 2.2057540419	-0.257747
C	-0.0129010395	-0.6976133267	 1.3946375869	-0.161331
C	 0.073774568	-0.0826770392	 0.0143807388	 0.236506
C	 0.0580032492	-0.8404649908	-1.2956871103	-0.16133
O	 1.0067831642	-0.1726940536	-2.133499469	-0.257748
C	 2.0395355399	 0.3750278994	-1.307999213	-0.16133
H	-0.2844389283	 1.9621659375	 0.8162053286	 0.124526
H	-0.2361231688	 1.8648224207	-1.0170454224	 0.124526
H	 2.7834614422	-0.2239516689	 1.3350485453	 0.090473
H	 2.3571651452	 1.4262594416	 1.8535096481	 0.111773
H	 0.2786983181	-1.7604211024	 1.3506056485	 0.090472
H	-0.9944253995	-0.6296756203	 1.8743379621	 0.111773
H	 0.3439017741	-1.8918327559	-1.1241775793	 0.090472
H	-0.896772477	-0.8263903357	-1.8307792392	 0.111773
H	 2.4548288643	 1.2295111642	-1.8516058795	 0.111773
H	 2.8486971877	-0.355365004	-1.1397355965	 0.090472
