16
gdb 98388	2.6494	1.30255	0.88226	0.6588	71.7	-0.258	-0.0159	0.2421	1266.6317	0.123665	-471.235339	-471.225787	-471.224843	-471.2714	32.137	
C	 0.1184351318	 1.1864448199	 0.1963313928	-0.238018
O	 0.0582776014	-0.2324052892	-0.0073451216	-0.215211
C	 0.7088070919	-0.6707433045	-1.0762558397	 0.551974
O	 1.2965586043	 0.0295686344	-1.8669813737	-0.402354
N	 0.6239115334	-2.0754174236	-1.2208094952	-0.209912
C	 1.1311596279	-2.5855767507	-2.4352085042	 0.109958
N	 1.1435976508	-3.8278281252	-2.6877335591	-0.472126
C	 0.10015199	-3.0033880664	-0.2902042367	 0.08834
N	-0.2330655728	-2.7213459405	 0.8978078007	-0.428182
H	 1.1550507198	 1.5162204118	 0.2947126526	 0.146436
H	-0.3461111268	 1.7151445511	-0.6393704737	 0.143542
H	-0.431803257	 1.3654366267	 1.1191687985	 0.145408
H	 1.4876436078	-1.782308522	-3.0771492435	 0.154438
H	 1.532176131	-3.9904161579	-3.6140682237	 0.238467
H	 0.0594118758	-3.9872084657	-0.757747419	 0.153137
H	-0.5719984793	-3.5702943282	 1.3503780855	 0.234103
