18
gdb 89198	2.47768	1.54751	1.22638	4.8289	72.21	-0.2387	0.0236	0.2623	1076.2447	0.147122	-439.090004	-439.081462	-439.080518	-439.12292	32.692	
C	-0.0961239168	 1.5792767664	-0.0094625242	-0.414048
C	 0.043543149	 0.0650255724	 0.0436949187	 0.034074
C	 1.0914569731	-0.6142842589	-0.8966614661	-0.33619
C	 1.7582287114	-1.3214023569	 0.3219558297	 0.278352
O	 2.0455461888	-2.6706878997	 0.2776975649	-0.466128
C	 0.7391600093	-0.5763794152	 1.2841837622	-0.083419
N	 1.8951491689	 0.150231588	 1.8076157809	-0.316797
C	 2.841650497	-0.426529974	 0.979448385	 0.377132
O	 4.0166528619	-0.2374389224	 0.8293685383	-0.353161
H	 0.8695237768	 2.0730406523	 0.1402838873	 0.119774
H	-0.4825728225	 1.9023411794	-0.9816802323	 0.123499
H	-0.7862085369	 1.9432090871	 0.7600599227	 0.1169
H	-0.9380799874	-0.4002933874	-0.0935333425	 0.077985
H	 0.6447412363	-1.3295691934	-1.5952201563	 0.099828
H	 1.7489123531	 0.0478813121	-1.4657144165	 0.123582
H	 1.4109248106	-3.1085178693	-0.2991143988	 0.285897
H	 0.1282274845	-1.0727798771	 2.0389907718	 0.085525
H	 1.9399823729	 1.0442451768	 2.2769782351	 0.247195
