16
gdb 42657	2.6696	1.98355	1.80996	3.702	71.95	-0.2198	-0.0281	0.1917	841.9671	0.128136	-400.760809	-400.754717	-400.753773	-400.790982	25.855	
O	-0.0056771903	 0.0300816766	 0.0223292064	-0.339375
C	-0.0348430393	 1.2323294529	 0.0196862632	 0.487694
C	-1.2211099341	 2.1370272325	 0.0778991811	-0.210716
C	-0.6803850513	 3.4238807451	 0.6468491572	-0.027409
N	 0.7202193024	 3.2384839355	 0.9535076318	-0.291793
C	 1.1725074606	 2.1921474573	-0.0104533869	-0.194432
C	 1.208161915	 2.776052494	-1.411052703	-0.121483
C	 0.0721085539	 3.37458279	-1.7937848754	-0.05338
C	-1.0597078128	 3.3655603459	-0.8412080685	-0.096343
H	-2.2046603759	 1.7408683991	 0.2855607068	 0.112459
H	-1.2479246012	 4.0516902587	 1.3222479922	 0.111949
H	 1.2341474303	 4.1023744288	 0.788820926	 0.223024
H	 2.0962814077	 1.7148071898	 0.3102654755	 0.095116
H	 2.1099584619	 2.7449876318	-2.0106483092	 0.103688
H	-0.030554848	 3.9024790795	-2.7355687959	 0.102928
H	-1.9894962788	 3.8399502126	-1.1311841214	 0.098073
