19
gdb 101308	2.66975	1.03076	0.8709	2.9763	72.88	-0.254	-0.0306	0.2234	1392.6571	0.155934	-460.14462	-460.134742	-460.133798	-460.180452	35.197	
C	 0.05561098	 1.3736640354	-0.6251509904	-0.382898
C	-0.2244977151	-0.1268201331	-0.5110342978	-0.213659
C	-1.2648705963	-0.4635220803	 0.5654798964	 0.088782
O	-2.5117916332	 0.1781872608	 0.3308174711	-0.425116
C	-1.4111341884	-1.9697217217	 0.7335496243	 0.068106
O	-2.2852000264	-2.4569953973	 1.7429232647	-0.249038
C	-2.6299467333	-2.7379650399	 0.3865107742	-0.055119
C	-3.8951371212	-2.0998672826	-0.1169450334	 0.114493
O	-4.2952873362	-2.2574004261	-1.2445315837	-0.262822
H	 0.7719954217	 1.5779945328	-1.4256884572	 0.118681
H	-0.8599412951	 1.9331027993	-0.8357348566	 0.127122
H	 0.4725159148	 1.7651643324	 0.3087582167	 0.123206
H	-0.5754108302	-0.5239212913	-1.475070967	 0.105211
H	 0.704737171	-0.6630863579	-0.2839071179	 0.108856
H	-0.9210849432	-0.0674509462	 1.5310025615	 0.108174
H	-2.6904703202	 0.1521680515	-0.616784885	 0.294727
H	-0.4649215126	-2.5141231658	 0.6791340904	 0.099182
H	-2.4973628057	-3.7714184648	 0.0624440989	 0.119296
H	-4.4421765704	-1.5116271653	 0.6437111907	 0.112817
