17
gdb 116271	2.24124	1.45941	1.02973	1.3228	69.28	-0.2571	0.0211	0.2782	1163.2253	0.134861	-458.912079	-458.90311	-458.902166	-458.946812	32.146	
O	-0.0683129778	 1.557403524	-0.0362705034	-0.421524
C	 0.0481671412	 0.1515308179	 0.0634375294	-0.083317
C	-1.3248166657	-0.4981228515	 0.1621572184	 0.09394
O	-2.0611327796	-0.1875433797	-1.0255938895	-0.289333
C	-2.7351956015	-1.358068855	-1.4560188251	 0.024314
O	-2.6426145647	-2.3022117569	-0.4163662429	-0.233222
C	-1.3936301496	-2.0442461446	 0.2278513677	-0.134735
C	-0.2839190011	-2.7406219002	-0.4286905569	 0.363651
C	 0.6134519662	-3.3327376519	-0.9659530053	-0.478889
H	-0.6329797563	 1.7292443942	-0.7986891297	 0.293354
H	 0.5909235673	-0.2767359376	-0.7901597359	 0.104112
H	 0.6253624868	-0.0557454236	 0.9709665374	 0.111442
H	-1.8576446049	-0.0840929648	 1.0288600345	 0.093376
H	-3.7962431191	-1.1492230566	-1.6305531803	 0.119925
H	-2.2618167517	-1.7316083744	-2.3778101084	 0.102812
H	-1.4898050856	-2.3938151161	 1.2593420888	 0.125326
H	 1.4082659463	-3.8572824532	-1.437173449	 0.20877
