17
gdb 14983	4.43862	1.42878	1.13715	2.9346	64.72	-0.2451	0.0288	0.2739	1018.8836	0.143872	-401.004038	-400.99636	-400.995416	-401.036223	28.049	
O	-0.0579432422	 1.4364802625	-0.0030230796	-0.424275
C	 0.0134920138	 0.0184856558	 0.0308159575	-0.095129
C	-1.4076784322	-0.5288931959	 0.0101724745	-0.024291
C	-2.1438034165	-0.1241806876	-1.2647035	-0.069235
O	-3.4658354143	-0.6824999106	-1.305049638	-0.225432
C	-3.5961260351	-1.9272130327	-0.7895006764	 0.129468
N	-2.7559045036	-2.6349120918	-0.1633750781	-0.275071
C	-1.4443615276	-2.0590962313	 0.1201970004	-0.169774
H	 0.8373744837	 1.7870433891	-0.0094180765	 0.290647
H	 0.5715858868	-0.3727365628	-0.8366447566	 0.088185
H	 0.5285870975	-0.3363177956	 0.9375947179	 0.094042
H	-1.9485307081	-0.0995902057	 0.8628759142	 0.099829
H	-2.2658192328	 0.9565963844	-1.3367183856	 0.136488
H	-1.592995134	-0.4727988791	-2.1499544828	 0.104296
H	-4.6013289908	-2.2995830105	-0.9800440198	 0.121805
H	-0.7107293602	-2.5092732652	-0.5647182417	 0.10671
H	-1.1502237143	-2.3762445729	 1.1274911206	 0.111736
