21
gdb 97646	3.42586	0.61921	0.5538	3.3329	85.13	-0.2398	0.0526	0.2924	2044.2004	0.180463	-424.19673	-424.185599	-424.184655	-424.234792	38.849	
C	 0.273046314	 1.46871476	 0.296933006	-0.363218
C	-0.2543784812	 0.1134150218	-0.2088314262	-0.315805
C	 0.4793139301	-0.3905100201	-1.3658647927	 0.115939
C	 1.1120379898	-0.7761331116	-2.3163626048	 0.010645
C	 1.8477912487	-1.2911369136	-3.467685123	-0.198812
C	 2.1965014812	-2.7909063957	-3.2807479827	-0.047086
O	 3.1499371655	-3.2533867952	-4.2083038617	-0.427963
C	 1.0289315154	-1.0482625022	-4.7470331502	-0.081069
O	 1.7919079717	-1.4985275223	-5.8678100386	-0.424949
H	 1.3227057645	 1.3906277196	 0.5925935321	 0.129567
H	 0.1991840685	 2.2302398802	-0.4841737705	 0.126681
H	-0.3056583678	 1.8046726371	 1.1625617891	 0.114134
H	-0.2044912206	-0.6244125666	 0.6022662293	 0.129992
H	-1.3179931414	 0.2063535334	-0.463848487	 0.126919
H	 2.800098698	-0.7534371474	-3.5711115491	 0.117115
H	 2.6241626046	-2.9337048609	-2.2839568725	 0.111762
H	 1.2593823344	-3.3732170053	-3.3192612899	 0.082006
H	 2.8469908738	-2.9619791435	-5.0786578835	 0.288816
H	 0.0790040551	-1.5969891799	-4.6718935753	 0.103058
H	 0.7965830268	 0.0210887827	-4.8399245878	 0.106308
H	 1.2321802988	-1.4781569605	-6.6491938711	 0.295959
