19
gdb 70845	3.02425	1.76976	1.42842	1.3489	78.02	-0.2334	0.0781	0.3115	967.4144	0.159023	-385.820014	-385.812508	-385.811564	-385.851245	31.225	
C	-0.0516730567	 1.4761096156	 0.0041901865	-0.505595
C	-0.0255029959	-0.0284175598	-0.0598373442	 0.340877
C	 0.2724004429	-0.8211727551	-1.3597452867	-0.353981
C	-0.4578853267	-1.9799114239	-0.6291796448	 0.405648
O	-1.0994203848	-3.0231600988	-1.2846873689	-0.486503
C	 0.3209840161	-2.2551646413	 0.6882367526	-0.155419
C	-0.6545485886	-1.4796763188	 1.5460770671	-0.101905
C	 0.6358869307	-0.8226983147	 1.1026724023	-0.111393
C	-1.2809699637	-0.9530865583	 0.2217951486	-0.148157
H	 0.9516255909	 1.8958373914	-0.139212128	 0.114513
H	-0.7020871779	 1.8981100994	-0.7694322651	 0.114362
H	-0.4182464004	 1.8205606098	 0.9781441829	 0.117474
H	-0.3263494084	-0.4554516807	-2.2007583587	 0.097048
H	 1.3154889848	-0.955758172	-1.6659666916	 0.081714
H	-0.4307865145	-3.6422241532	-1.5988051227	 0.27747
H	 0.942526411	-3.1039350568	 0.9457173781	 0.079183
H	-1.0476113557	-1.6804804023	 2.5333096677	 0.085734
H	 1.5041855949	-0.55220886	 1.6914484923	 0.079049
H	-2.310500948	-0.6756222505	 0.0097132524	 0.069882
