15
gdb 56113	4.10746	0.80543	0.68311	2.626	71.36	-0.2525	-0.0307	0.2217	1553.6027	0.109861	-453.936791	-453.926922	-453.925978	-453.973487	33.869	
N	-0.0305293133	 1.2774155995	-0.1138379187	-0.526292
C	 0.0535429358	-0.0598547167	 0.1561173267	 0.374646
O	 1.0827202095	-0.6136775844	 0.4672198585	-0.329764
C	-1.304366647	-0.763813985	 0.0914854021	-0.169528
O	-1.0677675261	-2.158449008	-0.0129720885	-0.205796
C	-2.162318574	-2.9399752295	 0.0247582246	 0.2658
N	-3.3364320778	-2.4585218253	 0.1335235909	-0.54305
C	-1.8237980016	-4.3326927661	-0.0739197863	 0.278123
C	-1.5944902109	-5.5096807762	-0.1542805059	-0.398686
H	 0.821850256	 1.8132280916	-0.1033860277	 0.265976
H	-0.8554436358	 1.6982081037	-0.5048557581	 0.261497
H	-1.8798930914	-0.5420243013	 0.9981689957	 0.151996
H	-1.9041724549	-0.4160037294	-0.7580476839	 0.125619
H	-4.02714861	-3.2052251943	 0.1496433072	 0.237573
H	-1.3829896786	-6.5486665588	-0.2242254967	 0.211886
