21
gdb 95526	2.16389	1.54533	1.119	0.7155	89.55	-0.2424	0.0198	0.2622	1190.4806	0.182836	-349.944096	-349.935139	-349.934195	-349.977331	35.073	
C	-0.0878946438	 1.5651457408	-0.03825231	-0.414732
C	 0.0333344394	 0.0405216611	-0.0216887399	 0.023736
C	 0.6767492018	-0.5155099232	-1.2989262351	-0.199425
C	 0.5931210753	-2.0478765901	-1.3411475151	-0.264259
C	 0.925946495	-2.6719478805	-0.0120558005	-0.036211
C	 1.0296501744	-1.9883472843	 1.125165873	-0.070454
C	 0.8024796485	-0.4878722236	 1.223085366	-0.207053
C	 2.080299953	 0.195932316	 1.4462985009	 0.361358
C	 3.1377925898	 0.7390829195	 1.6301938087	-0.503765
H	 0.8945878849	 2.0371592474	-0.1329302949	 0.130068
H	-0.7064471872	 1.8922316484	-0.8804580978	 0.107944
H	-0.5493447011	 1.9400420944	 0.881986736	 0.109191
H	-0.9767659733	-0.3852247161	 0.0581128811	 0.074553
H	 0.1919520406	-0.0862960683	-2.182639924	 0.089146
H	 1.7276014087	-0.2012208943	-1.3288191222	 0.111313
H	-0.416612008	-2.3636101209	-1.6449981445	 0.106918
H	 1.2643059992	-2.446302541	-2.1125566861	 0.104375
H	 1.0849991347	-3.748076326	-0.0004075743	 0.086754
H	 1.3018967949	-2.4913545191	 2.0487890939	 0.09347
H	 0.174388297	-0.2944919002	 2.1051258187	 0.103059
H	 4.0706246963	 1.2180550299	 1.7967297461	 0.194013
