17
gdb 21178	6.74636	1.24117	1.06722	2.5033	73.23	-0.184	0.0295	0.2136	1114.0444	0.143577	-360.050309	-360.042015	-360.04107	-360.083722	29.312	
C	-0.0402341097	 1.4444869834	 0.1244736626	-0.322741
N	 0.0304404288	 0.0246652508	-0.1776316288	-0.389025
C	-1.1530161268	-0.7128981909	-0.0748070306	 0.219057
C	-1.2917973967	-2.0914128535	-0.0333557266	-0.154617
N	-2.6297846569	-2.3505864382	-0.0036396668	 0.069538
C	-3.2712007722	-3.6402959836	 0.1160215878	-0.321099
N	-3.368649311	-1.2343365257	-0.0167449695	-0.269482
C	-2.4847826123	-0.23426494	-0.0598176205	-0.068881
H	 0.963310343	 1.8723572918	 0.0617990962	 0.119489
H	-0.6621804547	 1.9518168989	-0.620760157	 0.133568
H	-0.4568036609	 1.6695796936	 1.1201216405	 0.108477
H	 0.8078339796	-0.426803072	 0.2828218015	 0.230083
H	-0.5597526558	-2.8832598671	-0.0311201226	 0.114956
H	-3.1918316892	-4.0359944939	 1.1351736152	 0.135022
H	-4.323592675	-3.5084599936	-0.1342725557	 0.158965
H	-2.8186166328	-4.3549004854	-0.5774181799	 0.134826
H	-2.8335349675	 0.7864102853	-0.0891148657	 0.101864
