16
gdb 67497	2.48835	1.64555	1.22598	2.1793	75.5	-0.2257	0.0299	0.2556	1029.4682	0.122362	-400.607199	-400.599276	-400.598332	-400.639199	31.457	
O	-0.0141380909	 1.3489253079	-0.0098465633	-0.447179
C	 0.0597983021	-0.0257876057	 0.0312530813	 0.344066
C	-0.1644472787	-0.8939827877	-1.1956163858	-0.284368
C	 0.6986064706	-1.8314351234	-1.8578884804	 0.284388
C	 1.4022684736	-2.566603296	-2.5016929969	-0.415573
C	-1.0630132798	-1.0143834158	 0.049340286	-0.091931
N	-0.5579870425	-1.6938397374	 1.3006999006	-0.136272
C	 0.8084962787	-2.22646952	 1.1106428135	-0.261544
C	 0.6316648979	-0.7680994884	 1.2618487175	-0.117418
H	 0.8098375849	 1.6877020867	-0.3798049438	 0.292985
H	-0.726427936	-0.2926104285	-1.9117723519	 0.131307
H	 2.0283956915	-3.2306350786	-3.0444512913	 0.195822
H	-2.134590268	-0.8942999785	-0.0456313969	 0.118911
H	 1.1485464454	-2.7610203145	 1.9943387756	 0.123911
H	 1.1006315354	-2.6714668867	 0.1703867422	 0.153356
H	 0.9182099256	-0.2120261635	 2.1488466235	 0.109539
