16
gdb 43302	3.18678	1.81801	1.41996	3.0863	74.29	-0.2354	-0.0534	0.182	906.1672	0.126705	-400.731371	-400.724942	-400.723998	-400.762013	26.267	
O	 0.0282568909	-0.0707628947	-0.1075861645	-0.343024
C	-0.0336205377	 1.1410450824	-0.0526335151	 0.393942
C	-1.2994764568	 1.8937261901	 0.0257164034	-0.199037
C	-1.2874019414	 3.2366225622	-0.0167574847	-0.000666
N	-0.1681221161	 4.0077365851	-0.3873219151	-0.11275
C	 1.0173488097	 4.1654204927	 0.4839503355	-0.048481
C	 1.2655513603	 2.918929247	 1.3423825224	-0.263096
C	 1.1985435794	 2.0287215254	 0.042470941	-0.162947
C	 1.0621861038	 3.3387369793	-0.7668313584	-0.052986
H	-2.2157511066	 1.3371197856	 0.1851133138	 0.111391
H	-2.1789580401	 3.8275193712	 0.1793734239	 0.121046
H	 1.36179874	 5.1743328402	 0.6761566935	 0.109945
H	 2.2772534434	 2.9189834266	 1.7523731092	 0.124982
H	 0.5509213053	 2.7033207312	 2.1408366524	 0.116021
H	 2.101349336	 1.4483531531	-0.141349612	 0.098123
H	 1.4778944599	 3.5558666728	-1.7445246254	 0.107538
