19
gdb 75609	1.84339	1.84155	1.20304	1.2251	71.64	-0.2534	-0.0346	0.2188	1101.8124	0.155867	-460.166194	-460.156183	-460.155239	-460.200369	36.871	
C	-0.0798043576	 1.4486102425	 0.0069567943	-0.436037
C	-0.0387586541	-0.0759040374	-0.0016786329	 0.192553
C	-1.4058989609	-0.6979089638	-0.2606915525	-0.462432
C	 1.1382517041	-0.6344469226	-0.9215430152	 0.039349
O	 1.6247664167	 0.0989086375	-1.9993962972	-0.426786
C	 1.9517045572	-0.5839794156	 0.3604098228	 0.262196
O	 3.0202646594	-0.0594994932	 0.5632561849	-0.333489
C	 0.7343625327	-0.6577016055	 1.266111065	 0.03935
O	 0.8011757413	 0.0514726547	 2.4614676197	-0.426782
H	 0.9046817047	 1.8897684749	 0.193343535	 0.114123
H	-0.4303600018	 1.8236846269	-0.9583628685	 0.130125
H	-0.7532374698	 1.805077451	 0.7910688464	 0.130125
H	-1.8012616788	-0.3791458289	-1.231314866	 0.128164
H	-1.3513873781	-1.7917740215	-0.2622526888	 0.11396
H	-2.1229542918	-0.3976642888	 0.5111347879	 0.128164
H	 0.8913317831	-1.6513784444	-1.2470875194	 0.105395
H	 2.3942676107	 0.5900963215	-1.681851313	 0.298311
H	 0.3913453221	-1.6801654027	 1.4610557791	 0.1054
H	 1.6313981409	 0.5462693455	 2.4497263884	 0.298311
