17
gdb 82014	2.54636	1.44605	1.31497	4.1065	73.16	-0.2349	0.021	0.2559	1040.771	0.13762	-414.139582	-414.131114	-414.13017	-414.172249	32.594	
N	-0.0878160338	 1.4599462766	 0.1941965012	-0.506205
C	-0.0326850596	 0.0415867783	 0.0236801593	-0.011647
C	-1.3753893597	-0.6797684537	-0.0132618322	-0.0326
N	-2.0611166605	-0.1970447729	-1.2402347329	-0.363493
C	-1.0929023305	-1.3122559058	-1.3268059488	-0.101858
C	 0.2842285299	-0.6095568118	-1.4462903559	 0.126367
N	 0.5009761039	 0.3676605963	-2.494239926	-0.557668
C	 1.3903288626	-1.5532266871	-1.3819004704	 0.243807
N	 2.2549593469	-2.3181354817	-1.3103383956	-0.339283
H	 0.8071146913	 1.8879659403	-0.0191361769	 0.24363
H	-0.775709993	 1.8563208421	-0.4383688868	 0.241015
H	 0.6464082854	-0.4029154466	 0.7546825155	 0.109923
H	-1.944652742	-1.0523170423	 0.8281512942	 0.107944
H	-2.9981839969	-0.5947050691	-1.2545058962	 0.241908
H	-1.3760622459	-2.2838141683	-1.7123829364	 0.110918
H	 0.7910022472	-0.084733483	-3.3559550498	 0.239812
H	-0.3882807153	 0.8276373486	-2.6728018621	 0.24743
