22
gdb 89585	4.31104	1.01884	0.97142	2.13	83.53	-0.2061	0.0783	0.2844	1335.2705	0.194741	-404.330822	-404.322021	-404.321076	-404.365155	33.414	
C	-0.0119157382	 1.5355704047	 0.0166776167	-0.3189
N	-0.0344930327	 0.0951575604	 0.0956415232	-0.062559
C	-1.2802699444	-0.5729713605	 0.5128065705	-0.213593
C	-0.4396175514	-1.5756531962	 1.3514046664	 0.433835
C	 0.7267580232	-0.5673282696	 1.168934667	-0.222804
C	-0.8743588872	-1.9676723355	 2.7723607011	-0.307121
C	-1.3306959859	-3.4260335837	 2.617423662	-0.22142
C	-0.3845640364	-3.9064649458	 1.5162917856	-0.072404
O	-0.2370437757	-2.795380719	 0.6402156213	-0.306501
H	 0.9985573779	 1.8803097704	-0.2282425921	 0.119325
H	-0.6824806462	 1.8765992373	-0.7795107484	 0.1193
H	-0.322024918	 2.0312113819	 0.9587680625	 0.081932
H	-1.9317776128	 0.0575201939	 1.1419689287	 0.073192
H	-1.8674653005	-1.0053792575	-0.3040267929	 0.105098
H	 1.6898447468	-0.9900146108	 0.8626977647	 0.10466
H	 0.871090036	 0.0641906512	 2.063289819	 0.073023
H	-0.0139798471	-1.9103902275	 3.4496412571	 0.105976
H	-1.6468316518	-1.3053631703	 3.1693022839	 0.10562
H	-1.2515674671	-4.0075637477	 3.5391464222	 0.100785
H	-2.3680173582	-3.4730992466	 2.2696436352	 0.108765
H	 0.5899250061	-4.2006480062	 1.9396687601	 0.087333
H	-0.7689876464	-4.7483851725	 0.9329938964	 0.106459
