21
gdb 40510	3.14886	1.3724	1.18806	1.5549	82.11	-0.2383	0.0731	0.3114	1138.4269	0.183323	-387.046785	-387.038603	-387.037658	-387.079919	31.97	
C	-0.1872738264	 1.2727540743	-0.3849746541	-0.273257
C	 1.1903931025	 1.0518349718	 0.184584981	-0.265272
C	 0.2351077996	-0.1110194127	 0.0388892091	-0.087756
C	-0.3425471675	-0.7475241696	 1.2610806205	 0.45998
C	 0.2937633687	-2.0464966727	 1.8251627487	-0.27486
C	-1.1296968141	-2.6630223957	 1.9992630058	-0.226682
C	-1.7711047931	-1.3739662356	 1.4214633963	-0.13697
C	-1.9862040381	-0.2581657356	 2.4510104516	-0.084636
O	-0.6218411257	 0.2087405059	 2.3174369722	-0.330886
H	-0.8997746787	 1.7894239522	 0.247597657	 0.120222
H	-0.2861868816	 1.4732099041	-1.4460014161	 0.105069
H	 2.0453068365	 1.097166476	-0.4806043661	 0.107077
H	 1.3706015897	 1.4174827494	 1.1886192321	 0.130581
H	 0.4545480956	-0.8179642709	-0.7568520926	 0.079133
H	 0.9165835738	-2.5800191053	 1.1015471885	 0.098083
H	 0.8713432758	-1.8851134338	 2.7377894989	 0.108687
H	-1.2972180085	-3.5447978081	 1.3767201704	 0.102225
H	-1.4255103026	-2.9085903379	 3.0231062123	 0.099476
H	-2.4952129369	-1.4698642878	 0.6131263838	 0.073633
H	-2.7010886553	 0.5177449311	 2.1487623818	 0.098987
H	-2.2150605938	-0.5745392092	 3.4767622588	 0.097167
