15
gdb 8853	4.80954	1.31465	1.04604	3.7931	60.52	-0.2676	-0.0155	0.2521	1075.2332	0.117515	-437.000781	-436.991961	-436.991017	-437.034664	29.366	
C	-0.0073738974	 1.3763654255	-0.0443614561	-0.23912
O	 0.0392477076	-0.0561202967	 0.0214710832	-0.251317
C	 0.6651443679	-0.5483411943	 1.1044801302	 0.544305
O	 1.1625300982	 0.1221863853	 1.9763013272	-0.398389
N	 0.6559703992	-1.9418636272	 1.0736873647	-0.194817
C	 0.0335291088	-2.6934604404	-0.0161058308	-0.346263
C	 1.2638518527	-2.6311270603	 2.1219745954	 0.171804
O	 1.3113452196	-3.8346809746	 2.1911137435	-0.315834
H	 1.002328984	 1.7925770262	-0.0627421515	 0.148411
H	-0.5352210597	 1.6082954708	-0.9689474551	 0.139569
H	-0.5429567704	 1.7826138393	 0.8166260316	 0.148201
H	 0.5091429902	-2.4554963285	-0.9698308302	 0.143183
H	 0.1700687583	-3.7491427132	 0.2150054381	 0.169993
H	-1.0310568271	-2.4609352045	-0.0860947524	 0.143232
H	 1.687754418	-1.9434292977	 2.8658375624	 0.137043
