25
gdb 117985	2.6614	0.89635	0.80798	0.386	85.9	-0.2478	0.0692	0.317	1600.7719	0.224825	-426.624584	-426.612737	-426.611793	-426.661265	43.423	
C	 0.0451156149	 1.370044252	-0.118803031	-0.227346
O	 0.0212519454	-0.0352682256	-0.0980547345	-0.236529
C	-1.2806821778	-0.5604937474	 0.0874132354	-0.073749
C	-1.1738603631	-2.0880535866	 0.1332324691	 0.003135
C	-0.4100234047	-2.5335939629	 1.3889270978	-0.418685
C	-2.5532781229	-2.7763734128	-0.076397444	 0.335102
C	-2.4069971607	-4.3050694411	-0.1109434838	-0.427991
C	-3.5994569759	-2.3694703711	 0.9665672793	-0.399107
O	-3.1058121793	-2.338608343	-1.3290246187	-0.459837
H	 1.082446757	 1.6796443519	-0.2705044569	 0.123255
H	-0.570619906	 1.7786672695	-0.9361325196	 0.102347
H	-0.3186513252	 1.8010946563	 0.8280322347	 0.101094
H	-1.7091785165	-0.1708179215	 1.0267890178	 0.07917
H	-1.9418600605	-0.2520105456	-0.7346488717	 0.100285
H	-0.5645482444	-2.3673909002	-0.7399891902	 0.066762
H	-0.987441292	-2.3415126503	 2.3001956017	 0.112078
H	-0.1592550683	-3.597140632	 1.3656330372	 0.111793
H	 0.521983914	-1.9680801663	 1.4618062939	 0.134056
H	-2.1365437655	-4.7172037549	 0.8649654583	 0.119599
H	-3.3556672847	-4.7515306644	-0.4218130185	 0.120523
H	-1.6342044928	-4.6091726446	-0.8275530264	 0.102242
H	-3.794632646	-1.2949761088	 0.9282877757	 0.123817
H	-4.5411799037	-2.8862276792	 0.7617850717	 0.119864
H	-3.276658472	-2.6311071523	 1.9774510689	 0.11515
H	-2.5051581593	-2.6216310191	-2.0274694461	 0.272973
