19
gdb 49553	3.44283	1.16297	1.11852	2.1145	75.87	-0.2471	-0.0247	0.2223	1152.2661	0.160793	-423.018946	-423.011236	-423.010292	-423.05152	29.6	
O	 0.0343622078	-0.0453160807	-0.1782617044	-0.25802
C	 0.0417272123	 1.1429779712	 0.0270639379	 0.134571
C	 1.2809604713	 1.9894690717	 0.0294939258	-0.066597
C	 1.173710716	 3.3138487446	-0.8013208315	-0.05832
C	 0.6004328647	 4.0123023906	 0.4620327502	-0.237598
C	 1.4146797554	 2.9549057759	 1.2566665211	-0.058296
C	 2.8761249919	 3.416681921	 1.3219716047	-0.072225
O	 3.2286171628	 4.1969672354	 0.1864824383	-0.260262
C	 2.6001718276	 3.8277178083	-1.0346429235	-0.072227
H	-0.9100157671	 1.685539762	 0.2321490644	 0.070905
H	 2.1379946629	 1.343065518	-0.1835197057	 0.083733
H	 0.5971474122	 3.3007276639	-1.72932504	 0.078635
H	 0.8558529674	 5.0629065181	 0.6153725696	 0.113205
H	-0.4771199343	 3.8762692439	 0.5644820804	 0.107963
H	 1.060912174	 2.609925671	 2.2311508851	 0.078657
H	 3.0383431402	 4.0679796344	 2.1880809291	 0.111236
H	 3.5405830861	 2.5435400341	 1.4246880115	 0.096708
H	 3.1899848319	 3.0657638284	-1.5694174669	 0.0967
H	 2.5893498569	 4.7367700481	-1.6463221261	 0.111233
