19
gdb 120336	3.29291	1.00084	0.95449	2.0882	70.99	-0.248	0.0791	0.3271	1307.7458	0.159361	-460.124427	-460.115758	-460.114814	-460.158648	31.658	
O	-0.113069836	 1.3833657525	 0.0073763761	-0.421497
C	-0.162424768	-0.0125387931	 0.2641533693	-0.066607
C	-1.4236087422	-0.5591299139	-0.3965513464	-0.203089
C	-1.5378349424	-2.0609451323	-0.269572496	-0.092689
C	-1.8760741727	-2.7456621977	 1.0439621707	 0.033769
O	-2.4299071296	-1.9227180353	 2.0493557529	-0.252024
C	-3.8157172978	-1.8604545672	 1.7579118224	 0.022143
O	-3.9463039752	-1.9510305462	 0.3502064306	-0.25018
C	-2.8716632066	-2.7616745955	-0.0732049729	 0.024326
H	 0.6475239126	 1.7467492641	 0.4696257546	 0.284577
H	 0.7269890355	-0.5227787689	-0.1425716839	 0.07614
H	-0.2003042352	-0.223819797	 1.3432292247	 0.101115
H	-2.2955853873	-0.074457675	 0.047974024	 0.122968
H	-1.4157125235	-0.2816975669	-1.456825633	 0.107307
H	-0.8390688497	-2.6323101187	-0.8788966424	 0.089617
H	-1.3332923584	-3.6120266724	 1.4068322404	 0.102131
H	-4.3475013393	-2.6948330789	 2.2467462079	 0.092727
H	-4.211363506	-0.8986499759	 2.0949733954	 0.124349
H	-3.1559427382	-3.6386395316	-0.6445865846	 0.104917
