25
gdb 122745	6.72577	0.38173	0.37605	0.1885	100.53	-0.2382	0.0638	0.302	3036.4116	0.226747	-352.3504	-352.338387	-352.337443	-352.390851	41.418	
C	 0.2101221841	 1.5398473563	-0.1775980143	-0.37915
C	 0.3255060307	 0.0141140384	-0.1228366804	-0.169702
C	 0.5949383393	-0.5202644511	 1.2879837553	-0.155603
C	 0.7107151216	-2.0458696938	 1.3472155676	-0.167387
C	 0.982179264	-2.5683479578	 2.7725955527	-0.358986
C	 1.0946799559	-4.0215252416	 2.8438554013	 0.005146
C	 1.1745434636	-5.2235301137	 2.8721706981	 0.126131
C	 1.3026176058	-6.6768241268	 2.9212131397	-0.312708
C	 2.760077376	-7.1513085625	 3.0666686165	-0.362319
H	 1.1315324303	 2.0194833809	 0.1712897861	 0.113064
H	 0.0181406574	 1.8904235472	-1.1965208304	 0.110905
H	-0.6079625879	 1.8981912154	 0.4572967388	 0.113107
H	-0.5972379373	-0.4379499009	-0.5099437308	 0.095307
H	 1.1287482195	-0.3176052264	-0.7939881879	 0.095213
H	 1.5187331144	-0.0683746078	 1.6764847449	 0.091338
H	-0.2085947275	-0.1884648807	 1.9608614631	 0.091445
H	-0.2107309522	-2.5057818479	 0.9701644617	 0.104239
H	 1.5163433821	-2.3858590592	 0.6852909901	 0.103801
H	 1.9035729462	-2.1085814989	 3.1557797938	 0.121805
H	 0.1793379552	-2.2276697064	 3.4408574808	 0.121913
H	 0.706746763	-7.0687586566	 3.7558957904	 0.124846
H	 0.8666141759	-7.1129851527	 2.0128990742	 0.12471
H	 2.8062398113	-8.2441873746	 3.0985186901	 0.111052
H	 3.3666928177	-6.8048114308	 2.2254600644	 0.125658
H	 3.2055333007	-6.7603718379	 3.985578204	 0.126175
