13
gdb 124030	4.77089	1.17482	1.00608	4.5566	66.57	-0.2615	-0.0949	0.1666	1099.8906	0.088666	-448.839239	-448.832157	-448.831213	-448.871499	25.321	
C	 0.9077477664	 0.9179261278	-0.1640443475	-0.173022
O	-0.1190173016	 0.2230134354	-0.8617524333	-0.218569
C	-0.4154092333	 0.6901932112	 0.4532571436	 0.000683
C	-0.6005213512	-0.3545501918	 1.4890320452	 0.352851
C	-0.2204662856	-1.6865305109	 1.3121416075	-0.014818
N	-0.3805102933	-2.5607621465	 2.2905052011	-0.163015
N	-0.9211527251	-2.1385575566	 3.4365305075	-0.051941
N	-1.3235783684	-0.8993573893	 3.5889812325	-0.05755
N	-1.1771628703	 0.0105743112	 2.6287587032	-0.246995
H	 1.756400713	 0.3132709192	 0.1514313294	 0.133304
H	 1.1455460463	 1.9112407669	-0.5393159855	 0.144137
H	-1.1094404722	 1.5250508847	 0.5236044755	 0.133641
H	 0.1974853854	-2.0474518613	 0.3779420507	 0.161295
