21
gdb 112182	2.37461	1.23507	1.02921	4.1114	78.76	-0.2632	0.0171	0.2804	1297.8864	0.180413	-424.273526	-424.263426	-424.262482	-424.308478	36.696	
C	-0.0897886046	 1.6328008232	-0.1090575518	-0.387471
C	-0.056745051	 0.1610079561	 0.3170642248	-0.20116
C	-1.3551205456	-0.5563304976	 0.0063515025	 0.12684
O	-1.5834650819	-0.666718044	-1.4484087015	-0.270241
C	-1.6804696888	-2.0309953971	-1.383046272	 0.453716
O	-1.8677960076	-2.7915453695	-2.2792773669	-0.340584
C	-1.4782389956	-2.1051168738	 0.1372318941	 0.054051
C	-0.2424672508	-2.8975912529	 0.5640035783	-0.447028
C	-2.7308263659	-2.5811128323	 0.8779730279	-0.444193
H	 0.8607502865	 2.1259525438	 0.1130105177	 0.117622
H	-0.2759673504	 1.7185249269	-1.1832621715	 0.142406
H	-0.8818299795	 2.1795871419	 0.4141621789	 0.117281
H	 0.7722601961	-0.3507698154	-0.1830422469	 0.109863
H	 0.126373113	 0.0831424643	 1.396636506	 0.105279
H	-2.2040435086	-0.0243235211	 0.4500353762	 0.088076
H	 0.6560576334	-2.5989258639	 0.0189170877	 0.128976
H	-0.0520703514	-2.7727843204	 1.6351698776	 0.121167
H	-0.4059940219	-3.9620760046	 0.3718865615	 0.138034
H	-2.9146110003	-3.6397898055	 0.6724969779	 0.138224
H	-2.6058639303	-2.4605934017	 1.9594892327	 0.120881
H	-3.6188981349	-2.0197633665	 0.5719177467	 0.128259
