20
gdb 124578	4.09207	0.9391	0.90172	3.2381	80.12	-0.2597	0.011	0.2707	1385.1935	0.172483	-399.365604	-399.356622	-399.355678	-399.400218	32.611	
C	 0.0232946639	 1.5137794898	-0.0394579403	-0.391802
C	 0.0553924055	-0.0152590705	 0.0736123863	 0.031666
C	 0.7119153678	-0.4700584933	 1.3817272594	-0.394972
C	-1.3721026688	-0.5690192645	-0.0746245463	-0.156674
N	-1.4236889764	-2.0204586722	-0.1314846904	 0.056595
C	-1.9376210833	-2.9018364886	 0.7503699114	 0.010839
N	-1.7648266405	-4.1417562768	 0.3275669248	-0.279927
C	-1.1188885647	-3.9555199227	-0.8546558603	 0.037983
N	-0.8881275067	-2.6927787543	-1.1799837645	-0.253359
H	 1.0338927036	 1.9279423113	 0.0230896875	 0.12094
H	-0.4138153517	 1.8387288314	-0.9894229172	 0.117622
H	-0.5663890982	 1.9586891043	 0.7712809916	 0.113934
H	 0.6351513621	-0.4173414106	-0.7656445145	 0.109733
H	 0.1638340858	-0.0877440315	 2.2518952094	 0.109055
H	 0.7493199372	-1.560487197	 1.4576541455	 0.132792
H	 1.7384524577	-0.0969909005	 1.4483295637	 0.120183
H	-1.9939408672	-0.2597410307	 0.7726700931	 0.117964
H	-1.832474187	-0.1810999502	-0.988616286	 0.130429
H	-2.4223997266	-2.5967469393	 1.6657992592	 0.140752
H	-0.8130688025	-4.7693484442	-1.4952504323	 0.126247
