17
gdb 79168	2.61421	1.91467	1.47898	3.55	70.5	-0.2346	-0.0247	0.2099	928.9293	0.136601	-421.805305	-421.798093	-421.797149	-421.836937	28.389	
C	-0.2058659984	 1.5680451191	 0.0402272513	-0.399078
C	 0.0386502991	 0.0564990067	-0.0293647586	-0.114198
C	 0.8475570739	-0.4539244097	-1.2132486923	-0.102025
C	 2.337552629	-0.1950281056	-1.2202332904	 0.102697
O	 2.7887122318	 0.1853055402	 0.0841939933	-0.304513
C	 2.1460913723	-1.0160661214	 0.6382195065	-0.028653
C	 1.8309192394	-1.5357710691	-0.7746863381	-0.171078
C	 0.8303742237	-0.4610597212	 1.1929168959	 0.436523
O	 0.4898968979	-0.3985952374	 2.3435236734	-0.329585
H	 0.7424256601	 2.1108072397	 0.0092975752	 0.136965
H	-0.8267186927	 1.9039500056	-0.7960389092	 0.11255
H	-0.7181242453	 1.8218150374	 0.9726010028	 0.136046
H	-0.9277406245	-0.4647842572	-0.0148949156	 0.104566
H	 0.3740050201	-0.5689456052	-2.1821248699	 0.097797
H	 2.9182802437	 0.1357269256	-2.0729311978	 0.112993
H	 2.7906044438	-1.559622431	 1.326590431	 0.099445
H	 1.9304731964	-2.5355657664	-1.1712964476	 0.109547
