18
gdb 83188	3.15562	1.29971	1.13074	5.0998	71.36	-0.2274	0.0421	0.2695	1107.8114	0.149891	-439.108045	-439.100077	-439.099132	-439.140727	30.914	
O	-0.0429259124	 1.4238830512	-0.0804831359	-0.405917
C	 0.020179744	 0.0308246004	-0.0194435543	 0.071913
C	-0.4070961751	-0.6947075418	 1.241429165	-0.088321
C	-0.9528611259	 0.0912805073	 2.4223015322	-0.190896
N	-2.3984409093	-0.077165992	 2.5346352299	-0.299256
C	-3.2672169549	-0.0112753758	 1.480643373	 0.393291
O	-4.4753175795	-0.0125401812	 1.6298463093	-0.380238
C	-2.6013378241	 0.0758470828	 0.109176648	-0.346249
C	-1.2915892869	-0.6967674714	 0.0059222958	-0.071358
H	 0.7401339595	 1.783923737	 0.3494250045	 0.293339
H	 0.8281016533	-0.4137256611	-0.5991438275	 0.090813
H	 0.1145994706	-1.6140501434	 1.4849587969	 0.092174
H	-0.501009608	-0.2639861691	 3.3521517459	 0.113392
H	-0.690261944	 1.1534312819	 2.3197961773	 0.106761
H	-2.8313086006	-0.0236585962	 3.4442289268	 0.244601
H	-3.3315428736	-0.2763650887	-0.6203722768	 0.129108
H	-2.4240370765	 1.1373167115	-0.0993099142	 0.148339
H	-1.3398420166	-1.6218518413	-0.5579871362	 0.098503
