18
gdb 34798	4.1882	1.29982	1.23157	1.0164	82.08	-0.228	0.0472	0.2752	1054.2007	0.149283	-364.71514	-364.708123	-364.707179	-364.746201	29.414	
C	 0.0148168215	-1.2770884035	-0.0147794989	-0.420658
C	-0.0051426766	-0.0742597212	 0.0039621757	 0.272246
C	-0.0500982279	 1.3723505473	-0.0145657765	-0.193444
C	-0.1231750377	 2.0744107242	 1.3840283812	-0.055931
C	 1.4096437	 1.7515826065	 1.503370608	-0.223689
C	 1.3540952522	 2.0870933403	-0.0162127431	 0.001718
N	 1.1189947447	 3.5607033653	 0.05776107	-0.109938
C	-0.2072482691	 4.047501886	-0.3606076401	-0.249623
C	-0.0143421424	 3.5637353618	 1.0314263595	-0.034492
H	 0.0328740155	-2.3385813925	-0.0270613311	 0.189802
H	-0.7768408379	 1.6838976251	-0.7658348794	 0.095121
H	-0.8528653999	 1.7712109548	 2.1331308455	 0.078035
H	 2.0172614694	 2.4175653888	 2.1190995217	 0.104679
H	 1.6181048544	 0.7039980513	 1.7176357372	 0.122179
H	 2.1330638979	 1.8107953626	-0.7245954932	 0.084713
H	-0.2230094663	 5.1228370199	-0.517460714	 0.116853
H	-0.8050592791	 3.5010170181	-1.0804191163	 0.122659
H	 0.0370719312	 4.2751178353	 1.8519384638	 0.09977
