18
gdb 111369	2.22388	1.5371	1.09208	5.7249	76.6	-0.2259	0.0297	0.2556	1152.2528	0.148666	-398.081341	-398.072733	-398.071789	-398.115009	31.685	
C	 0.6109695026	 1.2200825779	 0.4628374801	-0.32296
N	-0.2507857979	 0.3749395601	-0.3549456571	-0.269587
C	 0.4332677689	-0.3209468737	-1.4026401644	 0.029475
C	 1.2908482284	-1.5778182595	-1.0934843488	-0.071067
N	 0.3472935002	-2.5393642333	-0.4791476178	-0.331223
C	 0.4283774151	-2.4322992112	-1.949801558	-0.052532
C	-0.461440069	-1.2427737296	-2.3450583936	-0.217288
C	-1.8826310829	-1.3488198119	-2.0540712804	 0.312071
N	-3.0127105117	-1.441841757	-1.8297891724	-0.339676
H	 1.4461981568	 0.6876774611	 0.949677258	 0.099077
H	 1.0391834393	 2.015156364	-0.1584287719	 0.121492
H	 0.0123352509	 1.6955582889	 1.2443984694	 0.128324
H	-0.7393239254	-0.3013638517	 0.2244519497	 0.243464
H	 0.9885161469	 0.3976240287	-2.0128170981	 0.090041
H	 2.3559152979	-1.6411237361	-0.9091380707	 0.102974
H	 0.872775831	-3.365334129	-0.198342779	 0.239919
H	 0.673525743	-3.2850424202	-2.5686705896	 0.11152
H	-0.3270472441	-0.9578817776	-3.3911894053	 0.125977
