16
gdb 48551	3.03231	1.48429	1.4159	2.6631	69.55	-0.2509	-0.0371	0.2138	970.3897	0.125365	-437.841907	-437.834899	-437.833954	-437.873572	26.885	
O	-0.2401557298	 0.1247160277	-0.3420655061	-0.262401
C	-0.0067188431	 1.2431951861	 0.0478607387	 0.028138
C	 1.3355290551	 1.8366815822	 0.0952946746	 0.268685
C	 1.8985306019	 2.7232756444	 1.1491840883	-0.100828
C	 3.3080742221	 2.2345359372	 1.4634871043	-0.105557
O	 3.6079888074	 1.2479817701	 0.4710915335	-0.257534
C	 2.6692665626	 1.4407365713	-0.5719324009	 0.000202
C	 2.7103645244	 2.8949965552	-1.1013607608	-0.18114
N	 1.6036511065	 3.3218951298	-0.1653875209	-0.190835
H	-0.8104567853	 1.9286881639	 0.3982647201	 0.083628
H	 1.2719283149	 3.1071950597	 1.946836728	 0.119789
H	 4.0387796082	 3.053854424	 1.4313647478	 0.115909
H	 3.3555783517	 1.7711425397	 2.4546348731	 0.124416
H	 2.7156388737	 0.6031091237	-1.2636252801	 0.114983
H	 3.6534112978	 3.4370173027	-0.9833088895	 0.11604
H	 2.3463703621	 2.9990093423	-2.12524755	 0.126505
