20
gdb 118534	3.23363	0.76878	0.65351	2.5717	76.35	-0.261	0.026	0.287	1683.565	0.168338	-440.283847	-440.272868	-440.271924	-440.321458	37.296	
C	 0.1026930626	 1.4153001748	-0.1144825653	-0.257736
O	 0.0413067435	-0.0000903319	-0.0321495725	-0.252749
C	-1.256323716	-0.5610870463	 0.0353990565	 0.101121
C	-1.2410281557	-1.8714287831	-0.7555490462	-0.207001
C	-0.949996139	-1.6655797004	-2.2446546891	-0.076131
O	-0.9768968122	-2.8828528579	-2.9722650161	-0.415757
C	-1.66411699	-0.8344746975	 1.5062862191	-0.342092
C	-1.8589538476	 0.3719765133	 2.3059964518	 0.266629
N	-2.0266370001	 1.3290848787	 2.932132982	-0.313316
H	 1.1573330459	 1.6737717367	-0.2348466417	 0.131894
H	-0.454342754	 1.7888821752	-0.985931444	 0.11074
H	-0.2825818936	 1.9033043404	 0.7875569021	 0.145872
H	-1.9895722526	 0.1282582192	-0.4106257949	 0.088916
H	-0.4744601045	-2.5281038921	-0.3218746253	 0.099978
H	-2.2043953572	-2.382693753	-0.6506137486	 0.107712
H	-1.7287015975	-1.0370073607	-2.6920442846	 0.109752
H	 0.0062027807	-1.1394901008	-2.3636728679	 0.108412
H	-0.2110760302	-3.4019958895	-2.7073909491	 0.283143
H	-2.5946937123	-1.4123816696	 1.528781956	 0.151384
H	-0.8853955502	-1.4471500355	 1.9731782277	 0.159229
