16
gdb 18141	3.4473	1.94705	1.56927	1.5838	69.73	-0.2517	0.0386	0.2904	845.2785	0.129858	-346.532542	-346.525039	-346.524095	-346.563956	28.966	
O	 0.1207433741	 1.374745139	 0.2546793126	-0.43111
C	-0.0149194675	-0.0083329746	 0.1141458937	 0.122784
C	-0.4414050929	-0.871395068	 1.2624795305	-0.094999
C	-1.4755457271	-0.1199004466	 2.1065924286	-0.247095
C	-2.4162109205	-0.0246583842	 0.8458247971	-0.171708
C	-2.8898848959	 1.2755954932	 0.3953865022	 0.311412
C	-3.2708914035	 2.3492104981	 0.0050016385	-0.465869
C	-1.3282984812	-0.722614397	 0.0052919803	-0.134055
H	-0.6265794413	 1.8045426916	-0.1766925461	 0.294099
H	 0.7658513744	-0.4517299472	-0.5032671282	 0.093755
H	 0.137193298	-1.724765433	 1.593945269	 0.090783
H	-1.924132072	-0.7175863405	 2.9008896001	 0.107601
H	-1.1335611127	 0.8351437278	 2.5090720781	 0.122308
H	-3.2721519459	-0.6919332828	 0.9811750571	 0.11015
H	-3.6227461067	 3.2947181016	-0.3270713026	 0.200595
H	-1.5416821993	-1.4216315474	-0.7950517008	 0.091349
