17
gdb 84828	3.05727	1.21958	0.97868	4.0186	70.74	-0.2634	-0.0013	0.2622	1194.6107	0.135701	-458.990568	-458.982195	-458.981251	-459.024325	30.721	
O	-0.1492496696	 0.9999797573	-0.8531399575	-0.4268
C	-0.1107243088	-0.1728646866	-0.0677217091	 0.092408
C	 0.4104270906	-0.0006749832	 1.3405943723	-0.114897
C	-0.3310927573	-0.6534101858	 2.232295728	-0.056119
C	-1.4897670695	-1.3828988633	 1.5925424896	-0.280867
C	-1.5211168054	-0.818545238	 0.1601064729	 0.06027
O	-2.5168938458	 0.2151978867	 0.120262875	-0.202506
C	-3.0899893377	 0.4849633844	-1.0728330787	 0.171589
O	-3.8495092901	 1.3932235065	-1.2251854151	-0.277032
H	-0.6632304544	 1.6554917608	-0.3661527207	 0.294219
H	 0.5220533428	-0.8672262841	-0.6350851764	 0.101671
H	 1.3066756402	 0.5730881387	 1.545064734	 0.108133
H	-0.1353995524	-0.7043404426	 3.2973191084	 0.105942
H	-1.3188217034	-2.4669032615	 1.5809109798	 0.118801
H	-2.4458349747	-1.2160465105	 2.0985303268	 0.13124
H	-1.7585989158	-1.5719441804	-0.5969607995	 0.088179
H	-2.7969231187	-0.2296074883	-1.8638798298	 0.085769
