22
gdb 107146	4.17146	0.99493	0.94009	1.3829	87.39	-0.2393	0.0855	0.3248	1373.591	0.194416	-367.164391	-367.155484	-367.15454	-367.197998	34.709	
C	 0.247516512	 1.4938253641	 0.253876758	-0.378965
C	-0.1291829353	 0.0383790393	-0.054527321	-0.274893
C	 0.4912391991	-0.4582764707	-1.3288797794	 0.369938
C	 0.0673261506	-0.0611312263	-2.7630357602	-0.390787
C	 0.4456924352	-1.4903328312	-3.213861599	 0.38341
C	-0.3300039534	-2.3600213004	-4.1534417396	-0.332189
C	 1.0862781071	-1.9442569852	-4.4952037402	-0.328216
C	 0.8559813943	-1.8415461858	-1.7968005085	-0.197122
N	 1.8812315335	-0.9151109627	-1.3095235977	-0.364083
H	 1.3325954988	 1.5969472853	 0.3521203159	 0.127631
H	-0.0841198374	 2.1692066601	-0.5424918637	 0.113566
H	-0.2119132352	 1.8306819296	 1.1880541465	 0.110747
H	 0.1999684031	-0.6098046658	 0.7648685284	 0.108329
H	-1.2204500987	-0.0577733871	-0.1222121034	 0.093402
H	-1.0053366024	 0.1358587012	-2.8538082411	 0.105964
H	 0.620152967	 0.772836731	-3.2105808941	 0.093191
H	-0.5004871174	-3.3935554651	-3.8681586329	 0.113752
H	-1.1453633873	-1.9143731486	-4.7146143173	 0.111533
H	 1.2217350678	-1.2131128883	-5.2860161154	 0.111867
H	 1.8669922932	-2.696923601	-4.4461482198	 0.114184
H	 0.7548999296	-2.8050086549	-1.3074595598	 0.08674
H	 2.4392610358	-0.5333397874	-2.072019536	 0.222001
