14
gdb 24004	3.52217	1.40836	1.01915	4.8031	76.96	-0.2431	-0.0279	0.2152	1085.436	0.104031	-395.749673	-395.742615	-395.74167	-395.781798	25.68	
N	-0.0788715443	-1.2209164988	-0.1397704928	-0.351003
C	-0.0860579567	-0.0659618506	-0.0381431076	 0.224814
C	-0.085082537	 1.335565796	 0.0876380061	 0.118518
C	-1.0994092621	 2.2842786949	-0.0676040387	-0.15686
N	-0.6618603947	 3.5677771561	 0.1508600054	-0.357342
C	 0.6116849732	 3.392254279	 0.4367422202	 0.388315
C	 1.9833884607	 3.9261200448	 0.8102464332	-0.367803
C	 2.4165506588	 2.4044217892	 0.7768780167	-0.169452
N	 1.0101320226	 2.1124768924	 0.4164437069	-0.067082
H	-2.1259396926	 2.0762572039	-0.329453407	 0.140559
H	 2.4698110942	 4.5547262766	 0.0618766493	 0.148043
H	 2.0592088932	 4.3998855549	 1.7908624299	 0.148054
H	 3.1295215216	 2.1313776403	-0.003066067	 0.150609
H	 2.716410983	 1.9758142414	 1.7347784954	 0.150629
