20
gdb 22410	4.56182	0.8791	0.84303	1.0276	83.69	-0.2397	0.0076	0.2474	1426.6293	0.16998	-403.086821	-403.078013	-403.077069	-403.122218	33.556	
O	-0.2550509208	 1.3699162365	 0.5788056862	-0.396247
N	-0.023091351	-0.0109553493	 0.4123928244	-0.233633
C	-1.0438620625	-0.5825796955	-0.0706851051	 0.42714
C	-2.4316584682	-0.1537741276	-0.4976249977	-0.387907
C	-2.7295538052	-1.6531839136	-0.837813866	 0.376905
C	-3.9845741024	-2.3027208636	-0.1999326845	-0.278493
C	-4.7089220631	-2.1620794167	-1.5660955599	-0.206306
C	-3.3182965088	-1.9824602781	-2.2331000358	-0.280262
C	-1.2778912902	-2.0374977444	-0.4162065814	-0.407819
H	 0.5821788287	 1.6710617827	 0.9473008572	 0.304897
H	-3.0372213171	 0.2857384525	 0.3019282078	 0.123174
H	-2.4447956551	 0.5341419015	-1.3499369913	 0.12266
H	-3.8039794126	-3.3518565712	 0.0563281872	 0.100144
H	-4.4216671806	-1.8030061897	 0.6692513343	 0.097221
H	-5.3256449359	-2.9992293506	-1.8999257691	 0.097898
H	-5.3070356889	-1.2482803197	-1.6182237122	 0.105709
H	-3.2149458513	-1.2226677803	-3.0130753664	 0.09676
H	-2.9279410902	-2.930655541	-2.6172604601	 0.100225
H	-0.6526174684	-2.4202216315	-1.2301705115	 0.118951
H	-1.2073602263	-2.7331666206	 0.4266192639	 0.118983
