16
gdb 94970	3.59709	1.38936	1.19003	2.9726	65.3	-0.263	0.0089	0.2719	1027.4423	0.12517	-475.011337	-475.003778	-475.002834	-475.043556	28.608	
O	 0.032584903	 1.31571154	 0.0736099438	-0.435743
C	-0.0451984121	-0.0939409467	-0.0486492578	 0.094248
C	 0.5075143159	-0.8422523221	 1.1805141754	-0.134467
O	-0.5173698457	-0.774605609	 2.1703290796	-0.246386
C	-1.7478575736	-0.8735320282	 1.4978577871	-0.007533
C	-1.5333886487	-0.4235747864	 0.0303677253	 0.073905
O	-1.8469498331	-1.7697246299	-0.4388267498	-0.274371
C	-2.0707303983	-2.2270629818	 0.8527949282	 0.401093
N	-2.4111683199	-3.35582269	 1.2702390402	-0.540941
H	 0.9460818747	 1.5584883644	 0.2526084061	 0.291212
H	 0.4029580587	-0.4548048115	-0.9841501839	 0.089076
H	 0.7328589366	-1.8861355602	 0.9174705587	 0.115661
H	 1.4090660865	-0.3849516253	 1.5976859222	 0.110478
H	-2.5319198374	-0.4296108065	 2.1096695825	 0.120571
H	-2.1746530641	 0.329745038	-0.4244951661	 0.111382
H	-2.5261818326	-4.0230104448	 0.5044558384	 0.231816
