18
gdb 46578	2.78658	1.78551	1.42478	3.1403	76.62	-0.2403	0.0215	0.2618	963.9017	0.150222	-401.92674	-401.919628	-401.918684	-401.958068	28.711	
N	-0.0196209967	 1.2781139626	 0.2557293497	-0.547511
C	-0.0077961997	 0.0346062597	 0.0351209444	 0.33189
O	 1.1460395801	-0.7079400429	-0.1648995668	-0.256641
C	 0.8616351266	-1.9663901992	-0.8315040281	-0.162599
C	-0.6226445868	-2.1852314993	-0.6613352866	 0.205373
C	-1.1609960937	-2.1380664863	 0.7312303277	-0.358763
C	-1.1686742814	-0.8711845215	-0.0869611354	 0.195525
C	-2.3140247824	-0.8569484145	-1.1143061961	-0.287993
C	-1.741199021	-2.1842576019	-1.7246295889	-0.284657
H	 0.9282860689	 1.6560570503	 0.2072686557	 0.22223
H	 1.1343944982	-1.8778171092	-1.89042819	 0.112315
H	 1.5014700318	-2.7221512207	-0.3662992981	 0.119508
H	-2.1149571075	-2.6061314754	 0.9547755555	 0.121319
H	-0.4334467492	-2.1858252042	 1.5339683056	 0.135337
H	-3.3222359388	-0.9008088915	-0.694174118	 0.109077
H	-2.2563637785	-0.0093570815	-1.7981682538	 0.126966
H	-1.3538467634	-2.0429566586	-2.7363385779	 0.111992
H	-2.3988293266	-3.0582920759	-1.7232365189	 0.106631
