16
gdb 98748	2.90075	1.29228	1.13869	2.6544	67.39	-0.2599	-0.0478	0.212	1125.1009	0.122136	-475.032902	-475.023748	-475.022804	-475.06761	31.208	
C	-0.2227989094	 1.1438407688	 0.4000703589	-0.233695
O	-0.1989255944	-0.2453971442	 0.0490703061	-0.239786
C	-1.403583917	-0.7671917121	-0.2420955759	 0.524385
O	-2.4467562408	-0.1684425655	-0.2403998505	-0.403814
N	-1.2570228944	-2.0933871964	-0.6654398255	-0.13948
C	-0.4952782736	-3.1017264288	 0.0083566973	-0.2298
C	-2.0090920302	-3.186879478	-0.0812674257	-0.106061
C	-2.7473057525	-2.9617751647	 1.2050383047	 0.153612
O	-2.3888932563	-2.1785143017	 2.0481117684	-0.251297
H	 0.8142575695	 1.4145812177	 0.5985650715	 0.13278
H	-0.6242408946	 1.7415309245	-0.4219645744	 0.142301
H	-0.8382084308	 1.3034070313	 1.2885904187	 0.148896
H	 0.1078917726	-3.7480636309	-0.6226480239	 0.134393
H	-0.0930163122	-2.8637667817	 0.9889732308	 0.155623
H	-2.4739235915	-3.8683506948	-0.7885513414	 0.114096
H	-3.6517109244	-3.5907247537	 1.3411448909	 0.097847
