23
gdb 94714	3.13612	1.17938	1.01641	1.2172	85.13	-0.245	0.0805	0.3255	1283.652	0.20688	-388.300548	-388.291667	-388.290723	-388.33342	35.942	
C	 0.0348900347	 1.5738207767	 0.0313649579	-0.404395
C	 0.0111087443	 0.0436874001	-0.0167840874	 0.055043
C	 0.6709328109	-0.5050159167	-1.2910139466	-0.209188
C	 0.4569220644	-2.0201660909	-1.4151031182	-0.286151
C	 0.8419474284	-2.7864812912	-0.1625294049	 0.417938
O	 0.2817166537	-4.0744728835	-0.0806667698	-0.472022
C	 2.1870596083	-2.590704959	 0.4860632444	-0.350419
C	 0.923483118	-2.0648153839	 1.1533386151	-0.069887
C	 0.6687413506	-0.5607406716	 1.2398441216	-0.224398
H	 1.0647112287	 1.9505513386	 0.013198971	 0.110814
H	-0.4931613011	 2.0083459576	-0.8240801897	 0.108377
H	-0.4383476386	 1.9511076881	 0.9444331374	 0.109768
H	-1.0394678907	-0.2820581019	-0.0330210171	 0.072179
H	 0.2546798679	-0.0080538322	-2.1748748685	 0.091956
H	 1.7433877406	-0.2648485397	-1.2828581511	 0.092969
H	-0.6073295867	-2.2177797979	-1.595533491	 0.104932
H	 1.0018348223	-2.4169335036	-2.2830179976	 0.082018
H	 0.7040738942	-4.6194243147	-0.754387547	 0.276196
H	 2.6535355884	-3.4686830962	 0.9190197972	 0.106069
H	 2.8776654519	-1.8658587751	 0.0646999666	 0.103761
H	 0.5851882014	-2.6525840105	 2.0002220034	 0.093237
H	 1.6171427458	-0.0383226724	 1.4272970012	 0.09381
H	 0.0349952825	-0.3496467401	 2.1082189535	 0.097391
