16
gdb 96751	3.99814	0.80265	0.674	1.3781	76.62	-0.2478	-0.0772	0.1706	1590.9628	0.119753	-437.845183	-437.835118	-437.834173	-437.881383	34.188	
C	-0.0960695796	 1.4838912593	 0.1519814858	-0.313318
N	-0.0335828719	 0.0331274164	 0.0677290832	-0.304191
C	 0.5169539559	-0.5617926032	-0.9021870357	 0.339189
O	 0.5750027716	-1.9126902505	-0.9807218743	-0.252146
C	-0.0297345984	-2.6237400811	 0.1096306368	-0.234084
C	 0.1155161936	-4.0505311773	-0.1234509579	 0.293466
C	 0.2176996339	-5.2358075415	-0.2843226838	-0.409187
C	 1.1957028991	 0.0136975228	-2.1219762893	 0.101324
O	 1.3045063368	 1.1944001232	-2.3315704716	-0.238596
H	 0.9004779342	 1.9381157218	 0.1728955962	 0.13856
H	-0.6263750731	 1.9243919662	-0.6991488613	 0.138625
H	-0.6229804565	 1.7510328892	 1.0712609038	 0.121324
H	 0.4474126319	-2.3191957468	 1.0485812622	 0.15067
H	-1.0843351051	-2.3346530584	 0.1889321406	 0.150677
H	 0.3088948106	-6.2841426716	-0.428582422	 0.205261
H	 1.5899890568	-0.7557982386	-2.8161955228	 0.112425
