20
gdb 23308	2.90793	1.23902	0.95535	1.1471	83.07	-0.2275	0.0175	0.245	1264.9247	0.171393	-403.118269	-403.10973	-403.108786	-403.151194	33.574	
C	 0.0650692339	 1.5902285676	-0.004245239	-0.398517
C	 0.0328327282	 0.0613626006	 0.0275123907	 0.018613
C	 0.6553714819	-0.6113310857	-1.2255598278	-0.340035
C	 1.2298378839	-1.9184235874	-0.7186346692	 0.433148
N	 1.4261747824	-3.0043096563	-1.355753445	-0.258318
O	 1.0779472137	-2.8695551725	-2.7165746599	-0.39814
C	 1.4821878977	-1.8193934068	 0.7388950343	-0.117374
C	 2.2654799992	-0.5925161739	 1.1823912483	-0.296606
C	 0.7656533321	-0.5670670432	 1.2156497658	-0.039159
H	 1.0955731154	 1.9602421787	-0.0416762739	 0.115246
H	-0.4629964415	 1.9786210827	-0.8815288392	 0.115027
H	-0.4096482307	 2.0155557476	 0.8862023659	 0.112859
H	-1.0142231594	-0.2617420796	 0.0927126324	 0.080559
H	-0.0651561688	-0.7816028255	-2.0275021321	 0.131949
H	 1.4542972063	 0.007399156	-1.6545679276	 0.119344
H	 1.2288277573	-3.7604479148	-3.0487257597	 0.303754
H	 1.5490291074	-2.7285012638	 1.3222822106	 0.097711
H	 2.784615468	-0.6751064672	 2.1306875129	 0.117198
H	 2.7996971291	-0.0153841851	 0.4347504611	 0.116614
H	 0.2750574337	-0.5511020914	 2.1828404213	 0.086127
