15
gdb 54624	4.12857	1.05241	0.84303	15.0476	72.79	-0.1797	-0.0746	0.1051	1272.9255	0.112487	-453.972568	-453.963916	-453.962972	-454.006712	31.082	
O	-0.0271650751	-0.0445659389	 0.0020857558	-0.463091
C	 0.0491974659	 1.1918156302	 0.0066346745	 0.30663
O	 0.987695941	 2.0103209693	 0.0036353311	-0.475657
C	-1.3260538781	 1.8977851187	 0.018635783	 0.242921
C	-2.569060061	 1.356209442	 0.026155893	-0.310809
C	-3.522988651	 2.4259460331	 0.0364436466	 0.527028
N	-4.8541120136	 2.3016392912	 0.0458528716	-0.579815
H	-5.2648923706	 1.3841156259	 0.0460273699	 0.299341
H	-5.4748910285	 3.0928776398	 0.0527738774	 0.281844
N	-2.8899294543	 3.6017851343	 0.0352707074	-0.345243
C	-1.439570712	 3.387886732	 0.0239902363	-0.258304
H	-2.796536475	 0.3005297797	 0.0245362645	 0.146089
H	-3.3421794729	 4.5013637523	 0.0411882741	 0.270224
H	-0.9535641353	 3.8197323345	 0.9044388358	 0.179449
H	-0.9664720394	 3.8253454761	-0.860721671	 0.179395
