14
gdb 16738	5.69064	1.45219	1.26328	3.0046	65.41	-0.2551	-0.0701	0.185	917.4715	0.107337	-382.539306	-382.532779	-382.531835	-382.57017	24.452	
O	-0.0465441372	-0.0083476264	 0.1322859007	-0.268697
C	 0.0109311739	 1.2003026367	 0.0756232699	 0.082038
C	 1.2616386518	 1.9579669267	-0.0104345263	 0.225261
C	 1.3411930802	 3.3003097616	-0.0475329435	-0.173209
C	 2.7663616082	 3.7347980216	-0.0489197042	 0.006527
O	 3.4723150484	 3.2990924708	 1.1345431913	-0.247374
C	 3.5762962091	 2.4964465267	-0.0404137018	 0.033312
C	 2.630010823	 1.3036076896	-0.0608714208	-0.339031
H	-0.9102984254	 1.8241953094	 0.0748755184	 0.072061
H	 0.4965475949	 3.9796467758	-0.0450309654	 0.120898
H	 3.0906199794	 4.6844649647	-0.4613960343	 0.10767
H	 4.5682981247	 2.4372090502	-0.4791697577	 0.106054
H	 2.7927268629	 0.6320274646	 0.7882665334	 0.145809
H	 2.7506839763	 0.7032411579	-0.9696715998	 0.128679
