23
gdb 116195	2.35196	1.36197	1.11058	1.1683	81.19	-0.2447	0.0805	0.3252	1252.8444	0.204268	-425.443692	-425.433606	-425.432662	-425.478463	37.63	
C	-0.0886679238	 1.6216082269	-0.3702376357	-0.38776
C	-0.0103283741	 0.0928222171	-0.4077941985	-0.198298
C	-1.211457961	-0.565595738	 0.2750618812	 0.106622
O	-2.4370843421	-0.1400852868	-0.3340338383	-0.279142
C	-2.8957780346	-1.1757507416	-1.1867211999	 0.012759
O	-1.988866591	-2.2436917471	-1.0980618729	-0.283338
C	-1.305426714	-2.1093527892	 0.1618703945	 0.343791
C	 0.0147908882	-2.8602222162	 0.043260423	-0.438474
C	-2.165009351	-2.6836284149	 1.2980515367	-0.431353
H	 0.7616304977	 2.0723198382	-0.8906206647	 0.108858
H	-1.0090568618	 1.9705650248	-0.8449803889	 0.133506
H	-0.0838573535	 1.9924540477	 0.6611110596	 0.110599
H	 0.0433078791	-0.254677615	-1.4463710755	 0.10564
H	 0.9082913803	-0.2432036777	 0.0884708497	 0.094356
H	-1.2533032885	-0.2491620287	 1.3248612047	 0.076033
H	-3.9075907486	-1.469233435	-0.8619814748	 0.090676
H	-2.9317259485	-0.8415229181	-2.2324902867	 0.103755
H	 0.5852342875	-2.5232971419	-0.8238514012	 0.127714
H	 0.6223275833	-2.7193038296	 0.9423971076	 0.116999
H	-0.1775004619	-3.9308908867	-0.0707116272	 0.123395
H	-2.4249458686	-3.7237717411	 1.082037705	 0.120982
H	-1.6206895811	-2.6535803257	 2.2473444888	 0.114223
H	-3.0889611618	-2.1118992315	 1.4224008238	 0.128457
