14
gdb 25246	3.43632	1.67486	1.13409	1.7024	71.53	-0.2328	-0.0213	0.2116	985.2748	0.105273	-432.912733	-432.906271	-432.905327	-432.943636	25.089	
N	-0.0363481066	 1.3335114498	 0.0114316529	-0.576273
C	-0.0555357714	 0.0684060011	 0.0039444287	 0.361425
O	 1.0634271893	-0.7515234014	-0.0069011285	-0.275401
C	 0.7147584351	-2.1618531594	-0.0135152378	-0.195896
C	-0.7791642513	-2.134151497	-0.0054522203	 0.257373
C	-1.1835225711	-0.8352256657	 0.0044471869	 0.238309
N	-2.5517430852	-0.8677532595	 0.0115001631	-0.398068
C	-2.8883043945	-2.1973437503	 0.0055278067	-0.002075
N	-1.8344203866	-2.9987388966	-0.0049962827	-0.343158
H	 0.9240076363	 1.6790525034	 0.008453337	 0.226527
H	 1.1505365833	-2.6210282491	-0.907843814	 0.138798
H	 1.159919045	-2.6316960133	 0.8705939063	 0.138798
H	-3.1804226451	-0.0815695617	 0.0194525439	 0.286182
H	-3.918455957	-2.5216423502	 0.0091297078	 0.143457
