20
gdb 7821	3.23214	1.63536	1.16606	1.6539	71.56	-0.2477	0.0792	0.3269	1056.625	0.177837	-386.156503	-386.148374	-386.147429	-386.188528	31.566	
C	-0.0058759186	 1.5182857706	 0.0492085587	-0.399765
C	 0.028767656	-0.0013618165	-0.0122115168	 0.129938
C	 0.7109092025	-0.5335959005	-1.2804188731	-0.188334
C	 0.8223174242	-2.055806494	-1.2438784004	 0.116608
O	 1.5569383132	-2.4590309876	-2.3912278714	-0.438973
C	 1.4850880893	-2.4921143371	 0.067271518	-0.232391
C	 0.7562305054	-1.8610705414	 1.257536276	-0.077924
O	 0.7123472617	-0.4513491659	 1.1542182022	-0.254756
H	 1.0106934301	 1.9230568774	 0.0292893751	 0.123805
H	-0.5588514609	 1.9253087847	-0.8025806496	 0.113709
H	-0.489361567	 1.8509360149	 0.9715409714	 0.121628
H	-1.0066877688	-0.3884601295	 0.0179294621	 0.059655
H	 0.1550513742	-0.2217685196	-2.1710822396	 0.099586
H	 1.7197410174	-0.1097401705	-1.3539628219	 0.107011
H	-0.1964961067	-2.4816207346	-1.2780670656	 0.059171
H	 1.6579763186	-3.4159546342	-2.3580838652	 0.277738
H	 1.47743983	-3.5859788892	 0.1626952177	 0.081862
H	 2.5306773909	-2.163362895	 0.0592691452	 0.111107
H	-0.2677422354	-2.2690234989	 1.3295888375	 0.083005
H	 1.2689663942	-2.0857434829	 2.1972305795	 0.107319
