15
gdb 31690	6.89512	0.88919	0.79155	1.8107	72.48	-0.2173	-0.0514	0.1659	1367.6529	0.112878	-453.988565	-453.980338	-453.979394	-454.021983	28.928	
C	-0.0030751568	 1.4163355146	 0.0350251778	-0.236804
O	 0.0046828377	-0.0099953846	 0.0018104724	-0.270333
C	 0.6165636413	-0.6273215748	 1.0213288482	 0.389814
C	 0.7369000226	-1.9789123814	 1.1796459308	-0.250589
N	 1.4442526982	-2.1302983625	 2.3777579848	-0.05088
C	 1.825161614	-3.3272107281	 2.9845154007	 0.183466
O	 2.4338360487	-3.389796149	 4.0184592894	-0.279824
C	 1.6980198618	-0.8626928281	 2.8531914673	 0.039227
N	 1.2148994586	 0.0570833827	 2.0626105624	-0.351187
H	 1.0144853481	 1.8185731625	 0.0247861038	 0.13595
H	-0.5375876451	 1.7269454085	-0.8636839952	 0.130501
H	-0.5175347147	 1.7892662801	 0.9258501879	 0.135989
H	 0.4083469578	-2.8169339022	 0.591970175	 0.147111
H	 1.498997259	-4.2055105669	 2.40010231	 0.108544
H	 2.2364229686	-0.7094995707	 3.7744038447	 0.169014
