17
gdb 98037	5.61317	0.56697	0.51987	3.2854	85.76	-0.2573	-0.0485	0.2088	2073.2701	0.131659	-384.645558	-384.635045	-384.634101	-384.68386	35.723	
C	-0.0887447478	 1.517075403	 0.154928864	-0.384983
C	 0.0335465507	 0.0080039455	-0.0370974331	-0.278017
C	 0.7559961416	-0.3784988472	-1.3184029963	 0.215701
O	 1.1901906472	 0.435685182	-2.1049900914	-0.288363
C	 0.8950097928	-1.8072999956	-1.5439293138	-0.019362
C	 1.0044212501	-2.9953044047	-1.72043866	 0.186425
C	 1.1372255591	-4.4354350938	-1.9369232541	-0.505645
C	 1.8443921209	-4.7885709445	-3.1682306515	 0.31648
C	 2.4228999567	-5.0915062228	-4.1748579841	-0.429007
H	 0.8970162817	 1.9877078127	 0.1889966291	 0.133968
H	-0.6376798397	 1.972984968	-0.672842519	 0.133954
H	-0.6141828625	 1.7433867894	 1.0867363843	 0.110236
H	 0.5684164484	-0.4643036016	 0.7981742222	 0.129127
H	-0.9509464762	-0.4791192331	-0.0537718021	 0.129075
H	 1.6531006946	-4.8795916388	-1.0741076781	 0.17155
H	 0.135988698	-4.8886205126	-1.942956625	 0.171644
H	 2.9367522643	-5.3509743857	-5.0673629011	 0.207218
