19
gdb 102928	2.6374	1.02724	0.77738	2.4302	76.23	-0.2281	-0.0227	0.2054	1468.8366	0.156121	-456.349056	-456.33828	-456.337335	-456.385946	36.422	
C	 0.2124137388	 0.7294148206	 0.6666367953	-0.226061
O	-0.1266785585	-0.5430595298	 0.1154319143	-0.254808
C	-1.4462136587	-0.7900435872	-0.0450073431	 0.499931
N	-1.630270233	-2.0768892121	-0.5100217448	-0.376624
C	-0.5390733968	-2.8733343439	-1.0353766216	-0.249129
C	 0.4305370322	-3.3262169675	 0.0536481173	 0.177532
O	 1.5475356749	-3.705294974	-0.1703096692	-0.240249
N	-2.3321544029	 0.0737267837	 0.2421036458	-0.353337
C	-3.722746123	-0.284120751	 0.047693592	-0.337784
H	 1.3010946878	 0.737146027	 0.7319170675	 0.130239
H	-0.1420961351	 1.5364692849	 0.0208104961	 0.138159
H	-0.2357166332	 0.8543779667	 1.6555680506	 0.137816
H	-2.5515392479	-2.271254174	-0.8625388177	 0.25459
H	-0.9684688863	-3.7817799736	-1.4747144468	 0.133402
H	 0.0383978026	-2.3698386534	-1.8196697552	 0.142915
H	-0.0017237167	-3.3052300488	 1.0788922492	 0.086874
H	-4.3567726	 0.5576812842	 0.3375525076	 0.12688
H	-3.9638352704	-0.5185138722	-1.0036371664	 0.100495
H	-4.0285664239	-1.1501386395	 0.6564220391	 0.109159
