17
gdb 78444	3.18155	1.43888	1.25659	2.6773	71.76	-0.2342	-0.0049	0.2293	1022.9851	0.13676	-421.792689	-421.785541	-421.784597	-421.823987	29.055	
O	-0.0586442123	 1.3472614016	-0.0631423193	-0.437748
C	 0.0329031401	-0.043847452	-0.0310206793	 0.054158
C	-0.3997057443	-0.7422214201	 1.2458095045	-0.097444
C	-1.2965573823	-0.7431014312	 0.0056363601	-0.053032
C	-1.3477583067	-2.2446616136	-0.3173836249	-0.16412
C	-1.5455167447	-2.8512542021	 1.1274936737	-0.239219
C	-0.1121566858	-2.2441532877	 1.3985380033	-0.162614
C	 0.1075416462	-2.6813867535	-0.0629342903	 0.42401
O	 0.9342417927	-3.3068055362	-0.6571995591	-0.334999
H	 0.7005441749	 1.7071243157	 0.4079488444	 0.28996
H	 0.8450370368	-0.4690060228	-0.6230449399	 0.109138
H	-0.6315306741	-0.1386099008	 2.1154439838	 0.098532
H	-2.194191553	-0.1401062896	-0.0547318012	 0.107127
H	-1.9127744256	-2.5821958266	-1.1833976211	 0.088313
H	-2.3590393038	-2.4204098074	 1.7139650643	 0.113346
H	-1.5734001157	-3.9432144085	 1.1466548098	 0.118841
H	 0.5303691875	-2.5837256053	 2.2080743712	 0.085751
