17
gdb 19373	4.23774	1.61364	1.44072	1.9262	67.41	-0.2242	0.0619	0.2862	907.5725	0.142443	-363.76228	-363.755087	-363.754143	-363.793691	28.031	
O	 0.1439133422	 1.3815358872	 0.1324507119	-0.413268
C	 0.0204424012	-0.0189931088	-0.0849666582	-0.173574
C	-1.3990635725	-0.4899635284	-0.0210149032	 0.314951
C	-2.087565813	-0.9568923032	 1.2402884728	-0.36685
C	-1.9787385144	-1.8833377278	 0.0590028192	-0.060236
N	-2.9043532465	-1.6597030095	-1.1232458947	-0.141523
C	-3.8227550443	-0.5364291968	-0.8510211965	-0.250995
C	-2.4103529099	-0.2350023052	-1.1595985145	-0.081016
H	-0.2707195086	 1.5770158163	 0.9795263079	 0.281385
H	 0.4365009467	-0.192737966	-1.0839610116	 0.114688
H	 0.6310078281	-0.5959998636	 0.628250983	 0.086569
H	-1.3977467026	-1.2243708602	 2.0367149672	 0.117158
H	-3.0186935205	-0.5385560617	 1.6051792937	 0.116765
H	-1.4899021502	-2.8477895499	 0.1162312522	 0.10727
H	-4.5328364444	-0.3997090801	-1.6620659	 0.125427
H	-4.2522358376	-0.3874850297	 0.1328331063	 0.119432
H	-2.1004021739	 0.2166325374	-2.0970387855	 0.103816
