20
gdb 112634	3.17938	1.113	0.86626	5.8148	85.16	-0.2134	-0.0092	0.2042	1360.638	0.171442	-403.206922	-403.197588	-403.196644	-403.241354	35.056	
C	 0.0995020536	 1.5832949132	 0.1435488865	-0.388023
C	-0.0195315977	 0.0623363711	 0.0100655251	-0.176551
C	 0.6154059438	-0.5044250376	-1.2731616259	-0.095298
C	 0.7012042235	-2.0455820645	-1.2998694174	-0.344349
C	 0.0395656528	-2.4481640904	-2.5976572297	 0.393959
N	 0.0216723795	-3.7562004583	-2.9615770356	-0.576385
C	-0.4493961858	-1.380530138	-3.2769849198	-0.320669
C	-0.1770127916	-0.1467142649	-2.5575338931	 0.400432
O	-0.5006294919	 0.9823774702	-2.8770592047	-0.376236
H	 1.1515027519	 1.8880001289	 0.1914859308	 0.104867
H	-0.3534864827	 2.0823586441	-0.7144728014	 0.157858
H	-0.3895677329	 1.9322547675	 1.058761489	 0.10026
H	 0.4570826341	-0.4197510909	 0.8739684877	 0.087158
H	-1.0769482517	-0.2339052284	 0.0410543081	 0.095199
H	 1.6177939058	-0.0719313377	-1.3830200045	 0.093357
H	 1.7312503232	-2.4190073187	-1.2569300399	 0.117943
H	 0.169117683	-2.4980559876	-0.4520597481	 0.112983
H	 0.2186429613	-4.4607452305	-2.2709533742	 0.260763
H	-0.5546193963	-4.0478175936	-3.7337243353	 0.264393
H	-0.9805330716	-1.4066598839	-4.2197589476	 0.088339
