19
gdb 35026	3.20545	1.45596	1.42124	0.5447	84.63	-0.2398	0.0117	0.2515	1010.3887	0.161505	-348.732281	-348.724965	-348.724021	-348.763589	30.493	
C	-0.0583886691	-1.2207287397	-0.1006810237	-0.451646
C	-0.0192285455	-0.0204711876	-0.0259529346	 0.314681
C	 0.0189669041	 1.4299874813	 0.0540412791	-0.171964
C	-0.3311569982	 2.0563861774	 1.4424669131	-0.064606
C	 0.8322351003	 1.4955515125	 2.3261212781	-0.205029
C	 2.0510230106	 1.5170257569	 1.3545155259	-0.205027
C	 1.4366703907	 2.0875321856	 0.0331711207	-0.064579
C	 1.0521701395	 3.527655202	 0.3241190999	-0.088359
C	 0.0069961753	 3.5092418996	 1.157322631	-0.088334
H	-0.0941655179	-2.2797526423	-0.169366438	 0.190931
H	-0.6126122954	 1.8612031184	-0.7286750958	 0.099301
H	-1.3308788425	 1.8524225415	 1.8254203871	 0.067451
H	 0.9849620697	 2.1075546978	 3.2175969999	 0.095929
H	 0.6059257019	 0.4762646643	 2.6491670894	 0.109443
H	 2.8727279425	 2.1408193188	 1.7126855822	 0.095931
H	 2.4382268556	 0.508548951	 1.1884771657	 0.109434
H	 2.0368764071	 1.9117553335	-0.859327135	 0.067447
H	 1.6134073526	 4.3900983221	-0.0133133079	 0.094496
H	-0.4654093613	 4.3534739968	 1.6439042729	 0.0945
