16
gdb 55425	2.67762	1.49577	1.01245	1.8977	64.98	-0.2574	-0.0051	0.2523	1118.9701	0.126001	-475.109522	-475.101532	-475.100587	-475.142771	29.559	
N	-0.2094576324	 1.3829766812	-0.0956524515	-0.52287
C	 0.040692533	 0.0519249659	-0.1985855053	 0.387538
O	 1.0958810717	-0.4276766582	-0.5620225649	-0.354896
C	-1.1732249386	-0.843254434	 0.1181637963	-0.271072
C	-0.8266810455	-2.3198935837	 0.3123908152	-0.24302
C	-1.8516475107	-2.771599132	 1.3627502578	-0.096686
O	-2.2284994883	-1.5833566311	 2.0923668858	-0.207819
C	-1.9128865262	-0.4697385851	 1.4055161405	 0.451557
O	-2.2006803542	 0.6324542832	 1.7947253148	-0.357616
H	 0.5811995425	 2.0009144185	-0.1923139351	 0.26072
H	-0.994473816	 1.6796048791	 0.4713665773	 0.281114
H	-1.8936180211	-0.696202412	-0.6973163908	 0.142655
H	-0.8918912093	-2.9055422467	-0.6050570713	 0.125927
H	 0.1967849688	-2.4020936692	 0.6843483455	 0.145902
H	-2.7582750626	-3.1898019224	 0.9121265726	 0.123432
H	-1.4580045611	-3.4869737636	 2.0867521732	 0.135134
