15
gdb 131474	3.38503	1.65276	1.16789	1.1533	74.01	-0.2261	-0.0346	0.1915	990.4328	0.115604	-416.821247	-416.814433	-416.813489	-416.852486	26.645	
O	 0.1710543344	 1.4142164024	-0.1796096955	-0.410446
C	 0.0486903573	 0.0091493884	-0.0422940745	-0.061985
C	 0.5878850455	-0.5594951941	 1.2771418442	-0.173134
C	-0.352570151	-1.2912900831	 1.8838320405	-0.02
N	-1.5192597975	-1.2765672075	 1.0962578445	 0.047681
N	-2.7418268986	-1.803520044	 1.2544201638	-0.290916
C	-3.3970953857	-1.3657605633	 0.1752094764	 0.012833
C	-2.5875686284	-0.5573595237	-0.668379752	-0.392035
C	-1.3686917404	-0.5255512768	-0.0281973682	 0.369849
H	-0.3412348191	 1.819368474	 0.5296579984	 0.285914
H	 0.6144739671	-0.4025960999	-0.8870441006	 0.124831
H	 1.591214465	-0.3772458016	 1.631076988	 0.122975
H	-0.3443479088	-1.8446530351	 2.8105920118	 0.150983
H	-4.4311912692	-1.6441100371	 0.0333672476	 0.116874
H	-2.8671660007	-0.0811926185	-1.5936883044	 0.116576
