21
gdb 109673	2.55586	1.07987	1.00458	1.1718	74.94	-0.2376	0.0557	0.2933	1322.5732	0.180552	-461.336259	-461.325971	-461.325027	-461.371408	38.442	
C	 0.022246341	 1.5173991859	-0.4096746353	-0.405658
C	 0.0368818303	 0.075673125	 0.115430754	-0.224542
C	-1.3449323843	-0.547130302	 0.1216147108	 0.347163
O	-2.3154365841	 0.1595373889	 0.8565379506	-0.471571
C	-1.8508919433	-1.296523188	-1.087446626	 0.025428
O	-0.9900867919	-1.4950875628	-2.1677019446	-0.430745
C	-1.5672716234	-2.0457564172	 0.2072328992	-0.155983
C	-0.4503360802	-3.0668620255	 0.2086717225	-0.119361
O	-0.57726458	-4.0048129378	-0.8747373649	-0.415877
H	 1.0306543888	 1.9408693192	-0.4096342275	 0.116164
H	-0.3565874698	 1.5547952804	-1.4364047254	 0.130359
H	-0.6017457118	 2.1647479934	 0.2156649002	 0.11087
H	 0.6936449377	-0.5215277241	-0.5211190477	 0.115847
H	 0.4450243744	 0.0548791167	 1.1333739148	 0.097288
H	-2.5375342772	 0.954761709	 0.3596454211	 0.283427
H	-2.8976917492	-1.1419314391	-1.3508948269	 0.084053
H	-0.80748248	-2.4458914765	-2.2037049692	 0.296298
H	-2.4476355293	-2.3143985196	 0.7843375269	 0.096165
H	 0.5258785392	-2.6033526222	 0.0599162086	 0.125659
H	-0.415415216	-3.5979230683	 1.1690916262	 0.106111
H	-1.4237664709	-4.4530454152	-0.7729930371	 0.288905
