15
gdb 27904	2.06609	1.86035	0.97993	3.9368	73.15	-0.2142	0.0138	0.2281	1128.2623	0.115863	-450.219619	-450.211853	-450.210909	-450.251401	30.863	
N	 0.0604915555	 1.344777952	-0.133368792	-0.569725
C	-0.0034474372	-0.0242600026	-0.0809131071	 0.402804
C	-1.2194029593	-0.7090114235	-0.056399637	-0.289337
C	-1.1449062114	-2.1049560527	-0.0549066814	 0.406351
N	-2.2671259831	-2.8899035379	-0.0783614494	-0.569185
N	 0.0251407987	-2.7663748813	-0.0688342491	-0.376057
C	 1.1022967413	-1.9975898222	-0.0926121136	 0.442128
O	 2.2748722689	-2.6555583074	-0.1068922078	-0.399085
N	 1.1771771834	-0.6671793081	-0.0948600976	-0.439067
H	 0.9606410225	 1.7377491623	 0.0926693533	 0.255966
H	-0.7375512606	 1.8672156752	 0.1875148086	 0.253
H	-2.168300599	-0.1867822938	-0.0577592452	 0.072388
H	-3.1358700862	-2.4929362006	 0.2375619498	 0.252369
H	-2.1124480723	-3.8598016986	 0.1481174899	 0.260064
H	 2.9567353087	-1.9708688908	-0.1246567513	 0.297386
