15
gdb 49032	2.80179	1.3935	1.127	3.3868	71.56	-0.2671	-0.0669	0.2001	1073.7401	0.112147	-416.776716	-416.768756	-416.767812	-416.809524	28.884	
O	-0.2943854912	 0.4142749924	-0.7638533066	-0.241916
C	 0.0306618475	 1.1366922339	 0.1441885945	 0.080873
C	 1.3131753269	 1.893442898	 0.1736606469	 0.218933
C	 1.7653916341	 2.9187147491	 1.2092533148	-0.330131
C	 2.2516753843	 3.7818956281	 0.0183194018	-0.16316
N	 1.7237772265	 2.7962180687	-1.0030075534	-0.15513
C	 2.4088612065	 1.5150371879	-0.7705431167	-0.198992
C	 3.7800481277	 1.4369063901	-0.3329105244	 0.322624
N	 4.8813715296	 1.3831264035	 0.0160172822	-0.337764
H	-0.6210391351	 1.2925712665	 1.0309168995	 0.091881
H	 0.9250932776	 3.3676565063	 1.7425016566	 0.127867
H	 2.5104944658	 2.5805918728	 1.9324728346	 0.138789
H	 1.7185303546	 4.7251077952	-0.0979766997	 0.132243
H	 3.3270083843	 3.9548728692	-0.0634730584	 0.145964
H	 2.1187584009	 0.7709381585	-1.5066838918	 0.167919
