19
gdb 55456	3.30787	1.16396	0.91617	1.5683	71.95	-0.2473	-0.0175	0.2298	1268.7634	0.158792	-460.18513	-460.176364	-460.17542	-460.219962	32.163	
C	-0.9184486986	 0.3158011306	 0.6218738248	-0.473389
C	 0.3847739974	 0.2765298969	-0.1405939809	 0.351511
O	 1.3715740322	 0.8874288175	 0.1995918133	-0.305533
C	 0.4375845764	-0.5714877032	-1.4159354165	 0.020296
C	 1.6866208865	-1.4615993739	-1.4715365886	-0.20165
C	 1.5954206598	-2.3511293483	-2.7123371184	-0.10273
O	 0.3501264267	-3.0421264489	-2.7364613639	-0.229898
C	-0.7225861565	-2.1475030065	-2.6954839883	 0.016335
O	-0.738296898	-1.3627643775	-1.5256056694	-0.254602
H	-1.7318725076	 0.6433793531	-0.0336727936	 0.146325
H	-1.1858483026	-0.6926504621	 0.9530273994	 0.154146
H	-0.8204704831	 0.9862429836	 1.476029654	 0.13619
H	 0.4735044898	 0.1431790767	-2.2601941543	 0.093877
H	 2.5841244273	-0.8385110622	-1.4853370228	 0.125153
H	 1.7188628911	-2.0893281967	-0.5748173127	 0.115363
H	 1.7001980634	-1.7416059481	-3.6261418977	 0.092487
H	 2.3754614097	-3.1160175894	-2.7221473165	 0.118021
H	-0.695650065	-1.4817994757	-3.5804533344	 0.076708
H	-1.6399096589	-2.7389908057	-2.6932413236	 0.121389
