21
gdb 53963	3.02116	1.0323	0.93492	2.4916	84.41	-0.2429	-0.0145	0.2284	1354.5248	0.177609	-387.086927	-387.075942	-387.074998	-387.122843	40.188	
C	 0.0410825896	 1.4967247076	-0.1309660099	-0.484582
C	 0.028648489	-0.0084930123	 0.087866935	 0.379426
O	 1.0607983659	-0.6069420499	 0.2928824395	-0.310745
C	-1.3293078903	-0.7404573835	 0.046881928	 0.134795
C	-2.0786760735	-0.4215348503	 1.3607690531	-0.423902
C	-2.1658324585	-0.281184755	-1.1622762537	-0.431575
C	-1.041014062	-2.2655284217	-0.040154692	-0.377099
C	-2.2398141824	-3.0940821181	-0.0376373296	 0.303747
C	-3.2339102472	-3.7712937055	-0.0364814532	-0.44554
H	 1.0053273928	 1.8928135141	 0.1896439819	 0.144056
H	-0.0889300782	 1.7117849457	-1.197662671	 0.148544
H	-0.769416708	 2.0037751981	 0.3990211811	 0.135949
H	-2.3207916917	 0.6420026982	 1.4406018081	 0.115143
H	-3.0152402908	-0.9849854632	 1.3939883671	 0.140447
H	-1.4820068406	-0.7035297252	 2.2342286281	 0.127169
H	-1.6304250394	-0.4437389184	-2.1041475323	 0.118539
H	-3.0963930623	-0.8536831008	-1.2047463304	 0.139147
H	-2.4254646075	 0.7787217781	-1.0964668683	 0.115677
H	-0.4589958086	-2.4653739577	-0.9475704927	 0.132707
H	-0.3882428673	-2.5475181894	 0.7916274881	 0.145753
H	-4.1006194091	-4.3845749607	-0.0344577571	 0.192342
