16
gdb 77195	3.56216	1.04491	0.89869	1.6237	74.27	-0.2806	-0.0198	0.2608	1259.1386	0.124765	-396.931792	-396.923088	-396.922144	-396.965609	31.145	
C	 0.2856552748	 1.7269064386	-0.0118632679	-0.416995
C	 0.0779608649	 0.2242656342	-0.1096937166	-0.017999
C	 0.9890981719	-0.4823626553	-1.1724037107	-0.127423
N	 1.8904859103	-0.9050443574	-0.0754966985	-0.300527
C	 0.8459787566	-0.652383939	 0.9404161387	-0.138153
C	 1.3175651897	-0.0106048875	 2.1667085518	 0.305957
N	 1.666916536	 0.5022603795	 3.1414598593	-0.318906
C	 0.3275890919	-1.5777866084	-1.8853435288	 0.27045
N	-0.1807021064	-2.4632182223	-2.4284652415	-0.3159
H	 1.3485139571	 1.9774569452	 0.0514567044	 0.149375
H	-0.1366513116	 2.2254625896	-0.8896545479	 0.130978
H	-0.2086101959	 2.1280708174	 0.8773998346	 0.145942
H	-0.9794954637	-0.0271355661	-0.1893169838	 0.118241
H	 1.4690555826	 0.1802852113	-1.8998123583	 0.133985
H	 2.2499366394	-1.8521444286	-0.1229580665	 0.248306
H	 0.2601726624	-1.5380326712	 1.2187786518	 0.132668
