16
gdb 52203	3.27303	0.82398	0.70055	5.1125	71.13	-0.267	-0.0379	0.229	1539.0759	0.121447	-437.873321	-437.864054	-437.863109	-437.909191	31.554	
O	-0.1141076194	 0.0978232315	 0.2451490849	-0.232315
C	 0.0556559228	 1.2375837048	-0.0938555882	 0.136846
C	 1.4299800623	 1.8235675337	-0.3760899823	-0.152568
O	 1.2642547981	 3.1978416034	-0.6626536257	-0.241385
C	 2.4408924246	 3.8542641305	-0.9774250541	 0.137632
C	 2.9675054078	 3.7925800178	-2.3809079681	-0.319447
C	 2.3075756183	 5.0718619155	-1.8630776616	-0.215281
C	 1.0150101988	 5.4458555169	-2.3645660169	 0.298201
N	-0.0169279673	 5.7673422352	-2.7753265629	-0.329634
H	-0.7772973488	 1.9592249276	-0.2349476336	 0.112922
H	 2.0761894396	 1.6637118904	 0.5008612437	 0.131096
H	 1.8822391246	 1.2831823028	-1.2221332144	 0.132336
H	 3.1605710851	 3.9246947087	-0.1610692268	 0.109311
H	 4.0372199149	 3.8180253076	-2.5519116791	 0.136983
H	 2.391476705	 3.218203781	-3.0966633994	 0.152012
H	 2.9569187934	 5.9108757126	-1.6378933556	 0.143291
