17
gdb 90759	2.60342	1.70367	1.37666	4.2281	67.76	-0.2323	0.0446	0.2769	973.507	0.138475	-455.163175	-455.155425	-455.15448	-455.195847	29.303	
O	 0.196618342	 1.2986593958	-0.3735002675	-0.421566
C	 0.097072472	-0.0770977279	-0.0841502669	 0.090933
C	 0.2137629946	-0.4365790086	 1.428069989	-0.212336
N	-1.263617704	-0.5935277884	 1.5024506143	-0.136187
C	-1.398135318	-0.4992604356	 0.0265035004	 0.00312
C	-2.5227979393	 0.528417135	-0.2354602257	-0.192561
N	-2.8652702978	 0.9352122403	 1.1200188398	-0.336197
C	-1.9783651582	 0.481367555	 2.0752175332	 0.40632
O	-1.8325873945	 0.9099384371	 3.1967496713	-0.396675
H	 1.0927952801	 1.5894845139	-0.1758752133	 0.292923
H	 0.710117128	-0.6787937774	-0.7682496139	 0.071972
H	 0.7353836367	-1.3764604442	 1.6303603388	 0.112302
H	 0.6005476645	 0.3497857469	 2.0823122916	 0.129766
H	-1.5984704541	-1.4661705639	-0.4413930211	 0.090638
H	-2.1640240934	 1.364814747	-0.844333399	 0.132949
H	-3.3744971767	 0.0636509391	-0.7431727156	 0.109596
H	-3.3578067721	 1.7910763358	 1.3132099145	 0.255004
