20
gdb 59859	2.47784	1.127	0.92032	1.1852	78.59	-0.2184	-0.0749	0.1435	1371.6482	0.166916	-440.298227	-440.287308	-440.286364	-440.335641	37.433	
C	 0.6556702406	 0.9264976266	-0.3536041289	-0.327402
N	-0.2932151745	-0.1353578565	-0.0577309284	-0.061893
C	 0.2009154833	-1.0909801745	 0.9202166958	-0.323507
C	-1.6336690486	 0.3723037078	 0.2288260152	-0.247025
C	-2.2810588639	 0.5247555326	-1.1369015081	 0.299564
O	-2.3794405013	 1.5688403406	-1.7394899943	-0.295287
C	-2.7643245449	-0.7976073146	-1.7850870585	 0.31882
C	-3.0210513857	-0.7476196952	-3.2702760985	-0.477367
O	-2.9520504941	-1.7725745892	-1.094684533	-0.287437
H	 1.590134516	 0.4941395439	-0.7243429315	 0.120551
H	 0.2507871611	 1.5845955645	-1.1272874465	 0.140219
H	 0.8896608834	 1.547959865	 0.530970161	 0.097808
H	 0.3524827097	-0.648336698	 1.9221900525	 0.097362
H	-0.5031869673	-1.9224500911	 1.0092635018	 0.138269
H	 1.16128073	-1.4931877865	 0.5823831282	 0.121045
H	-2.1865202948	-0.37224703	 0.8037585054	 0.132316
H	-1.6388753106	 1.3321416551	 0.766570265	 0.101897
H	-2.075784768	-0.5755223817	-3.7977636831	 0.152453
H	-3.4658209541	-1.6857610172	-3.6025214785	 0.139734
H	-3.666185046	 0.1009853182	-3.5132674455	 0.15988
