13
gdb 49779	2.33144	1.80825	1.13417	4.3744	62.51	-0.2713	-0.0522	0.219	1002.1124	0.088731	-452.759917	-452.752058	-452.751114	-452.793482	26.973	
O	-0.9526155127	 1.0947053324	-0.2694267952	-0.224071
C	 0.1667561653	 0.8678512972	 0.1014776489	 0.136785
C	 1.3033258809	 1.8774244724	-0.0232036006	-0.091532
N	 2.6245907669	 1.2517052672	 0.0780756587	-0.263562
C	 3.3203201932	 1.7488334918	-0.8538044579	 0.130777
O	 2.7665830621	 2.6587979316	-1.6979436569	-0.209776
C	 1.3597737953	 2.7101938069	-1.3524673174	-0.064548
C	 0.5903539114	 2.1811927324	-2.485887289	 0.312185
N	 0.0228383505	 1.7888241336	-3.4115374447	-0.31308
H	 0.4597517855	-0.0784081824	 0.5999970699	 0.119169
H	 1.1742064025	 2.5630172594	 0.8269366063	 0.142572
H	 4.3600065278	 1.5257587528	-1.0618054909	 0.166759
H	 1.0878147213	 3.7556789046	-1.1990051014	 0.158324
