18
gdb 99930	3.67954	0.70625	0.68294	5.0695	87.05	-0.2821	-0.0371	0.245	1669.0886	0.145003	-401.9398	-401.92933	-401.928386	-401.975417	36.98	
C	-0.0223555504	 1.5576761292	 0.0231064186	-0.404878
C	 0.0012292221	 0.0104744984	 0.0263554899	 0.010479
C	 0.7511511516	-0.5128478474	 1.2746264794	-0.404877
C	-1.4470317572	-0.5406944125	 0.0096395785	-0.078145
O	-2.0978962243	-0.0775375248	 1.1782768384	-0.422082
C	 0.6693484216	-0.4697460986	-1.1810640256	 0.149205
C	 1.2194085012	-0.8689094379	-2.18130244	-0.00414
C	 1.8417200984	-1.3188999961	-3.3098578846	 0.196708
N	 2.3699677475	-1.702631558	-4.2710690324	-0.339028
H	 0.993930085	 1.9582794321	 0.0525063441	 0.127121
H	-0.5162211934	 1.9396739846	-0.8746998103	 0.125368
H	-0.5710351714	 1.9093539687	 0.8989000089	 0.144405
H	 0.2161479914	-0.1972872466	 2.172364455	 0.144426
H	 0.8078004271	-1.6049210463	 1.2678968693	 0.125388
H	 1.7690696362	-0.1165980148	 1.3064582358	 0.12712
H	-1.9536583867	-0.1896043235	-0.9014060333	 0.103039
H	-1.4119687525	-1.6395718516	-0.0250502672	 0.103038
H	-2.9991413962	-0.4120684149	 1.1780284055	 0.296852
