17
gdb 84160	2.87914	1.35598	0.9792	4.1386	70.92	-0.2548	-0.0059	0.2489	1188.3474	0.135367	-459.005398	-458.996937	-458.995993	-459.038579	31.559	
C	 0.3486705865	 1.5384227429	 0.1565808707	-0.485349
C	 0.0571715394	 0.0768291462	-0.0209335496	 0.2808
C	 0.2458948463	-0.6130093666	-1.1426558938	-0.190023
C	-0.1597668124	-2.0619450654	-1.2027961167	-0.034046
O	 0.485031062	-2.7537171002	-2.2364259778	-0.436012
C	 0.1357949038	-2.7375223736	 0.1373670292	 0.402134
O	 0.5808892484	-3.8566890861	 0.1890986382	-0.351025
O	-0.1146455903	-2.040963814	 1.2517063249	-0.219499
C	-0.5172068758	-0.6577363635	 1.1648367433	-0.158143
H	 1.1055365927	 1.7010858806	 0.9339404221	 0.135774
H	 0.7093074851	 1.9843613599	-0.7731813674	 0.136119
H	-0.5475337577	 2.0895995794	 0.469545668	 0.131644
H	 0.6611171562	-0.178799156	-2.0460158829	 0.114003
H	-1.2594923485	-2.1178423157	-1.3360215608	 0.107631
H	 0.7557636161	-3.5998366412	-1.8466873965	 0.297537
H	-0.1814885419	-0.2160976341	 2.1069434003	 0.136155
H	-1.6161818899	-0.6203972526	 1.1593350687	 0.132299
