21
gdb 63909	2.90526	1.43773	1.29762	1.1196	84.26	-0.2305	0.0163	0.2468	1105.0846	0.182085	-387.087794	-387.079223	-387.078279	-387.120334	34.421	
C	 0.1645079673	 1.4600110572	-0.0796831079	-0.411062
C	-0.0843239817	-0.0464759313	 0.0312531398	 0.319065
C	-1.5933024475	-0.3504180939	 0.0664407937	-0.405838
O	 0.4970855167	-0.5897532146	-1.1699517182	-0.300428
C	 0.6969504522	-1.9727098837	-1.2080969303	 0.097142
C	 2.1211333832	-2.4493685566	-1.0983741181	-0.307324
C	 1.1442074419	-2.6548115925	 0.0527216175	-0.098556
C	 1.1863892386	-1.8004253865	 1.2637434288	-0.107809
C	 0.5991372831	-0.6059064663	 1.2646306304	-0.07584
H	 1.2376837569	 1.6657237397	-0.1092017417	 0.12245
H	-0.2865575319	 1.8463247153	-0.9979531533	 0.120858
H	-0.2717587832	 1.9878121499	 0.7737203674	 0.109521
H	-2.0825385729	 0.0736107374	-0.8161038424	 0.116835
H	-1.7672971422	-1.4298535498	 0.0815824594	 0.119303
H	-2.0583692997	 0.0761883726	 0.9609723124	 0.11191
H	 0.0231328224	-2.4973772044	-1.8830044805	 0.085645
H	 2.4276358135	-3.3195480703	-1.6689361482	 0.108728
H	 2.872415913	-1.6768517873	-0.9817113346	 0.121843
H	 0.8093738479	-3.6764020656	 0.2117600288	 0.094122
H	 1.6867119035	-2.1817209087	 2.1500834124	 0.091816
H	 0.5871257787	 0.0175770894	 2.1543666746	 0.087619
