18
gdb 88414	2.12683	1.17886	0.92159	2.6179	73.66	-0.2516	-0.045	0.2066	1324.0528	0.144458	-439.072699	-439.062909	-439.061965	-439.109168	33.75	
C	-0.8697149657	 1.1475743073	 0.0751585209	-0.402003
C	-0.1398489646	-0.172736533	 0.1123685106	 0.007159
N	 1.2324217876	-0.1988536202	-0.4179877379	-0.353265
C	 1.0056259979	-0.4772964233	 1.0143445001	-0.045912
C	 1.6080850221	 0.5118284731	 1.9864767175	-0.187781
C	 1.4407452593	 0.0911749755	 3.4456347815	 0.143673
O	 0.8184176794	-0.8753717574	 3.7989872381	-0.237801
C	 3.0929874536	 0.7955339151	 1.7298123662	 0.149621
O	 3.7453004881	 1.5412656808	 2.412863558	-0.251475
H	-0.187394983	 1.9873714961	 0.2281147333	 0.128172
H	-1.3447020664	 1.2901586675	-0.900955481	 0.127553
H	-1.6530261028	 1.1843109659	 0.8398536087	 0.124825
H	-0.7670753526	-1.0318633898	-0.1217408759	 0.092823
H	 1.4120302329	-1.0600225956	-0.9261983619	 0.236194
H	 1.0804009766	-1.5093058769	 1.347630196	 0.10695
H	 1.1242508352	 1.4962043274	 1.9155858196	 0.136674
H	 1.9601463708	 0.7572268079	 4.1634698781	 0.116544
H	 3.5262850116	 0.2521982994	 0.866219348	 0.10805
