22
gdb 120534	5.33241	0.62718	0.6105	4.4864	85.86	-0.2378	0.0285	0.2663	1897.2482	0.193723	-404.367679	-404.357552	-404.356607	-404.404645	35.431	
C	-0.1596549785	 1.5768770767	-0.257815639	-0.380689
C	-0.0659934795	 0.0560857126	-0.1079851463	-0.167832
C	 0.8175985049	-0.5987168735	-1.1764855562	-0.186599
C	 0.9121895478	-2.1132568463	-1.0439977719	 0.000765
C	-0.3567178152	-2.9338952095	-1.4484789767	-0.195407
N	 0.4577869321	-3.604731621	-2.4629367191	-0.031618
C	 1.6841967702	-2.8650120452	-2.1728520232	-0.196812
C	 0.1918721179	-4.5079342185	-3.4287129933	 0.130541
O	 1.003895703	-4.9124344428	-4.2370125782	-0.334017
H	 0.8291532885	 2.0429289016	-0.1851752921	 0.116971
H	-0.5839927028	 1.8535763941	-1.2292247471	 0.116898
H	-0.7927427795	 2.0159972808	 0.5191630602	 0.115059
H	 0.327833794	-0.1924425264	 0.886357638	 0.098086
H	-1.0739545652	-0.3775988121	-0.1512749088	 0.099118
H	 0.43525129	-0.3467966591	-2.1758771246	 0.099153
H	 1.8292149648	-0.1735892313	-1.1228268827	 0.101059
H	 1.2711992742	-2.3828098253	-0.0471819103	 0.083613
H	-0.7590043823	-3.6014671251	-0.6787398056	 0.115357
H	-1.1765882527	-2.3315418426	-1.8593151406	 0.111934
H	 2.0212911147	-2.2360797248	-3.0047845601	 0.119514
H	 2.5170303404	-3.4988012092	-1.8523523058	 0.121133
H	-0.8650180171	-4.847325113	-3.3976203669	 0.063774
