16
gdb 45154	2.96757	1.57489	1.20323	4.7795	69.5	-0.2479	0.0202	0.2681	1017.2171	0.124672	-437.863187	-437.855888	-437.854944	-437.89517	28.293	
O	-0.002220402	 0.0275490401	 0.1123239682	-0.345325
C	 0.0209701309	 1.2224637657	 0.0337011864	 0.432312
N	-0.9795413333	 2.1816127763	 0.0218155139	-0.323627
C	-0.0806359056	 3.3348417822	-0.0011541733	 0.021519
C	 0.395032112	 3.8311512224	 1.3964221779	-0.34075
C	 1.5619038026	 2.8342737913	 1.3062562776	 0.459019
C	 2.9250758105	 2.9646724753	 1.8234054454	-0.26494
O	 2.0021617202	 2.0065853362	 2.3597557565	-0.252041
C	 1.1132630853	 2.3175300769	-0.0712298723	-0.309434
H	-1.9273346632	 2.1087893535	 0.3672820574	 0.248822
H	-0.2863716611	 4.0720235771	-0.7761842424	 0.094815
H	 0.7141624088	 4.876513139	 1.4136589239	 0.115865
H	-0.3101205506	 3.6557090902	 2.2118766527	 0.119703
H	 3.7594809636	 2.5445422196	 1.263298459	 0.122631
H	 3.1741971275	 3.7946058818	 2.4838484072	 0.118657
H	 1.8376788042	 2.2489266925	-0.880369018	 0.102775
