23
gdb 101239	2.29963	1.30829	1.02882	3.0814	81.97	-0.2364	0.0703	0.3066	1292.6005	0.204532	-425.409198	-425.399145	-425.398201	-425.444186	37.664	
C	 0.1592462382	 1.2161459899	-0.3409349493	-0.242383
O	 0.3653391852	-0.1770852718	-0.2455828363	-0.253877
C	 0.7388704877	-0.6508256379	 1.0551849723	 0.116832
C	-0.4708823157	-0.7136463332	 1.9902655736	-0.404472
C	 1.4148884742	-2.0112049836	 0.8882017402	-0.008943
C	 0.6508961123	-3.0548528874	 0.012857575	-0.258975
C	 1.6859472919	-2.8394334451	-1.1336818967	 0.156155
O	 1.2153279695	-2.0925380764	-2.2268967208	-0.443498
C	 2.5895047513	-2.0535936866	-0.1340384273	-0.270416
H	 1.0446279932	 1.7768901602	-0.0062317242	 0.111497
H	-0.0257886013	 1.4438645007	-1.3934474076	 0.132899
H	-0.706923481	 1.5515247216	 0.2452689911	 0.115076
H	 1.4820009009	 0.0504911271	 1.4712000919	 0.067735
H	-0.1603395181	-1.0382483195	 2.9882675696	 0.118741
H	-0.9529030464	 0.2622505713	 2.0961215917	 0.115971
H	-1.212877134	-1.4227659145	 1.6115456893	 0.130117
H	 1.675433684	-2.3674392184	 1.8890540877	 0.067062
H	 0.6748823459	-4.0618154214	 0.4377661407	 0.094047
H	-0.3789971908	-2.8134286677	-0.2618570336	 0.104398
H	 2.1240853838	-3.7491819379	-1.5523354947	 0.075126
H	 0.8192394808	-1.2932949553	-1.8498618329	 0.286675
H	 2.946855842	-1.091018778	-0.5095777975	 0.097248
H	 3.4444470465	-2.6324655258	 0.2259551879	 0.092986
