17
gdb 33973	2.33225	1.76455	1.21275	1.8149	80.75	-0.2281	0.0204	0.2485	1047.4559	0.135739	-380.759027	-380.751059	-380.750115	-380.79132	31.341	
C	-0.0609595916	-1.1942108836	-0.0547121537	-0.422565
C	 0.0086315359	 0.0074492528	-0.0066607153	 0.1674
C	 0.0325059199	 1.4215941281	 0.096268437	 0.162336
N	 0.2560535255	 2.3271904028	-1.0779924908	-0.374449
C	 1.1642784642	 2.4135090123	 0.0794525806	-0.12366
C	 0.4659484978	 3.2952886189	 1.1263957485	-0.296671
C	-0.6947253891	 2.2748644717	 1.1322194889	 0.30558
C	-2.148522388	 2.3942581458	 1.3341858726	-0.30051
N	-1.2821270102	 1.7586637791	 2.3565463803	-0.373344
H	-0.1046497914	-2.2542168341	-0.1029623134	 0.194255
H	 0.7216106807	 1.7634911794	-1.7907320181	 0.237368
H	 2.2243949498	 2.218620527	-0.0223637768	 0.11133
H	 0.9770634802	 3.3108955518	 2.0911633547	 0.121588
H	 0.2377168257	 4.3114372652	 0.7976997157	 0.115049
H	-2.5817345324	 3.3438120735	 1.6357616141	 0.122093
H	-2.7988688531	 1.7649979358	 0.7319320774	 0.118707
H	-1.3616765639	 0.7442903332	 2.3002793984	 0.235492
