23
gdb 118966	2.19532	1.16293	1.07898	2.5279	82.18	-0.2421	0.0799	0.3221	1336.9599	0.203592	-425.417249	-425.40691	-425.405966	-425.452729	38.673	
C	-0.3371371532	 1.4992558073	 0.1621356931	-0.385381
C	-0.0826887675	 0.0070400275	 0.0210835749	-0.049651
O	-1.3362011195	-0.640773216	-0.1191566201	-0.318371
C	-1.3564999051	-2.0664168448	-0.0411434869	 0.382267
C	-0.4984929263	-2.7249265958	-1.1081908836	-0.474415
C	-1.253034479	-2.5535775747	 1.4370136134	-0.277796
C	-2.7936347372	-2.4075375294	 1.5681610944	-0.261155
C	-2.8803060031	-2.4179943043	 0.0157241835	 0.135325
O	-3.7628604139	-1.5664253981	-0.6515009118	-0.439955
H	 0.6096680572	 2.039805299	 0.2542813051	 0.117073
H	-0.869014052	 1.8819312485	-0.713885986	 0.127123
H	-0.9436424567	 1.7053720424	 1.0486466844	 0.124896
H	 0.5519220443	-0.1886663144	-0.8552071184	 0.096789
H	 0.4517283025	-0.3754236357	 0.9034311556	 0.092199
H	 0.5694002981	-2.5363643936	-0.9564817054	 0.116821
H	-0.6465222463	-3.8087299984	-1.0900214709	 0.117182
H	-0.7771495224	-2.3568392957	-2.1011440714	 0.128349
H	-0.9206949281	-3.5938592441	 1.4941331802	 0.100909
H	-0.6336467505	-1.9546525747	 2.1078165949	 0.100724
H	-3.3388086723	-3.1828106719	 2.1103231213	 0.09555
H	-3.075224767	-1.4286900586	 1.963457427	 0.104961
H	-3.0539224285	-3.4319996502	-0.3591830343	 0.079576
H	-3.3704060936	-0.6858208541	-0.5811044789	 0.286979
