16
gdb 52978	4.98762	0.9011	0.84459	3.4915	80.51	-0.2198	0.0168	0.2365	1394.7493	0.122149	-400.616753	-400.608416	-400.607472	-400.651151	30.646	
C	 0.0174889557	 1.4723227035	-0.0912315074	-0.514286
C	-0.0301216819	 0.0208177423	-0.0211101174	 0.348903
C	-0.0755713558	-1.1830848516	 0.0207471491	-0.251444
C	-0.0875442167	-2.5969000283	 0.1242077962	 0.323447
O	-0.3397413016	-3.4226999414	-1.0263452273	-0.263772
C	-1.1622872531	-3.6087605467	 0.1156163399	-0.075884
C	-0.3894202304	-4.4621238862	 1.1830103352	-0.094255
N	 0.9361974468	-4.7992240379	 0.6101835773	-0.309801
C	 0.6978471546	-3.4625030465	 1.1919408064	-0.180374
H	 0.9200182387	 1.8624993155	 0.3917892556	 0.152702
H	 0.0245348721	 1.8136046482	-1.1322240417	 0.157684
H	-0.8489090738	 1.926412998	 0.402488496	 0.151329
H	-2.2347946336	-3.5028743622	 0.0048771778	 0.117742
H	-0.8337720112	-5.0202866192	 1.9954248487	 0.102416
H	 1.4309918982	-5.3398746452	 1.3208963199	 0.233905
H	 1.2803585622	-3.0592955323	 2.0089005419	 0.101687
