18
gdb 107141	3.56517	1.13649	1.09523	1.4767	71.54	-0.2077	0.0578	0.2655	1165.7676	0.146675	-438.982987	-438.974619	-438.973675	-439.015605	32.947	
O	 0.6012852366	 0.4241125857	-0.9219442442	-0.409289
C	-0.0509862525	 0.2284761624	 0.325324195	-0.208341
C	-1.4609659241	-0.2573932363	 0.1510188085	 0.344088
N	-1.7975140009	-1.2959780269	-0.8517847625	-0.378493
C	-2.4517562741	 0.0408427153	-0.902626513	-0.210389
C	-3.5897963693	 0.0907907312	 0.1714712816	 0.392916
O	-4.532559358	 1.1009462879	 0.1822152465	-0.45718
C	-3.7063779425	-1.1894463004	 0.948571615	-0.354765
C	-2.5738664694	-0.2197004192	 1.2461582519	-0.188118
H	 0.1913650739	 1.1860870797	-1.3450118399	 0.28941
H	 0.5464500889	-0.5204424168	 0.8594880679	 0.123329
H	-0.0447560351	 1.1446819939	 0.9353177736	 0.10204
H	-1.0351772461	-1.2649837449	-1.5319749903	 0.234337
H	-2.3909423212	 0.677276397	-1.7775156932	 0.087243
H	-5.3090694604	 0.7913732506	-0.298363977	 0.287161
H	-4.4925938689	-1.1603509333	 1.6972660266	 0.109596
H	-3.5098344637	-2.1537233271	 0.4976826477	 0.141371
H	-2.444350683	 0.2428605712	 2.2157688857	 0.095085
