13
gdb 48465	1.88782	1.72726	1.31999	2.3972	62.88	-0.2655	-0.0734	0.1921	1004.5466	0.08483	-493.696435	-493.687955	-493.68701	-493.730246	28.958	
O	-0.2116668647	 0.0602337142	-0.3613150469	-0.228001
C	-0.0160868728	 1.1137334959	 0.173863536	 0.120899
C	 1.3137540143	 1.8666747492	 0.0636295114	 0.101438
O	 2.3679719203	 1.1138328586	-0.5325356546	-0.301984
C	 2.3792893643	 1.8717392369	-1.7600431199	-0.181071
C	 1.3246508647	 2.8201916609	-1.1897904138	 0.296104
O	 0.7676611337	 3.8158011965	-1.5063168756	-0.231392
C	 1.6848020314	 2.5254892151	 1.37545745	 0.095831
O	 0.909634166	 3.1925876368	 2.0080223178	-0.235915
H	-0.7686960849	 1.6534614205	 0.7811030136	 0.13275
H	 3.3533136258	 2.3251176861	-1.9769608338	 0.151121
H	 2.0358522421	 1.2870358618	-2.6216631702	 0.160593
H	 2.7335667497	 2.3334891375	 1.683480266	 0.119627
