17
gdb 96870	2.37973	1.48666	0.9653	3.9949	75.74	-0.2622	-0.0347	0.2275	1222.1473	0.134914	-455.172133	-455.163131	-455.162187	-455.206782	31.787	
C	-0.1837982782	 1.4575762072	-0.0522984151	-0.34081
N	-0.2560077736	 0.0100022459	-0.1205100339	-0.286072
C	 0.5212653815	-0.6249333476	-0.8720205211	 0.364019
O	 1.4978180241	-0.0942561916	-1.6821152453	-0.262947
C	 2.115857198	-1.1354732494	-2.4278724536	 0.209811
C	 3.6165530126	-1.1162743885	-2.2442069937	-0.400035
O	 1.5616650393	-2.3630746419	-1.9554379139	-0.249721
C	 0.5712216698	-2.1053930642	-1.048141153	 0.315262
N	-0.148631904	-2.9595454501	-0.4687002931	-0.506976
H	 0.545887533	 1.9114644284	-0.7321789102	 0.12363
H	-1.1765972144	 1.8675597466	-0.2673999203	 0.136945
H	 0.0600361767	 1.7488172751	 0.9757028872	 0.137315
H	 1.8340008971	-1.0190320134	-3.4829141963	 0.108404
H	 3.8654080118	-1.2372121899	-1.1868655928	 0.139667
H	 4.0695506866	-1.9303185495	-2.8158538995	 0.139733
H	 4.0200653978	-0.1656094214	-2.6021127911	 0.139537
H	 0.095891832	-3.9039323656	-0.7706860244	 0.232238
