16
gdb 69898	3.00422	1.5057	1.14873	5.2325	70.65	-0.232	-0.0445	0.1874	1053.9327	0.121586	-437.787928	-437.779874	-437.77893	-437.820471	30.355	
C	-0.0484799118	 1.5802236121	 0.2139852694	-0.516207
C	 0.0514240686	 0.0930782421	 0.0887691282	 0.239203
N	-0.7893467098	-0.862657974	 0.8369744473	-0.345326
C	 0.6914417177	-0.9300568713	 0.9473546326	-0.165437
C	 1.218558193	-1.6797070408	-0.3185998419	-0.022567
O	 0.1472669527	-2.035188726	-1.1546301497	-0.22852
C	 0.5666877684	-0.6727910298	-1.2021993204	 0.295495
C	 1.0727139754	-0.1045450335	-2.4678941365	 0.054078
O	 1.3988121465	-0.7553264263	-3.4292965775	-0.256504
H	 0.8521638461	 2.076036093	-0.1647084065	 0.132966
H	-0.9057143237	 1.9703032549	-0.3466631251	 0.140622
H	-0.1698122218	 1.8703496679	 1.2629703805	 0.126217
H	-1.1162299625	-0.3716796616	 1.6704760385	 0.232693
H	 1.2110494424	-0.8278983849	 1.8905685792	 0.106493
H	 2.16942989	-2.1833348865	-0.44805126	 0.132754
H	 1.1532739389	 1.0053373148	-2.4617233382	 0.074041
