18
gdb 119556	3.10793	1.04955	0.86503	1.9699	73.28	-0.2568	0.0169	0.2737	1331.2048	0.146978	-439.049139	-439.040352	-439.039408	-439.083259	32.416	
O	 0.0496014184	 1.4879521653	-0.2456787044	-0.418247
C	 0.024760504	 0.0703388401	-0.2285607061	-0.065233
C	-1.3672497807	-0.4811083861	 0.1160476147	-0.333649
C	-1.3994884436	-1.9819415606	 0.1074245073	 0.201512
C	-1.6024444181	-2.85048379	-1.1472462784	-0.33459
C	-2.4978902677	-3.0212808384	 0.0245041717	 0.023228
O	-1.8354481597	-3.8594746865	 1.0114181638	-0.277255
C	-0.8556010821	-2.8807049243	 1.1746301379	 0.408957
N	 0.0817747783	-2.7946328169	 2.0021780891	-0.561047
H	-0.0259082249	 1.7942942295	 0.6634599596	 0.283831
H	 0.3076255482	-0.24797704	-1.2376819155	 0.112004
H	 0.7667124418	-0.3449494634	 0.4673918682	 0.124809
H	-1.6600335278	-0.1169317027	 1.1095782979	 0.103884
H	-2.0941475599	-0.0816832588	-0.6000409209	 0.10849
H	-2.016821581	-2.3029826051	-1.9892158019	 0.129402
H	-0.9019817812	-3.638952886	-1.4041660697	 0.133509
H	-3.5755337178	-2.9504204281	 0.0755187747	 0.128495
H	 0.1092948839	-3.605116968	 2.6230418419	 0.231902
