16
gdb 48932	4.24618	1.48201	1.3008	3.3684	71.76	-0.2374	-0.0297	0.2078	957.2892	0.125413	-400.698829	-400.692255	-400.69131	-400.729844	26.324	
O	-0.8211525806	 1.0917883221	 0.2680088263	-0.26235
C	 0.2808985231	 0.9074796382	-0.1884797709	 0.076874
C	 1.40496971	 1.8585484544	-0.0336121149	 0.23006
C	 1.231070399	 3.2539282856	 0.5152401948	-0.305278
C	 2.6492687975	 3.741887126	 0.3172247796	-0.082819
C	 3.6466927922	 2.6019968723	 0.4913622953	-0.112181
C	 3.2481648845	 3.0622033864	-0.8855173346	-0.018442
N	 2.436775507	 1.805944554	-1.1434174428	-0.195016
C	 2.7990832745	 1.3516882587	 0.2194137464	-0.085484
H	 0.5335753633	-0.008031341	-0.7653802871	 0.085482
H	 0.498376101	 3.8293921015	-0.058246832	 0.124358
H	 0.9174742935	 3.2374129267	 1.5629065624	 0.125085
H	 2.960960816	 4.7490633616	 0.5630278096	 0.101111
H	 4.5857094589	 2.6616497196	 1.0213781948	 0.104337
H	 3.7926707265	 3.5257050281	-1.6960698919	 0.108786
H	 3.0520111237	 0.3199514758	 0.4359502448	 0.105479
