23
gdb 100988	2.55257	1.07877	0.9989	2.1641	80.97	-0.243	0.0745	0.3175	1352.5449	0.203904	-425.411386	-425.400938	-425.399994	-425.446797	38.632	
C	-0.2711554033	 1.6990067162	-0.1135976519	-0.40902
C	-0.1218152977	 0.1741341198	-0.0512117159	-0.023674
C	-1.4917279812	-0.5183661863	 0.0447289766	-0.084956
O	-2.1938127868	-0.1654045247	 1.2307885906	-0.423206
C	 0.7338089678	-0.4103434928	-1.1883054524	 0.427623
C	 0.1462145558	-0.2308119559	-2.5837008413	-0.44515
C	 2.2541287305	-0.1089735847	-1.0793303996	-0.334378
C	 2.406350053	-1.6248176799	-0.8612210475	-0.070966
O	 0.982707724	-1.8309691747	-0.9331771331	-0.327346
H	 0.6988234197	 2.2066602709	-0.1030428375	 0.108806
H	-0.8065369241	 2.0142433611	-1.0155721918	 0.116409
H	-0.8496731573	 2.0438331774	 0.7468194073	 0.131276
H	 0.4162042967	-0.0786746462	 0.8754874165	 0.057601
H	-2.1409830953	-0.1991819159	-0.7777282222	 0.10565
H	-1.3585161581	-1.6053108069	-0.034015518	 0.110917
H	-1.7177645195	-0.5487267217	 1.9744112975	 0.280492
H	 0.0182121313	 0.8281103268	-2.8290434016	 0.119794
H	 0.8104273148	-0.6761651515	-3.3297805674	 0.11655
H	-0.8264998997	-0.7241900958	-2.666655176	 0.129107
H	 2.7169866774	 0.2904117782	-1.9835158155	 0.106599
H	 2.5373340149	 0.512687383	-0.2280822023	 0.106967
H	 2.9388609379	-2.1665771302	-1.6528750333	 0.100716
H	 2.8176225094	-1.9316559062	 0.1081805188	 0.10019
