18
gdb 19711	3.44071	2.49886	2.44778	0.2039	73.89	-0.2357	0.0198	0.2556	709.5524	0.157852	-310.649682	-310.644146	-310.643202	-310.678748	24.727	
C	-0.0190319907	 1.5299353463	 0.1185054486	-0.29827
C	 1.2989935926	 0.8119779328	-0.017659082	-0.029006
C	 0.0034889377	 0.0284355814	-0.0087214303	-0.029005
C	-0.0141158363	-0.6693945725	-1.4132850948	-0.070653
C	 1.5008913225	-1.0020370636	-1.5416510408	-0.190381
C	 1.9109943984	 0.4949419676	-1.4265671775	-0.070653
C	 1.0166075786	 1.0800489168	-2.5090690927	-0.079475
C	-0.127983717	 0.3877855489	-2.501169906	-0.079475
H	-0.2508206745	 1.9244058997	 1.103386317	 0.100829
H	-0.3889835113	 2.1322418318	-0.7029415332	 0.110897
H	 1.9807870179	 0.7970385234	 0.824960272	 0.081988
H	-0.2913169547	-0.5771658767	 0.840636688	 0.081987
H	-0.7168067146	-1.5003465848	-1.4772711046	 0.055898
H	 1.8766568691	-1.6138962956	-0.7149766216	 0.08519
H	 1.7691449265	-1.4565015493	-2.5002557142	 0.088252
H	 2.9725128929	 0.731010797	-1.5027242969	 0.055898
H	 1.2487642495	 1.9607004842	-3.0949150972	 0.092989
H	-1.0216186566	 0.5875453127	-3.0792462739	 0.092989
