18
gdb 78613	3.21105	1.45998	1.2098	1.0101	71.97	-0.2075	0.0585	0.266	1055.7771	0.146066	-438.974468	-438.966146	-438.965202	-439.00675	32.543	
C	 0.0440852177	 1.5161906069	-0.2594842305	-0.338342
N	 0.0523857865	 0.0662772186	-0.0684875665	-0.112109
C	-1.0265254285	-0.4927843788	 0.7996894047	-0.071174
C	-0.127185643	-1.7072133668	 1.2009107698	-0.111913
C	-0.4454800994	-1.5324590288	 2.6941884336	 0.0593
O	 0.481634279	-1.9368091731	 3.676388954	-0.451644
C	-0.3915284744	-0.0856199052	 2.1769742593	 0.337664
O	-0.6319902557	 1.0702133045	 2.8860967154	-0.468724
C	 0.7785085943	-0.4359501737	 1.1333676287	-0.124399
H	 1.0073262623	 1.8223870969	-0.6820901086	 0.114572
H	-0.7317541514	 1.7730643214	-0.9886146357	 0.116963
H	-0.1347323855	 2.0920474365	 0.6600683482	 0.124782
H	-2.0809970231	-0.5127340362	 0.5213190261	 0.084887
H	 0.0069219902	-2.6078384768	 0.6087321569	 0.093434
H	-1.424332581	-1.8876921303	 3.0296849116	 0.090887
H	 1.3704651484	-1.7950418773	 3.3325720027	 0.28548
H	-0.2707487774	 0.9510892719	 3.7730740277	 0.293257
H	 1.8629253712	-0.3620654397	 1.2405140726	 0.077079
