17
gdb 52168	3.72495	1.00276	0.90986	5.2783	68.96	-0.2567	0.0109	0.2677	1280.4086	0.135497	-458.928799	-458.920621	-458.919677	-458.962745	29.52	
O	 0.2899412753	 0.5363159634	 0.977908923	-0.278845
C	 0.4052602844	 1.6909118527	 0.6934964733	 0.159517
O	 0.7767471467	 2.0968551924	-0.5392295601	-0.182607
C	 0.927276418	 3.5139869794	-0.7309205613	-0.129113
C	 2.3113050322	 3.9650915843	-0.3417537855	-0.042236
C	 2.6815834446	 5.3919033522	 0.0299728858	-0.158581
C	 1.6034325065	 6.0151466111	 0.9113521852	-0.097186
O	 1.5958566127	 4.8566526116	 1.7920923162	-0.281796
C	 2.6953044943	 4.2913600015	 1.0705985147	 0.082741
H	 0.2203442932	 2.5330709763	 1.386637317	 0.101411
H	 0.7406334025	 3.6824575707	-1.7939051196	 0.127092
H	 0.1638342289	 4.0476600487	-0.157273373	 0.125313
H	 3.1088456754	 3.4670975005	-0.8886999049	 0.111723
H	 3.4941194015	 5.9256278325	-0.4431756398	 0.110425
H	 1.9585845759	 6.8972118907	 1.4543352887	 0.121681
H	 0.6187527077	 6.2230385707	 0.4777241003	 0.111992
H	 3.4857226603	 3.8171637312	 1.6401407301	 0.118469
