14
gdb 131132	3.92965	1.07471	0.96248	2.0763	63.58	-0.264	-0.0463	0.2177	1176.9034	0.101964	-470.008953	-470.001198	-470.000254	-470.042388	27.552	
O	-0.1730015166	 1.4118052268	 0.11112136	-0.425738
C	 0.0009814983	 0.0255639761	 0.0468578958	-0.046364
C	 0.7941694202	-0.3479055529	-1.2048675372	 0.132368
O	 1.1425996585	 0.4938988958	-1.9941808629	-0.252755
C	 0.7177572755	-0.4879164444	 1.2660656414	 0.268612
N	 0.7872713407	-1.7884001351	 1.560303057	-0.28454
N	 1.5132696732	-1.8033804317	 2.67108381	-0.067598
N	 1.9192366957	-0.6302523382	 3.1329006178	-0.192816
C	 1.4249306007	 0.2325732216	 2.2442519916	-0.113961
H	 0.2311199345	 1.7595360035	-0.7010147222	 0.299
H	-0.9686890624	-0.4961675238	-0.0366211476	 0.119819
H	 1.0262292299	-1.4220293137	-1.3313349591	 0.123007
H	 1.7296683577	-2.6637914409	 3.1483704372	 0.296914
H	 1.573203724	 1.2944355968	 2.339784048	 0.144052
