21
gdb 119342	4.07789	1.0019	0.97181	1.237	83.68	-0.2332	0.0852	0.3185	1339.9474	0.182922	-387.025976	-387.017436	-387.016492	-387.059862	32.142	
C	-0.8096826486	 1.4904010313	-0.4997983416	-0.216524
O	-0.9140833145	 0.0945024249	-0.6388569317	-0.235222
C	-0.5832024291	-0.6016112221	 0.5462826093	-0.246112
C	-0.7280251708	-2.0607548217	 0.2829272959	 0.38465
C	-0.3124177329	-2.9307362668	-0.8764564979	-0.104667
C	 0.3994806648	-3.9187973783	 0.0441500818	-0.226269
C	-0.5138799538	-3.3620542375	 1.1718641589	-0.131274
C	-1.942093264	-3.8157454213	 0.7590366682	-0.22627
C	-1.7877952922	-2.8657731095	-0.4259791894	-0.104687
H	-1.0830396224	 1.936203203	-1.4593449962	 0.126488
H	-1.488085798	 1.8767219656	 0.2777889191	 0.102829
H	 0.2157236406	 1.8011451825	-0.2426985895	 0.10283
H	 0.4497807275	-0.3591233942	 0.8564626092	 0.085419
H	-1.2443471824	-0.2842804263	 1.3734745943	 0.085424
H	-0.0272391623	-2.6020980124	-1.8671308052	 0.088945
H	 0.3350182445	-4.9928367586	-0.168545026	 0.084537
H	 1.4462208652	-3.6384171917	 0.1939760285	 0.09504
H	-0.1972232571	-3.3888492296	 2.2131175921	 0.066342
H	-2.0936746367	-4.8859389642	 0.5728592951	 0.084539
H	-2.7008560327	-3.4560073722	 1.4601623788	 0.095041
H	-2.549353825	-2.491011421	-1.0970600036	 0.08894
