17
gdb 26028	3.18258	1.13534	1.05003	0.8043	80.64	-0.2197	0.0144	0.234	1214.2903	0.135195	-384.686225	-384.677647	-384.676702	-384.719963	31.972	
C	-0.032424278	 1.5633910655	-0.0432180444	-0.387018
C	-0.0217298777	 0.0158075041	-0.0389264602	-0.270808
C	-1.3876066283	-0.5178076563	-0.0044157129	 0.339024
C	-2.5136598631	-0.9358035244	 0.0270650322	-0.478855
C	 0.763519363	-0.5402229068	-1.1911420362	 0.397074
C	 1.8724615147	-1.3239741023	-1.2666214145	-0.290276
C	 2.1551926378	-1.4952272858	-2.6623605519	-0.16912
C	 1.1952619914	-0.8017452722	-3.3246835854	-0.018698
O	 0.3407646253	-0.2129334227	-2.4448572529	-0.17933
H	 0.9916760376	 1.9445718719	-0.0018079662	 0.120868
H	-0.5069833247	 1.9353373749	-0.9538182919	 0.141965
H	-0.588600989	 1.9412248582	 0.818168259	 0.125551
H	 0.4964169419	-0.3212178218	 0.8676880782	 0.120002
H	-3.5049400662	-1.3156442572	 0.0501517793	 0.196664
H	 2.4198216888	-1.7342265656	-0.4322645117	 0.108723
H	 2.9616580443	-2.0591216066	-3.1039371106	 0.111592
H	 0.9825787523	-0.6305386131	-4.36688095	 0.132643
