19
gdb 83479	2.1142	1.91629	1.47764	2.4176	73.89	-0.2392	-0.0168	0.2224	990.644	0.160801	-423.057935	-423.050323	-423.049379	-423.089792	30.263	
C	-0.1354951979	 1.5439616746	 0.0070683835	-0.436982
C	 0.0515676375	 0.029036109	 0.009892757	 0.009
C	 1.0728951592	-0.5784916032	-0.9804110503	 0.090053
C	 2.4245653798	-0.0278946929	-0.4947840521	-0.341743
C	 2.2086766398	-0.0370736231	 1.0338746977	 0.422701
O	 2.9897070686	 0.3027489958	 1.8818356454	-0.329829
C	 0.7883413009	-0.5814681123	 1.2302864785	-0.159417
C	 0.8576444628	-2.0569561423	 0.7684352769	-0.100228
O	 1.0323414905	-1.977670006	-0.6583062213	-0.279466
H	 0.793475959	 2.0865637886	 0.2061448629	 0.130539
H	-0.5236437279	 1.8867285833	-0.9577508383	 0.122689
H	-0.8547826301	 1.8411674858	 0.7766715803	 0.127253
H	-0.9169824114	-0.4605009723	-0.1361105279	 0.086018
H	 0.8633441157	-0.4646285751	-2.0441757501	 0.081959
H	 3.263561248	-0.6680086627	-0.7785162697	 0.137445
H	 2.6384693471	 0.9870198271	-0.8445485673	 0.128725
H	 0.3798935785	-0.4285784812	 2.2279292346	 0.086232
H	 1.6895866482	-2.611969097	 1.217017312	 0.116291
H	-0.0761407984	-2.585557216	 0.9977598782	 0.108761
