18
gdb 74695	3.07769	1.31828	1.29927	1.9331	78.62	-0.2248	-0.0061	0.2187	1081.2593	0.149004	-401.949386	-401.941696	-401.940752	-401.981405	30.192	
C	-0.0545207158	 1.484862636	 0.0431194706	-0.481068
C	-0.00393518	-0.01201575	-0.0271834687	 0.308095
C	-0.0520122724	-0.7105033911	-1.1662625577	-0.12726
C	 0.0473324949	-2.2178947532	-1.0894356642	-0.186873
N	 1.1283292944	-2.5529609745	-0.0798085965	-0.310924
C	 0.1200226367	-2.2836202438	 1.0183769845	-0.144403
C	 0.1084406569	-0.7723739491	 1.2832767199	-0.276308
C	-0.9551385208	-2.6895542315	-0.0143494989	 0.431312
O	-1.9624505599	-3.3325035187	 0.0106896287	-0.325133
H	 0.8487770064	 1.8859297105	 0.520881694	 0.128829
H	-0.1423684927	 1.9331671716	-0.949861405	 0.124928
H	-0.9038212135	 1.8249978882	 0.6496023715	 0.12729
H	-0.168775357	-0.2319881929	-2.1329846728	 0.093794
H	 0.1044388834	-2.7230000212	-2.0536760899	 0.085716
H	 1.2811260042	-3.5611198528	-0.1151628714	 0.229387
H	 0.222223906	-2.8804952758	 1.9273021733	 0.089999
H	 1.0191771786	-0.4767236432	 1.8218346976	 0.116101
H	-0.7366564895	-0.5201090083	 1.9388084849	 0.11652
