19
gdb 96536	2.43408	1.49094	1.01005	2.3375	71.69	-0.2601	-0.0302	0.2299	1170.448	0.159864	-460.184389	-460.176062	-460.175118	-460.217626	31.982	
O	 0.0965034826	 1.4413362425	 0.062633976	-0.442343
C	 0.0510143799	 0.0424170401	 0.0307454056	 0.039625
C	-1.401234633	-0.4488932276	 0.2095844926	-0.226733
C	-1.5435169114	-1.9055154591	 0.6477830726	-0.090424
O	-1.1217092687	-2.8585997033	-0.3112471484	-0.240924
C	 0.2753945246	-2.9269160437	-0.5110007417	-0.091305
C	 0.785814997	-1.9441577306	-1.5685683277	-0.301252
C	 0.6732748482	-0.456512725	-1.2757758556	 0.363791
O	 1.0790356214	 0.3633280344	-2.0736797733	-0.332782
H	 0.5194845519	 1.699306634	-0.7740423677	 0.292242
H	 0.6567987827	-0.3727909395	 0.8578146082	 0.086066
H	-1.8433747362	 0.1879810225	 0.9835467263	 0.123728
H	-1.9691654579	-0.2741263828	-0.7113508128	 0.113189
H	-0.9993742145	-2.0620345999	 1.5949332767	 0.092363
H	-2.5985815002	-2.1267215464	 0.834549504	 0.11578
H	 0.8103454428	-2.7933677742	 0.4424022293	 0.096117
H	 0.4862890733	-3.9436088805	-0.8588345161	 0.11612
H	 1.8440651403	-2.1426231577	-1.7804484478	 0.136956
H	 0.2530600473	-2.1214916832	-2.5103423302	 0.149786
