18
gdb 52826	2.64498	0.9998	0.93887	2.2091	82.77	-0.2333	-0.026	0.2073	1390.4603	0.144673	-401.918223	-401.908187	-401.907242	-401.954397	35.103	
C	 0.0642658783	 1.549690475	-0.2179200371	-0.501838
C	 0.0493654905	 0.0992429683	-0.1026313499	 0.095512
C	 0.0352777522	-1.1002390484	 0.005062902	 0.091936
C	-0.0111530125	-2.5493430099	 0.1066395395	-0.04425
C	 0.9800651559	-3.2231579267	-0.857415988	-0.437342
N	 0.0279569798	-3.0750607024	 1.5159234978	-0.334612
C	-1.20949508	-3.8793863345	 1.3523225889	-0.290982
C	-1.4310995841	-3.1974371181	-0.0026696113	 0.36843
O	-2.3017182531	-3.1678390427	-0.8139879299	-0.281839
H	 0.8311300503	 1.8879060025	-0.9233885296	 0.148216
H	-0.9018593439	 1.92814717	-0.5695141473	 0.153225
H	 0.2717494515	 2.0190301921	 0.7500104409	 0.152242
H	 2.0036844452	-2.933904452	-0.5999466178	 0.132741
H	 0.8971787307	-4.3139160811	-0.8039553609	 0.115479
H	 0.7830290419	-2.9089868135	-1.8854709422	 0.147324
H	 0.8572727184	-3.6275804502	 1.7033334398	 0.221792
H	-1.0797933063	-4.9663578876	 1.2577267856	 0.124948
H	-1.9764937847	-3.686571161	 2.1103485795	 0.139018
