18
gdb 75631	2.04215	1.84496	1.2139	1.4968	73.72	-0.2435	-0.0221	0.2214	1075.9938	0.145385	-439.069234	-439.059835	-439.058891	-439.10317	34.371	
C	 0.008467729	 1.5359848613	 0.0659642565	-0.487962
C	-0.0464236472	 0.0420536699	 0.0575327146	 0.245859
N	 1.0843800303	-0.7744419598	-0.3001182895	-0.389004
C	 0.5676525743	-0.9663050383	 1.0683238242	 0.16075
C	 1.4757149407	-0.814421042	 2.2471249896	-0.492976
C	-0.7473160941	-1.6700549543	 1.0308598137	 0.313684
O	-1.3554739884	-2.3190087696	 1.8441750252	-0.335894
C	-1.3198927275	-0.8166661583	-0.138116955	-0.025086
O	-2.5428718765	-0.2344019277	 0.2212274475	-0.437666
H	 0.9505380909	 1.8906766186	 0.4914599459	 0.133657
H	-0.0706781254	 1.9260238267	-0.9550153782	 0.135285
H	-0.827327675	 1.9358192474	 0.6457967476	 0.143269
H	 0.8442887424	-1.5380635927	-0.9323015289	 0.236971
H	 2.1419817099	 0.0412053139	 2.1091791582	 0.136236
H	 0.8962003697	-0.6752191838	 3.1641676125	 0.137698
H	 2.0996483943	-1.7055452994	 2.373510054	 0.138213
H	-1.380735519	-1.2654851878	-1.1399894373	 0.086152
H	-2.9110375383	-0.7714563541	 0.9359863495	 0.300815
