22
gdb 8006	3.04789	1.64096	1.39791	1.3484	77.42	-0.2589	0.0679	0.3268	1031.5671	0.200746	-350.228763	-350.219874	-350.218929	-350.262005	34.062	
C	 0.3073093032	 1.5340097632	 0.1127182508	-0.397083
C	-0.0082272189	 0.0402919496	-0.0126684271	 0.055211
C	 0.7065464224	-0.6185369541	-1.2284247	-0.219378
C	 1.305715271	-1.9423535773	-0.7099771234	 0.039318
C	 2.4453509829	-2.5105423034	-1.5527672093	-0.408915
C	 1.6753323811	-1.5963545475	 0.7410738948	 0.122851
O	 2.859674408	-0.798315252	 0.700933871	-0.439607
C	 0.4619108635	-0.7877711892	 1.2220926364	-0.253112
H	 1.3820884885	 1.6823905074	 0.2619256037	 0.12046
H	 0.0142975566	 2.0789828714	-0.7914275918	 0.108719
H	-0.2200249149	 1.9861727305	 0.9602114588	 0.103658
H	-1.0926445245	-0.0714071397	-0.1209115296	 0.064635
H	 0.032319475	-0.7743993392	-2.0759160908	 0.086528
H	 1.517389527	 0.0300761157	-1.5777265163	 0.104024
H	 0.5010917742	-2.688605351	-0.6501087059	 0.06526
H	 3.2855833577	-1.8123198577	-1.5834594487	 0.133496
H	 2.8105373084	-3.458289875	-1.142253393	 0.105092
H	 2.115377307	-2.698316451	-2.5799603534	 0.105357
H	 1.8482201224	-2.4967697633	 1.3496239851	 0.050532
H	 3.0355125862	-0.4879087805	 1.5941328317	 0.280778
H	 0.7076661586	-0.156620564	 2.084187919	 0.079178
H	-0.3234296153	-1.4781217329	 1.5504864382	 0.092997
