17
gdb 41931	3.49023	1.59644	1.15379	2.491	79.94	-0.2276	-0.0278	0.1997	1034.6867	0.138187	-421.836725	-421.829768	-421.828824	-421.868122	27.378	
C	 0.0525663226	 1.5214438821	-0.1736811802	-0.113126
O	 1.3598100469	 1.8885030782	 0.2812209225	-0.273511
C	 2.0261781177	 0.7607018134	 0.7610288725	 0.145096
O	 3.2836429283	 0.6208846406	 0.1199658406	-0.254232
C	 3.9665568745	-0.5212387566	 0.6120229198	-0.127372
C	 3.1095604393	-1.7606784083	 0.7148266426	-0.088654
C	 1.7744785162	-1.7213949347	 0.5969866153	-0.169857
C	 1.1531746456	-0.423305267	 0.4270297886	 0.312603
C	 0.0036292196	 0.0210770502	-0.0811728661	-0.267814
H	-0.7021151038	 2.0183998346	 0.4547291278	 0.112078
H	-0.091964352	 1.8798154856	-1.2030048456	 0.119171
H	 2.2066431617	 0.8618952907	 1.8491845486	 0.063032
H	 4.7958617504	-0.697375382	-0.0819686216	 0.12716
H	 4.4209667606	-0.3095301401	 1.5986534532	 0.105664
H	 3.6355636223	-2.6987798797	 0.8678465609	 0.103515
H	 1.1735999315	-2.6254862628	 0.6068216731	 0.098758
H	-0.8268863213	-0.5677767942	-0.4500511021	 0.107488
