17
gdb 67850	2.4738	1.67539	1.36226	3.331	77.97	-0.2404	-0.0089	0.2315	1009.0706	0.136348	-380.869394	-380.861439	-380.860494	-380.901609	30.477	
C	 0.0029160579	 1.5039258348	 0.0296108672	-0.482684
C	-0.0137725913	-0.0043162071	-0.0142762449	 0.289393
C	-1.2739601762	-0.7347711793	-0.3527549704	-0.13439
C	-1.397679556	-1.8190462982	 0.4102739358	-0.070975
C	-0.2290247323	-1.93330814	 1.3613596932	-0.22818
N	 0.64118653	-0.7685139117	 1.0675479942	-0.14739
C	 1.2650385092	-0.7656826028	-0.2781373963	-0.216779
C	 1.2922909838	-1.9467272435	-1.0997764467	 0.315073
N	 1.3589493176	-2.9063081451	-1.7430353371	-0.3505
H	 0.9620920909	 1.872127383	 0.4012715744	 0.135203
H	-0.1662565321	 1.9213755421	-0.9684852634	 0.129678
H	-0.7857846527	 1.8747726592	 0.692055589	 0.133645
H	-1.9590097566	-0.3983893313	-1.1202438861	 0.111729
H	-2.1943180084	-2.5510698033	 0.3591481674	 0.11642
H	-0.5386723717	-1.8755163339	 2.4120789162	 0.125682
H	 0.3257368117	-2.8712373934	 1.2394181781	 0.141512
H	 2.1976123761	-0.2067415793	-0.3043306006	 0.132563
