14
gdb 132910	3.09447	1.40394	0.97155	4.6055	68.54	-0.2329	-0.0609	0.1721	1109.2504	0.100805	-478.035777	-478.028058	-478.027114	-478.068351	28.474	
C	-0.0308680825	 1.5030864226	 0.0162397309	-0.480223
C	-0.0037240636	 0.0009668806	-0.0094000842	 0.231482
N	-0.0271942515	-0.6139069211	-1.1619310109	-0.369904
C	-0.0039709739	-2.0011708034	-1.2366766173	 0.439638
O	-0.0225485246	-2.6399471466	-2.2651609216	-0.382179
N	 0.0465443163	-2.681802479	 0.0044780843	-0.343449
C	 0.0715772474	-2.0617023099	 1.2109281075	-0.062362
C	 0.046918458	-0.7084007559	 1.2296071529	 0.162288
F	 0.0692466438	-0.0296588151	 2.3835889595	-0.074428
H	 0.8561027501	 1.8947367003	 0.5258984505	 0.146847
H	-0.0682382613	 1.8822439849	-1.0043568616	 0.155081
H	-0.9000327455	 1.8620764853	 0.5779860456	 0.14687
H	 0.0634100376	-3.6895806545	-0.0602390926	 0.2742
H	 0.1100688598	-2.6699352582	 2.1059694771	 0.156139
