15
gdb 15213	2.34013	2.17763	1.44964	3.6331	68.96	-0.2534	-0.0004	0.253	904.2246	0.11639	-362.620455	-362.612147	-362.611203	-362.653173	29.647	
C	 0.1216905492	 1.4436160529	 0.2483650655	-0.419873
C	-0.0899858777	-0.027467205	-0.0140629989	-0.011079
C	 0.5794250844	-0.7313997506	-1.1901660941	-0.226709
C	 1.4448720117	-0.0113075436	-2.0828754232	 0.36935
C	 2.1381554118	 0.582352268	-2.8646744463	-0.446725
N	 0.9670130882	-0.9914767521	 0.1867951556	-0.076589
C	 2.2081956859	-0.8070395564	 0.768291162	 0.155553
O	 3.2600104986	-1.1354621071	 0.2811892102	-0.288616
H	 1.0971245355	 1.7757189073	-0.1151187228	 0.147026
H	-0.6509696306	 2.0277648443	-0.2612093043	 0.136108
H	 0.0521062914	 1.6611445926	 1.3188827781	 0.131992
H	-1.0777285129	-0.4034770841	 0.2512065344	 0.109107
H	 0.031854521	-1.5496435061	-1.6538898728	 0.12912
H	 2.7715856175	 1.095420338	-3.5457290684	 0.207556
H	 2.1120188662	-0.3901106283	 1.790295385	 0.083779
