20
gdb 20290	4.9832	1.46495	1.38503	0.151	78.78	-0.2685	0.0951	0.3636	984.0107	0.179144	-311.798674	-311.791708	-311.790763	-311.830129	28.007	
C	 0.3383457844	 1.5507741818	 0.2807641138	-0.27175
C	 1.1499873933	 0.4891364835	-0.4128405547	-0.254875
C	-0.2658994179	 0.1903343174	 0.0231430714	-0.040227
C	-0.6083969207	-0.7102834539	 1.1896578757	 0.047321
C	-1.02565769	-2.2029290391	 0.9736613557	-0.054463
C	 0.467993386	-2.5354841005	 0.695039908	-0.217132
C	 0.4685529374	-1.5778166048	 1.9254490936	-0.055743
C	-0.7140836751	-2.4230357619	 2.4808327099	-0.223188
H	 0.6021222532	 1.7934361504	 1.305696546	 0.108695
H	-0.0181389502	 2.3962069697	-0.2974000759	 0.107268
H	 1.3503866326	 0.5989006575	-1.4733621189	 0.10788
H	 1.9615434052	 0.0341592924	 0.1444343178	 0.115371
H	-1.000892348	 0.1639045873	-0.778724677	 0.081956
H	-1.2813002149	-0.1822248585	 1.8773333102	 0.061906
H	-1.8965976766	-2.562445042	 0.4217799266	 0.06292
H	 0.7777472666	-3.5666377867	 0.8882100078	 0.084498
H	 0.8963915585	-2.1599589913	-0.2338734292	 0.102518
H	 1.3351754152	-1.2201441865	 2.4852743174	 0.064571
H	-1.3764018313	-1.9320852721	 3.1997349247	 0.085868
H	-0.4780445377	-3.4463366927	 2.784824427	 0.086608
