19
gdb 90357	2.43958	1.4308	1.22845	3.6885	75.74	-0.2346	-0.0135	0.2211	1106.8197	0.157629	-423.022174	-423.013404	-423.01246	-423.055526	33.606	
C	 0.1417317557	 1.6329488114	-0.1285706575	-0.502289
C	 0.0639944183	 0.1299854056	 0.025345607	 0.339109
C	-1.3332698959	-0.4623895571	 0.399583916	-0.412562
C	-0.7046609805	-1.0611073195	 1.6715053592	 0.421334
O	-1.1604873991	-1.5557698628	 2.6623344456	-0.310222
C	 0.7052011311	-0.6749370789	 1.2374863633	-0.202609
C	 1.2874157713	-1.6975651725	 0.2026323349	-0.290313
C	 0.8479369013	-0.7612614356	-0.9615369281	 0.083847
O	 0.0573015694	-1.2907998171	-2.0003929816	-0.430234
H	 1.179346176	 1.9749869918	-0.2083014198	 0.114971
H	-0.3881730229	 1.957778496	-1.0316437359	 0.129737
H	-0.3138557109	 2.1456454786	 0.7258377991	 0.11958
H	-2.1052563831	 0.2834402927	 0.6113399281	 0.127275
H	-1.7349632628	-1.1902646668	-0.3093847094	 0.146536
H	 1.3961591636	-0.2625413843	 1.9731210003	 0.084735
H	 2.3623526807	-1.866615926	 0.2894255823	 0.110341
H	 0.7796897085	-2.6656524036	 0.2001917037	 0.116979
H	 1.7108325292	-0.2121142484	-1.366287106	 0.066585
H	 0.6145711201	-1.8343489637	-2.5663448209	 0.287198
