23
gdb 119625	3.85842	0.88157	0.81272	1.3057	85.34	-0.2548	0.0813	0.3361	1503.2559	0.207149	-388.29338	-388.28419	-388.283246	-388.327556	35.332	
O	-0.1191886829	 1.4862557803	-0.3383323321	-0.420507
C	 0.0018446924	 0.0745089838	-0.2355449327	-0.069737
C	-1.3707456423	-0.4849580227	 0.1282062596	-0.283956
C	-1.3968376883	-1.9935565999	 0.2359271621	 0.380432
C	-1.5646706963	-2.8257127283	-1.0182880004	-0.335736
C	-2.6654648517	-2.794636605	 0.0167494645	-0.080317
C	-2.7133314275	-3.9283006965	 1.0300626306	-0.213623
C	-1.253930109	-4.0742400844	 1.5204774055	-0.229609
C	-0.639070761	-2.6623798408	 1.3833284433	-0.2657
H	 0.7438254518	 1.8462396488	-0.5618724984	 0.283737
H	 0.3402064451	-0.3693820053	-1.1855790391	 0.086041
H	 0.7383236662	-0.2046185667	 0.534773725	 0.085134
H	-1.6877431876	-0.0315131379	 1.0765575635	 0.0993
H	-2.0848758738	-0.150140398	-0.6334299344	 0.099952
H	-1.7447742388	-2.2855427846	-1.9421845027	 0.105115
H	-0.9811107783	-3.7317897033	-1.1491297236	 0.103364
H	-3.5916208969	-2.2927341439	-0.2443605726	 0.077021
H	-3.3709836385	-3.642299316	 1.8601598863	 0.097184
H	-3.1063191478	-4.8640564582	 0.6172273536	 0.094788
H	-1.1912289617	-4.4591402168	 2.5417251557	 0.09578
H	-0.7125721469	-4.784165103	 0.8871528971	 0.103533
H	 0.4449254367	-2.7012194004	 1.2274481668	 0.09251
H	-0.8088456829	-2.0804461312	 2.2990401524	 0.095296
