16
gdb 9140	3.79068	0.87543	0.73757	2.4922	71.4	-0.2515	-0.0325	0.219	1485.7008	0.127239	-383.713029	-383.703333	-383.702389	-383.749856	32.121	
C	 0.0276996286	 1.5157165613	 0.0782655055	-0.397786
C	-0.0531459498	-0.0236804294	-0.06597712	-0.21405
C	 0.7054011725	-0.6644070278	 1.1019659979	 0.172772
O	 1.780242042	-1.1890503881	 0.998924076	-0.240324
C	-1.43251377	-0.4976813858	-0.0683067831	 0.047942
C	-2.5708802749	-0.8907371276	-0.0126399292	 0.045671
C	-3.9353050574	-1.4196604321	 0.0080321959	-0.19161
O	-4.008528832	-2.7836113767	 0.3955370959	-0.399284
H	 1.0700392442	 1.8432193442	 0.0371987455	 0.135574
H	-0.5267390998	 1.9972407015	-0.7304285004	 0.139247
H	-0.4073883376	 1.8399528699	 1.0281658403	 0.134263
H	 0.4638082727	-0.3289039858	-0.9824609433	 0.12402
H	 0.1778406778	-0.5822751679	 2.0782363236	 0.091182
H	-4.5407079538	-0.8707120417	 0.7377542609	 0.14226
H	-4.4008249563	-1.2544279328	-0.976953219	 0.120744
H	-3.4054514963	-3.2780239114	-0.1694305864	 0.289376
