21
gdb 59847	3.12714	0.90468	0.7788	0.5719	82.53	-0.2249	-0.0555	0.1694	1560.9188	0.180088	-420.445735	-420.434893	-420.433949	-420.482302	38.863	
C	-0.1468043937	 1.5879326459	 0.0328072079	-0.405252
C	-0.0066207973	 0.0661541415	-0.0253838281	 0.082403
C	 0.7667057412	-0.4932159267	 1.1780620149	-0.383553
N	-1.3303702663	-0.5305427221	-0.1374105158	-0.297962
C	-1.5614892851	-1.7663387026	-0.6391437311	 0.242434
N	-0.6239353739	-2.5177188751	-1.0996879004	-0.538576
C	-3.0472377951	-2.1326304735	-0.5876034602	 0.360993
C	-3.4714102006	-3.4648986473	-1.1653460966	-0.50071
O	-3.841288191	-1.3653317902	-0.0884437894	-0.310846
H	 0.8377803085	 2.0606816096	 0.0844309134	 0.122445
H	-0.667802361	 1.9712517428	-0.8494465758	 0.121918
H	-0.7084051128	 1.8950315304	 0.9235951733	 0.115599
H	 0.5357725813	-0.2159224763	-0.935089161	 0.109833
H	 1.7780396769	-0.0747843716	 1.2118539961	 0.110218
H	 0.2604017385	-0.2419930876	 2.1167641272	 0.106203
H	 0.8463847972	-1.5797157489	 1.1007468358	 0.141705
H	-2.1349730036	-0.0623847368	 0.2518374669	 0.25355
H	-1.0013320145	-3.3905988586	-1.457631881	 0.2128
H	-2.9775774313	-4.2887485101	-0.639325772	 0.154398
H	-4.5521710356	-3.5654080077	-1.0655260134	 0.148748
H	-3.1908948518	-3.5369009852	-2.2213536306	 0.153653
