19
gdb 66481	3.11746	1.67902	1.38533	1.8468	78.12	-0.2383	0.0899	0.3283	1002.8135	0.158763	-385.822313	-385.814743	-385.813799	-385.853792	30.811	
C	 0.0857106449	 1.566713236	-0.0197400602	-0.523597
C	-0.021104412	 0.0771950887	-0.020701488	 0.348293
C	 0.8940606336	-1.0063753081	-0.5524870343	-0.157746
C	 0.5048394325	-0.9798143456	 0.9272559773	-0.201924
C	-0.7827443938	-1.8548998686	 0.8431618247	 0.468582
C	-1.5571823895	-2.2497491764	 2.0629113109	-0.517799
O	-0.5010532441	-2.933033137	-0.0900413584	-0.330119
C	-0.2768292191	-1.8914179404	-1.0624618078	 0.079451
C	-1.213705533	-0.89116464	-0.3188044392	-0.232308
H	 1.0998513359	 1.8854573907	 0.2447196783	 0.122641
H	-0.1467724422	 1.9862276987	-1.0055958959	 0.120919
H	-0.6024506702	 2.0185185069	 0.7044146026	 0.119862
H	 1.9184053364	-0.9403726476	-0.8945161865	 0.087437
H	 1.2278426965	-0.8942671007	 1.7285011683	 0.084213
H	-1.7878457548	-1.367886667	 2.6687114636	 0.123622
H	-2.4942849383	-2.7416320901	 1.7874576225	 0.128223
H	-0.9725932177	-2.9427337955	 2.6780867996	 0.130724
H	-0.3378864034	-2.2192829195	-2.0987008126	 0.077156
H	-2.2401951218	-0.6562526144	-0.5922326548	 0.072369
