19
gdb 77369	2.51165	1.6537	1.35418	1.3979	75.2	-0.2426	0.0735	0.3161	1031.8923	0.158227	-422.980717	-422.972246	-422.971302	-423.012957	33.705	
C	 0.0061904383	 1.4789761247	 0.029473725	-0.513811
C	 0.005627559	-0.0194779803	-0.0262010999	 0.344694
C	-0.9433640427	-0.884974986	 0.8153915029	-0.11079
C	-1.0740078483	-2.2479518161	 0.132561315	-0.297835
C	 0.426459236	-2.0839709247	-0.2088659093	 0.337006
O	 1.251852606	-3.1529859338	-0.5111397878	-0.483752
C	 0.5522120229	-1.0182164267	 0.9772289897	-0.237042
C	 0.4669025756	-0.8867725807	-1.1850786975	 0.046066
O	-0.3529139593	-0.892968571	-2.3321812943	-0.445257
H	 0.9858916834	 1.8876295334	-0.2431485416	 0.116822
H	-0.7348027064	 1.8980613589	-0.6600418676	 0.131207
H	-0.2350760409	 1.8364097365	 1.0362235173	 0.116128
H	-1.6392781758	-0.422914467	 1.5036503133	 0.084578
H	-1.2296048188	-3.0434943316	 0.8702735041	 0.081857
H	-1.7642018755	-2.3594244955	-0.7087301375	 0.104854
H	 1.0710527893	-3.8665955059	 0.1097443026	 0.28232
H	 1.2202844319	-0.891472421	 1.8164304804	 0.090293
H	 1.5133690792	-0.6575919775	-1.435293224	 0.067032
H	 0.0523821662	-1.4734323757	-2.9847724807	 0.285628
