19
gdb 72959	2.62454	1.48685	1.19662	1.0937	82.91	-0.2374	0.034	0.2713	1110.6071	0.156926	-385.82787	-385.818733	-385.817789	-385.860891	35.558	
C	-0.0781700342	 1.5753885702	 0.0477674251	-0.498034
C	-0.0037564458	 0.0756885215	 0.0645834964	 0.281779
C	-1.2294888908	-0.8471676535	-0.0668266108	-0.2796
C	-0.5948883981	-1.8368498645	 0.9587279137	-0.237861
C	 0.6223899358	-0.9163057691	 1.0678431958	-0.172961
C	 1.2282161258	-0.7107181724	-0.3143360576	 0.178619
O	 1.1028649423	-1.687144365	-1.3183315811	-0.465386
C	 2.486403296	-0.0046852401	-0.3368453596	 0.267169
C	 3.5594726593	 0.539162793	-0.3660139585	-0.429058
H	 0.8912821095	 2.0279937571	 0.2711541897	 0.13264
H	-0.3963570652	 1.9363746412	-0.9377714436	 0.124439
H	-0.804834364	 1.9365672672	 0.7839647423	 0.114969
H	-2.1318139136	-0.3693346582	 0.322425052	 0.099743
H	-1.4300958956	-1.2350803707	-1.06728658	 0.113914
H	-1.1606913295	-1.8945464629	 1.8907619076	 0.101975
H	-0.3958941098	-2.8494784266	 0.5989699899	 0.098753
H	 1.2125689427	-0.7236831265	 1.9568191674	 0.091308
H	 1.8137561992	-2.326348004	-1.1949094159	 0.285423
H	 4.5015951558	 1.0279794832	-0.3992977227	 0.19217
