13
gdb 16791	3.86302	2.037	1.46225	1.7793	58.3	-0.255	-0.0473	0.2076	800.5173	0.09538	-398.618156	-398.61166	-398.610715	-398.649402	24.135	
O	 0.0342807251	 0.0091175069	-0.1335069906	-0.306118
C	 0.0066555547	 1.2051744937	-0.0122967459	 0.413727
C	-1.2299990538	 2.0998566648	 0.0472671958	-0.467557
C	-0.6964125575	 3.5315737034	 0.0067711612	 0.388457
O	-1.3347361036	 4.541371084	 0.0402834159	-0.288632
N	 0.7506953858	 3.5271824875	-0.0852784693	-0.127324
C	 1.3445723678	 3.0304657049	 1.1685328592	-0.249008
C	 1.202626303	 2.1181702138	-0.0004876145	-0.142888
H	-1.87332073	 1.9055830261	-0.8168107615	 0.180038
H	-1.8420404246	 1.9268301839	 0.9372602355	 0.171372
H	 2.323605483	 3.4362441728	 1.4007475818	 0.153308
H	 0.6931837894	 2.8872605562	 2.0274455621	 0.141274
H	 2.0753749206	 1.833723692	-0.5776654996	 0.133353
