15
gdb 23215	3.0147	1.52705	1.19282	3.4789	70.72	-0.2322	-0.061	0.1712	1018.1383	0.113595	-453.868991	-453.861769	-453.860825	-453.900704	28.034	
O	-0.0787577732	 1.2859482496	-0.0023641069	-0.35514
N	 0.0135112411	-0.0968504224	-0.0040114317	-0.267355
C	-1.1213619864	-0.6684182782	 0.0211138654	 0.383656
C	-1.3380286571	-2.162627917	 0.0248167881	-0.105352
C	-2.4503704751	-2.3293096463	-1.0538333758	-0.249424
C	-3.2574879494	-1.5673410892	 0.0376626921	-0.135023
N	-2.407270339	-2.234490132	 1.1093503651	-0.3354
C	-2.5656844609	-0.1911592522	 0.0302404409	 0.411182
O	-3.0402889395	 0.9088296649	 0.0136332189	-0.311884
H	 0.8470022282	 1.5553607358	-0.0153966223	 0.315184
H	-0.4614829682	-2.8014256979	 0.103684454	 0.096694
H	-2.3115900436	-1.8783256671	-2.0420902615	 0.117001
H	-2.7807934519	-3.3675400503	-1.1475469898	 0.11388
H	-4.3409971334	-1.5776336576	 0.1306584194	 0.096447
H	-2.7140968418	-3.2082337401	 1.1612874742	 0.225534
