23
gdb 60176	2.90839	0.84071	0.78711	1.5825	82.5	-0.2486	0.0663	0.3149	1615.0176	0.201912	-425.421981	-425.410931	-425.409986	-425.458552	40.472	
C	-0.0613262846	 1.5059865732	-0.107227557	-0.400854
C	 0.2616659743	 0.0133402151	-0.1658226374	 0.14172
O	-0.4581243186	-0.7108747544	 0.8319801059	-0.429496
C	 0.0275966795	-0.5782073458	-1.5649801889	-0.260066
C	 0.404628632	-2.0394354141	-1.6443831537	 0.021715
O	 0.3998831727	-2.6579044631	-2.938271346	-0.309453
C	 1.6493664802	-2.582956466	-2.2266210474	 0.398354
C	 2.7048056713	-1.7024562333	-2.8608149156	-0.45849
C	 2.1603314823	-3.9182937531	-1.7253111171	-0.447125
H	 0.574424223	 2.07799028	-0.7906804928	 0.117634
H	-1.1050308354	 1.6892439815	-0.3928788019	 0.10818
H	 0.0873628267	 1.8849527649	 0.907406769	 0.124927
H	 1.3141262448	-0.1342412121	 0.1073589812	 0.091855
H	-1.3982315083	-0.5671717068	 0.673625807	 0.276795
H	-1.038993438	-0.4785912498	-1.8165523431	 0.095595
H	 0.5730225188	 0.0068906286	-2.3109014118	 0.102008
H	-0.0660160124	-2.6430348079	-0.8671464607	 0.091352
H	 2.2801734857	-0.7859195522	-3.2726192906	 0.126201
H	 3.4782605995	-1.4357501079	-2.1320442316	 0.118471
H	 3.1942199828	-2.2398885634	-3.6806494359	 0.124842
H	 2.6150008384	-4.4866223797	-2.5444079112	 0.120719
H	 2.9227388566	-3.7791696699	-0.9510078063	 0.118239
H	 1.3452247885	-4.5138191938	-1.3075197641	 0.126879
