19
gdb 75832	2.50914	1.64572	1.1815	3.1369	74.71	-0.2447	-0.0185	0.2262	1089.0264	0.157745	-423.055516	-423.046799	-423.045855	-423.088693	33.146	
C	 0.1994869448	 1.6196570918	 0.0317392599	-0.402752
C	 0.0811899	 0.0938175906	 0.0186227733	-0.165747
C	 0.8228235796	-0.5363827476	-1.1791083376	 0.392245
O	 0.835416845	-0.0827479305	-2.2923186923	-0.308796
C	 1.5329914079	-1.8247455318	-0.7333408027	-0.357121
C	 1.5186627074	-1.7369952274	 0.7721101997	-0.022887
O	 2.1014063718	-0.5164860279	 1.2557902166	-0.302448
C	 0.6637654183	-0.6231918281	 1.2274440841	 0.407535
C	-0.0318782429	-0.582851707	 2.5597785812	-0.488812
H	 1.2280280306	 1.9150332673	 0.2572479277	 0.137104
H	-0.0647420315	 2.0166147298	-0.9513740989	 0.13989
H	-0.4622555774	 2.0663716358	 0.7792010622	 0.113184
H	-0.9774788686	-0.1896689034	-0.0877908886	 0.099352
H	 0.971321657	-2.6950799642	-1.096685524	 0.129681
H	 2.5369295177	-1.8757404238	-1.1634678032	 0.143659
H	 1.6966324525	-2.615368764	 1.3879018175	 0.096432
H	-0.0922186273	 0.4437519003	 2.9362786238	 0.134339
H	-1.0528332801	-0.9705545669	 2.4772581401	 0.123187
H	 0.5125845951	-1.1815701429	 3.2943660415	 0.131955
