16
gdb 5734	4.0321	2.03172	1.38636	3.7455	72.56	-0.2067	0.0442	0.2508	884.6462	0.132692	-342.793927	-342.786854	-342.78591	-342.82559	25.827	
C	-0.0913482023	 1.5186163851	 0.0389142192	-0.489371
C	 0.0345150345	 0.0311697885	-0.0115600847	 0.114542
C	 0.1102125029	-0.8308128356	-1.0790333037	 0.264324
C	 0.1560583658	-1.3277842825	-2.5202817339	-0.384642
C	 0.2757470197	-2.7637727544	-1.8833167775	-0.170145
N	 0.2154861626	-2.0924366172	-0.5647015787	-0.00077
C	 0.2044067161	-2.0039796445	 0.7910487538	-0.045449
N	 0.0961517874	-0.7343227081	 1.1423627196	-0.310462
H	 0.7529651988	 1.9703937576	 0.571014466	 0.131452
H	-0.1246655149	 1.943204173	-0.9683242601	 0.111022
H	-1.0022071799	 1.8220239651	 0.5665295845	 0.131454
H	-0.7484480093	-1.1711017164	-3.1130585864	 0.127287
H	 1.0245512479	-1.0212297761	-3.1083379023	 0.127287
H	-0.5649091156	-3.4361785965	-2.0697579589	 0.13254
H	 1.2183202434	-3.2854399735	-2.0650081268	 0.13254
H	 0.2737233628	-2.8451587646	 1.4625900899	 0.128391
