21
gdb 82515	3.15409	1.38203	1.29244	1.8023	81.55	-0.2478	0.0796	0.3275	1109.6636	0.182725	-387.075669	-387.067223	-387.066279	-387.108209	33.437	
C	-0.3414002514	 1.5036063856	-0.1993530988	-0.4188
C	-0.0000582488	 0.0464290865	 0.0397597318	 0.001362
C	 1.3197622082	-0.6277435342	-0.2493320859	-0.077875
C	 2.6377308768	 0.1564509617	-0.3146496946	-0.304822
C	 2.9357075495	 0.6491676128	 1.1074715076	 0.407874
C	 4.3560560759	 0.8561492322	 1.5591756644	-0.480058
O	 1.9872974264	 1.6244617486	 1.5761376829	-0.292231
C	 1.8057206272	 0.2523883898	 1.9702522696	-0.035074
C	 0.7996569388	-0.551906196	 1.18518166	-0.0825
H	 0.5129602616	 2.1636809006	-0.0723160969	 0.144711
H	-0.7360590195	 1.6227720314	-1.2152368358	 0.103367
H	-1.1198387104	 1.8359914598	 0.496379841	 0.113637
H	-0.8346232302	-0.6041081639	-0.2203555023	 0.082721
H	 1.2882893034	-1.5628981466	-0.7988796692	 0.081154
H	 3.4416296042	-0.5113897028	-0.6424228306	 0.102134
H	 2.6124158653	 0.9953806877	-1.0194225476	 0.112702
H	 4.8502833542	 1.6249308586	 0.9543219132	 0.126197
H	 4.3800439544	 1.1810331119	 2.6024313219	 0.129088
H	 4.9358248563	-0.0681494748	 1.4642720239	 0.11982
H	 1.9159221669	 0.0688821781	 3.0366317156	 0.088092
H	 0.393409571	-1.423459587	 1.6874675697	 0.078501
