14
gdb 133234	3.24358	1.44313	1.00499	1.26	69.95	-0.2227	-0.0852	0.1376	1079.8255	0.101296	-474.15261	-474.145046	-474.144101	-474.184969	27.872	
C	-0.3127467546	 1.3542694093	-0.0274665725	-0.311627
N	 0.0224509351	-0.0597136093	-0.0034775144	-0.032124
N	 0.2153842547	-0.6585303392	-1.1958819411	-0.272537
C	 0.5117468118	-1.9103934647	-1.1636985919	 0.372512
F	 0.7027922674	-2.5095651087	-2.3235638111	-0.055884
N	 0.655633894	-2.7110666496	-0.070968449	-0.285741
C	 0.4681951621	-2.1249687554	 1.0647192599	-0.033361
C	 0.1256123924	-0.711768493	 1.2222639992	 0.358002
N	-0.0757464702	-0.0583258301	 2.311020371	-0.564848
H	 0.4362624433	 1.9221363185	 0.5320387683	 0.156647
H	-0.3435456757	 1.6679113158	-1.0690158623	 0.151989
H	-1.2788282811	 1.5142951215	 0.4599763199	 0.156665
H	 0.5705916884	-2.717703451	 1.9727335864	 0.141845
H	 0.0359086225	-0.6714531842	 3.1165214975	 0.218464
