19
gdb 73788	2.0674	1.7835	0.99596	3.5685	80.75	-0.2309	-0.0483	0.1826	1192.3304	0.158015	-423.062739	-423.053425	-423.052481	-423.097252	33.558	
C	 0.098034067	 1.5142058817	-0.0580284118	-0.485313
C	-0.018455543	 0.0189688286	 0.0131848771	 0.18538
C	-1.1903617185	-0.6486895336	 0.0419134517	 0.116744
C	-2.5516960102	 0.0032976896	 0.0637419257	-0.508645
C	-1.1626461979	-2.1294464705	-0.0262791109	 0.311071
O	-2.1680420686	-2.810133804	-0.099002659	-0.326298
C	 0.2142158425	-2.784685663	-0.0843281699	-0.193978
O	 1.2157345318	-2.0244509534	 0.5558857152	-0.235901
C	 1.2993191979	-0.7171443677	 0.0436321242	-0.158371
H	 0.8473140676	 1.8084238183	-0.8033976984	 0.135149
H	-0.8462335384	 1.9968676109	-0.312250229	 0.137666
H	 0.4416729709	 1.9197353549	 0.9029069957	 0.143058
H	-2.7638959407	 0.5329394265	-0.8721857105	 0.128865
H	-3.3141024072	-0.7669154709	 0.1889187051	 0.155645
H	-2.6437578685	 0.7264154595	 0.879593638	 0.125564
H	 0.1655367231	-3.7546090927	 0.414588659	 0.13783
H	 0.4636793877	-2.9625864254	-1.1471254914	 0.107944
H	 1.7340305634	-0.7189741568	-0.9761650103	 0.101959
H	 2.0084316612	-0.1800240819	 0.6842570293	 0.12163
