23
gdb 123137	4.52096	0.52724	0.48829	3.032	80.47	-0.2572	0.0661	0.3233	2270.0894	0.202967	-462.550995	-462.539591	-462.538647	-462.589091	40.021	
C	 0.012612961	 1.5428024722	-0.0981553187	-0.403647
C	 0.0710253192	 0.0161411169	-0.0502914449	 0.130653
O	-1.2359838858	-0.5487456678	 0.052020081	-0.43432
C	 0.7058353153	-0.5759606373	-1.3065245637	-0.187512
C	 0.8049515051	-2.0950138019	-1.2618087874	-0.055214
O	 1.4644032182	-2.5327770497	-2.4357720607	-0.263988
C	 1.6027586764	-3.93795544	-2.5241842965	-0.068791
C	 2.4594629085	-4.2146676979	-3.7499233259	-0.058065
O	 3.7218974773	-3.5866733692	-3.644250305	-0.422836
H	 1.0160844164	 1.9744188536	-0.1718309697	 0.117771
H	-0.5754534031	 1.8750761442	-0.9594251358	 0.126471
H	-0.4543189108	 1.9430988898	 0.809307539	 0.104209
H	 0.6747448789	-0.2878020665	 0.8227103771	 0.064438
H	-1.6591238503	-0.1824968376	 0.8347933599	 0.281924
H	 0.1158558235	-0.2797007397	-2.1814411392	 0.111693
H	 1.7105052205	-0.1570163113	-1.4324875356	 0.099656
H	 1.3677885702	-2.4186584175	-0.3690886776	 0.082594
H	-0.1976540872	-2.5393773575	-1.1952085653	 0.111712
H	 2.1004070547	-4.3298794678	-1.6221658724	 0.092116
H	 0.6188899054	-4.4275507581	-2.6129308059	 0.087125
H	 2.6359673542	-5.2911373353	-3.8454470126	 0.105462
H	 1.9170663622	-3.8793276209	-4.6485989752	 0.09158
H	 3.5328262801	-2.6798596207	-3.3745270849	 0.28697
