18
gdb 80016	2.94545	1.81019	1.62177	1.1449	74.01	-0.2215	-0.0044	0.2171	899.923	0.150738	-401.902997	-401.896495	-401.895551	-401.933281	28.295	
O	 0.057300813	 1.478996022	 0.067598836	-0.460856
C	 0.0365858148	 0.076731278	 0.015699845	 0.152743
C	-1.3317732412	-0.5858506763	-0.3258422962	-0.126477
C	-1.466838867	-0.1020364958	-1.7749964896	-0.094519
C	-0.2377567178	-0.0930152348	-2.3096487481	-0.078649
C	 0.7200430201	-0.5779345559	-1.2209020524	-0.069756
N	 0.4135734316	-2.0518901067	-1.1281367399	-0.100921
C	 0.2690940999	-2.6148619934	 0.231747564	-0.264842
C	-0.9187629321	-2.0665219999	-0.4803386415	-0.006171
H	-0.2978061138	 1.7957537868	-0.7730055958	 0.272185
H	 0.4494430153	-0.2353081891	 0.972920299	 0.084386
H	-2.1659672348	-0.3811084218	 0.3441270875	 0.073259
H	-2.4044448204	 0.1053232605	-2.2751126148	 0.103791
H	 0.038663825	 0.1163951973	-3.3342920142	 0.107085
H	 1.7829789871	-0.3926104758	-1.3700682778	 0.07392
H	 0.3960471046	-3.6942771001	 0.2554431137	 0.117697
H	 0.6910336836	-2.1141349149	 1.0949043848	 0.123507
H	-1.654630458	-2.74836739	-0.9004397494	 0.093618
