18
gdb 47703	2.10283	1.70979	1.05596	5.5074	73.15	-0.2407	-0.0256	0.2152	1132.554	0.149418	-439.148667	-439.140442	-439.139498	-439.181939	30.998	
O	-0.0115973009	-0.0928203618	 0.0364805928	-0.289615
C	-0.0228330558	 1.1143855935	 0.0233762716	 0.380581
C	-1.3235418022	 1.9073678148	 0.0117104794	-0.294849
C	-1.5253966178	 2.8288108307	 1.2292312192	-0.195981
C	-0.4028609956	 3.8548236252	 1.4453201009	-0.172842
N	 0.8249237682	 3.2921315538	 1.9897179956	-0.285959
C	 1.6939437607	 2.4257967867	 1.3858453898	 0.370492
O	 2.7275136808	 2.0771007728	 1.9181520428	-0.348786
C	 1.2816764279	 1.9152263329	-0.0022075603	-0.397023
H	-1.3315968955	 2.5221914011	-0.8995327134	 0.114428
H	-2.143707601	 1.18929598	-0.060283393	 0.126523
H	-2.4682385512	 3.370773118	 1.0924844263	 0.110482
H	-1.6304536612	 2.2275046541	 2.1390940316	 0.12207
H	-0.2005154088	 4.3909494297	 0.5064168128	 0.11444
H	-0.740731049	 4.6088671502	 2.1605633324	 0.121186
H	 1.1394712464	 3.6124161005	 2.8931003694	 0.252081
H	 2.0853740004	 1.2664250435	-0.3457830519	 0.151536
H	 1.1796134046	 2.7697072842	-0.681857536	 0.121235
