15
gdb 113639	3.77583	0.86695	0.82986	3.6996	69.16	-0.2744	-0.0968	0.1777	1374.5495	0.111523	-453.921379	-453.912317	-453.911373	-453.956518	31.335	
O	-0.1573506091	 1.5237947228	-0.6407445847	-0.415738
C	 0.0395615745	 0.3416992352	 0.1167626812	-0.086407
C	-1.264386862	-0.4164875647	 0.234848797	-0.022803
N	-1.6662165647	-1.1693798593	-0.9448132364	-0.316154
C	-1.3667914954	-1.9243167933	 0.2815406186	-0.170427
C	-0.1593890114	-2.8016562762	 0.2601433791	 0.335935
O	 0.7710554063	-2.7165982607	-0.5009422463	-0.273279
C	-0.1643671605	-3.8368811655	 1.319874801	 0.214529
N	-0.1800677086	-4.6434448921	 2.148410089	-0.296151
H	-0.3495570958	 1.2461167198	-1.5434316896	 0.294411
H	 0.8095935307	-0.3012128844	-0.3227653373	 0.131328
H	 0.3759886917	 0.6615310044	 1.1081330174	 0.118009
H	-2.0413184865	 0.1055744509	 0.7916862129	 0.11388
H	-2.6725253587	-1.1400137527	-1.0862154041	 0.251882
H	-2.1910037805	-2.3230144042	 0.8679117421	 0.120986
