20
gdb 13482	3.0712	1.63036	1.13278	2.5805	75.68	-0.2366	-0.0175	0.2191	1092.0589	0.175457	-349.025714	-349.016848	-349.015904	-349.0592	32.783	
C	 0.0041045635	 1.5987521499	 0.115810863	-0.391164
C	 0.0339622916	 0.0698919837	-0.0133268455	 0.020886
C	 0.8495781642	-0.5739171215	 1.1169844587	-0.397768
C	-1.3850725069	-0.5063938357	-0.0564085601	-0.071075
C	-2.3494576496	-0.1467176197	-1.2349979763	-0.259205
C	-2.7373119314	-1.6470220072	-1.396900928	-0.334877
C	-1.5690569977	-1.9842442832	-0.4575487438	 0.38535
O	-0.9597001886	-2.9889245539	-0.2215681944	-0.300029
H	 1.0189426359	 2.00991654	 0.1029105347	 0.113908
H	-0.5566839436	 2.065307589	-0.7005354095	 0.11334
H	-0.4649061593	 1.9012806752	 1.0597588318	 0.111749
H	 0.5189422346	-0.1815381418	-0.9678413035	 0.073049
H	 0.4184507323	-0.3273338441	 2.0950814316	 0.107061
H	 0.8642175983	-1.6618623114	 1.0188970541	 0.146234
H	 1.8815724526	-0.2079329981	 1.108886997	 0.107165
H	-1.8803674593	-0.3365544957	 0.9105362402	 0.095278
H	-3.1634177584	 0.5403471613	-1.0017192175	 0.108009
H	-1.8058022616	 0.2333110411	-2.1039393233	 0.112394
H	-3.7017503021	-1.8998211044	-0.9441367761	 0.131469
H	-2.6968155543	-2.0912030534	-2.394483853	 0.128228
