19
gdb 119798	5.05883	0.84694	0.77452	2.5612	77.94	-0.2344	0.0069	0.2413	1496.1433	0.158469	-423.000134	-422.9915	-422.990556	-423.03411	31.683	
C	-0.0426451616	 1.4012147248	-0.0624415899	-0.224758
O	 0.0164523628	-0.0020700354	 0.0254121475	-0.227016
C	 0.6011280852	-0.5975726409	-1.1064121869	-0.150718
C	 0.6177849412	-2.0836103608	-0.9614705969	 0.272682
C	 0.0989091072	-2.8016416834	 0.0405213463	-0.178688
C	 0.2284061475	-4.2591768769	-0.2466512699	 0.006541
O	-0.4758742794	-4.6721336014	-1.4464978996	-0.260294
C	 0.9171447635	-4.3788603665	-1.5426372826	 0.039016
C	 1.2306283554	-2.9701139348	-2.0356301275	-0.340968
H	 0.960178731	 1.8482890606	-0.1531741759	 0.104565
H	-0.6444270486	 1.7320550353	-0.9238027393	 0.106133
H	-0.5097845973	 1.7658182062	 0.8553158089	 0.129874
H	 0.0473642774	-0.3194529678	-2.0235625577	 0.098699
H	 1.6323508325	-0.2226699468	-1.2549377464	 0.092098
H	-0.3871264182	-2.3898912105	 0.9137728036	 0.112102
H	 0.2721281075	-5.0094503119	 0.5366771934	 0.094388
H	 1.5566825712	-5.2152798072	-1.8119165243	 0.093687
H	 0.7996775858	-2.7834139788	-3.027106131	 0.122956
H	 2.3140980668	-2.8126220637	-2.1235280719	 0.109702
