18
gdb 86608	3.58594	1.10791	0.91035	2.5137	74.15	-0.2396	0.0209	0.2605	1280.6122	0.147234	-439.080612	-439.071668	-439.070724	-439.115349	32.071	
O	-0.1581406422	 1.3638014928	 0.3664092885	-0.432635
C	 0.0892026459	 0.0310117124	-0.0031675089	-0.006885
C	-1.1792605481	-0.8612781889	-0.0440792588	-0.186869
N	-0.9041994883	-1.0787425608	-1.4745872445	-0.091328
C	-1.6297973025	-1.80632917	-2.4572127447	 0.026835
C	-0.8665038406	-2.4135370297	-3.6014341197	-0.264989
C	-1.4568966208	-3.3083894772	-2.5431578527	-0.273273
C	 0.1780754526	-0.2320628721	-1.5296157187	 0.377337
O	 0.8837443803	 0.1603289682	-2.424268253	-0.385907
H	 0.4810752993	 1.9128624243	-0.1022665938	 0.300143
H	 0.9197069386	-0.4115458051	 0.5639295204	 0.091829
H	-1.154299512	-1.7724601598	 0.561224175	 0.111367
H	-2.0983026767	-0.2998673877	 0.1500081322	 0.123092
H	-2.6213303621	-1.4106270199	-2.6684630528	 0.101302
H	-1.3337589787	-2.3857337667	-4.5787924244	 0.123398
H	 0.2054728641	-2.2637246819	-3.6108290459	 0.148029
H	-0.775958137	-3.7673749298	-1.8354577707	 0.119823
H	-2.3289838617	-3.9038563681	-2.7883156974	 0.118733
