18
gdb 84768	2.31394	1.54534	1.22647	3.2793	77.11	-0.258	0.0072	0.2652	1088.5456	0.146986	-401.972815	-401.964002	-401.963058	-402.005979	33.432	
C	-0.0218656551	 1.614083689	-0.0149849382	-0.402145
C	 0.0804138953	 0.0867312055	-0.0113191112	-0.042147
C	 0.8464039536	-0.5219973645	-1.1654405426	-0.065013
C	 1.6093366618	-1.5447989782	-0.7917570646	-0.080869
C	 1.4978058215	-1.8153733923	 0.6876403308	-0.297572
C	 0.8297449061	-0.5131968096	 1.2266787226	 0.209705
O	 1.8090089361	 0.4322034991	 1.6291347641	-0.444598
C	-0.0867731407	-0.7813158159	 2.353107523	 0.239554
N	-0.7814054071	-0.9918620655	 3.2529017064	-0.345083
H	 0.9661270495	 2.0768391238	-0.0283198173	 0.140426
H	-0.5737321823	 1.9428585041	-0.9011051277	 0.113311
H	-0.5572249648	 1.9750678792	 0.8678812861	 0.130263
H	-0.9397485819	-0.3229714892	-0.0097884657	 0.105596
H	 0.7328221598	-0.1546745871	-2.179147056	 0.101465
H	 2.2212004328	-2.1526322467	-1.4476170737	 0.103284
H	 0.8780870445	-2.6981311723	 0.8914258041	 0.130533
H	 2.460645425	-1.9799292409	 1.1848663339	 0.111145
H	 2.2849714158	 0.0715955213	 2.3853914259	 0.292144
