19
gdb 113066	3.19362	1.02406	0.84524	2.8178	72.15	-0.2539	-0.0401	0.2138	1367.5821	0.1585	-460.161906	-460.152612	-460.151668	-460.196554	33.968	
O	 0.100663624	 1.2656641897	 0.5114671182	-0.41957
C	 0.0415290761	-0.0472497826	-0.0049361795	-0.07875
C	-1.4067840946	-0.5315284056	-0.0959188862	-0.108499
C	-1.7482700866	-2.0436960891	-0.320880253	-0.304119
C	-2.7232540579	-2.0192392034	 0.9049579521	-0.108499
C	-2.6244022094	-3.0599527525	 2.0218991802	-0.07875
O	-3.3709991906	-2.6575770446	 3.150880648	-0.419571
C	-2.1060002578	-0.6673409483	 1.2544158238	 0.39318
O	-1.9938491344	-0.0655334259	 2.2964621934	-0.346443
H	-0.3351585145	 1.2469859573	 1.3735397729	 0.297772
H	 0.504641487	-0.0225096004	-0.9968904077	 0.115039
H	 0.6230808295	-0.7547606243	 0.6095362152	 0.087427
H	-1.9742201268	 0.1232038361	-0.7663597409	 0.116859
H	-2.189531425	-2.300818411	-1.2834663275	 0.118844
H	-0.8828232952	-2.6882573791	-0.1406249115	 0.117985
H	-3.7685592874	-1.9045346561	 0.5978279201	 0.116859
H	-3.0335777042	-4.0209621022	 1.6931213979	 0.115039
H	-1.5628958641	-3.2250798415	 2.2714744389	 0.087427
H	-3.0276216581	-1.7957006266	 3.4205471955	 0.297772
