13
gdb 130596	3.64982	1.71764	1.16798	1.5685	73.77	-0.2446	-0.0982	0.1464	947.5309	0.092376	-415.644047	-415.637853	-415.636909	-415.674723	23.987	
O	-0.0396586545	-0.0355980622	 0.0034363026	-0.305288
C	-0.0132761017	 1.1716511139	 0.0091627822	 0.290529
C	-1.1814897017	 2.1223780671	 0.0315490508	-0.246634
C	-0.7113846995	 3.3805729958	 0.0308368753	-0.018048
N	 0.6952928179	 3.3456270109	 0.0094821877	 0.03336
N	 1.6349378914	 4.3003233417	 0.0000669495	-0.267561
C	 2.7751517975	 3.6052530546	-0.0206675421	 0.019686
C	 2.5542638999	 2.1988938309	-0.024412615	-0.376915
C	 1.1817284285	 2.0766370998	-0.004264034	 0.298622
H	-2.2126907606	 1.8078995613	 0.0454934438	 0.139667
H	-1.2155182936	 4.3354294571	 0.0432550379	 0.165308
H	 3.7188099951	 4.1299842422	-0.0322883669	 0.129946
H	 3.2908049911	 1.4125642869	-0.0395054718	 0.137329
