21
gdb 89238	2.85573	1.67744	1.29581	1.166	82.29	-0.2318	0.1004	0.3322	1064.6111	0.183148	-387.062977	-387.055083	-387.054138	-387.094798	32.24	
C	-0.071818172	 1.5136926236	-0.1002574512	-0.401701
C	 0.0557870634	 0.0011823098	 0.0140866709	 0.110437
O	 0.9199553384	-0.5206126403	-1.0134980473	-0.337619
C	 1.9231625009	-1.2186924283	-0.2849261436	 0.496847
C	 2.9126183279	-1.8402989706	-1.232950208	-0.494199
C	 1.2641288521	-1.9681301043	 0.9237191335	-0.123221
C	 2.5307265087	-1.7068891588	 1.769309101	-0.267466
C	 2.3165045899	-0.3918454904	 0.9858104684	-0.118003
C	 0.7760449262	-0.5181057757	 1.2519559285	-0.055935
H	 0.8989578207	 2.0000614636	 0.0348682422	 0.117221
H	-0.4575831839	 1.7895948291	-1.0858689531	 0.124807
H	-0.7627911714	 1.8996571023	 0.6570930229	 0.110295
H	-0.9356821767	-0.4625934654	-0.0928183375	 0.07166
H	 3.3824626101	-1.0670559691	-1.8484430739	 0.127891
H	 3.6966649493	-2.3810780469	-0.6977675187	 0.121255
H	 2.4043391437	-2.5396119318	-1.9037622841	 0.128174
H	 0.6485632416	-2.8686153295	 0.883496018	 0.067209
H	 2.3794692919	-1.6488474247	 2.8500450287	 0.093763
H	 3.4234444338	-2.2928476447	 1.5369461582	 0.092472
H	 2.9168609859	 0.5186863267	 1.0197923933	 0.068222
H	 0.3740149595	-0.2907415245	 2.2398346818	 0.067893
