21
gdb 112640	3.20363	1.0808	0.87963	3.3722	80.91	-0.2484	0.0083	0.2568	1363.6671	0.182869	-424.241883	-424.232556	-424.231612	-424.276154	35.476	
C	 0.1598831463	 1.4614799583	 0.0277327608	-0.48712
C	 0.0068971276	-0.0262833622	-0.0059924449	 0.330082
C	 0.009716034	-0.8135681819	-1.0857628194	-0.214568
C	-0.1226063584	-2.2723267694	-0.7546678838	 0.074704
O	 1.0376806302	-3.0267196585	-1.1623690201	-0.438493
C	-0.3970616616	-2.2847710717	 0.7887402316	-0.043358
C	 0.4701181418	-3.2959885044	 1.5478290544	-0.065365
O	 0.3312101677	-4.6142202839	 1.0633994889	-0.429451
C	-0.1822946362	-0.824990431	 1.2644969401	-0.333343
H	 1.0159670355	 1.7539437509	 0.6489391882	 0.128702
H	 0.3024808065	 1.8793741869	-0.9721113341	 0.12697
H	-0.7222315457	 1.9364435238	 0.4752593771	 0.131108
H	 0.1359775681	-0.4704851793	-2.1076415799	 0.090948
H	-0.9371903176	-2.7593789464	-1.2995365087	 0.095127
H	 1.8155382826	-2.5102869972	-0.9229900256	 0.278935
H	-1.4432340181	-2.5691567592	 0.936564043	 0.084613
H	 1.5234286043	-2.9652641926	 1.520623171	 0.065291
H	 0.1751133579	-3.3109408725	 2.6031095929	 0.104202
H	 0.6707437802	-4.583111882	 0.1585032429	 0.28999
H	 0.6940717214	-0.7226869546	 1.9228047832	 0.101084
H	-1.0337375564	-0.4532076333	 1.8475184324	 0.109942
