17
gdb 63505	1.9938	1.70235	1.08944	2.0358	77.98	-0.2422	-0.0323	0.2099	1128.165	0.131348	-421.792311	-421.782644	-421.7817	-421.826125	36.051	
C	 0.083592608	 1.5089808134	 0.0178192527	-0.474243
C	 0.1219897678	 0.0021100967	-0.0384456898	 0.382432
O	-0.9845365713	-0.5942633228	-0.6225222232	-0.430873
C	 1.3695910688	-0.7560696412	-0.2300002615	-0.343909
C	 0.7488360921	-0.8298874453	 1.1765902363	-0.066123
C	 1.4619139525	-0.095799719	 2.2597865896	 0.089329
O	 2.2803409538	 0.7767860625	 2.0785967174	-0.276493
C	 0.0348173122	-1.9993909886	 1.5900218368	 0.251502
C	-0.5663179292	-2.9590343217	 1.9971431339	-0.417069
H	 0.9775619777	 1.9149916825	 0.4898316485	 0.16644
H	 0.0097800543	 1.8984353556	-1.0026714621	 0.135169
H	-0.7941730222	 1.8556382808	 0.5759875451	 0.114483
H	-1.769640153	-0.3561406319	-0.1154585134	 0.291369
H	 1.3163232365	-1.6614777487	-0.821852419	 0.143266
H	 2.3009659559	-0.2012747376	-0.2619533479	 0.148561
H	 1.1781101137	-0.4177074465	 3.2827837387	 0.091498
H	-1.0862602576	-3.8197387482	 2.3380379077	 0.19466
