21
gdb 103703	2.91994	1.13321	0.95541	1.035	86.47	-0.2372	0.0365	0.2737	1323.975	0.178482	-387.047508	-387.036918	-387.035974	-387.082477	39.835	
C	 0.2256968732	 1.4092250618	 0.3442020778	-0.383257
C	-0.2001927746	 0.0268155693	-0.1671042695	-0.237613
C	 0.6029574844	-0.4498554473	-1.3720968543	 0.295173
C	 0.3913382811	 0.3493329353	-2.6445898497	-0.463103
C	 1.9802740956	-1.0243854152	-1.1208242782	-0.38173
C	 0.8326107228	-1.9524583284	-1.5039212921	 0.144725
O	 0.2671267892	-2.7409442643	-0.486180518	-0.450417
C	 0.8430895984	-2.5876079768	-2.7973650329	 0.317876
C	 0.8608316115	-3.1649724226	-3.8532321129	-0.47766
H	 1.2863151098	 1.4191912023	 0.617960352	 0.114693
H	 0.0685911323	 2.1918882653	-0.4043826725	 0.116128
H	-0.3513261941	 1.6842231833	 1.2325295359	 0.112474
H	-0.107933817	-0.7059929696	 0.6372655132	 0.11756
H	-1.263168104	 0.0487130467	-0.4403783339	 0.097227
H	 0.7354988002	 1.3806355666	-2.5159551909	 0.11789
H	 0.934501458	-0.0825844431	-3.4879473696	 0.126772
H	-0.6707064466	 0.3797899953	-2.9128320162	 0.119587
H	 2.7643665857	-0.8504664419	-1.8497717672	 0.116417
H	 2.313694847	-1.1062956357	-0.0913030544	 0.115141
H	 0.7982541493	-3.5417261404	-0.4124325177	 0.287098
H	 0.8656330577	-3.6659560507	-4.7894754888	 0.195017
