18
gdb 109158	3.40136	1.14444	0.87027	2.4106	76.35	-0.2356	-0.0171	0.2185	1309.2366	0.147319	-439.130166	-439.120865	-439.119921	-439.164608	32.896	
C	-0.0154445777	 1.3913681096	 0.0084799644	-0.342255
N	-0.0211838873	-0.0492725979	-0.0002703412	-0.094315
C	-1.2154633658	-0.8628306406	 0.0036401927	-0.221273
C	-0.6684478612	-2.2655700317	-0.0070172437	-0.201112
C	 0.6652584545	-2.2351527553	-0.0154520299	 0.197149
C	 1.6454163024	-3.3555190337	-0.0273784549	-0.168431
O	 0.9441425112	-4.5858594699	-0.0293489698	-0.423884
C	 1.1247163088	-0.8136412573	-0.0112097703	 0.360999
O	 2.2705125893	-0.3998965266	-0.0159978146	-0.409632
H	 1.028874609	 1.7104743899	 0.0022884542	 0.164919
H	-0.5206062818	 1.8031643444	-0.8745661884	 0.120846
H	-0.5067069361	 1.7924791384	 0.9042324903	 0.120833
H	-1.8362611042	-0.6700788934	 0.8923574859	 0.121898
H	-1.8481033599	-0.661221199	-0.8746885234	 0.121908
H	-1.2941808324	-3.1464739456	-0.0075080396	 0.129913
H	 2.2960531365	-3.248927725	-0.9108819461	 0.115154
H	 2.3070482542	-3.2580321843	 0.8489854277	 0.115159
H	 1.5909324305	-5.2967762521	-0.0370120732	 0.292124
