22
gdb 19174	3.24271	1.71439	1.32278	0.0337	83.3	-0.2802	0.1006	0.3808	1046.2616	0.200107	-313.015813	-313.006978	-313.006033	-313.049201	33.389	
C	 0.0059399143	 1.5899794972	-0.3384101678	-0.450366
C	 0.0878804989	 0.0643305491	-0.2595314634	 0.073033
C	 1.2787750556	-0.8231234163	-0.7714993551	-0.10182
C	 2.1067141893	-0.4385428506	 0.4963043804	 0.076257
C	 2.8851708502	 0.8722115045	 0.6194420693	-0.45468
C	 0.6371232385	-0.6927755307	 0.9914495737	-0.10141
C	 0.6874415767	-1.9839509324	 0.1025936082	 0.074153
C	-0.5530360491	-2.7768605527	-0.2849456853	-0.453208
H	 0.2215455293	 1.9490862815	-1.351740595	 0.113636
H	-1.0147819483	 1.9080654969	-0.0990644011	 0.10951
H	 0.6678982784	 2.1126563355	 0.3507596945	 0.123075
H	-0.8736238571	-0.3205029142	-0.6050536421	 0.06125
H	 1.6477516063	-0.9012148974	-1.7979956795	 0.056163
H	 2.7691827549	-1.2500779439	 0.8206138751	 0.059427
H	 2.822117343	 1.2837209546	 1.6336196128	 0.114592
H	 3.9447571072	 0.6797653025	 0.4191919336	 0.110455
H	 2.5692678936	 1.6469400543	-0.0781708612	 0.123838
H	 0.2703863004	-0.6213543094	 2.0192493156	 0.056161
H	 1.4601430274	-2.6878399708	 0.4320854267	 0.058839
H	-1.3919051136	-2.1673323477	-0.6279900848	 0.119848
H	-0.3116759438	-3.4838162658	-1.0868687556	 0.115632
H	-0.9043277521	-3.3657780641	 0.5699982409	 0.115616
