21
gdb 70429	2.67433	1.52792	1.29288	1.8025	81.88	-0.2414	0.0799	0.3213	1091.3347	0.181965	-387.049689	-387.041229	-387.040285	-387.082439	33.303	
C	-0.1022288442	 1.5130386448	-0.2296879871	-0.512452
C	 0.1520233602	 0.0471373444	-0.0885916952	 0.362135
O	-0.8367861564	-0.7383809804	 0.602002269	-0.295094
C	 0.5238293636	-0.7980808922	 1.0595339548	-0.038448
C	 1.2488920108	-1.8046666681	 0.1622890388	-0.355106
C	 0.8410390657	-0.9330862889	-1.0707093736	 0.327411
C	 0.0282497109	-1.4324390551	-2.2890003835	-0.277633
C	 0.8547959805	-0.4740232522	-3.1912449016	-0.209569
C	 1.9018618791	-0.3630309395	-2.0486982546	-0.29503
H	 0.8091076443	 2.048778901	-0.5123350658	 0.126058
H	-0.8596248017	 1.7065528221	-0.9982275636	 0.129948
H	-0.4692413889	 1.9239087419	 0.7147069995	 0.134014
H	 0.7046804109	-0.5430930249	 2.0982850478	 0.097088
H	 2.3327689164	-1.8190980682	 0.31210704	 0.101057
H	 0.8598747833	-2.8260868894	 0.1974924657	 0.105731
H	 0.2394548235	-2.4833790436	-2.5097852115	 0.098866
H	-1.0553157766	-1.299694412	-2.2435318041	 0.106455
H	 1.2026130933	-0.859322726	-4.1522743406	 0.097052
H	 0.3374408443	 0.4732399408	-3.3670683981	 0.102572
H	 2.3207769192	 0.6229236419	-1.8276396746	 0.094567
H	 2.7307531015	-1.0646642163	-2.1856354216	 0.100379
