22
gdb 12364	2.73991	1.97337	1.35092	0.1952	83.24	-0.2353	0.033	0.2684	1015.0169	0.201857	-313.097911	-313.089645	-313.088701	-313.129931	32.672	
C	-0.0528398154	 1.5657170994	-0.0580451777	-0.415423
C	 0.0531880592	 0.0380175783	-0.0208707603	 0.035791
C	 0.6743105498	-0.5271215605	-1.3087092134	-0.196334
C	 0.5776249266	-2.058301701	-1.3498687326	-0.260181
C	 0.9292531763	-2.679546329	-0.0241388667	-0.050397
C	 1.0266009368	-1.9887399302	 1.1111464227	-0.06076
C	 0.7989476417	-0.4994911221	 1.228138201	-0.01623
C	 2.1279887786	 0.2185110668	 1.5421879775	-0.391456
H	 0.9223395576	 2.0365506096	-0.221090251	 0.115551
H	-0.7113463269	 1.8859871688	-0.8725115177	 0.108095
H	-0.4628992389	 1.963332468	 0.8771509807	 0.107445
H	-0.9695010593	-0.36178486	 0.0424320339	 0.070155
H	 0.1795872085	-0.0939320078	-2.185761234	 0.086433
H	 1.727991243	-0.2253858242	-1.3681834564	 0.096897
H	-0.4404220695	-2.364060215	-1.635993143	 0.104699
H	 1.2309559861	-2.4614631231	-2.1344260287	 0.098582
H	 1.1028773687	-3.753585796	-0.0150080571	 0.079342
H	 1.3038520546	-2.5037991621	 2.0294005088	 0.077484
H	 0.1423689458	-0.3315199262	 2.0951047413	 0.070475
H	 2.8221822302	 0.1644150951	 0.6974759338	 0.117162
H	 1.970754934	 1.2719774391	 1.7909155952	 0.112457
H	 2.6212329925	-0.2537650579	 2.3981803838	 0.110213
