16
gdb 9836	3.97578	1.55321	1.24084	1.8282	62.4	-0.249	0.0086	0.2576	987.1423	0.128356	-420.892378	-420.883734	-420.88279	-420.925735	30.659	
C	-0.005521048	 1.3291508929	-0.0610639385	-0.242577
O	 0.0197739738	-0.1016568829	 0.0288594606	-0.255957
C	 0.6754743609	-0.60066434	 1.0996101145	 0.403207
O	 1.2161271194	 0.0831837082	 1.9341448167	-0.377277
C	 0.6813960881	-2.0954305037	 1.0744687074	 0.281276
O	-0.1524957492	-2.7260422508	 0.1539679133	-0.462079
C	 2.0169239282	-2.746940821	 1.4239585568	-0.305521
C	 0.8639299253	-2.8056928505	 2.3862252261	-0.286637
H	 1.0096225878	 1.7278172903	-0.1298014013	 0.143381
H	-0.5708566593	 1.5603527595	-0.9636961687	 0.135061
H	-0.4929958991	 1.7580398491	 0.8174862086	 0.146567
H	-0.0966588519	-2.2315212649	-0.6710651753	 0.289647
H	 2.2499058889	-3.6411718405	 0.8579587995	 0.125587
H	 2.8492541587	-2.0947157314	 1.6599271184	 0.133623
H	 0.9083431577	-2.1893423729	 3.275629817	 0.140207
H	 0.3270265487	-3.7425340313	 2.4778381548	 0.131492
