15
gdb 27124	3.2079	1.19192	0.90722	2.7003	71.12	-0.1999	0.013	0.2128	1231.923	0.112905	-453.952998	-453.944628	-453.943684	-453.986957	30.181	
N	-0.2344841162	 1.3301156878	 0.3634759671	-0.617657
C	-0.0771002469	-0.0327715859	 0.0788935388	 0.123668
C	-1.0374420429	-0.9194796449	-0.2996367011	 0.334862
O	-2.3341832765	-0.7269488358	-0.6433544528	-0.219472
C	-3.28274267	-1.1553148144	 0.2498068964	 0.114241
N	-4.496672903	-1.0403162857	-0.0502009008	-0.42399
O	-0.5353960148	-2.1843850218	-0.4133519282	-0.171054
C	 0.7833182415	-2.0952038524	-0.0976364432	-0.0071
C	 1.121982647	-0.816879451	 0.2107629959	-0.235488
H	 0.5481259216	 1.8857477684	 0.041709786	 0.248399
H	-1.0897559926	 1.7016587327	-0.0322480781	 0.253391
H	-2.8411444387	-1.5626898234	 1.1659924548	 0.110225
H	-5.0794562426	-1.3898182491	 0.7076812507	 0.23866
H	 1.3365028679	-3.0184881228	-0.1340428472	 0.139778
H	 2.0974244262	-0.4613290116	 0.5047864117	 0.111537
