24
gdb 104717	2.49567	1.15557	0.94153	0.91	86.63	-0.2111	0.0805	0.2916	1404.7783	0.215293	-405.518027	-405.507452	-405.506508	-405.553325	38.96	
C	-0.0596552693	 1.1780613651	-0.6525348499	-0.387418
C	-0.1299485606	-0.253714705	-0.114159051	-0.235859
C	-1.5449904414	-0.6980458727	 0.2655256736	 0.411067
C	-2.458537697	-1.0178914284	-0.9431947161	-0.225313
N	-2.0997930773	-2.4409779118	-0.798632681	-0.067474
C	-3.1113278873	-3.4406943196	-1.0517251046	-0.316047
C	-1.6544692956	-2.2208879137	 0.589145692	-0.232943
O	-2.1874272324	 0.18134469	 1.1650000713	-0.288105
C	-1.6082857586	 0.2587401791	 2.4501476715	-0.255479
H	 0.9707815222	 1.4527067468	-0.8972212263	 0.109551
H	-0.6578321146	 1.2926942787	-1.5625499166	 0.118437
H	-0.4399377739	 1.8946780841	 0.0805937567	 0.126018
H	 0.244146735	-0.9629812075	-0.8608119206	 0.114702
H	 0.5287471429	-0.3564638947	 0.7576305641	 0.091954
H	-3.5066937587	-0.7954804405	-0.689995464	 0.092103
H	-2.2158330316	-0.5764287842	-1.9158784177	 0.09671
H	-3.3915664333	-3.425583386	-2.1106380151	 0.119111
H	-2.7149897455	-4.4364452453	-0.8246272065	 0.118122
H	-4.0305632342	-3.2933886301	-0.4524995661	 0.089298
H	-0.7479385056	-2.7670790069	 0.8744340998	 0.093547
H	-2.4436189246	-2.4027440489	 1.3374505584	 0.083689
H	-0.6158815715	 0.7304680433	 2.4401564611	 0.10976
H	-2.2762395099	 0.8711776872	 3.0608720919	 0.12668
H	-1.5155294872	-0.7323162691	 2.9187792852	 0.107887
