14
gdb 67541	2.55621	1.89735	1.5398	5.8509	60.44	-0.2502	-0.0045	0.2457	880.6626	0.100616	-473.772397	-473.765303	-473.764359	-473.803769	27.474	
N	-0.0202622351	 1.4945431652	 0.1239102301	-0.603607
C	 0.0460491297	 0.0845107238	-0.0363015958	 0.099543
C	 1.2295129029	-0.6362705461	 0.6856791515	-0.001903
O	 0.9736969327	-2.0361707548	 0.679634217	-0.21193
C	 1.5312781321	-1.4587771075	-0.5006655631	-0.007996
C	 0.362025683	-0.8027384061	-1.2916814372	 0.010652
O	-0.9117780717	-1.4805916767	-1.1483115639	-0.248275
C	-1.2733551801	-0.7286673149	-0.043308489	 0.443259
O	-2.2979121562	-0.7618269939	 0.5507378728	-0.315183
H	 0.877146861	 1.9409604155	-0.0321441893	 0.241569
H	-0.704140444	 1.9224433056	-0.4905101317	 0.249703
H	 1.852078124	-0.2274237007	 1.4739715123	 0.120588
H	 2.4608923361	-1.871469324	-0.8736079809	 0.121087
H	 0.5415512458	-0.4263515355	-2.2967449128	 0.102492
