19
gdb 72923	2.53418	2.04002	1.54167	1.2744	73.07	-0.243	0.0682	0.3112	929.0106	0.160935	-422.980656	-422.973606	-422.972662	-423.011651	29.136	
C	-0.0222596667	 1.5018238382	-0.0383536319	-0.491043
C	 0.0077422164	-0.0137601394	-0.0206283293	 0.312963
C	-1.259462622	-0.7715601193	 0.4387529703	-0.151871
O	-0.5157629336	-1.5183536018	 1.4309594154	-0.302815
C	 0.6988796608	-0.7945941389	 1.1314462529	 0.08374
C	 1.7639760332	-1.5520199815	 0.2997034369	 0.053338
C	 0.9628783471	-2.1430415529	-0.8738626179	-0.250985
C	 0.8514329307	-0.6303384236	-1.1668072404	 0.00899
O	 2.199605958	-0.4713538375	-0.5947168513	-0.304764
H	 0.9855384971	 1.8984064605	-0.1908080964	 0.138262
H	-0.6629499812	 1.8741825107	-0.8468460675	 0.114598
H	-0.4087729053	 1.9044718267	 0.9035650629	 0.118336
H	-2.0132229387	-0.1289560622	 0.9103040214	 0.102215
H	-1.7526804697	-1.4237848447	-0.2924092618	 0.099603
H	 1.0989638237	-0.2626153721	 1.9990086724	 0.079136
H	 2.5779794133	-2.0695059178	 0.8058752545	 0.081281
H	 1.6184098821	-2.6339415963	-1.5929181424	 0.112158
H	 0.0731888161	-2.7368315858	-0.6662938364	 0.118167
H	 0.7457348587	-0.2181847123	-2.1709552314	 0.078693
