20
gdb 101417	2.93762	1.08881	0.84983	3.0005	76.71	-0.2492	0.0346	0.2838	1376.9945	0.169506	-440.300057	-440.290146	-440.289202	-440.335388	35.239	
C	 0.122891495	 1.3879045948	 0.2247087652	-0.23779
O	-0.0852679321	 0.0161089049	-0.0222037888	-0.253017
C	 0.5985692326	-0.4951982074	-1.1600692663	 0.134952
C	 2.1093726649	-0.6203754134	-0.9504908423	-0.421225
C	-0.0286245682	-1.8520053042	-1.4478321459	-0.15455
C	-1.5110253868	-1.8697336944	-1.9183035651	-0.182361
N	-1.0353314501	-2.4757677794	-3.1678996026	-0.323264
C	 0.2957902795	-2.4604937313	-2.8395629246	 0.419876
O	 1.2937778618	-2.7772762255	-3.4333960366	-0.36785
H	 1.1567831983	 1.613390027	 0.5216981194	 0.111018
H	-0.1237437368	 2.0014804587	-0.6564155792	 0.102309
H	-0.5414900449	 1.6699597521	 1.0454643619	 0.127156
H	 0.4076205699	 0.1720886202	-2.019943227	 0.065601
H	 2.585698726	 0.3579786207	-0.8439884013	 0.112494
H	 2.3148283261	-1.2048047168	-0.047693869	 0.12092
H	 2.5581197428	-1.1320497971	-1.8066030335	 0.15611
H	 0.1754484929	-2.5414435182	-0.6241071617	 0.105932
H	-2.1827620544	-2.5070307042	-1.3364584937	 0.115409
H	-1.9573771247	-0.8783191085	-2.0399215378	 0.117483
H	-1.5087988518	-2.7423547079	-4.0181983613	 0.250797
