17
gdb 35546	2.62415	1.6017	1.45729	1.0278	72.31	-0.2512	0.0342	0.2854	977.657	0.136285	-421.772007	-421.764416	-421.763472	-421.80416	29.399	
C	 0.8347259963	-0.7887363359	 0.5466118977	-0.491055
C	 0.3534264232	 0.2872567093	 0.3116922348	 0.377134
C	-0.2683381769	 1.5749573599	-0.0113592301	-0.095421
C	-0.8955125717	 2.2865462028	 1.2156153615	-0.258017
C	 0.2222284913	 3.2042598826	 1.6950118654	 0.100314
O	 1.242265062	 2.5330552645	 2.4640544818	-0.292046
C	 2.2296819674	 2.7240877258	 1.4224741441	-0.104451
C	 1.1710992261	 3.3395811659	 0.4814975376	 0.061805
O	 0.6720104333	 2.5166681668	-0.5533933362	-0.254828
H	 1.2675243396	-1.7336494725	 0.7656058879	 0.201974
H	-1.0129525699	 1.4092571652	-0.7969172887	 0.1169
H	-1.7522510196	 2.885600119	 0.891997572	 0.110206
H	-1.2185535849	 1.5900265859	 1.9904077792	 0.133437
H	-0.135034806	 4.11087757	 2.1933567297	 0.079466
H	 3.0186509846	 3.4183770533	 1.7378329198	 0.099732
H	 2.6693014855	 1.781869217	 1.0834664241	 0.123376
H	 1.3906519596	 4.3197604003	 0.0564572594	 0.091476
