15
gdb 75343	2.65253	1.7928	1.21213	1.8863	68.71	-0.2391	-0.0671	0.1719	989.335	0.113972	-453.956099	-453.948689	-453.947745	-453.987887	28.636	
N	 0.0158551462	 1.3286496262	 0.1600167068	-0.538812
C	-0.0676489395	-0.0259657298	 0.0011558395	 0.274387
N	-1.1884098779	-0.6448302322	 0.0188955552	-0.305091
C	-1.2454546097	-2.07530513	-0.1852951357	-0.190419
C	-0.022747491	-2.7453626047	-0.772005555	 0.033151
O	 0.5142877096	-2.1555300074	-1.9462033897	-0.236943
C	 1.2821704552	-2.0493170901	-0.7362602023	-0.075347
C	 1.2921274104	-0.6809010571	-0.1493477501	 0.372557
O	 2.3048426771	-0.1265772961	 0.2224107035	-0.333765
H	 0.9160870872	 1.6783169232	 0.4504952731	 0.269711
H	-0.8037833571	 1.7926037475	 0.5175971829	 0.258965
H	-1.4819534259	-2.5646890469	 0.7714673426	 0.119682
H	-2.1018909128	-2.2906370324	-0.8394741097	 0.129074
H	-0.0166351701	-3.8360322967	-0.7713370118	 0.108029
H	 2.2266506384	-2.5871649235	-0.7188787394	 0.114819
