13
gdb 130485	3.97486	1.73099	1.20586	1.5559	76.03	-0.231	-0.0875	0.1435	924.757	0.092228	-415.604216	-415.598346	-415.597402	-415.634335	23.614	
O	-0.0361581717	 1.2579710975	 0.0092706857	-0.206345
C	 1.1004343199	 1.9705398372	 0.0021082867	 0.100378
C	 2.3537791429	 1.4404595107	-0.0127777521	-0.278529
C	 2.4262722488	 0.0379458949	-0.020931305	 0.315671
N	 3.4348828184	-0.7985119732	-0.0349164883	-0.352853
C	 2.8419216913	-2.0659567221	-0.0361129926	-0.021651
C	 1.4713488128	-2.0675795156	-0.023210887	-0.251395
C	 1.1228838507	-0.6797215285	-0.0121749906	 0.332956
N	-0.0517128039	-0.1230726799	 0.0020720817	-0.176715
H	 0.8727977879	 3.0290787671	 0.009956748	 0.15758
H	 3.2265005133	 2.0807237407	-0.0177257795	 0.139555
H	 3.4858533117	-2.9368427752	-0.0469576568	 0.119813
H	 0.7969413179	-2.9080133335	-0.0214285904	 0.121535
