13
gdb 129745	3.42819	1.1519	0.87787	5.7868	63.22	-0.2318	-0.0112	0.2205	1207.9743	0.089781	-486.06914	-486.061058	-486.060114	-486.102614	28.232	
N	-0.002686319	 1.3733122291	 0.2511575158	-0.61205
C	-0.0346197142	 0.0063008843	 0.0120534533	 0.251515
C	-1.0668988094	-0.877756688	-0.226154294	 0.340655
O	-2.3774325885	-0.5288050905	-0.39558522	-0.236042
C	-3.330479058	-1.3423689427	 0.1626279077	 0.158156
O	-4.489920047	-1.1241491296	 0.0114845814	-0.256381
N	-0.5887396381	-2.1384376478	-0.3144955892	-0.252409
N	 0.703107705	-2.1121426208	-0.1438463353	-0.127478
N	 1.0423470796	-0.8146864191	 0.059764242	-0.213948
H	 0.6347090401	 1.8830727729	-0.3498831108	 0.262303
H	-0.9294084172	 1.7747951348	 0.1758650976	 0.272864
H	-2.8872299504	-2.1741043305	 0.730668727	 0.127094
H	 2.0059656871	-0.5761205821	 0.2321215445	 0.285723
