18
gdb 46503	3.61126	1.27717	1.1325	4.8293	73.87	-0.2427	0.0553	0.2979	1116.3547	0.148947	-439.082726	-439.074761	-439.073817	-439.115977	30.121	
N	-0.0665191415	 1.3269407661	-0.821123263	-0.551062
C	 0.0372101868	 0.1099722029	-0.5040244266	 0.462582
O	 1.2078220604	-0.5833090235	-0.5755179075	-0.257414
C	 1.1983415579	-1.9409873593	-0.1136657281	-0.151071
C	 0.0069650262	-2.6348725338	-0.7112803503	 0.299827
C	 0.1089440288	-3.163083956	-2.1206572972	-0.293816
C	-0.0000804745	-4.117304439	-0.9560337741	-0.332841
C	-1.2487333729	-1.9405251274	-0.2392006336	-0.127585
O	-1.0362027309	-0.5388842357	-0.0029507535	-0.243324
H	 0.8506711646	 1.6875658259	-1.0777843775	 0.223227
H	 2.146024634	-2.3732300059	-0.442250853	 0.118957
H	 1.1664030209	-1.9582700647	 0.9844708985	 0.116728
H	-0.7541009895	-3.0489563967	-2.7678477273	 0.124784
H	 1.0630718107	-3.0785457373	-2.6295637268	 0.12579
H	 0.8785378193	-4.6864159851	-0.6704764897	 0.122134
H	-0.9353708671	-4.6495159647	-0.8142296949	 0.122541
H	-2.0693461836	-2.0475718534	-0.9585988916	 0.119024
H	-1.5824315796	-2.3441465724	 0.7235188361	 0.121518
