15
gdb 25195	2.61498	1.81904	1.08516	4.0367	83.34	-0.2284	-0.0688	0.1596	1042.9207	0.116598	-413.011097	-413.003792	-413.002848	-413.044465	27.51	
N	-0.0779241862	 1.2691398221	-0.4898750908	-0.488103
C	 0.0175905614	 0.097715195	-0.0068099652	 0.336103
N	-1.1878208079	-0.4741261413	 0.417114484	-0.341458
C	-1.4945766977	-1.6816611216	 0.9458318592	 0.032249
C	-0.6527476605	-2.660248442	 1.3636521037	-0.144796
C	 0.7761385099	-2.6033038419	 1.3750937957	 0.012348
N	 1.61989041	-1.76867974	 0.862149803	-0.328437
C	 1.3406159935	-0.6569146119	 0.0806398732	 0.287347
N	 2.2659672669	-0.1132119227	-0.6169171804	-0.46999
H	 0.8497164702	 1.557880568	-0.8059965349	 0.254046
H	-1.9570571842	 0.1499690774	 0.2132890206	 0.269204
H	-2.5646254129	-1.8301483842	 1.0507684403	 0.134483
H	-1.1080636092	-3.5443686564	 1.7930299002	 0.101945
H	 1.2477860394	-3.4236193572	 1.9231969335	 0.113563
H	 3.1271839474	-0.6453131233	-0.475996752	 0.231495
