22
gdb 120664	2.82661	1.01646	0.85868	0.6625	83.75	-0.2375	0.0762	0.3137	1458.1687	0.193754	-404.299281	-404.289683	-404.288739	-404.33464	35.107	
C	-0.4815569697	 1.1900526744	-0.517730955	-0.222469
O	-0.6877882779	-0.2000193115	-0.5851261095	-0.237404
C	-1.066430082	-0.7570285898	 0.658680741	-0.053184
C	-1.1897990597	-2.2484643742	 0.4942288819	-0.125555
N	-2.1535843381	-2.9074199833	 1.4029102621	-0.400132
C	-2.4242006473	-2.8724073411	-0.0315012551	 0.389773
C	-3.6174151162	-2.1844397546	-0.7039347946	-0.286851
C	-3.4339851584	-3.168524282	-1.8984475071	-0.205014
C	-2.4943534769	-4.0449505399	-1.0161202708	-0.308993
H	-0.1987630482	 1.5293481683	-1.5174042582	 0.124762
H	-1.3925573975	 1.725357524	-0.2054808902	 0.103286
H	 0.3240909788	 1.4510042659	 0.1873108822	 0.102531
H	-0.3167693984	-0.5162993838	 1.4323863097	 0.085199
H	-2.0289553127	-0.3455905003	 1.0007462832	 0.096053
H	-0.2541594542	-2.7633173066	 0.2805833698	 0.083926
H	-1.810518799	-3.8261128474	 1.6746379812	 0.227759
H	-4.5491216641	-2.3495028877	-0.1550267326	 0.103647
H	-3.5130308822	-1.1194492771	-0.9212784159	 0.109773
H	-4.3348526811	-3.6514837117	-2.2811525514	 0.098483
H	-2.9005098743	-2.7072879369	-2.7322508167	 0.112134
H	-1.55523347	-4.3867883566	-1.4599575997	 0.101243
H	-3.0167496309	-4.9086095181	-0.5899892643	 0.101035
