21
gdb 38463	2.83552	2.14492	1.72758	0.2136	86.79	-0.2326	0.0794	0.312	892.3126	0.186453	-349.830759	-349.824681	-349.823737	-349.860547	28.201	
C	-0.0576988289	 1.6347349496	-0.080999255	-0.253892
C	 1.5410053114	 1.7186589446	-0.0524315306	-0.063845
C	 2.4667827289	 1.6345145615	 1.2414556152	-0.360269
C	 1.7013452965	 0.3004274138	 1.5341437372	 0.272287
C	 1.3182939304	-1.2084846337	 1.8508228335	-0.331986
C	-0.1383250044	-0.5899142557	 1.5384645099	-0.041111
C	 0.3851938503	 0.6109981705	 2.3161313048	-0.207485
C	-0.0624313049	 0.0368243373	 0.0808964458	-0.057411
C	 1.4418944154	 0.1946439605	 0.003186698	 0.041257
H	-0.6755974689	 2.2627098881	 0.5646983282	 0.100073
H	-0.339877832	 1.8516322582	-1.1150394695	 0.101906
H	 1.9554780076	 2.2805487694	-0.891529545	 0.065155
H	 3.5022106294	 1.5402617498	 0.8952320411	 0.101871
H	 2.4185035784	 2.3923972326	 2.0291297159	 0.097753
H	 1.7347321551	-1.9703715806	 1.1876137066	 0.093479
H	 1.3746028631	-1.5340946387	 2.8915247117	 0.098731
H	-1.0388700271	-1.1337446812	 1.8313103407	 0.057122
H	 0.5634082756	 0.4007336385	 3.3749143848	 0.082669
H	-0.1111199998	 1.5748182794	 2.2350580557	 0.088978
H	-0.6333916221	-0.4896273702	-0.6859881022	 0.056573
H	 2.1262701559	-0.4807518734	-0.5124268067	 0.058145
