20
gdb 59206	2.97809	1.12204	1.08559	2.0458	76.15	-0.2096	0.0622	0.2719	1245.5673	0.168969	-440.18281	-440.173705	-440.17276	-440.216652	34.305	
C	 0.069638209	 1.376626713	-0.1531322201	-0.321213
N	 0.0490145823	-0.0548458675	 0.1031390611	-0.057535
C	 0.7438697795	-0.3896927959	 1.336567088	-0.321529
C	-1.2931742534	-0.5764552577	 0.0938347858	 0.067268
C	-2.0030531764	-0.7622894908	-1.2752723556	-0.035929
O	-1.1090233757	-1.8901005929	-1.5918892889	-0.300064
C	-1.4906410141	-2.0957092393	-0.1804098867	-0.009632
C	-2.9485395832	-1.8203139178	-0.6116427824	 0.108851
O	-3.8708574414	-1.4819781221	 0.3834746888	-0.425263
H	 1.1058126923	 1.7266015849	-0.1941449197	 0.118648
H	-0.3963237995	 1.59171564	-1.1191949822	 0.117782
H	-0.4580131179	 1.967614932	 0.6213653867	 0.087845
H	 0.2763465602	 0.0553628753	 2.2369457314	 0.089148
H	 0.7687361273	-1.4749873957	 1.4703598507	 0.119191
H	 1.7772239802	-0.0330056531	 1.2833805534	 0.118221
H	-1.9371376588	-0.1696035487	 0.8905916851	 0.075681
H	-2.2012770261	-0.0379643943	-2.0663787461	 0.089083
H	-1.075030951	-2.9606725214	 0.3368058903	 0.094353
H	-3.3207923317	-2.5547714013	-1.3324539938	 0.092647
H	-4.7126212714	-1.2826790965	-0.0375893456	 0.292447
