14
gdb 48226	2.70599	1.37347	0.93301	1.9953	75.68	-0.2637	-0.0628	0.2009	1177.2639	0.09944	-432.847015	-432.838024	-432.83708	-432.881459	31.341	
N	 0.2918871547	 1.1989140943	-0.4412375253	-0.426827
C	 0.1426276201	 0.0175538758	-0.016743306	 0.094093
N	-1.1033173474	-0.6440543795	-0.0599909592	-0.156522
C	-1.1101431627	-2.049869418	 0.0326963465	 0.108804
N	-0.0297969902	-2.711969923	 0.0818465196	-0.472805
C	-2.3642412142	-0.0127661168	-0.1709722708	 0.327709
O	-3.3659309867	-0.6613821896	-0.3923325127	-0.332343
C	-2.4413439502	 1.4084743102	 0.0598946793	 0.227231
C	-2.7164171233	 2.5572105684	 0.2834520452	-0.372815
H	 1.2550978223	 1.4995792198	-0.2979204323	 0.239952
H	 0.9121618752	-0.63844185	 0.3900281689	 0.151747
H	-2.125688692	-2.4411610201	 0.054433183	 0.155821
H	-0.2326480142	-3.7050039218	 0.1772323121	 0.240966
H	-2.9125995416	 3.5845409004	 0.472015812	 0.214991
