14
gdb 13930	3.78721	1.85974	1.54872	4.343	57.17	-0.257	-0.0123	0.2447	827.8589	0.107489	-419.674655	-419.667808	-419.666863	-419.706269	24.485	
O	 0.1352452782	 0.1345990815	-0.4777856199	-0.322411
C	 0.0687969928	 1.2484312621	-0.0732359792	 0.410524
O	-1.0052519376	 1.8821091933	 0.5051778027	-0.24505
C	-0.2790594847	 3.1476027788	 0.6285310395	-0.13433
C	 0.9911560852	 2.4822880925	 0.0710660917	 0.242914
C	 2.3383475233	 2.3703403447	 0.8102324842	-0.351285
C	 2.9337632526	 2.8807253179	-0.5175913938	-0.072122
O	 1.6085115193	 3.0190778565	-1.0910644257	-0.298932
H	-0.704879225	 3.9124579562	-0.0240286143	 0.138581
H	-0.2502337783	 3.4819273005	 1.6678399544	 0.125168
H	 2.4443282617	 3.0458148578	 1.6604147714	 0.125031
H	 2.6208407017	 1.3592124777	 1.1043089669	 0.140755
H	 3.4588532927	 3.840592967	-0.4825361514	 0.11554
H	 3.5359959982	 2.1539514436	-1.0716351066	 0.125618
