18
gdb 35956	3.29409	1.19543	0.92119	5.2238	78.33	-0.2662	-0.0186	0.2475	1246.0058	0.14881	-401.955942	-401.94775	-401.946806	-401.98932	30.824	
N	 0.1284296556	-1.2231819464	 0.3138810978	-0.314941
C	 0.0454326774	-0.0770868051	 0.2032400304	 0.275243
C	-0.0418245284	 1.3834954003	 0.0234622639	-0.065701
O	-0.7083834076	 1.8971525072	 1.1614630938	-0.243817
C	-1.3234843634	 3.1628730659	 0.9660434988	-0.071925
C	-0.3438953622	 4.3353293591	 0.9879235172	-0.19439
C	 0.609401453	 4.4088812266	-0.2163991518	-0.264622
C	 1.5966124615	 3.2723247055	-0.3424254791	-0.07623
C	 1.3389003072	 1.9700176415	-0.2387941272	-0.04735
H	-0.6720332493	 1.5515299142	-0.8694137961	 0.122974
H	-1.8971477183	 3.1587696401	 0.0235729139	 0.091026
H	-2.0387962429	 3.2608143328	 1.7877986651	 0.118168
H	-0.933754544	 5.2598174289	 1.0255457874	 0.101721
H	 0.2363575755	 4.2848855245	 1.9157299006	 0.118287
H	 0.0129596914	 4.4692638821	-1.1402050242	 0.116445
H	 1.1642079372	 5.3508722356	-0.1657260825	 0.112228
H	 2.6248204686	 3.5571198694	-0.5531377637	 0.104494
H	 2.1420409485	 1.2509390778	-0.3646403842	 0.11839
