23
gdb 119607	3.9884	0.88133	0.81509	1.5099	85.18	-0.2233	0.0852	0.3085	1524.7976	0.20631	-388.288083	-388.278858	-388.277913	-388.322393	35.18	
C	 0.2391077556	 1.5954940288	 0.220978926	-0.380765
C	 0.1718512554	 0.0704296325	 0.1071632591	-0.156814
C	 0.552398257	-0.4444319376	-1.2890171681	-0.287965
C	 0.5265664685	-1.9514712736	-1.4138572009	 0.335766
C	 1.729698014	-2.7778494368	-0.9700581553	-0.37466
C	 1.3342163783	-2.7147220064	-2.4256014674	 0.066915
O	 0.5926189033	-3.773097498	-2.9730353249	-0.25967
C	-0.5218911417	-4.0109984256	-2.1134360041	-0.093839
C	-0.814412002	-2.6814688881	-1.3838477171	-0.296702
H	 1.2502978758	 1.96390168	 0.0141566103	 0.113003
H	-0.4383308352	 2.0770344048	-0.4932158541	 0.113464
H	-0.0394148509	 1.9344364329	 1.2236890829	 0.110923
H	 0.8374719047	-0.3867456421	 0.8502844705	 0.098521
H	-0.8409855438	-0.2705280007	 0.3566517617	 0.097229
H	-0.1275073548	-0.0067932131	-2.0342845481	 0.092494
H	 1.5570333034	-0.0792924664	-1.5414590435	 0.090078
H	 2.6180788517	-2.2274098782	-0.6765110558	 0.10843
H	 1.5796078775	-3.7016185599	-0.4212421596	 0.111564
H	 1.9792274244	-2.2474263638	-3.1611831685	 0.097972
H	-1.3534534941	-4.3629134652	-2.7302716424	 0.109131
H	-0.280052529	-4.8048729663	-1.3928261011	 0.097776
H	-1.2084193772	-2.8545740459	-0.3777775834	 0.10363
H	-1.5531468309	-2.0867036812	-1.9340365563	 0.103521
