16
gdb 12082	3.83256	1.65499	1.5166	1.5137	59.92	-0.2523	0.0551	0.3073	873.3742	0.12908	-420.823432	-420.815761	-420.814817	-420.855169	29.158	
O	-0.0619816488	 1.409521995	-0.053625333	-0.43977
C	 0.0252567408	-0.011646466	 0.0542683834	-0.143971
C	-1.406303267	-0.5179120654	-0.0097046327	 0.418742
O	-2.1821117974	 0.0785279998	 1.0024663925	-0.497124
C	-2.1154343412	-0.5082488675	-1.4259296029	-0.31047
C	-2.2557009703	-2.0295553869	-1.3021737275	 0.036615
O	-0.9319937051	-2.5649854911	-1.1432217568	-0.250916
C	-1.5982774626	-2.0460415757	 0.0123029091	-0.033564
H	 0.800342634	 1.7871735777	 0.1392965185	 0.295693
H	 0.6175811015	-0.448336013	-0.7580854138	 0.111325
H	 0.4688126073	-0.3067481563	 1.017002527	 0.093155
H	-1.9217153205	 1.0093002748	 1.0117906312	 0.288748
H	-3.0689259521	 0.0177704126	-1.3519436942	 0.114953
H	-1.54455109	-0.1511237114	-2.2859616203	 0.106312
H	-3.005423301	-2.6922463466	-1.7178735059	 0.1056
H	-1.7163116777	-2.6903983199	 0.8759922754	 0.104672
