14
gdb 93489	3.14399	1.40985	1.00364	1.3121	59.36	-0.2892	-0.037	0.2522	1081.5246	0.102242	-511.038344	-511.030813	-511.029869	-511.070633	27.982	
O	 0.0795463868	 1.3566524239	 0.2511415248	-0.429024
C	 0.0190356409	-0.0218496412	 0.0339753524	 0.012289
C	-1.4265730498	-0.4976325743	-0.0571303534	-0.10874
O	-1.4672754715	-1.9110139092	-0.3209154792	-0.236369
C	-0.7135531177	-2.4234269175	-1.3122075949	 0.493702
O	-0.8831506617	-3.5287101037	-1.7387521026	-0.353864
N	 0.2928005771	-1.5798641061	-1.8113641218	-0.413526
C	 0.7145812547	-0.3869755042	-1.2696686812	 0.404152
O	 1.5557861513	 0.3218461284	-1.7763878765	-0.358408
H	 0.794397055	 1.682023637	-0.318103309	 0.303476
H	 0.5209572577	-0.5847737023	 0.8407421673	 0.117372
H	-1.9550731368	-0.3576323212	 0.8856576527	 0.150069
H	-1.9560893885	 0.0475740831	-0.8469948267	 0.136205
H	 0.7835470224	-1.9324266927	-2.622890942	 0.282668
