19
gdb 40363	3.78629	1.283	1.19822	1.2973	74.7	-0.2412	0.0829	0.3241	1092.6074	0.160437	-422.978264	-422.970859	-422.969914	-423.010516	29.37	
C	 0.841003808	 0.9235799963	-0.185956811	-0.174431
O	-0.1827028487	 0.2084453862	-0.8825279943	-0.238907
C	-0.4460947021	 0.6343651938	 0.456152002	-0.056016
C	-0.6086459069	-0.4591933814	 1.4583250006	 0.481933
C	-1.8176027132	-1.4350979393	 1.4819819997	-0.276567
C	-0.8827115729	-2.1682611886	 2.492493522	-0.088224
C	 0.2999004491	-1.7096073327	 1.58113025	-0.280494
C	-0.7990514246	-1.1066448953	 3.5957799706	-0.074283
O	-0.6056386407	 0.0835605708	 2.7944545138	-0.328811
H	 1.7181568629	 0.3382219485	 0.0830715694	 0.116007
H	 1.042932512	 1.9282258756	-0.5538015087	 0.118249
H	-1.1736899165	 1.4420939975	 0.5438496453	 0.098308
H	-2.7692365729	-1.0390055411	 1.8452308349	 0.097386
H	-1.9445046716	-1.9773342394	 0.5444896498	 0.115335
H	-1.0301243127	-3.2049379869	 2.7910977844	 0.075976
H	 0.3720619774	-2.2782852237	 0.6538157639	 0.116813
H	 1.2813780333	-1.5676783234	 2.0407391179	 0.096504
H	-1.7170416754	-1.0158580568	 4.1881293495	 0.100816
H	 0.0520083154	-1.2430578703	 4.2732449601	 0.100406
