20
gdb 68849	2.4379	1.7883	1.40912	1.3881	77.84	-0.2278	0.0703	0.2981	1013.4994	0.17119	-403.115496	-403.107194	-403.10625	-403.147666	33.209	
C	-0.051868448	 1.5121836789	 0.098256858	-0.481323
C	-0.031192768	 0.003315665	 0.0828137376	 0.28872
C	 1.275141248	-0.7223296122	-0.2173049999	-0.403847
C	 0.6602823365	-0.8022350448	 1.156923841	 0.355749
O	 1.2605528373	-0.1477565543	 2.2341724596	-0.47074
C	-0.1921460352	-2.0134756332	 1.4156913192	-0.09446
C	-1.5528134592	-1.7438343484	 1.9375632244	-0.248296
N	-1.3571998492	-2.0073479697	 0.5048055289	-0.09534
C	-1.2927428059	-0.7668704823	-0.3123584368	-0.240172
H	 0.8548195982	 1.9064146038	 0.564866554	 0.12842
H	-0.1204939699	 1.9199879945	-0.9165773995	 0.116084
H	-0.9092746948	 1.8891083839	 0.6672744053	 0.116209
H	 1.2624349298	-1.6015068327	-0.8554856096	 0.114334
H	 2.1558931514	-0.0954086067	-0.3147479993	 0.109265
H	 2.0939991127	-0.5895177043	 2.4278961991	 0.284693
H	 0.2862695219	-2.9772363116	 1.5787325914	 0.084839
H	-2.0960146554	-2.5177727809	 2.4717530935	 0.113663
H	-1.7738757058	-0.7259766399	 2.2529603651	 0.116113
H	-2.1952565725	-0.1667444694	-0.146808947	 0.102139
H	-1.2815395719	-1.0558419257	-1.369883835	 0.103949
