19
gdb 78733	4.54378	1.10998	1.02161	3.5064	81.86	-0.2424	-0.016	0.2264	1208.2211	0.159173	-385.857463	-385.849525	-385.848581	-385.8898	30.925	
C	-0.1373181186	 1.4520242771	 0.0118333972	-0.410734
C	 0.0505191269	-0.0600040761	 0.0269991657	 0.01628
C	 0.8694538083	-0.5881172699	-1.1550315617	-0.111188
C	 2.143499395	-0.5163076849	-0.3857429256	-0.120912
C	 1.2383267112	-0.5524846446	 0.9139905606	-0.070066
C	 1.173592095	-2.0981786667	 0.802357159	-0.303736
C	 1.5425177111	-1.903386729	-0.6634078169	 0.258372
C	 2.0679183293	-2.8824903491	-1.6132542568	 0.044249
O	 2.1686052072	-4.0676275482	-1.3926312507	-0.27275
H	 0.8143088397	 1.966769583	-0.1600432853	 0.118225
H	-0.8306960721	 1.7577324261	-0.7789999442	 0.1172
H	-0.5453664556	 1.8021713635	 0.9659432787	 0.117064
H	-0.906273247	-0.5612077336	 0.2194934532	 0.069442
H	 0.7132234125	-0.4210249008	-2.214224207	 0.094656
H	 3.130187717	-0.1428361812	-0.6185083931	 0.103934
H	 1.4611716787	-0.05942563	 1.8583446771	 0.076502
H	 1.9853488492	-2.5942186525	 1.3393367868	 0.114031
H	 0.221186592	-2.5799774257	 1.0466866473	 0.100253
H	 2.3924548203	-2.4482775376	-2.5890426142	 0.059176
