14
gdb 133172	3.08941	1.40666	0.97235	3.2019	70.37	-0.2426	-0.0764	0.1662	1118.7144	0.099526	-477.958279	-477.950509	-477.949565	-477.990793	28.795	
C	 0.0255835908	 1.4999568897	 0.1113258537	-0.496867
C	-0.0206382505	 0.0032882662	 0.0511747447	 0.169723
C	-1.1299575955	-0.7494162599	 0.1526878129	-0.220281
C	-1.0674466011	-2.197127793	 0.0815436677	 0.416853
N	-2.0937308297	-2.9378939753	 0.1735533112	-0.526633
O	 0.1919362892	-2.7648517848	-0.0961097528	-0.291065
N	 1.3538189133	-2.0086030534	-0.203869142	-0.139951
C	 1.2095777864	-0.7430355782	-0.1308630713	 0.312185
F	 2.3264138725	-0.0312797194	-0.2348638498	-0.05187
H	 0.663919776	 1.8374785499	 0.934606463	 0.155202
H	 0.4525967166	 1.9140460432	-0.8081151951	 0.155199
H	-0.9753732532	 1.9122284023	 0.2508190767	 0.141053
H	-2.115930178	-0.322485683	 0.2910467189	 0.143683
H	-1.8397334368	-3.9243034642	 0.0994583221	 0.232771
