13
gdb 128552	2.94587	1.31741	0.9156	4.7112	66.7	-0.2656	-0.094	0.1716	1178.1862	0.087596	-489.850391	-489.84233	-489.841386	-489.883844	27.46	
C	 0.00809418	 1.4307124163	-0.0332510632	-0.25257
O	 0.0100750461	-0.0059998943	-0.0176022568	-0.257162
C	 0.5939802069	-0.6108815678	-1.0408978384	 0.315984
C	 0.7276363457	-1.9616078053	-1.2595002337	 0.198241
O	 1.3895133025	-2.0936644253	-2.4270526068	-0.184767
N	 1.6531013412	-0.8207558896	-2.9072362239	 0.013524
N	 1.1850748721	 0.0377035404	-2.093254632	-0.212315
C	 0.2965820015	-3.1199106339	-0.4835203319	 0.079218
O	 0.4838883026	-4.2709303653	-0.7995882908	-0.262732
H	 1.0306326197	 1.8172378355	-0.0340875205	 0.15347
H	-0.5214611742	 1.8055307272	-0.9130626225	 0.153466
H	-0.5099415033	 1.7282801766	 0.8775437663	 0.150412
H	-0.232996451	-2.8351179645	 0.4480265341	 0.10523
