18
gdb 10306	2.32669	1.93804	1.25463	4.7357	69.03	-0.2497	0.022	0.2716	1013.7067	0.152666	-381.108212	-381.099011	-381.098067	-381.142312	32.682	
C	-0.1012375909	 1.4869535479	 0.2203523131	-0.330026
N	-0.0635873761	 0.0602792586	-0.0979997145	-0.087237
C	 0.8515144446	-0.6393814658	 0.8038374511	-0.336304
C	-1.4206400865	-0.5110310721	-0.1560697086	-0.133226
C	-2.1162508725	-0.0446118774	-1.4616018968	-0.057247
O	-1.3069295803	-0.3069058712	-2.5759451147	-0.412325
C	-1.3869054987	-1.9808882014	-0.1407609819	 0.295796
N	-1.4105634044	-3.1355468872	-0.1186363886	-0.328048
H	 0.9157229236	 1.8854078224	 0.1832744781	 0.133672
H	-0.7001274758	 2.0361333247	-0.5086849439	 0.13517
H	-0.511438192	 1.6858306094	 1.2268751109	 0.107431
H	 0.5393027133	-0.580974807	 1.8612344226	 0.106204
H	 0.9318775575	-1.690603017	 0.5244510222	 0.15991
H	 1.8419459962	-0.1843714185	 0.7175234635	 0.127449
H	-2.0340691801	-0.1985436483	 0.7101220531	 0.107031
H	-3.0577685389	-0.5881856613	-1.5835271634	 0.129501
H	-2.3635532926	 1.0240735506	-1.366566432	 0.095615
H	-0.4005026363	-0.1300255067	-2.2829321801	 0.286633
