21
gdb 114837	3.12553	1.3153	1.23497	1.5953	77.09	-0.2471	0.0801	0.3272	1131.8535	0.185062	-424.232266	-424.224276	-424.223332	-424.264975	31.217	
C	 0.0915384817	 1.4165112319	 0.0356878047	-0.236421
O	-0.1656802617	 0.0399451987	-0.115938811	-0.245225
C	 0.5741996218	-0.5687364331	-1.1507623243	 0.147558
C	 2.0729494684	-0.8679409765	-0.8164972312	-0.258159
C	 2.1080182419	-2.4008369864	-0.9913726361	 0.082317
C	 1.4063785139	-3.0890925343	 0.2004089806	-0.217764
C	-0.0891681236	-2.7816666112	-0.112259668	-0.215955
C	 0.0451774568	-1.9966259252	-1.4336427396	 0.027091
O	 1.1748903637	-2.6048643595	-2.0685417554	-0.266318
H	 1.1362972705	 1.6158522971	 0.3177420873	 0.10728
H	-0.125991993	 1.9733192387	-0.8893189378	 0.106098
H	-0.5619765984	 1.7837345995	 0.8308704291	 0.126831
H	 0.4978140412	 0.0397871244	-2.0631543028	 0.068337
H	 2.751187003	-0.3789470075	-1.5194762044	 0.100704
H	 2.3279299196	-0.5439389943	 0.1961723569	 0.102673
H	 3.0766561894	-2.817688547	-1.2676458897	 0.073548
H	 1.6041842376	-4.1635431216	 0.1932599504	 0.102106
H	 1.7335146382	-2.6909240674	 1.1641643376	 0.09866
H	-0.6608759785	-3.6978782237	-0.2742368218	 0.099046
H	-0.5814749419	-2.1948120285	 0.6631798503	 0.122107
H	-0.8185202806	-2.0353951942	-2.0968270347	 0.075486
