11
gdb 131316	5.69218	1.38336	1.11289	0.6316	58.07	-0.2582	-0.0382	0.22	954.4922	0.068631	-484.846152	-484.840216	-484.839272	-484.876506	22.707	
O	 0.0789307124	 1.2556446428	-0.1152915931	-0.387048
C	 0.0653791188	-0.0719525629	-0.0649041112	 0.441917
N	 0.0077948221	-0.7863806185	-1.1869609879	-0.34192
N	 0.0168602654	-2.0482056964	-0.6423231511	 0.002749
C	-0.0125904147	-3.3705250793	-0.9633827686	 0.06212
N	 0.0252335768	-4.1143329426	 0.1055450438	-0.125876
O	 0.0840513765	-3.2054871222	 1.2141968435	-0.240865
C	 0.0764594299	-1.977567054	 0.7066008908	 0.546148
N	 0.1099542273	-0.7418250163	 1.140511334	-0.477277
H	 0.1224764387	 1.5748526483	 0.7950962701	 0.322803
H	-0.0608268431	-3.7744421388	-1.9616194102	 0.197249
