15
gdb 12215	3.4661	1.5962	1.27993	3.2051	64.76	-0.2507	-0.0341	0.2167	961.1873	0.117853	-399.828967	-399.820826	-399.819882	-399.862186	27.642	
C	-0.1931276985	 1.3674108652	-0.0107496323	-0.345698
N	-0.025900354	-0.0621510362	 0.0385379337	-0.066874
C	-0.9831334155	-1.1637789419	 0.1997509615	-0.187465
C	 0.2135490111	-2.1407461366	 0.1107789766	-0.254527
C	 0.2731283013	-3.0437007249	-1.0920795929	 0.150665
O	-0.5575937602	-3.0710305969	-1.9651750667	-0.240077
C	 1.0926994348	-0.8401786442	-0.0334616134	 0.398091
O	 2.2622413166	-0.597594981	-0.1576356866	-0.361613
H	 0.7938334681	 1.8133845753	-0.1526870392	 0.165317
H	-0.8401417049	 1.663095306	-0.8448529935	 0.137388
H	-0.625663621	 1.7527980525	 0.9204677263	 0.13226
H	-1.507656215	-1.1567104502	 1.1608645952	 0.113364
H	-1.6948334827	-1.2621542146	-0.6239518943	 0.14029
H	 0.4589648759	-2.6946702466	 1.0209246459	 0.121046
H	 1.178914564	-3.6851423059	-1.1362360902	 0.097833
