16
gdb 8528	4.61093	1.89491	1.62762	2.7294	63.49	-0.2281	0.0644	0.2925	807.2912	0.129013	-383.640783	-383.633924	-383.63298	-383.671282	27.437	
C	-0.1521416481	 1.5873646596	-0.0393895949	-0.466289
C	-0.0403667179	 0.0713428953	-0.0193099686	 0.401514
O	-1.2911970485	-0.5474010783	-0.2668736381	-0.47908
C	 1.1794882716	-0.5921242543	-0.7085210757	-0.165458
C	 2.090708389	-0.3446055217	 0.5339356446	 0.078245
O	 2.5318390842	-1.7295448662	 0.6419030537	-0.333125
C	 1.1237415614	-1.8116359015	 0.2666181569	 0.089777
C	 0.6836091814	-0.606341884	 1.1570877	-0.130074
H	 0.801501326	 2.068411979	 0.1978334478	 0.122444
H	-0.4606856802	 1.9418869133	-1.0311629015	 0.109776
H	-0.9004732116	 1.923833864	 0.68485367	 0.129829
H	-1.6617652777	-0.1682004243	-1.0708249248	 0.27743
H	 1.4857110557	-0.6011383206	-1.7551392396	 0.078243
H	 2.8087190566	 0.4495540391	 0.7324827665	 0.096345
H	 0.6673269823	-2.7900766379	 0.1399700681	 0.106589
H	 0.4232236159	-0.6300172514	 2.2148709556	 0.083833
