20
gdb 60183	2.95972	0.88912	0.78643	3.7479	80.38	-0.2961	-0.0025	0.2936	1522.6214	0.168825	-403.147655	-403.137739	-403.136795	-403.183208	35.709	
C	 0.1356748107	 1.5111949382	-0.0155924217	-0.392914
C	 0.0471849817	-0.0179556816	 0.0741922088	 0.032631
C	 0.4536568644	-0.5099750833	 1.4705164255	-0.382698
C	-1.3657101089	-0.4922338487	-0.3226396213	-0.224515
C	-1.4824011893	-1.9879194932	-0.4674920559	 0.06447
O	-1.7007330516	-2.7715629352	 0.7088721137	-0.225961
C	-2.7464802625	-2.7324512434	-0.2618256671	-0.10951
C	-3.9656065791	-2.0508048579	 0.1187875825	 0.303164
N	-4.9535319741	-1.519896276	 0.3984049085	-0.32753
H	 1.1423289957	 1.8607032244	 0.2344564858	 0.114571
H	-0.1055844387	 1.8712107156	-1.0213379287	 0.111215
H	-0.5629443756	 1.9839459651	 0.6847028055	 0.119756
H	 0.7545287664	-0.4393677868	-0.6555984345	 0.073446
H	-0.2259470251	-0.114729962	 2.2343696196	 0.119168
H	 0.4329362964	-1.600133635	 1.545825417	 0.131726
H	 1.4651893619	-0.1722450003	 1.718065373	 0.111178
H	-2.100269663	-0.1424256551	 0.4117682752	 0.12556
H	-1.6402931095	-0.042976522	-1.2863153632	 0.110222
H	-0.7825629348	-2.4490088772	-1.1679555863	 0.107104
H	-2.9108682951	-3.6616018755	-0.8047289964	 0.138915
