19
gdb 112091	3.12177	1.28263	1.00311	0.498	76.71	-0.2403	0.0263	0.2666	1196.8808	0.160108	-423.015666	-423.007373	-423.006429	-423.048734	31.571	
O	 0.1497919505	 1.298196306	-0.1934900744	-0.423001
C	 0.0196060945	-0.1159323824	-0.2133896591	-0.078249
C	-1.4454940753	-0.4591264181	 0.0953903857	-0.071721
C	-2.3716413342	 0.0828576264	-0.9624121539	-0.045745
C	-3.356050722	-0.6050811175	-1.5350140479	-0.068868
C	-3.7024700314	-2.0312602553	-1.2068467664	-0.297907
C	-2.6838663724	-2.7109168371	-0.3215487532	 0.054594
O	-1.3467222611	-2.7878890918	-0.8262203334	-0.26377
C	-1.5974985221	-1.9499079375	 0.3110425852	 0.023511
H	 1.01124585	 1.5267237177	-0.5533273041	 0.288985
H	 0.2846485857	-0.5367022339	-1.1931200243	 0.108926
H	 0.6722013913	-0.5837784637	 0.541572983	 0.083499
H	-1.6782673674	 0.0345992908	 1.0519708334	 0.09399
H	-2.1832390206	 1.1118951678	-1.2519912254	 0.103951
H	-3.9729971082	-0.1253976067	-2.2910265272	 0.086991
H	-4.6816957106	-2.0752409713	-0.7071591561	 0.112975
H	-3.8212368371	-2.6149544073	-2.1305882054	 0.118859
H	-3.0213873806	-3.6270222196	 0.1648150178	 0.086695
H	-1.167974399	-2.3321652665	 1.2385990757	 0.086288
