16
gdb 99460	2.42735	1.17686	0.92737	2.5509	78.86	-0.2333	-0.0676	0.1657	1293.8639	0.120188	-400.669826	-400.65973	-400.658786	-400.705385	35.469	
C	 0.4238392244	-0.880168672	-1.242880892	-0.319961
N	-0.2761250001	-0.5652124159	-0.005204211	-0.274634
C	 0.4918867245	-0.7609386653	 1.2085589231	-0.23395
C	 1.8140900828	-0.1070896743	 1.2509600355	 0.338916
C	 2.8736326516	 0.4622648389	 1.2541269294	-0.483496
C	-0.3178971429	-0.2100331856	 2.404951525	 0.227305
O	-1.2051538192	 0.5957097553	 2.2524265976	-0.285418
C	 0.0755770265	-0.7075229502	 3.7056204975	 0.289969
C	 0.3929250651	-1.1527079416	 4.7776436257	-0.405537
H	 0.6758023447	-1.9468827363	-1.2602608795	 0.120722
H	-0.2468283938	-0.684646366	-2.0838454087	 0.12476
H	 1.3547507941	-0.3121399624	-1.3957632297	 0.112754
H	-0.6437156412	 0.3799649771	-0.0082924002	 0.23773
H	 0.6374843521	-1.838340601	 1.3721717519	 0.12602
H	 3.8143882355	 0.9556421045	 1.2615054864	 0.205458
H	 0.6674951756	-1.5346115752	 5.7311195588	 0.219361
