18
gdb 97186	2.62523	1.34646	0.92282	0.9739	76.87	-0.2343	-0.017	0.2173	1248.7815	0.149653	-435.306408	-435.297799	-435.296854	-435.340148	31.656	
C	 0.0296130355	 1.4410262267	-0.108950744	-0.347669
N	-0.0043272591	-0.0123503449	-0.0681233354	-0.282328
C	 0.4902828137	-0.6172569341	 0.9332624241	 0.383164
C	 0.5074473026	-2.1341148762	 0.9920152047	-0.254443
N	 0.384256031	-2.6759483552	 2.3420645375	-0.2892
C	 1.4103540476	-2.1331980825	 3.22303275	-0.28568
C	 1.5706784781	-0.6139234888	 3.1870203803	 0.388222
O	 2.0949941286	 0.0300251209	 4.0681249629	-0.346724
N	 1.065043055	 0.0027322367	 2.0498040766	-0.376005
H	 1.0540686263	 1.8424344574	-0.0649192391	 0.118249
H	-0.4151421424	 1.783729993	-1.0457965967	 0.133203
H	-0.5429630715	 1.8969062404	 0.7132885907	 0.118985
H	-0.2937557682	-2.5059418075	 0.3520554131	 0.139832
H	 1.4562835821	-2.4912977652	 0.5676177226	 0.129907
H	-0.5344510253	-2.4535515036	 2.7129814998	 0.229222
H	 1.2167583346	-2.4167504565	 4.2598766298	 0.14314
H	 2.3831414084	-2.5685976091	 2.9539115798	 0.142116
H	 1.1414294629	 1.0111944786	 2.0621228431	 0.25601
