15
gdb 1928	4.67193	2.83282	2.4679	1.3145	56.05	-0.2408	0.0612	0.302	602.1286	0.126423	-345.625804	-345.620051	-345.619106	-345.654893	23.319	
O	-0.0696681149	 1.397962253	-0.0184937452	-0.476789
C	-0.0170990735	 0.0114239938	 0.0248590503	 0.357731
C	 0.3371855063	-0.8350839041	 1.2989462211	-0.29608
C	-0.3684272206	-1.9148340534	 0.4458749359	 0.106148
C	-1.3341443318	-0.8069027126	-0.0434302471	-0.262161
O	 0.5271351839	-2.0989409543	-0.670414606	-0.27482
C	 0.8182237496	-0.7375126862	-1.0342864343	-0.127941
H	 0.8292642637	 1.7423581195	 0.0262542282	 0.2834
H	 1.3887020008	-1.0020335941	 1.5460365551	 0.094827
H	-0.236202558	-0.5226445253	 2.1728658812	 0.106132
H	-0.6909133398	-2.8807494034	 0.8261120896	 0.085894
H	-2.0555302049	-0.4938738272	 0.7126286462	 0.108022
H	-1.8091817129	-0.9441489889	-1.0172301514	 0.102742
H	 0.4903127365	-0.5269945129	-2.0591450308	 0.104241
H	 1.8958286456	-0.539716354	-0.9538916927	 0.088655
