13
gdb 48142	6.66816	0.60548	0.55693	0.5506	82.33	-0.249	-0.1077	0.1413	1823.5753	0.084615	-419.384908	-419.375535	-419.374591	-419.420549	31.883	
O	-0.8985984067	 1.4561884287	 0.3906430554	-0.212822
C	 0.0217705502	 1.0492514336	-0.2671338352	 0.083475
C	 1.36379407	 1.7865300822	-0.3867015642	 0.303574
O	 2.2320906063	 1.3065360987	-1.0678540742	-0.246617
C	 1.4628925684	 3.0948455833	 0.39557058	-0.537617
C	 2.7359739259	 3.7714394893	 0.2678715722	 0.369524
C	 3.7989217303	 4.3371877181	 0.161753795	-0.174268
C	 4.9940492005	 4.9764425236	 0.0444152017	 0.294537
C	 6.0537787273	 5.5455522273	-0.0581945641	-0.551772
H	-0.0038179335	 0.1061589136	-0.8510220665	 0.121586
H	 0.6308551865	 3.7350991775	 0.0695609168	 0.177824
H	 1.2302412682	 2.8669535768	 1.4455375088	 0.177823
H	 6.9868546566	 6.0438168573	-0.1503204357	 0.194754
