21
gdb 121996	5.4765	0.50045	0.47853	4.0676	76.96	-0.2439	-0.0209	0.223	2229.2223	0.178789	-461.363128	-461.351904	-461.35096	-461.401118	38.452	
O	-0.0073893745	 1.4517212852	 0.1067484058	-0.419223
C	 0.0602851667	 0.0381649376	 0.0078070575	-0.074712
C	-1.3623358742	-0.5023063314	 0.0625505025	-0.167677
C	-1.4218960699	-2.0287455649	-0.0357526231	-0.211356
C	-2.8533927266	-2.5777016916	-0.0441761776	 0.107697
O	-3.6277292294	-2.0417399622	-1.1141235622	-0.424878
C	-2.8780600573	-4.1180531952	-0.0691211995	-0.29616
C	-4.2789818707	-4.6833338929	 0.0437899436	 0.154603
O	-4.5801347751	-5.6105783527	 0.7520096012	-0.243094
H	 0.8889411986	 1.7991878253	 0.0877918358	 0.286076
H	 0.5409723586	-0.2736869907	-0.9349530511	 0.080974
H	 0.655704427	-0.3918272422	 0.8305794707	 0.083328
H	-1.8252167075	-0.1693614279	 0.9994881987	 0.108631
H	-1.9456628684	-0.0549172801	-0.7482164075	 0.118211
H	-0.9126329922	-2.3693121233	-0.9510940824	 0.085719
H	-0.8764158301	-2.484173784	 0.8008161798	 0.103661
H	-3.3683092754	-2.2290269849	 0.8602828019	 0.102904
H	-3.1718202402	-2.2453843432	-1.9392313819	 0.27935
H	-2.4573327039	-4.4545617932	-1.0299405589	 0.110308
H	-2.2633344494	-4.5473285414	 0.7276297521	 0.121891
H	-5.0329982161	-4.1688667364	-0.5891389953	 0.09375
