17
gdb 15226	2.32953	1.92144	1.34312	3.8377	68.6	-0.2736	0.0222	0.2958	974.1445	0.141713	-363.863541	-363.854866	-363.853921	-363.897008	31.02	
C	-0.055299781	 1.5668573899	 0.1699940603	-0.4184
C	 0.0090213342	 0.068975114	-0.0379230051	-0.034951
C	 0.5503935922	-0.5858604033	-1.2778805189	-0.046948
C	 1.1323434672	 0.1844317704	-2.4473705308	-0.088209
O	 2.1401324074	-0.5509208313	-3.1183057841	-0.420468
C	 1.3299279203	-0.6978382733	 0.0355365793	-0.197287
C	 2.573635345	 0.0069625903	 0.1545068184	 0.281143
N	 3.5836536483	 0.5708121051	 0.2150380888	-0.352574
H	 0.8429498763	 2.0773511541	-0.183463206	 0.145497
H	-0.9179140191	 1.9916312802	-0.3534022099	 0.128261
H	-0.1630788257	 1.7958781306	 1.2347725922	 0.132195
H	-0.8094484735	-0.4695106369	 0.4324924361	 0.105904
H	 0.0753483123	-1.5160718528	-1.5762762263	 0.109736
H	 0.3431143954	 0.361745731	-3.1857695772	 0.117022
H	 1.5026908331	 1.1658795891	-2.1261964333	 0.107982
H	 2.9228326531	-0.5495777483	-2.556174188	 0.296347
H	 1.3238559744	-1.6586165488	 0.5385347445	 0.134749
