21
gdb 95717	2.53696	1.29086	0.98904	2.9129	78.07	-0.2379	-0.0158	0.2221	1244.4278	0.183908	-424.256867	-424.247926	-424.246982	-424.2907	34.025	
O	-0.2693165116	 1.4963216181	-0.2976857764	-0.439471
C	 0.0071597892	 0.120982354	-0.0432035232	 0.138369
C	-1.3629912523	-0.5717122031	 0.0134965406	-0.197924
C	-1.4509305513	-1.8503599708	 0.8659058395	-0.207824
C	-0.2544967371	-2.83037414	 0.7503732446	-0.292184
C	 0.3164560615	-2.8897079668	-0.6613071611	 0.386026
O	-0.090433885	-3.6720490851	-1.4891777285	-0.309601
C	 1.4223997618	-1.8840656581	-0.9694986551	-0.30454
C	 0.9110351734	-0.4386415877	-1.1552061013	-0.224803
H	 0.5690109123	 1.9526062686	-0.4234371386	 0.278602
H	 0.5141315239	 0.0180966595	 0.9327513134	 0.059227
H	-2.077102864	 0.1596390735	 0.4032041871	 0.113948
H	-1.6781099046	-0.7893133627	-1.0143960512	 0.111122
H	-1.5632692372	-1.5832692847	 1.9223389263	 0.106397
H	-2.3653767074	-2.3802632116	 0.5824523471	 0.118909
H	 0.5360377781	-2.5226932054	 1.442514407	 0.10305
H	-0.5786048628	-3.835452631	 1.0323517553	 0.120785
H	 2.1502577369	-1.9063343493	-0.1489115463	 0.107625
H	 1.9269190658	-2.2071364675	-1.8833773753	 0.121154
H	 0.3571916106	-0.3636267343	-2.0981792971	 0.122029
H	 1.7901721899	 0.2116081244	-1.2548302969	 0.089103
