15
gdb 26781	3.59822	1.1635	0.88493	3.1251	84.3	-0.1957	-0.0217	0.174	1259.3618	0.111349	-416.812599	-416.803682	-416.802738	-416.846388	32.25	
C	 0.0691967848	 1.5412780825	 0.048974807	-0.505386
C	 0.0254174497	 0.0503502214	-0.000846128	 0.187143
C	-0.1244174115	-0.7838823021	-1.0757466031	 0.279186
N	-0.3528838292	-0.5972083616	-2.4254663025	-0.605804
O	-0.1122812946	-2.066023933	-0.6420493254	-0.195733
C	 0.0510275879	-1.9646877191	 0.7251695915	 0.196573
N	 0.1312130553	-0.7351894352	 1.1347191486	-0.345623
C	 0.1165805948	-3.1591092112	 1.4634808044	 0.258382
C	 0.1705565787	-4.1859724779	 2.0898257808	-0.38095
H	 0.886628618	 1.8804419632	 0.6922943701	 0.144283
H	 0.2236753745	 1.9712922677	-0.9462239802	 0.106982
H	-0.8594845411	 1.9642689728	 0.4495886601	 0.14002
H	-0.0971207399	 0.3258720263	-2.7472044854	 0.260713
H	 0.0610183728	-1.3153366538	-3.006381065	 0.263647
H	 0.2192504798	-5.0871772099	 2.6493199872	 0.196566
