17
gdb 98170	2.27752	1.29515	1.11583	2.712	69.65	-0.2734	-0.0199	0.2535	1190.0817	0.13379	-455.180197	-455.169948	-455.169003	-455.215772	35.56	
C	-0.3900398055	 1.37341247	-0.6284978234	-0.244901
O	-0.3369145925	-0.0452418282	-0.85358921	-0.23911
C	 0.8787734575	-0.6016095691	-0.7611991636	 0.498112
O	 1.8912640169	-0.0066373924	-0.5142936735	-0.355061
C	 0.7839369649	-2.1261800861	-1.0131860795	-0.028754
C	 2.1511978376	-2.7779126937	-0.776477286	-0.398177
N	-0.1970358119	-2.6622653606	-0.0624692388	-0.521109
C	 0.3709569226	-2.329900147	-2.4254486603	 0.255651
N	 0.0225246493	-2.527139967	-3.5103228789	-0.336373
H	-0.04964162	 1.6101498018	 0.3821307811	 0.149597
H	 0.242233321	 1.8945759784	-1.3505497065	 0.152411
H	-1.4346492867	 1.6531067341	-0.7588871626	 0.143783
H	 2.4435715118	-2.6161094347	 0.2620107162	 0.147932
H	 2.090186824	-3.8517365227	-0.9725499894	 0.126899
H	 2.9060992156	-2.3414080158	-1.4313061967	 0.150917
H	-1.1026862201	-2.2332547238	-0.2250873758	 0.25332
H	-0.3021658746	-3.6617380632	-0.2113516522	 0.244862
