20
gdb 105704	2.75217	0.99506	0.82136	4.5457	78.59	-0.2554	0.0116	0.267	1445.7106	0.169682	-440.261426	-440.251532	-440.250588	-440.297446	35.325	
O	 0.3928761396	 1.1154109197	-0.5487470369	-0.423674
C	 0.1028971987	-0.0698461451	 0.1643164485	-0.129476
C	-1.363839898	-0.4721026601	 0.102878712	 0.32127
C	-2.2767773188	 0.3137900769	 1.0068751048	-0.157317
O	-2.1383546114	 1.7108136908	 0.6832934599	-0.201375
C	-2.9224391726	 2.5732356405	 1.3608677516	 0.136533
N	-2.7731174389	 3.8149830235	 1.2009982942	-0.436853
C	-1.9031472424	-0.9386716187	-1.22553448	-0.281354
C	-1.7118625491	-1.9284523945	-0.1056191505	-0.324808
H	-0.2315324673	 1.7873236676	-0.2490217645	 0.298012
H	 0.7162114527	-0.855010878	-0.290832949	 0.100441
H	 0.4123050317	 0.0085467794	 1.2213957642	 0.080306
H	-3.3223968221	 0.0063112049	 0.8753243948	 0.10574
H	-2.0017083832	 0.1664160523	 2.0606063093	 0.113128
H	-3.6560284009	 2.0772239029	 2.0113151205	 0.090014
H	-3.448155431	 4.3257536955	 1.7660074638	 0.233066
H	-2.9163434198	-0.6604642457	-1.4954297411	 0.114422
H	-1.2103938503	-0.9575023569	-2.0589353565	 0.131013
H	-0.8922037343	-2.6355908591	-0.1720197152	 0.120158
H	-2.5942803528	-2.3235501359	 0.3877863602	 0.110755
