25
gdb 119259	1.8637	1.08178	0.77392	0.9157	89.94	-0.2431	0.0826	0.3257	1639.7414	0.226548	-389.482105	-389.471069	-389.470125	-389.518886	40.37	
C	-1.8752367968	 1.4731706156	-1.43758801	-0.383714
C	-1.8273711739	-0.0535755129	-1.3435094156	-0.154915
C	-1.6728915227	-0.5604686908	 0.0962894132	-0.25354
C	-1.5970371796	-2.0738416333	 0.1902903322	 0.456816
C	-2.0164237955	-2.777767015	 1.4588637425	-0.334161
C	-2.8622695667	-2.8782145392	 0.2033639726	-0.312809
O	-0.5642891887	-2.6739197774	-0.5485139597	-0.295917
C	 0.7431966063	-2.4728255082	-0.0312881708	-0.049981
C	 1.70285377	-3.338731128	-0.8308951789	-0.38397
H	-1.9807982736	 1.8061569198	-2.4749183382	 0.11084
H	-2.7196129037	 1.8811701653	-0.8701694586	 0.110647
H	-0.9612498284	 1.9251308999	-1.0354361499	 0.110836
H	-2.7400371534	-0.4816580011	-1.7769258235	 0.096833
H	-0.9985191765	-0.4412345853	-1.9462409352	 0.107919
H	-0.777659005	-0.112300538	 0.549082839	 0.092552
H	-2.5184033246	-0.2170867767	 0.7053890116	 0.09201
H	-1.4550910164	-3.6604709774	 1.7441886298	 0.114117
H	-2.384532926	-2.1855982856	 2.2900178468	 0.108662
H	-3.8095209658	-2.350631341	 0.1708109967	 0.108134
H	-2.8440938115	-3.8200624261	-0.332266038	 0.120303
H	 1.034146482	-1.4141782082	-0.1083819888	 0.089144
H	 0.7721959782	-2.7412441189	 1.0357462914	 0.088119
H	 2.7280024545	-3.2039942505	-0.4727415894	 0.112482
H	 1.4364817201	-4.395453288	-0.7371129533	 0.12345
H	 1.6679987076	-3.0716187891	-1.8910233457	 0.126142
