16
gdb 13961	5.27831	1.25939	1.15809	3.2087	65.47	-0.2387	-0.0233	0.2154	1032.9856	0.128927	-383.701786	-383.694148	-383.693204	-383.734821	27.437	
O	 0.1449105004	-0.1172762913	-0.0105959019	-0.2385
C	 0.0687102758	 1.0715393084	-0.1821270439	 0.160052
C	 1.2275136712	 2.0380338248	 0.0052882242	-0.384446
C	 1.3444087411	 2.996241023	-1.1437474389	 0.465739
C	 1.9967963382	 2.7459998552	-2.4695651099	-0.326291
C	 2.4150195374	 3.9452445115	-1.6371184189	-0.194779
C	 1.2963421681	 4.9787365172	-1.6737502781	-0.084879
O	 0.3094655774	 3.9826181755	-1.2844340329	-0.325057
H	-0.8847735132	 1.5524710245	-0.4914497939	 0.099763
H	 1.0410509375	 2.6078715678	 0.9266606581	 0.131504
H	 2.1470188447	 1.4609409705	 0.1336115661	 0.12802
H	 2.7222195086	 1.9385926227	-2.491249706	 0.122759
H	 1.4264261665	 2.8802039676	-3.3848631184	 0.118479
H	 3.4285465007	 4.1084805961	-1.2968988724	 0.105668
H	 1.3810340415	 5.7528747754	-0.9032438524	 0.112718
H	 1.061755054	 5.440736241	-2.639891481	 0.109251
