13
gdb 129505	4.61839	1.16372	0.93019	1.8841	63.28	-0.2444	-0.053	0.1914	1155.6725	0.090593	-482.265758	-482.257712	-482.256767	-482.298806	28.979	
N	-0.1111174966	 1.2846440843	-0.0004439781	-0.562407
C	 0.094448997	-0.0504310801	 0.0030733798	 0.53436
O	 1.1433949778	-0.632744224	-0.0131059318	-0.336121
N	-1.1631754621	-0.7752759128	 0.0300253499	 0.023061
N	-2.3493381364	-0.1703944796	 0.0319228945	-0.119513
N	-3.2489988478	-1.1075584071	 0.0546852823	-0.266622
C	-2.5538851868	-2.2888067065	 0.0668086039	 0.477509
N	-3.1756086312	-3.5043414067	 0.14838438	-0.57443
N	-1.2407763155	-2.1130212408	 0.0474278683	-0.293259
H	 0.6976616395	 1.8798545021	-0.0229618568	 0.281126
H	-1.0409523125	 1.6695195527	 0.0113300527	 0.291752
H	-4.1282849267	-3.5079477206	-0.1821707541	 0.271534
H	-2.6241271187	-4.2885506509	-0.1640796705	 0.273011
