20
gdb 108149	3.89592	1.26388	1.13084	2.6497	78.26	-0.2144	0.0718	0.2862	1135.4316	0.173026	-403.100959	-403.093109	-403.092165	-403.13331	30.963	
O	 0.4399465847	 0.4967170505	 0.9528581252	-0.417849
C	-0.0977777433	 0.2405347015	-0.3392337454	-0.212213
C	-1.4866457843	-0.2903634405	-0.1778437833	 0.349734
C	-2.5821752017	 0.3140436913	 0.6915928066	-0.237108
N	-3.1768674236	-1.0609802045	 0.9033991523	-0.119347
C	-4.2570294391	-1.2716065966	-0.0813675148	-0.157599
C	-3.6159991861	-1.0866204334	-1.4920415145	-0.261521
C	-2.1317608201	-1.2520036019	-1.1775351839	-0.11053
C	-1.9664996625	-1.6547866848	 0.2610945193	-0.080199
H	 1.2709635373	 0.9679589761	 0.8427447288	 0.287683
H	-0.121439383	 1.1628025306	-0.9436285507	 0.088513
H	 0.5161010981	-0.4911408581	-0.889724354	 0.085095
H	-2.1903166414	 0.7072041444	 1.6318975283	 0.122925
H	-3.2638762551	 1.0479738846	 0.243254356	 0.0868
H	-4.6322723742	-2.293885546	 0.0364187722	 0.102645
H	-5.0843257498	-0.5838070096	 0.1159785348	 0.101352
H	-3.958228459	-1.8445042039	-2.2033994871	 0.098956
H	-3.8453169992	-0.1080188985	-1.9265304994	 0.100088
H	-1.459954348	-1.6722444984	-1.9184194424	 0.082373
H	-1.4545401395	-2.5211504228	 0.6595077421	 0.090204
