15
gdb 51496	4.41246	1.02412	0.90976	5.1376	68.07	-0.2684	-0.0281	0.2403	1233.0725	0.11199	-457.755779	-457.7482	-457.747256	-457.789048	27.53	
O	-0.0385677401	-0.021684484	-0.2076673589	-0.268744
C	 0.0067938602	 1.1699040087	-0.2010509549	 0.173183
O	 1.047530036	 1.8582415433	 0.3091549154	-0.186327
C	 1.0046049473	 3.2894812698	 0.2574699195	 0.074703
C	 1.2237372799	 3.8952391664	 1.6318207136	-0.109062
C	 2.2178606167	 4.7826480785	 1.6312469474	-0.081271
C	 2.8610542357	 4.8372348155	 0.2773897729	-0.006062
O	 3.4485622382	 3.5725867926	-0.0957928039	-0.236048
C	 2.1433576582	 3.8808112665	-0.5756662021	 0.006201
H	-0.7885816102	 1.8296009786	-0.6030573309	 0.076496
H	 0.0372659609	 3.6016084238	-0.1640482868	 0.097101
H	 0.6370806414	 3.5800447641	 2.486130921	 0.122167
H	 2.564157038	 5.3558429157	 2.4818921082	 0.119368
H	 3.3653734044	 5.7206538924	-0.10004518	 0.109618
H	 2.0407189733	 3.978407878	-1.6524524505	 0.108677
