15
gdb 25486	5.21539	0.98667	0.845	3.651	78.33	-0.2514	-0.0355	0.2159	1294.0622	0.114696	-416.856912	-416.849542	-416.848598	-416.889496	27.187	
N	-2.4436837744	 1.1805904135	-0.1621542959	-0.421923
C	-2.2608255278	 0.0041855479	 0.244412302	 0.107056
O	-1.2242648775	-0.7195252685	-0.2586675467	-0.217485
C	-1.18792922	-2.0729720232	-0.0228559265	 0.326374
C	 0.0545874682	-2.6394525759	 0.2675040964	-0.055275
N	 0.2283209264	-3.9422706293	 0.4725299142	-0.254805
C	-0.8478434522	-4.7326928539	 0.4004477302	 0.002194
C	-2.1238010501	-4.2607477995	 0.1110301641	-0.105069
C	-2.3033317789	-2.8991095196	-0.1156511957	-0.19743
H	-3.2216273532	 1.606261191	 0.3378901718	 0.238197
H	-2.8330680537	-0.538532877	 1.0057647044	 0.105851
H	 0.9279922769	-1.9952211382	 0.326013061	 0.127525
H	-0.678932598	-5.7913658423	 0.5777724335	 0.114098
H	-2.9621529435	-4.94563028	 0.0497417071	 0.110546
H	-3.274947142	-2.4956870151	-0.37798717	 0.120148
