20
gdb 85254	2.51776	1.54956	1.1777	3.0763	80.27	-0.2476	0.0307	0.2783	1126.5276	0.172014	-403.170978	-403.162567	-403.161623	-403.204049	32.719	
C	 0.762564749	 1.2968016311	 0.0459987923	-0.394055
C	-0.1331017183	 0.0678464606	-0.0545699752	 0.113356
C	 0.1693803211	-0.8408115634	-1.2649656554	-0.338242
C	 1.1047163567	-1.8773417327	-0.6668424873	 0.266738
C	 1.5016723012	-3.1642035426	-1.3381144197	-0.313221
C	 2.5346607705	-2.0961051828	-1.1305800889	-0.296642
C	 0.8384324152	-1.859712581	 0.8008418564	 0.366269
N	 1.2567331057	-2.7117003747	 1.6364279872	-0.564931
O	 0.0699826667	-0.7748098946	 1.1070202665	-0.255639
H	 1.8186776843	 1.0153534038	-0.0151748672	 0.129266
H	 0.543047202	 1.9935579499	-0.7695412892	 0.118292
H	 0.5975182329	 1.8129774552	 0.9954884711	 0.13044
H	-1.1839184683	 0.3697190203	-0.0266460862	 0.090666
H	-0.7513627233	-1.3115187262	-1.6258911248	 0.113177
H	 0.609313573	-0.2818745455	-2.0945565306	 0.109006
H	 1.5459295966	-4.0387304531	-0.6990990184	 0.145242
H	 1.1319733108	-3.3347531768	-2.3438759966	 0.111892
H	 2.8706995042	-1.5264762835	-1.991019435	 0.111697
H	 3.2767266911	-2.2543570391	-0.3565715171	 0.137113
H	 0.9657494788	-2.4663491748	 2.5829554481	 0.219575
