19
gdb 116866	3.28581	0.60028	0.52551	0.8601	86.74	-0.2486	0.0375	0.2861	2075.7562	0.155732	-385.823117	-385.812113	-385.811168	-385.860954	38.192	
C	-0.2626699955	 1.6194637034	-0.292267532	-0.375999
C	 0.0362130527	 0.1238977635	-0.0173358388	-0.324145
C	-1.205670896	-0.6298591136	 0.1932499116	 0.34693
C	-2.2352236702	-1.2209525959	 0.3761402007	-0.471748
C	 0.8473432162	-0.4656403734	-1.0892556195	 0.134046
C	 1.5267930137	-0.9196224752	-1.9730124197	 0.011167
C	 2.3237503438	-1.5035206822	-3.0441863772	-0.325213
C	 1.7004220244	-2.7864254752	-3.6057722023	-0.062595
O	 2.5639831317	-3.2492938887	-4.6301590699	-0.415826
H	 0.6743087363	 2.1707349323	-0.4030825359	 0.126247
H	-0.8429903076	 1.7262289849	-1.2113327649	 0.136584
H	-0.8345443702	 2.0456766755	 0.5358165159	 0.125971
H	 0.616683027	 0.0702709209	 0.9154923448	 0.134421
H	-3.139569285	-1.7540920874	 0.5353199434	 0.197298
H	 2.4437901391	-0.7886771377	-3.867374156	 0.13665
H	 3.3343017858	-1.7373738263	-2.6875313975	 0.136642
H	 1.5931629945	-3.5243959967	-2.7971297163	 0.100218
H	 0.6933153089	-2.5652874151	-3.9890835393	 0.10018
H	 2.1913737005	-4.0559182232	-4.9972476171	 0.289172
