11
gdb 198	8.91138	3.62931	2.57898	0.9982	47.38	-0.1814	0.0635	0.2449	474.5019	0.0864	-285.320198	-285.314886	-285.313942	-285.348469	19.901	
O	 0.1106674362	 1.3395310627	 0.2117186716	-0.435782
C	 0.0727192679	-0.002051831	-0.0016206979	 0.370375
C	 0.0809254075	-0.7825799411	-1.132474306	-0.286802
C	 0.021885838	-2.1405474845	-0.6837340765	-0.124046
C	-0.0189381249	-2.1334491607	 0.6851731918	-0.10318
N	 0.0127612596	-0.8110841892	 1.094399189	-0.277124
H	 0.1541019244	 1.7775710341	-0.6432123238	 0.306821
H	 0.1234033203	-0.4304291157	-2.1514928314	 0.082563
H	 0.01144585	-3.0182800805	-1.3113149004	 0.090653
H	-0.0672442296	-2.9323970326	 1.4058183179	 0.112299
H	-0.0047650993	-0.4750871014	 2.0411111357	 0.264224
