18
gdb 31798	4.78046	0.95624	0.82254	0.9818	82.87	-0.2461	-0.0236	0.2225	1393.7703	0.148656	-402.011206	-402.002472	-402.001528	-402.045792	31.639	
C	-0.0353287477	 1.4986247741	 0.0753645915	-0.465963
C	 0.0177810143	-0.0061093283	 0.0244202264	 0.319484
N	-0.0616193776	-0.5664184649	-1.1906892804	-0.317394
C	-0.0173398923	-1.8958078231	-1.2738098939	-0.078086
C	 0.0977318458	-2.7552407072	-0.1806517091	 0.197447
C	 0.1161257906	-4.257500407	-0.3499449197	-0.162877
O	 1.0129845108	-4.9110924568	 0.5361122831	-0.407275
C	 0.189756456	-2.1625718925	 1.0786743325	-0.146254
C	 0.1497583104	-0.778854499	 1.1822880693	-0.156342
H	 0.7855078951	 1.9294119328	-0.507034262	 0.13968
H	-0.9663583384	 1.8620646859	-0.371193137	 0.14032
H	 0.0299590054	 1.8722136217	 1.1001566477	 0.11633
H	-0.0752287134	-2.310428998	-2.2799722881	 0.09912
H	-0.868957009	-4.6787237165	-0.1161583072	 0.127253
H	 0.3266394021	-4.5080621916	-1.4011367042	 0.097769
H	 1.8939905026	-4.5594662059	 0.3686546992	 0.283997
H	 0.300743672	-2.7876730875	 1.9587326175	 0.116416
H	 0.2204319834	-0.2956196863	 2.1510458347	 0.096376
