16
gdb 8558	2.84354	2.78692	1.74437	0.8336	63.91	-0.215	0.067	0.282	777.2126	0.129496	-383.671457	-383.664404	-383.66346	-383.702143	27.87	
C	 0.0272479126	 1.4239353053	-0.0139695845	-0.516786
C	 0.0051570535	-0.0643683377	 0.0160644921	 0.401534
O	 0.8973023387	-0.8169002901	-0.8145583986	-0.325777
C	 0.1022463134	-1.9868147374	-0.4613113107	 0.065474
C	 0.4561098652	-2.2480424094	 1.0264493562	-0.30289
C	-0.2884294637	-0.9321242608	 1.2669304026	 0.291848
O	-0.7582604792	-0.4089865637	 2.4522987193	-0.454859
C	-1.0990422392	-1.07967115	-0.0123547564	-0.241288
H	 1.0265418244	 1.7993053013	 0.2345159351	 0.128747
H	-0.2440156506	 1.809067052	-1.0015663729	 0.133516
H	-0.6811578412	 1.8174385221	 0.7208834797	 0.134199
H	 0.1064098211	-2.7674222894	-1.2179624563	 0.08964
H	-0.101266045	-3.0949890165	 1.4348974599	 0.108125
H	 1.5213043947	-2.3240093023	 1.2685588012	 0.095277
H	-0.0377350848	 0.0633272318	 2.8850547799	 0.28982
H	-2.1570768101	-1.0461571553	-0.2322599967	 0.103421
