14
gdb 35207	3.85545	1.15307	1.08044	3.749	66.55	-0.2774	-0.0089	0.2685	1100.3263	0.09974	-436.621359	-436.614005	-436.613061	-436.653582	27.441	
N	-0.1128527822	-1.1330449742	-0.0331546503	-0.324493
C	-0.0511116823	 0.0209455572	-0.0163573303	 0.315841
C	 0.0233398855	 1.4645987928	-0.023089722	-0.219076
O	 0.618454615	 2.0768962987	 1.1370447658	-0.262507
C	 1.3295372476	 2.1423752724	-0.0783252715	 0.451864
C	 2.7708587133	 1.6073365105	-0.2316378613	-0.349766
C	 3.102066372	 2.9479876507	-0.9156496068	 0.036742
O	 2.2278837771	 3.0709987256	-2.0412619446	-0.230566
C	 1.7230238602	 3.4488925489	-0.7549278536	-0.093927
H	-0.8601129325	 1.9673346289	-0.410419382	 0.14696
H	 3.2394392148	 1.4858908942	 0.7480998588	 0.138206
H	 2.9181908113	 0.7122040073	-0.8381812321	 0.140545
H	 4.0402028983	 3.4875624511	-0.9436830222	 0.123779
H	 1.3164184618	 4.4442387759	-0.6240008779	 0.126399
