13
gdb 130896	5.171	1.05498	0.87621	2.4966	72.56	-0.2582	-0.0948	0.1634	1201.7848	0.090566	-452.789357	-452.782205	-452.78126	-452.821373	26.202	
O	-0.1035305993	-0.0433174355	-0.0015175238	-0.244202
C	-0.0165780371	 1.1570762722	 0.0066851767	 0.113529
C	 1.2547737047	 1.9306824769	-0.001071646	 0.212807
N	 2.3802709207	 1.2524402345	-0.0192227579	-0.200243
N	 3.4955103599	 1.9568105524	-0.0258080711	-0.244898
C	 3.6674196384	 3.36302829	-0.0159848329	 0.430261
O	 4.7849900535	 3.8368203589	-0.0243459916	-0.370652
C	 2.3945126899	 4.06342243	 0.0040268443	-0.20804
C	 1.235361723	 3.3623626095	 0.0110237384	-0.126892
H	-0.9210440764	 1.8068763567	 0.0215490376	 0.078467
H	 4.3509088806	 1.4120604082	-0.0398730933	 0.287071
H	 2.4314510447	 5.1458836484	 0.0126676132	 0.14135
H	 0.2755581273	 3.8710889779	 0.0258746166	 0.131444
