10
gdb 130793	2.84667	1.69487	1.31979	3.1119	56.77	-0.2958	-0.1371	0.1587	893.2656	0.051112	-504.687062	-504.679791	-504.678846	-504.719427	25.438	
O	 0.0898534265	 0.4111284825	-1.002000884	-0.267233
C	 0.0380833582	 1.2929679381	-0.20630462	 0.466114
O	-1.1998199228	 1.7141703446	 0.2679263085	-0.261799
N	-1.5483116195	 3.0752297167	 0.6861305131	 0.079192
N	-0.8598386655	 4.0175342694	 0.3478720072	-0.070689
C	 0.4298699509	 4.0155004958	-0.3131300026	 0.368844
O	 0.6654050903	 4.7512693972	-1.2222816381	-0.246909
C	 1.3983043109	 3.0864855495	 0.3641539766	-0.051777
N	 1.1724143595	 1.8394629634	 0.4230566777	-0.194596
H	 2.3066112114	 3.5015369228	 0.8008835715	 0.178853
