18
gdb 125176	3.19089	1.51906	1.05607	2.4645	79.53	-0.1866	0.0327	0.2193	1125.9898	0.151078	-398.153967	-398.145885	-398.144941	-398.186884	30.346	
C	 0.078238027	 1.5235702217	 0.1304268672	-0.502722
C	 0.0498028189	 0.0435831738	-0.0709792744	 0.16583
C	-0.0613583512	-0.7472716473	-1.1913907224	 0.169293
C	-0.2314377737	-0.783582761	-2.6819640341	-0.365497
C	 0.0866322496	-2.2886326031	-2.9744819505	-0.15992
N	-0.2210938868	-3.0107217635	-1.7142046011	-0.392619
C	-0.0518781086	-2.0662841965	-0.7007664246	 0.382889
N	 0.0667418569	-2.15847613	 0.6095570292	-0.365697
N	 0.1154981264	-0.83474835	 0.9767022508	-0.263212
H	 0.7964959578	 1.8118488848	 0.9057874392	 0.127907
H	 0.3672887051	 2.0265891587	-0.7953475612	 0.138308
H	-0.9022402372	 1.9151747137	 0.4272643889	 0.14005
H	-1.2594900586	-0.5437048208	-2.9832256825	 0.114326
H	 0.4332855834	-0.1236248766	-3.2472490832	 0.107673
H	-0.5077736739	-2.6875506902	-3.8008856941	 0.106567
H	 1.1496521735	-2.3891832705	-3.2394007454	 0.09865
H	 0.2708570515	-3.8856475691	-1.5926545089	 0.237233
H	 0.2791089699	-0.612687894	 1.9429617871	 0.260941
