17
gdb 32335	4.57284	1.00779	0.87571	3.9792	80.65	-0.2237	-0.0583	0.1654	1320.8874	0.137695	-418.074363	-418.066273	-418.065328	-418.107456	30.275	
C	 0.0456863387	 1.5797938065	 0.1453366762	-0.369726
C	 0.0044536036	 0.0680995245	-0.1258760109	-0.270015
C	-1.3947744636	-0.4876643793	-0.1165184695	 0.297729
C	-1.9902200899	-1.0278821477	-1.214579132	-0.06795
N	-3.2674438342	-1.5060485742	-1.1351238077	-0.334035
C	-4.0377301576	-1.4815420753	 0.0304487679	 0.384976
O	-5.1747548549	-1.916872546	 0.0658374487	-0.387483
C	-3.2948024844	-0.8813693043	 1.1441318789	-0.108333
N	-2.0835627284	-0.4253603015	 1.0756249259	-0.263838
H	 1.077979742	 1.9389253709	 0.1943024662	 0.113329
H	-0.4720291645	 2.1356325367	-0.6432211374	 0.113261
H	-0.4438268714	 1.8068037876	 1.0961564237	 0.140508
H	 0.4778592674	-0.1558130138	-1.0884569207	 0.097254
H	 0.5910275219	-0.4493855309	 0.6430827356	 0.118291
H	-1.5022981526	-1.1076484517	-2.1785580412	 0.134739
H	-3.7186610707	-1.9106463163	-1.9444949484	 0.267661
H	-3.8243248615	-0.827739095	 2.0929312147	 0.133631
