22
gdb 100808	3.70599	0.76582	0.66699	5.0534	83.51	-0.2837	0.0323	0.316	1708.3232	0.191709	-404.371492	-404.360435	-404.359491	-404.408214	39.497	
C	 0.0789464719	 1.548487719	 0.1838775007	-0.394368
C	-0.0142104166	 0.0365131621	-0.0431035459	-0.176809
C	-1.4541769155	-0.5167538989	-0.0735245781	 0.016705
C	-2.2032602803	-0.0773955093	-1.341256123	-0.41324
C	-1.4280282879	-2.0525027553	 0.0911625233	 0.127097
O	-0.751279681	-2.4500996152	 1.2719533491	-0.415809
C	-2.8426605017	-2.6804805037	 0.0494624461	-0.390563
C	-2.8199311367	-4.1254855115	 0.2630916902	 0.278035
N	-2.8165036082	-5.2702476597	 0.4178872497	-0.305193
H	 1.1245222529	 1.8677519216	 0.2305728456	 0.118932
H	-0.4001719246	 2.1219966401	-0.6158451226	 0.117712
H	-0.3964467969	 1.8364017142	 1.1285531665	 0.11277
H	 0.4829775898	-0.2269156609	-0.9868461138	 0.094987
H	 0.5352267815	-0.4824596459	 0.7473049623	 0.116995
H	-1.9911943368	-0.1130667879	 0.8014735721	 0.059887
H	-3.2712637617	-0.3089916773	-1.3006693848	 0.117414
H	-2.1185185491	 1.0021592005	-1.4889854805	 0.125332
H	-1.7845685683	-0.564095166	-2.2302999644	 0.122076
H	-0.8380678564	-2.4875345074	-0.7247762437	 0.109432
H	-1.207473871	-2.0636394385	 2.0286563185	 0.281797
H	-3.4739669495	-2.2201219594	 0.8211976987	 0.139748
H	-3.3249025241	-2.4829972308	-0.9123687559	 0.157063
