15
gdb 81908	2.35074	1.98431	1.20939	2.3841	66.92	-0.2502	-0.0906	0.1596	980.406	0.113072	-453.928345	-453.920697	-453.919753	-453.960894	28.724	
O	-0.1507639569	 1.5382315415	-0.2987861267	-0.424187
C	-0.0477053533	 0.1568611964	-0.0264466627	-0.000741
C	-1.3864326956	-0.553417218	-0.0350086942	-0.048025
C	-2.1805699083	-0.5466628516	-1.2806797352	-0.244084
N	-1.3546834344	-1.7372278019	-0.9512235111	-0.123857
C	-0.1039232957	-1.7362855313	-1.6209934548	 0.258622
N	 0.2246746418	-2.5731427357	-2.5107419842	-0.46564
C	 0.7375869168	-0.5701506979	-1.1262341258	 0.31001
O	 1.8021529463	-0.2265239926	-1.5716326038	-0.311283
H	 0.7290635432	 1.8346777303	-0.5677447346	 0.297922
H	 0.4597398058	-0.0265914451	 0.9354823226	 0.107147
H	-1.8796670405	-0.735511598	 0.9131528818	 0.114183
H	-3.2494668276	-0.725620778	-1.2411562952	 0.142396
H	-1.8505036398	 0.0935630066	-2.0943006919	 0.14257
H	 1.1752086085	-2.3497544346	-2.8252967342	 0.244966
