21
gdb 91799	2.24125	1.71009	1.25171	1.1611	77.51	-0.2483	0.0693	0.3176	1088.5859	0.182365	-424.224613	-424.215616	-424.214672	-424.257427	35.71	
C	-0.88383955	 1.0987004188	-0.0525746213	-0.410758
C	 0.0068334935	-0.1434683075	-0.0872128701	-0.026498
C	 1.026168101	-0.1949905462	-1.2497780961	 0.065079
O	 1.4956051712	 1.1285833293	-1.5074138412	-0.421835
C	 2.1538537771	-1.1334573086	-0.7477326507	-0.245107
C	 2.142739475	-1.009230765	 0.7678374778	-0.084541
C	 2.1118716508	 0.3899643769	 1.3658021731	-0.359881
C	 0.8355906954	-0.3903793948	 1.1734837851	 0.402099
O	 0.1564736597	-0.8825600576	 2.292469689	-0.480714
H	-0.2881166237	 2.0095484377	 0.0367981697	 0.13347
H	-1.4886457078	 1.1816044404	-0.9610625498	 0.112249
H	-1.572631809	 1.0452580023	 0.7978218755	 0.099323
H	-0.6343023543	-1.0298120309	-0.1882235858	 0.080214
H	 0.55386084	-0.5929064812	-2.1591143846	 0.06523
H	 2.1789822445	 1.0703145989	-2.1821225015	 0.28218
H	 1.9310730586	-2.1681038192	-1.0357106492	 0.101188
H	 3.1152476765	-0.8716313165	-1.2072296128	 0.085971
H	 2.5747609905	-1.8015541175	 1.3682660786	 0.088317
H	 2.4604507869	 0.4648391089	 2.3906307078	 0.103482
H	 2.3229110614	 1.2430708253	 0.7323650953	 0.128704
H	-0.2323942971	-0.1330750336	 2.7557439111	 0.281826
