19
gdb 38718	2.69218	2.03363	1.60082	0.9164	74.16	-0.2366	0.087	0.3236	906.7641	0.162227	-422.999573	-422.992876	-422.991932	-423.030177	28.317	
C	-0.0166717034	 1.4990699042	-0.088018482	-0.381791
C	 1.3507880317	 0.8433059423	 0.0300650205	-0.050797
C	 2.1643067129	 0.214680662	-1.1051363026	-0.250463
C	 1.3821131986	-1.1072749606	-1.3084578881	 0.06243
C	 1.5605476653	-2.193612102	-0.2244785519	-0.069439
O	 1.2019155536	-1.7770506258	 1.0925293905	-0.266798
C	-0.0031047267	-0.9967761914	 1.1776602514	-0.165702
C	 0.0839317649	 0.017452652	 0.0766961187	 0.386322
O	 0.0244853577	-0.6573098172	-1.1753706679	-0.300387
H	-0.3188663588	 2.1192917858	 0.7502775187	 0.116777
H	-0.3831120066	 1.8266667982	-1.0554231531	 0.124578
H	 1.8662233161	 1.011623928	 0.9684080948	 0.098441
H	 2.1600872692	 0.7952570094	-2.0334103979	 0.105638
H	 3.2052163133	 0.0633315544	-0.8061634251	 0.10455
H	 1.5120936808	-1.5562188182	-2.2988025277	 0.076358
H	 0.9376761548	-3.0485172893	-0.5322919657	 0.096216
H	 2.5997956039	-2.5323606253	-0.1552664789	 0.105493
H	-0.8895455581	-1.636779077	 1.0646095656	 0.099762
H	-0.0033162891	-0.5530436798	 2.1770172308	 0.108813
