18
gdb 53942	2.14307	1.49867	1.24461	1.6724	68.65	-0.2397	0.0089	0.2486	1095.8814	0.147753	-472.480846	-472.471157	-472.470213	-472.515052	36.598	
C	-0.2930031284	 1.4292720382	-0.9320274197	-0.42527
C	 0.05823198	 0.1825939994	-0.0903784683	 0.059588
N	 0.8957804369	 0.5156321583	 1.0632871228	-0.567569
C	-1.2683676071	-0.4474169001	 0.4432556065	 0.387923
N	-2.0573632334	-1.0080813483	-0.4991115556	-0.515403
O	-1.5571688296	-0.3684783583	 1.6257424162	-0.384226
C	 0.7676134658	-0.8333488333	-1.0281427183	 0.408322
N	 2.0004257557	-1.1845515137	-0.6261084559	-0.514497
O	 0.2295173383	-1.248890711	-2.0501919841	-0.411505
H	 0.6263958944	 1.9501197243	-1.2215062953	 0.123346
H	-0.8273445738	 1.1524816797	-1.8412291215	 0.146645
H	-0.9127494201	 2.1130733192	-0.3446744931	 0.12878
H	 1.1301710729	 1.5018470933	 1.0557818812	 0.231335
H	 0.3316690529	 0.34520295	 1.896144854	 0.253844
H	-1.6387510355	-1.232182917	-1.3958644179	 0.283507
H	-2.8778856199	-1.4998324056	-0.1827497648	 0.258369
H	 2.3238779429	-0.8081282795	 0.254465682	 0.275321
H	 2.524518148	-1.8572349756	-1.1594669481	 0.261487
