17
gdb 124824	4.32984	0.93503	0.90958	3.0489	69.95	-0.2782	-0.0216	0.2565	1330.8294	0.135599	-455.150496	-455.141783	-455.140839	-455.185124	31.054	
C	-0.009373967	 1.5564619242	 0.0556369549	-0.40326
C	 0.0023444725	 0.0361261377	-0.0939571254	 0.138622
O	 0.9182319091	-0.5799549809	 0.7965719841	-0.421927
C	-1.4176791572	-0.5564995725	 0.0652516139	-0.351281
C	-1.4230479807	-2.0422236526	-0.0138904187	 0.45553
N	-1.6446012333	-2.9031236813	 0.9363169621	-0.317876
C	-1.4911250801	-4.0963594868	 0.2742179	 0.038832
N	-1.1987568891	-4.0011214714	-0.9924618161	-0.113879
O	-1.1524209369	-2.6145492058	-1.1949026602	-0.200827
H	 1.0051899236	 1.947984443	-0.0517426322	 0.133585
H	-0.646749317	 2.0279861173	-0.699358545	 0.120876
H	-0.3865987171	 1.84800065	 1.0436532618	 0.111991
H	 0.3722210239	-0.2289726157	-1.0905851895	 0.113981
H	 0.6267986532	-0.4075294563	 1.6993346099	 0.283136
H	-1.8338912917	-0.2777008464	 1.0383903523	 0.130724
H	-2.0720731692	-0.143376619	-0.7101881984	 0.135696
H	-1.6020215827	-5.0595636133	 0.7507467364	 0.146076
