17
gdb 57085	3.48569	1.12905	1.04544	6.1509	74.07	-0.2503	-0.0105	0.2398	1178.5397	0.136627	-418.008901	-418.000319	-417.999374	-418.042633	31.244	
N	-0.1510461234	 1.5492477054	-0.1082911885	-0.501245
C	-0.0486492472	 0.0945791144	-0.0478400978	-0.153032
C	-1.3893682253	-0.4827739512	 0.1377646582	 0.309123
N	-2.4316039203	-0.9616473799	 0.273311265	-0.319783
C	 0.6421359791	-0.5720459985	-1.2796085667	 0.085781
O	-0.0071097161	-0.1326861911	-2.4688972624	-0.272875
C	 0.9407761681	 0.4246823005	-3.3800085052	-0.11923
C	 2.2456251204	 0.4156026676	-2.6359128766	-0.095266
C	 2.0799466654	-0.158971556	-1.4500475243	-0.116566
H	 0.7840315193	 1.9390725559	-0.1898537609	 0.234815
H	-0.6439064725	 1.795979756	-0.9627246396	 0.247347
H	 0.5382053008	-0.1740294273	 0.8404738485	 0.128685
H	 0.5410780477	-1.6648234415	-1.1788134605	 0.103751
H	 0.9843319548	-0.1847104417	-4.2961203529	 0.118988
H	 0.6199740293	 1.4340136468	-3.6754432302	 0.114084
H	 3.1679501171	 0.8014061137	-3.0510554019	 0.119207
H	 2.8384155926	-0.339360803	-0.6986604042	 0.116218
