20
gdb 1340	4.77351	1.65895	1.51298	1.0894	72.35	-0.219	0.0873	0.3063	934.0888	0.181313	-291.024232	-291.015563	-291.014619	-291.056693	31.966	
C	-0.1300502096	 1.5655049519	-0.2638226762	-0.371071
C	 0.0161475355	 0.1242114396	 0.2205971655	-0.113395
N	-1.270971597	-0.5586629505	 0.1516583588	-0.10565
C	-1.5899053449	-1.2989580627	-1.0673625807	-0.29312
C	-1.363252519	-2.0222523287	 0.2209466659	 0.341684
C	-0.1221715789	-2.8833248546	 0.3768460635	-0.454731
C	-2.5591724064	-2.519490404	 1.0107664359	-0.434052
H	 0.8203785119	 2.1018223186	-0.1791936299	 0.10733
H	-0.4424272675	 1.5931391694	-1.3130186814	 0.116735
H	-0.8848925426	 2.0933591184	 0.3255237714	 0.124784
H	 0.8037682227	-0.3769494223	-0.3662203595	 0.079278
H	 0.3448977485	 0.1160488853	 1.2671247037	 0.099344
H	-2.593701378	-1.1648292101	-1.4647507164	 0.105268
H	-0.8126025441	-1.3826783121	-1.827757491	 0.097852
H	 0.7070408414	-2.5504516786	-0.2503244322	 0.11822
H	 0.2196130828	-2.8913966698	 1.418757022	 0.117799
H	-0.349379768	-3.9186007383	 0.1004639901	 0.119301
H	-2.8598480527	-3.5201695542	 0.6794684495	 0.109048
H	-2.322304917	-2.5786193148	 2.0796495606	 0.112525
H	-3.4067139869	-1.8407638224	 0.8910781604	 0.122851
