18
gdb 70489	3.33306	1.01472	0.90805	2.1131	75.24	-0.2542	0.0243	0.2786	1323.0641	0.146574	-439.045621	-439.036833	-439.035889	-439.080029	32.433	
O	 0.0143380169	 1.3983753592	 0.061652508	-0.461689
C	 0.0220337088	 0.017148695	 0.050778322	 0.374635
C	-0.3129174147	-0.7930144096	-1.1701455667	-0.338978
C	-1.1720418908	-0.9394763473	 0.062855896	-0.106995
C	-0.4522041482	-1.8596272232	 1.0550330696	-0.268048
C	 0.7185660002	-0.821558496	 1.1081093508	 0.051795
O	 2.0240822653	-1.2643816884	 0.7571714861	-0.197211
C	 2.8850912817	-1.5326763492	 1.7566661914	 0.123411
N	 4.0171708769	-2.0302229082	 1.5032140913	-0.443883
H	 0.6926300162	 1.7106228861	-0.5473901524	 0.292995
H	-0.7577230282	-0.2005499956	-1.9633436316	 0.117667
H	 0.325055307	-1.6066869061	-1.5049274683	 0.125889
H	-2.2266286141	-0.6990487363	 0.0653962587	 0.101742
H	-0.9541069747	-1.9814361046	 2.0170060863	 0.108855
H	-0.1701544088	-2.841636025	 0.6650304339	 0.114455
H	 0.7446431214	-0.2922385122	 2.067128609	 0.094056
H	 2.4982795795	-1.2646799414	 2.7504962772	 0.083482
H	 4.5444598857	-2.1460405271	 2.3661348487	 0.227823
