18
gdb 133884	3.52845	2.15131	1.86582	1.9576	77.4	-0.2122	0.0881	0.3003	803.1904	0.152222	-364.720374	-364.714974	-364.71403	-364.74965	24.796	
C	-1.4356329845	 1.3632549748	 0.3109822505	-0.276248
N	-1.5711001245	 0.0479323894	-0.4917260419	-0.189456
C	-0.7508495778	-0.602181612	 0.6659322881	 0.010043
C	 0.3269783865	-1.5541946201	 0.205660736	-0.09719
C	 1.6298648183	-0.7472361702	 0.2352616838	-0.064218
C	 1.4159466411	 0.6207733578	 0.9391218822	-0.367733
C	-0.0270756502	 0.7470325871	 0.4785062501	 0.255121
C	-0.1319009621	 0.3569828439	-1.0101961376	 0.010045
C	 0.7877559006	-0.840138012	-1.0421517176	-0.097191
H	-2.0897361482	 1.4068204728	 1.185940245	 0.101844
H	-1.5389938925	 2.260261561	-0.3054563045	 0.101845
H	-1.3267847124	-0.8142717778	 1.5672992102	 0.067157
H	 0.2996235311	-2.6302182602	 0.3055596003	 0.090746
H	 2.582409188	-1.2601381761	 0.2934990652	 0.087616
H	 2.0875373572	 1.3914887643	 0.5486871262	 0.104858
H	 1.5429179552	 0.5474869607	 2.0235500248	 0.104858
H	-0.0845308059	 1.1108067249	-1.7967407801	 0.067157
H	 1.1265498803	-1.3487328984	-1.9338383806	 0.090746
