22
gdb 60596	3.68204	0.97509	0.90107	1.6806	81.94	-0.2393	0.049	0.2883	1391.9032	0.194925	-404.303423	-404.294158	-404.293214	-404.337961	34.896	
O	-0.4320743825	 1.270744908	-0.1117665428	-0.434024
C	-0.0728204664	-0.1073212242	-0.0428743021	 0.050863
C	 0.7029981118	-0.5389713114	-1.2857243182	 0.020203
C	 0.3654345281	 0.0111540647	-2.6163884684	-0.250341
N	 1.6349125536	 0.3829602132	-1.954558278	-0.322515
C	 0.6727058223	-0.4616441605	 1.2434271708	 0.033872
C	 1.9727224363	 0.3006280021	 1.6432297066	-0.239903
C	 1.5052521029	 0.226692533	 3.122011569	-0.207615
C	 0.0657273695	-0.0605915935	 2.6164733431	-0.246932
H	 0.2668239064	 1.7848785482	 0.3052208458	 0.282702
H	-1.0284074411	-0.650836729	-0.0380206112	 0.091666
H	 1.0717153681	-1.5622808903	-1.2325395938	 0.085345
H	 0.4741556686	-0.6032866137	-3.5053886757	 0.112452
H	-0.4191458647	 0.7605505023	-2.6581233074	 0.123052
H	 1.5064796296	 1.3117500181	-1.557186911	 0.21486
H	 0.8791109972	-1.5374882762	 1.2272332252	 0.07891
H	 2.9289271401	-0.1511319025	 1.3726213623	 0.112072
H	 1.9835220512	 1.3376206781	 1.2847622476	 0.08406
H	 1.9347535381	-0.6386097027	 3.6345850274	 0.106547
H	 1.6581660935	 1.1097018188	 3.7465889314	 0.09883
H	-0.5245199797	 0.856357876	 2.5276010776	 0.107785
H	-0.5284376929	-0.8077670184	 3.1479269819	 0.098111
