22
gdb 65264	3.25484	1.12729	1.09583	1.3795	81.7	-0.2391	0.0737	0.3128	1249.5998	0.195597	-404.333493	-404.324575	-404.323631	-404.367567	34.023	
C	-0.1442954371	 1.5207476499	-0.2811075705	-0.481622
C	-0.0161882902	 0.0222040465	-0.1102454067	 0.316925
C	 1.2509241783	-0.6378488331	-0.5142696188	-0.282188
N	 0.8978788463	-0.5165510833	 0.9148105565	-0.357337
C	-1.3060017826	-0.7765484438	-0.2052552952	 0.11622
C	-2.3715144334	-0.443492281	 0.8779533765	-0.25797
C	-3.5476863449	 0.1438862356	 0.0746407705	-0.2124
C	-3.3262808647	-0.4844653128	-1.3035046689	-0.067855
O	-1.9170176789	-0.5080273496	-1.4719605908	-0.271489
H	 0.8373744424	 2.0039251979	-0.2455803686	 0.10798
H	-0.6091579119	 1.7531468822	-1.242739149	 0.140254
H	-0.7637538046	 1.9633610013	 0.507692657	 0.117035
H	 1.238904387	-1.6525217208	-0.9031244094	 0.117285
H	 2.0479977617	-0.0130858772	-0.9088959583	 0.107485
H	 1.4278404788	 0.2431977348	 1.3351473799	 0.225504
H	-1.0423693487	-1.8412030097	-0.1430301945	 0.069785
H	-2.6725680078	-1.3576237917	 1.3962387174	 0.107272
H	-1.9870969215	 0.2423792549	 1.6356009789	 0.108855
H	-4.5242145435	-0.0950396145	 0.5033063418	 0.099112
H	-3.4665589324	 1.2330875593	 0.0019073925	 0.105553
H	-3.7417921892	-1.5057168715	-1.338437069	 0.086351
H	-3.754275423	 0.0868728764	-2.1320521015	 0.105242
