17
gdb 88401	2.65979	1.21953	0.98951	4.5837	73.86	-0.2602	-0.0452	0.2149	1224.4633	0.13336	-417.987209	-417.977787	-417.976843	-418.02229	32.985	
C	 0.5953361669	 1.4417403536	-0.632038689	-0.435068
C	-0.0125087684	 0.1548995312	-0.122839038	 0.030727
C	 0.8241083925	-1.0272828615	 0.2369562868	-0.265412
N	 0.1001894736	-0.2898916126	 1.2721997267	-0.112439
C	 0.8019530695	 0.4832373438	 2.2909613464	-0.201616
C	 0.5508008255	-0.2183954262	 3.6469773995	 0.170589
O	 1.3528301515	-0.3111023838	 4.529771142	-0.215592
C	 2.2375658638	 0.7259373279	 2.0870538836	 0.303536
N	 3.3631255899	 0.8831877791	 1.8776871657	-0.332298
H	 1.624643687	 1.5821449051	-0.2967653749	 0.154961
H	 0.5969961973	 1.4354090904	-1.7267591749	 0.134202
H	 0.0047610157	 2.3083975466	-0.3135810104	 0.125489
H	-1.0065826675	-0.0467700834	-0.5199075467	 0.103287
H	 0.4735411474	-2.0396167266	 0.057029618	 0.126355
H	 1.9031296965	-0.8989729008	 0.1829904246	 0.146045
H	 0.3014550965	 1.4599849015	 2.3771303202	 0.15476
H	-0.4785692879	-0.6270433443	 3.7028707004	 0.112474
