29
gdb 99764	1.44591	1.39778	0.89446	0.1313	99.1	-0.2866	0.0788	0.3654	1563.9323	0.273169	-354.769523	-354.757294	-354.75635	-354.806703	45.777	
C	 0.1293540613	 1.7689280909	 0.7568256324	-0.384706
C	 0.0991293251	 0.3240776771	 0.2430223358	-0.194497
C	-1.2861237873	-0.3629855614	 0.3692153369	 0.05109
C	-2.2108047945	 0.1781157458	-0.7708418514	 0.043963
C	-2.0100426299	-0.5181217597	-2.1280389957	-0.39807
C	-3.7009367922	 0.2650230979	-0.3996671256	-0.409125
C	-1.1544212341	-1.9109093555	 0.4764138603	 0.027739
C	-0.338568344	-2.3313442294	 1.7147990657	-0.396147
C	-2.5009772053	-2.653199996	 0.5406953672	-0.397093
H	 1.1202272494	 2.2134612843	 0.6182089057	 0.109673
H	-0.5904528751	 2.4117678764	 0.2397261102	 0.117231
H	-0.1052455472	 1.8078659681	 1.8265421125	 0.112893
H	 0.414958754	 0.3026481207	-0.8081640553	 0.093032
H	 0.8589534266	-0.239733745	 0.7890437366	 0.091334
H	-1.7274738023	-0.0260566284	 1.3203043347	 0.057478
H	-1.8955684926	 1.2184918963	-0.9213465491	 0.073249
H	-2.3881633549	-1.5447995199	-2.1321130031	 0.116777
H	-2.5438179867	 0.0263702108	-2.914268752	 0.10774
H	-0.9543833523	-0.5542623266	-2.4161442436	 0.11289
H	-3.8391241375	 0.8096037016	 0.5406462341	 0.107374
H	-4.2538465075	 0.8035510356	-1.1776751532	 0.105087
H	-4.1710420413	-0.7143457884	-0.286354215	 0.11622
H	-0.6176207725	-2.2672189697	-0.4144417338	 0.07041
H	-0.8125353072	-1.9627554921	 2.6330588288	 0.110377
H	-0.2924491988	-3.423010494	 1.7863045444	 0.10743
H	 0.6905963886	-1.9667412772	 1.7033991011	 0.114937
H	-3.0967048267	-2.5414637238	-0.3661017968	 0.11667
H	-2.3320353263	-3.725444512	 0.6874766654	 0.105513
H	-3.1043638388	-2.2994482067	 1.3851513726	 0.110529
