14
gdb 10456	3.08388	1.64671	1.2149	3.6268	64.88	-0.2832	-0.0029	0.2803	976.2508	0.105998	-378.708452	-378.700557	-378.699613	-378.74141	27.737	
N	-0.1925550206	 1.2800141271	 0.0722028058	-0.424933
C	-0.1078041754	 0.0295008747	 0.1683699843	 0.115114
O	-1.1275809501	-0.738805854	-0.3117592271	-0.219879
C	-1.0161548973	-2.1217450804	-0.1008553398	 0.274782
C	-1.400613565	-2.6743899633	 1.2609596963	-0.311313
C	-2.329391128	-2.8356004843	 0.0900122078	-0.303707
C	 0.0367768215	-2.7726396471	-0.8484869508	 0.247089
N	 0.889374635	-3.2889659923	-1.4349745638	-0.334605
H	 0.6397956851	 1.7202515805	 0.4588859555	 0.239952
H	 0.713820442	-0.5541097351	 0.5992140243	 0.112854
H	-0.8615616073	-3.5401524322	 1.6264930356	 0.148982
H	-1.6521641962	-1.9300402123	 2.0074377331	 0.148525
H	-3.201820227	-2.1952227852	 0.0404109192	 0.156532
H	-2.439131857	-3.813703096	-0.3614037604	 0.150606
