16
gdb 126345	2.88704	1.39649	1.01041	2.4955	74.22	-0.2511	-0.0676	0.1835	1153.4636	0.124243	-437.886565	-437.878501	-437.877557	-437.919598	29.639	
C	 0.0354050352	 1.5693982055	-0.0585413474	-0.379622
C	-0.0668106195	 0.0388502451	 0.0620746008	-0.284779
C	 0.680076522	-0.5053666771	 1.2482233107	 0.084847
C	 0.0620607582	-1.0282200748	 2.3286082845	 0.040321
O	 0.6650834006	-1.5250635128	 3.4244621196	-0.227758
N	 2.047370483	-1.5371497752	 3.5181915559	-0.052126
C	 2.6953330258	-1.0594581243	 2.5148408743	-0.037545
C	 2.1358710791	-0.492026021	 1.2703713285	 0.296326
O	 2.8561861767	-0.0707978091	 0.3763849167	-0.363231
H	 1.0799350147	 1.8741071754	-0.1518253362	 0.152602
H	-0.5051972771	 1.917622779	-0.9434182558	 0.118683
H	-0.3939550743	 2.0632856536	 0.8188641693	 0.114812
H	-1.1176825899	-0.2661976676	 0.1196671147	 0.101739
H	 0.354646151	-0.4156668108	-0.8417559642	 0.131063
H	-1.0154572354	-1.1091122019	 2.434008459	 0.148587
H	 3.7768470598	-1.0882100541	 2.6205562597	 0.156081
