16
gdb 10158	2.70924	1.26559	0.90421	1.1384	67.96	-0.2551	-0.0346	0.2205	1225.6763	0.126731	-383.704057	-383.694575	-383.69363	-383.739323	32.294	
O	-0.0466187639	 1.4143396882	 0.0326386654	-0.421132
C	 0.0429435539	 0.0014380593	-0.0420205145	-0.087704
C	-1.3802997091	-0.5400526203	 0.0437730914	-0.188829
C	-1.4429936239	-2.088870217	-0.0302812659	-0.257223
C	-0.8162890299	-2.6862883365	 1.235192629	 0.1697
O	 0.2690508801	-3.1991036053	 1.2735279234	-0.244877
C	-2.8156169314	-2.5646949061	-0.1516893442	 0.286722
C	-3.9479124948	-2.9648578185	-0.2025229468	-0.422957
H	 0.8448124009	 1.7743065441	 0.0114679892	 0.289806
H	 0.5048463599	-0.3241127973	-0.9884245095	 0.093706
H	 0.6583442328	-0.406650268	 0.7739383997	 0.105604
H	-1.8452800612	-0.1952168164	 0.9742922999	 0.122866
H	-1.9730883833	-0.1251721501	-0.7763650708	 0.130631
H	-0.8424953373	-2.4388180444	-0.8784143382	 0.12528
H	-1.453516014	-2.583243078	 2.1413097754	 0.094979
H	-4.9466783487	-3.3198953038	-0.2696566135	 0.203427
