17
gdb 72775	2.79427	1.81221	1.50273	1.6919	72.68	-0.2204	0.0062	0.2265	923.8847	0.137837	-417.956933	-417.949806	-417.948862	-417.988002	29.158	
O	-0.204745448	 1.4749673833	-0.2783414365	-0.478074
C	-0.066576816	 0.0770895934	-0.1336154744	 0.367755
C	-1.2435328386	-0.4348745357	 0.7698119484	-0.234421
N	-0.2719179004	-0.4777830695	 1.9260305801	-0.352971
C	 0.7761451373	-0.4399202691	 1.0129105925	 0.269891
N	 1.8873401123	-1.0246013241	 0.7900257749	-0.295121
C	 1.9923622292	-1.0505018127	-0.6670447836	-0.010023
C	 1.03231419	-2.0265771193	-1.2927451303	-0.291311
C	 0.6531046769	-0.5643454254	-1.2984046056	-0.170476
H	 0.6667691823	 1.8356776596	-0.4779768003	 0.28561
H	-2.0575597974	 0.2777751851	 0.9070540319	 0.130513
H	-1.6179893185	-1.4232078741	 0.4880573997	 0.117297
H	-0.3122916713	-1.2183160015	 2.6166953728	 0.243537
H	 2.9649532175	-0.874002836	-1.1113862357	 0.092998
H	 1.2888731888	-2.448269108	-2.2595981329	 0.116698
H	 0.5239083906	-2.7157894549	-0.6250543723	 0.11398
H	 0.6254920853	-0.045102071	-2.2489993587	 0.094116
