14
gdb 66541	3.2457	1.56563	1.23765	4.5184	66.55	-0.225	-0.042	0.183	968.4461	0.09879	-436.55356	-436.546213	-436.545269	-436.585563	27.705	
O	 0.2151930691	 1.3807004066	 0.2072215241	-0.439191
C	 0.0762817855	 0.0347945082	 0.05416922	 0.312249
C	 0.8912296251	-0.9861136591	-0.7640092195	-0.215909
C	 0.8211856892	-1.0561111922	 0.7532233541	-0.058054
N	-0.3725857524	-2.0110544661	 0.707242225	-0.17962
C	-0.3380020594	-1.9209180633	-0.7719377318	-0.078866
C	-1.1653652488	-0.9147591733	-0.0140533594	 0.165333
C	-2.6283712779	-0.8103648828	 0.0963247965	 0.022609
O	-3.3706169383	-1.7605902217	 0.0164294823	-0.258109
H	 0.0615662004	 1.8139955299	-0.6410738351	 0.299418
H	 1.7287832601	-0.8357077785	-1.4291561123	 0.110973
H	 1.5770530331	-1.053122562	 1.5266946657	 0.120376
H	-0.6897251468	-2.7172476776	-1.4173544239	 0.121184
H	-3.0154526889	 0.2218467118	 0.2424342143	 0.077606
