18
gdb 76981	2.57112	1.33692	1.16573	3.8322	74.98	-0.2387	-0.0273	0.2113	1136.4324	0.146015	-439.036284	-439.027604	-439.02666	-439.070075	32.166	
O	 0.3624600283	 1.3244618506	 0.9911806125	-0.416387
C	 0.2182578232	 0.0645445369	 0.4659348056	 0.116358
C	-0.6646214114	-0.9865024705	 1.2002379099	-0.239421
C	-1.3234140372	-0.5548419231	 2.4406275607	 0.161457
O	-1.620773682	 0.5924691433	 2.7153607495	-0.293429
C	-1.0476704213	-0.3814480103	-0.1750121692	-0.02122
N	-2.1306237086	 0.5427487412	-0.2321663718	-0.048264
C	-2.4926829923	 1.0401472809	-1.5555364714	-0.218961
C	-3.3761790473	 0.0813371701	-0.8332806135	-0.223493
H	-0.4517186868	 1.5241489842	 1.4882099011	 0.314265
H	 1.1548820229	-0.3089850221	 0.0637470991	 0.117714
H	-0.3467917569	-2.0233890083	 1.1836346094	 0.09876
H	-1.5187560184	-1.3674849995	 3.1718872694	 0.088705
H	-0.9625260564	-1.1042922886	-0.9927720154	 0.083725
H	-2.7427999822	 2.0953927898	-1.6069739064	 0.127546
H	-1.9394598315	 0.6587896288	-2.4120728905	 0.113997
H	-3.4140388917	-0.9400370169	-1.2088394468	 0.111773
H	-4.2853803605	 0.4241595735	-0.348414732	 0.126876
