19
gdb 53565	4.54692	0.74181	0.71185	1.9068	84.3	-0.233	0.0577	0.2907	1649.5995	0.15796	-385.791353	-385.782299	-385.781354	-385.827272	32.611	
C	-0.0568228009	 1.438950965	 0.2044361672	-0.49604
C	-0.014007019	-0.014456007	 0.2842521156	 0.064205
C	 0.0321471784	-1.2156011195	 0.3550248432	 0.06786
C	 0.048797638	-2.6743574874	 0.4276614152	-0.411289
C	-1.3232036298	-3.2795507839	 0.1155065249	 0.058322
C	-1.9084014557	-3.3670900245	-1.3214803339	 0.051237
C	-0.9301636811	-4.5109042866	-1.6813473325	-0.231158
C	-1.5291615384	-4.7714474779	-0.277698223	 0.019513
O	-2.8557310314	-4.392019831	-0.8169147038	-0.310057
H	 0.4673912815	 1.8059621745	-0.6849722087	 0.146404
H	-1.0884394193	 1.804693652	 0.1539249226	 0.147765
H	 0.4141612148	 1.9003920709	 1.0795182062	 0.147373
H	 0.8185962258	-3.067533505	-0.245687557	 0.125845
H	 0.3453276605	-2.9897455978	 1.437371436	 0.129908
H	-2.0756994201	-2.941554742	 0.83137075	 0.093108
H	-2.3132592208	-2.5748083564	-1.9509207709	 0.096315
H	-1.2898437967	-5.1863379796	-2.4580376268	 0.110478
H	 0.1351851574	-4.2929137753	-1.7783269166	 0.097822
H	-1.4786155132	-5.6662308984	 0.3441417223	 0.092388
