14
gdb 128978	4.02614	1.68103	1.18589	5.7491	81.73	-0.1934	-0.0672	0.1263	949.2347	0.105721	-395.756403	-395.750448	-395.749504	-395.786547	24.348	
N	-0.0031733259	 1.2722878237	 0.009378149	-0.212623
C	 1.1139503567	 2.0691547048	 0.0024569773	 0.005891
C	 2.3635218147	 1.5126937933	-0.0127980866	-0.271392
C	 2.4470976177	 0.1079219023	-0.0209143783	 0.267477
C	 3.4033377182	-0.8799999012	-0.0354825839	-0.192284
N	 2.8269428857	-2.1370982864	-0.0363365445	-0.225128
C	 1.5101279593	-2.0042635981	-0.0226505222	-0.123909
C	 1.157099561	-0.6235163339	-0.0119442837	 0.274736
N	-0.0262566253	-0.0556155323	 0.0027130313	-0.278161
H	-0.9191534582	 1.69447249	 0.0206327569	 0.284884
H	 0.9163316327	 3.1322490717	 0.0099341042	 0.137507
H	 3.2365001045	 2.1549952824	-0.0180937659	 0.122705
H	 4.479118136	-0.7764025136	-0.0455707093	 0.099344
H	 0.8384518929	-2.8515477427	-0.0204330544	 0.110951
