14
gdb 20417	6.27731	1.51682	1.29687	5.1698	64.18	-0.2281	0.0062	0.2343	899.4067	0.10961	-374.862572	-374.856069	-374.855125	-374.893822	23.914	
C	 0.5969268714	 1.6276531368	 0.1665860091	-0.220739
C	 0.8506168106	 0.3765194483	-0.5973542091	-0.234253
N	-0.330990894	 0.5068527384	 0.2720759482	-0.167043
C	-0.3745578305	-0.2028862144	 1.4685606477	 0.37019
C	-0.2184887844	 0.1354660457	 2.7964109812	-0.139098
N	-0.4661797158	-0.9677654668	 3.5591556271	-0.181691
N	-0.7647497365	-1.9707154397	 2.7907601376	-0.119662
N	-0.7161074538	-1.5149037769	 1.5153863871	-0.242968
H	 1.2442979771	 1.8277303809	 1.016339665	 0.135962
H	 0.2014045723	 2.5057881078	-0.3334009163	 0.134172
H	 0.6335916975	 0.3265224635	-1.6593308434	 0.133214
H	 1.6583062619	-0.2634159642	-0.2518431327	 0.134986
H	 0.0357917745	 1.0866239837	 3.2333381711	 0.117638
H	-0.9434442502	-2.1297334731	 0.7505203774	 0.279293
