16
gdb 9229	3.95997	1.19905	1.0768	3.6273	67.57	-0.2692	0.005	0.2743	1124.0881	0.128706	-379.937828	-379.92873	-379.927786	-379.972353	30.838	
C	 0.1390408317	 1.3099081141	-0.3110813599	-0.229321
O	-0.060018203	-0.0448285507	 0.1032064217	-0.231394
C	-1.3300660752	-0.4688546194	 0.1951188018	 0.427873
C	-1.3952174526	-1.8995249618	 0.6632036915	-0.503519
N	-2.2891857219	 0.3179949431	-0.0957841531	-0.305423
C	-3.6535967223	-0.1755266268	 0.0120932468	-0.292139
C	-4.110131623	-0.3150825051	 1.404749874	 0.270058
N	-4.4452669166	-0.4313939442	 2.5047983753	-0.316566
H	 1.2191236494	 1.4596009379	-0.308123124	 0.130752
H	-0.2706950151	 1.472611128	-1.3113733161	 0.136949
H	-0.3501226959	 2.000504729	 0.3804936362	 0.142544
H	-0.3913334464	-2.310743816	 0.763323474	 0.149715
H	-1.9079231444	-1.9588816313	 1.6280293707	 0.174929
H	-1.9615456637	-2.5110508055	-0.0466812367	 0.144969
H	-4.3186793147	 0.537514055	-0.4858786119	 0.158005
H	-3.8057095564	-1.1449260865	-0.4862930503	 0.142569
