14
gdb 28927	2.42748	1.86862	1.05585	1.3441	67.48	-0.218	0.0004	0.2184	1035.0339	0.102384	-473.897259	-473.889725	-473.88878	-473.928886	29.382	
O	 0.1669878453	 1.3159821096	 0.1767855115	-0.447982
C	 0.1128231782	-0.0387601498	 0.0590525476	 0.33191
N	 0.0410776037	-0.5777914846	-1.1446053198	-0.377039
C	-0.0098603273	-1.9177300834	-1.2098950444	-0.015845
C	 0.0088090359	-2.7444327389	-0.0988569927	-0.225007
C	 0.0851455012	-2.1527610905	 1.1654951892	 0.347101
O	 0.1064249617	-2.9129158125	 2.2826435192	-0.435719
C	 0.1386229093	-0.7644903627	 1.2484017457	 0.146453
O	 0.2134349321	-0.1868804824	 2.4873094084	-0.474898
H	 0.1401520561	 1.66677737	-0.7234085878	 0.302697
H	-0.0686158653	-2.3428991996	-2.2072107706	 0.110974
H	-0.0338204342	-3.822543201	-0.1878043034	 0.108048
H	 0.1611825324	-2.3198247189	 3.0437655119	 0.31421
H	 0.2426155109	 0.7698711247	 2.3692313552	 0.315098
