21
gdb 96562	2.34707	1.4195	1.03437	2.2625	74.27	-0.2469	0.06	0.3069	1203.0638	0.183701	-461.35819	-461.349259	-461.348315	-461.391652	34.695	
O	-0.0113522865	 1.4864787646	-0.0369440868	-0.449171
C	 0.028779807	 0.0699590796	-0.0059790659	 0.137395
C	 0.9369098516	-0.4507061186	 1.121421908	-0.234506
C	 1.5334734235	-1.8338731993	 0.8467399081	-0.081471
O	 0.6148173	-2.9094377841	 0.8845419473	-0.2396
C	-0.391927139	-2.8912264195	-0.108698742	-0.079931
C	-1.576692887	-1.9848112259	 0.2593575484	-0.235987
C	-1.4154340621	-0.4647312462	 0.0426209628	 0.076891
O	-2.045393942	 0.2611748232	 1.1097910287	-0.443595
H	-0.7040890873	 1.7356121949	 0.589349978	 0.28525
H	 0.4668190117	-0.2352885667	-0.9653319698	 0.076901
H	 1.7661749788	 0.2601108009	 1.2102716785	 0.107643
H	 0.4033534614	-0.4507012143	 2.0785328778	 0.111428
H	 2.0507865394	-1.8172602463	-0.1290986228	 0.084321
H	 2.281169805	-2.0716787282	 1.6096162021	 0.107798
H	 0.0316736747	-2.6288127598	-1.0917993251	 0.089618
H	-0.7521615314	-3.9229896717	-0.1782822925	 0.106799
H	-2.4622180238	-2.3293202675	-0.2891220591	 0.092158
H	-1.777780105	-2.148611391	 1.3232972159	 0.122077
H	-1.8825965286	-0.1718645825	-0.9082474077	 0.075298
H	-2.9981285105	 0.1656431884	 1.0249084662	 0.290683
