19
gdb 87723	2.41938	1.39662	1.21198	1.5685	71.54	-0.2368	0.0575	0.2943	1126.1478	0.157061	-460.120759	-460.111585	-460.110641	-460.154665	34.805	
C	 0.6642065221	 1.3240715711	-0.2569327392	-0.410393
C	 0.0133879207	-0.0174335415	 0.0099358535	 0.106564
O	 0.5828128865	-1.0920831627	-0.805222471	-0.335449
C	 1.1607853451	-1.7017093972	 0.3548892443	 0.357055
C	 1.5617845038	-3.1408975137	 0.3468510498	-0.3995
C	 2.6193620711	-2.0468480649	 0.2640590019	 0.053992
O	 3.2496443233	-1.7672539954	-0.9442472844	-0.435122
C	 0.4350797862	-0.7679021666	 1.3129874543	-0.024931
O	 1.1737808729	-0.1021860807	 2.2981810415	-0.421037
H	 1.7521906249	 1.2711654312	-0.1445640187	 0.115635
H	 0.4491754841	 1.6518905411	-1.2780543551	 0.132272
H	 0.2805128488	 2.077851701	 0.4376280628	 0.134076
H	-1.06818012	 0.0318236209	-0.1538488585	 0.088869
H	 1.475756581	-3.705610279	 1.270136557	 0.121813
H	 1.3569006615	-3.6960820997	-0.563077338	 0.129169
H	 3.2648463391	-1.900746824	 1.1271252767	 0.10216
H	 2.5908414351	-1.3064236416	-1.4862193539	 0.291914
H	-0.412950674	-1.2267109221	 1.8265115324	 0.10619
H	 2.0122501277	 0.1733847538	 1.9113933447	 0.286723
