20
gdb 26102	3.15246	1.18139	1.045	3.2912	81.16	-0.2064	0.0417	0.2481	1229.2106	0.170571	-403.190776	-403.18148	-403.180535	-403.22469	35.973	
C	 0.0242282394	 1.5720997215	 0.095262453	-0.418279
C	 0.0061835036	 0.0386622178	-0.0033539127	 0.250406
C	 0.6171230656	-0.583497768	 1.2601447989	-0.385533
O	-1.355977857	-0.421972798	-0.0111171097	-0.461066
C	 0.7113479294	-0.4557328833	-1.2468082915	 0.246348
C	 1.6231342189	 0.2148878353	-2.0348884989	-0.201299
N	 2.0096242035	-0.6249128582	-3.0488858861	-0.246875
C	 1.3552251941	-1.8247469957	-2.9328884166	-0.072822
C	 0.5455969627	-1.7523928685	-1.825931149	-0.253188
H	 1.0438554661	 1.9586324188	 0.1947107716	 0.109179
H	-0.425156618	 2.0246562309	-0.7948076029	 0.103678
H	-0.5499337755	 1.8881331818	 0.9703327896	 0.116801
H	 0.049127643	-0.2736814253	 2.1429365098	 0.112704
H	 0.5884522802	-1.6737698918	 1.1946497606	 0.120501
H	 1.6576613955	-0.2698351617	 1.3790344176	 0.109511
H	-1.7208374468	-0.2083998543	-0.8767224338	 0.272126
H	 2.0295247421	 1.2100757923	-1.9581988363	 0.116805
H	 2.6608647498	-0.3880968948	-3.776226175	 0.259791
H	 1.517631041	-2.6179882577	-3.6448914124	 0.118307
H	-0.1092905776	-2.5278083012	-1.4604881264	 0.102904
