19
gdb 110496	5.08984	1.14559	1.09342	1.0352	80.15	-0.2179	0.0077	0.2256	1162.0837	0.160072	-385.819726	-385.812298	-385.811354	-385.851676	29.564	
C	 0.0204870207	 1.2920839282	-0.2457460558	-0.240947
O	-0.060264302	 0.0336875429	 0.3850735211	-0.255758
C	-1.3068002714	-0.5881439117	 0.2240851869	 0.154714
C	-1.5860514861	-1.3989317068	-1.0679755898	-0.094436
C	-0.5707308248	-2.5071878998	-0.5834558798	-0.053332
C	-1.1562571733	-3.8467253805	-1.001626717	-0.113201
C	-2.4654497029	-3.7039017966	-0.788769673	-0.106256
C	-2.5983994153	-2.2858971473	-0.2529315911	-0.069705
C	-1.3682384893	-2.0448407205	 0.6995030232	-0.092726
H	 1.0088981278	 1.7035602021	-0.027458725	 0.126148
H	-0.0991817107	 1.2162401649	-1.3369410895	 0.10615
H	-0.7444257397	 1.9868739816	 0.1355550336	 0.10379
H	-2.1179902198	 0.075965611	 0.5596849519	 0.056653
H	-1.7209584052	-1.0409747997	-2.0920817491	 0.066658
H	 0.4987139075	-2.3219936003	-0.6446772078	 0.076569
H	-0.6055431839	-4.6968331904	-1.3787886303	 0.10113
H	-3.2756696175	-4.402101913	-0.9444594659	 0.102549
H	-3.5785807403	-1.8885275401	 0.013960463	 0.060645
H	-1.2451069138	-2.4232483239	 1.7171525743	 0.071355
