17
gdb 110593	3.23328	1.35775	1.11733	3.2375	68.25	-0.2284	0.0747	0.303	1104.7149	0.13385	-458.847376	-458.839241	-458.838297	-458.88023	30.648	
C	 0.1642192454	 1.3511010469	 0.190687767	-0.237672
O	-0.2942010441	 0.0838222084	-0.2312094229	-0.263838
C	 0.4720533931	-0.479766573	-1.2634602771	 0.035992
C	 1.7385365178	-1.2812419206	-0.8888585529	-0.144119
C	 0.9139585235	-2.4981591348	-0.3713274571	 0.012829
O	 1.6188838994	-3.4735599751	-1.1929495385	-0.324492
C	 1.500899751	-2.3029134291	-2.0495768551	 0.028736
C	 0.0667074411	-1.9240695731	-1.5830467957	 0.338301
O	-1.0966423966	-2.3892878098	-2.1349269904	-0.462749
H	 1.1777420339	 1.3009083008	 0.6146076419	 0.110885
H	 0.1719125496	 2.0739916185	-0.6392844164	 0.109379
H	-0.5237245125	 1.7058610263	 0.9616476216	 0.130254
H	 0.5671081163	 0.2115034684	-2.1139826998	 0.070256
H	 2.7046498394	-0.9525801001	-0.5168215437	 0.093317
H	 0.6220269394	-2.7709974125	 0.6402251138	 0.103986
H	 1.9259168585	-2.3315218465	-3.0514452274	 0.101366
H	-1.8322404651	-2.0426096748	-1.6164342072	 0.297568
