16
gdb 116880	3.39031	0.59837	0.53141	3.1279	74.7	-0.2811	-0.0112	0.27	1983.3666	0.121728	-437.848097	-437.837707	-437.836763	-437.885774	34.845	
O	-0.0983948091	 1.4012574666	-0.087087951	-0.412996
C	-0.1679119314	 0.0271606521	-0.4182700809	-0.064391
C	-1.1560893095	-0.6093882902	 0.5674931826	-0.330271
C	-1.3346155328	-2.0358090669	 0.3408711688	 0.044868
C	-1.4610765926	-3.2156953289	 0.1384564713	 0.101715
C	-1.6492334778	-4.6441739835	-0.1222939988	-0.182994
O	-2.91590447	-4.9610710041	-0.6705754395	-0.383742
C	-0.5521335507	-5.1528144105	-0.9857562943	 0.280436
N	 0.2852144524	-5.5548117795	-1.6723001187	-0.319457
H	 0.5307570361	 1.824920791	-0.6780048917	 0.293312
H	-0.5252046218	-0.130040286	-1.446810377	 0.102066
H	 0.809660625	-0.4682816691	-0.3265634874	 0.10733
H	-0.7969925082	-0.430764736	 1.5879537722	 0.148723
H	-2.1185341658	-0.0907594987	 0.4820549161	 0.147992
H	-1.6018799149	-5.2016505997	 0.821418626	 0.168544
H	-3.0493277888	-4.4019269066	-1.4453173779	 0.298863
