23
gdb 119015	1.77244	1.21421	0.8326	0.5572	91.19	-0.2591	0.0529	0.312	1507.5943	0.203523	-351.118125	-351.107631	-351.106687	-351.154148	39.155	
C	-1.790883347	 1.5186176559	-1.3918961878	-0.379571
C	-1.7374827469	-0.0116556995	-1.3731199946	-0.168281
C	-1.5858345499	-0.5801189264	 0.045071342	-0.2553
C	-1.6156673664	-2.0987875086	 0.1289420473	 0.387749
C	-0.4757297579	-2.8328332286	-0.5827422871	-0.4388
C	 0.8479944506	-2.4879855126	-0.0700722536	 0.324426
C	 1.9308928117	-2.1905531867	 0.3593175972	-0.46208
C	-2.1360426618	-2.7253855359	 1.3978428518	-0.308074
C	-2.9602593609	-2.7862985935	 0.1323464475	-0.316472
H	-1.8971545601	 1.9023795817	-2.4113874798	 0.10998
H	-2.6374499462	 1.8928154315	-0.8051151349	 0.111679
H	-0.8787017413	 1.9515096687	-0.9665634521	 0.116379
H	-2.6479693162	-0.4187899567	-1.831626042	 0.094822
H	-0.9019871713	-0.3479379613	-1.9993219925	 0.100659
H	-0.6470288816	-0.2170131789	 0.4832914169	 0.109303
H	-2.3925127523	-0.1821707686	 0.6742764284	 0.086904
H	-0.6293624694	-3.9145969877	-0.483559522	 0.123363
H	-0.511082304	-2.6233573689	-1.6596654211	 0.13013
H	 2.8905993913	-1.9367016088	 0.735729882	 0.193832
H	-1.6682814897	-3.6396919417	 1.7478473187	 0.1121
H	-2.4671783081	-2.0661760636	 2.1932774696	 0.10996
H	-3.8480638151	-2.1655241962	 0.0698750705	 0.11005
H	-3.0570128875	-3.7432633039	-0.3702937245	 0.107244
