20
gdb 90682	4.09552	0.99024	0.8517	3.352	82.12	-0.2321	0.0118	0.2439	1404.7767	0.169147	-403.13865	-403.129286	-403.128342	-403.173377	34.181	
C	 0.0312442926	 1.5205327235	 0.0999670238	-0.409361
C	-0.0383892008	 0.0040457227	-0.0187406242	 0.007153
C	 1.0348740781	-0.6210127649	-0.9900455469	-0.261239
C	 1.6572355614	-1.3434723824	 0.2101655743	-0.052321
C	 0.6283910544	-0.7576829084	 1.1436206653	-0.034151
N	 0.607500364	-2.1678877452	 0.8088294128	-0.099828
C	 0.8332575929	-3.1586291054	 1.7639321619	 0.36064
C	 1.630609675	-4.3459884466	 1.2543563941	-0.474182
O	 0.369475336	-3.1016414845	 2.8823053804	-0.3402
H	 1.0495867328	 1.8542872171	 0.3303134314	 0.115065
H	-0.2739644383	 1.9993937258	-0.8361757332	 0.120219
H	-0.6275811711	 1.8854790204	 0.895239455	 0.121592
H	-1.0642893373	-0.3228383627	-0.2106592327	 0.086272
H	 0.6680360196	-1.2673561935	-1.7907327413	 0.108791
H	 1.6934515978	 0.1435614525	-1.4101277757	 0.106693
H	 2.7003214057	-1.5730270301	 0.3944119453	 0.105382
H	 0.7180014539	-0.4617356306	 2.1818683361	 0.116277
H	 2.6950619282	-4.1864426963	 1.4622326404	 0.140579
H	 1.3173142691	-5.2425377032	 1.7910428993	 0.148023
H	 1.5116547959	-4.4846508681	 0.1777892839	 0.134595
