19
gdb 66361	2.32899	1.45375	1.34737	1.9928	76.61	-0.2502	0.0556	0.3058	1087.3138	0.158828	-422.99235	-422.983682	-422.982738	-423.025167	33.487	
C	-0.0160966779	 1.5186469144	 0.0106483532	-0.430616
C	-0.034327041	-0.0218114664	 0.0025908852	 0.013191
C	 0.717842825	-0.5580136676	-1.2419784775	-0.094829
O	 0.8880579104	-1.9608521196	-1.1800212754	-0.232567
C	 1.5740356315	-2.3412635064	-0.0170944288	 0.017738
O	 0.8988342703	-1.9732054571	 1.1560688565	-0.232566
C	 0.7292686109	-0.5711090137	 1.2344266668	-0.094832
C	-1.4148635301	-0.5072070723	 0.0063988313	 0.378611
C	-2.5618715296	-0.8662011075	 0.0097502205	-0.508114
H	 1.0128197423	 1.8935318629	 0.0078846374	 0.116005
H	-0.5314621551	 1.915252409	-0.8685098221	 0.131783
H	-0.5233180162	 1.9059177671	 0.8986586699	 0.131784
H	 0.1630027902	-0.3437681577	-2.1581083738	 0.120737
H	 1.7000633654	-0.0573612878	-1.2983511796	 0.085711
H	 1.6387771632	-3.4305741138	-0.0231531262	 0.121582
H	 2.5881369142	-1.8936078911	-0.0194056341	 0.073309
H	 1.7119917435	-0.0710333083	 1.287019489	 0.085709
H	 0.1829175876	-0.3665896098	 2.1578522039	 0.120737
H	-3.5687034645	-1.2031668641	 0.012409434	 0.196625
