23
gdb 96140	2.46438	1.66912	1.25543	1.0724	84.92	-0.2451	0.0799	0.325	1115.606	0.208563	-388.292064	-388.284045	-388.283101	-388.323985	33.145	
C	-0.0646847067	 1.5252105965	-0.0326035577	-0.398268
C	-0.0062211575	 0.0016839483	 0.0176307145	 0.117089
O	 0.5889388001	-0.4008550103	-1.2129867317	-0.255339
C	 0.6581441774	-1.7982008295	-1.4355717862	-0.070713
C	 1.8629353187	-2.4775627359	-0.7669191063	-0.213134
C	 2.0385201744	-2.1635749413	 0.7242384212	 0.009973
C	 0.6973491395	-2.0357743415	 1.5022578268	-0.258318
C	 0.7524340727	-0.5000990599	 1.262237868	 0.003667
C	 2.2806911304	-0.6517508775	 1.0157999759	-0.224667
H	 0.9437146324	 1.9506373585	-0.006983751	 0.122822
H	-0.5486719423	 1.8525200517	-0.9563064602	 0.120773
H	-0.6280283076	 1.9188873557	 0.818325869	 0.110602
H	-1.0356631536	-0.3982846703	 0.0575404369	 0.060943
H	-0.28073002	-2.2758316869	-1.1139630572	 0.087643
H	 0.7272530574	-1.9295287155	-2.521073062	 0.100234
H	 1.747998778	-3.5610110925	-0.9072431109	 0.090947
H	 2.7781062561	-2.1871898357	-1.2983005696	 0.100255
H	 2.7768908763	-2.8478990706	 1.1519648095	 0.060001
H	-0.1734929753	-2.5860372542	 1.1319686585	 0.088729
H	 0.8250338285	-2.2725792891	 2.562241054	 0.093859
H	 0.451621637	 0.1140396764	 2.1163169545	 0.060661
H	 2.8566564982	-0.5036076637	 1.9331042379	 0.089243
H	 2.7180982658	-0.0530753627	 0.2135383561	 0.102998
