15
gdb 25854	4.199	1.07877	0.86288	4.9137	72.59	-0.2147	-0.0509	0.1638	1260.9751	0.112963	-454.034991	-454.026536	-454.025592	-454.06932	30.286	
C	-0.0196976334	 1.5233986842	 0.0943371795	-0.497252
C	-0.0221448547	 0.006838335	 0.035076614	 0.306781
O	-0.0394883769	-0.6849427662	 1.0397010348	-0.34291
C	-0.0027573469	-0.6263831394	-1.2789311197	 0.246766
C	 0.0183713364	-0.1237809095	-2.5448119783	-0.168142
N	 0.0296776606	-1.1888600066	-3.4120863095	-0.33391
C	 0.0159672715	-2.4162417846	-2.7200134744	 0.463851
O	 0.02098027	-3.5283899551	-3.1976139925	-0.416622
N	-0.0039151206	-2.0149278241	-1.399176536	-0.406355
H	 0.872292155	 1.9302763935	-0.3934740203	 0.140577
H	-0.8946017076	 1.9341078964	-0.4204670017	 0.140603
H	-0.035004883	 1.834673024	 1.1389936063	 0.149775
H	 0.0260478518	 0.8983610283	-2.8836177577	 0.155778
H	 0.0455242757	-1.1505920632	-4.4167217315	 0.277196
H	-0.0178965878	-2.6385153427	-0.609703943	 0.283864
