21
gdb 74448	2.69761	1.40389	1.16726	1.7104	84.89	-0.2328	0.0249	0.2578	1174.8283	0.182446	-387.09927	-387.090601	-387.089656	-387.132183	33.644	
C	-0.0640355133	 1.5348377034	 0.025126881	-0.488686
C	 0.0060636955	 0.0408858471	-0.0120796377	 0.324631
C	-0.1461472059	-0.7474398062	-1.0806223318	-0.241128
C	-0.0070259693	-2.2163335516	-0.7753718368	 0.253251
C	-1.1655510927	-3.0821465017	-1.2500645601	-0.478062
C	 1.4288921106	-2.7647462736	-0.9959621607	-0.107182
O	 1.7713009111	-2.5389082585	 0.3855771748	-0.297882
C	 0.4069057866	-2.2016933912	 0.7276732605	 0.0865
C	 0.263604057	-0.7679438103	 1.2466399682	-0.325659
H	 0.882107754	 1.9651051947	 0.377383376	 0.12881
H	-0.2837584669	 1.9559050429	-0.9596864407	 0.122462
H	-0.8382422553	 1.8768182812	 0.7241760755	 0.124081
H	-0.3440407735	-0.3867002085	-2.0861065199	 0.081976
H	-1.2443543691	-3.0660198423	-2.3434008826	 0.117096
H	-1.0362987434	-4.124828652	-0.9412290409	 0.116446
H	-2.1178518605	-2.7220068974	-0.8467389083	 0.119272
H	 1.4673868408	-3.8324587561	-1.2559061533	 0.087629
H	 2.0757566907	-2.2024510262	-1.6795368562	 0.097679
H	-0.0370464903	-2.9619756688	 1.3813804453	 0.063838
H	 1.1819081638	-0.4630113798	 1.7638852293	 0.116916
H	-0.5580362	-0.6604513653	 1.9688952484	 0.09801
