17
gdb 126032	2.99682	1.64262	1.114	0.4951	74.31	-0.2036	0.0205	0.2241	1065.2356	0.138833	-418.018471	-418.01092	-418.009976	-418.050582	28.938	
C	 0.0048353045	 1.5741751294	-0.006993039	-0.396864
C	 0.0149887963	 0.045773473	 0.0809738333	-0.14395
C	 0.7691379916	-0.636897106	-1.1144074906	-0.104287
O	 1.5480074278	-1.7624928996	-0.6118683254	-0.293853
C	 1.6240048813	-1.5641591344	 0.7295378244	 0.292911
C	 2.2802992406	-2.0852574854	 1.8161814498	-0.207567
N	 1.7937284339	-1.3506660822	 2.8749069101	-0.190834
N	 0.8898719512	-0.4055603594	 2.530509031	-0.332139
C	 0.7965717586	-0.5492740302	 1.2167725481	 0.273492
H	 1.02536993	 1.9692378377	-0.0332681767	 0.121075
H	-0.5191087552	 1.9144655447	-0.9066096228	 0.113387
H	-0.5005088243	 2.0045631548	 0.8618470158	 0.135216
H	-1.0226888012	-0.3126165379	 0.1118703374	 0.097463
H	 0.1002058764	-1.0225714494	-1.88629164	 0.118252
H	 1.4671997505	 0.0753261806	-1.5728156518	 0.110247
H	 3.0074351082	-2.8677298914	 1.9496569492	 0.134884
H	 2.0641789596	-1.4318029245	 3.8392945172	 0.272567
