21
gdb 113432	3.57341	0.90631	0.83156	2.3019	79.04	-0.2577	0.0655	0.3232	1467.1956	0.181047	-424.196423	-424.186959	-424.186014	-424.231255	35.408	
C	 0.5984170189	 1.3631112344	 0.0155041728	-0.391436
C	-0.0448506312	-0.0193718271	 0.0031555233	 0.028013
C	 0.6332673115	-1.0383253898	-0.9710894219	-0.332148
C	 1.2787552955	-1.6989147036	 0.2515368408	 0.460247
C	 0.3608627567	-0.9327288078	 1.2059861588	-0.332349
O	 1.5695011901	-3.0828048263	 0.3687747494	-0.305009
C	 2.6604158467	-2.1401538708	 0.4697308566	-0.080227
C	 3.680333681	-2.2536499483	-0.6337975769	-0.077652
O	 4.4390955917	-3.4450402094	-0.508821653	-0.418592
H	 1.6839593971	 1.2943723865	 0.1527138603	 0.114321
H	 0.4160142307	 1.8932533591	-0.9255017455	 0.116693
H	 0.1995870452	 1.9771233382	 0.8301376923	 0.117139
H	-1.1244427587	 0.0743205145	-0.1369590458	 0.075003
H	-0.0820023992	-1.7095843979	-1.4547065186	 0.113721
H	 1.2966438613	-0.6222097595	-1.7343219702	 0.104192
H	 0.8275306018	-0.4429648234	 2.0652931746	 0.10336
H	-0.4598825639	-1.5628225246	 1.5601809562	 0.11416
H	 3.0750692881	-2.0610685996	 1.476447361	 0.096426
H	 3.1753401618	-2.1985229722	-1.6094822903	 0.091862
H	 4.3946925006	-1.4247744936	-0.5754358881	 0.109317
H	 3.8041231642	-4.1702471188	-0.4840835559	 0.292961
