13
gdb 4094	3.63551	1.93228	1.29698	4.0812	58.85	-0.2576	-0.0592	0.1984	872.408	0.095927	-435.728225	-435.721243	-435.720298	-435.759784	25.207	
O	-0.062691445	 1.3104313322	-0.2045222824	-0.345875
N	 0.0184377433	-0.0636689165	-0.1414815725	-0.197937
C	-1.0992659284	-0.6441516946	 0.062510265	 0.229818
C	-1.2271152178	-2.1384918428	 0.1609402826	-0.316442
C	-2.729068921	-2.335306682	-0.1122087222	-0.086122
O	-3.3660583568	-1.0841801588	 0.2036058604	-0.227108
C	-2.4732739698	-0.0516197913	 0.2288010955	 0.408891
O	-2.8089940324	 1.0852775063	 0.3800355036	-0.321513
H	 0.8527076794	 1.5638394502	-0.3723670484	 0.317521
H	-0.5876034099	-2.6719715008	-0.5437911375	 0.139716
H	-0.9723111599	-2.4768049197	 1.1718585468	 0.139957
H	-2.9251539531	-2.5659214915	-1.16498466	 0.127464
H	-3.1886742387	-3.1067128906	 0.5078817889	 0.131628
