13
gdb 132888	3.0536	1.37223	0.94677	5.5089	65.68	-0.2058	-0.0408	0.1651	1108.3602	0.089516	-497.904759	-497.897407	-497.896463	-497.936514	28.156	
O	-0.0827599241	 1.4020307261	 0.0114426663	-0.442302
C	 0.0328871961	 0.0411867726	 0.0027685416	 0.315825
C	 1.2079367345	-0.6411682433	-0.0076323268	-0.114602
N	 1.1936929944	-2.0190676882	-0.0156967995	-0.368657
C	 0.0675529439	-2.8387918978	-0.0144374288	 0.343653
O	 0.1447394235	-4.0555408031	-0.0220298411	-0.394575
C	-1.1642795896	-2.0510379329	-0.0030934301	 0.149382
F	-2.2883399648	-2.7532422772	-0.0011376843	-0.052094
C	-1.188519139	-0.6968708334	 0.005035753	-0.262139
H	 0.793437235	 1.800861761	 0.0089564315	 0.300775
H	 2.181974421	-0.1686109729	-0.0101166035	 0.121872
H	 2.0674200991	-2.5261529441	-0.0234366041	 0.266209
H	-2.13236243	-0.1638179967	 0.0133077559	 0.136653
