21
gdb 103469	2.32956	1.49906	1.12337	1.1859	78.53	-0.222	0.0605	0.2826	1180.141	0.180347	-424.179697	-424.170072	-424.169128	-424.214034	36.491	
C	 0.263692567	 1.4133525444	 0.2837307066	-0.379585
C	-0.1790635127	 0.0040872628	-0.1313160401	-0.255068
C	 0.5965085048	-0.5567364073	-1.3150018657	 0.261746
C	 0.4038617601	 0.1767549605	-2.634510985	-0.456476
C	 1.9968239664	-1.1157880729	-1.1479156373	-0.038693
O	 2.1660030362	-1.7407530434	 0.1310937079	-0.286302
C	 1.1550635323	-2.7329170382	-0.1847714613	-0.160032
C	 0.842358866	-2.0414548925	-1.5088959174	 0.248692
O	 0.4374538867	-2.6896760945	-2.6577491296	-0.446731
H	 1.3282545829	 1.4237414904	 0.5391095082	 0.125382
H	 0.0999876835	 2.1492566421	-0.5095275098	 0.114229
H	-0.2944522279	 1.7498745762	 1.1628727089	 0.110548
H	-0.0614733016	-0.6574529635	 0.7307669078	 0.110079
H	-1.2485019986	 0.0072103815	-0.3795706992	 0.093545
H	 0.6670906464	 1.2338885364	-2.5360916416	 0.11742
H	 1.0181811819	-0.254653785	-3.4286016566	 0.119768
H	-0.6389010389	 0.1140601432	-2.9632366295	 0.124601
H	 2.8827540467	-0.7609393091	-1.6633247151	 0.101711
H	 1.6162875336	-3.7202876986	-0.3248386288	 0.096828
H	 0.3696601452	-2.8023367936	 0.5762078847	 0.110377
H	 1.09553062	-3.3576633888	-2.8819619872	 0.287962
