18
gdb 18837	3.84875	2.13779	1.78908	1.3733	69.67	-0.2478	0.0757	0.3236	791.6082	0.156398	-347.780774	-347.774314	-347.773369	-347.81101	26.671	
O	-0.0381830916	 1.4402984377	-0.0725263681	-0.440063
C	 0.0169625514	 0.0261975645	 0.015096076	 0.145378
C	 0.6485990212	-0.5239354366	 1.3285594078	-0.282799
C	-0.2351382759	-1.7151469801	 1.6822587915	-0.029476
C	-1.7135844959	-1.4744134514	 1.9469995718	-0.060479
C	-2.1632592813	-0.1484198105	 1.3299692358	-0.231656
C	-1.4015345686	-0.5494251343	 0.0244611969	-0.048913
C	-1.2437764304	-1.9841392138	 0.593835301	-0.091454
H	 0.862112416	 1.7779914525	-0.0482791385	 0.282472
H	 0.5603253196	-0.3889075177	-0.8496610472	 0.060106
H	 1.6906392389	-0.8272302598	 1.1837790633	 0.090621
H	 0.6360005008	 0.2558798678	 2.0985658046	 0.101483
H	 0.1941886945	-2.5630988761	 2.2045679362	 0.078892
H	-2.2281916575	-2.0204477101	 2.7296967658	 0.077315
H	-3.2436510942	-0.1335350923	 1.1673310991	 0.097584
H	-1.8623195667	 0.7868843195	 1.8113763019	 0.101882
H	-1.9401465442	-0.4087134317	-0.9118732669	 0.068814
H	-1.4089806062	-2.9298004577	 0.0953726791	 0.080292
