13
gdb 14599	14.49077	0.5884	0.57485	3.466	74.14	-0.2725	-0.0528	0.2196	1751.7769	0.093582	-361.459116	-361.450648	-361.449703	-361.493546	27.8	
O	-0.5246340373	 0.5943077391	 0.735792576	-0.220385
C	 0.0404208533	 1.0227579936	-0.233896251	 0.156799
C	 1.3398837646	 1.8028519229	-0.1981590888	-0.269644
C	 1.2362847971	 3.109103827	-1.0217136497	-0.385113
C	 2.5016592141	 3.815774989	-1.1090085281	 0.060759
C	 3.5637205579	 4.3880461231	-1.1693186847	 0.086586
C	 4.7620357186	 5.0382672516	-1.2420735551	 0.210131
N	 5.782008102	 5.5906596375	-1.3045502574	-0.332949
H	-0.3683049025	 0.8590471079	-1.2592398158	 0.079983
H	 1.6085852193	 2.0054516354	 0.8406582404	 0.147003
H	 2.1215025047	 1.1690401261	-0.6374335435	 0.145897
H	 0.8822419137	 2.8816782157	-2.0361593981	 0.156009
H	 0.4849669644	 3.7716714212	-0.5738404943	 0.164923
