18
gdb 59628	2.86216	1.28625	1.16254	2.4525	68.97	-0.2585	0.0197	0.2781	1138.018	0.147167	-476.23688	-476.228068	-476.227124	-476.270663	32.555	
C	 0.1576645827	 1.4111225569	 0.112700265	-0.422259
C	-0.1260410641	-0.0891263668	 0.0988379556	 0.099541
O	 0.2716152151	-0.7264799045	 1.3039264361	-0.434688
C	-1.6039581152	-0.3935005561	-0.1961636086	 0.206769
O	-1.8452366224	-1.7648021829	-0.3882535247	-0.264507
C	-2.3327073601	-2.3035047529	 0.8321030151	-0.162423
C	-2.8222051563	-1.0966037782	 1.5999646369	 0.372776
N	-3.4892081388	-1.1061874679	 2.6675774232	-0.534043
O	-2.4068865427	 0.0149362198	 0.9184864178	-0.25298
H	 1.2104026046	 1.5892433646	 0.3449025286	 0.133369
H	-0.0642600766	 1.866243368	-0.8579463923	 0.123847
H	-0.4581968127	 1.9128876809	 0.8673935835	 0.127055
H	 0.4535890138	-0.5760851979	-0.693378633	 0.105678
H	-0.1032691092	-0.2230945418	 2.0356764775	 0.290976
H	-1.9475541732	 0.1492062688	-1.0851028248	 0.10002
H	-3.1451274512	-3.0035248686	 0.6221432184	 0.140606
H	-1.5428917628	-2.8169069149	 1.3917314217	 0.143862
H	-3.6859217208	-0.1573994066	 2.9886675043	 0.226399
