22
gdb 119951	2.46696	0.93712	0.8095	3.7693	84.75	-0.2438	0.0115	0.2553	1554.7957	0.192288	-404.355027	-404.344549	-404.343605	-404.391071	37.204	
C	 0.0405507067	 1.4367175068	-0.3508637905	-0.382833
C	-0.0347638815	-0.0884639454	-0.2477071591	-0.16845
C	-1.4397482123	-0.5902366663	 0.120191747	-0.197713
C	-1.5073134619	-2.0916262058	 0.302786192	-0.03294
C	-2.7881059092	-2.8946074652	 0.1907941987	-0.019861
C	-4.1343929247	-2.2890491889	-0.1339324688	-0.407723
N	-1.7475254952	-2.9979153301	-0.8074021954	-0.067634
C	-1.8311192055	-2.7591750485	-2.1567316218	 0.13854
O	-2.7443995543	-3.1084095825	-2.8699989009	-0.311077
H	 1.0504679853	 1.7673458586	-0.6110722601	 0.117381
H	-0.6424796301	 1.816637557	-1.1185407571	 0.119237
H	-0.2319132148	 1.9116477938	 0.5981883163	 0.116477
H	 0.2764312755	-0.5380947897	-1.1988862693	 0.106244
H	 0.6821839751	-0.443542858	 0.503876234	 0.100957
H	-1.7516060653	-0.1184684311	 1.0622994926	 0.10657
H	-2.1558364431	-0.2656832903	-0.6425067079	 0.107526
H	-0.7710810607	-2.4724174159	 1.0126511633	 0.096551
H	-2.8482856804	-3.7721721287	 0.834951595	 0.100113
H	-4.0512446126	-1.373326996	-0.7216226942	 0.129226
H	-4.7319031806	-2.995752504	-0.7153628426	 0.150703
H	-4.6709239526	-2.059548152	 0.7924444785	 0.119196
H	-0.9145950075	-2.2742161278	-2.54729505	 0.079508
