15
gdb 127256	3.29321	1.43332	1.0055	7.3096	76.38	-0.2131	-0.0439	0.1692	1117.873	0.113283	-450.123535	-450.115435	-450.114491	-450.156125	30.215	
C	 0.0124247593	 1.473219773	 0.0013361529	-0.326333
N	-0.0350834113	 0.0175741411	 0.0028691815	 0.01306
C	-1.2349256335	-0.6487467636	 0.0224059295	-0.061486
C	-1.2287204533	-2.0103075533	 0.0309223144	 0.165191
N	-2.3025870362	-2.839973395	 0.0962453718	-0.577156
C	 0.0795394451	-2.6799676446	-0.0059275914	 0.407663
O	 0.151764758	-3.9012912873	-0.0308407479	-0.386444
N	 1.219860319	-1.8721059396	-0.0211809726	-0.288764
N	 1.15081886	-0.5899136179	-0.0148359973	-0.072505
H	 1.0624638372	 1.7601847173	-0.0163008215	 0.17353
H	-0.4956866862	 1.870729047	-0.8825797295	 0.146831
H	-0.4661608374	 1.8716554539	 0.9010812836	 0.148061
H	-2.1264540041	-0.0333561943	 0.0350136163	 0.124967
H	-3.2174740517	-2.5195151131	-0.1719253149	 0.255716
H	-2.0647361849	-3.8066621935	-0.0853726448	 0.277669
