23
gdb 65272	3.27539	1.0469	0.99801	1.302	85.07	-0.2511	0.0711	0.3222	1339.075	0.206797	-388.293467	-388.284295	-388.283351	-388.327988	35.533	
O	 0.1879467415	 1.3479899409	 0.2081382805	-0.469508
C	 0.0979796397	-0.0463399215	 0.0305889225	 0.404056
C	 1.0510185556	-0.5823533308	-0.9941384625	-0.303012
C	 1.2833391639	-0.8669390113	 0.4785951607	-0.333468
C	-1.3049803949	-0.614022889	 0.1335644902	 0.001619
C	-1.9909966858	-0.4150037971	 1.5000551539	-0.226653
C	-3.468986989	-0.6955509389	 1.1957019275	-0.201477
C	-3.7018958234	-0.0381503621	-0.1860053904	-0.204327
C	-2.3070961787	 0.008110888	-0.8738754926	-0.218757
H	 0.0727267472	 1.5330426568	 1.1463191326	 0.281274
H	 0.7215404523	-1.3940123412	-1.6335632678	 0.110269
H	 1.7067214085	 0.1381087871	-1.468664609	 0.12096
H	 2.0966747898	-0.3351082916	 0.959721913	 0.110537
H	 1.1142804765	-1.8735300461	 0.8465130392	 0.108001
H	-1.2359128418	-1.6945283024	-0.0491858877	 0.061574
H	-1.5760653332	-1.053436115	 2.2859568166	 0.091816
H	-1.8753133194	 0.6285982647	 1.8246075477	 0.081107
H	-3.6260629739	-1.7791495074	 1.1306154973	 0.095262
H	-4.1482621226	-0.3196710859	 1.9662660825	 0.090543
H	-4.4403080386	-0.5877526807	-0.7763504712	 0.094015
H	-4.0960100616	 0.9754125085	-0.060759615	 0.098626
H	-2.0099492746	 1.0404806272	-1.0763625819	 0.115241
H	-2.2944788575	-0.5227436121	-1.829629516	 0.092302
