18
gdb 57714	3.15815	0.81981	0.7624	3.6481	73.56	-0.2684	-0.0385	0.2299	1520.872	0.142608	-439.093481	-439.082878	-439.081934	-439.130659	36.221	
C	 0.0025183214	 1.584616826	 0.0365472787	-0.421235
C	 0.031192766	 0.0452126384	 0.0737078301	 0.214858
C	 0.9200789563	-0.4805308437	 1.2162669576	-0.421242
O	-1.2837563216	-0.5159137869	 0.1141160991	-0.287821
C	-2.086562346	-0.2309639574	 1.2378017206	-0.164464
C	-3.4171997315	-0.941152512	 1.0279688345	 0.143576
O	-4.3186826095	-0.891168432	 1.8198335607	-0.233882
C	 0.5814650002	-0.4440120676	-1.2107062281	 0.283961
N	 1.0484901527	-0.8036153332	-2.2034756048	-0.33022
H	 1.0034795303	 1.9741321303	-0.164012398	 0.145511
H	-0.6714045862	 1.9310930095	-0.7501450536	 0.147586
H	-0.3291915121	 1.9869029729	 0.9973092073	 0.129654
H	 0.588879392	-0.0792841619	 2.1776380272	 0.129659
H	 0.884870973	-1.5717071805	 1.2508804989	 0.147593
H	 1.9556638488	-0.1689717404	 1.0601758123	 0.14551
H	-1.6490265232	-0.5943838207	 2.1788862079	 0.131644
H	-2.2871996474	 0.8434927639	 1.3582049963	 0.131616
H	-3.4770124332	-1.5094502646	 0.0750557533	 0.107696
