14
gdb 28529	3.16647	1.45354	0.99712	2.5871	71.04	-0.1964	-0.027	0.1695	1096.0323	0.10286	-470.073027	-470.065495	-470.064551	-470.104695	29.598	
N	 0.0275848406	 1.36135508	-0.1172471794	-0.572765
C	-0.0027824771	-0.0252656283	-0.0611782041	 0.339007
C	-1.1890968439	-0.7563171932	-0.0286265253	-0.104219
N	-1.1756754314	-2.0964228477	-0.0341886748	-0.318836
C	-0.0177293278	-2.7149016376	-0.0752457546	 0.329864
O	 0.0325967003	-4.06753031	-0.0838829759	-0.417379
C	 1.1849571302	-1.9758299084	-0.106256455	 0.345136
O	 2.3595857212	-2.6316795665	-0.1413350651	-0.405532
N	 1.1834471319	-0.6593515108	-0.0945298948	-0.396242
H	 0.9132765948	 1.7525725194	 0.169144534	 0.252924
H	-0.7626088632	 1.8301523338	 0.2994197146	 0.251913
H	-2.1579668498	-0.2676613563	-0.0002431697	 0.100704
H	-0.8865882055	-4.3660580582	-0.0584746499	 0.297014
H	 3.0472962296	-1.9515413563	-0.16212091	 0.29841
