16
gdb 11348	4.26137	1.34824	1.04395	5.3421	69.34	-0.2302	-0.0354	0.1949	1081.2063	0.13028	-383.775948	-383.768057	-383.767113	-383.808681	28.322	
O	 0.0207166349	 1.4122109516	 0.007107827	-0.408155
C	-0.0215389524	 0.0013886597	 0.0023576698	-0.16685
C	-1.4362996842	-0.4704331277	 0.0120994248	 0.311438
C	-2.537872797	 0.2934397256	 0.0229868614	-0.27685
C	-3.7544207225	-0.5436193037	 0.0294659655	 0.392881
O	-4.904640125	-0.1697839587	 0.0407520776	-0.337505
C	-3.2907537391	-2.0127309551	 0.0228731054	-0.332736
C	-1.7520096874	-1.9523954084	 0.0104341425	-0.316305
H	 0.9413616714	 1.6887171278	-0.0009845439	 0.294546
H	 0.4826540076	-0.4220111827	-0.8852456129	 0.10647
H	 0.496979454	-0.4283705434	 0.8785807484	 0.106429
H	-2.5619970173	 1.3738595109	 0.0265069387	 0.12597
H	-3.6920788294	-2.5225808582	 0.9032244895	 0.132636
H	-3.70649356	-2.5191374722	-0.8527457514	 0.132528
H	-1.3176559406	-2.4415068892	-0.8704943023	 0.117744
H	-1.303325343	-2.4464684964	 0.88134915	 0.11776
