19
gdb 88880	3.45707	1.17352	1.02076	2.1636	70.75	-0.2313	0.0805	0.3118	1194.7496	0.160099	-460.135942	-460.127628	-460.126684	-460.169572	31.236	
O	 0.0869233221	 1.393928407	 0.3226335446	-0.433686
C	-0.0083965534	 0.0180688608	 0.1392224035	 0.142782
C	-0.5789376021	-0.9011661701	 1.191120952	-0.341834
C	-1.3215039231	-0.6806163428	-0.1188219419	-0.0918
C	-2.6276741064	 0.0815148595	-0.1499218241	 0.085681
C	-3.8661855957	-0.7360406056	 0.2603135247	-0.119828
O	-4.7048997691	 0.2304419677	 0.8790929794	-0.23108
C	-3.827924703	 1.0641627639	 1.5792528652	 0.021139
O	-2.6387459859	 1.1639786527	 0.8028502909	-0.28797
H	-0.752403447	 1.6977262259	 0.6938634874	 0.295979
H	 0.8536511577	-0.3380297997	-0.4162978608	 0.103814
H	-0.1127235803	-1.8627454127	 1.3772846517	 0.110303
H	-0.9926859438	-0.4193776156	 2.0709181091	 0.116925
H	-1.3026608577	-1.4936327055	-0.841591385	 0.090231
H	-2.7777520811	 0.5172644164	-1.1470316847	 0.094443
H	-4.4055701904	-1.1705023982	-0.5829027203	 0.124117
H	-3.5875373361	-1.5305300605	 0.9686263051	 0.104428
H	-4.2842473212	 2.0529895791	 1.686770623	 0.123983
H	-3.5805068936	 0.6465288878	 2.5706567804	 0.092374
