21
gdb 91922	2.40104	1.63935	1.10479	1.5992	78.72	-0.2455	0.0852	0.3308	1164.9105	0.182461	-424.226826	-424.218195	-424.217251	-424.259689	33.815	
C	 0.0580394887	 1.4953981171	 0.0206517392	-0.407801
C	 0.0525832965	-0.0176343488	 0.0246491238	 0.219801
O	 0.7250000648	-0.4530933781	-1.1400610422	-0.259877
C	 0.9431173739	-1.8372767386	-1.1873131584	 0.092444
C	 2.232672918	-2.3584430981	-0.6091187422	-0.310638
C	 0.9218028768	-2.6235155433	 0.0995175708	-0.069738
C	 0.5507018879	-1.8790411952	 1.3716939289	 0.108391
C	 1.3789709486	-2.2739785768	 2.5852541131	-0.399921
O	 0.7021482564	-0.4707967336	 1.1873953068	-0.261234
H	 1.0889886256	 1.8552604567	 0.0607836325	 0.133897
H	-0.412763402	 1.867532491	-0.8920149567	 0.126041
H	-0.4865540636	 1.8733818497	 0.8887197987	 0.122609
H	-0.9786453478	-0.4184721979	 0.0173019216	 0.05427
H	 0.5486605277	-2.2879858446	-2.0942259917	 0.093793
H	 2.7337158886	-3.187766225	-1.0959747048	 0.108957
H	 2.8870862387	-1.6051210012	-0.1845935647	 0.128924
H	 0.530247772	-3.6350728105	 0.0464997179	 0.089623
H	-0.5142360475	-2.0848522103	 1.579245622	 0.06675
H	 2.4405326137	-2.0866130129	 2.402886379	 0.126603
H	 1.0686999286	-1.6948066429	 3.4594093194	 0.122965
H	 1.2468403844	-3.3376541567	 2.805381697	 0.114139
