17
gdb 82725	2.67703	1.92921	1.39627	3.3093	70.97	-0.2377	-0.0135	0.2242	942.5011	0.136498	-421.814211	-421.807058	-421.806114	-421.845665	28.444	
C	-0.0057809021	 1.5927283423	-0.0133199859	-0.410677
C	 0.0477695194	 0.067817287	-0.0269549203	-0.098794
C	 0.8046672304	-0.5795196837	-1.1831975827	 0.065007
O	 2.2034347615	-0.12884131	-1.118195355	-0.301092
C	 2.537244347	-1.3591243501	-0.4941497471	 0.109146
C	 1.225602034	-2.0017983247	-0.7207240707	-0.176466
C	 1.6242460178	-1.6610379097	 0.7128123485	-0.210795
C	 0.7794996772	-0.5254995489	 1.1984434955	 0.425685
O	 0.6601460063	-0.1455828663	 2.3360987771	-0.337948
H	 0.9952086564	 2.0061500121	-0.16119399	 0.140321
H	-0.6601474016	 1.9774310782	-0.8011260298	 0.110766
H	-0.3817248017	 1.9371380727	 0.9535555351	 0.139757
H	-0.9704772358	-0.350232658	-0.0100652221	 0.103089
H	 0.3891249068	-0.4494731813	-2.1824333959	 0.09339
H	 3.5615132554	-1.7068604421	-0.5450627604	 0.124048
H	 0.9200333754	-2.9691012238	-1.0928079858	 0.112756
H	 1.9595179137	-2.4261513636	 1.4013687794	 0.111806
