23
gdb 92592	2.08357	1.56223	1.43288	1.2652	84.07	-0.2462	0.0792	0.3254	1118.6494	0.20685	-388.303693	-388.294881	-388.293936	-388.336556	35.479	
C	-0.853063565	 1.3061766237	 0.1013315178	-0.419638
C	-0.0410458266	 0.0272965028	-0.0461170531	-0.00519
C	 1.2222422367	 0.0439579822	-0.9544485749	-0.265557
C	 2.0315961479	-0.7050429287	 0.1452448247	-0.020057
C	 3.2343302038	 0.0365573278	 0.7364419058	-0.22279
C	 2.5991194942	 1.1644336074	 1.5775332998	-0.212812
C	 1.33946586	 0.5118170951	 2.1828390605	-0.288368
C	 0.8398973417	-0.5072249374	 1.1348150304	 0.403291
O	 0.38328674	-1.7138355528	 1.7203094713	-0.489
H	-0.2246180472	 2.1573277307	 0.3856782787	 0.115054
H	-1.3437690713	 1.564658536	-0.8436902191	 0.114921
H	-1.6376181497	 1.2040407011	 0.8605180101	 0.106615
H	-0.6990669882	-0.7957836613	-0.3429876987	 0.074043
H	 1.1274848681	-0.4721041805	-1.9123980138	 0.096685
H	 1.5984685646	 1.0531330356	-1.1512387617	 0.092011
H	 2.2284770737	-1.750605373	-0.0965116255	 0.071843
H	 3.8025716166	-0.6375185385	 1.3887580874	 0.098989
H	 3.9246073515	 0.4106730587	-0.0269274816	 0.092128
H	 3.2746839766	 1.5591867863	 2.341773633	 0.095209
H	 2.3225348139	 2.0084243559	 0.9348574751	 0.101194
H	 1.6150103163	-0.0644602834	 3.0733097445	 0.10151
H	 0.5806866283	 1.2416235542	 2.4831678282	 0.089049
H	-0.3430701557	-1.500611992	 2.3163574812	 0.27087
