19
gdb 87878	3.33499	1.20349	1.18419	0.7551	75.14	-0.2489	0.0617	0.3106	1146.1709	0.15838	-422.972969	-422.964831	-422.963886	-423.005848	31.154	
C	 0.0707814673	 1.5157385592	-0.2999432577	-0.416153
C	 0.0976030423	 0.0230738033	-0.1011372601	-0.024036
O	 1.394339595	-0.5947447152	 0.006707046	-0.299042
C	 0.5481256798	-0.6072547128	 1.1439762926	 0.439759
C	 0.970690061	-0.0003170705	 2.4934775553	-0.335218
C	 0.4005228554	-1.2607901259	 3.1872147657	 0.115916
O	-1.0048668719	-1.1490996863	 3.4959631671	-0.293081
C	-1.3790565092	-1.8688414449	 2.297520102	-0.079823
C	 0.0779251156	-1.9108544313	 1.8067660934	-0.191591
H	 0.7675100338	 2.0126138889	 0.3798002601	 0.129174
H	 0.351334442	 1.7730530795	-1.3266166088	 0.130549
H	-0.93566298	 1.9080298344	-0.1178935464	 0.12405
H	-0.5986582458	-0.5430698774	-0.7239102685	 0.087113
H	 2.0595211004	 0.0762285634	 2.5735919905	 0.117416
H	 0.5118829224	 0.9445998841	 2.793990087	 0.11556
H	 0.9729171104	-1.7236295462	 3.9940591932	 0.081534
H	-1.8013785301	-2.8517646666	 2.5420337344	 0.102999
H	-2.0958740044	-1.3133686688	 1.68032122	 0.102296
H	 0.4942494361	-2.8424746568	 1.4270815542	 0.092576
