18
gdb 4911	5.08748	1.23392	1.06484	0.6264	75.53	-0.2074	0.0274	0.2348	1158.6506	0.153656	-347.849746	-347.841429	-347.840485	-347.882872	30.201	
C	-0.1120619518	 1.594687397	 0.0556995074	-0.364425
C	 0.1029886692	 0.0756276061	-0.0503993438	-0.300321
C	 0.7319349449	-0.5219184146	 1.1735066774	 0.276697
C	 1.9675346421	-1.076953827	 1.279050007	-0.1277
O	 2.2071035629	-1.5044069285	 2.5517036751	-0.182152
C	 1.0948359388	-1.2167483849	 3.2870157562	 0.380577
C	 1.1244057018	-1.5993056127	 4.7232781807	-0.488215
C	 0.166128173	-0.6166634727	 2.4952562098	-0.381863
H	 0.8402344113	 2.1132312902	 0.2035555826	 0.119915
H	-0.5795576368	 1.9884593779	-0.8524147133	 0.109764
H	-0.7592694436	 1.843956597	 0.9025921377	 0.118105
H	-0.8630556452	-0.4093647135	-0.2420651419	 0.10577
H	 0.731491001	-0.1434512911	-0.9212138695	 0.100829
H	 2.7638375632	-1.2414962075	 0.5712537729	 0.125554
H	 1.9405970865	-1.098528523	 5.2566132122	 0.136798
H	 0.1826439996	-1.3203032798	 5.2010094224	 0.133518
H	 1.2664270367	-2.6787413363	 4.8498631042	 0.136775
H	-0.8117252035	-0.2821716167	 2.8081108529	 0.100373
