21
gdb 108914	3.87444	1.07706	1.017	1.781	84.26	-0.2216	0.0103	0.2319	1300.6942	0.181658	-387.059631	-387.05076	-387.049816	-387.093182	34.293	
C	-0.3236466508	 1.4847475872	-0.0958883409	-0.374907
C	 0.1235098275	 0.0153955842	 0.0150837211	-0.319067
C	 0.8218856147	-0.4786445078	-1.2056702465	 0.388695
C	 2.063833663	-0.9153737427	-1.4319173715	-0.281797
C	 2.0295139599	-1.2471284865	-2.9404167082	 0.385516
C	 3.1739862797	-1.96036231	-3.6024525552	-0.507805
C	 1.323713235	 0.0299825323	-3.507501145	-0.254161
C	 0.2163816816	-0.6109415378	-2.6269877839	-0.039448
O	 0.7167358799	-1.9197908582	-3.0457018344	-0.317815
H	 0.5371392957	 2.1450699532	-0.2395342792	 0.1213
H	-1.002143714	 1.6317265864	-0.942675384	 0.12016
H	-0.8488081403	 1.800256749	 0.8106818694	 0.116062
H	 0.7800238755	-0.1051810596	 0.8841615637	 0.106077
H	-0.7618248409	-0.6080053625	 0.2047725957	 0.110522
H	 2.9035066382	-1.0320623964	-0.7608685919	 0.100631
H	 3.3498782849	-2.9290162544	-3.1238901946	 0.132239
H	 2.9642624429	-2.1322428756	-4.6614839989	 0.127448
H	 4.0905117519	-1.3670152078	-3.5207670497	 0.121738
H	 1.7160522847	 1.0122620751	-3.2347592378	 0.091744
H	 1.1118065112	-0.0487055753	-4.5773786228	 0.099355
H	-0.8524103601	-0.4625967726	-2.7818723652	 0.073513
