13
gdb 15493	3.27649	2.01363	1.35352	3.3945	59.89	-0.2297	-0.0316	0.198	851.9546	0.095274	-398.647659	-398.640596	-398.639652	-398.679467	25.332	
O	-0.591223932	 0.6738954311	-0.6657199087	-0.235123
C	 0.1225763898	 0.9859353482	 0.2481936142	 0.152722
C	 1.3161637277	 1.9295936432	 0.1260721617	-0.266388
C	 1.3853779546	 2.78604205	-1.1064381147	-0.133233
C	 1.4359573218	 4.0647718302	-0.7226537591	-0.024949
N	 1.4143965213	 4.1834889642	 0.6775544862	-0.323201
C	 1.3237164799	 2.9506390516	 1.2897271347	 0.403614
O	 1.2496751806	 2.7259017218	 2.474923467	-0.366637
H	-0.021355882	 0.5966228893	 1.2780048323	 0.111433
H	 2.2043096083	 1.2925805299	 0.2632387237	 0.147832
H	 1.3653607809	 2.4182538609	-2.1191202317	 0.127784
H	 1.489205558	 4.959773051	-1.3254160008	 0.138004
H	 1.4067755312	 5.0464269387	 1.1954763553	 0.268142
