23
gdb 96175	2.16224	1.72016	1.10017	1.9138	84.01	-0.2368	0.0702	0.307	1183.8341	0.20843	-388.294704	-388.286322	-388.285378	-388.327501	33.307	
C	-0.0423888585	 1.5865346861	-0.048792271	-0.404786
C	 0.0206719312	 0.0546102558	-0.0351686419	 0.004941
C	 0.6192310756	-0.5222521994	-1.3294588617	-0.190812
C	 0.7288988645	-2.0502090262	-1.2592608039	-0.213014
C	 1.7184072394	-2.4701118116	-0.1631088263	-0.211297
C	 1.3662288885	-1.887434116	 1.2160869459	 0.098046
O	 2.5427506683	-1.3767232255	 1.8988212357	-0.290866
C	 2.160189561	-0.0164707723	 1.6068339314	-0.101898
C	 0.7353647782	-0.4677901229	 1.2157925781	-0.018683
H	 0.960780341	 2.0236623094	-0.1110780625	 0.116603
H	-0.6145967835	 1.9492423089	-0.9090822653	 0.112049
H	-0.5188403614	 1.97429885	 0.8581360067	 0.111097
H	-1.0129255368	-0.319240201	 0.0192230183	 0.071133
H	-0.0040787436	-0.2183588205	-2.1787329921	 0.089741
H	 1.6160563829	-0.0946984209	-1.5092265799	 0.092184
H	-0.2639701213	-2.4785546122	-1.062209261	 0.091968
H	 1.0541347673	-2.4564593255	-2.2231536688	 0.094369
H	 1.7950350152	-3.5608301556	-0.1027316298	 0.09439
H	 2.7167897346	-2.1023458395	-0.4269565824	 0.109137
H	 0.8501953952	-2.6290727145	 1.8362160613	 0.07315
H	 2.2599928951	 0.6373989818	 2.4796870161	 0.102461
H	 2.7528253576	 0.4051094387	 0.7812974779	 0.091759
H	 0.0763642796	-0.3539338272	 2.0817946551	 0.078328
