18
gdb 61209	4.20937	0.79555	0.7487	3.0542	73.2	-0.2888	-0.0541	0.2347	1489.8217	0.144997	-439.11323	-439.103329	-439.102385	-439.148586	34.928	
C	 0.0769035049	 1.5759667281	-0.1251170346	-0.414049
C	 0.0159572617	 0.0481724028	-0.0136257588	-0.008885
C	 0.768089054	-0.4650940054	 1.2382426011	-0.345112
C	 2.1888155307	-0.1279400751	 1.2223356481	 0.262586
N	 3.3119339056	 0.1427282663	 1.1886240114	-0.311006
C	-1.4410523641	-0.4684477844	 0.0552430021	 0.039628
O	-2.1026739711	 0.0141717516	 1.1915861742	-0.434826
C	-2.2123353106	-0.1045722092	-1.19881707	 0.132393
O	-3.2525274067	 0.5047438388	-1.146631468	-0.257296
H	 1.1119610216	 1.9262029928	-0.1077800379	 0.148265
H	-0.3785139234	 1.926464724	-1.0566796255	 0.124864
H	-0.4604372781	 2.0378062291	 0.7077218187	 0.140587
H	 0.4838347492	-0.4039753017	-0.8977540385	 0.096952
H	 0.306059418	-0.0401216818	 2.1354271008	 0.174768
H	 0.6732844045	-1.5542544577	 1.3174211967	 0.148286
H	-1.4056182155	-1.5747815767	 0.0757322828	 0.096489
H	-2.9064831252	 0.4501638927	 0.8656102528	 0.300286
H	-1.7749723256	-0.4373767242	-2.1619925755	 0.106072
