17
gdb 44417	3.62151	1.45308	1.43023	2.4939	75.	-0.2454	0.0052	0.2507	966.4928	0.137822	-417.880175	-417.873369	-417.872425	-417.911138	28.017	
N	 0.0068175053	 1.2387449935	 0.3654917715	-0.548779
C	 0.0528145944	 0.0355240156	 0.0395957979	 0.320071
O	 1.1782061196	-0.7970747145	-0.2637111718	-0.309059
C	 0.2038496938	-1.6627888288	-1.035761286	 0.097511
C	-0.695012568	-2.9769812407	-1.0258337744	-0.081636
C	-0.7527942505	-3.448322483	 0.4180296208	-0.19466
C	-0.9105586412	-2.0510945528	 1.0782920423	-0.209397
C	-0.8814015493	-1.1539834413	-0.1903540532	 0.194976
N	-1.8828526322	-1.9764901887	-1.0616708522	-0.401741
H	 0.9404073673	 1.6495708111	 0.420327088	 0.239713
H	 0.2168173105	-1.2646591256	-2.053283631	 0.101649
H	-0.6487629981	-3.7009289859	-1.839968565	 0.088534
H	-1.6087169339	-4.1031625172	 0.5900804004	 0.117099
H	 0.1589786929	-3.969233324	 0.7190868884	 0.111764
H	-1.8670845006	-1.9209216845	 1.5875448799	 0.121666
H	-0.1040196923	-1.8132639728	 1.7721998206	 0.122628
H	-1.9124510876	-1.5617139003	-1.9951746664	 0.229661
