18
gdb 55697	3.23002	1.09245	1.08112	3.0374	68.01	-0.2492	0.0485	0.2977	1203.6347	0.146263	-476.248098	-476.23885	-476.237906	-476.282313	33.823	
C	-0.2931018245	 1.7198573682	-0.6035144899	-0.455938
C	-0.106538862	 0.2785695083	-0.1616237521	 0.380464
C	 0.9960610238	-0.5034821803	-0.9000326257	-0.119982
O	 1.8685870731	-0.4132950067	 0.2423835815	-0.278526
C	 0.7873050607	 0.0608523382	 1.0781432565	-0.105477
O	-1.3499295057	-0.4385850126	-0.1877131817	-0.308301
C	-2.224039479	-0.1624180413	 0.8137953711	 0.48209
N	-3.3888367005	-0.8442280339	 0.6137667876	-0.559483
O	-2.0064621982	 0.5926371711	 1.7344718606	-0.401895
H	 0.6796181788	 2.2173483254	-0.658005087	 0.129642
H	-0.7561369153	 1.7565538917	-1.5947577246	 0.120472
H	-0.9231273443	 2.2580085602	 0.1073040614	 0.151866
H	 0.7068556864	-1.5377885324	-1.1271558677	 0.101323
H	 1.4249485262	-0.033473116	-1.7919320764	 0.103901
H	 1.0600127361	 0.9508619001	 1.6518752334	 0.115866
H	 0.4183209158	-0.7157859092	 1.7567473336	 0.106408
H	-3.4080250074	-1.5965839689	-0.0530934987	 0.266714
H	-4.0261564641	-0.878098332	 1.3904206681	 0.270857
