19
gdb 34398	2.32338	1.65909	1.25302	1.3819	80.55	-0.2512	0.04	0.2912	1074.0433	0.160022	-385.852368	-385.844302	-385.843358	-385.884992	31.554	
C	-0.0205615846	-1.1691838416	 0.0376661913	-0.431444
C	-0.0369846906	 0.0338162094	 0.0340347309	 0.244433
C	-0.0522437447	 1.4797644506	 0.0307964903	 0.086095
C	-0.2298961964	 2.2029580208	-1.3312300116	-0.128712
O	 0.9046323606	 3.0504943691	-1.0761714934	-0.294603
C	 1.3138967827	 2.2462743624	 0.0563991669	 0.106245
C	 1.4150619595	 3.0177333246	 1.3798799082	-0.236519
C	 0.251767761	 2.4732378383	 2.2387094201	-0.202857
C	-0.8381379373	 2.1049172771	 1.2163796646	-0.277781
H	-0.0051302126	-2.2309202807	 0.0379462951	 0.191973
H	-0.0680101508	 1.5498694795	-2.197105586	 0.106047
H	-1.156933935	 2.7718968148	-1.4656377938	 0.104566
H	 2.1982628287	 1.6473463232	-0.1851925495	 0.080959
H	 2.3869888709	 2.8960558901	 1.8649043354	 0.101832
H	 1.2796876267	 4.0815264661	 1.1608879395	 0.118044
H	 0.5739069872	 1.5705683069	 2.770772837	 0.111816
H	-0.095763778	 3.1865710476	 2.9909661982	 0.101374
H	-1.3468501084	 3.0122573641	 0.8728276895	 0.107472
H	-1.594839599	 1.4266146676	 1.6150419774	 0.111059
