21
gdb 102118	2.32183	1.11052	0.81417	3.124	78.99	-0.2482	-0.0293	0.2189	1443.8605	0.180512	-424.213794	-424.203697	-424.202753	-424.250598	34.941	
C	 0.0512633425	 1.583445804	 0.1614261708	-0.39297
C	-0.0098960332	 0.0561873791	 0.0588949216	-0.200436
C	-1.4444077092	-0.4952383909	-0.0233803866	-0.077935
C	-2.1110364315	-0.0753128951	-1.3206274891	 0.162199
O	-3.2310382281	 0.3552447524	-1.4189685575	-0.253181
C	-1.4674248089	-2.0299710429	 0.04286528	-0.047089
C	-1.1489510187	-2.6772589425	 1.412632254	-0.087646
O	-2.4439188528	-3.301458148	 1.4722094323	-0.270721
C	-2.8437408807	-2.7147823216	 0.2163138106	-0.095598
H	 1.0864693417	 1.9325302604	 0.2168827669	 0.12002
H	-0.4160144598	 2.0651915225	-0.704372607	 0.127257
H	-0.4715142721	 1.939477758	 1.0553532082	 0.125581
H	 0.5521877559	-0.2818578745	-0.8225720163	 0.102215
H	 0.4904982646	-0.3917940287	 0.9254513184	 0.108654
H	-2.0537028781	-0.0970976325	 0.797102498	 0.096499
H	-1.4762643519	-0.2319345087	-2.227158628	 0.072319
H	-0.8760570578	-2.4480190601	-0.777373992	 0.083149
H	-0.3348817726	-3.4123340111	 1.4209423918	 0.10399
H	-0.9948785804	-1.9684493537	 2.2378713591	 0.100156
H	-3.6922663175	-2.0287578806	 0.3297739666	 0.118408
H	-3.0993906113	-3.4769140156	-0.529336552	 0.105128
