18
gdb 17872	3.10723	2.07039	1.92505	2.9895	70.57	-0.2293	-0.0073	0.222	813.1604	0.156825	-347.824114	-347.817492	-347.816548	-347.854678	26.505	
O	-0.00043611	 0.0538732907	-0.0637365472	-0.329276
C	-0.0156875819	 1.2505224382	-0.0127077392	 0.436187
C	-1.1108152803	 2.3185823307	 0.1037271016	-0.129738
C	-0.0295769514	 3.1615106348	 0.8571617677	-0.251322
C	 1.0533323016	 2.3473902678	 0.0749956621	-0.129738
C	 1.2358058696	 2.9137391463	-1.3581692866	-0.213973
C	-0.0711137448	 3.5718379791	-1.8601199855	-0.20074
C	-1.3462728574	 2.8793693705	-1.3238886863	-0.213973
H	-2.0424798908	 2.0538321592	 0.6069996934	 0.083687
H	-0.0458683318	 4.2434002055	 0.7148319031	 0.103017
H	-0.0123905122	 2.9356561939	 1.9252453361	 0.110829
H	 2.0047425966	 2.107706905	 0.553268735	 0.083687
H	 2.0476490484	 3.6490299247	-1.3682399936	 0.103245
H	 1.5457524608	 2.0967094118	-2.0197315745	 0.116876
H	-0.0806819261	 4.6163985275	-1.5335452467	 0.108868
H	-0.0860502471	 3.6032591221	-2.9536614661	 0.102244
H	-1.6518177684	 2.0541474477	-1.9772798977	 0.116875
H	-2.1773772949	 3.5927912545	-1.3121460556	 0.103245
