20
gdb 126570	4.95118	0.75968	0.69442	2.9851	83.28	-0.2465	0.0003	0.2468	1693.6625	0.170167	-403.168524	-403.158963	-403.158019	-403.203977	34.068	
C	-0.2113476822	 1.5074288871	 0.0002759634	-0.379569
C	-0.236744633	-0.0085055957	-0.2070085636	-0.162682
C	 0.9402829014	-0.5055079512	-1.0664411015	-0.298889
C	 0.9272402741	-1.9882942674	-1.2802608571	 0.393271
N	 1.8512038533	-2.7408681504	-0.7300486009	-0.210876
O	 1.5463175717	-4.0521262477	-1.1028080156	-0.212392
C	 0.4424080581	-4.050680811	-1.8719197186	 0.442337
C	-0.0316814223	-5.3700428007	-2.3700540775	-0.491263
C	-0.0024514175	-2.7751366898	-2.0239334153	-0.420639
H	 0.7115878974	 1.8226471775	 0.4991477452	 0.119446
H	-0.2686720332	 2.0401964357	-0.955587939	 0.114087
H	-1.0530407569	 1.8373961977	 0.6167397606	 0.114297
H	-0.2065304605	-0.5194486826	 0.7624637544	 0.111704
H	-1.1824817363	-0.3024606577	-0.6789196671	 0.098451
H	 0.9158947786	 0.0004554286	-2.0402821182	 0.108228
H	 1.8879726652	-0.2368215822	-0.5890036466	 0.123791
H	-0.2656641806	-6.0421367793	-1.5379210075	 0.150259
H	-0.9296867452	-5.2434489053	-2.9775457846	 0.139686
H	 0.7358798003	-5.8577434227	-2.9799408137	 0.150363
H	-0.8603542126	-2.4407629928	-2.5838916166	 0.11039
