18
gdb 81051	2.55251	1.50684	1.16435	1.9972	72.63	-0.2465	0.0209	0.2674	1102.6297	0.146585	-439.053551	-439.044673	-439.043729	-439.087677	33.084	
C	 0.723588581	 1.9317037617	-0.1214933654	-0.438698
C	 0.1712694197	 0.5309912039	 0.0664229952	 0.015664
C	 0.7429167273	-0.7371549835	-0.6324791697	 0.013379
C	 1.9919981612	-0.7043381389	 0.2773825282	-0.262298
C	 0.7238268125	-0.4609270083	 1.1370296472	 0.341812
O	 0.057510185	-1.5643728355	 0.3963243385	-0.360421
C	 0.5891159494	-0.3887200804	 2.6325167193	 0.254671
N	-0.0916412616	-1.4339716417	 3.1661245059	-0.535048
O	 1.0589274743	 0.5393670913	 3.26375426	-0.371464
H	 1.8141967177	 1.9650944389	-0.1705646704	 0.123784
H	 0.3325048742	 2.3714564153	-1.0451571292	 0.119891
H	 0.4114420009	 2.5687784978	 0.7114576839	 0.144442
H	-0.9221584805	 0.5196466329	 0.063305171	 0.08649
H	 0.6477761297	-1.0650526989	-1.6677081581	 0.097731
H	 2.4673441341	-1.6720942323	 0.4390036129	 0.111821
H	 2.7102797606	 0.1075728093	 0.1701000927	 0.113968
H	-0.4665225426	-2.1540678316	 2.5715758911	 0.280653
H	-0.249743033	-1.4628484001	 4.1597093872	 0.263621
