15
gdb 34137	2.91594	1.74379	1.39139	4.3097	74.08	-0.2516	-0.0326	0.219	927.5766	0.114809	-379.601859	-379.595353	-379.594408	-379.632705	26.239	
N	-0.0496130123	-1.1182968428	 0.0764436737	-0.340694
C	-0.037393108	 0.0378233497	 0.0647256218	 0.158324
C	-0.0240288119	 1.481096273	 0.014576297	 0.25332
N	-0.6434243683	 2.3464256266	 1.082343354	-0.362078
C	-0.0855994346	 3.3064423864	 0.0573638569	-0.043732
C	 1.2228042106	 2.4476348909	-0.0301812461	-0.076868
C	 1.7023963569	 2.5006691148	-1.4669414002	-0.106728
C	 0.5827820426	 2.4805805247	-2.195930062	-0.10321
C	-0.5256575542	 2.4160153766	-1.1633821816	-0.119713
H	-1.6637061133	 2.3057448287	 0.9955024617	 0.218488
H	-0.1677663679	 4.3890157548	 0.1662558977	 0.098432
H	 1.9104356185	 2.4375280841	 0.8123225665	 0.100037
H	 2.7328222965	 2.5378252436	-1.7893413293	 0.119956
H	 0.4598487589	 2.4968297552	-3.2692996037	 0.119477
H	-1.5762283835	 2.3727621135	-1.4517744662	 0.084988
