20
gdb 96873	2.40912	1.37127	1.0819	1.5689	78.15	-0.2467	0.0202	0.2669	1218.3207	0.170523	-440.308315	-440.298788	-440.297844	-440.343252	34.704	
C	-0.1461761425	 1.390618183	 0.1189311353	-0.332321
N	-0.2284022003	-0.0482277468	 0.3212825481	-0.341225
C	 0.712685417	-0.6450675576	 0.9116196791	 0.412586
O	 1.8593732452	-0.0769199859	 1.3780415061	-0.259263
C	 2.6148305666	-1.0263368746	 2.1736684123	 0.114225
C	 2.4021805938	-0.7382105279	 3.6548795144	-0.396518
C	 2.1030656806	-2.4069004319	 1.715689876	-0.25167
C	 0.6710019375	-2.1237599281	 1.2663150607	 0.025362
O	-0.223952881	-2.3332093476	 2.3550308248	-0.434346
H	 0.5607101333	 1.893112233	 0.7891925609	 0.121992
H	 0.155788482	 1.6001194974	-0.9148872624	 0.126261
H	-1.1410166878	 1.8263769637	 0.2546673608	 0.120218
H	 3.6632601926	-0.8704689789	 1.9043302869	 0.089847
H	 1.363082261	-0.9340129206	 3.9320097518	 0.143533
H	 3.0489050271	-1.3831876325	 4.2587691366	 0.117429
H	 2.6455668842	 0.3034111217	 3.8816260802	 0.124453
H	 2.6915564165	-2.7676409289	 0.8676465332	 0.112349
H	 2.1359023414	-3.1569862532	 2.5075820093	 0.1243
H	 0.3680697856	-2.7198055978	 0.397876323	 0.091117
H	-1.0444537829	-1.8830289063	 2.118176843	 0.291672
