17
gdb 15564	3.26551	1.77147	1.20638	4.4381	76.67	-0.2587	-0.039	0.2197	991.1301	0.143462	-326.769062	-326.761371	-326.760427	-326.801123	28.536	
C	-0.0354137098	 1.5891461243	-0.0194890208	-0.406778
C	 0.0439524253	 0.0615434005	 0.0312710262	-0.080802
C	 0.7469288203	-0.5816763015	-1.1938999703	-0.222058
C	 1.5128423929	-1.8138778164	-0.6535382644	-0.259019
C	 1.6589792618	-1.5085052276	 0.8126490923	-0.159471
C	 0.8665813573	-0.49656383	 1.190521605	 0.214055
C	 0.7346159867	-0.0074629303	 2.5187115088	 0.208783
N	 0.5994344373	 0.4209600883	 3.5870402859	-0.346258
H	 0.9637726729	 2.029998191	-0.1024892066	 0.120822
H	-0.6222143264	 1.9144300411	-0.8842691121	 0.119246
H	-0.5085894836	 1.9929997667	 0.8805204542	 0.137963
H	-0.979072188	-0.3306671426	 0.12546327	 0.095411
H	 0.0438622862	-0.833374768	-1.9912752724	 0.107147
H	 1.4629294401	 0.1378325244	-1.6059709975	 0.110915
H	 0.9431451633	-2.745049116	-0.7850792115	 0.122603
H	 2.4754607386	-1.9732461363	-1.1509101717	 0.117855
H	 2.2981285452	-2.0727778376	 1.4816554046	 0.119586
