16
gdb 46733	2.96338	1.80756	1.42895	3.8425	68.35	-0.2504	0.024	0.2744	917.3947	0.12623	-437.854908	-437.848123	-437.847179	-437.886379	26.467	
N	-0.0644326648	 1.2206673662	 0.382573139	-0.54705
C	-0.017463717	 0.0196286321	-0.0040048128	 0.428171
O	 1.1062744941	-0.6075081875	-0.4589747868	-0.242235
C	 0.8674847452	-1.9630756289	-0.8837065405	-0.099219
C	-0.6168668851	-2.2613558459	-0.6274415443	-0.091071
C	-0.9795106398	-2.9579285998	 0.7061206259	 0.006544
O	-0.2623718234	-2.2746591806	 1.7388711934	-0.230953
C	-1.4881070957	-1.7018104983	 1.2760199089	 0.03198
C	-1.1816412784	-0.9345806242	-0.0349568415	-0.154486
H	 0.8578503318	 1.6548074346	 0.316079906	 0.221221
H	 1.129053436	-2.0319909349	-1.9442626268	 0.113925
H	 1.5310940025	-2.6156374624	-0.3098070307	 0.127122
H	-1.1483694595	-2.6522616171	-1.4948794255	 0.093595
H	-1.2542390673	-3.9905278319	 0.8863246055	 0.112885
H	-2.2539335841	-1.4959409444	 2.0132016745	 0.118299
H	-2.0642015145	-0.515826607	-0.5164142144	 0.111273
