21
gdb 116224	2.20854	1.43972	0.97221	2.2814	78.04	-0.256	0.0736	0.3296	1254.2699	0.182881	-424.214839	-424.205918	-424.204974	-424.249085	33.91	
O	-0.1888355436	 1.5250894713	 0.0219374786	-0.422079
C	 0.011226492	 0.1232234682	 0.1359205121	-0.114689
C	-1.3413040043	-0.5501198347	-0.0396175192	-0.025284
C	-2.0264692858	-0.2549723681	-1.3891094804	-0.209779
C	-3.0201235622	-1.4169206969	-1.5591330404	-0.222723
C	-2.2177512209	-2.6363097652	-1.0725085821	-0.284647
C	-1.328817268	-2.0864518352	 0.0473915751	 0.417378
C	-0.2593959017	-2.8920442484	 0.6530358465	-0.254266
O	-1.482005879	-2.657543638	 1.3539361946	-0.275944
H	 0.6569478606	 1.9623133379	 0.1561664116	 0.286863
H	 0.7113032561	-0.2435935709	-0.6335218613	 0.081446
H	 0.4341431961	-0.133532557	 1.1197150316	 0.092399
H	-1.9940019736	-0.1969295199	 0.7689163946	 0.098414
H	-2.4921256557	 0.7317308437	-1.4108673174	 0.112002
H	-1.2814399841	-0.2808075712	-2.1958916281	 0.092516
H	-3.8929030262	-1.2582152573	-0.9145534647	 0.104993
H	-3.3859340099	-1.5252136989	-2.5835761979	 0.095098
H	-2.830338096	-3.4647175781	-0.7084840005	 0.112536
H	-1.5900202562	-3.0185798603	-1.886828551	 0.101888
H	-0.1038571481	-3.9154156962	 0.3092158746	 0.106105
H	 0.6238202908	-2.4185863746	 1.079236114	 0.107772
