15
gdb 14614	13.0444	0.62143	0.60736	3.2247	64.4	-0.2671	-0.0391	0.228	1691.9474	0.116055	-399.800008	-399.790995	-399.790051	-399.835502	29.08	
O	-0.1721697809	 0.004916018	-0.0931878272	-0.224877
C	 0.0081408486	 1.1922574791	-0.035285244	 0.152072
C	 1.3494924232	 1.8712881909	-0.2138834525	-0.282955
C	 1.3100449689	 2.928085162	-1.3147196327	-0.061409
O	 2.5157336149	 3.6685417877	-1.2465532203	-0.234921
C	 2.5975195958	 4.6561607431	-2.2446109388	-0.188154
C	 3.8611525376	 5.3838646094	-2.0986019241	 0.266725
N	 4.8477483535	 5.9761436006	-2.0084159402	-0.287048
H	-0.8370855794	 1.8911463175	 0.1691316675	 0.077662
H	 1.5976208152	 2.3805364605	 0.7274255659	 0.141281
H	 2.114341617	 1.1182577921	-0.4146469686	 0.139694
H	 1.206066389	 2.4538296773	-2.3035913282	 0.11316
H	 0.4442037028	 3.598373448	-1.1785022436	 0.101307
H	 2.5584867915	 4.216941164	-3.2547884648	 0.144818
H	 1.7665560024	 5.3769349698	-2.1712790483	 0.142645
