17
gdb 33835	4.22101	1.1246	1.0257	4.9468	79.38	-0.2399	0.0086	0.2485	1177.8728	0.136578	-380.822674	-380.814956	-380.814012	-380.854832	30.28	
N	 0.0523643618	-1.1171686377	-0.0204185484	-0.34926
C	 0.0442940026	 0.0390500373	 0.0255498938	 0.228419
C	 0.0324282069	 1.4684654075	 0.0617379152	 0.222884
C	 0.2839019628	 2.3232621103	-1.1638454182	-0.321443
C	 1.1984169062	 2.4712836337	 0.0188379501	-0.214646
C	 0.4857573734	 3.1973197969	 1.1363711788	 0.390713
C	 1.0887397735	 3.7848412219	 2.3692028208	-0.318405
C	 0.3415445299	 4.6666034659	 1.3798457459	-0.33865
N	-0.6053151884	 2.1972744201	 1.1667894742	-0.405056
H	 0.7045718308	 1.7983889424	-2.0151694036	 0.140234
H	-0.4310519761	 3.1047575126	-1.4076097619	 0.12061
H	 2.2561448725	 2.2485658195	-0.0232435256	 0.124545
H	 0.6043492133	 3.5581707197	 3.3124110781	 0.130083
H	 2.169034836	 3.8734518441	 2.4200020552	 0.120672
H	 0.9088595489	 5.3543478141	 0.7613374774	 0.123075
H	-0.6342891856	 5.0360185708	 1.6794360667	 0.12095
H	-1.5209163485	 2.566528831	 0.9165736915	 0.225274
