22
gdb 13718	5.06888	0.86725	0.80514	0.8631	79.93	-0.2397	0.0931	0.3328	1527.908	0.198452	-350.191045	-350.181244	-350.1803	-350.226299	35.041	
C	-0.4342185899	 1.3447778321	 0.1341421296	-0.382173
C	 0.3439455444	 0.0374816898	-0.0333896531	-0.182167
C	 0.7055832301	-0.598917417	 1.3012564681	-0.033094
O	 1.4247749093	-1.7949731197	 1.0520089808	-0.249609
C	 1.8019471942	-2.4684556981	 2.2097305086	 0.129605
C	 0.8058260764	-3.3756900486	 2.8958309954	-0.32357
C	 1.9713631102	-3.9553298753	 2.1137127999	-0.028304
C	 1.7329055144	-4.678667255	 0.8069587104	-0.395615
H	 0.1458015578	 2.0860583577	 0.6950469091	 0.116029
H	-0.6802571443	 1.7831968085	-0.8372518767	 0.116823
H	-1.3744664674	 1.1842229105	 0.6732631747	 0.115905
H	-0.2434154144	-0.6830046824	-0.6143359934	 0.10448
H	 1.2672249357	 0.2132831165	-0.5972519313	 0.106612
H	 1.319388491	 0.0932612115	 1.9027381903	 0.082642
H	-0.2020004251	-0.8159489162	 1.8873908019	 0.087272
H	 2.4968425663	-1.9103151908	 2.8402566518	 0.077843
H	 0.8036174767	-3.4403043105	 3.9786378609	 0.1067
H	-0.1735915687	-3.4516296919	 2.4339401971	 0.113481
H	 2.7812190454	-4.3619278723	 2.7141314173	 0.082916
H	 0.9617789399	-4.1754592304	 0.2196029951	 0.127101
H	 2.6444663798	-4.7053440258	 0.2000422662	 0.116154
H	 1.4160067282	-5.7121965623	 0.9832200475	 0.110969
