15
gdb 127707	3.20626	1.44353	1.0028	8.5908	74.06	-0.2223	-0.0503	0.172	1112.6245	0.112963	-450.119939	-450.111803	-450.110859	-450.152595	30.39	
C	 0.0073808059	 1.4677168036	-0.0130496808	-0.345349
N	-0.0106425878	 0.0173630574	 0.0647460528	-0.083293
N	-0.0901605555	-0.611729599	-1.1584145319	-0.051086
N	-0.0768419729	-1.8605357942	-1.239767291	-0.240945
C	 0.0179566569	-2.7219065677	-0.0719179584	 0.426547
O	 0.0224192179	-3.9227972428	-0.2444881727	-0.364514
C	 0.0863213319	-2.0427257085	 1.1919104556	-0.368672
C	 0.0780914154	-0.6804904697	 1.2413557892	 0.495604
N	 0.2227327227	 0.0603206204	 2.3977194647	-0.580423
H	 0.8972439702	 1.872065969	 0.4781270411	 0.155223
H	 0.0230760701	 1.7218498546	-1.0722576706	 0.175937
H	-0.8892320741	 1.9074553287	 0.4403544334	 0.138264
H	 0.1452213905	-2.6291357542	 2.1003711762	 0.109295
H	 0.1335683359	-0.4846398649	 3.2433248743	 0.26965
H	-0.2826820971	 0.9325348474	 2.4475302779	 0.263762
