17
gdb 79396	2.23991	1.75422	1.56135	3.3333	67.9	-0.224	0.0611	0.2851	959.7354	0.133371	-458.869287	-458.860901	-458.859956	-458.901623	32.461	
C	 0.0220494322	 1.4648865384	-0.1456196713	-0.535669
C	 0.0238362886	-0.0235098798	-0.0372292358	 0.395301
O	 0.5928127948	-0.822284052	-1.1259313254	-0.357314
C	 0.1396867931	-1.8142747032	-0.1667616665	 0.018771
C	 0.5576784676	-0.9782793758	 1.0839112632	-0.191361
C	-0.8351559045	-1.1413472948	 1.7260555666	 0.009474
O	-1.3765085055	-0.0611396363	 2.4592496319	-0.445155
C	-1.1566351267	-1.059805679	 0.2290225294	 0.321459
O	-2.3701747283	-1.1747020853	-0.399690009	-0.466366
H	 1.0412689824	 1.8449495419	-0.2686779173	 0.131959
H	-0.5687138392	 1.7821473912	-1.0109601155	 0.134516
H	-0.4125246815	 1.8961557682	 0.7595947002	 0.140509
H	 0.2955444929	-2.8698769682	-0.3813704317	 0.097769
H	 1.5445090285	-0.9530100413	 1.5396773394	 0.087019
H	-1.0334530227	-2.1053954508	 2.2130698447	 0.07394
H	-1.0441955537	-0.1023354548	 3.361078883	 0.289009
H	-2.9809986178	-0.5559020084	 0.0175271741	 0.296137
