17
gdb 79486	2.34264	1.92384	1.25261	1.5865	80.04	-0.2201	0.0215	0.2417	1018.0597	0.134904	-380.708792	-380.701011	-380.700067	-380.740746	30.751	
C	 0.0860032558	 1.5178335376	-0.1544641438	-0.332361
N	 0.0370034168	 0.0625958496	-0.0371627019	-0.160301
C	-1.1164727899	-0.4915594203	 0.7260824423	-0.05771
C	-0.2902648596	-1.7320459508	 1.1872553829	-0.090156
N	-0.5912811044	-1.5959593392	 2.6456564797	-0.343232
C	-0.5418180799	-0.1813948631	 2.1619194217	-0.101245
C	 0.6781094566	-0.5020212225	 1.1992797439	 0.329423
C	 2.0779050785	-0.4442847452	 1.4782316597	 0.106488
C	 3.2564253823	-0.3715914109	 1.7065657423	-0.383602
H	 1.0992940392	 1.8179342752	-0.4374595329	 0.132514
H	-0.5948749599	 1.8331909025	-0.9513836453	 0.121306
H	-0.1875649895	 2.0579436008	 0.7673784577	 0.098404
H	-2.1478587687	-0.4486414865	 0.3725942927	 0.085602
H	-0.1368943149	-2.6797903959	 0.6729750188	 0.100694
H	-1.5605313202	-1.8682502353	 2.8293268683	 0.212185
H	-0.6900952104	 0.67104522	 2.8245336275	 0.096397
H	 4.2974358081	-0.3168453262	 1.9094695265	 0.185594
