17
gdb 77181	3.19091	1.15907	0.97414	3.8969	70.8	-0.2456	0.0216	0.2672	1217.2019	0.135434	-455.099987	-455.091298	-455.090353	-455.133929	31.676	
O	 0.4855710987	 0.8767261685	 0.5031303328	-0.43832
C	 0.1490530425	-0.3761651678	-0.0249687041	 0.045349
C	-1.3814180091	-0.6634839925	-0.2253934651	-0.021606
N	-1.0572855769	-0.9794618934	-1.6342699632	-0.342281
C	 0.235609546	-0.4793069079	-1.5450154794	 0.356891
N	 1.154046076	-0.0948032861	-2.3235018629	-0.559613
C	-1.9953995594	-1.7773126847	 0.5817359088	 0.059
C	-2.6233626778	-2.9551637906	-0.0308541045	-0.173693
O	-1.3218325408	-3.0347125789	 0.5493812571	-0.226234
H	 1.1207017741	 1.2677567467	-0.110079372	 0.301323
H	 0.6479899434	-1.1956590155	 0.5053899615	 0.116791
H	-1.9586528599	 0.2603121974	-0.1040438227	 0.092461
H	-1.6774791371	-0.863406456	-2.4244350434	 0.240785
H	 0.8942809718	-0.1679640156	-3.3082197059	 0.214296
H	-2.328986544	-1.4736340132	 1.5755558841	 0.104139
H	-3.4106984668	-3.4859833449	 0.5022772924	 0.117934
H	-2.6461787408	-3.0407599957	-1.1155264135	 0.112777
