18
gdb 49448	4.80814	1.17427	1.11151	4.2625	77.6	-0.2298	0.0198	0.2495	1121.9952	0.149649	-401.915754	-401.908728	-401.907784	-401.947359	27.777	
O	 0.0917587786	 0.0887268672	-0.5541031766	-0.321111
C	 0.0771984575	 1.2460901802	-0.1937817254	 0.128678
N	 1.0921363189	 1.8745645595	 0.4777169912	-0.072758
C	 2.550948799	 1.6316188975	 0.2621791185	-0.037851
C	 2.5688680917	 2.6622875459	-0.9232660982	-0.0117
C	 3.8972639677	 3.409362056	-0.9212399473	-0.248939
C	 4.1082582928	 3.5797640673	 0.6143501724	-0.246201
C	 2.8532870305	 2.8924671025	 1.1376504083	-0.006906
C	 1.6471096387	 3.239881141	 0.2056659261	-0.057269
H	-0.8160830478	 1.8988262803	-0.2878927611	 0.067865
H	 2.9857969155	 0.635393185	 0.3126774003	 0.107134
H	 2.112532891	 2.3677261822	-1.8685764391	 0.08932
H	 4.6945419905	 2.8292426309	-1.3951009863	 0.110483
H	 3.8322838314	 4.3668372338	-1.4467904488	 0.107247
H	 5.0200346188	 3.0915626235	 0.9707424139	 0.109449
H	 4.1587816402	 4.6292739336	 0.9191807685	 0.107114
H	 2.6717358441	 2.8298273244	 2.2099250948	 0.083884
H	 1.022444561	 4.1339201391	 0.1988661585	 0.091562
