11
gdb 1199	10.17342	1.10755	1.00502	3.0502	71.03	-0.2627	-0.079	0.1837	1072.1874	0.075267	-306.080007	-306.072425	-306.071481	-306.112041	25.723	
C	 0.0046410637	 1.5005644481	-0.0212170337	-0.480027
C	-0.0266914959	-0.0102423509	 0.0618967837	 0.199279
O	-0.0634783993	-0.6210840829	 1.1084881461	-0.26281
C	-0.0099566428	-0.7069021855	-1.2123424182	 0.455184
C	 0.0035714149	-1.3013489749	-2.2698194188	-0.340449
C	 0.0189144155	-1.9620474385	-3.455739658	 0.308782
C	 0.0326717113	-2.550148662	-4.5104552944	-0.536137
H	 0.9040336784	 1.8298470853	-0.5527726245	 0.151325
H	-0.8559383284	 1.8639901216	-0.593261196	 0.151356
H	-0.0104390854	 1.9203113195	 0.9855795569	 0.147636
H	 0.0446548979	-3.0673359198	-5.4382900831	 0.205862
