16
gdb 129872	3.01632	1.42757	1.10429	2.1378	72.3	-0.2071	-0.0427	0.1644	1085.1298	0.125347	-434.088526	-434.080361	-434.079417	-434.121588	30.013	
N	 0.3402209457	 1.3895320893	-0.0882115719	-0.621456
C	 0.0701256037	 0.0208369025	-0.0615955608	 0.386295
C	-1.1034239142	-0.7032011569	 0.0458539283	-0.309408
C	-0.6844671178	-2.0495176958	 0.0904279585	 0.009441
N	 0.6326500327	-2.1737677882	 0.015203281	-0.282013
N	 1.085516397	-0.887392806	-0.0680316062	 0.002455
C	 2.5014219289	-0.649327316	-0.0454755122	-0.246011
C	 3.0727502558	 0.0496084968	-1.2634146757	 0.164616
O	 2.4272650893	 0.6285727676	-2.0995494087	-0.23888
H	 0.8666087286	 1.6469092024	-0.918214865	 0.268869
H	-0.5106192318	 1.9338374089	-0.039487514	 0.251342
H	-2.1071168469	-0.3102482958	 0.0613231828	 0.093225
H	-1.2975026494	-2.9364508814	 0.1646591537	 0.108588
H	 2.7889829357	-0.0349029786	 0.8236848665	 0.153966
H	 2.9872927603	-1.6214291703	 0.0763695307	 0.162147
H	 4.1840423925	 0.0211625716	-1.3091588769	 0.096823
