19
gdb 112691	3.39681	0.97982	0.80075	3.304	71.71	-0.2499	-0.026	0.2239	1398.5191	0.158509	-460.187578	-460.178459	-460.177515	-460.221781	33.884	
O	-0.107990418	 1.4168244128	-0.1051416292	-0.422492
C	 0.0106388743	 0.0089223868	 0.0315669625	-0.095014
C	-1.391143642	-0.5776181182	 0.0265421705	 0.01995
C	-1.4147793696	-2.1229958738	 0.1262615537	-0.272592
C	-2.8539908139	-2.4204924454	 0.5609230491	 0.065011
O	-3.0822106602	-3.6866059332	 1.1087741627	-0.445161
C	-3.1322160065	-1.29913255	 1.5624557009	 0.364169
O	-3.8553586122	-1.4441608953	 2.5181863073	-0.331955
C	-2.2711829027	-0.0961092258	 1.2059421377	-0.32845
H	 0.7728264922	 1.8013124643	-0.0740301476	 0.290051
H	 0.5980149697	-0.4266447711	-0.7926974864	 0.091104
H	 0.5163545877	-0.2602259251	 0.9742043052	 0.086559
H	-1.8677647621	-0.2783363313	-0.914854008	 0.091477
H	-1.1361431708	-2.6153346308	-0.8080277526	 0.112603
H	-0.7315468814	-2.4738170642	 0.9105298638	 0.110621
H	-3.5201384995	-2.2377466507	-0.3055575608	 0.090954
H	-3.6468274062	-3.5341062563	 1.8822388443	 0.290613
H	-1.6678381782	 0.1611647934	 2.0851324772	 0.138334
H	-2.8776572509	 0.7846038439	 0.9810732897	 0.144218
