17
gdb 133630	3.66098	0.93609	0.88321	2.5899	62.28	-0.2287	0.0784	0.3071	1317.6999	0.132725	-549.492446	-549.483984	-549.48304	-549.526649	30.595	
F	 0.1335998554	 0.0679004976	-0.1238075688	-0.084004
C	 0.0442733507	 1.4046569813	-0.0001180682	 0.287246
F	 1.2886052261	 1.8890906863	 0.0252571257	-0.070129
F	-0.554061448	 1.8711643938	-1.1089170208	-0.0799
C	-0.7542104259	 1.7945706802	 1.2338607516	-0.290939
N	-0.1605364182	 1.2709247304	 2.4344311755	-0.069786
C	-0.3582657889	-0.1507440629	 2.7971966529	-0.160426
C	-0.4480375132	 0.2795082395	 4.2804538269	-0.231348
C	-0.704031728	 1.7062209608	 3.7370373894	-0.159674
H	-0.7600649426	 2.8884153632	 1.2785900943	 0.132427
H	-1.7948981725	 1.4577995836	 1.065267215	 0.100693
H	-1.3105796136	-0.5588620504	 2.4209645013	 0.088963
H	 0.4522464163	-0.8189656147	 2.4957023558	 0.115302
H	-1.2358480597	-0.170946711	 4.8838843746	 0.108169
H	 0.5063754286	 0.1938774898	 4.8022540534	 0.118518
H	-0.1725452692	 2.5452233426	 4.1979479676	 0.107725
H	-1.7797740973	 1.9449462998	 3.6992702739	 0.087164
