19
gdb 68817	2.85014	1.30929	1.11203	1.7103	76.42	-0.2372	-0.0237	0.2135	1160.2048	0.156721	-423.007902	-422.99866	-422.997715	-423.04185	34.351	
C	 0.1335140728	 1.5409513377	 0.0884350294	-0.4975
C	 0.0120683223	 0.0456594279	 0.0657674641	 0.296641
C	 1.1661625878	-0.8823271006	-0.2512773129	-0.391811
C	 0.4671418674	-1.0053537712	 1.0757394248	 0.367214
O	 1.1096212464	-0.797810627	 2.2804770017	-0.467919
C	-0.850845643	-1.765078415	 0.9341720771	-0.156434
C	-1.3016015536	-0.7246836726	-0.1612651579	-0.315681
C	-0.810646988	-3.2278784417	 0.5831935835	 0.137842
O	 0.1828516266	-3.9114137971	 0.6245833666	-0.251211
H	 1.0969626575	 1.8453855018	 0.508722908	 0.129391
H	 0.0597168572	 1.9641027173	-0.9204651903	 0.12003
H	-0.6551977305	 1.9954150744	 0.698811173	 0.117566
H	 1.090470951	-1.6527131166	-1.0147841297	 0.110676
H	 2.1430859626	-0.4142168102	-0.1773523865	 0.113486
H	 1.7382137083	-1.5176731552	 2.4082565369	 0.293237
H	-1.4799135622	-1.6492455764	 1.8252531846	 0.107647
H	-2.1933524735	-0.1677957763	 0.1340270177	 0.110374
H	-1.4497320789	-1.1223160936	-1.1708745029	 0.102727
H	-1.7893050401	-3.6634286959	 0.270811823	 0.073725
