21
gdb 101133	3.41742	1.02248	0.89845	2.0989	78.46	-0.2467	0.0604	0.3071	1355.0165	0.18237	-424.188997	-424.179851	-424.178907	-424.223254	35.007	
O	 0.1197820929	 1.4169957358	-0.1685709544	-0.425501
C	 0.1073586759	 0.0078577867	-0.0928307402	-0.062699
C	-1.3203890042	-0.5185659496	 0.091396977	-0.054838
O	-2.1474719774	 0.0105706249	-0.9503283052	-0.437802
C	-1.3858740552	-2.0201127678	 0.1931491208	 0.393344
C	-1.5667851243	-2.9463953697	-0.9806554004	-0.342511
C	-2.58768522	-2.9643905567	 0.127684326	-0.101401
C	-2.0561006187	-3.769938417	 1.3175897357	-0.221522
C	-0.8179341161	-2.8159992084	 1.3829364752	-0.299299
H	-0.6549820573	 1.6510232476	-0.6962394958	 0.283519
H	 0.541257668	-0.453302721	-0.999471944	 0.074067
H	 0.7374919043	-0.2842972652	 0.7542532971	 0.110783
H	-1.7279163395	-0.0739945776	 1.0084699896	 0.095376
H	-1.8273976856	-0.3537141201	-1.784531073	 0.281988
H	-1.9167018409	-2.4936284471	-1.9036755375	 0.098522
H	-0.8941271992	-3.7884846221	-1.1320144556	 0.105036
H	-3.6249877962	-2.7194274286	-0.0659761097	 0.093918
H	-2.6829895607	-3.6905898956	 2.2082217604	 0.106544
H	-1.8549361508	-4.8294339015	 1.1276958729	 0.09756
H	 0.1687663031	-3.26674477	 1.2350838822	 0.097434
H	-0.796647068	-2.2326678872	 2.3073114288	 0.107483
