21
gdb 59249	2.73847	1.28203	1.15748	1.5781	82.75	-0.2261	0.0215	0.2476	1185.3552	0.182851	-387.0856	-387.076803	-387.075859	-387.119128	34.169	
C	 0.5669603283	 0.2631664932	-1.3375579364	-0.39735
C	-0.0007981899	 0.1510770799	 0.0799966293	 0.119596
O	 0.0327486287	 1.413050713	 0.7484837677	-0.436074
C	-1.4009540099	-0.4272962974	 0.0738298569	-0.027683
C	-1.7340617034	-1.9021305961	 0.0656699866	-0.075992
C	-0.6839417383	-2.9266469428	 0.5060018987	-0.274472
C	-0.4132387164	-2.5669848077	 1.9531152711	-0.077112
C	-1.1859709285	-1.5612072088	 2.3709939225	-0.064774
C	-2.0728871822	-1.0520715754	 1.2863636137	-0.106421
H	 1.5672646585	 0.7039157848	-1.311042066	 0.120568
H	 0.6274134425	-0.7186211765	-1.8185471077	 0.117202
H	-0.0700969738	 0.9011353348	-1.9634279805	 0.101012
H	 0.6569265079	-0.4837316465	 0.6797193271	 0.091968
H	-0.5781939385	 2.000762397	 0.2903133898	 0.270813
H	-2.0844871189	 0.1622874995	-0.5391434011	 0.070453
H	-2.5106730812	-2.2317610508	-0.6147905588	 0.082112
H	-1.0713731419	-3.9499050375	 0.4119583164	 0.106521
H	 0.2288088657	-2.8931753674	-0.104085664	 0.108965
H	 0.3466069897	-3.0651828157	 2.5449082853	 0.092339
H	-1.170158172	-1.1278787807	 3.364298169	 0.09639
H	-3.0869367864	-0.7459152489	 1.5212858504	 0.081939
