16
gdb 33433	2.21446	1.99629	1.1934	1.724	82.63	-0.2354	-0.0005	0.2348	1027.8063	0.122628	-363.44864	-363.440711	-363.439767	-363.480676	31.459	
C	-0.0794924578	-1.1937043958	-0.1109569574	-0.414208
C	-0.0486024259	 0.0056594753	-0.0398903261	 0.247384
C	-0.0549952502	 1.4596148728	 0.0317495353	 0.040714
C	-1.0048592063	 1.9880482395	-0.9365857168	 0.247466
C	-1.8092660894	 2.3919116779	-1.7330174763	-0.414246
C	 0.047653456	 2.1465832138	 1.4410014316	-0.094796
C	 1.4910348637	 1.6116365683	 1.463931395	-0.191624
N	 1.3748115628	 2.1434362295	 0.0187290547	-0.169055
C	 0.657593908	 3.3392881131	 0.6824056457	-0.191624
H	-0.1015934014	-2.2535082088	-0.1786344684	 0.196826
H	-2.5151949182	 2.7493754355	-2.4416343128	 0.196827
H	-0.718843486	 2.1301915235	 2.2221800064	 0.081026
H	 2.2204014538	 2.1687507421	 2.0544295362	 0.10779
H	 1.6532610938	 0.5361521728	 1.5294916893	 0.124867
H	 0.0254615175	 3.9104410986	 0.0030857508	 0.124869
H	 1.3454361597	 3.9824769417	 1.2339670228	 0.107786
