17
gdb 17442	4.05368	1.77465	1.67486	1.2259	68.02	-0.2181	0.0627	0.2808	850.6129	0.141554	-363.765834	-363.758512	-363.757568	-363.79683	28.97	
C	 0.0957678236	 1.4921280098	 0.0594420676	-0.477433
C	-0.1210016988	 0.0108465839	-0.023684219	 0.335988
C	-0.996263866	-0.7630811207	 0.88197425	-0.297049
N	 0.4839087468	-0.9311412293	 0.9806490142	-0.188617
C	 1.0137843476	-1.7528519942	-0.1665233843	-0.071029
C	 0.1056641675	-2.2353323405	-1.2646164996	 0.094557
O	-1.1914204836	-2.7609872799	-1.1796569842	-0.418798
C	 0.4413837583	-0.7853345377	-1.2231008431	-0.180614
H	 1.122994958	 1.7555586378	-0.2168644024	 0.121512
H	-0.5835117275	 2.0228138938	-0.6185138694	 0.121105
H	-0.0845579014	 1.8500308564	 1.0768635474	 0.127851
H	-1.3762919232	-0.2272960475	 1.7484669447	 0.111653
H	-1.6178918914	-1.5645585819	 0.5137687425	 0.145178
H	 2.0168428868	-2.144816048	-0.0413330912	 0.099084
H	 0.7083190145	-2.7308225575	-2.0318020094	 0.096422
H	-1.1213325169	-3.6476228239	-0.8078221876	 0.28784
H	 0.9383889057	-0.2851624107	-2.0455005061	 0.092349
