19
gdb 108358	2.5901	1.65767	1.30677	1.3655	74.09	-0.2399	0.0575	0.2974	1033.9909	0.159306	-422.956013	-422.948028	-422.947084	-422.988426	31.33	
O	 0.0514924888	 1.3588375296	-0.1481515939	-0.421217
C	-0.0247501296	-0.0485219749	 0.0168770467	-0.180903
C	-1.4755780625	-0.4548945297	-0.0384213226	 0.455022
O	-1.619324634	-1.9022871363	 0.0312284647	-0.348352
C	-2.3830767899	-1.9256843726	-1.2075580002	-0.118371
C	-2.3811688869	-0.3878440907	-1.2830483301	-0.121386
C	-3.4226317979	 0.3959953232	-0.450456459	-0.061918
C	-3.8244876159	-0.31605771	 0.8123160615	-0.304538
C	-2.4952203829	 0.3753970864	 0.7760729121	-0.081855
H	 0.9740462129	 1.6189809771	-0.0765238332	 0.292621
H	 0.5279883658	-0.5843315457	-0.7696262066	 0.092887
H	 0.3852563366	-0.3716842195	 0.9883708202	 0.097439
H	-1.8173980774	-2.4202171734	-2.0067754707	 0.099957
H	-3.3509569418	-2.4254762473	-1.0880716169	 0.102505
H	-2.0547078712	 0.0952964404	-2.2023127665	 0.084013
H	-4.0021466945	 1.2238198479	-0.8395468649	 0.087683
H	-4.5873562972	 0.1948621959	 1.3912659983	 0.109394
H	-3.8707231687	-1.3978581503	 0.8726468425	 0.127181
H	-2.2273036838	 1.1825049898	 1.4456307185	 0.089839
