20
gdb 109746	2.62981	1.082	0.99322	2.0117	77.64	-0.2301	-0.0289	0.2012	1318.9614	0.168106	-440.262148	-440.251794	-440.25085	-440.297825	36.878	
C	-1.8120282494	 0.1326070521	 1.7608069318	-0.338819
N	-0.9032951604	-0.532868318	 0.8297296682	-0.102114
C	-0.9216118647	-0.2450574752	-0.5879729309	-0.026893
C	-1.8697017887	 0.7336192849	-1.2530523514	-0.108289
O	-3.1069165361	 0.1032644825	-1.5661553983	-0.419018
C	 0.2598043061	 0.1736746735	 0.2649147508	-0.142012
C	 0.5653554653	 1.6174454231	 0.533718839	 0.395503
C	 2.0450429806	 1.9510912634	 0.6035158339	-0.483084
O	-0.2842838634	 2.4705416967	 0.7032333462	-0.329771
H	-1.9827133535	 1.1963797307	 1.57281789	 0.150366
H	-2.7655874199	-0.4064882564	 1.7376123794	 0.116503
H	-1.4023635026	 0.0281076363	 2.7701650682	 0.127616
H	-0.7555006674	-1.1322389733	-1.2001873939	 0.10547
H	-2.003403137	 1.6386047269	-0.6549688981	 0.131093
H	-1.441536673	 1.0358850017	-2.2149350612	 0.113871
H	-3.5700976908	-0.0605524122	-0.7387595357	 0.285646
H	 1.1488933931	-0.4520655936	 0.2121913646	 0.092486
H	 2.5581904882	 1.6190050163	-0.3062287443	 0.142029
H	 2.1749005176	 3.0256765936	 0.7332489726	 0.143194
H	 2.5117368561	 1.419502997	 1.441125589	 0.146223
