22
gdb 65565	3.24052	1.02435	0.95411	1.9071	82.4	-0.2335	0.0782	0.3117	1357.302	0.193226	-404.30013	-404.290702	-404.289758	-404.335066	35.029	
C	 0.2004994961	 1.6783251211	 0.8906800696	-0.428145
C	 0.0758558554	 0.2479440622	 0.3927458572	 0.420055
C	-1.1671775113	-0.4547789095	 0.9472857248	-0.190288
N	-2.3975393593	 0.2468642578	 0.6005028035	-0.066836
C	-3.1463971466	-0.2461750304	-0.5523315369	-0.218109
C	-3.6432896889	-0.4727148791	 0.8319205639	-0.217654
C	 0.3700919794	 0.0242134639	-1.1161620418	-0.323235
C	 1.579512465	-0.7896680843	-0.6224700476	-0.068586
O	 1.2489374147	-0.5398632531	 0.7579926127	-0.32165
H	 1.0977069021	 2.1523223601	 0.482533175	 0.108163
H	-0.680093845	 2.2580849785	 0.6020705557	 0.13358
H	 0.2753273323	 1.6896731118	 1.9832224613	 0.118947
H	-1.1674613318	-1.5048921809	 0.6046065621	 0.078053
H	-1.0798807534	-0.4731946219	 2.0405359218	 0.110005
H	-3.5963363051	 0.511415258	-1.1875538874	 0.117079
H	-2.7569110288	-1.1139275556	-1.0828621268	 0.108671
H	-3.5809034942	-1.4886592596	 1.2194939734	 0.110406
H	-4.4635775057	 0.1172893907	 1.2309555085	 0.117444
H	-0.3850211035	-0.5418485379	-1.6631361618	 0.104992
H	 0.6091613443	 0.9308365915	-1.6744066564	 0.108077
H	 1.5628812355	-1.8606202652	-0.8605241576	 0.098413
H	 2.5662084687	-0.3891957481	-0.8861692232	 0.100618
