20
gdb 77691	2.67521	1.34562	1.19734	3.5559	75.1	-0.2424	0.0664	0.3087	1135.0405	0.169449	-440.246837	-440.237635	-440.236691	-440.280187	35.886	
C	 0.6375529465	 1.3541124728	-0.0930120321	-0.449015
C	-0.1382086605	 0.0453718547	-0.0663874154	 0.37021
O	-1.5333077073	 0.2571122814	-0.1320459275	-0.479844
C	 0.4363795343	-1.0588993274	-1.028313344	-0.386861
C	 1.1152376112	-1.6857350834	 0.1874831012	 0.300488
C	 1.8502213706	-2.9437454462	 0.3940231953	-0.313371
N	 2.5579110096	-1.6418430074	 0.460471602	-0.373654
C	 0.2305279468	-0.8788253297	 1.1447810679	 0.06356
O	 0.8601786327	-0.3445664367	 2.2691241459	-0.434033
H	 1.7155690257	 1.1840815092	-0.0205477545	 0.117943
H	 0.4483551132	 1.8928911051	-1.0301791636	 0.10001
H	 0.3371184293	 1.9849697253	 0.7471669223	 0.13997
H	-1.7135795451	 0.8813523528	-0.8432025294	 0.274384
H	-0.367688642	-1.6814870288	-1.4297584837	 0.113319
H	 1.0849038988	-0.7269971954	-1.8452502968	 0.094657
H	 1.7773264305	-3.4693228502	 1.3424772254	 0.127807
H	 2.0350244757	-3.5818422705	-0.4665426978	 0.117014
H	 3.0830913123	-1.4822336032	-0.395663723	 0.233813
H	-0.669277393	-1.4237170147	 1.4530398203	 0.092081
H	 1.8105609005	-0.4442535976	 2.1000995575	 0.291521
