19
gdb 85679	2.22861	1.374	1.17013	4.8116	75.89	-0.2613	0.0028	0.2641	1164.3483	0.157751	-419.200539	-419.190809	-419.189864	-419.235225	35.693	
C	-0.7806376836	 1.3336308241	-0.0259726345	-0.414591
C	 0.0152316608	 0.0480108277	-0.0554581129	 0.161539
O	 1.2616221032	 0.1875417434	-0.7905208821	-0.305306
C	 1.9955468833	-0.5127554236	 0.2245660144	 0.008172
C	 3.2266800831	 0.174646839	 0.6146940009	 0.277471
N	 4.1973447256	 0.7039445546	 0.9516388258	-0.330776
C	 0.7728412669	-0.4773945544	 1.2031980384	 0.157456
C	 0.9079688817	 0.4986176688	 2.3687980506	-0.454454
N	 0.3417655916	-1.8191394364	 1.5845473899	-0.548504
H	-0.2049351965	 2.1584405683	 0.4000741842	 0.13073
H	-1.0653360329	 1.6090600668	-1.046135921	 0.13805
H	-1.6998819594	 1.2045303468	 0.5555914286	 0.119024
H	-0.5831582035	-0.7639045593	-0.4900176138	 0.08572
H	 2.2349896058	-1.5406206318	-0.074174833	 0.124605
H	 1.2779664894	 1.4787422538	 2.0565377768	 0.142707
H	-0.0600624681	 0.6367115608	 2.8616818421	 0.115277
H	 1.6129181643	 0.1051212003	 3.1090769487	 0.128158
H	 0.8766871839	-2.1394023281	 2.3891870107	 0.232273
H	-0.6268457055	-1.7866108608	 1.8946617962	 0.23245
