21
gdb 10179	3.27571	1.06378	0.85126	3.826	79.36	-0.3106	0.0355	0.3461	1420.4409	0.187563	-329.161984	-329.151995	-329.151051	-329.19718	35.122	
C	-0.0079415116	 1.6068995173	 0.0157855522	-0.382412
C	 0.0167488873	 0.0764400213	-0.0150920058	-0.184614
C	-1.3873188734	-0.535598309	 0.0112252996	-0.176681
C	-1.407942326	-2.0808960522	-0.0002024073	-0.132509
C	-2.8387088019	-2.6482376885	 0.1514858231	-0.182482
C	-2.8958810345	-4.1737220121	 0.2494825418	-0.398223
C	-0.776091001	-2.5982466536	-1.2202162829	 0.28919
N	-0.2927139805	-2.999654326	-2.191008393	-0.343428
H	 1.0053417344	 2.0190206467	-0.0002398855	 0.118246
H	-0.5451801375	 2.0113146647	-0.8490482354	 0.119276
H	-0.505332095	 1.9794257716	 0.9182978313	 0.113905
H	 0.5454627551	-0.2660595186	-0.9123214519	 0.125295
H	 0.590790811	-0.2998788033	 0.8421021277	 0.097003
H	-1.9160130698	-0.2087808008	 0.9153125704	 0.10108
H	-1.9703359451	-0.1672698668	-0.8420851667	 0.112218
H	-0.803966811	-2.4409364661	 0.8447485838	 0.120519
H	-3.271007515	-2.1983241351	 1.0527144935	 0.104795
H	-3.4447190194	-2.3018977254	-0.6937136461	 0.11595
H	-3.9284797805	-4.5150609686	 0.3660826073	 0.120368
H	-2.4848446136	-4.6452565663	-0.6481564358	 0.144876
H	-2.3251336221	-4.5376487392	 1.1108948398	 0.117627
