16
gdb 128305	4.66026	0.94598	0.7942	1.0024	84.58	-0.1961	-0.0143	0.1818	1393.703	0.124986	-396.91496	-396.906228	-396.905284	-396.948489	32.17	
C	 0.1241764483	 1.3638349077	 0.1498225919	-0.326283
N	-0.0174774608	-0.0294002957	-0.231840965	-0.383768
C	-1.2517391309	-0.6393869913	-0.0934686043	 0.419366
N	-1.333981444	-1.9676040674	 0.03817305	-0.307611
N	-2.6577958559	-2.2198819834	 0.0847332965	-0.287898
C	-3.42189557	-1.0980687195	 0.0013337437	 0.269743
C	-2.5317556308	-0.03730083	-0.1151116992	-0.426559
C	-4.8307660843	-1.1386406524	 0.0372866739	 0.276805
C	-6.0337215183	-1.1891011229	 0.0703232609	-0.430357
H	 1.1664605571	 1.6625176103	 0.0167075078	 0.126015
H	-0.4831435171	 1.9967809014	-0.5057713954	 0.133341
H	-0.170142426	 1.5724236791	 1.1906150321	 0.113052
H	 0.7333248585	-0.6293761031	 0.0783798546	 0.241644
H	-2.980508355	-3.1662527807	 0.1886191554	 0.276394
H	-2.7892953052	 1.0035999786	-0.2066240712	 0.110195
H	-7.0946161258	-1.2259195606	 0.0981896382	 0.195921
