15
gdb 123640	4.06599	1.58574	1.24178	4.9898	70.32	-0.2355	0.0009	0.2364	952.1422	0.117198	-412.955324	-412.949188	-412.948244	-412.985757	24.825	
C	-0.0609779807	 1.5570546427	-0.0029110931	-0.361427
C	 1.4484012182	 1.8947660243	-0.0379737795	-0.022516
N	 2.192605483	 1.4558077928	 1.1554555517	-0.324944
C	 2.2706480873	 0.6398057089	-0.0884074549	-0.204832
C	 1.2705454666	-0.4533719569	-0.0755829099	 0.35599
C	 0.0009597107	 0.0580140243	 0.0026779032	 0.339145
N	-0.7823825761	-1.0324124537	 0.0808222206	-0.32515
N	-0.0265612848	-2.1690237926	 0.0265200261	-0.12707
N	 1.2261446849	-1.8069961995	-0.0602174844	-0.300782
H	-0.5385733449	 1.9765014533	 0.8887196552	 0.13625
H	-0.5786939044	 1.9579949963	-0.8823248374	 0.121965
H	 1.761677036	 2.7997298246	-0.547153369	 0.096325
H	 3.0379901514	 2.0177850215	 1.2393280912	 0.233746
H	 3.2068745554	 0.5736659948	-0.6293274015	 0.105306
H	-1.7831031825	-1.1238269908	 0.1471328817	 0.277996
