19
gdb 98355	3.03116	0.82176	0.67506	2.8404	73.93	-0.2502	-0.038	0.2122	1641.5424	0.155122	-460.193218	-460.182673	-460.181728	-460.230668	36.102	
C	-0.0949508084	 1.5019986637	-0.0618031835	-0.381254
C	-0.213796892	 0.015244203	 0.2721442598	-0.287083
C	 0.7448746331	-0.4381116912	 1.3526479975	 0.365032
O	 1.3636017431	 0.3375608429	 2.0513302671	-0.322487
C	 0.9611354309	-1.9424373368	 1.5765280453	 0.027617
O	 1.9288829087	-2.1379749639	 2.5703747855	-0.437126
C	-0.3565295866	-2.6547530375	 1.9655955021	-0.301443
C	-0.1313479768	-4.1358372666	 2.2050588262	 0.155269
O	-0.7569429672	-5.0049094783	 1.6533534371	-0.239578
H	 0.9011994505	 1.7391131965	-0.4450002745	 0.13275
H	-0.8309604814	 1.7836349962	-0.8191356187	 0.119225
H	-0.2579212614	 2.1137705659	 0.8281065101	 0.140663
H	-1.2294729342	-0.22166389	 0.6187050311	 0.142366
H	-0.0618240886	-0.6136343766	-0.6142861014	 0.129307
H	 1.3131220571	-2.3640933569	 0.6195357458	 0.102775
H	 2.1724823326	-1.2433505217	 2.8642144302	 0.296411
H	-0.7169497481	-2.2080680274	 2.9022140533	 0.128834
H	-1.1239012216	-2.5464908704	 1.194880963	 0.120956
H	 0.6681375902	-4.3670458009	 2.9377360742	 0.107765
