15
gdb 43814	2.08308	1.73424	1.05202	2.8918	72.45	-0.2455	-0.0376	0.2079	1106.2066	0.10912	-420.56659	-420.558206	-420.557261	-420.600309	30.998	
O	-0.0180896696	 0.0345280165	-0.2834090329	-0.273311
C	-0.0414347208	 1.1957784356	-0.023179988	 0.406192
C	-1.1541233375	 2.1986270546	 0.3352739545	-0.442428
C	-0.0550397349	 3.2276498147	 0.6363346138	 0.433421
C	-0.0888298136	 4.6853557725	 0.6976052702	-0.263915
O	 0.0275936735	 3.8782637459	 1.8817663866	-0.247388
C	 1.0748190218	 2.2901471331	 0.1170164853	-0.432676
C	 2.2159248507	 2.0250536333	 0.9570275921	 0.342454
C	 3.1538706701	 1.7930686533	 1.6713210487	-0.417103
H	-1.8190855871	 2.4348243748	-0.501213197	 0.142885
H	-1.7579415194	 1.9097650022	 1.200159165	 0.158628
H	 0.8009792185	 5.2569745511	 0.4379694817	 0.128066
H	-1.035259519	 5.2119285714	 0.5835495123	 0.123958
H	 1.3888849479	 2.5883483258	-0.8930837496	 0.138355
H	 3.9813936994	 1.5884592152	 2.3045573373	 0.202863
