23
gdb 122415	4.16067	0.61486	0.58735	2.5201	83.37	-0.2408	0.0816	0.3224	1977.5286	0.20419	-425.41401	-425.403495	-425.402551	-425.450868	37.62	
C	 0.5258084725	 1.4577826212	 0.2781438268	-0.397368
C	 0.0708634644	 0.0401529373	-0.0005041521	 0.181561
C	 0.5265257473	-0.6509710775	-1.3046626566	-0.329666
C	 1.0801604738	-1.7444450767	-0.3672982674	 0.165963
C	 2.5504425787	-2.112380377	-0.4583707072	-0.210915
C	 3.0063654097	-2.9976736786	 0.7052673944	-0.163444
C	 4.4925504269	-3.3232506205	 0.6539475778	-0.075519
O	 4.7975959886	-4.1598896674	 1.7597109113	-0.420805
O	 0.7781150348	-0.9393969351	 0.8001350274	-0.31402
H	 1.5995188604	 1.5635705042	 0.0947955929	 0.116415
H	-0.0110846732	 2.1652712456	-0.3636212284	 0.114076
H	 0.3279472764	 1.725013757	 1.3211393661	 0.127185
H	-1.0127361679	-0.0467271947	 0.1674389373	 0.07044
H	-0.2551230368	-0.9496263202	-2.0046360183	 0.1045
H	 1.3042134364	-0.1013924856	-1.8424460505	 0.101854
H	 0.4667907577	-2.6585584225	-0.3652978749	 0.068213
H	 2.7198656046	-2.6228199557	-1.4172273801	 0.092515
H	 3.1408055088	-1.1868975021	-0.4807890314	 0.093337
H	 2.7839341662	-2.496208863	 1.6529824488	 0.127594
H	 2.444261197	-3.9398865074	 0.7059129081	 0.102133
H	 4.7327388336	-3.822047702	-0.3004120077	 0.078997
H	 5.078443777	-2.3895950551	 0.686724808	 0.082939
H	 5.7392713931	-4.3528637141	 1.7398377356	 0.284017
