18
gdb 60040	2.87521	0.98084	0.81796	7.0821	71.28	-0.2481	-0.0317	0.2164	1418.8094	0.144563	-476.2571	-476.246992	-476.246048	-476.292894	35.13	
C	 0.0590746626	 1.4971326412	-0.0723861434	-0.41434
C	 0.044612305	-0.0248774544	 0.0476767977	 0.142242
O	 0.6984901598	-0.476823191	 1.2251625417	-0.418943
C	-1.3864283748	-0.5867747771	-0.0297284073	-0.225488
N	-1.4311313533	-2.0465993104	 0.0129454572	-0.076217
C	-1.4168900143	-2.6780056459	 1.2687588479	 0.184045
O	-1.363022725	-3.8572564599	 1.4701977436	-0.264719
C	-1.4340346444	-2.745528283	-1.2012612237	 0.167102
O	-1.4295851296	-3.9349832064	-1.3461505637	-0.262175
H	 1.0836212042	 1.8693490989	 0.0035600367	 0.139807
H	-0.3588744403	 1.8271482386	-1.028605282	 0.12746
H	-0.5343767635	 1.9588525773	 0.7273005555	 0.115102
H	 0.6239145486	-0.4619524112	-0.7750639911	 0.105032
H	 0.3880713735	 0.0550979785	 1.966753454	 0.283346
H	-1.9808184199	-0.1913484095	 0.8023020974	 0.118494
H	-1.8708811217	-0.2494081255	-0.9511219607	 0.127319
H	-1.4805637811	-1.9254561791	 2.0768505034	 0.072762
H	-1.454011906	-2.0337625913	-2.052568643	 0.079171
