21
gdb 95417	2.85997	1.12648	0.83963	0.9748	94.51	-0.2223	-0.0097	0.2126	1403.768	0.182648	-349.956099	-349.947031	-349.946086	-349.989542	35.313	
C	-0.0025369747	 1.5567806602	 0.047928522	-0.406552
C	 0.025431739	 0.0270767788	-0.0029195109	 0.031071
C	 0.6948907198	-0.4990372289	-1.2799981247	-0.195277
C	 0.603020174	-2.0280447964	-1.3681771994	-0.265441
C	 0.9235183106	-2.6986997888	-0.0626112414	-0.12195
C	 0.9944902561	-2.0515284971	 1.1122594471	 0.125734
C	 0.727029783	-0.5600051418	 1.2321717934	-0.29313
C	 1.3325458602	-2.7356795952	 2.3146004032	 0.221816
C	 1.6143883052	-3.2637268979	 3.360954749	-0.416636
H	 1.01305916	 1.9689037614	 0.0145480935	 0.113234
H	-0.5581273278	 1.9714467942	-0.7997534326	 0.110309
H	-0.4760942617	 1.9166739299	 0.9676948783	 0.11208
H	-1.0126082622	-0.3365205737	 0.0017006911	 0.074528
H	 0.2390467881	-0.0427943314	-2.1659608073	 0.090153
H	 1.7508141647	-0.1960659165	-1.2781464838	 0.097611
H	-0.4068350326	-2.3282181623	-1.6883497547	 0.112371
H	 1.2749214061	-2.4078625378	-2.1486433261	 0.106801
H	 1.1059052156	-3.7696100251	-0.0827895273	 0.090991
H	 1.6808056022	-0.0393622972	 1.4036080701	 0.111137
H	 0.127201407	-0.3759795772	 2.1310954728	 0.111901
H	 1.8661201171	-3.7458614171	 4.272575638	 0.18925
