18
gdb 55304	2.63574	1.45253	1.05334	3.3795	72.14	-0.2288	0.0224	0.2512	1145.3873	0.146599	-439.07917	-439.070135	-439.069191	-439.113861	33.03	
N	 0.157259084	 1.1116786219	-0.4304021446	-0.524158
C	-0.0990724595	 0.0465506339	 0.3806148931	 0.394196
O	 0.6111591209	-0.241066347	 1.3260529155	-0.365656
C	-1.3502314955	-0.7547832497	 0.0586194043	-0.251658
C	-1.8963861626	-0.8930667276	-1.382829934	-0.109025
O	-1.8267230763	-2.3294046365	-1.3159454957	-0.303833
C	-1.2036448514	-2.2763942816	-0.0260570747	 0.469858
C	-0.0570529778	-3.1590638195	 0.3335206696	-0.334938
C	-1.4185798041	-3.3329840323	 0.9990104423	-0.335321
H	 0.9455840957	 1.6979541742	-0.2087114929	 0.264244
H	-0.4500480228	 1.3821086531	-1.1829763386	 0.261989
H	-2.120022583	-0.4524692858	 0.7756144081	 0.119668
H	-2.9193467008	-0.5385344664	-1.550173758	 0.108911
H	-1.2420959713	-0.4961473467	-2.1710330631	 0.09643
H	 0.2333186929	-3.8998195059	-0.4038941252	 0.118099
H	 0.747679674	-2.728516877	 0.9167108554	 0.148236
H	-1.5262124008	-3.0307139081	 2.0357231262	 0.122014
H	-2.0176763017	-4.1877786691	 0.7034158523	 0.120945
