17
gdb 44427	3.5858	1.43976	1.41685	3.3245	73.56	-0.2412	-0.0054	0.2358	966.4497	0.138456	-417.90697	-417.900206	-417.899261	-417.937928	27.806	
O	-0.1892687459	 0.0409036401	 0.3594169528	-0.3083
C	-0.1244044607	 1.2093147065	 0.1523962372	 0.321338
N	-1.1408283862	 2.23672482	 0.1104060044	-0.387103
C	-0.2516223252	 3.047657127	-0.771787418	 0.035891
C	 0.7774348839	 4.2611454795	-0.7786134058	-0.070697
C	 1.0682719613	 4.5833604484	 0.6805378776	-0.192866
C	 1.2302510349	 3.1196937175	 1.1767537041	-0.19985
C	 0.9192414248	 2.3652107074	-0.1480505138	 0.110361
N	 1.8615985844	 3.1926415335	-1.071470759	-0.404966
H	-2.0967526252	 1.9884532367	-0.1208777482	 0.246693
H	-0.3813660273	 2.7440718649	-1.817085318	 0.087376
H	 0.6902905209	 5.0670976429	-1.5084379097	 0.080503
H	 1.9766774021	 5.1780936887	 0.7912707038	 0.113312
H	 0.2388442825	 5.1103845406	 1.1579703832	 0.107744
H	 2.2523864422	 2.8872035131	 1.4816476476	 0.118468
H	 0.548755776	 2.8612092783	 1.9864494513	 0.118747
H	 1.7235743873	 2.875976285	-2.0331748394	 0.223349
