18
gdb 106212	3.08967	1.8116	1.32188	1.4517	75.99	-0.2251	-0.0008	0.2243	974.3386	0.148218	-401.851956	-401.844622	-401.843678	-401.883646	29.526	
C	 0.1356085691	 0.713136333	-0.6831039655	-0.234699
O	-0.1398564757	 0.5868117185	 0.7037947313	-0.319123
C	 0.5792741941	-0.3197924981	 1.4461369345	 0.443
C	 0.1702806871	-0.3385775459	 2.9091769549	-0.151047
C	 0.9544604217	-1.2573909222	 3.4724654841	-0.117304
C	 1.802470665	-1.750675186	 2.3165937986	-0.079311
C	 0.8978513473	-1.820134405	 1.0338670497	-0.097292
N	 2.0189218489	-1.3431034407	 0.1395597796	-0.355909
C	 2.1538643483	-0.5226923107	 1.4016473649	-0.097288
H	-0.0378378192	-0.2245184501	-1.2216512346	 0.122776
H	-0.5494031261	 1.4808422062	-1.052044159	 0.114426
H	 1.1696288693	 1.0227168588	-0.868225746	 0.122782
H	-0.6018575809	 0.2900919753	 3.3283212647	 0.111093
H	 0.9979247101	-1.5906267583	 4.4996035712	 0.107907
H	 2.5605140818	-2.5225895224	 2.4509119794	 0.069206
H	 0.2054099432	-2.6130839975	 0.7366299097	 0.078319
H	 2.7571751648	-2.0536020552	 0.1248070544	 0.204145
H	 2.9465401513	 0.2184676804	 1.5392723081	 0.07832
