20
gdb 90657	3.8767	1.0275	0.97145	3.5523	80.79	-0.2397	-0.0227	0.217	1299.6079	0.169438	-403.118275	-403.10917	-403.108226	-403.151907	34.17	
C	 0.0325864397	 1.5020991637	-0.0513441478	-0.41545
C	 0.0876961581	-0.0215924843	-0.0550883009	-0.007223
C	 1.2362983509	-0.6322640637	-0.9023815927	-0.17889
N	 1.9641422372	-1.1318113002	 0.3212453157	-0.178407
C	 0.8108829097	-0.6273943962	 1.1520950862	-0.066613
C	 1.0511996577	-2.095305315	 1.0135686989	 0.203381
C	 0.138100696	-3.0744380836	 0.3150002392	-0.495061
C	 1.7902095863	-2.6620171076	 2.1915745347	 0.141753
O	 1.5553876427	-3.7315365691	 2.6943259912	-0.269904
H	 1.0188831455	 1.9327128529	 0.152441279	 0.126454
H	-0.3074350105	 1.8802835696	-1.0210297459	 0.121607
H	-0.6599553103	 1.8700418376	 0.7131163826	 0.121479
H	-0.912340829	-0.4260629353	-0.2424622722	 0.081424
H	 0.9854333635	-1.4134357631	-1.6247828392	 0.110635
H	 1.8526349693	 0.1223875278	-1.396587368	 0.116897
H	 0.9719424748	-0.1060169655	 2.0934737214	 0.094679
H	-0.6056823269	-2.5939366317	-0.3209416709	 0.122292
H	 0.7199420277	-3.7713211372	-0.2972919092	 0.135047
H	-0.3811934879	-3.6660379688	 1.072597748	 0.149323
H	 2.5937668554	-1.9947540702	 2.5719007897	 0.086579
