17
gdb 74767	4.14639	1.1397	1.06056	2.0539	80.83	-0.2331	-0.0063	0.2268	1177.9529	0.134562	-384.609313	-384.601268	-384.600323	-384.641699	31.274	
C	 0.040621916	 1.4609523359	 0.060327146	-0.51745
C	-0.0035923205	-0.0235908576	-0.0209681154	 0.348987
C	-0.0152558072	-0.8837871656	-1.0456379023	-0.214546
C	-0.0493147238	-2.2347742621	-0.3201625444	 0.024305
O	-1.0241418472	-1.9846867781	 0.742891585	-0.279363
C	-0.0352381317	-1.0023263586	 1.1737517437	-0.036137
C	 1.0868005234	-2.0312755939	 0.7579054259	-0.202908
C	 1.3156421024	-3.1315318431	 1.6704916648	 0.312202
C	 1.5418726889	-4.0414659047	 2.4234975368	-0.417015
H	 0.9257970166	 1.8050475895	 0.6103807337	 0.131641
H	 0.0636488316	 1.9150696978	-0.9340110411	 0.13154
H	-0.8320606826	 1.8559104488	 0.5954966469	 0.136872
H	 0.0089278637	-0.7119504712	-2.1117006448	 0.109325
H	-0.1918070766	-3.1672553707	-0.8626995125	 0.090848
H	-0.1607545538	-0.6380663426	 2.1926201139	 0.087371
H	 2.0242953793	-1.6045940247	 0.392856775	 0.100601
H	 1.7261541216	-4.8475399691	 3.0896521287	 0.193728
