23
gdb 102570	2.01073	1.16465	0.86687	2.7272	82.37	-0.2519	0.0707	0.3225	1463.0177	0.202893	-425.408883	-425.397785	-425.396841	-425.445736	39.44	
C	-1.9430010785	-0.463271597	-2.1829463639	-0.395251
C	-1.3233448235	-1.6873094882	-1.5003420113	-0.186087
C	-0.3227854655	-1.3651092018	-0.3721234238	-0.010383
C	-0.9961262127	-0.7231492626	 0.8418191837	-0.085969
O	 0.0121120801	-0.3911562916	 1.78817681	-0.422237
C	 0.3937682666	-2.6326957185	 0.0516673933	 0.075649
O	 1.3102178021	-3.2161288414	-0.882582599	-0.280807
C	 1.8231807935	-2.7394566145	 0.3722394329	 0.084931
C	 2.801290188	-1.5943081946	 0.3453901098	-0.415757
H	-1.167144164	 0.2014311854	-2.5789762609	 0.117967
H	-2.5769028649	-0.7678269494	-3.0215808669	 0.114839
H	-2.5662646134	 0.1244011305	-1.5015204041	 0.114669
H	-2.1187899645	-2.3348831889	-1.1059022533	 0.090808
H	-0.788413917	-2.2833011363	-2.2475044439	 0.122073
H	 0.4146913381	-0.6528325299	-0.7581396628	 0.081503
H	-1.5523239557	 0.17268923	 0.5319127406	 0.08986
H	-1.7260889372	-1.4302805101	 1.2717992742	 0.083774
H	-0.410341275	 0.026290324	 2.5442314237	 0.287172
H	-0.2701610772	-3.3658276897	 0.5213444783	 0.075967
H	 2.1009495618	-3.5460443808	 1.0548903501	 0.080754
H	 2.5456272287	-0.8653645723	-0.4256786032	 0.125854
H	 2.8052475103	-1.0853371879	 1.3138822093	 0.133386
H	 3.8119298599	-1.9629807144	 0.1409539471	 0.117283
