21
gdb 102810	1.64686	1.34417	0.87283	3.2234	76.19	-0.274	0.0018	0.2758	1416.0269	0.179186	-461.394708	-461.383879	-461.382934	-461.431331	38.213	
C	-0.0658775268	 1.5680924971	-0.2217610592	-0.405182
C	 0.0453708934	 0.0455209747	-0.1227114687	-0.175591
C	 0.6812331615	-0.4475692548	 1.1758199008	 0.087573
O	-0.1298619253	-0.0094160378	 2.2926306688	-0.210383
C	 0.3921716223	 0.8417999535	 3.1960146499	 0.17346
O	-0.2150874912	 1.2220786728	 4.1510472691	-0.276386
C	 0.7571491796	-1.9830198972	 1.2639789639	 0.138812
C	 1.5490400183	-2.4701508142	 2.4788187126	-0.42158
O	-0.5454097298	-2.5448346831	 1.2281150632	-0.433851
H	 0.915674928	 2.0497351729	-0.1410360276	 0.111467
H	-0.4983711055	 1.8613772946	-1.1825167997	 0.123262
H	-0.7064957323	 1.9728208543	 0.5668403883	 0.136868
H	-0.9388733502	-0.4231148289	-0.2172676313	 0.126772
H	 0.6546973377	-0.3392076351	-0.9498376993	 0.103422
H	 1.6896416229	-0.0236649721	 1.2864960496	 0.082402
H	 1.4293578162	 1.1420898449	 2.9516850281	 0.081128
H	 1.2501073715	-2.3364654153	 0.3503414234	 0.092048
H	 1.090330789	-2.1256294249	 3.4115143923	 0.128973
H	 1.5641288982	-3.5625443061	 2.4927017075	 0.132798
H	 2.5832060592	-2.1095628752	 2.4516396657	 0.11205
H	-1.035516877	-2.1582339001	 1.9643975527	 0.291938
