21
gdb 87871	3.11074	1.27396	1.24281	1.5322	82.52	-0.2203	0.0766	0.2968	1155.4313	0.182299	-387.046075	-387.03763	-387.036686	-387.079214	32.891	
C	 0.0313450738	 1.5483821725	 0.3646142676	-0.403171
C	-0.0361621357	 0.0444837807	 0.2117595464	-0.077162
C	 1.1786724219	-0.728601312	-0.297044023	-0.379152
C	 0.7456676787	-0.8403058194	 1.1296481546	 0.467666
O	 1.5568346996	-0.3076833244	 2.1879623464	-0.325365
C	 1.2779394674	-1.4595509423	 3.0162397636	 0.121178
C	 0.0752744888	-1.2500743749	 3.9651974776	-0.231292
C	-0.876234157	-1.845566235	 2.8779900108	-0.232091
C	 0.3388808647	-2.0662585926	 1.9334000334	-0.180424
H	 0.9934906852	 1.85132562	 0.7864682697	 0.133288
H	-0.095749855	 2.0519480366	-0.5997752126	 0.11325
H	-0.751058215	 1.9121894843	 1.039472862	 0.115043
H	-1.0027407703	-0.3446505674	-0.1027446494	 0.082758
H	 1.0259163207	-1.5739784796	-0.9608634471	 0.108078
H	 2.0837078133	-0.1589157336	-0.4854880188	 0.118655
H	 2.1924776325	-1.9154230743	 3.4028291613	 0.076086
H	 0.1260592408	-1.8517273667	 4.876801011	 0.100517
H	-0.0867726509	-0.2053763317	 4.2385975098	 0.111325
H	-1.3544836004	-2.7771024181	 3.18892536	 0.101391
H	-1.6475214583	-1.1758828746	 2.4893609755	 0.103463
H	 0.4710274452	-3.0424584774	 1.4677833713	 0.075957
