24
gdb 13883	3.64384	1.33426	1.04708	0.062	84.76	-0.3003	0.0807	0.381	1225.3602	0.224646	-314.299816	-314.290658	-314.289714	-314.334047	34.643	
C	-0.0546519979	 1.5693552346	 0.1251213526	-0.390913
C	 0.0175755059	 0.037230593	 0.0379758722	 0.023707
C	 0.8391585972	-0.5195771246	 1.2100586883	-0.393096
C	-1.3843294061	-0.5926421759	-0.0369184167	 0.083631
C	-2.2304211246	-0.1277305183	-1.2548589266	-0.219387
C	-3.1452901834	-1.3244002788	-1.6451374459	-0.207375
C	-2.847067849	-2.4309745385	-0.6090764731	-0.203809
C	-1.4159426871	-2.130651723	-0.1438497274	-0.218371
H	 0.9483188881	 2.008062976	 0.1564076255	 0.106386
H	-0.581608649	 2.0037880238	-0.7292462847	 0.113504
H	-0.5802105674	 1.8827909718	 1.0356430422	 0.108459
H	 0.5409292679	-0.2235395398	-0.8950132768	 0.064552
H	 0.340150113	-0.3206800022	 2.1665690032	 0.108524
H	 0.9875050726	-1.6001276483	 1.129956532	 0.113112
H	 1.8279582829	-0.0503919376	 1.2513461967	 0.106108
H	-1.9233648188	-0.3159994469	 0.8824213373	 0.059664
H	-2.8070772853	 0.7723370477	-1.0254338113	 0.096567
H	-1.5688278541	 0.1323977467	-2.0893229391	 0.093561
H	-4.2042753676	-1.0519856108	-1.6612722985	 0.093522
H	-2.8990796317	-1.6751137745	-2.6526451693	 0.096776
H	-3.5319294348	-2.344992672	 0.2434833445	 0.094139
H	-2.967984868	-3.4391722914	-1.0160578055	 0.089243
H	-0.6941996661	-2.4633885987	-0.9035328991	 0.088931
H	-1.1585257168	-2.6343544423	 0.7919805094	 0.092567
