17
gdb 113687	2.79825	1.02976	0.88129	1.1817	66.04	-0.2694	-0.0106	0.2589	1346.5413	0.133652	-496.095204	-496.085542	-496.084598	-496.130897	33.131	
C	-0.5547733208	 1.5646677802	-0.439887511	-0.24331
O	-0.9204056232	 0.2448598268	-0.8725648993	-0.217236
C	-1.1607789367	-0.6297225217	 0.1161368188	 0.410227
O	-1.0847636015	-0.3713333802	 1.2914769698	-0.361972
C	-1.5549451221	-1.9953575408	-0.3743162451	-0.060149
O	-1.9393603627	-2.1830191367	-1.7306872031	-0.246447
C	-0.7388540806	-2.8241572438	-1.290701728	 0.044133
C	 0.5398480819	-2.3819807354	-1.9594868168	-0.103024
O	 0.6415443134	-2.9470751569	-3.2563789295	-0.416015
H	-0.4150793932	 2.1445512739	-1.3515987997	 0.139277
H	-1.3479980424	 1.9971129029	 0.1742102032	 0.147738
H	 0.367936575	 1.5364991876	 0.1446764542	 0.144429
H	-2.1621409826	-2.5144312912	 0.3652217431	 0.125253
H	-0.835850266	-3.9054055195	-1.1778296452	 0.111383
H	 0.5929019174	-1.2880778087	-1.9850637575	 0.113043
H	 1.3978967895	-2.759329206	-1.3926804978	 0.118295
H	-0.0956757253	-2.6023094305	-3.7724840461	 0.294375
