19
gdb 22423	2.8066	1.23535	0.99853	2.3818	81.54	-0.2212	0.0147	0.2359	1245.7719	0.157204	-419.131123	-419.12175	-419.120806	-419.164828	35.335	
C	-0.0186502969	 1.5184424507	 0.0487038906	-0.505362
C	 0.1230019396	 0.0299444115	 0.0002424508	 0.27993
C	 0.6195238956	-0.809858214	-1.1995531121	-0.368963
C	 1.2520656018	-1.7405682546	-0.1660849543	 0.443157
N	 2.08937467	-2.6894587511	-0.1747927171	-0.271906
O	 2.4108628957	-3.0671242162	-1.4944461862	-0.392389
C	 0.7280769013	-0.9446827278	 0.984396385	 0.177636
C	 1.3282864475	-0.7947702867	 2.345953696	-0.512519
N	-0.761610241	-0.8813203517	 0.7560143745	-0.399633
H	 0.8642348064	 2.0127986126	-0.3698128929	 0.129117
H	-0.8907429235	 1.8483073841	-0.528349995	 0.133987
H	-0.1484046651	 1.871521087	 1.0776561743	 0.119249
H	-0.1580610659	-1.2325781549	-1.8397715918	 0.125425
H	 1.3793458113	-0.3152174657	-1.8119118524	 0.123306
H	 3.0455297121	-3.7771383496	-1.351122532	 0.305352
H	 2.412174104	-0.6613813711	 2.2779568633	 0.136184
H	 0.906002599	 0.0697890936	 2.8694500317	 0.115169
H	 1.1398367292	-1.6838876942	 2.9572519863	 0.141319
H	-1.131273071	-0.346372552	 1.5450185814	 0.220941
