18
gdb 112596	3.35084	0.95401	0.86897	2.5945	73.4	-0.2648	0.0091	0.2739	1372.983	0.145609	-439.072222	-439.062807	-439.061863	-439.106786	34.163	
C	 0.2049380285	 1.2484053088	-0.2832733075	-0.245578
O	 0.0329494791	-0.0181663682	 0.3178819117	-0.236211
C	-1.2719099882	-0.5077156244	 0.2153618609	 0.164902
C	-1.7308689739	-1.1117318117	-1.1459154235	-0.301163
C	-2.3178309118	-2.3220735862	-0.3684379037	 0.261022
O	-2.0254964021	-3.5539073775	-0.9825623437	-0.451555
C	-1.4616967124	-1.8896993467	 0.8695152159	-0.324175
C	-3.7615130018	-2.1948603591	-0.1146687523	 0.224613
N	-4.8948792613	-2.1221314399	 0.1026093089	-0.336674
H	 1.2436624227	 1.5442286803	-0.1215364387	 0.133276
H	 0.0092699912	 1.2196774999	-1.3653984633	 0.112472
H	-0.4564738901	 2.0036456352	 0.1682782343	 0.110975
H	-1.9958964231	 0.2318008703	 0.5883163442	 0.082966
H	-2.4084130525	-0.5466027108	-1.7859638857	 0.123375
H	-0.869533603	-1.4639316135	-1.718611257	 0.134313
H	-2.4007893102	-4.2655221277	-0.4506630259	 0.293466
H	-0.5203617746	-2.443514333	 0.8496703068	 0.132786
H	-1.9162096964	-1.9426988058	 1.8592077286	 0.121189
