18
gdb 25712	4.03139	0.78488	0.77361	2.1561	86.73	-0.2009	0.0348	0.2358	1572.904	0.147747	-364.818207	-364.808993	-364.808049	-364.855183	32.371	
C	 0.0199386203	 1.5075323657	 0.0026685641	-0.496539
C	 0.0139055131	 0.0525670383	 0.0345167625	 0.043556
C	 0.0020662827	-1.1504381387	 0.0604053027	 0.112692
C	-0.0142399862	-2.6129379526	 0.0917816447	-0.347881
N	-1.3472285964	-3.1949414662	 0.0253695384	 0.052456
C	-2.162256327	-3.4407480705	 1.1038232321	-0.092571
C	-3.3667973856	-3.9086361258	 0.6338852707	-0.166284
C	-3.2823303591	-3.9400597208	-0.7861040693	-0.166287
C	-2.02936897	-3.4901852269	-1.1301688452	-0.092571
H	 0.5888266691	 1.8854218014	-0.8537802591	 0.149945
H	-0.9992226388	 1.9012889856	-0.0759472319	 0.155506
H	 0.4678480437	 1.9246215733	 0.9111569934	 0.149944
H	 0.5707326763	-3.0144537367	-0.7435818167	 0.143661
H	 0.4665787242	-2.9757228728	 1.0074472031	 0.14366
H	-1.810495477	-3.2591066055	 2.1071625418	 0.113747
H	-4.2081433874	-4.2072404878	 1.2402895579	 0.09161
H	-4.0466760553	-4.2673099824	-1.474171268	 0.09161
H	-1.5607243765	-3.3520261877	-2.0917837912	 0.113747
