23
gdb 115618	2.34896	1.16952	0.97849	1.2243	86.36	-0.2469	0.0787	0.3256	1364.8274	0.204565	-388.265763	-388.255858	-388.254914	-388.301062	37.314	
C	 0.2091010023	 1.5554851947	 0.2964867825	-0.382932
C	 0.1684292464	 0.0263106903	 0.213885147	-0.179734
C	 0.5112935372	-0.5057307986	-1.1768959375	-0.044169
C	 2.0222730124	-0.4232348361	-1.575068256	-0.22398
C	 2.1386829958	-1.9731520405	-1.4717867779	-0.30696
C	 0.61643269	-2.0369171615	-1.3112263089	 0.345938
C	-0.2185067017	-3.0951878042	-0.6327989144	-0.402341
C	-0.3146655925	-2.8756591806	-2.1243173222	 0.04112
O	-1.433989384	-2.2245315989	-2.6537079989	-0.421043
H	 1.2006977971	 1.9440753178	 0.0401580296	 0.11549
H	-0.5099191968	 2.0050805223	-0.3973479124	 0.11475
H	-0.033998291	 1.9071930526	 1.304127535	 0.108557
H	 0.859463195	-0.4048383158	 0.9509031871	 0.088772
H	-0.8327564722	-0.325065053	 0.4946638638	 0.092719
H	-0.1675628018	-0.0618199622	-1.9117777478	 0.081287
H	 2.1831522473	-0.04466289	-2.5869024961	 0.101692
H	 2.6585255979	 0.144875972	-0.8911743779	 0.093823
H	 2.5541279834	-2.4883714619	-2.3429234232	 0.095977
H	 2.683922381	-2.3080972001	-0.5838678191	 0.098601
H	 0.2725814323	-3.9927599226	-0.268087345	 0.106469
H	-1.0600816469	-2.7597077366	-0.0340653721	 0.110689
H	 0.1284771367	-3.6295160582	-2.7776801113	 0.078261
H	-2.1857708281	-2.8223068692	-2.5881794744	 0.287016
