18
gdb 63288	1.90399	1.65064	1.10829	5.3076	77.11	-0.2651	-0.0421	0.2229	1153.6111	0.145241	-401.979766	-401.970523	-401.969579	-402.013778	34.193	
C	-0.2338236581	 1.54168349	 0.0278830251	-0.442313
C	-0.026006795	 0.0274473933	-0.0176685815	 0.291957
C	-1.321166554	-0.7160368378	-0.323418944	-0.456636
C	 1.2117745075	-0.3593049164	-0.8989066672	-0.38283
C	 2.0411217323	-0.4944970596	 0.3767277963	 0.402662
O	 3.2031268505	-0.4981536656	 0.6351324821	-0.268237
C	 0.752849439	-0.5089279769	 1.2565707156	-0.308723
C	 0.7244944753	 0.2340890931	 2.4970640426	 0.295974
N	 0.6985829741	 0.8552307976	 3.4722580058	-0.331037
H	 0.6980093937	 2.0740562413	 0.2448317701	 0.13383
H	-0.6079792832	 1.8985950444	-0.9371191196	 0.122288
H	-0.9584356461	 1.8176576141	 0.7995561492	 0.140754
H	-1.7245035466	-0.4066886419	-1.2935849571	 0.127941
H	-1.1641476561	-1.7994905103	-0.3562757223	 0.116605
H	-2.0828730619	-0.5072081341	 0.4351447018	 0.133812
H	 1.0986329174	-1.3272471805	-1.3996878609	 0.136463
H	 1.5678789709	 0.3735239969	-1.6265707117	 0.140953
H	 0.4860532805	-1.5555922677	 1.4475582258	 0.146538
