19
gdb 88128	2.62031	1.4406	1.08862	1.1341	76.65	-0.2226	-0.0302	0.1924	1158.379	0.160682	-419.204316	-419.195777	-419.194833	-419.237599	32.11	
C	-0.096180435	 1.4709395074	-0.2024493162	-0.39953
C	 0.0401336548	-0.0159278841	 0.0149384023	-0.039847
N	 1.390047185	-0.5792616295	-0.0120203995	-0.370695
C	 0.6404460359	-0.575934566	 1.2629606034	 0.218866
C	 1.1344106855	 0.1894244746	 2.482956656	-0.274308
N	 1.2718038661	-0.8088227128	 3.5728039885	-0.301798
C	 0.2773489599	-1.8553834045	 3.2943454283	-0.287929
C	 0.1290827987	-1.8968615699	 1.7704271473	 0.329511
O	-0.2591397476	-2.8102743934	 1.0814441103	-0.333709
H	 0.742005688	 2.0115496517	 0.2441857993	 0.12973
H	-0.1103862018	 1.6982631874	-1.2734811435	 0.12859
H	-1.0280811751	 1.8458437751	 0.2334984732	 0.121673
H	-0.7450564462	-0.63163367	-0.422494951	 0.103748
H	 1.3459325983	-1.5256505796	-0.3935158591	 0.241286
H	 2.0853651245	 0.6931697489	 2.3030283186	 0.125856
H	 0.401148848	 0.9469266845	 2.7887179754	 0.112587
H	 2.1949962699	-1.2258412924	 3.5034750525	 0.227656
H	 0.5644678511	-2.8257272941	 3.7041509921	 0.134766
H	-0.69337059	-1.5834673532	 3.7351911223	 0.13355
