14
gdb 125769	3.26886	1.45896	1.01515	3.86	68.04	-0.2471	-0.0551	0.192	1096.1808	0.100215	-470.028008	-470.019685	-470.01874	-470.06106	30.162	
C	-0.0303320241	 1.4821562018	 0.0282817153	-0.46021
C	-0.0134047621	-0.0125403076	-0.0140785662	 0.255992
N	-0.0572808123	-0.5678916048	-1.1689469756	-0.139305
O	-0.040933446	-1.9829202243	-1.1735651262	-0.261416
C	 0.0127801175	-2.6451176793	-0.0008328774	 0.535013
N	-0.0141656471	-3.9776264316	-0.1991384229	-0.550163
N	 0.0663154075	-2.1386769617	 1.189706319	-0.396424
C	 0.0570069184	-0.7655537574	 1.2853207345	 0.333868
O	 0.1042479984	-0.1558363149	 2.3339304865	-0.34368
H	 0.8643667872	 1.844613717	 0.5430106463	 0.158077
H	-0.0793961716	 1.8978245007	-0.978844005	 0.141195
H	-0.886207866	 1.8226223673	 0.6186130988	 0.158085
H	 0.0846697056	-4.3503037006	-1.1272106896	 0.281573
H	 0.1393271045	-4.5676134045	 0.6003211424	 0.287396
