20
gdb 23371	2.62308	1.0202	0.87303	1.7143	78.86	-0.2424	0.0115	0.2539	1407.7658	0.168151	-440.229842	-440.219556	-440.218611	-440.265706	37.317	
C	-0.0436571952	 1.551453261	 0.1787630226	-0.480294
C	 0.0006642865	 0.0559759356	 0.0426405217	 0.39856
N	 0.1746841018	-0.7665415879	 1.0046667631	-0.185187
O	 0.365278558	-0.1058465073	 2.2282768049	-0.397653
C	-0.1453162784	-0.5761179819	-1.3235067611	 0.019309
O	-1.3412211888	-0.0566843749	-1.9020196737	-0.443296
C	 1.0531396483	-0.294171327	-2.2098148133	-0.018662
C	 2.2594940214	-1.1896644919	-2.1489969669	-0.25963
C	 1.3556414524	-1.2369086758	-3.3551041505	-0.287689
H	-0.6195730369	 1.8311810034	 1.0640072268	 0.147855
H	 0.9650320421	 1.9586135557	 0.3149481259	 0.137647
H	-0.4947964522	 1.9985174169	-0.7076727597	 0.136207
H	 0.4277665278	-0.8416671693	 2.8462235519	 0.305154
H	-0.2219684895	-1.6628282679	-1.1717296654	 0.07857
H	-1.3119513864	-0.266015913	-2.8417301746	 0.284071
H	 1.2322486077	 0.7619146858	-2.3924372929	 0.0915
H	 3.2389115897	-0.7374164004	-2.2552787134	 0.115571
H	 2.227340299	-2.0248996911	-1.4575750091	 0.126475
H	 0.7225181485	-2.1109928289	-3.4747443472	 0.115636
H	 1.7145686442	-0.8162362411	-4.287749169	 0.115856
