20
gdb 89123	4.51727	0.64461	0.59955	2.8617	77.73	-0.2328	-0.0297	0.2031	1839.6803	0.167431	-440.240215	-440.229935	-440.228991	-440.277399	35.136	
C	-0.3638996413	 1.4192672044	 0.2980053787	-0.3122
N	-0.0019513271	 0.0148453792	 0.1715588012	-0.067879
C	 1.3345519187	-0.3129912442	-0.3000609336	-0.260854
C	 0.9396812443	-0.5847563867	 1.1135966694	 0.00404
C	 1.5803345066	 0.1831450451	 2.2392295397	-0.083832
O	 0.6423199372	 0.2925157451	 3.2972708326	-0.250985
C	 1.1554215523	 0.9293657301	 4.4372588398	-0.140346
C	 0.0665999012	 0.958978346	 5.4964174591	 0.138818
O	 0.2043884465	 1.4633723538	 6.5785227752	-0.23679
H	 0.4838747636	 2.0984452211	 0.480967663	 0.096202
H	-0.8480007743	 1.7378796081	-0.6303735444	 0.124955
H	-1.0780505935	 1.532218265	 1.1185005793	 0.133348
H	 1.4112034033	-1.1238979698	-1.0195804657	 0.118825
H	 2.0318129568	 0.5086081328	-0.4691954411	 0.104859
H	 0.6721155293	-1.6025684729	 1.393206936	 0.098242
H	 2.4785209226	-0.3562039029	 2.584334077	 0.098465
H	 1.9093717012	 1.1822148505	 1.917081176	 0.092747
H	 2.0328982401	 0.4006283178	 4.8483624182	 0.121755
H	 1.4757159563	 1.9646657545	 4.2289886024	 0.121331
H	-0.8775492139	 0.4656005031	 5.1769337874	 0.099299
