17
gdb 87072	4.31537	0.70966	0.67777	2.189	94.34	-0.2286	-0.0105	0.2181	1665.1293	0.132444	-384.621437	-384.611602	-384.610657	-384.656097	36.208	
C	-0.0656989706	 1.5665901731	-0.0393678254	-0.456539
C	-0.0165773541	 0.0450104312	-0.0109347461	 0.055171
C	 1.3400911272	-0.6457711829	-0.2082855141	-0.355174
C	 0.6955918914	-0.6458418443	 1.1463575942	 0.088268
O	 1.1891140169	 0.1817670998	 2.1533859487	-0.420006
C	-1.1683701787	-0.6215382694	-0.5443961997	 0.386001
C	-2.1517489783	-1.1653231232	-0.9990375992	-0.237199
C	-3.2497111638	-1.7855070704	-1.5074774994	 0.295214
C	-4.2258816393	-2.3357297386	-1.9592486354	-0.584214
H	 0.8022461934	 1.9829883073	 0.4739902696	 0.132465
H	-0.0820094266	 1.9300102146	-1.0708764121	 0.126101
H	-0.9653640506	 1.9303160003	 0.4650730925	 0.133492
H	 1.3683623361	-1.56760776	-0.7769826066	 0.128251
H	 2.185354627	 0.019173399	-0.3522710471	 0.121963
H	 0.249249803	-1.5770210348	 1.4917376186	 0.105568
H	 2.0487376742	-0.157719229	 2.4240834658	 0.292942
H	-5.0831221573	-2.8199090527	-2.3560229445	 0.187694
