21
gdb 120906	3.21841	0.93697	0.8464	0.9913	78.83	-0.2337	0.0801	0.3139	1443.8899	0.181582	-424.175293	-424.165888	-424.164944	-424.209903	34.977	
C	 0.3553996133	 1.6854986182	-0.6733337737	-0.421853
C	 0.4105797164	 0.1931305872	-0.4267486219	-0.012351
C	 1.6721064071	-0.6075133289	-0.4327893127	 0.074782
O	 2.7587241375	 0.1262850715	 0.14512561	-0.308453
C	 2.1156902518	 0.0619829639	 1.4581887207	 0.143409
C	 2.1173232668	 1.3599160601	 2.243882595	-0.210474
C	 3.530663181	 1.8521476068	 2.5365020924	-0.072357
O	 3.4236901389	 3.0305379939	 3.3221470054	-0.42296
C	 0.8514036399	-0.5332041958	 0.8404560937	-0.193223
H	 1.3256380399	 2.1470213448	-0.481461395	 0.138151
H	 0.0961072717	 1.8817769553	-1.7193457339	 0.11231
H	-0.3961354304	 2.1769552741	-0.0467035168	 0.116987
H	-0.4083486878	-0.3623557839	-0.883035943	 0.088912
H	 1.9208709007	-1.4235014153	-1.10234933	 0.098966
H	 2.633117922	-0.7146420239	 2.0414852215	 0.079421
H	 1.5677946854	 2.1442138355	 1.7194015636	 0.114105
H	 1.5997966698	 1.184371134	 3.1956467061	 0.107089
H	 4.0951223442	 1.0680392343	 3.0687030826	 0.081396
H	 4.0530582985	 2.0447044319	 1.5879921104	 0.10694
H	 4.3078965655	 3.3862541197	 3.4490600405	 0.285128
H	 0.2329456579	-1.2841179235	 1.314411115	 0.094077
