20
gdb 40146	2.58842	1.59147	1.28288	2.7248	78.78	-0.2379	0.059	0.2969	1072.7889	0.171795	-403.093443	-403.085307	-403.084362	-403.126341	31.516	
C	 0.5052848653	 1.3411092477	-0.2776304346	-0.321449
N	 1.3423771224	 0.2066379424	 0.1636867778	-0.353667
C	-0.0983507053	 0.0241398132	 0.0039385817	 0.293358
C	-0.9795646862	-0.5329220535	 1.1249800273	-0.308162
C	-1.2385395552	-1.7783387566	 0.2195877605	-0.300329
C	-0.6596772683	-1.0005563704	-0.9882461536	 0.399382
C	-1.5380588784	-0.5859861997	-2.1906686671	-0.355327
C	-0.4832425645	-1.3227507373	-3.0358374376	-0.075944
O	 0.2878031486	-1.6509708243	-1.8570976209	-0.317125
H	 0.4156615554	 2.1493577533	 0.4437193783	 0.117793
H	 0.567953893	 1.6665275507	-1.3144770819	 0.104832
H	 1.8011310575	-0.2161331624	-0.6434911275	 0.238892
H	-0.4714739591	-0.712255921	 2.0738385143	 0.116629
H	-1.8797186702	 0.0620702238	 1.3033098626	 0.102754
H	-0.5840812199	-2.6150231312	 0.4763254799	 0.122728
H	-2.2657820807	-2.1396127662	 0.1278641987	 0.096068
H	-2.5396091448	-1.0195401553	-2.2044091434	 0.112943
H	-1.607275881	 0.4901729686	-2.3586899082	 0.113788
H	-0.8312847995	-2.2239026821	-3.5534961988	 0.107617
H	 0.0893615509	-0.7076875998	-3.7393892376	 0.105219
