18
gdb 52462	4.16859	0.53699	0.50284	4.6194	71.62	-0.2616	0.0053	0.2669	2084.4431	0.146043	-476.266777	-476.256576	-476.255632	-476.305928	33.576	
O	 0.8731223242	 0.6980508123	 1.6955300772	-0.321304
C	 0.5013832615	 1.4794736627	 0.8461258679	 0.155306
N	 1.1585484678	 1.7348535561	-0.3184020856	-0.273014
C	 2.4311647986	 1.1136970106	-0.6431854667	-0.168681
C	 3.6360779424	 2.0017508807	-0.3022935723	-0.193087
C	 4.9577026954	 1.3103984598	-0.6189737166	-0.08781
O	 6.0551901093	 2.2077726563	-0.4142673189	-0.175594
C	 6.8285845966	 2.0262747127	 0.6736543701	 0.17018
O	 7.7415633137	 2.7455353408	 0.9438324728	-0.271044
H	-0.4341561884	 2.0667532807	 0.9289017628	 0.080299
H	 0.7894189337	 2.4459742513	-0.9292443395	 0.250856
H	 2.4734946363	 0.1837258889	-0.0698306507	 0.150657
H	 2.4374275396	 0.8535646931	-1.7081438522	 0.11261
H	 3.5862910043	 2.9416811982	-0.8639904595	 0.114775
H	 3.6018937414	 2.2584114674	 0.762071103	 0.130076
H	 5.0871169016	 0.4105466713	-0.0029923342	 0.11974
H	 5.0036097334	 1.0057847099	-1.6695530961	 0.125548
H	 6.5270906687	 1.1429027571	 1.2711139282	 0.080485
