12
gdb 2809	3.89424	2.41376	1.64903	4.0519	60.93	-0.2658	0.0098	0.2756	725.5233	0.089468	-286.206129	-286.199427	-286.198483	-286.236765	24.275	
C	-0.092033187	-1.2110188022	-0.0067903268	-0.439338
C	-0.0456347416	-0.0104425829	 0.0165738005	 0.335062
C	 0.0014339889	 1.4203613243	 0.0367526165	-0.187452
C	 0.4866234888	 2.1580814468	 1.2620178704	-0.284605
C	 1.3493980102	 2.1610801044	 0.0188832106	-0.170387
C	 2.5801350432	 1.4232988443	-0.0048226658	 0.296545
N	 3.5805940445	 0.8437691554	-0.0299980488	-0.328898
H	-0.1213431228	-2.2724188508	-0.0269907552	 0.20859
H	-0.7719877317	 1.915894491	-0.5425666825	 0.13244
H	-0.0040185159	 3.0872811573	 1.5260031622	 0.138131
H	 0.8259432822	 1.5565592852	 2.095717499	 0.157235
H	 1.3712770413	 3.0748081072	-0.5650865501	 0.142678
