18
gdb 70048	3.69062	1.11592	0.95216	2.2778	81.96	-0.2419	-0.0642	0.1777	1245.161	0.147776	-401.956098	-401.947918	-401.946973	-401.988805	31.197	
C	 0.0485336618	 1.5140560064	-0.0359868743	-0.465943
C	-0.0544804034	 0.0151474467	 0.081452632	 0.322575
C	-1.4000041085	-0.6701645366	-0.1838922649	-0.390066
C	-1.3568328253	-1.910916296	 0.6840871654	 0.208796
C	-2.3983775389	-2.9351434528	 0.6883796654	 0.075215
O	-3.3822368029	-2.9103059942	-0.0202978735	-0.276296
C	-0.2459775779	-1.9383797905	 1.4464478149	-0.163994
C	 0.6521161226	-0.7999846254	 1.1360604463	-0.102866
N	 1.1493577569	-0.7438007326	-0.2650213935	-0.356828
H	 1.0573111616	 1.8498319031	 0.2156433604	 0.13196
H	-0.1660308157	 1.8368475647	-1.061085107	 0.126091
H	-0.6657575051	 2.0100716546	 0.6295007414	 0.119552
H	-2.2406939389	-0.0262299969	 0.1015224798	 0.127741
H	-1.5472375468	-0.909466124	-1.2435085106	 0.131591
H	-2.2308565007	-3.7624074336	 1.4141609037	 0.067179
H	-0.0118973541	-2.7064965343	 2.1763621954	 0.118219
H	 1.3254171451	-0.3895137246	 1.8809086695	 0.098744
H	 0.9166416601	-1.611279104	-0.7461952603	 0.228331
