21
gdb 101863	4.17662	0.62541	0.57962	1.646	81.98	-0.2595	0.05	0.3095	1923.6304	0.179051	-424.184242	-424.173243	-424.172298	-424.22174	38.821	
C	-0.1783293613	 1.5166992234	-0.026571946	-0.399395
C	-0.0409611289	-0.0049856152	-0.0933233386	 0.118148
C	 0.8405586504	-0.4596628107	-1.2594295795	-0.061018
O	 2.1654644778	 0.0188109973	-1.1302603811	-0.421333
O	 0.6013373662	-0.5447913902	 1.0632652032	-0.275605
C	-0.1547466068	-0.5425703056	 2.2537424931	-0.056268
C	 0.6210010539	-1.3686216332	 3.2873333305	-0.349044
C	-0.0628254529	-1.4256771933	 4.5717965008	 0.285907
C	-0.6498255225	-1.4555724665	 5.619948024	-0.446344
H	 0.8115134901	 1.9781440251	 0.006612227	 0.135605
H	-0.7001444314	 1.8837755642	-0.9161627186	 0.117843
H	-0.7511473815	 1.8362517662	 0.8479183875	 0.116335
H	-1.0363204986	-0.4671874009	-0.2017841213	 0.065917
H	 0.815323373	-1.5589791965	-1.3110720282	 0.089301
H	 0.447298061	-0.0658234967	-2.2022392215	 0.105706
H	 2.4504662529	-0.2413355796	-0.2461862982	 0.289512
H	-0.3097808714	 0.4753602139	 2.6374806785	 0.107929
H	-1.14674404	-0.9888639007	 2.0845083061	 0.101531
H	 0.7708866199	-2.3787677657	 2.8884874423	 0.138881
H	 1.6186123538	-0.9292861787	 3.4076087958	 0.138641
H	-1.1570298638	-1.4906275666	 6.5520359142	 0.197752
