12
gdb 48353	4.5064	0.75196	0.67273	2.7503	76.01	-0.2864	-0.0836	0.2028	1532.817	0.074917	-435.44286	-435.434368	-435.433424	-435.477075	28.867	
O	-0.1468460171	 0.3017336248	 0.8518054075	-0.223195
C	 0.2413615948	 0.8730345383	-0.1279413497	 0.078215
C	 1.3866787238	 1.8750546122	-0.077167627	 0.068868
C	 1.534356408	 2.664756991	 1.1814122554	-0.19314
O	 2.3889669956	 1.5790163913	 0.9082945683	-0.229229
C	 1.8469122565	 2.3992294772	-1.3310134909	-0.034963
C	 2.1843865065	 2.8042733242	-2.4183717831	 0.253718
C	 2.57661149	 3.2744322054	-3.6382825129	 0.19352
N	 2.9061388024	 3.674840471	-4.677621038	-0.322761
H	-0.208136646	 0.7273761147	-1.1306659891	 0.108598
H	 1.9798547307	 3.6555594368	 1.119593584	 0.144321
H	 0.7929148247	 2.4944328931	 1.9593859754	 0.156049
