21
gdb 109072	3.39843	1.21061	1.16804	1.3565	83.71	-0.2307	0.0163	0.247	1191.3509	0.184701	-387.097531	-387.089557	-387.088613	-387.130187	31.607	
C	-0.3030330415	 1.5146594735	-0.0288671539	-0.374419
C	 0.1507189231	 0.0455309322	 0.0282415481	-0.316854
C	 0.8606690483	-0.4065207411	-1.2076806127	 0.377278
C	 2.0995725407	-0.8972464849	-1.3562497489	-0.213302
C	 2.2472701902	-1.3664447535	-2.793916845	-0.092183
C	 1.2710868471	-2.5742597277	-2.9354688347	-0.066644
O	-0.0267731457	-1.9869730498	-2.7786137266	-0.280156
C	 0.2062276264	-0.5599293665	-2.5818744147	 0.006961
C	 1.388097844	-0.2983764829	-3.5228502924	-0.221854
H	 0.5545752463	 2.1848542176	-0.1441743854	 0.119172
H	-0.9799287512	 1.6917123434	-0.8710474145	 0.119118
H	-0.8330093405	 1.7942028037	 0.8868193496	 0.114015
H	 0.800474115	-0.1052301227	 0.8981245649	 0.101045
H	-0.7304506731	-0.5925201714	 0.1846405419	 0.114814
H	 2.8302359607	-1.0684128519	-0.5741840547	 0.090392
H	 3.2566910001	-1.5509722453	-3.1602179484	 0.066132
H	 1.3435426957	-3.042144694	-3.9258809402	 0.094898
H	 1.4359348471	-3.3393956759	-2.1682298316	 0.0953
H	-0.737633871	-0.0460151516	-2.759116582	 0.068394
H	 1.8035328218	 0.7067089326	-3.4391750348	 0.100915
H	 1.1614609365	-0.5372070236	-4.566177474	 0.09698
