18
gdb 93154	2.27011	1.71434	1.18373	1.151	72.37	-0.2462	-0.0306	0.2156	1068.9771	0.147733	-439.099019	-439.090414	-439.08947	-439.132718	31.464	
C	-0.2371032602	 1.5871088979	 0.0384040402	-0.402195
C	 0.0095081907	 0.0644501703	 0.0024488982	-0.088009
C	 0.7424811028	-0.3833815425	-1.2789021618	-0.191921
N	 1.9809495543	 0.3295271213	-1.5772123197	-0.206435
C	 2.9706031161	 0.1684667932	-0.8151105085	 0.096014
O	 3.0331867653	-0.6014077847	 0.3157038391	-0.226456
C	 2.2210004065	-0.2279691563	 1.4316465719	-0.17486
C	 0.7006474241	-0.3786869096	 1.2853443791	 0.36314
O	 0.0718776257	-0.7795722936	 2.2378679859	-0.301615
H	 0.6994143093	 2.1509363999	 0.0320102179	 0.130486
H	-0.8099957241	 1.8905094896	-0.8431730406	 0.129751
H	-0.8060933575	 1.8626678488	 0.9303205625	 0.133285
H	-0.9635862103	-0.4378748589	 0.0195279393	 0.105772
H	 0.9424201183	-1.4620892016	-1.2175991091	 0.118507
H	 0.06493008	-0.2256684239	-2.1235416256	 0.113249
H	 3.9336103263	 0.6178257897	-1.060922464	 0.123372
H	 2.5329414849	-0.8657999957	 2.2592417877	 0.147964
H	 2.4287092878	 0.8172464861	 1.7078567576	 0.129952
