14
gdb 129602	2.53035	1.66576	1.00541	6.7733	68.35	-0.2209	-0.0374	0.1835	1080.0875	0.102496	-470.045273	-470.037325	-470.036381	-470.077518	29.718	
N	 0.0827286873	 1.3801488664	 0.1886211353	-0.598781
C	-0.0073241009	 0.0141478414	 0.0526342263	 0.325186
C	-1.1253574657	-0.8319953389	-0.0013990756	-0.025659
C	-2.5279443879	-0.5839695359	-0.0210629447	 0.050168
O	-3.3634682227	-1.4858119768	-0.0786014535	-0.350549
C	-0.5517322181	-2.1518843427	-0.0548241368	 0.399692
O	-1.2627341369	-3.2746575332	-0.1205679407	-0.407848
N	 0.7600781001	-2.1453903642	-0.0396954323	-0.317384
N	 1.0653446363	-0.7913671379	 0.0237140785	-0.266639
H	 0.9113700674	 1.8096036366	-0.197613963	 0.263261
H	-0.7535523366	 1.8851764636	-0.0632906555	 0.271961
H	-2.866115135	 0.4734466059	 0.0177180667	 0.065247
H	-2.2007177955	-2.9888032306	-0.1212198994	 0.316106
H	 2.0326214382	-0.5291167636	 0.1023413348	 0.275236
