15
gdb 127326	3.45294	1.79876	1.19171	4.4007	72.76	-0.2178	0.013	0.2308	972.5562	0.116312	-413.019779	-413.012666	-413.011722	-413.052078	26.161	
C	-0.0056693308	 1.4454976557	 0.0301336039	-0.352556
N	-0.0258634269	-0.0033082862	 0.0111682165	-0.168249
C	-0.0012005868	-0.8356932953	-1.1076877386	-0.116129
C	 0.0382965633	-2.1382986963	-0.7054041148	-0.128594
N	 0.045318672	-2.0966839455	 0.6779528821	 0.032662
N	 0.0700010014	-2.939604739	 1.7493425944	-0.292632
C	 0.0512477549	-2.0592756187	 2.7525129897	 0.031468
N	 0.0166559654	-0.7312711117	 2.431089191	-0.413329
C	 0.0120179734	-0.8102501057	 1.1091010093	 0.517846
H	 0.9966628498	 1.8367932879	-0.1749688372	 0.146175
H	-0.702709623	 1.8398289972	-0.7137080125	 0.143716
H	-0.3174860603	 1.7794153346	 1.0208990755	 0.176053
H	-0.0199058644	-0.4247818342	-2.1028042124	 0.145119
H	 0.054101411	-3.0532003232	-1.2696286905	 0.157168
H	 0.0642152909	-2.3995392995	 3.7777758435	 0.121283
