15
gdb 132902	3.11033	1.34361	0.94375	4.3368	72.87	-0.2181	-0.0357	0.1823	1157.0656	0.113168	-461.991394	-461.983667	-461.982723	-462.023676	29.167	
C	-0.0282908631	 1.5553423572	 0.0365642761	-0.498492
C	-0.0064050436	 0.0537265409	-0.0131372	 0.09056
C	-0.0345189473	-0.6645947548	-1.1696263711	-0.022732
N	-0.0131502286	-2.0246732173	-1.1699694168	-0.373613
C	 0.0388582675	-2.8470925101	-0.0228722142	 0.449243
O	 0.0538783846	-4.0602646179	-0.1406394237	-0.401042
C	 0.0687348214	-2.083612366	 1.2066428122	-0.424093
C	 0.0465562093	-0.7265986261	 1.181551604	 0.310173
F	 0.0749228338	-0.0448699502	 2.3287338889	-0.066646
H	 0.8626105346	 1.9540799936	 0.53342831	 0.141442
H	-0.0695683861	 1.9743331669	-0.9720745417	 0.124226
H	-0.8950284673	 1.9264455917	 0.5938883916	 0.141445
H	-0.0751512869	-0.1884551514	-2.1423564059	 0.137557
H	-0.0348712041	-2.5343199539	-2.0420597941	 0.262909
H	 0.1090873459	-2.6274481526	 2.1406565347	 0.129063
