16
gdb 11844	6.81253	1.13059	1.09968	4.2401	70.29	-0.2581	0.0285	0.2865	1073.9571	0.13172	-342.760933	-342.753656	-342.752712	-342.792764	27.298	
N	-0.8902572163	-0.6654751075	-1.0307400589	-0.325331
C	-0.450965549	 0.2759239675	-0.5226043227	 0.270187
C	 0.1106629949	 1.4441369146	 0.13088675	-0.138539
C	 0.0173117476	 1.5205685503	 1.6935203189	-0.319483
C	 1.4679941304	 2.0169477633	 1.6899323609	 0.364986
C	 1.9708286313	 3.2553981481	 2.3238678191	-0.30458
N	 2.462169954	 1.9242621205	 2.7421765002	-0.361185
C	 1.6705504011	 1.5424114776	 0.2480815072	-0.296152
H	-0.3040564604	 2.3451923374	-0.3273001546	 0.127842
H	-0.7546493184	 2.1735604634	 2.1058743199	 0.120262
H	-0.0791262886	 0.5235747126	 2.1329321721	 0.130243
H	 2.7077084997	 3.8715855842	 1.8151479935	 0.124909
H	 1.3018806276	 3.8001741546	 2.9859897784	 0.116287
H	 2.0308076721	 1.6456532117	 3.6206765603	 0.234375
H	 2.1447093512	 0.5590324056	 0.2052277366	 0.134828
H	 2.1676355928	 2.216355246	-0.4514733309	 0.12135
