14
gdb 29090	3.07861	1.49358	1.01201	5.2188	68.83	-0.2397	-0.0607	0.179	1102.8284	0.100191	-473.860078	-473.852192	-473.851248	-473.89302	28.772	
C	 0.0376902831	 1.5188204031	 0.2072755005	-0.46968
C	-0.0798527422	 0.0433810506	 0.0425760787	 0.297151
C	-1.1404782531	-0.6187800185	-0.405301326	-0.09348
O	-1.1763768883	-1.986197288	-0.5309547518	-0.217435
C	-0.077464389	-2.7236015109	-0.1831419657	 0.258294
N	-0.0498040359	-3.9806765833	-0.2748020475	-0.459626
C	 1.1504510737	-1.9919659302	 0.3313825099	 0.369445
O	 2.1537239677	-2.5455786439	 0.6570887747	-0.273179
O	 1.0695945847	-0.6308001095	 0.4134507783	-0.236307
H	 0.8604210304	 1.9114054722	-0.4000525098	 0.150454
H	-0.8876288734	 2.0132386869	-0.0949870259	 0.138743
H	 0.248700693	 1.7758804711	 1.2509356464	 0.15045
H	-2.0641268779	-0.1510421194	-0.7094437903	 0.146267
H	-0.9407368027	-4.3312303902	-0.6334613616	 0.238903
