19
gdb 70298	3.60634	1.28644	1.15301	3.3993	74.98	-0.2587	0.0828	0.3415	1126.8032	0.158461	-423.009387	-423.001321	-423.000377	-423.041784	31.671	
C	-0.0151173739	 1.5133171687	-0.0077298826	-0.486264
C	-0.073896491	 0.0142944947	 0.0924629027	 0.413281
C	-1.301025216	-0.7502889354	-0.3854511863	-0.359579
C	-1.1107572404	-2.1597120968	 0.1785932787	 0.431718
C	-2.0884839882	-3.2372423762	 0.0036573556	-0.254344
O	-0.8847276376	-3.2089438463	-0.7657142477	-0.260642
C	-0.1484668824	-2.081152204	 1.3674766832	-0.325422
C	 0.6056633958	-0.7903424	 1.1241772461	-0.01271
O	 1.143209299	-0.6940430433	-0.2015781524	-0.294006
H	 0.9155002227	 1.8906584757	 0.4233408691	 0.130748
H	-0.0584101105	 1.8330439838	-1.054681668	 0.130176
H	-0.8584730923	 1.9737738193	 0.5179301163	 0.119807
H	-2.2086603298	-0.2804520643	 0.0142008115	 0.103583
H	-1.3834953031	-0.7804014778	-1.47565608	 0.124841
H	-2.1554584758	-4.0345338312	 0.7440691736	 0.108248
H	-3.0072190149	-3.0505529669	-0.5525728499	 0.10814
H	-0.6905412174	-2.0219437587	 2.3197725363	 0.105561
H	 0.500137679	-2.9609650517	 1.3953883038	 0.128113
H	 1.2113499566	-0.3429549797	 1.90926715	 0.088752
