18
gdb 126377	4.67115	1.01692	0.89825	2.3797	82.3	-0.228	-0.0643	0.1636	1348.2503	0.147466	-398.159338	-398.150443	-398.149499	-398.194184	31.61	
C	 0.0369972419	 1.5296833023	-0.0503470613	-0.379675
C	-0.064177799	 0.0003888601	 0.0767870987	-0.249597
C	 0.693916797	-0.5174618887	 1.2677453655	 0.380715
N	 2.0397337273	-0.4737535123	 1.2195405441	-0.26249
C	 2.6590176828	-0.9250438972	 2.2930942048	-0.053013
C	 1.9502353906	-1.4114675281	 3.4026531973	 0.3404
C	 2.629952308	-1.9322780703	 4.6361595857	-0.483816
N	 0.6180355821	-1.4202472411	 3.3794042579	-0.235555
N	-0.0199009961	-0.9698508546	 2.3011371675	-0.232203
H	 1.0825643167	 1.8414870086	-0.1258654873	 0.133888
H	-0.4905633366	 1.8758806033	-0.9435920283	 0.118792
H	-0.4064631752	 2.0245507385	 0.8192775521	 0.126397
H	-1.107291259	-0.3084334437	 0.1757907374	 0.124526
H	 0.3491652232	-0.4657989437	-0.8243553884	 0.118406
H	 3.7481926651	-0.9083026716	 2.2883916801	 0.120959
H	 3.2649011497	-1.1651128316	 5.0924754849	 0.139318
H	 1.8773605368	-2.244462526	 5.3617539089	 0.15316
H	 3.2721944745	-2.7885455339	 4.4029066906	 0.139788
