18
gdb 73888	2.2124	1.66814	1.03075	3.7157	81.55	-0.2294	-0.0589	0.1705	1158.0619	0.147462	-401.94843	-401.940158	-401.939214	-401.98133	30.984	
C	 0.0405907266	 1.5002957144	 0.0954311545	-0.500159
C	 0.0100428914	 0.0114254768	-0.0127592915	 0.19324
C	 0.0175271646	-0.7764142779	-1.1091369349	 0.156859
C	-0.0084962623	-0.3555743415	-2.5080732197	 0.056898
O	-0.0148543837	-1.128682687	-3.4432863588	-0.272254
C	 0.0457431309	-2.2154088388	-0.7105442021	-0.123039
C	 1.2384662389	-2.6366704077	 0.0745387229	-0.236332
N	 0.0020572683	-2.2642637386	 0.7716369562	-0.10846
C	-0.0341355712	-0.8617625668	 1.2271034619	-0.243537
H	 0.9481129111	 1.8290340383	 0.6173135336	 0.142477
H	 0.0086466199	 2.0006037614	-0.8738102361	 0.140795
H	-0.80646256	 1.8572572028	 0.6946629415	 0.141583
H	-0.0337618183	 0.7415387566	-2.6812709246	 0.065887
H	-0.540718465	-2.9365207077	-1.2696597571	 0.113407
H	 1.496489527	-3.6887713632	 0.1549946288	 0.122136
H	 2.0834652236	-1.9508987408	 0.1036885197	 0.107416
H	 0.7942290318	-0.6508012457	 1.9168488403	 0.120663
H	-0.9612439436	-0.6821384046	 1.7908114456	 0.122418
