23
gdb 116149	3.15904	1.00989	0.80901	2.6199	82.34	-0.2546	0.0829	0.3375	1471.4712	0.206922	-425.444115	-425.434829	-425.433885	-425.477889	35.965	
C	-0.0130025298	 1.5551301678	-0.0541020124	-0.403152
C	 0.0295816625	 0.026473468	 0.0009548153	 0.02497
C	 0.7253284626	-0.5798059049	-1.2291599268	-0.194423
C	 0.8340585596	-2.0996909899	-1.0993906671	-0.083495
O	 1.4995943043	-2.4712143602	 0.0969585959	-0.274946
C	 0.828446436	-2.0124668482	 1.2711354041	 0.095536
C	 1.6262961126	-2.5833802703	 2.4379415408	-0.067985
O	 1.7154921192	-3.990830725	 2.3626906112	-0.427694
C	 0.7209900351	-0.4866512652	 1.2768252485	-0.202182
H	 0.99935877	 1.9755786667	-0.0681265132	 0.114836
H	-0.5309642132	 1.9055560771	-0.9533213624	 0.111327
H	-0.5329498046	 1.969654197	 0.816218706	 0.111733
H	-1.0062556611	-0.3454828766	 0.0129017645	 0.070565
H	 0.1803670982	-0.326002177	-2.1464594352	 0.092937
H	 1.7347138697	-0.1583671142	-1.323945185	 0.100711
H	-0.1719008222	-2.5530576053	-1.1248441144	 0.087351
H	 1.4162145177	-2.5298260395	-1.9198091044	 0.105606
H	-0.184175219	-2.4531394242	 1.2915577886	 0.067712
H	 2.6245276897	-2.1148195115	 2.4474190343	 0.086202
H	 1.1304346701	-2.3372940619	 3.382883871	 0.103625
H	 1.9685703336	-4.1809693393	 1.4509738586	 0.288226
H	 1.731002136	-0.0596893977	 1.3431006682	 0.097927
H	 0.1708291728	-0.158741326	 2.167274534	 0.094614
