19
gdb 87004	3.36986	0.88145	0.76843	5.6009	73.38	-0.259	0.0134	0.2724	1499.5592	0.157529	-460.171348	-460.161944	-460.161	-460.207003	33.073	
C	 0.5976548881	 1.1922683783	 0.5246511017	-0.39991
C	 0.1649176192	-0.209910548	 0.1542506092	 0.178115
C	 0.4668695323	-0.7384746876	-1.2672910557	-0.331371
C	 1.1923971059	-1.8835131049	-0.5331756094	 0.152758
C	 2.6567383632	-2.1043279642	-0.8558591652	-0.110394
O	 3.2273256958	-3.1001277005	-0.0031574218	-0.184087
C	 3.731383906	-2.6861394368	 1.1815798298	 0.181663
O	 4.181372732	-3.4484587674	 1.9818246748	-0.275613
O	 1.0135556325	-1.233182161	 0.7444017605	-0.31386
H	 1.6276586183	 1.3817463464	 0.2065819896	 0.116008
H	-0.0564315958	 1.9309396825	 0.0486029421	 0.121486
H	 0.5410414536	 1.3345381846	 1.6083087347	 0.13504
H	-0.8788936463	-0.3761553267	 0.4535580202	 0.0833
H	-0.3881861938	-1.0180752562	-1.8829520883	 0.11776
H	 1.131265918	-0.0887276757	-1.8441086708	 0.10893
H	 0.6655720305	-2.846487797	-0.5600076525	 0.093803
H	 2.7698355414	-2.4775797809	-1.8782185047	 0.126494
H	 3.2072379991	-1.1593194458	-0.7649087066	 0.111659
H	 3.6856613402	-1.589971689	 1.3081701922	 0.088219
