15
gdb 24987	4.86287	1.21669	0.98617	2.0243	68.09	-0.1942	0.0398	0.234	1116.2267	0.115284	-453.986237	-453.978759	-453.977815	-454.01849	27.589	
O	 0.0021497805	-0.0305570376	-0.0225385764	-0.417892
C	-0.0144129508	 1.1808015821	-0.0228084135	 0.425889
N	-1.1305829883	 2.0297392773	-0.0022361539	-0.458667
C	-0.711708601	 3.349463929	 0.0868577682	 0.257624
C	 0.6261574096	 3.3677521591	 0.0680831528	 0.257624
C	 1.1310520124	 4.7661470476	-0.0482499778	-0.163773
O	-0.0729819515	 5.5447289939	 0.0544737195	-0.273374
C	-1.2576961381	 4.7334935307	-0.0147290659	-0.163773
N	 1.0782773639	 2.0599337519	-0.0332335787	-0.458667
H	-2.0585884033	 1.6602873519	 0.1068990004	 0.269385
H	 1.8119089239	 5.0786396347	 0.7554407768	 0.116586
H	 1.6352604809	 4.9630169464	-1.008558375	 0.111533
H	-1.7938388395	 4.916141603	-0.9604387865	 0.111533
H	-1.9240238	 5.0275709208	 0.8078659103	 0.116586
H	 2.0187293714	 1.7160230291	 0.0496803397	 0.269385
