17
gdb 6112	2.93699	1.87628	1.51707	1.7327	65.77	-0.2671	0.0159	0.283	908.7037	0.139936	-401.006968	-400.998225	-400.997281	-401.03991	31.859	
C	 0.2608461416	 1.3695894058	-0.1353129302	-0.418072
C	-0.0888144535	-0.091833869	 0.0573998845	 0.373782
C	-1.5586648863	-0.408325729	-0.1308707151	-0.43797
O	 0.7342658446	-0.9388813524	-0.8624715699	-0.28862
C	 1.4480459171	-1.4553327138	 0.1820446234	 0.386283
N	 2.4877509521	-2.1587728993	 0.2283016347	-0.560535
C	 0.6190165463	-0.7952290269	 1.2602589092	-0.035436
O	 1.3094137738	 0.0107409211	 2.1769848213	-0.428166
H	 1.3268240512	 1.5408810337	 0.0239667842	 0.13041
H	-0.0064535612	 1.6903837427	-1.146540807	 0.124733
H	-0.2893888667	 1.9850193317	 0.5825161373	 0.131284
H	-1.8923563206	-0.1121164468	-1.129926366	 0.131767
H	-1.7474702628	-1.4787853747	-0.0095432902	 0.127129
H	-2.1583286492	 0.135299251	 0.6062543144	 0.130121
H	 2.8422025706	-2.3757995018	-0.7047487115	 0.230179
H	-0.0520871239	-1.492709248	 1.7789796978	 0.099088
H	 2.2155558868	-0.3173153842	 2.2143088634	 0.304024
