12
gdb 744	9.0053	3.72959	2.68228	2.2871	51.67	-0.2378	0.0247	0.2625	484.7442	0.098746	-265.433051	-265.427628	-265.426683	-265.462467	18.727	
C	 0.0086224305	 1.4138435377	 0.0501874435	-0.31746
N	-0.0053688764	-0.0311458289	-0.0178343658	 0.070675
C	-0.0921523851	-0.8134061973	-1.1222281359	-0.030145
C	-0.0056077105	-2.1222790971	-0.6942015923	-0.228253
C	 0.1365077295	-2.0202431087	 0.7038842996	 0.001387
N	 0.1388326554	-0.7524971398	 1.1110164833	-0.270032
H	 1.0214215231	 1.7887457599	 0.2293412856	 0.145014
H	-0.3622205739	 1.8197348132	-0.8927440114	 0.136632
H	-0.6376018773	 1.743564922	 0.8659525572	 0.154282
H	-0.2089751615	-0.3845666113	-2.105148138	 0.12595
H	-0.0482528034	-3.0118290626	-1.3010793791	 0.102587
H	 0.2313827597	-2.813731417	 1.4307448634	 0.109364
