19
gdb 78945	2.78254	1.92536	1.51061	1.6737	77.39	-0.2182	0.0714	0.2896	948.1453	0.160036	-381.975633	-381.968205	-381.967261	-382.007079	29.841	
C	-0.0494653081	 1.5532710564	-0.1590655825	-0.331754
N	-0.0294879783	 0.1081460484	-0.0047784085	-0.068955
C	-1.229103084	-0.5705112356	 0.5262004796	-0.052477
C	-1.4445163439	-0.1466803973	 2.0133236638	-0.113544
N	-0.7920694057	-1.3721336041	 2.5940454546	-0.219986
C	-0.3225626484	-1.6578487987	 1.1656369757	 0.004781
C	 0.6892789019	-0.481753553	 1.1430223859	-0.109168
C	-0.0298183938	-0.0810431654	 2.4785426741	 0.350826
C	 0.4935479424	 0.6558952689	 3.6695881943	-0.519422
H	 0.9544566984	 1.9068990713	-0.4158230708	 0.12161
H	-0.7206795935	 1.822932497	-0.9811247948	 0.122057
H	-0.3832328854	 2.0863836164	 0.7472291596	 0.102137
H	-2.0805686145	-0.7215630746	-0.1358298957	 0.077421
H	-2.2829391842	 0.3354009515	 2.5014909354	 0.093199
H	-0.1625133802	-2.6728803253	 0.8133504576	 0.088336
H	 1.7767948243	-0.5405282292	 1.1040162246	 0.073624
H	 0.6991780114	 1.7047084832	 3.4276476538	 0.12193
H	-0.2337313344	 0.6287962782	 4.4869782704	 0.133364
H	 1.422305976	 0.2050102318	 4.0356818928	 0.126021
