21
gdb 86122	2.04987	1.72511	1.10376	1.5913	85.44	-0.2306	0.0111	0.2417	1174.8843	0.183097	-387.101429	-387.092417	-387.091473	-387.134972	34.883	
C	 0.7366655436	 1.328164612	 0.0482000578	-0.481239
C	-0.0030679161	 0.0338964278	-0.1543336177	 0.315897
C	-0.1348496512	-0.5403895095	-1.3515543961	-0.154973
C	-0.863684539	-1.8421082375	-1.6040466048	-0.313402
C	-0.4372590019	-3.0315396599	-0.7698448444	-0.050054
C	-0.0180087914	-3.062928018	 0.4965945514	-0.081819
C	 0.1618675298	-1.9176176374	 1.4634409903	 0.093515
O	 1.5556030816	-1.6745766064	 1.6909289367	-0.437318
C	-0.5765984627	-0.622543558	 1.0851700667	-0.322295
H	 1.5546259858	 1.1922613882	 0.7667006378	 0.132088
H	 1.152715927	 1.7137988953	-0.8866140972	 0.115589
H	 0.0771384864	 2.0964617372	 0.4726330649	 0.123401
H	 0.2897266333	-0.0488533796	-2.2241879189	 0.080253
H	-1.9491125245	-1.6899229886	-1.4725339043	 0.124673
H	-0.7492013337	-2.1133742222	-2.6583646666	 0.106636
H	-0.4993032485	-3.9853823496	-1.2916026547	 0.090146
H	 0.2716039272	-4.0279049362	 0.9086242022	 0.089032
H	-0.2133874372	-2.242884431	 2.4418503771	 0.085046
H	 1.9541947476	-1.5590050496	 0.8205449481	 0.279291
H	-0.5113860824	 0.0619987562	 1.9364358778	 0.100004
H	-1.6403358637	-0.8556545031	 0.941612564	 0.105529
