19
gdb 40577	3.86028	1.36101	1.3071	1.8237	77.65	-0.2337	0.0767	0.3103	1038.8578	0.161497	-381.971202	-381.964071	-381.963127	-382.002989	28.482	
C	 0.147095162	 0.3967992592	-0.6705533033	-0.218594
C	 0.6019227384	 1.3985180986	 0.3314980251	-0.226669
N	 0.9584425998	-0.0095957361	 0.4729721836	-0.096568
C	 0.3414201544	-0.7482745051	 1.5556844557	 0.06561
C	-1.1582995487	-1.009533329	 1.7150219346	-0.096849
C	-1.5025025068	-2.2696697266	 0.9844443547	-0.037541
C	-0.2525406645	-2.8164577842	 0.3166007372	-0.237367
C	 0.4574014298	-2.2846874088	 1.5740443877	-0.036537
N	-0.8973610941	-2.3476066862	 2.3572531631	-0.16564
H	-0.909038349	 0.1373831071	-0.6675600279	 0.119004
H	 0.6326557579	 0.3273774518	-1.6400436632	 0.116231
H	 1.4231199869	 2.0741785216	 0.1085811661	 0.117312
H	-0.1533154045	 1.8071704496	 1.0012006358	 0.111024
H	 0.7335285499	-0.3542051625	 2.498924829	 0.094499
H	-1.9239127192	-0.3522926192	 2.1122009911	 0.091869
H	-2.533657053	-2.5583305907	 0.8130739393	 0.095555
H	-0.2685861054	-3.9093202249	 0.3131099101	 0.112637
H	 0.0590592016	-2.4444428108	-0.6630646442	 0.108052
H	 1.3403210046	-2.7723059339	 1.9809739956	 0.083969
