20
gdb 32870	6.01829	0.76428	0.69793	1.7544	85.45	-0.1929	0.0447	0.2376	1665.2999	0.170716	-403.180112	-403.17042	-403.169476	-403.215426	34.633	
C	 0.0998589569	 1.522944341	 0.8910250424	-0.222315
O	-0.1343310039	 0.1346903084	 0.9176643649	-0.243165
C	 0.8774768983	-0.6061096083	 0.251925179	-0.185119
C	 0.5901113658	-2.0591335479	 0.4124129664	 0.3298
C	 0.7624735037	-3.1298000101	-0.4351970678	-0.350665
C	 0.3789770743	-4.3142174063	 0.265442541	 0.292524
C	 0.4021106673	-5.7188582688	-0.2580361169	-0.498978
C	-0.0224604887	-3.9125437802	 1.520171416	-0.180164
N	 0.1264244624	-2.5501919788	 1.6057167227	-0.289315
H	 0.1125157468	 1.9143109473	-0.1381938461	 0.107641
H	-0.7138428089	 2.0027863952	 1.4401454234	 0.127657
H	 1.0573829357	 1.7862098539	 1.3683631751	 0.104237
H	 0.9180026685	-0.3516391321	-0.8188991105	 0.103112
H	 1.8602720727	-0.3368621931	 0.6817007144	 0.094488
H	 1.1328103275	-3.0757218755	-1.4488812126	 0.082657
H	-0.209321013	-5.8261146604	-1.1618763569	 0.121243
H	 1.4169740156	-6.0414069856	-0.5204449079	 0.120519
H	 0.0164559818	-6.4232151912	 0.4852141768	 0.115252
H	-0.4097262517	-4.4852831631	 2.3483671089	 0.108713
H	-0.1863129212	-1.9606759745	 2.3575642077	 0.261879
