27
gdb 117656	2.52818	0.9003	0.81027	1.4141	92.15	-0.2579	0.0699	0.3278	1641.5366	0.249132	-390.704812	-390.692816	-390.691872	-390.741473	45.015	
C	-0.1274164494	 1.6593259719	-0.0383485179	-0.376044
C	 0.023312164	 0.1404858255	 0.1017668503	-0.193917
C	-1.3252817922	-0.582960999	-0.0055513758	-0.176715
C	-1.3104644632	-2.1354422401	 0.026746748	 0.255326
C	-0.6673145175	-2.6835590946	-1.2610503779	-0.426565
C	-0.5320013254	-2.648786648	 1.2525946347	-0.439179
C	-2.8034522979	-2.5910489983	 0.0964704296	 0.133054
C	-3.0540306037	-4.0943718478	-0.0518230049	-0.432531
O	-3.4461773361	-2.1051324322	 1.2766954321	-0.439975
H	 0.8374944331	 2.1676027795	 0.0561036185	 0.10715
H	-0.5513644233	 1.9269368205	-1.0127368936	 0.112287
H	-0.7945557042	 2.0627739524	 0.7315254649	 0.114768
H	 0.7177229336	-0.2206814118	-0.6670829168	 0.092777
H	 0.4931885218	-0.0828678509	 1.0668514518	 0.095884
H	-1.9771506666	-0.238323672	 0.8045273474	 0.110332
H	-1.8138003423	-0.2706628805	-0.9400333938	 0.080937
H	 0.3295216774	-2.2596287575	-1.4137602597	 0.114328
H	-0.5523158098	-3.7710886726	-1.2295770354	 0.110923
H	-1.270384427	-2.4335501197	-2.1418469506	 0.108683
H	-0.9164804835	-2.2162954709	 2.1827649436	 0.107827
H	-0.5812952743	-3.7396604073	 1.3350956669	 0.10739
H	 0.5266035309	-2.3836123328	 1.1847325921	 0.1195
H	-3.3281062959	-2.0792202366	-0.7208788841	 0.081295
H	-2.5381380968	-4.6723082381	 0.7239720644	 0.10924
H	-4.1261040306	-4.2864050211	 0.0460008618	 0.124035
H	-2.7277811494	-4.4732307158	-1.0233802609	 0.121547
H	-3.1478897818	-2.6466553721	 2.0148702051	 0.27764
