19
gdb 77948	2.54858	1.62514	1.14046	2.8059	76.7	-0.2325	0.0688	0.3014	1097.3145	0.159365	-419.088728	-419.080695	-419.079751	-419.120831	32.107	
C	 0.1150909816	 1.4072496771	-0.3454577219	-0.333487
N	 0.0671660465	-0.0152346833	-0.017602629	-0.136835
C	-1.038294953	-0.5215519593	 0.9025881344	-0.201321
C	-0.1129604786	-1.7774932145	 1.0953539366	 0.208515
O	 0.0833557625	-2.6283690744	 0.0228090579	-0.454916
C	 0.7959056221	-0.5065822562	 1.2304612546	-0.172613
C	-0.3136457409	 0.0872465918	 2.1121421201	 0.444511
C	-0.4991807198	 1.2855637888	 2.9402079527	-0.345689
N	-0.5133141121	-0.0752502336	 3.5407042789	-0.399504
H	 1.0914856994	 1.6275590238	-0.7892074666	 0.12417
H	-0.647103615	 1.6152762704	-1.1036910861	 0.122263
H	-0.0422232143	 2.0902222752	 0.4989775945	 0.113878
H	-2.0917351107	-0.4761217584	 0.6187433593	 0.081706
H	-0.263557261	-2.3614782575	 2.0024382328	 0.102126
H	 0.2153341814	-2.0291967223	-0.7297695242	 0.282478
H	 1.8798288519	-0.4425127624	 1.3307183936	 0.087423
H	 0.3505837372	 1.8977571492	 3.2304347834	 0.125953
H	-1.4384192368	 1.828311445	 2.8612494339	 0.117012
H	-1.4693021804	-0.3591822194	 3.7434009352	 0.234329
