17
gdb 124850	3.64009	1.29227	1.03785	4.357	75.83	-0.254	-0.0329	0.2211	1141.1456	0.135528	-417.983217	-417.975219	-417.974275	-418.015981	30.253	
C	 0.1145370236	 1.5095163089	-0.1878346679	-0.479671
C	 0.0167852535	 0.0057186846	-0.0200828579	 0.221163
C	 1.2978287672	-0.8181272008	-0.0512880273	-0.292591
C	 0.5769576567	-0.6263559149	 1.2477738046	-0.292592
C	-1.1885750025	-0.6039540897	-0.5989706476	 0.407276
C	-2.2586918375	-0.0819062972	-1.269947695	-0.241533
N	-3.092270675	-1.1278639695	-1.5779383921	-0.107323
N	-2.6307219797	-2.214822118	-1.1613135783	-0.019401
O	-1.3686926697	-1.9209011088	-0.5046051086	-0.23979
H	 1.0353381562	 1.8826909705	 0.2680538491	 0.123497
H	 0.1266057272	 1.7930813678	-1.2457225989	 0.130189
H	-0.7270025679	 2.0201616097	 0.2925132515	 0.13019
H	 1.2512445621	-1.7943426253	-0.5186470954	 0.140018
H	 2.2193212424	-0.27227454	-0.2211751752	 0.122648
H	 0.9971225378	 0.0528625338	 1.9813193724	 0.122648
H	 0.0415942984	-1.4725422867	 1.6612291653	 0.140017
H	-2.487892403	 0.9316840756	-1.5468164987	 0.135254
