19
gdb 94306	3.18345	1.13553	1.00513	2.9215	75.94	-0.2418	-0.0188	0.223	1224.8511	0.157908	-423.021765	-423.013215	-423.012271	-423.055263	32.943	
O	 0.7294600976	 0.898383255	-0.4480707305	-0.426214
C	 0.2287651587	-0.2142383698	 0.2458121337	 0.0936
C	-0.1903646024	-0.094224151	 1.732438788	-0.264779
C	-1.3493598309	-1.0833897476	 1.4292844574	-0.292888
C	-1.1913495194	-0.7575998958	-0.079192565	 0.310114
C	-2.2236801277	 0.2274735345	-0.7120306057	-0.418732
C	-2.6815248716	-0.9294302641	-1.615303058	 0.408949
O	-3.6414191256	-1.1086096765	-2.3054968046	-0.289063
C	-1.4894653088	-1.7995607209	-1.1915278521	-0.43183
H	 0.2002814674	 1.6659839663	-0.2062180392	 0.281619
H	 0.9726391649	-1.00672926	 0.1089403989	 0.094661
H	 0.5410370559	-0.3616454228	 2.4976946584	 0.107196
H	-0.5718011321	 0.9103432542	 1.9483903583	 0.097196
H	-1.0728594537	-2.1183192892	 1.650686797	 0.108919
H	-2.3203668456	-0.8770960228	 1.8852909508	 0.107084
H	-2.9861310165	 0.678748592	-0.0710721762	 0.125109
H	-1.7401836332	 1.0138548471	-1.3049847589	 0.127042
H	-0.7141382511	-1.8324104555	-1.9664491647	 0.135594
H	-1.7240218759	-2.823803003	-0.8873349775	 0.126425
