18
gdb 26847	2.9224	1.37735	0.94717	4.7518	84.68	-0.2038	-0.0333	0.1704	1223.0035	0.148302	-402.036872	-402.028003	-402.027059	-402.071387	32.351	
C	 0.0824088524	 1.5277884988	-0.0760204606	-0.497178
C	-0.0506498522	 0.0321469223	-0.0429187088	 0.325009
C	-1.2321695154	-0.6564781416	 0.0621639066	 0.163022
C	-2.5756264115	 0.0290324085	 0.1596153326	-0.507346
C	-1.1468036049	-2.0824803131	 0.0767228336	-0.09594
C	 0.029905767	-2.7619329693	-0.0074372216	-0.272584
C	 1.291368859	-2.0626958935	-0.1190876417	 0.422624
O	 2.4106337276	-2.5448691632	-0.2016029258	-0.407978
N	 1.1241791468	-0.6639638069	-0.1266784225	-0.41621
H	 0.7030558002	 1.8832605135	 0.755171694	 0.144223
H	 0.5622979874	 1.856814538	-1.0054764603	 0.144214
H	-0.8881325718	 2.0174465132	-0.0057812058	 0.144771
H	-2.7956007364	 0.6482954499	-0.7174658658	 0.130472
H	-3.3729885924	-0.7149022302	 0.2347030201	 0.126804
H	-2.6545397101	 0.674664139	 1.0417031648	 0.130472
H	-2.0747351761	-2.6432304032	 0.159548578	 0.102006
H	 0.0729922146	-3.8437174232	 0.0053435385	 0.112291
H	 1.9958422357	-0.156362959	-0.2041990053	 0.251326
