18
gdb 127025	6.3692	0.83562	0.7491	2.464	76.43	-0.2228	0.0149	0.2377	1536.6427	0.148309	-435.293885	-435.284816	-435.283872	-435.328583	31.644	
C	-0.1312090677	 1.4615487142	 0.1274718531	-0.39027
C	-0.0247049082	-0.0421527167	-0.0402655547	-0.034245
O	-1.3399756524	-0.5861037769	 0.140198444	-0.260805
C	-1.4513578271	-1.910206383	 0.0290371036	 0.460559
N	-2.6345702388	-2.4909843154	 0.1823345369	-0.360342
N	-2.3192906761	-3.8038839072	-0.0037229992	 0.061544
C	-3.3431671649	-4.8193463438	 0.0782045597	-0.316836
C	-1.0066254491	-3.9293109199	-0.2499448923	 0.002651
N	-0.4119594349	-2.7460279601	-0.238798795	-0.364512
H	 0.8532354617	 1.9208006968	-0.0024502006	 0.11813
H	-0.8135141947	 1.8875176413	-0.6134237903	 0.130054
H	-0.5040997784	 1.7156676323	 1.1236104487	 0.130054
H	 0.3479977956	-0.3138672137	-1.0342941005	 0.11621
H	 0.6560982757	-0.4849937279	 0.6954162912	 0.11621
H	-2.8855261621	-5.7942216776	-0.1003762547	 0.140701
H	-3.8049096851	-4.8104000571	 1.0689885814	 0.154862
H	-4.115947886	-4.6372733047	-0.6731880266	 0.154885
H	-0.5298365673	-4.8817082907	-0.4291018848	 0.141151
