14
gdb 29683	2.46409	2.03026	1.12089	1.4629	66.18	-0.2671	-0.0525	0.2146	995.5637	0.1028	-470.07273	-470.065126	-470.064182	-470.105322	27.404	
C	 0.0976669588	 1.4513824204	 0.0431611513	-0.334403
N	 0.011001001	-0.0115760756	 0.007563542	-0.204477
C	-0.0994175137	-0.6267549333	-1.212401227	 0.501506
O	-0.1344935943	-0.0939568983	-2.2825099192	-0.35536
O	-0.1763662695	-2.018264307	-1.1588562589	-0.203956
C	-0.1391307315	-2.6411923402	 0.0381033066	 0.132637
N	-0.0378633604	-2.1023974173	 1.1805628168	-0.307745
C	 0.0466914206	-0.7037959571	 1.2356959311	 0.429244
N	 0.1516887699	-0.0349087419	 2.3103859006	-0.536655
H	 1.0312301526	 1.7494746155	 0.5239680491	 0.156097
H	 0.0557639093	 1.8142762728	-0.9808032484	 0.167174
H	-0.7299549348	 1.8511970046	 0.6320410767	 0.156072
H	-0.2091348472	-3.7181769595	-0.0842486424	 0.161112
H	 0.1626081389	-0.681909793	 3.0972463916	 0.238754
