17
gdb 111374	2.11028	1.79734	1.16913	3.796	72.65	-0.2557	0.004	0.2597	1074.506	0.135831	-417.955525	-417.947114	-417.94617	-417.988826	30.609	
C	-0.1853992902	 1.2909609872	 0.0152243129	-0.252908
O	 0.2869597757	-0.0409428579	 0.1414273257	-0.235344
C	 0.7265340338	-0.600704076	-1.0518525253	 0.126942
C	 1.3313755724	-1.9834303351	-0.909686444	-0.062344
C	 0.3159118597	-2.9723323711	-0.5061507566	-0.243353
N	 0.3792302499	-2.601359485	-1.9337052044	-0.129382
C	-0.3119199748	-1.2625941641	-2.0480597285	-0.194625
C	-1.7190687932	-1.2360877868	-1.6796024685	 0.32927
N	-2.8340421069	-1.2017083611	-1.3745701055	-0.338867
H	 0.5959097454	 1.9524926969	-0.3873594541	 0.111195
H	-1.070782671	 1.3489646806	-0.6307467343	 0.130252
H	-0.4574446278	 1.6267757888	 1.0173170597	 0.141118
H	 1.3740920832	 0.0937853864	-1.6040241238	 0.087991
H	 2.3933937365	-2.1990456272	-0.9237506928	 0.109201
H	 0.6602748432	-3.9865457163	-0.3343682492	 0.135704
H	-0.5394196013	-2.668778956	 0.0900191887	 0.152812
H	-0.1983333747	-0.8926258032	-3.0692620302	 0.132338
