20
gdb 93550	2.92689	1.27278	0.96141	3.3511	81.34	-0.2203	-0.0135	0.2068	1253.1122	0.171592	-403.159309	-403.150514	-403.14957	-403.19326	33.375	
C	 0.1640685558	 1.6417983101	-0.0493012926	-0.424247
C	-0.0367130145	 0.1256324387	-0.0082114815	 0.008978
N	 0.606371052	-0.4755244194	-1.1865412442	-0.295006
C	 0.0928764654	-1.7842418305	-1.5879022528	-0.258944
C	 0.4922749941	-2.922282784	-0.643976535	 0.415134
O	 1.1515930484	-3.855102265	-1.0358908652	-0.294984
C	-0.0470358537	-2.8714059754	 0.7849551403	-0.354698
C	 0.5254582302	-1.7402843095	 1.6137817816	-0.097334
C	 0.5270663859	-0.4531651739	 1.2779252909	 0.005154
H	 1.2321522985	 1.881760035	-0.0666942036	 0.133818
H	-0.3023746055	 2.0793297529	-0.9382803036	 0.110583
H	-0.2819089113	 2.1141436526	 0.830300028	 0.123431
H	-1.1278706947	-0.0758062006	-0.0222370885	 0.06414
H	 0.4917818463	 0.15387088	-1.9739248468	 0.219955
H	-1.0149420063	-1.8029007863	-1.6629171812	 0.085114
H	 0.503203534	-2.0353424164	-2.5684231691	 0.12099
H	-1.1412442215	-2.7697082585	 0.7276684658	 0.123095
H	 0.1728489385	-3.8359246452	 1.2456113988	 0.124872
H	 0.975692236	-2.0349691613	 2.5575641461	 0.101501
H	 0.9720288225	 0.2609960966	 1.9668706426	 0.088449
