21
gdb 101661	4.4262	0.7083	0.64461	2.7042	77.39	-0.2564	-0.0468	0.2095	1751.1652	0.179693	-461.378047	-461.367653	-461.366709	-461.413901	37.719	
C	-0.018175311	 1.5662924626	 0.1231379134	-0.384606
C	-0.110218851	 0.0475552378	-0.0442050346	-0.16951
C	 0.7482191539	-0.4746487418	-1.1977036433	 0.153433
O	 2.0868460221	-0.0940407933	-0.9395495961	-0.446182
C	 0.6263752704	-2.0017924143	-1.3539616366	-0.246371
C	 1.2762752233	-2.5182416769	-2.6534317844	 0.032599
O	 2.6240050633	-2.1188940746	-2.7778748971	-0.43383
C	 1.1899607813	-4.0282460428	-2.717941256	 0.13976
O	 2.1806637076	-4.7151891145	-2.7897743571	-0.259082
H	 1.0176520529	 1.8696184337	 0.289942817	 0.141472
H	-0.3800789136	 2.0844670979	-0.7721850532	 0.108406
H	-0.6206621889	 1.9051597611	 0.971377626	 0.106128
H	 0.2166115775	-0.4490647435	 0.8781992241	 0.099917
H	-1.1516378958	-0.2507728477	-0.2179549699	 0.085147
H	 0.3896862046	-0.0074923905	-2.135432193	 0.055292
H	 2.6430969935	-0.5759144468	-1.5669244539	 0.293882
H	 1.1031188238	-2.4789891295	-0.4890445964	 0.115206
H	-0.4322291391	-2.2908847285	-1.3586969877	 0.099141
H	 0.7019565743	-2.1189018219	-3.5073865155	 0.103674
H	 3.1443857613	-2.939601659	-2.7768176252	 0.299996
H	 0.1736266697	-4.4682654974	-2.6771542406	 0.105528
