19
gdb 35974	3.0756	1.18781	0.92211	4.2384	76.27	-0.2384	0.0307	0.269	1253.3706	0.161596	-419.205953	-419.197517	-419.196573	-419.239221	31.753	
N	 0.0652193383	-1.1869154872	 0.0419783081	-0.322022
C	 0.038624026	-0.0322044129	 0.0145425783	 0.285339
C	-0.0076780023	 1.4407185728	 0.0191350086	-0.11973
C	-0.8075731228	 1.92886276	 1.2588226078	-0.238133
C	-1.3928039069	 3.3474665252	 1.0923497638	-0.089954
O	-0.6884163862	 4.1918607545	 0.2033490843	-0.240641
C	 0.7002644236	 4.3466022969	 0.4498099185	-0.083507
C	 1.5090906868	 3.3567550737	-0.3992866408	-0.162132
N	 1.3641831837	 1.9420589412	-0.073329311	-0.282961
H	-0.5323397816	 1.7554676546	-0.891453103	 0.142155
H	-1.6305457714	 1.2385670523	 1.4729929359	 0.128812
H	-0.1334925609	 1.877909441	 2.1213067304	 0.109862
H	-2.3992599909	 3.2841090171	 0.667500898	 0.120396
H	-1.4843125205	 3.8175608989	 2.0841489795	 0.099878
H	 0.9618850385	 5.3713138588	 0.1584199047	 0.110861
H	 0.9314169049	 4.2372580176	 1.5205095242	 0.088294
H	 1.2088638026	 3.5026942717	-1.4445285848	 0.12159
H	 2.5753582344	 3.6016053775	-0.3340181214	 0.107824
H	 1.8623083546	 1.7149033163	 0.7811212186	 0.22407
