24
gdb 123027	4.47875	0.58332	0.55253	0.7286	88.12	-0.2228	0.0856	0.3084	2109.8962	0.215327	-405.509937	-405.49902	-405.498076	-405.54715	38.753	
C	-0.0766344719	 1.4965766479	 0.0940940065	-0.384174
C	-0.1027800267	 0.0087701413	-0.21348349	-0.028831
O	-1.3611040535	-0.5082616175	 0.1662663324	-0.24365
C	-1.5026366106	-1.8864125128	-0.0941475824	-0.045803
C	-2.8960858954	-2.3201455843	 0.3523016022	-0.237188
C	-3.1253656461	-3.8081276529	 0.183861851	 0.021486
C	-4.4998487115	-4.367750948	 0.0376611858	-0.26364
N	-3.5544157334	-4.4404398626	-1.0693348074	-0.077589
C	-3.8348980487	-3.6296621947	-2.2439257944	-0.31367
H	 0.8885227455	 1.9281656374	-0.1874283984	 0.113792
H	-0.8644938869	 2.0160181667	-0.4587966431	 0.125659
H	-0.2370223431	 1.670212312	 1.1619679639	 0.126112
H	 0.0720790752	-0.166835671	-1.2889310454	 0.083926
H	 0.7034844137	-0.5133342239	 0.3300076931	 0.084297
H	-1.3573327629	-2.0932330459	-1.1682718978	 0.089045
H	-0.7329628458	-2.4644735689	 0.4474910927	 0.084186
H	-3.0124325732	-2.0626751547	 1.4121586581	 0.111323
H	-3.64364098	-1.7337794212	-0.1899884324	 0.107516
H	-2.395365082	-4.4187726638	 0.716734903	 0.086599
H	-4.775580562	-5.3122067348	 0.500447612	 0.111591
H	-5.3141700125	-3.6462643036	-0.0370935449	 0.102715
H	-4.3196084157	-2.6632827184	-2.0352996957	 0.101576
H	-2.9033445222	-3.4368640503	-2.7863410736	 0.121275
H	-4.4971928404	-4.1969618861	-2.9060500953	 0.123447
