20
gdb 60329	4.25761	0.69838	0.62903	2.5845	78.66	-0.2688	-0.075	0.1938	1788.3312	0.168138	-440.306993	-440.296584	-440.295639	-440.34338	36.465	
C	 0.0722509239	 1.5489922421	-0.0069373985	-0.383387
C	 0.0396415361	 0.0153870234	-0.026512131	 0.011894
C	-1.3920647634	-0.5204756484	 0.1053763692	-0.394082
C	 0.6769010417	-0.5446728251	-1.2932185566	-0.049845
O	 2.0595838051	-0.1446055983	-1.3234887024	-0.246567
C	 2.7744604009	-0.5387509743	-2.3845994544	 0.310386
N	 2.3188898375	-1.2287819356	-3.3453939766	-0.506751
C	 4.2018165535	-0.0458093956	-2.2752704364	 0.106616
O	 5.0244752547	-0.2821095359	-3.120463046	-0.235384
H	 1.0936879293	 1.9245895054	-0.1067321593	 0.124054
H	-0.5216515203	 1.9616859272	-0.8314534628	 0.113407
H	-0.3437479935	 1.9362614469	 0.9283930152	 0.114075
H	 0.628501451	-0.3551032731	 0.8233188314	 0.085123
H	-2.0150532551	-0.1917904747	-0.73465506	 0.119126
H	-1.4132303805	-1.6149159405	 0.1298741895	 0.116988
H	-1.8581304022	-0.1547285878	 1.0250588264	 0.118809
H	 0.6303949179	-1.6386852034	-1.3247971055	 0.121461
H	 0.1821842501	-0.1702768476	-2.1976014005	 0.122336
H	 3.0773994517	-1.3836984133	-4.0134717276	 0.246028
H	 4.4263144615	 0.5439726589	-1.364312864	 0.105714
