16
gdb 42420	4.62406	0.79954	0.73325	2.4184	70.16	-0.2587	-0.0936	0.165	1480.0906	0.122869	-437.877725	-437.868784	-437.867839	-437.913382	30.28	
O	-0.1025430703	-0.040106067	-0.3439883596	-0.262456
C	-0.0203056118	 1.1375924945	-0.1022697532	 0.29052
C	 1.2721548449	 1.8875294962	 0.1248310478	-0.338152
C	 2.4919384414	 0.9806626827	 0.0841548858	-0.03242
C	 2.9163971351	 0.4224786752	-1.2930355598	-0.071269
O	 4.196823364	 1.0827611392	-1.2159591164	-0.267637
C	 3.8734946444	 1.6740828343	 0.0558618817	-0.098048
C	-1.2438574677	 1.9667646218	-0.0127911029	 0.234145
N	-2.1880550919	 2.6299832159	 0.0621558606	-0.289672
H	 1.3324863382	 2.678789396	-0.6371772643	 0.154356
H	 1.1896715826	 2.4196244838	 1.0832597861	 0.150677
H	 2.4046132058	 0.2072493108	 0.8491571026	 0.102323
H	 3.0133746824	-0.6663792714	-1.3568622691	 0.117463
H	 2.3229618051	 0.7750680879	-2.1470648165	 0.101127
H	 3.8475968709	 2.7715324757	 0.0061117064	 0.100039
H	 4.5750047069	 1.3732511344	 0.8430044907	 0.109004
