19
gdb 131817	5.38288	0.68666	0.65848	1.0981	78.29	-0.2387	0.0225	0.2613	1705.068	0.16087	-419.221302	-419.212345	-419.211401	-419.256584	31.994	
O	 0.1051577978	 1.4065894914	-0.2053450219	-0.416399
C	 0.0313436372	 0.0173905571	 0.0636742111	-0.055251
C	-1.3816711441	-0.5419476686	-0.1084852967	-0.202315
C	-1.4425326536	-2.0545680485	 0.1281662512	-0.165933
N	-2.7943179615	-2.5778933331	 0.043324645	 0.067183
C	-3.3541377053	-3.2948374218	-0.9626475465	-0.03363
C	-4.6713801054	-3.5142337536	-0.6148816654	-0.234152
C	-4.8100779522	-2.8782314244	 0.6345770255	 0.00039
N	-3.6726195739	-2.3103128077	 1.0303841594	-0.271267
H	-0.4580578332	 1.8593895221	 0.4306600675	 0.283437
H	 0.7164197785	-0.4560116647	-0.6493685389	 0.110781
H	 0.4079567183	-0.2171514613	 1.0731377794	 0.090708
H	-2.0633149836	-0.0582829236	 0.6013555051	 0.12064
H	-1.742268418	-0.3066120215	-1.1159546521	 0.114076
H	-0.8370934253	-2.5894892109	-0.6100131263	 0.119495
H	-1.0523957145	-2.3003448895	 1.1210765151	 0.130912
H	-2.7801433177	-3.5896579005	-1.8271955904	 0.127558
H	-5.4132441853	-4.0575952306	-1.1768514255	 0.103712
H	-5.6853319782	-2.8150053503	 1.2646304944	 0.110055
