20
gdb 56031	3.74639	0.97506	0.83383	4.5156	75.5	-0.232	0.039	0.2709	1392.6683	0.172367	-440.333731	-440.324673	-440.323729	-440.369114	33.286	
N	 0.3296574715	 0.2236409689	-0.9163097746	-0.508466
C	-0.2632149969	 0.1395013091	 0.3078113146	 0.360834
O	-0.0880983109	 0.9572856344	 1.191712238	-0.362842
C	-1.2222771312	-1.044389955	 0.4805317256	-0.295336
C	-0.6637009452	-2.4230158247	 0.0990041401	 0.112182
C	-1.6669844451	-3.572956864	 0.3320916685	-0.243989
C	-2.2756413536	-3.7944388804	-1.0614720209	-0.222005
C	-1.0774865661	-3.5024363155	-1.9633591614	-0.065552
O	-0.3501061379	-2.4617100526	-1.3098117117	-0.278121
H	 1.0347732007	 0.9319194914	-1.0405584088	 0.251349
H	 0.2890833697	-0.5655200753	-1.5446110165	 0.269264
H	-1.5048736468	-1.0477279801	 1.5357665187	 0.125177
H	-2.1273587194	-0.851581686	-0.1094300194	 0.116
H	 0.2678838314	-2.5967595318	 0.6518663885	 0.089432
H	-1.1379605974	-4.4731092893	 0.6604736879	 0.108805
H	-2.409160236	-3.3260869904	 1.0941798516	 0.112912
H	-2.6779493783	-4.800206939	-1.2020116956	 0.108236
H	-3.0801063414	-3.0770532405	-1.2531123209	 0.113399
H	-0.4391450005	-4.3922911053	-2.0728851754	 0.097796
H	-1.3499841766	-3.1526046239	-2.9635501083	 0.110927
