15
gdb 15098	5.5157	0.96261	0.88056	0.6043	82.12	-0.2418	-0.0231	0.2188	1279.335	0.117303	-325.433615	-325.425452	-325.424508	-325.466631	29.566	
C	 0.022674058	-3.1864156461	-0.9863400982	-0.535971
C	 0.0269840366	-2.07329364	-0.5183515727	 0.287566
C	 0.0324154354	-0.8181529683	 0.0075749343	-0.304977
C	 0.0292237871	 0.2953524838	 0.4850102883	 0.402469
C	 0.0544137224	 1.6547101347	 1.0286051311	-0.311617
N	 0.8793358079	 2.6445197661	 0.3265237612	-0.073501
C	 2.1383832431	 2.2138229949	-0.2725334806	-0.219371
C	 0.9737025697	 2.5775615496	-1.1281863898	-0.219372
H	 0.0187322571	-4.1656214775	-1.3968129993	 0.194027
H	-0.9703647684	 2.0461049019	 1.059149041	 0.145369
H	 0.4033524499	 1.6170752498	 2.0683746852	 0.145372
H	 2.9694937292	 2.9009619825	-0.1435535086	 0.118815
H	 2.396968265	 1.1584191564	-0.2256586349	 0.126187
H	 0.4717131401	 1.7596908217	-1.6400805031	 0.126187
H	 0.9359679471	 3.5360478805	-1.6375198439	 0.118816
