17
gdb 131384	3.10081	1.26257	0.96601	1.8107	75.1	-0.2081	0.0257	0.2338	1206.8159	0.137736	-418.015867	-418.007722	-418.006778	-418.049994	30.704	
O	-0.1306310454	 1.3157204	 0.0718894882	-0.431325
C	-0.0084831814	-0.0303452905	 0.0398863462	 0.336663
N	-0.0458961818	-0.7100215673	-1.0957072445	-0.335621
N	 0.1085945619	-1.9968621109	-0.6983415098	-0.201034
C	 0.2390699594	-2.121106284	 0.6435171026	-0.136515
C	 0.1686224388	-0.8486015129	 1.183417627	 0.160007
C	 0.2500835903	-0.3903662144	 2.5851485518	-0.109853
C	-0.3307569035	-1.2073066023	 3.7215926813	-0.264936
C	 1.1609171543	-1.0675581365	 3.5892086585	-0.264892
H	-0.2388925067	 1.6121894044	-0.8401353846	 0.302331
H	 0.1145164509	-2.7229748543	-1.3916427293	 0.273471
H	 0.3698421644	-3.0857352976	 1.1091437229	 0.130809
H	 0.1580273473	 0.6856656139	 2.6834364838	 0.096091
H	-0.8307307511	-0.680592756	 4.5271289913	 0.113364
H	-0.7812879517	-2.1607951457	 3.4663971951	 0.109031
H	 1.7278551095	-1.9257123998	 3.2436747033	 0.109042
H	 1.6880727848	-0.444612086	 4.3035872662	 0.113365
