23
gdb 40820	3.60342	1.03728	0.8671	1.1116	86.27	-0.2406	0.0914	0.332	1413.668	0.207875	-388.29363	-388.28507	-388.284125	-388.327039	33.752	
C	-0.1544098823	 1.4136582503	-0.1475547333	-0.272618
C	 1.2651611255	 0.9839445589	 0.1254355412	-0.27133
C	 0.171931156	-0.0466255204	 0.0448793173	 0.020519
C	-0.289561446	-0.7604870576	 1.2889190514	 0.127366
C	-1.7063800777	-1.3374165377	 1.1552480648	-0.195885
C	-2.0888317464	-2.1462515966	 2.4023176021	-0.213122
C	-1.0007595685	-3.1831107837	 2.7119609942	-0.192204
C	 0.3677150661	-2.5011145806	 2.7594670306	-0.062293
O	 0.6513390174	-1.7965009566	 1.5630419051	-0.263706
H	-0.6905718754	 1.9238943023	 0.6464737668	 0.108471
H	-0.4122771983	 1.7556011004	-1.1435997113	 0.110148
H	 1.9849361361	 1.0327197055	-0.6838246984	 0.110885
H	 1.6823410405	 1.1977085198	 1.1037162274	 0.113008
H	 0.158624979	-0.6697988265	-0.8453418589	 0.083669
H	-0.2817562187	-0.0432943715	 2.1323309675	 0.048804
H	-2.4171338162	-0.5219693741	 0.981698133	 0.094632
H	-1.7323316774	-1.9853859313	 0.2694983711	 0.096429
H	-2.1936517473	-1.4651988476	 3.2584943537	 0.092828
H	-3.0623110349	-2.6294190218	 2.2663989204	 0.093233
H	-1.1960897393	-3.6899735101	 3.6641178349	 0.090284
H	-0.9853448781	-3.9519000126	 1.9294407955	 0.101126
H	 0.4077694877	-1.8105288408	 3.6212605996	 0.078357
H	 1.1741012781	-3.2309071276	 2.8806458854	 0.101398
