18
gdb 37511	3.2875	2.21261	1.92317	0.6626	72.46	-0.2227	0.0879	0.3106	793.0362	0.153223	-401.917865	-401.912601	-401.911657	-401.947136	24.07	
C	-0.0325634861	 1.4861892108	-0.0413871069	-0.200673
C	 1.4939453997	 1.3817497622	-0.0059685651	-0.050993
C	 1.2744971183	 0.0578981766	 0.7913315211	-0.018125
C	 2.2247108945	-1.0035517746	 0.1344376781	 0.046036
C	 1.265417223	-1.7396360656	-0.8192885233	-0.212323
C	 0.6146793701	-0.4240902651	-1.255087185	-0.046068
C	 1.8734750009	 0.5832448314	-1.2653106634	 0.06816
O	 2.9689157979	-0.2169984752	-0.8090610143	-0.264359
N	-0.057563662	-0.0171891078	 0.0171381246	-0.129755
H	-0.4722588239	 1.9027237255	 0.8684796614	 0.108572
H	-0.5195113752	 1.9244858343	-0.9188463757	 0.098569
H	 2.1719013923	 2.1813028392	 0.2933240307	 0.07188
H	 1.1555642662	 0.0857582969	 1.8723700324	 0.080849
H	 2.89503983	-1.5707337946	 0.7767820869	 0.079379
H	 1.8194325587	-2.2684858361	-1.5958654472	 0.106238
H	 0.5392015109	-2.3966081555	-0.3373883461	 0.112022
H	-0.0501444783	-0.4147825485	-2.1171877245	 0.072152
H	 2.1312135531	 1.1107817662	-2.1814132836	 0.078439
