22
gdb 95240	2.72711	1.42441	1.07918	2.1971	82.5	-0.2411	0.0692	0.3102	1199.4806	0.196317	-404.333039	-404.324618	-404.323674	-404.365779	33.444	
C	-0.3649955344	 1.4527609382	 0.0767915714	-0.394089
C	 0.0127508222	-0.0241942879	-0.0048448451	 0.133632
C	 0.709785143	-0.3600315035	-1.3315830831	-0.182785
C	 0.7994176615	-1.8509482973	-1.6714269909	-0.236427
C	 1.6259255352	-2.7144163492	-0.7390368065	-0.007804
N	 2.7986140747	-2.12119892	-0.0717206327	-0.328588
C	 1.6722939551	-2.5960979422	 0.7423535294	-0.024214
C	 0.9056433691	-1.5938134063	 1.5903699288	-0.096267
O	 0.8541029707	-0.2748656056	 1.1160934012	-0.239333
H	 0.5287235649	 2.0770231689	-0.0228561903	 0.125169
H	-1.065976428	 1.722015944	-0.7186874532	 0.108213
H	-0.8276314416	 1.6725929261	 1.0423634441	 0.11669
H	-0.9022741672	-0.6361121893	 0.0908963382	 0.055076
H	 0.164975294	 0.1368864248	-2.1436526631	 0.085711
H	 1.7139957503	 0.0743629292	-1.2982519483	 0.124466
H	-0.2120194381	-2.2792393954	-1.7235553967	 0.094853
H	 1.2175696647	-1.9513327125	-2.6818793176	 0.097314
H	 1.7449779846	-3.7325834764	-1.1119877799	 0.075211
H	 3.5730237741	-2.7776080277	-0.0431005217	 0.228852
H	 1.8038456993	-3.5391993317	 1.2767403396	 0.076177
H	-0.1117039669	-1.9917188689	 1.759314186	 0.08204
H	 1.3939968129	-1.5310434475	 2.5705412606	 0.106104
