23
gdb 122168	2.68092	0.98181	0.82307	2.7621	83.54	-0.2202	0.0761	0.2963	1528.3967	0.203305	-425.407698	-425.397062	-425.396118	-425.443551	39.107	
C	 0.6204990758	 0.1935547956	-1.1476030204	-0.393412
C	-0.122249906	-0.1770742119	 0.1239530002	-0.031328
O	-1.209238153	-1.0241581479	-0.2108384723	-0.261212
C	-1.990422924	-1.4124372162	 0.9105065317	-0.124993
C	-3.1532786256	-2.2919852225	 0.4911642084	 0.244895
C	-4.0600800039	-2.6452167554	 1.6534593365	-0.461749
C	-3.7763392825	-2.0695428042	-0.8807804721	-0.368241
C	-2.9556831	-3.3097957804	-0.6088118195	 0.117297
O	-1.725290231	-3.5449840361	-1.2182903327	-0.439018
H	 1.4544798875	 0.8624780479	-0.915848037	 0.121465
H	 1.0220288504	-0.6981098821	-1.6380195133	 0.131313
H	-0.0471241735	 0.7015397337	-1.8491130332	 0.131433
H	 0.54753524	-0.6880025296	 0.8341893	 0.095903
H	-0.5039615229	 0.7248226152	 0.6286390788	 0.095975
H	-1.3566835566	-1.9514389964	 1.6357645812	 0.095818
H	-2.3698433105	-0.5104984311	 1.4206455281	 0.094463
H	-4.5280842592	-1.7506311875	 2.0833359439	 0.113312
H	-4.8640577279	-3.3134003734	 1.3316250202	 0.119753
H	-3.508478579	-3.1526810284	 2.4543293341	 0.116264
H	-4.854022114	-2.1547338292	-0.9817018019	 0.10181
H	-3.3170860455	-1.3132048934	-1.5076904543	 0.118995
H	-3.496458799	-4.2463402829	-0.5041650251	 0.093995
H	-1.2261485994	-2.717788654	-1.1658505314	 0.287261
