18
gdb 22061	2.92072	0.95953	0.84731	1.6344	71.63	-0.2477	0.011	0.2588	1429.2089	0.143507	-476.220576	-476.209974	-476.20903	-476.257948	35.975	
C	-0.1681016435	 1.2956427362	-0.2526604813	-0.481712
C	 0.21720094	-0.1599715181	-0.3200446698	 0.442679
O	 1.3063731607	-0.6143216033	-0.0866132254	-0.352107
O	-0.8532165117	-0.9105863881	-0.6853656434	-0.223879
C	-0.6011610552	-2.2922538494	-0.9100239988	-0.161174
C	-0.135261952	-2.6002773206	-2.3121254898	 0.3493
C	 0.1164096681	-4.0436781713	-2.6494670704	-0.475404
N	 0.0220213774	-1.6252254835	-3.1176560763	-0.158218
O	 0.4674161441	-2.0656712661	-4.373185079	-0.399646
H	 0.6443952513	 1.8679728874	 0.1932874269	 0.145999
H	-0.3619924109	 1.6600344763	-1.2660732089	 0.1585
H	-1.0879986668	 1.4240371436	 0.3230290286	 0.146318
H	 0.1450764124	-2.6574227057	-0.1955153391	 0.14452
H	-1.5489394458	-2.8068949862	-0.7161832096	 0.126811
H	-0.456292872	-4.3336133056	-3.5353184673	 0.152823
H	 1.1730007752	-4.1963842037	-2.8919863087	 0.157173
H	-0.15115056	-4.7015179736	-1.818934392	 0.12077
H	 0.5428256385	-1.2394858882	-4.8619199956	 0.307249
