18
gdb 99361	6.48386	0.56688	0.52961	2.4988	76.2	-0.239	-0.0332	0.2058	1992.5457	0.144113	-439.044208	-439.033918	-439.032974	-439.080739	35.825	
O	 0.1032646321	 1.3571246132	 0.0138770425	-0.418036
C	 0.0064113493	-0.016614344	-0.2089339453	-0.128024
C	-1.4076925275	-0.5222983007	 0.0222144313	 0.349273
O	-2.3010237118	 0.2705550415	 0.2339631887	-0.322028
C	-1.6470937766	-2.0192512856	 0.0052551455	-0.229003
N	-3.0367245809	-2.3201608969	-0.2485313995	-0.299659
C	-3.4338139278	-3.6582748994	 0.1809900279	-0.27757
C	-4.8695560783	-3.8650142816	 0.0285992394	 0.274591
C	-6.0553758549	-4.0246159501	-0.0753509703	-0.412223
H	-0.8096372608	 1.660115187	 0.1407503327	 0.296382
H	 0.2816991379	-0.2849268023	-1.2448786567	 0.121082
H	 0.6977613892	-0.5720882212	 0.4443731244	 0.118999
H	-0.9965131892	-2.4892841402	-0.7457240127	 0.124781
H	-1.2795783039	-2.3878662485	 0.9881129828	 0.112142
H	-3.6161326699	-1.6111219317	 0.1889302435	 0.242886
H	-2.893531818	-4.394527983	-0.430621144	 0.134732
H	-3.1503493977	-3.8727213767	 1.2304262024	 0.111286
H	-7.1024583511	-4.17011889	-0.1759007127	 0.20039
