15
gdb 28069	5.67162	0.93421	0.80281	4.5733	71.57	-0.1853	0.0091	0.1944	1336.5728	0.113519	-453.992739	-453.984474	-453.983529	-454.025794	30.542	
N	 0.0367218297	 1.409279185	 0.1544317376	-0.594673
C	-0.0755356779	 0.0317361878	 0.0535382617	 0.428295
C	-1.1393378262	-0.8211449725	 0.031020666	-0.424496
C	-0.5625650127	-2.1404473352	 0.0110398128	 0.351577
N	-1.3100851836	-3.3226110915	-0.015426581	-0.40627
C	-0.7882789044	-4.5826813116	-0.0468116027	 0.140331
O	 0.3946867136	-4.8449672516	-0.0584305589	-0.310145
C	 0.788722358	-1.9960100669	 0.0197210766	-0.109664
O	 1.0887262756	-0.6463308087	 0.0462840379	-0.181449
H	 0.8997565748	 1.7568246538	-0.2435128414	 0.258611
H	-0.7602008933	 1.9028246365	-0.2222385112	 0.256431
H	-2.1856337539	-0.5601172552	 0.0327376092	 0.093908
H	-2.3137092409	-3.2336278015	-0.0054074723	 0.254513
H	-1.5846506324	-5.351609024	-0.0610132639	 0.079442
H	 1.6138931935	-2.6793708044	 0.0074482497	 0.16359
