23
gdb 122134	1.89565	1.03654	0.7664	1.6119	78.94	-0.2566	0.0619	0.3186	1584.158	0.203475	-462.550427	-462.539198	-462.538253	-462.588139	39.71	
C	 0.0638646794	 1.6165218521	 0.0031476809	-0.391211
C	 0.0429863312	 0.0865877755	 0.0085794951	-0.170109
C	 0.7150413406	-0.5252720222	 1.2381597329	 0.104023
C	 0.6175811561	-2.0550495672	 1.2734037336	-0.069297
O	 1.2981760495	-2.6390588793	 0.1800455692	-0.419721
O	 2.104003112	-0.167220576	 1.1995387342	-0.28867
C	 2.7351020156	 0.0016029075	 2.4608187198	-0.080136
C	 4.1572420831	 0.4624672264	 2.1779628666	-0.062584
O	 4.1771397285	 1.6623753828	 1.4327103814	-0.419728
H	 1.0868242873	 1.9964104658	 0.0714123488	 0.123131
H	-0.3837695826	 2.0129239932	-0.9129197724	 0.115803
H	-0.4977822644	 2.0248622182	 0.851023373	 0.112279
H	-0.9921140271	-0.2742183773	-0.0246077925	 0.098322
H	 0.5370144161	-0.3120110311	-0.8835367682	 0.11325
H	 0.2587653462	-0.1117755547	 2.1514445656	 0.067997
H	 1.0126503466	-2.4271833229	 2.2332111819	 0.083612
H	-0.4301406029	-2.3679540492	 1.2096383912	 0.107742
H	 2.1562273221	-2.1978234435	 0.145425952	 0.284345
H	 2.2005024897	 0.7655092604	 3.0447304706	 0.103359
H	 2.7447750601	-0.9341764331	 3.0403507786	 0.092744
H	 4.6742578788	 0.6580668382	 3.123047191	 0.111513
H	 4.7001849209	-0.3443486175	 1.6590648174	 0.090065
H	 3.6107456734	 1.5056890737	 0.6684220093	 0.293273
