18
gdb 88893	6.20142	0.56821	0.54359	5.662	91.51	-0.278	-0.0347	0.2432	1981.8365	0.14679	-364.793535	-364.784026	-364.783082	-364.829065	33.848	
C	 0.2581068544	 1.5566517919	-0.2712462483	-0.40694
C	 0.104732568	 0.0683995935	-0.0409391902	-0.00853
C	 1.3096879123	-0.8345819127	 0.0755533617	-0.283688
C	 0.4241494342	-0.6062701294	 1.2753454579	 0.009176
C	 0.9289000499	 0.1752461825	 2.4835700647	-0.407791
C	 1.6715532774	-0.661452967	 3.4149313209	 0.098618
C	 2.2795328844	-1.3729048542	 4.1796275269	 0.046544
C	 2.9683295325	-2.1729818219	 5.0445790839	 0.207543
N	 3.5548233255	-2.8540912464	 5.7809973587	-0.340677
H	 1.1649275932	 1.9560896791	 0.1925274611	 0.116228
H	 0.3260966347	 1.7719033338	-1.3428300655	 0.125211
H	-0.5961876327	 2.1165777435	 0.1253948696	 0.121144
H	-0.749781533	-0.3619668951	-0.5570058485	 0.09287
H	 1.2977602986	-1.8067986724	-0.4038819619	 0.11964
H	 2.28539785	-0.3571678085	 0.0809848456	 0.115433
H	-0.2263336333	-1.4308492903	 1.5512963007	 0.101408
H	 1.5741370452	 1.0027249933	 2.1669548218	 0.145258
H	 0.0859446387	 0.6337304903	 3.0184105808	 0.148554
