19
gdb 69667	3.61527	1.40062	1.17456	1.5012	82.26	-0.2318	0.0065	0.2383	1099.6274	0.159524	-385.842509	-385.83481	-385.833866	-385.874342	30.708	
C	 0.0987251796	 1.5791214352	 0.3674318732	-0.502245
C	 0.1273915468	 0.1306263468	 0.0026656443	 0.391377
O	-0.9274345012	-0.7086313312	 0.4782694951	-0.277338
C	 0.4387948185	-1.0939774382	 0.7920420817	-0.187465
C	 0.8812744121	-1.7999823283	-0.4652200457	 0.304225
C	 0.8400190103	-2.8988001011	-1.208723496	-0.215766
C	 0.6580842838	-2.4834015142	-2.6716419011	-0.237597
C	 0.0875150657	-1.0246301261	-2.5682670083	-0.257338
C	 0.7468563869	-0.5265985745	-1.2751683137	-0.10238
H	 1.0762153827	 2.0414602267	 0.1972159845	 0.124333
H	-0.6373889974	 2.1154607997	-0.2423043991	 0.131973
H	-0.1743892271	 1.7066589086	 1.4184137518	 0.133158
H	 0.6784877266	-1.2338137494	 1.8390436426	 0.104712
H	 0.8435929225	-3.9316425781	-0.8811049614	 0.098357
H	 1.6066375803	-2.5012230181	-3.2278658833	 0.104474
H	-0.0231811703	-3.1577546715	-3.2020234632	 0.105792
H	 0.2982836247	-0.4213226829	-3.4556934492	 0.090272
H	-0.9976054744	-1.0785609984	-2.432242813	 0.114581
H	 1.7272312798	-0.063020445	-1.4569991693	 0.076877
