14
gdb 15740	3.39544	1.70009	1.21243	1.531	61.19	-0.2672	-0.0287	0.2385	943.1766	0.107527	-415.863402	-415.855858	-415.854914	-415.895966	26.512	
N	 0.3269044822	 0.76871747	 1.9496743685	-0.503389
C	-0.0055487707	 0.2069842777	 0.8596070385	 0.346755
N	-1.3757573757	 0.121894929	 0.5733492463	-0.320984
C	-1.9956222127	-0.3238224753	-0.5661203236	 0.161193
O	-1.4481757892	-0.7640637872	-1.5507389225	-0.3035
C	 0.955524971	-0.378607944	-0.1355413234	-0.0032
C	 1.8579909191	 0.5119567182	-0.8830489833	-0.159961
O	 2.3226733918	-0.2398810004	 0.2398301045	-0.228409
H	 1.3438829733	 0.7337589362	 2.0386366545	 0.244404
H	-1.9569535719	 0.4981123485	 1.3110810124	 0.266601
H	-3.0947605109	-0.2339112418	-0.4766372755	 0.098234
H	 0.6801293393	-1.3277340584	-0.5821079337	 0.139018
H	 2.2353971621	 0.1938624165	-1.8524344188	 0.134847
H	 1.7918119822	 1.586662631	-0.724714254	 0.12839
