20
gdb 115782	2.30761	1.17323	0.8902	3.0518	76.76	-0.2427	-0.0321	0.2106	1341.2556	0.169545	-440.262202	-440.252751	-440.251807	-440.29754	33.933	
O	 0.1281730009	 1.2867701185	-0.311297612	-0.420245
C	 0.0415152163	-0.0231126758	 0.2085143321	-0.078419
C	-1.4017859549	-0.5106880482	 0.240841752	 0.026392
C	-2.4682572512	 0.3725661761	 0.9376722825	-0.251675
C	-3.3277401322	 0.1697792606	-0.3312306963	-0.165481
N	-2.1164839227	-0.2913520526	-1.0478403302	-0.105053
C	-2.2340675017	-1.3753722004	-1.9973129666	-0.242533
C	-0.9695087459	-1.5498325685	-2.8248760959	 0.155559
O	-0.5519249488	-2.6087683317	-3.2119339299	-0.233655
H	-0.4909909138	 1.2993264869	-1.0555734864	 0.276444
H	 0.6534022907	-0.7301925481	-0.3787833817	 0.091971
H	 0.453237739	-0.0058544242	 1.2243585043	 0.110587
H	-1.445775965	-1.5599801177	 0.5732856279	 0.067122
H	-2.8782528783	 0.0035074077	 1.8772149774	 0.109289
H	-2.1217720133	 1.3998378807	 1.0571274916	 0.128724
H	-4.0753877514	-0.6274920208	-0.2049042978	 0.095618
H	-3.8142471009	 1.0434443489	-0.7767628497	 0.10843
H	-2.4992571044	-2.3462305858	-1.5451239171	 0.11005
H	-3.0318949799	-1.1186641031	-2.7108770193	 0.132996
H	-0.4573146223	-0.5900926724	-3.0651744548	 0.083879
