20
gdb 80675	2.94908	1.39555	1.17215	1.456	78.44	-0.2249	0.0818	0.3067	1121.3618	0.171045	-403.072214	-403.063859	-403.062915	-403.10519	32.08	
C	-0.0473212234	 1.0585470898	 1.1846960218	-0.438247
C	 0.4638143649	-0.3456132352	 0.9636858023	 0.032603
C	 0.7217120252	-1.0025584256	-0.3306005922	-0.046675
C	 1.3276779624	-0.057822732	-1.3714149984	-0.296543
C	 2.493317124	 0.132443364	-0.3701816838	 0.033579
C	 2.9822503548	 1.4980491739	 0.0406336989	 0.068162
C	 3.3749921798	 2.4953166527	-0.964354878	-0.182303
O	 2.1721140404	 2.6507100759	-0.2097723912	-0.224787
N	 1.8579551016	-0.7653850118	 0.6712289418	-0.189132
H	 0.2262510163	 1.7554422126	 0.3942811731	 0.160044
H	-1.1404232151	 1.0299302724	 1.2576457931	 0.113872
H	 0.3345184881	 1.4609126913	 2.1294828394	 0.121605
H	 0.0794762585	-1.0409640584	 1.7098299632	 0.094638
H	 0.3745216119	-2.0067275804	-0.5551034465	 0.091509
H	 1.6272997567	-0.5520789706	-2.2964756735	 0.107778
H	 0.7385691404	 0.8295424245	-1.6151268998	 0.119798
H	 3.3767127601	-0.4216587398	-0.7077534237	 0.096084
H	 3.4922610858	 1.5169420951	 1.0054962311	 0.103341
H	 4.1639150628	 3.2123460127	-0.7430967057	 0.118036
H	 3.232958915	 2.2727674989	-2.0214025821	 0.116639
