20
gdb 6117	2.7696	1.75721	1.43803	2.8652	75.05	-0.2345	-0.0128	0.2217	989.9132	0.174554	-349.02834	-349.019312	-349.018368	-349.061426	33.955	
C	-0.637358832	 1.2497499267	-0.0725187055	-0.417958
C	 0.1024144458	-0.079996797	-0.0759195947	-0.115705
C	 1.4718379451	-0.1771132582	-0.758236952	 0.390509
O	 1.9654339197	 0.3797512951	-1.697439037	-0.303846
C	 2.0073394211	-1.1221073653	 0.3251444668	-0.381141
C	 0.7858599668	-0.6931895224	 1.2122851683	 0.305645
C	 1.1928196969	 0.3696591541	 2.2355493402	-0.438249
C	 0.0143147846	-1.8312537761	 1.8739000083	-0.453836
H	-0.0269370295	 2.0527084175	 0.3497131777	 0.124433
H	-0.8937540529	 1.5366560536	-1.0966796458	 0.134697
H	-1.5666158012	 1.1893002932	 0.5033877582	 0.11725
H	-0.535965556	-0.8568677143	-0.5208023832	 0.096374
H	 1.9539653455	-2.1684118287	 0.0048711504	 0.121464
H	 3.0138054283	-0.9189524221	 0.6999982515	 0.121782
H	 1.7733605465	 1.1774702506	 1.7770328193	 0.120932
H	 0.3168825178	 0.8191481703	 2.7151596197	 0.117494
H	 1.8126283065	-0.0752951216	 3.0216112843	 0.11613
H	 0.6104574127	-2.3105087417	 2.6588136336	 0.116711
H	-0.908745165	-1.4655432976	 2.3385145226	 0.116667
H	-0.2606075605	-2.601858716	 1.1455721173	 0.110648
