19
gdb 103261	2.50582	1.349	1.10763	2.4746	76.45	-0.2377	-0.0111	0.2265	1170.8874	0.157289	-423.016182	-423.007231	-423.006286	-423.049812	34.214	
C	 0.0458425573	 1.4447828627	 0.3147925969	-0.400686
C	 0.0021137345	-0.022245356	-0.132252564	-0.251365
C	-1.3845602877	-0.6311324701	-0.0273512963	 0.421867
O	-2.3393039387	-0.0087722748	-0.8457311671	-0.474186
C	-1.6901006443	-2.0722976447	 0.1174053926	-0.10894
C	-0.6468394287	-2.8165781486	 0.9602853107	-0.379723
C	-0.99905708	-1.8539585658	 2.1301292301	 0.401239
O	-0.6949480268	-1.8369767744	 3.2902776249	-0.31936
C	-2.0004966876	-1.1066925498	 1.3104392496	-0.252253
H	 1.0643945484	 1.8375934307	 0.2549747788	 0.125718
H	-0.5781467025	 2.0829353475	-0.3212555282	 0.110765
H	-0.295424548	 1.5516422219	 1.3496777648	 0.133188
H	 0.3300909245	-0.1041053285	-1.1757158866	 0.11092
H	 0.7082121744	-0.5989347226	 0.4713491019	 0.115074
H	-2.4136343073	 0.9123330429	-0.5737662759	 0.289023
H	-2.4247148885	-2.5404696575	-0.5242128855	 0.113193
H	-0.9668562321	-3.8300351556	 1.220925229	 0.135815
H	 0.3849141242	-2.8534031862	 0.6020703511	 0.12198
H	-2.936628291	-0.6750623512	 1.6422255932	 0.107731
