15
gdb 53764	4.00877	0.6065	0.54073	5.7306	74.23	-0.2715	-0.0651	0.2064	1939.5163	0.10849	-457.764125	-457.754048	-457.753104	-457.802292	32.542	
C	-0.1053169216	 1.2709213814	-0.1308489508	-0.480525
C	-0.1495965952	-0.2417069618	-0.1536744394	 0.258591
O	 0.8185364228	-0.9354973598	-0.3714102475	-0.264705
C	-1.4540152308	-0.8328140976	 0.1077616965	 0.019746
C	-2.5328194299	-1.3283122853	 0.3247433032	 0.100303
C	-3.8307836911	-1.9380579866	 0.5748387306	-0.255841
O	-3.7550882994	-3.3529778749	 0.7988263231	-0.164668
C	-3.7176914763	-4.1409436037	-0.3016521432	 0.186928
O	-3.6383655236	-5.3271902602	-0.2318822449	-0.257149
H	 0.9096807946	 1.608202247	-0.3448086316	 0.15002
H	-0.8015356671	 1.6799497912	-0.8710434928	 0.148671
H	-0.4254261735	 1.6412478374	 0.8491321165	 0.150735
H	-4.280189908	-1.5255600672	 1.4822665075	 0.168943
H	-4.5127656334	-1.7184770559	-0.25774663	 0.152062
H	-3.7801477275	-3.5668472538	-1.2462368272	 0.086889
