19
gdb 42124	2.34733	1.65897	1.07283	0.1004	78.08	-0.2531	0.0043	0.2574	1128.5675	0.160546	-422.968291	-422.959966	-422.959022	-423.000924	31.798	
C	-0.0683343492	 1.4589949834	 0.4908572479	-0.202296
C	 1.3899789634	 1.8976580807	 0.3182850565	-0.066438
O	 2.3020600196	 1.0082900762	 0.9725601017	-0.247746
C	 3.3039130461	 0.4389023818	 0.1367615886	-0.204213
C	 2.650373111	-0.2871769796	-0.9555831607	 0.045275
C	 1.7637442688	-0.6410470502	-1.692259084	 0.045311
C	 0.4028262582	-0.769288234	-2.2204343492	-0.204216
O	-0.4245047635	 0.2072948479	-1.5973272139	-0.247743
C	-0.4839593516	 0.1391547546	-0.1680793905	-0.066427
H	-0.2879664778	 1.3751712879	 1.5628927431	 0.10513
H	-0.70287525	 2.2646861494	 0.1000302465	 0.105129
H	 1.6243128226	 1.9810897987	-0.7473357331	 0.117341
H	 1.5164675732	 2.8906134876	 0.7696531716	 0.097496
H	 3.9821712179	 1.2110424521	-0.2589981762	 0.118569
H	 3.8950308001	-0.2180764357	 0.7821382897	 0.135713
H	 0.3491651839	-0.566586218	-3.2944857899	 0.135712
H	 0.0150081869	-1.7868853731	-2.0562718913	 0.118567
H	 0.1444061692	-0.6732617015	 0.2095066863	 0.117347
H	-1.523198669	-0.0824697384	 0.1085977168	 0.097489
