16
gdb 69445	4.01675	1.21019	1.04427	5.9089	69.35	-0.2792	0.0124	0.2916	1135.9078	0.123641	-437.87943	-437.871333	-437.870389	-437.912235	29.782	
C	 0.034668954	 1.4400565878	-0.1539612411	-0.491843
C	-0.0263586252	-0.0422400019	 0.0781146354	 0.389909
C	-1.2312781446	-0.8574913783	-0.3546455438	-0.135559
O	-1.1216101933	-2.1203750159	 0.3013657777	-0.264075
C	-0.2929837867	-1.9958348778	 1.4497555805	-0.026764
C	 0.4742177351	-3.2365294934	 1.6277358974	 0.286542
N	 1.0870927232	-4.1968089633	 1.8147546882	-0.313799
C	 0.5743246723	-0.7682885247	 1.2025432658	-0.073537
O	 1.1916883154	-0.7917701401	-0.0794420836	-0.270232
H	 0.9571474335	 1.8528802009	 0.2600210476	 0.143502
H	 0.0142691728	 1.6622286076	-1.2260307266	 0.141535
H	-0.8185232856	 1.9434277935	 0.3116452837	 0.132235
H	-2.1575313365	-0.3398277562	-0.0624341281	 0.105476
H	-1.256881642	-1.0472573701	-1.4321686189	 0.132317
H	-0.8914905991	-1.832406489	 2.3613287662	 0.123122
H	 1.1255513268	-0.3110305989	 2.0189683698	 0.121171
