13
gdb 21023	7.0763	1.33847	1.13364	6.2485	63.34	-0.2541	-0.0543	0.1998	985.2026	0.096669	-394.813255	-394.806138	-394.805194	-394.845186	24.289	
C	 0.0204142634	 1.4396243329	 0.0663157258	-0.323741
N	-0.0145092355	-0.0069122752	-0.0224397996	 0.059119
C	-0.1826087937	-0.7988459141	-1.1116785113	 0.014614
N	-0.1538036198	-2.0678391426	-0.7725562725	-0.289899
C	 0.0401487889	-2.0080089072	 0.5769779468	 0.245885
C	 0.1517906451	-3.1676317521	 1.483273874	 0.098964
O	 0.0842674617	-4.3197367215	 1.1363754451	-0.249691
N	 0.1298819476	-0.7722377353	 1.0701247941	-0.278279
H	 0.9817205514	 1.7662258447	 0.4691306706	 0.164484
H	-0.1149561142	 1.854047806	-0.9338275064	 0.151141
H	-0.7806822694	 1.793597294	 0.719008723	 0.164449
H	-0.3186051335	-0.3992074987	-2.1060017229	 0.151638
H	 0.307800028	-2.8706008209	 2.5415786731	 0.091315
