21
gdb 119701	2.98902	0.97884	0.87696	1.8823	78.96	-0.2321	0.0735	0.3056	1418.4338	0.181314	-424.181466	-424.171853	-424.170908	-424.21633	35.406	
C	 0.0182758477	 1.5780967763	 0.050645917	-0.42211
C	 0.0609208001	 0.0666681931	 0.0529013526	-0.061276
C	 1.298189253	-0.7687566592	-0.2496247178	-0.225603
C	 2.516272779	-0.1483827521	 0.4205266078	-0.095779
O	 1.826887976	-0.068116218	 1.6962910299	-0.326648
C	 0.6892156573	-0.7587567296	 1.1418912678	 0.461212
C	 0.0274467218	-1.780812108	 2.0114216213	-0.323888
C	-0.670312188	-1.1495105071	 3.2246799343	-0.059796
O	-1.2964673621	-2.1155473968	 4.0534984583	-0.419331
H	 0.8413439714	 1.9927420925	 0.6374810932	 0.135886
H	 0.0792455976	 1.9796110669	-0.9666016935	 0.114701
H	-0.915344539	 1.9382095247	 0.4958633234	 0.117867
H	-0.8293986298	-0.4135246786	-0.3505685673	 0.087838
H	 1.317131119	-1.5457883641	-1.0026616766	 0.095345
H	 3.3707300485	-0.8309057684	 0.4909982771	 0.108336
H	 2.8579219402	 0.831826093	 0.0678004066	 0.103548
H	-0.7098287916	-2.3402433767	 1.4252247638	 0.11051
H	 0.7806366463	-2.4996419768	 2.3624650974	 0.094076
H	 0.0494465586	-0.5370553955	 3.7868377749	 0.109564
H	-1.4701595796	-0.4829673137	 2.8857258392	 0.114035
H	-0.6045386865	-2.6518877019	 4.4534198406	 0.281513
