25
gdb 85854	2.05567	1.39144	1.27999	1.3076	88.41	-0.2458	0.069	0.3148	1236.4688	0.225791	-389.498198	-389.487315	-389.486371	-389.53263	42.406	
C	-1.2200582594	 0.4206987402	-1.3320861225	-0.427827
C	-0.0036138278	-0.3296052016	-0.8080103251	-0.001201
C	 1.4187850207	 0.1533109285	-1.1950475464	-0.28456
C	 1.9290276727	-0.2475384034	 0.2239409117	 0.294248
C	 2.5272529978	-1.6602086155	 0.2276087958	-0.422544
C	 2.8947365519	 0.7200284953	 0.904979096	-0.458291
C	 0.4256405117	-0.2447451458	 0.6963307561	 0.358186
C	-0.0258312482	 1.0280797518	 1.4080265903	-0.456962
O	 0.118774009	-1.3759323403	 1.4975824548	-0.477475
H	-1.1518251003	 1.4973648085	-1.1442289762	 0.111233
H	-1.3203109101	 0.2846978202	-2.4147071628	 0.115688
H	-2.1479536356	 0.0597205396	-0.8725462526	 0.106889
H	-0.1058589589	-1.3928310775	-1.0474563813	 0.078451
H	 1.8998254066	-0.3351697399	-2.0468359453	 0.091638
H	 1.4523824361	 1.2367999153	-1.3537316747	 0.087286
H	 3.4947785209	-1.6522300695	-0.287188478	 0.100046
H	 2.684527279	-2.0171039957	 1.2492806729	 0.120507
H	 1.8821580675	-2.3853078225	-0.2742071956	 0.115849
H	 2.531490626	 1.7514393049	 0.8900979147	 0.105206
H	 3.0702248348	 0.438252181	 1.9497201544	 0.115327
H	 3.8653083794	 0.7068801818	 0.3957404732	 0.110113
H	 0.2077782419	 1.9328532808	 0.8405659925	 0.120173
H	-1.1129783788	 1.013616596	 1.5571515956	 0.102703
H	 0.4507957276	 1.1046441799	 2.3893818844	 0.12317
H	-0.7885404146	-1.287483762	 1.8076227182	 0.272148
