19
gdb 84387	2.12365	1.72671	1.11741	1.6806	81.7	-0.2491	0.0109	0.26	1131.859	0.158106	-385.866125	-385.857117	-385.856173	-385.899529	34.762	
C	-0.101764318	 1.5971508587	-0.0898817612	-0.405972
C	 0.052731289	 0.0758823408	-0.0324497883	-0.029216
C	 0.8283243211	-0.5301716458	-1.1845256825	-0.054712
C	 1.5991402255	-1.5447831716	-0.8047319487	-0.123382
C	 1.4745559313	-1.8263476239	 0.6773869134	 0.098514
O	 2.6607210337	-2.2128433922	 1.3293426192	-0.429743
C	 0.8096175629	-0.5007417154	 1.2153460048	-0.247854
C	 1.8419437053	 0.3976778981	 1.7208530521	 0.344725
C	 2.7261139976	 1.101303139	 2.1358076086	-0.481698
H	 0.8713289656	 2.0939732166	-0.1165484412	 0.132173
H	-0.6598579131	 1.8859135469	-0.9867479166	 0.111167
H	-0.6491119418	 1.9736102863	 0.7801083353	 0.116885
H	-0.9570001161	-0.3617450072	-0.0223165683	 0.088886
H	 0.7071211833	-0.1731888384	-2.2021758855	 0.095894
H	 2.2157849288	-2.1648890993	-1.4450781485	 0.101466
H	 0.7811044936	-2.6615033315	 0.8437367789	 0.096605
H	 3.2253301213	-1.4306481373	 1.3854065783	 0.280262
H	 0.1129458204	-0.720929522	 2.0305209059	 0.104269
H	 3.4828959795	 1.7426185184	 2.5156283342	 0.201734
