20
gdb 35972	3.18634	1.11105	0.8959	4.1546	79.52	-0.2614	0.0363	0.2977	1302.9559	0.173325	-403.171053	-403.162591	-403.161647	-403.204202	32.156	
N	 0.3522761629	-1.2309164132	 0.6233607388	-0.3244
C	 0.179805264	-0.1257774209	 0.331373403	 0.261566
C	-0.033472478	 1.2798927372	-0.0281158736	-0.146972
C	-0.9024221882	 1.9811879833	 1.0495766841	-0.187343
C	-1.4281259184	 3.3474645116	 0.5807071492	-0.246069
C	-0.4381233717	 4.5113157013	 0.7629138687	-0.064223
O	 0.9256029437	 4.1738419723	 0.5889170398	-0.239327
C	 1.2502361439	 3.4553420662	-0.5870823619	-0.100841
C	 1.3309653818	 1.9525510414	-0.3089986403	-0.187522
H	-0.613518	 1.2776292501	-0.9618324145	 0.121411
H	-1.7502592924	 1.3264164317	 1.2720710425	 0.119464
H	-0.3265457109	 2.0817346612	 1.9755913205	 0.125094
H	-1.7351632533	 3.2674784407	-0.4693722969	 0.103046
H	-2.3385037299	 3.6015735927	 1.1351158694	 0.109236
H	-0.7200442114	 5.3386394315	 0.091628467	 0.09273
H	-0.4952014149	 4.8899456608	 1.7886277433	 0.114412
H	 0.5476471158	 3.6782138816	-1.403912643	 0.092851
H	 2.2379265337	 3.8055943605	-0.9074601362	 0.113626
H	 1.9871589453	 1.810708997	 0.5561644804	 0.129678
H	 1.8056524181	 1.4484131629	-1.1585799504	 0.113583
