25
gdb 115279	3.35594	0.9236	0.88167	1.2843	88.81	-0.259	0.0689	0.3279	1507.5719	0.228613	-389.520941	-389.51075	-389.509806	-389.556386	39.426	
C	 0.1760010848	 1.516039016	-0.2096478929	-0.385132
C	 0.0034495665	 0.0078159044	-0.0057174186	-0.190706
C	-1.4574964446	-0.4504392415	 0.0599520167	 0.06178
C	-2.2698159304	-0.2045776914	-1.2337161577	-0.20971
C	-3.376610256	-1.2632842985	-1.1731622238	-0.246619
C	-2.6335791709	-2.5258208671	-0.6889381016	 0.400078
C	-3.546980487	-3.6204977637	-0.1405471599	-0.451498
O	-1.8334569321	-3.0517700017	-1.7616068568	-0.474543
C	-1.6175065463	-1.9745396604	 0.3395969047	-0.250835
H	 1.234305021	 1.7952696723	-0.2236858534	 0.109166
H	-0.2656537752	 1.847697299	-1.1550691945	 0.117252
H	-0.3056988562	 2.0818217883	 0.596294212	 0.109794
H	 0.5048625651	-0.5365799595	-0.8172817996	 0.100847
H	 0.512141316	-0.2910688471	 0.9202417316	 0.090051
H	-1.9478722123	 0.1020340866	 0.8734973629	 0.059475
H	-2.653052182	 0.816335103	-1.3118332629	 0.087707
H	-1.6381717583	-0.3946687167	-2.1087295217	 0.103473
H	-4.1399709684	-0.978303599	-0.4375099578	 0.090059
H	-3.8897419291	-1.4276282367	-2.1277811096	 0.077303
H	-4.2476288966	-3.9669926225	-0.9105442784	 0.099884
H	-2.9562826685	-4.4807227142	 0.1886955486	 0.122105
H	-4.1380542297	-3.2591131087	 0.7071155734	 0.111371
H	-2.4341159398	-3.3374038976	-2.458906395	 0.270424
H	-0.6733894913	-2.5130007417	 0.2173591317	 0.109198
H	-1.9647482987	-2.1544607616	 1.3610886828	 0.089075
