20
gdb 28787	2.9341	1.6107	1.07392	2.1218	87.27	-0.1829	0.0541	0.2369	1144.7191	0.174022	-366.072549	-366.064526	-366.063582	-366.105033	31.	
C	-0.0906735848	 1.4801111358	 0.1323935501	-0.500353
C	-0.0633291646	-0.0069955772	 0.0046090889	 0.255156
C	-0.2030100832	-0.8260758269	-1.1005177638	-0.218958
C	-0.1043703886	-2.1855705397	-0.6768277429	-0.326216
C	 0.0901958843	-2.1583850728	 0.6835946585	 0.343538
C	 0.3465452811	-3.0463628821	 1.8643894602	-0.348552
C	 0.1107964254	-2.079022034	 3.059205688	-0.208777
C	 0.3836595651	-0.6626239614	 2.4961438976	-0.180926
N	 0.1049889588	-0.8430127818	 1.0823292232	-0.037659
H	 0.849750371	 1.8851466352	 0.5283074257	 0.121438
H	-0.2543722104	 1.9309449041	-0.8492991836	 0.132848
H	-0.8946222797	 1.8292232514	 0.7935061587	 0.121438
H	-0.3749408498	-0.4785091646	-2.1091949402	 0.083041
H	-0.1750786957	-3.0638350666	-1.3001321366	 0.086591
H	-0.3123256934	-3.9183416526	 1.9082001201	 0.114978
H	 1.3771979998	-3.4266615522	 1.8669121704	 0.111666
H	-0.9334412481	-2.1420669703	 3.3791696786	 0.116783
H	 0.7378280855	-2.3054716824	 3.9243158457	 0.105129
H	-0.2613531564	 0.1010140847	 2.9412749094	 0.116784
H	 1.4261986336	-0.3539321266	 2.6543224522	 0.11205
