20
gdb 114088	3.84307	1.12223	1.03933	2.7204	74.34	-0.2413	0.0583	0.2995	1198.6273	0.172843	-440.24318	-440.235164	-440.234219	-440.275473	32.408	
O	 0.7173744089	-0.5532461426	-1.0931331658	-0.425523
C	 0.0707583108	-0.0254012062	 0.0462011573	-0.080794
C	-1.3981365314	-0.4247382975	 0.0596771922	 0.041
C	-2.3165215699	 0.2029297057	 1.1485980416	-0.285804
C	-3.3623206966	 0.8052996062	 0.1957706066	 0.391025
O	-4.4130434382	 1.4414468563	 0.8421345379	-0.477412
C	-3.5025727383	-0.3248210652	-0.8703665129	-0.239857
N	-2.0707214559	 0.016781176	-1.2216454192	-0.154031
C	-2.4423807145	 1.4474073156	-0.8796371836	-0.24871
H	 0.0871641817	-0.4405281757	-1.818019336	 0.288503
H	 0.5727978763	-0.4318667028	 0.9317751411	 0.106538
H	 0.1740273378	 1.0718476568	 0.0961768724	 0.081436
H	-1.4423906098	-1.5180002059	 0.0747022014	 0.088147
H	-2.7524951387	-0.5328277711	 1.8285565623	 0.108234
H	-1.8252662289	 0.9766997295	 1.7467293875	 0.107823
H	-5.0112246022	 1.8007184605	 0.1785090861	 0.283187
H	-3.6687469399	-1.3561773607	-0.5468651828	 0.105881
H	-4.169485325	-0.0700588714	-1.6989101754	 0.099686
H	-2.9827332448	 1.8967183375	-1.7172257823	 0.101557
H	-1.6219192512	 2.0974860651	-0.5681629383	 0.109114
