17
gdb 105325	2.48419	1.546	1.18969	2.8325	72.75	-0.2515	0.0158	0.2672	1077.4383	0.135286	-417.953355	-417.944859	-417.943915	-417.986493	31.414	
C	-0.105420181	 1.3607343319	-0.0293319006	-0.264928
O	 0.113011554	-0.0414275066	-0.068147362	-0.273029
C	 0.6601616864	-0.585410034	 1.0906846594	 0.315226
C	-0.2056547077	-0.6339349747	 2.4272295848	-0.30438
C	-0.0517433392	-2.1564523159	 2.3997975446	-0.025592
N	-0.7025806467	-2.5882069921	 1.1454383293	-0.329673
C	 0.6987634484	-2.1215493904	 1.1135422058	-0.117613
C	 2.0048725644	-0.0377426828	 1.3671805834	 0.236228
N	 3.0529906403	 0.4049149247	 1.571632519	-0.346
H	 0.8339773437	 1.914327999	 0.0998563239	 0.134659
H	-0.5519572653	 1.629026392	-0.9880987472	 0.140046
H	-0.7964168269	 1.6386694247	 0.7780884536	 0.116821
H	 0.2778996536	-0.1329826512	 3.265784169	 0.131352
H	-1.231988955	-0.2837597052	 2.3032067529	 0.126505
H	 0.0660893986	-2.8241243598	 3.2423926783	 0.107017
H	-0.6647611669	-3.6066908817	 1.1077926429	 0.2383
H	 1.5012384494	-2.7406791876	 0.7350218228	 0.115061
