25
gdb 122212	3.19019	0.71262	0.6466	1.6629	89.62	-0.2577	0.0896	0.3473	1898.8688	0.227018	-389.486886	-389.475855	-389.474911	-389.523949	40.049	
C	-0.3890223937	 1.4741842235	 0.0118835532	-0.38178
C	 0.0381805675	 0.0051758312	 0.0698769808	-0.164394
C	 0.6671248504	-0.4903860382	-1.2369634574	-0.160426
C	 1.0969648577	-1.9631770581	-1.1709828198	-0.266531
C	 1.5933025549	-2.5256780401	-2.4944920102	 0.415513
C	 2.8766521969	-1.9131468027	-3.041447168	-0.246248
C	 3.3774405278	-2.4955357815	-4.3652966588	-0.398532
C	 1.1711995576	-3.882587277	-2.878300053	-0.233209
O	 0.5485486427	-2.7341232492	-3.4627485973	-0.276876
H	 0.4666875676	 2.1282433508	-0.1899618826	 0.112467
H	-1.1250134146	 1.6406194209	-0.7824575619	 0.115948
H	-0.8389522521	 1.7975870685	 0.9558233761	 0.110497
H	 0.7511090933	-0.1374081097	 0.8932443106	 0.091991
H	-0.8313440562	-0.6203848073	 0.3115425214	 0.095752
H	-0.0499764489	-0.370976365	-2.0589355834	 0.111244
H	 1.52776847	 0.1453141122	-1.4809054586	 0.093626
H	 1.881534374	-2.0894548306	-0.4123157152	 0.093465
H	 0.2422466668	-2.5654802666	-0.8417634296	 0.097384
H	 2.7044151052	-0.8376123473	-3.1694713126	 0.111102
H	 3.6525947278	-2.0033398867	-2.2700708389	 0.099591
H	 4.1990709743	-1.8917308331	-4.7610082968	 0.111493
H	 3.7504078092	-3.5177205946	-4.2478165391	 0.114475
H	 2.5740402849	-2.5070607118	-5.1070072481	 0.13846
H	 1.7732596201	-4.4796439981	-3.5596080999	 0.109888
H	 0.5437499966	-4.4582657996	-2.1981822409	 0.105101
