19
gdb 98776	3.80556	0.99153	0.9734	3.2284	75.5	-0.2501	-0.0248	0.2254	1292.5914	0.158777	-423.008777	-423.000191	-422.999247	-423.042843	32.182	
O	-0.038503981	 1.3361239076	-0.5967495433	-0.420952
C	-0.1648315214	-0.0520343488	-0.5426780458	-0.132964
C	-1.3436187094	-0.4729927959	 0.326033214	 0.353532
O	-1.9787789704	 0.3866609362	 0.9066131025	-0.335565
C	-1.6914064434	-1.936803728	 0.3831970352	-0.10129
C	-2.678885566	-2.4354719234	 1.485807183	-0.257142
C	-3.6462629905	-2.9093866934	 0.3919293907	-0.036571
C	-4.0472885988	-1.7580246216	-0.4834904041	-0.2754
C	-2.7040030332	-2.401758782	-0.6989067768	-0.067732
H	-0.7283169616	 1.6701504256	 0.000090767	 0.2929
H	-0.2987842391	-0.4814530795	-1.5492447166	 0.117702
H	 0.7412302039	-0.526910969	-0.1260186557	 0.11179
H	-0.7794377131	-2.539019665	 0.3419604567	 0.088277
H	-2.248134448	-3.2500154014	 2.071030023	 0.107646
H	-3.0574735378	-1.6645246818	 2.160819084	 0.121816
H	-4.2065514797	-3.8354736245	 0.4149173902	 0.090736
H	-4.78263191	-1.9887582102	-1.2474656719	 0.115326
H	-4.1209585084	-0.7540483305	-0.075267963	 0.134666
H	-2.4232686419	-2.8579833344	-1.6400904192	 0.093225
