15
gdb 33611	5.17601	1.307	1.29087	4.5472	74.17	-0.2454	0.0087	0.2542	974.6554	0.115032	-379.587412	-379.58122	-379.580276	-379.617978	25.056	
N	 0.1251643061	-1.161968904	 0.1156009671	-0.359276
C	 0.0556387699	-0.0074080281	 0.0565378997	 0.119119
C	-0.0463865338	 1.4020453234	-0.0150923539	 0.293975
C	-0.046232786	 2.4941156488	 1.063207805	-0.140729
C	 0.9924428789	 2.5003676592	-0.0482871005	-0.084346
N	 0.339953469	 3.2727663021	-1.1472631035	-0.145926
C	-0.3633653859	 4.4053202783	-0.4298842154	-0.184292
C	-1.140479619	 3.3328097247	 0.356150371	-0.074533
C	-0.8896368401	 2.3863154326	-0.8651767956	-0.087355
H	 0.1806263305	 2.3827194854	 2.1137612244	 0.118866
H	 2.0634056525	 2.4350785048	 0.0862249775	 0.119857
H	 0.291575898	 5.0960460005	 0.1083430869	 0.113613
H	-0.9838326156	 4.9506373935	-1.1461975783	 0.119827
H	-2.0986480853	 3.4818307858	 0.8507702725	 0.087475
H	-1.5755237892	 2.1550573429	-1.6758464568	 0.103723
