14
gdb 42869	3.19599	1.47077	1.46323	4.0371	63.63	-0.2599	-0.0594	0.2004	932.9333	0.101398	-473.815214	-473.808305	-473.80736	-473.846884	26.412	
N	-0.0762532073	 1.1887210152	-0.43902583	-0.543353
C	-0.0084328342	 0.0154063957	 0.0053283874	 0.482315
O	 1.1723555826	-0.6363864706	 0.255500599	-0.284784
C	 1.0959796351	-1.9663575352	 0.8030967868	-0.005899
C	 0.0322642605	-1.9809111459	 1.9314491266	-0.288552
C	-1.0280667816	-1.9933606179	 0.7984700117	 0.002736
O	-1.1555626856	-0.6710122825	 0.2567121323	-0.253806
C	 0.0468721299	-2.7545974241	-0.0252713312	 0.411468
O	 0.0616590005	-3.6601197285	-0.7979759751	-0.284198
H	 0.8588769407	 1.5638121763	-0.5796798958	 0.235901
H	 2.1157728521	-2.3163813971	 0.9476992111	 0.120577
H	 0.0426611197	-2.9166009075	 2.4950868164	 0.139558
H	 0.0189333454	-1.1181627402	 2.5991706189	 0.144382
H	-2.0346581576	-2.3798323976	 0.9415537318	 0.123654
