19
gdb 31238	2.48272	1.27695	0.90667	1.8398	80.29	-0.187	0.0138	0.2008	1330.9464	0.15973	-419.239819	-419.230391	-419.229446	-419.275226	33.366	
C	-0.3777445576	 1.6248974627	-0.1520747712	-0.367631
C	 0.0520454303	 0.1582124567	 0.0316293534	-0.305706
C	 0.8474315969	-0.3838717237	-1.1009687873	 0.251338
C	 2.1116262609	-0.8772271778	-1.2603352416	 0.221812
N	 3.1075547536	-1.0943934668	-0.3175596242	-0.389498
C	 4.4946481718	-1.0873124463	-0.767746075	-0.321937
N	 2.3018661696	-1.2433168269	-2.5876951643	-0.312519
C	 1.1729702802	-0.9688196209	-3.1570507984	 0.066944
O	 0.2382080912	-0.4534753103	-2.3451973912	-0.184873
H	 0.4937438035	 2.2802551792	-0.2444168273	 0.11788
H	-0.9792468192	 1.7385614803	-1.0582104624	 0.13199
H	-0.9761292597	 1.9648684681	 0.6988051559	 0.112026
H	 0.6516583898	 0.0574707864	 0.9439775129	 0.103958
H	-0.8412608181	-0.4609367318	 0.1931710564	 0.118866
H	 2.964294181	-0.5591508514	 0.5265800954	 0.231854
H	 4.6211314904	-1.8347628568	-1.5522086735	 0.157301
H	 4.8247644776	-0.1172352644	-1.1703470334	 0.107871
H	 5.1364435389	-1.35435821	 0.0757020314	 0.116239
H	 0.9043659188	-1.1038154964	-4.1931749856	 0.144085
