17
gdb 38646	2.84424	2.28427	1.95829	2.0602	69.63	-0.2308	0.004	0.2348	790.8416	0.140437	-421.817272	-421.81176	-421.810815	-421.846747	24.755	
C	-0.0351784855	 1.5889024216	-0.0091276164	-0.19768
C	 1.4834474918	 1.7554333211	-0.0452906848	 0.032261
O	 1.7370543045	 1.0215391992	-1.2561826853	-0.24913
C	 1.4085299278	-0.2388781562	-0.6929365703	 0.181975
O	 2.4160401158	-0.3926703671	 0.2643545518	-0.242462
C	 2.1499144083	 0.7930678375	 1.0699075287	 0.010297
C	 1.1640107388	 0.2916304709	 2.0965843532	-0.079925
C	 0.0888355105	-0.2615640467	 1.526837219	-0.049018
C	-0.0099143314	 0.020179497	 0.047914617	-0.157055
H	-0.5548102518	 2.0210658011	 0.845194174	 0.102253
H	-0.4513981959	 1.9828755443	-0.9383728526	 0.109139
H	 1.9037043627	 2.7576786901	-0.100348249	 0.087367
H	 1.4400137514	-1.0390761857	-1.4293689438	 0.099514
H	 3.0905641557	 1.1719754635	 1.4663909998	 0.083857
H	 1.3972688776	 0.2702337658	 3.1540051621	 0.097861
H	-0.6954625896	-0.7846750871	 2.0619418536	 0.098395
H	-0.8405724108	-0.4731080895	-0.4545728568	 0.072351
