19
gdb 30063	2.95914	1.38012	1.00517	4.0036	81.98	-0.21	0.0331	0.2431	1196.0296	0.161309	-382.096098	-382.087661	-382.086717	-382.129862	31.141	
C	-0.4689205833	 1.2806133877	 0.239793438	-0.34045
N	-0.0462431072	-0.0950075354	 0.0823573635	-0.049203
C	-0.0161366178	-0.8082544579	-1.0810006217	-0.006396
N	 0.4189338504	-2.0341993184	-0.9061420037	-0.274403
C	 0.6909103945	-2.1223769896	 0.4379470124	-0.170699
C	 0.4120626936	-0.9406996879	 1.0824341904	 0.276218
C	 0.526148676	-0.5159844135	 2.4898595899	-0.136265
C	-0.6826549422	-0.5438464534	 3.41408106	-0.255267
C	 0.4313032479	-1.5390273807	 3.5931658073	-0.263435
H	 0.3664498864	 1.9229934127	 0.5380005457	 0.140157
H	-0.8598656524	 1.641111917	-0.7136051572	 0.142537
H	-1.2551381746	 1.3614565646	 0.9958194801	 0.147968
H	-0.3264922553	-0.37073179	-2.0194323258	 0.120376
H	 1.0781874818	-3.0301826356	 0.8758518083	 0.10402
H	 1.2195444109	 0.3025448212	 2.6747020638	 0.093089
H	-0.7851178649	 0.2550523637	 4.1402373064	 0.11176
H	-1.6179226632	-0.9057781344	 3.0019873136	 0.119595
H	 0.2363810671	-2.5663712268	 3.3091240285	 0.125595
H	 1.0932465523	-1.4270272932	 4.4440208005	 0.114801
