18
gdb 88262	3.07725	1.17953	0.93695	1.5989	75.01	-0.2358	-0.0634	0.1724	1282.3274	0.144591	-439.104862	-439.095014	-439.09407	-439.140457	34.358	
C	 0.3342025192	 1.3266088531	 0.2271862604	-0.403564
C	-0.0207091595	-0.1026639284	-0.106086699	 0.002191
C	 0.6989175451	-0.8538131866	-1.1985873017	-0.23554
N	 0.9059938882	-1.1720530678	 0.1925487032	-0.067149
C	 2.0289834867	-1.1517326694	 0.969818214	 0.278983
O	 2.100564466	-0.6226493585	 2.0629087819	-0.350095
C	 3.2226736542	-1.9616395153	 0.4054857167	 0.300233
C	 4.3405327357	-2.2020362193	 1.3889717786	-0.467711
O	 3.2388418551	-2.3350315229	-0.7433710329	-0.28476
H	 1.3624182371	 1.558170126	-0.0657448576	 0.123651
H	-0.3370198604	 2.0106940687	-0.301437442	 0.124218
H	 0.2441436265	 1.5096063334	 1.3010401977	 0.151537
H	-1.0612469448	-0.3728224013	 0.067938923	 0.107349
H	 0.1759776151	-1.6041375152	-1.7850109879	 0.131703
H	 1.5021102931	-0.3427927046	-1.7217066199	 0.137218
H	 3.9647201619	-2.7709217931	 2.2460383209	 0.155338
H	 5.1509997769	-2.7427661002	 0.8999717366	 0.136733
H	 4.6948074839	-1.2491575386	 1.7924690279	 0.159664
