15
gdb 127884	2.71597	1.59982	1.01356	1.0141	75.29	-0.2322	-0.0415	0.1908	1110.7635	0.112995	-450.114151	-450.105844	-450.104899	-450.147287	30.232	
C	 0.0599139938	 1.3639488824	 0.1374918321	-0.338065
N	-0.0252838491	-0.0836892917	 0.1487160588	-0.323666
C	-1.1499630288	-0.6547531169	-0.0440671215	 0.341829
N	-2.3682691103	-0.0245271545	-0.276249816	-0.348032
C	-3.3886477057	-0.785843897	-0.4032887752	 0.16434
O	-3.446141226	-2.1113060405	-0.3402553794	-0.208276
N	-2.2570345969	-2.857753379	-0.1289200333	-0.227324
C	-1.1781681237	-2.1401133762	-0.0115435476	 0.394056
N	 0.0130973741	-2.7543596922	 0.1428980373	-0.545487
H	 0.7878847819	 1.6679935838	-0.6238263474	 0.128994
H	-0.8944867782	 1.8631735181	-0.05469574	 0.139206
H	 0.4569012577	 1.7018982543	 1.1020716635	 0.127917
H	-4.3807166017	-0.3778720996	-0.5870885555	 0.148473
H	 0.0442865004	-3.7401859933	 0.3386658728	 0.268081
H	 0.7795408424	-2.1487063175	 0.3946078815	 0.277953
