16
gdb 48072	2.84705	1.43158	1.11226	0.5787	69.77	-0.2307	-0.1051	0.1257	1081.2505	0.123605	-437.811672	-437.803726	-437.802782	-437.845223	28.761	
O	-0.9075485112	 1.4965850866	-0.1359217487	-0.227396
C	 0.1960030391	 1.0551380387	-0.3233632743	 0.084852
C	 1.4664021677	 1.9164160626	-0.3150487948	 0.128895
O	 2.5297438872	 1.3731770355	-0.5154836261	-0.271667
C	 1.3082207779	 3.3826960705	-0.0578362202	 0.242909
C	 0.7118896442	 4.1089734265	 1.1796479019	-0.206431
N	 1.1169737775	 5.286584297	 0.2750658009	-0.146021
C	 2.3982044538	 4.4681275691	 0.0064519209	-0.2149
C	 0.4989713319	 4.4432762186	-0.8544738348	-0.20644
H	 0.4036436433	-0.0180775698	-0.5206707516	 0.113012
H	-0.3629616212	 4.0273049416	 1.3476764011	 0.125968
H	 1.2792974381	 4.0583294205	 2.1124329824	 0.112382
H	 3.0901356104	 4.449767288	 0.8513289538	 0.113249
H	 2.9044917439	 4.741207963	-0.9219998631	 0.113247
H	 0.8644989926	 4.7094268958	-1.8495502473	 0.112375
H	-0.5897943052	 4.3834187659	-0.8193389302	 0.125967
