19
gdb 46508	3.59558	1.21442	1.05316	4.5671	75.63	-0.2567	0.0152	0.2719	1171.7487	0.160621	-423.060327	-423.052312	-423.051368	-423.093144	30.934	
O	 0.0420044705	 0.1335032296	 0.6476324111	-0.323792
C	-0.0126689288	 1.1889151052	 0.077334677	 0.406685
C	-1.3266626263	 1.932493867	-0.1412252344	-0.328222
C	-1.3073271892	 2.9931951874	-1.2480499932	-0.30601
C	-0.0356059771	 3.8001156614	-1.1117838192	 0.34917
C	 0.0704419133	 5.1962845857	-1.6604356996	-0.332316
C	 0.0012055768	 4.9772978484	-0.1670261636	-0.300802
C	 1.1710468538	 2.9062237283	-1.2151498398	-0.127539
O	 1.1431124419	 1.7813963377	-0.3152713414	-0.229421
H	-2.0981618663	 1.1748191875	-0.2944979036	 0.13484
H	-1.5485203178	 2.4116143288	 0.8210164346	 0.14105
H	-1.3351437143	 2.5116535103	-2.2345588616	 0.108065
H	-2.1952508773	 3.6301110286	-1.1810023177	 0.103313
H	 1.0170462102	 5.513217436	-2.0864690001	 0.117532
H	-0.7994321333	 5.6092813931	-2.1600376539	 0.118392
H	-0.9166986869	 5.2472405557	 0.3448602025	 0.117057
H	 0.9003546303	 5.1433458834	 0.4167407727	 0.121597
H	 1.2632384157	 2.5086424214	-2.2352812699	 0.113644
H	 2.0941296449	 3.4427607044	-0.9788879395	 0.116757
