13
gdb 133344	3.23104	1.39342	0.97396	4.1538	65.49	-0.2291	-0.0497	0.1793	1082.4211	0.090326	-494.073056	-494.065663	-494.064719	-494.104794	28.441	
N	 0.0319694178	 1.4060943562	-0.1170734225	-0.593624
C	-0.0541043591	 0.043069484	-0.044858647	 0.256014
C	-1.2097503062	-0.6877125945	-0.0202165764	-0.343353
C	-1.1883794404	-2.1343851503	 0.0001175903	 0.446291
O	-2.1490207051	-2.8850764531	 0.0195705178	-0.404239
N	 0.1150947225	-2.662442656	-0.0017128525	-0.28675
N	 1.270921451	-1.9830671688	-0.0121242885	-0.248549
C	 1.1772433447	-0.7086918019	-0.0345109062	 0.318227
F	 2.3127674952	-0.0034547948	-0.0381358597	-0.077399
H	 0.9173846806	 1.8258690076	 0.1128971715	 0.271742
H	-0.7862016543	 1.9477703336	 0.1073319388	 0.268101
H	-2.1847635792	-0.2158474997	-0.0205641387	 0.117268
H	 0.2034636823	-3.6686468223	 0.015951953	 0.27627
