16
gdb 12150	3.71784	1.45057	1.12643	2.061	71.92	-0.2428	-0.0235	0.2193	1040.8755	0.127837	-346.583868	-346.57553	-346.574585	-346.616809	30.471	
C	 0.04902702	 1.6596263792	 0.0199302046	-0.414025
C	 0.1048471511	 0.1408256789	-0.0135461392	-0.088911
C	 0.7648049268	-0.6011107092	-1.2386815841	-0.194127
C	 1.5284687828	-1.5478527399	-0.2463315958	-0.353571
C	 1.126532754	-0.5834291307	 0.8787629332	 0.381745
O	 1.5258615097	-0.3900079682	 1.9898451014	-0.292686
C	-0.1177502789	-1.2074792762	-2.2118618981	 0.306387
C	-0.8661837368	-1.717360077	-3.0033245247	-0.4425
H	 1.0316344655	 2.0956915004	-0.1875711253	 0.122646
H	-0.6590934845	 2.0443169525	-0.7202122591	 0.129439
H	-0.2661643307	 2.0054032176	 1.0087394859	 0.139829
H	-0.8865548557	-0.2907518588	 0.1724505509	 0.116425
H	 1.4737754574	 0.0699403612	-1.7348481135	 0.111027
H	 1.0388804315	-2.520537002	-0.1411087031	 0.143527
H	 2.597073857	-1.7014085324	-0.409379836	 0.136177
H	-1.5216171092	-2.1662141554	-3.7079066672	 0.198617
