17
gdb 87076	4.51668	0.70275	0.67879	1.2014	95.25	-0.23	-0.0208	0.2092	1685.8914	0.132463	-384.621901	-384.612142	-384.611198	-384.656509	36.073	
C	-0.0316130519	 1.5471083433	 0.0566546731	-0.407062
C	 0.0412512939	 0.0377754702	 0.0153864075	-0.028886
C	 1.3460714214	-0.675944675	-0.2254570024	-0.341519
C	 0.6948731697	-0.7264962305	 1.1546162263	 0.119896
O	 1.2482378806	 0.0762617576	 2.1639189559	-0.443023
C	 0.1140734405	-1.9599547421	 1.6027864793	 0.490113
C	-0.3436342231	-3.0047528201	 2.0134750564	-0.325763
C	-0.8658315319	-4.1774599677	 2.460102589	 0.299007
C	-1.3275832573	-5.219835284	 2.859848987	-0.576161
H	 0.8473638757	 1.9697534431	 0.5465181433	 0.13571
H	-0.0922902716	 1.9520664618	-0.9591663753	 0.118248
H	-0.9161207972	 1.8827678656	 0.6072625828	 0.126387
H	-0.8369746919	-0.4521547279	-0.3941360595	 0.105897
H	 1.3588606339	-1.5789237475	-0.8245671512	 0.125195
H	 2.2420755064	-0.0659916345	-0.2787984274	 0.121498
H	 1.977804502	-0.4126988479	 2.5607895963	 0.289417
H	-1.7362411591	-6.1355021542	 3.2087531589	 0.191044
