18
gdb 22528	2.12899	1.43441	1.05196	1.7746	72.01	-0.2524	-0.0101	0.2423	1184.1238	0.14584	-476.162906	-476.153611	-476.152667	-476.197276	34.67	
O	 0.0204488673	 1.3693199088	 0.1231567048	-0.431573
C	 0.0052753763	-0.0464570572	 0.0022908952	-0.127263
C	-1.4456754936	-0.5215054751	-0.0492317286	 0.312633
O	-2.1142277247	 0.0976734869	-1.1235217006	-0.47215
C	-1.7295512909	-2.0523094405	 0.005827661	-0.282313
C	-2.4845032003	-1.8833045688	 1.3665161379	-0.334507
C	-2.140326524	-0.411799604	 1.3142639041	 0.379035
N	-2.2141091366	 0.6025355515	 2.0692983317	-0.257477
O	-2.8496176535	 0.3087824182	 3.2869137404	-0.387041
H	-0.4290123463	 1.5801837429	 0.9550629369	 0.295518
H	 0.5065184435	-0.2872980345	-0.9412811129	 0.115957
H	 0.5502837115	-0.5354297302	 0.8227053782	 0.091182
H	-1.8014016202	 1.013689203	-1.1258136218	 0.286314
H	-2.3530074333	-2.380595987	-0.8259522852	 0.126789
H	-0.833358731	-2.6746135164	 0.0551322997	 0.109055
H	-3.5578359746	-2.0891050964	 1.3237706271	 0.137502
H	-2.0715214802	-2.4169104413	 2.2268697032	 0.130473
H	-2.8619551595	 1.1652662201	 3.7283614989	 0.307864
