14
gdb 29498	3.297	1.70727	1.12646	1.4668	70.62	-0.1883	0.0053	0.1935	995.3039	0.103553	-436.700176	-436.693317	-436.692372	-436.731257	26.994	
N	 0.0440534913	 1.4356681318	 0.1636679832	-0.613053
C	 0.0323201656	 0.0422663936	 0.0397462362	 0.054808
C	-1.0422878941	-0.8130656238	-0.0024980119	-0.095177
O	-0.6641206435	-2.1505059065	-0.0328635773	-0.212304
C	 0.6845478491	-2.1254087929	-0.0205911146	 0.30134
C	 1.1506242159	-0.8437916523	 0.0267763316	 0.254411
O	 2.5076739001	-0.8230700562	 0.0344203026	-0.212329
C	 2.8787610086	-2.1488693587	-0.0082956697	-0.011209
C	 1.8077603827	-2.9990200665	-0.0432336429	-0.354004
H	 0.8063545703	 1.8648432953	-0.3450164547	 0.253168
H	-0.8294807287	 1.863758261	-0.1138309735	 0.247451
H	-2.1040702968	-0.6344288762	-0.0009304053	 0.124066
H	 3.9416332316	-2.3238700524	-0.0067630396	 0.137097
H	 1.8486914279	-4.0752376761	-0.0784080741	 0.125734
