22
gdb 101212	2.762	1.03727	0.78722	2.7849	84.14	-0.228	-0.0216	0.2064	1481.2866	0.191873	-404.343279	-404.333345	-404.332401	-404.378355	36.77	
C	 0.5133596082	 1.2828194021	-0.1538497384	-0.396305
C	 0.0941157289	-0.1788740223	 0.0400404243	-0.159145
C	-1.4167612305	-0.4693143974	 0.1259536166	 0.058136
C	-1.6511219531	-1.9793471551	-0.0053133484	-0.392866
N	-1.9958885783	-0.0065764964	 1.3857803001	-0.083599
C	-3.4388501486	-0.2649463368	 1.6220372975	-0.296327
C	-3.5434011639	 1.1548135287	 2.1896294958	 0.395413
O	-4.3594629525	 1.7638170927	 2.8120073822	-0.283618
C	-2.1445791314	 1.4495945649	 1.6381002673	-0.292761
H	 1.5880220942	 1.3442021628	-0.3522541508	 0.113588
H	-0.0039670077	 1.7360497819	-1.0071042387	 0.112874
H	 0.3126253637	 1.8991913163	 0.7254708219	 0.123615
H	 0.4819620663	-0.7582299849	-0.8065410454	 0.096002
H	 0.5683600925	-0.5890534976	 0.9398357709	 0.104423
H	-1.9146771326	 0.0343829272	-0.7304269588	 0.04661
H	-2.714294473	-2.2333970711	 0.0251004509	 0.115463
H	-1.2511578213	-2.3445072162	-0.955421617	 0.115182
H	-1.1513272827	-2.5134402605	 0.8094466379	 0.124671
H	-4.0458695589	-0.3599236074	 0.7051144502	 0.116312
H	-3.6732941357	-1.0998834626	 2.289930726	 0.13231
H	-1.4191141917	 1.8923098773	 2.3275036556	 0.132363
H	-2.2006079021	 2.0705733445	 0.7288292402	 0.117659
