23
gdb 122210	3.34728	0.73923	0.66999	1.3052	83.02	-0.2519	0.0899	0.3418	1792.0856	0.203131	-425.399474	-425.388618	-425.387674	-425.4367	38.317	
C	 0.0280360155	 1.7649439306	-0.0636550439	-0.398759
C	-0.2555985507	 0.2644432811	-0.1654542519	-0.246898
C	 0.5246550913	-0.4833459251	-1.2399635601	 0.403511
C	 0.2352655062	-1.9709384868	-1.3587661555	-0.277385
C	 0.7001099871	-2.7807249109	-0.1507051697	-0.051425
O	 0.4671291361	-4.1448522345	-0.4298943881	-0.230745
C	 0.8818230126	-4.9941676134	 0.6117283536	-0.228709
C	 1.0692245851	 0.2149224217	-2.4156815043	-0.231108
O	 1.9235438549	-0.1553707573	-1.3291692639	-0.276057
H	 1.1037954358	 1.9490987827	 0.0039203699	 0.138864
H	-0.3606495274	 2.3138814495	-0.9268532497	 0.116022
H	-0.446548277	 2.1822364636	 0.8289467981	 0.112997
H	-0.0309096626	-0.2049669634	 0.8004117744	 0.1107
H	-1.325351083	 0.0917927704	-0.3403284145	 0.10343
H	-0.8397014507	-2.1293420728	-1.5064590186	 0.105376
H	 0.7447306017	-2.3699561982	-2.2411199825	 0.111403
H	 1.7719337393	-2.5966029704	 0.0287664024	 0.103584
H	 0.1591840121	-2.4853274444	 0.7639381491	 0.08294
H	 0.3454029277	-4.7835316172	 1.5511519903	 0.101041
H	 0.6641827595	-6.0202915512	 0.3050039588	 0.125492
H	 1.9619684021	-4.9035656896	 0.8089109087	 0.104553
H	 1.2229847812	-0.3399098981	-3.3406775648	 0.109232
H	 0.9201230932	 1.2847137539	-2.5429409678	 0.111943
