21
gdb 71243	2.20668	2.02145	1.62074	1.5125	81.27	-0.2306	0.0842	0.3148	979.7599	0.183052	-387.067313	-387.059406	-387.058462	-387.098966	32.546	
C	-0.0014941986	 1.5172928905	 0.0365142954	-0.507964
C	 0.0022037465	 0.0089583201	-0.0164350169	 0.255766
C	 0.3959557607	-0.7858540949	-1.2948168769	-0.29339
C	-0.433696434	-1.9199494518	-0.676915181	-0.1217
C	-0.0390875204	-2.073172979	 0.8430353735	 0.063858
C	 0.7754399775	-0.7873369558	 1.0608232536	-0.245369
O	-1.3682916936	-1.6319713742	 1.2543835644	-0.334537
C	-1.3526124188	-0.890317829	 0.0238184962	 0.440753
C	-2.6694960827	-0.3435212757	-0.4348420967	-0.51382
H	 1.0118855071	 1.9210853583	-0.0743818597	 0.117402
H	-0.6150496406	 1.9475660035	-0.7626553881	 0.112101
H	-0.3958294411	 1.8778846937	 0.9933308403	 0.120103
H	-0.0838385191	-0.3983452337	-2.1990044618	 0.095591
H	 1.4625004785	-0.9394396927	-1.4860149252	 0.090875
H	-0.8011650345	-2.7953060199	-1.2104592723	 0.070678
H	 0.2724217245	-3.0123523799	 1.2980022761	 0.075853
H	 1.8432431871	-0.8703905571	 0.8366347381	 0.090756
H	 0.6399089177	-0.4171292112	 2.0797629963	 0.101136
H	-3.0381507941	 0.4103226826	 0.2693507647	 0.130114
H	-2.5735074808	 0.1303244471	-1.4166749967	 0.122767
H	-3.4161787015	-1.1399733711	-0.5051789833	 0.129029
