15
gdb 42767	2.67995	1.61162	1.2797	4.6225	70.99	-0.2646	-0.0295	0.2352	990.648	0.114533	-416.805692	-416.798431	-416.797487	-416.83747	27.678	
O	-0.0174476845	-0.0272642965	-0.1543254603	-0.297283
C	-0.033723776	 1.1427959815	 0.0561873065	 0.396353
C	-1.0470445725	 2.3022179885	 0.0366658438	-0.131002
C	-0.8073806095	 2.9990255428	 1.3839753118	-0.212423
C	 0.7589839344	 3.0083921182	 1.3944637753	-0.246402
C	 1.0116140469	 2.3166102103	 0.0374792855	 0.084837
N	-0.0236725635	 3.0146856006	-0.8298184936	-0.331315
C	 2.3567189017	 2.1735364306	-0.4527919208	 0.180455
N	 3.4347034793	 2.0309523818	-0.8452504322	-0.325963
H	-2.0593257847	 2.1970132392	-0.3458198623	 0.109763
H	-1.2203025104	 4.0089037458	 1.3776861197	 0.129111
H	-1.2383744548	 2.4425940354	 2.2188687578	 0.124493
H	 1.1713974988	 4.0180878558	 1.3925098806	 0.137162
H	 1.1949996049	 2.4452799178	 2.2215763293	 0.132218
H	-0.0118780402	 2.5885896882	-1.758012981	 0.249996
