23
gdb 118231	4.15565	0.62089	0.61926	0.923	80.3	-0.2506	0.0775	0.3281	1947.2794	0.202505	-462.552726	-462.541248	-462.540304	-462.589984	40.769	
C	-0.1760013504	 1.3485489489	-0.0453268877	-0.227645
O	-0.0613776594	-0.0547407843	-0.0516325596	-0.249325
C	 0.7732320049	-0.5496849185	-1.083689376	-0.085351
C	 0.673043123	-2.0705011365	-1.0395106006	 0.112527
O	-0.6894363698	-2.4612010778	-1.1612280204	-0.45075
C	 1.452006684	-2.7354911474	-2.1692177358	-0.178388
C	 1.498920858	-4.2576955643	-2.036151171	 0.120857
C	 2.1070385488	-4.9296426733	-3.2670867763	-0.401632
O	 2.2749609929	-4.5324478984	-0.867116219	-0.437718
H	 0.7985496159	 1.8345964412	 0.1157862679	 0.10798
H	-0.5968116528	 1.7273361838	-0.9897847451	 0.107564
H	-0.8448675941	 1.6197772093	 0.7751945739	 0.128153
H	 0.4288327004	-0.1761282591	-2.0627379355	 0.086718
H	 1.8140876749	-0.219112697	-0.9355215692	 0.088796
H	 1.0820382579	-2.4131946515	-0.0773830921	 0.089522
H	-1.1757788246	-1.8988246832	-0.5464296019	 0.287346
H	 0.9832999747	-2.469724276	-3.1235243962	 0.098084
H	 2.4819170369	-2.3578690654	-2.1799608999	 0.09777
H	 0.4692788249	-4.6165908522	-1.8950471811	 0.08975
H	 3.1248867439	-4.5649375532	-3.4404821488	 0.119083
H	 2.1551392496	-6.0163138183	-3.1325142605	 0.101645
H	 1.5069904622	-4.7319953707	-4.1615772222	 0.114386
H	 2.2031155884	-5.4728667161	-0.6783797327	 0.28063
