12
gdb 49952	2.35816	1.28136	0.98048	2.9672	67.81	-0.2846	-0.0766	0.208	1162.0418	0.073492	-435.428442	-435.419862	-435.418918	-435.46222	29.927	
O	-0.2420030192	 0.446386315	 0.8135792813	-0.225072
C	 0.2862097718	 0.8179884373	-0.199547192	 0.146107
C	 1.4479041279	 1.7720601813	-0.1926267045	-0.091844
O	 2.3148931866	 1.7170465326	-1.3193937773	-0.243527
C	 1.5010878847	 2.8843147216	-1.202631179	 0.105907
C	 0.4603632325	 3.0796108829	-2.1794115903	 0.2664
C	-0.4038915454	 3.2722441262	-2.9897816247	-0.381461
C	 2.2144452842	 4.0903392682	-0.810723592	 0.247146
N	 2.7701086739	 5.0515542694	-0.4926637212	-0.313819
H	-0.0272554738	 0.4856889396	-1.2093254832	 0.116047
H	 1.9191393233	 1.9413956934	 0.7738775265	 0.149569
H	-1.1681794264	 3.4392285926	-3.7098479337	 0.224549
