21
gdb 101309	2.35371	1.13023	0.8721	3.8359	81.16	-0.2339	-0.0089	0.225	1400.2824	0.179841	-424.215902	-424.205611	-424.204667	-424.251995	36.605	
C	-0.1802916843	 1.5261561188	-0.0890264339	-0.242027
O	-0.1203994191	 0.1483371785	 0.2111686941	-0.245408
C	-1.3253014955	-0.5681426231	-0.0234847986	 0.105425
C	-1.5231519489	-0.8595398832	-1.5168256916	-0.400395
C	-1.2814856497	-1.8671395893	 0.7648191911	-0.013732
C	-0.002885704	-2.523280291	 1.1613518439	-0.299584
C	-0.9262413109	-1.979462881	 2.2489311211	-0.122969
C	-0.4883631482	-0.8274926167	 3.0738694034	 0.145085
O	-0.8519018917	-0.6537470099	 4.2143250341	-0.279186
H	 0.7727358999	 1.9615290719	 0.2202531315	 0.132643
H	-0.317733252	 1.7168760313	-1.1623853869	 0.112863
H	-0.9932862453	 2.0244708693	 0.4600260947	 0.113463
H	-2.1756293176	 0.0359185189	 0.3362202347	 0.075476
H	-2.4641457483	-1.3932124038	-1.68274128	 0.118756
H	-1.5608558336	 0.0637017653	-2.1010916724	 0.118452
H	-0.7015000842	-1.4760301947	-1.8932167152	 0.129457
H	-2.0917385376	-2.5341968513	 0.4834089095	 0.0983
H	 0.0964748236	-3.5995473164	 1.0811774265	 0.120675
H	 0.9069685742	-1.960902635	 0.9854666885	 0.141539
H	-1.5125319581	-2.6975519023	 2.8132972848	 0.101941
H	 0.2162416311	-0.1321728263	 2.5780388404	 0.089228
