19
gdb 112651	2.24439	1.5184	1.00493	2.2673	73.67	-0.2237	0.0565	0.2802	1219.0304	0.159445	-456.370465	-456.361202	-456.360258	-456.404539	34.136	
C	 0.0824363143	 1.4448554918	-0.0083386547	-0.242718
O	-0.0453620482	 0.0341567873	-0.0536672232	-0.221836
C	 0.6563469029	-0.5667700609	-1.0864270083	 0.182067
O	 2.08066701	-0.4649133203	-0.8596804524	-0.260263
C	 2.466285707	-1.7140770123	-0.4560458905	 0.457138
N	 3.7784525433	-1.7862890801	-0.0735157643	-0.583718
N	 1.6316897535	-2.6721363779	-0.5264099318	-0.353635
C	 0.4115549901	-2.1023023251	-1.1143420515	-0.000814
C	-0.8498735005	-2.5646634877	-0.3913879902	-0.381978
H	 1.1152772448	 1.7481129242	 0.1992595968	 0.124495
H	-0.2360007889	 1.9029771195	-0.9565837733	 0.110079
H	-0.5673776405	 1.7981457732	 0.7947395652	 0.131546
H	 0.4610415416	-0.052479268	-2.0366784281	 0.073778
H	 4.1522763814	-0.9445035602	 0.3373522718	 0.260138
H	 4.0092422411	-2.6346837241	 0.4202321642	 0.267126
H	 0.3487389344	-2.4164294746	-2.1661847835	 0.081153
H	-0.8257289387	-2.2659752598	 0.658028367	 0.129323
H	-1.7472163496	-2.1397148686	-0.8511953634	 0.107751
H	-0.9131112081	-3.6544621363	-0.4443087397	 0.120368
