19
gdb 74683	3.0552	1.3017	1.1155	2.6816	81.8	-0.2366	-0.017	0.2196	1161.8285	0.159388	-385.92246	-385.914374	-385.91343	-385.955286	31.279	
C	 0.1718396797	 1.4440789224	 0.2473852864	-0.489635
C	-0.0134772223	-0.0326757574	 0.0938838006	 0.330642
C	 0.1911918378	-0.7602489274	-1.0094614486	-0.177448
C	-0.0813817148	-2.2280845682	-0.8268852762	-0.075837
C	 1.1888060415	-3.1274931355	-0.6555344372	-0.352436
C	 1.0072262499	-2.9809298727	 0.8649620514	 0.401845
O	 1.7002498947	-3.2153415856	 1.8121104941	-0.297605
C	-0.3781727538	-2.3187190045	 0.7118575614	-0.140792
C	-0.5011349614	-0.8838757759	 1.2539682327	-0.319935
H	 0.9138428957	 1.6706272458	 1.0233883876	 0.130935
H	 0.5008268994	 1.9104479694	-0.6849988179	 0.124369
H	-0.7617855184	 1.9284667049	 0.5611273403	 0.126323
H	 0.5329169007	-0.3495980615	-1.9547455555	 0.086701
H	-0.8300449081	-2.6244457733	-1.5177412211	 0.07679
H	 1.0406339629	-4.164354134	-0.9779621725	 0.125644
H	 2.1342332626	-2.7639536285	-1.0666321354	 0.125475
H	-1.1876969857	-2.9870255658	 1.0159842036	 0.095159
H	 0.1026579561	-0.7413714326	 2.1588693984	 0.12367
H	-1.5333315866	-0.6261358196	 1.526727378	 0.106135
