17
gdb 98084	3.34043	1.00094	0.83945	2.7788	66.77	-0.2677	-0.0838	0.1839	1379.7165	0.132266	-496.137917	-496.127665	-496.12672	-496.174268	34.928	
C	-0.118456582	 1.3156439363	-0.1575205683	-0.245142
O	-0.0345555429	-0.1183346401	-0.2083701011	-0.206211
C	 0.4676770276	-0.6198536871	-1.3334310173	 0.388075
O	 0.8469223923	 0.0222962368	-2.2820459118	-0.349747
C	 0.4963798804	-2.1590611036	-1.3036896495	 0.238573
O	-0.0838547846	-2.7882157505	-0.4519326727	-0.300949
C	 1.2653350443	-2.8522927777	-2.4183644526	 0.072084
C	 2.7726118833	-2.5536574078	-2.3156362102	-0.413496
O	 1.0242371153	-4.2342134295	-2.3646254984	-0.440096
H	 0.8735552221	 1.7588936935	-0.2734018659	 0.14861
H	-0.7678592049	 1.6862621006	-0.9541585852	 0.150091
H	-0.5349295857	 1.5506708824	 0.8208386564	 0.14757
H	 0.8970572825	-2.4434002877	-3.3710377911	 0.113335
H	 2.9759361309	-1.490550814	-2.4593068849	 0.140226
H	 3.1610339122	-2.8753529503	-1.3444149631	 0.12402
H	 3.2881651709	-3.1220545104	-3.0930835246	 0.139958
H	 0.5169050983	-4.3897712806	-1.5536535397	 0.293101
