16
gdb 9718	3.77239	1.6285	1.56599	3.0102	67.04	-0.2338	-0.0347	0.1991	885.3362	0.128584	-383.753667	-383.74575	-383.744806	-383.786243	28.557	
C	 0.1429431798	 1.5431201808	-0.1623435336	-0.41979
C	-0.0422454789	 0.0282196347	-0.0710192922	 0.249334
O	 0.6303099645	-0.6404836095	-1.1440168362	-0.305295
C	 1.5721337433	-1.5907137598	-0.6451190315	-0.131225
C	 1.4457803904	-1.5110858066	 0.8493094462	-0.094496
C	 0.5415243999	-0.5964720762	 1.1787523197	-0.119768
C	-1.5293161716	-0.3541404292	-0.150477915	 0.133418
O	-2.4333962036	 0.3167556234	 0.2709180892	-0.250003
H	 1.1879418811	 1.8095839845	 0.0126421207	 0.11812
H	-0.1497432362	 1.8936232499	-1.1557842761	 0.132075
H	-0.4902011923	 2.0398728775	 0.5765862701	 0.137978
H	 1.3356977631	-2.590920296	-1.0377703813	 0.11338
H	 2.5850209309	-1.3371433847	-0.9947648737	 0.112173
H	 2.0387377457	-2.1110118095	 1.5280835382	 0.11616
H	 0.2267962313	-0.3029230118	 2.1714448159	 0.122176
H	-1.6890838374	-1.3469796275	-0.6272996004	 0.085765
