19
gdb 15138	8.05268	0.68854	0.66816	2.667	74.03	-0.2395	-0.0202	0.2193	1651.0143	0.163808	-365.038675	-365.029694	-365.028749	-365.073731	31.093	
O	-0.6313159459	 1.0151501972	 0.8850565492	-0.237128
C	-0.012443953	 1.1674374253	-0.1360508838	 0.160531
C	 1.363982424	 1.7836833915	-0.2359748751	-0.273861
C	 1.3814145447	 2.9825952019	-1.1989508914	-0.191956
C	 2.787784557	 3.547198088	-1.4042134702	-0.137306
N	 2.7657112313	 4.6517451838	-2.354777706	-0.061828
C	 2.5545874195	 5.9830528555	-1.7927527986	-0.220493
C	 3.8933244765	 5.574530298	-2.2997154345	-0.220579
H	-0.4422369241	 0.853953503	-1.1173354974	 0.071026
H	 1.6946090507	 2.062576713	 0.7689830087	 0.120981
H	 2.0451554454	 1.007383951	-0.6156414698	 0.1181
H	 0.976510104	 2.6901664249	-2.1749501618	 0.116179
H	 0.7262965128	 3.7728576641	-0.8127312088	 0.114063
H	 3.2153854981	 3.8474378197	-0.4288093972	 0.081036
H	 3.4427063432	 2.766387581	-1.8116343759	 0.103799
H	 1.9215811426	 6.6487563332	-2.3720614715	 0.11926
H	 2.4394715555	 6.0687167526	-0.7128325867	 0.109831
H	 4.6688136624	 5.3901866401	-1.5575149909	 0.109532
H	 4.2568723353	 5.9348408962	-3.2577358682	 0.118814
