14
gdb 27447	2.54336	1.75177	1.11947	4.6416	74.31	-0.2417	-0.0846	0.157	1028.3008	0.102849	-432.912652	-432.905196	-432.904251	-432.944665	28.19	
N	 0.0603585849	 1.2466279322	 0.3825021702	-0.507844
C	-0.0512379271	-0.0346950791	-0.0550111092	 0.417736
N	-1.2259549039	-0.5761350074	-0.0973202483	-0.331584
C	-1.4987600513	-1.9068697837	-0.3158946328	 0.335403
O	-2.4940405775	-2.2917856079	-0.8974540553	-0.340909
C	-0.5844888754	-2.9251035173	 0.2824000658	-0.149866
C	 0.758120434	-2.8698385272	 0.2203394378	-0.084836
C	 1.5166512455	-1.7641036869	-0.3355879321	 0.013325
N	 1.1917695755	-0.5283403411	-0.4734737856	-0.27601
H	 0.9045297167	 1.7473730747	 0.1652042091	 0.270699
H	-0.7898604812	 1.7617504206	 0.5377451812	 0.273141
H	-1.0786967638	-3.8201948104	 0.650303621	 0.137314
H	 1.3447471402	-3.7322249379	 0.5270351166	 0.116452
H	 2.5277452735	-2.0140270886	-0.6676746284	 0.126978
