20
gdb 39232	2.89322	1.59664	1.18447	1.6787	77.5	-0.2286	0.0718	0.3005	1070.9196	0.174068	-403.098475	-403.091083	-403.090139	-403.130098	30.374	
C	-0.027014084	 1.5320958313	 0.0482318392	-0.336239
C	 1.2722594518	 0.7436103953	-0.0533426983	-0.047052
C	 2.2559208527	 0.7355517908	 1.1145104843	-0.26319
C	 2.5588964355	-0.6713039882	 1.5973031823	-0.002893
N	 2.4771309425	-0.9045183877	 3.0515562873	-0.347868
C	 1.44420276	-1.471175356	 2.1598507338	-0.028
C	 0.0658046054	-0.8479249134	 2.2398019082	-0.094003
O	-0.5748497211	-0.8079187933	 0.9746809456	-0.255032
C	-0.0615840788	 0.028079819	-0.027464716	 0.139215
H	-0.2229798879	 1.9879684372	 1.014183979	 0.116447
H	-0.3880491616	 2.1107014747	-0.7957012877	 0.109808
H	 1.7478536545	 0.7299808855	-1.0309952289	 0.086504
H	 3.1772791854	 1.2501722043	 0.8198973089	 0.098806
H	 1.8567274302	 1.3009819895	 1.9603562101	 0.118648
H	 3.319416652	-1.2174537579	 1.0428460227	 0.082037
H	 3.1288865623	-1.6327054832	 3.3311676798	 0.231851
H	 1.4553439141	-2.5441099348	 1.9809079384	 0.085408
H	-0.5966857714	-1.4472104227	 2.8721855722	 0.106486
H	 0.1370358323	 0.145956974	 2.69936117	 0.102283
H	-0.375514264	-0.3830496841	-0.9824719607	 0.096785
