20
gdb 116785	3.05737	0.84774	0.74732	3.8478	79.26	-0.237	0.0323	0.2693	1583.7645	0.168504	-440.249246	-440.238848	-440.237904	-440.286151	36.091	
C	-0.9359436635	 1.0919960056	-0.5628614318	-0.249583
O	-0.6268008011	-0.0022642052	 0.2881892608	-0.196406
C	-1.2242194692	-1.1718417046	-0.0344271244	 0.147751
N	-1.0099654116	-2.1962535235	 0.6606893818	-0.243578
C	-1.6732955215	-3.4490692894	 0.3356268066	-0.145566
C	-2.2404787973	-3.6167125784	-1.0642160176	-0.042241
C	-3.3320212237	-4.6457787155	-1.2925528607	-0.351165
C	-3.6369120867	-3.1742912568	-1.4022372694	 0.113651
O	-4.3563618342	-2.532575976	-0.3884785042	-0.417383
H	-0.3994762418	 1.9541724689	-0.1642203793	 0.141956
H	-0.603248196	 0.9103819481	-1.5929018491	 0.120711
H	-2.0111283534	 1.3102453313	-0.5665397004	 0.126998
H	-1.8759769644	-1.1137244557	-0.9150767754	 0.081042
H	-0.9470934898	-4.2524543853	 0.5128006558	 0.107443
H	-2.4752489215	-3.6005020166	 1.0681031872	 0.117101
H	-1.5069890433	-3.5097109614	-1.8597490474	 0.089617
H	-3.3142999439	-5.248319277	-2.1941493677	 0.111547
H	-3.7082222901	-5.1569115215	-0.411495578	 0.116657
H	-3.8073083531	-2.7717315897	-2.4014691681	 0.081942
H	-5.2665696541	-2.8440833876	-0.4230480287	 0.289505
