23
gdb 82467	2.59795	1.62482	1.46697	0.1099	88.93	-0.2589	0.0954	0.3543	1068.3718	0.207749	-351.134088	-351.126103	-351.125159	-351.165855	33.351	
C	-0.0700951146	 1.5338606446	-0.0086404499	-0.433941
C	 0.0892198914	 0.0148539526	 0.0225630581	 0.07181
C	 1.0530503609	-0.6287670499	-1.0059091316	-0.063158
C	 2.4194379364	 0.0098840832	-0.6549948451	-0.292615
C	 2.282532905	-0.8051023726	 0.641425917	 0.374499
C	 3.4287971358	-1.0614403269	 1.5870953287	-0.508307
C	 1.5032677854	-1.9063022121	-0.1655459872	-0.06194
C	 0.5560042431	-2.1054840982	 1.0247737721	-0.256394
C	 0.8132683119	-0.5920907428	 1.250404153	-0.088456
H	 0.8569414588	 2.0632563042	 0.2257758102	 0.117936
H	-0.4099452103	 1.8750336537	-0.9932324371	 0.110797
H	-0.817906026	 1.8514078783	 0.7262479728	 0.110524
H	-0.9097877379	-0.4276202945	-0.0718592495	 0.061997
H	 0.7111130004	-0.7114005495	-2.0381156729	 0.053153
H	 3.2280521496	-0.405071961	-1.2667451423	 0.088399
H	 2.5165187202	 1.0988244411	-0.6304059931	 0.085055
H	 3.721770935	-0.1397998853	 2.1047819588	 0.11489
H	 3.1695043096	-1.7975714925	 2.356114082	 0.115196
H	 4.3096859195	-1.4336910699	 1.0519924396	 0.112312
H	 2.0017788906	-2.7153864735	-0.7005268297	 0.059057
H	-0.4773778744	-2.4278542028	 0.8609237351	 0.08476
H	 1.0168181873	-2.740149258	 1.7868603792	 0.092904
H	 0.6615990623	-0.1194250683	 2.222298162	 0.051523
