18
gdb 5084	3.23331	1.91394	1.22973	0.8637	75.4	-0.2022	0.0326	0.2347	1004.6311	0.152587	-347.855566	-347.846778	-347.845833	-347.888826	31.41	
C	 0.0003327262	 1.5187404815	-0.014685112	-0.502082
C	 0.0418011491	 0.0231643878	 0.0136510479	 0.193902
C	 0.1167858748	-0.8227209432	-1.0443253142	-0.130123
O	 0.1340986133	-2.1198228432	-0.6311994598	-0.188319
C	 0.0680539053	-2.1066014459	 0.7336169626	 0.279779
C	 0.0739556086	-3.4361727362	 1.4000887125	-0.491305
C	 0.0094503736	-0.8219239007	 1.1875048281	 0.069894
C	-0.0721104368	-0.3455475671	 2.6047058372	-0.508711
H	 0.8434233985	 1.9579669438	 0.5321653372	 0.125837
H	 0.0383432692	 1.8957790233	-1.0405280624	 0.123263
H	-0.9145910366	 1.9075425974	 0.4484751982	 0.125834
H	 0.1635189645	-0.6675124445	-2.1102289157	 0.125103
H	-0.776888929	-4.0493931547	 1.080977586	 0.135658
H	 0.9857060961	-3.9985848458	 1.167178705	 0.135654
H	 0.0176468807	-3.3181198001	 2.4842313058	 0.131341
H	 0.7808798982	 0.2925213609	 2.8661946549	 0.126138
H	-0.9770473841	 0.2490809995	 2.7794635431	 0.126101
H	-0.0863681615	-1.1791447527	 3.3118567657	 0.122036
