21
gdb 87976	3.07705	1.09639	1.08951	2.2935	77.98	-0.245	0.079	0.324	1266.3328	0.181492	-424.222219	-424.213044	-424.2121	-424.256517	34.521	
C	-0.2761290958	 1.4557458864	 0.1002542136	-0.421549
C	-0.0732937297	-0.0371872545	 0.1430653019	-0.006473
O	 1.2656079476	-0.5200507246	-0.049868357	-0.296895
C	 0.645256775	-0.7332343521	 1.2197567262	 0.400219
C	 1.2363217532	-0.036941543	 2.4486226582	-0.161539
O	 1.4518744203	-1.0538463415	 3.4151610346	-0.263784
C	 0.5186377777	-2.1158022147	 3.1798563109	 0.119809
C	-0.8051612082	-1.8713643363	 3.9072767267	-0.395627
C	 0.3814588247	-2.1750215505	 1.6482502806	-0.33022
H	 0.4982873682	 1.9803138698	 0.6652514914	 0.129694
H	-0.2445337786	 1.8148870118	-0.9336001419	 0.131693
H	-1.2535861711	 1.7226126122	 0.5171378183	 0.122086
H	-0.8236078587	-0.6151417311	-0.4017785086	 0.085616
H	 2.1957286061	 0.434318781	 2.2172032815	 0.123
H	 0.5544174251	 0.7367750386	 2.8345429552	 0.093799
H	 0.9879429305	-3.0202957469	 3.5788597008	 0.084669
H	-1.3256739416	-0.9936523928	 3.5084396313	 0.114734
H	-1.4698668817	-2.7345621711	 3.7965939763	 0.114656
H	-0.6252673049	-1.7069360302	 4.9731292689	 0.126479
H	-0.5907411247	-2.5490258068	 1.3178723571	 0.105619
H	 1.1581247964	-2.8110649538	 1.213299954	 0.124014
