15
gdb 28554	2.48712	1.7778	1.04349	4.4201	70.18	-0.221	-0.0548	0.1661	1075.4234	0.113386	-454.013699	-454.005897	-454.004953	-454.045963	28.925	
C	-0.0543837389	 1.5093592309	 0.0683627645	-0.507055
C	-0.0169254034	 0.0253454229	-0.0431637519	 0.281752
C	-0.0372657035	-0.8164357283	-1.1037834234	-0.157288
N	 0.0164975299	-2.1628121876	-0.7316967947	-0.346779
C	 0.0698774545	-2.1516936167	 0.5567870185	 0.478016
O	 0.133027961	-3.2023378131	 1.3588504322	-0.403577
N	 0.0544577896	-0.8377697796	 1.0807518778	-0.188011
C	 0.1012649777	-0.5250542696	 2.4139595819	 0.180667
O	 0.1629626368	-1.3615967156	 3.2973024982	-0.33729
H	 0.8403674778	 1.9194456374	 0.5534988101	 0.135745
H	-0.1084531908	 1.9379200796	-0.9350021659	 0.149436
H	-0.9273817897	 1.8692772004	 0.62732668	 0.135739
H	-0.0885643063	-0.5420870179	-2.1467699482	 0.124014
H	 0.1618104512	-2.8679729723	 2.2805680456	 0.326589
H	 0.0799256841	 0.5554119396	 2.6187418453	 0.128041
