21
gdb 59205	3.03199	1.22465	1.00618	1.7893	80.62	-0.1951	0.0706	0.2656	1253.5327	0.182425	-420.305561	-420.296487	-420.295543	-420.339253	34.764	
C	-0.2280843006	 1.2146519944	 1.0924213267	-0.327299
N	-0.1488255895	 0.3361903571	-0.0622983216	-0.093423
C	 1.1163430814	-0.3797286197	-0.1244778342	-0.299404
C	-1.3783884258	-0.3469593198	-0.3185380547	 0.148618
C	-1.5387481197	-1.38468176	-1.4601809499	-0.149861
N	-0.8544669813	-2.4132220195	-0.5800074629	-0.327183
C	-1.8494772556	-1.7208758018	 0.3317063249	-0.106809
C	-2.8968480425	-1.8119458372	-0.8000490162	 0.134292
O	-4.0069878295	-0.9575061945	-0.7324843602	-0.427991
H	 0.6325864703	 1.8921779882	 1.0988661976	 0.113523
H	-1.1374461448	 1.8219746115	 1.0403376185	 0.116277
H	-0.2357775385	 0.6761581373	 2.058665557	 0.093874
H	 1.2675747185	-1.0903602032	 0.7042937418	 0.098603
H	 1.1923521844	-0.9422125002	-1.0542519405	 0.127639
H	 1.9267858144	 0.3585447665	-0.0933113244	 0.098179
H	-2.1807895275	 0.3912282571	-0.3054510488	 0.093862
H	-1.2910368153	-1.2789151112	-2.5188976229	 0.07425
H	-1.203292337	-3.3503094444	-0.8142649416	 0.20038
H	-1.9647358842	-2.0038414936	 1.3787679627	 0.079206
H	-3.1828748474	-2.8440306393	-1.0501642159	 0.065813
H	-4.46812179	-0.9894979075	-1.5767916655	 0.287455
