17
gdb 10747	3.05786	1.66439	1.41135	3.151	68.33	-0.299	0.016	0.315	951.9988	0.140504	-363.862205	-363.853582	-363.852638	-363.895024	31.901	
C	 0.1666309402	 1.4324998054	 0.0907446997	-0.394123
C	-0.0364549892	-0.0855263796	 0.00966171	 0.174434
O	 0.5323124465	-0.6234289747	 1.1976061024	-0.441237
C	-1.4890614197	-0.3940295043	-0.0202021809	 0.244262
N	-2.6132170803	-0.6618890928	-0.0422570973	-0.334824
C	 0.6081386049	-0.6571457985	-1.2563699418	 0.02186
C	 2.0878089363	-0.9268223125	-1.2874484035	-0.277012
C	 1.1085027949	-2.0749269896	-1.317499193	-0.284509
H	 1.2383837491	 1.6371078147	 0.1439855624	 0.137769
H	-0.2469903505	 1.9247197457	-0.7924730784	 0.13244
H	-0.3184925496	 1.8325612248	 0.9832879612	 0.141623
H	 0.2434195807	-1.5378620193	 1.2915904864	 0.297537
H	 0.1596642815	-0.2680602524	-2.165572949	 0.10309
H	 2.6348109493	-0.6797918587	-2.1899482232	 0.118197
H	 2.6356841703	-0.7784332931	-0.3641492508	 0.131489
H	 1.0440067886	-2.690689148	-0.4266545625	 0.105092
H	 0.9643079669	-2.622864237	-2.2412805818	 0.123912
