23
gdb 89475	2.46042	1.59138	1.26026	1.2917	84.08	-0.2565	0.0771	0.3337	1119.5162	0.208147	-388.321525	-388.313175	-388.312231	-388.35375	34.448	
C	-0.0394821615	 1.4966685514	 0.0039747023	-0.481588
C	 0.0037330537	-0.0232160728	 0.0030491299	 0.339877
C	 0.7807853098	-0.6450651065	-1.1861236892	-0.232736
C	 1.0548574013	-2.1089708659	-0.720099428	-0.231537
C	 0.4394608323	-2.1497711803	 0.6971055678	-0.008754
C	 0.698516192	-0.7167348826	 1.2013311677	-0.248239
C	-1.0924121878	-2.1514379037	 0.5552858356	 0.1355
O	-1.6499568589	-2.4040157567	 1.8405552666	-0.449897
C	-1.3892277551	-0.707667368	 0.0406357677	-0.273179
H	 0.9705118886	 1.9217668049	 0.0085550484	 0.109747
H	-0.5546945842	 1.8821068432	-0.8837039963	 0.109476
H	-0.5676042887	 1.8792506985	 0.88452386	 0.109955
H	 0.2096258215	-0.5933640739	-2.1187024708	 0.088764
H	 1.7174439287	-0.1025993666	-1.3524858697	 0.090062
H	 0.6098447142	-2.8567291825	-1.3844242408	 0.091909
H	 2.127837122	-2.3160608482	-0.6784884463	 0.096839
H	 0.7968724215	-2.9684085006	 1.3232967626	 0.063439
H	 1.7622341925	-0.4680258619	 1.2785849401	 0.081934
H	 0.2118902192	-0.51251393	 2.1587700438	 0.10183
H	-1.4279781011	-2.9204418456	-0.1558880048	 0.054028
H	-2.6018622407	-2.2750820326	 1.7813296521	 0.277516
H	-2.0458928053	-0.2019350807	 0.7575826245	 0.086693
H	-1.884763914	-0.6928638989	-0.9357652931	 0.08836
