16
gdb 52563	4.18609	0.60501	0.53381	5.1869	81.39	-0.274	-0.0632	0.2107	1973.3489	0.121198	-400.761648	-400.751322	-400.750378	-400.800157	33.73	
C	 0.0721224879	 1.4545392693	 0.0092427628	-0.506434
C	 0.0248365445	 0.0033914537	 0.0013491866	 0.200751
C	-0.035610586	-1.2022451296	-0.0044814698	-0.045407
C	-0.0825028835	-2.6458659131	-0.0116461961	 0.205234
O	-1.1245614967	-3.2685093941	-0.0051786724	-0.297193
C	 1.2741473476	-3.3388734452	-0.0280620398	-0.30215
C	 1.1260262314	-4.8683211749	-0.0348122365	-0.344477
C	 2.4214435125	-5.5418728207	-0.0506890438	 0.249667
N	 3.4540301154	-6.0604538205	-0.0625976794	-0.303694
H	 1.1027090899	 1.8232607305	 0.0011668264	 0.162386
H	-0.4434802937	 1.8619928597	-0.8670717854	 0.16863
H	-0.4259972332	 1.8517259909	 0.9002678256	 0.168649
H	 1.8340612505	-2.992803563	-0.9047990212	 0.152842
H	 1.8504611502	-3.002074231	 0.8416349484	 0.152845
H	 0.5593810015	-5.1938338052	 0.8428534809	 0.169187
H	 0.5430021317	-5.1845619969	-0.9050897862	 0.169165
