25
gdb 58457	2.31388	1.30954	1.05216	1.4057	88.59	-0.2382	0.0802	0.3184	1324.9832	0.226715	-389.496561	-389.485946	-389.485002	-389.531732	40.587	
C	 0.2127295713	 1.5252891263	-0.0921908139	-0.397862
C	 0.090069456	-0.006246325	 0.0049843725	-0.01014
C	 0.7557768726	-0.6459570786	-1.2221860505	-0.408104
C	 0.6510394785	-0.5310753618	 1.3442366337	 0.453814
C	-0.002044604	 0.1342208977	 2.5568744902	-0.443859
C	 0.8012143775	-2.0659144599	 1.5296737433	-0.368764
C	 2.2884860299	-1.7531055674	 1.7964609702	 0.179436
C	 3.3506404721	-2.4556111428	 0.9753492013	-0.406582
O	 2.1024754713	-0.3688250192	 1.4137957727	-0.345278
H	 1.2541342971	 1.832713964	 0.049760797	 0.133539
H	-0.1086828979	 1.8720878763	-1.0791371276	 0.106525
H	-0.3987019724	 2.041638557	 0.6517058352	 0.111566
H	-0.9776605387	-0.2706450625	-0.0043413268	 0.069094
H	 1.8301598812	-0.4412987113	-1.2222405094	 0.132063
H	 0.6147119907	-1.7295461616	-1.2645678749	 0.106953
H	 0.3304755861	-0.2288736883	-2.1403094489	 0.107026
H	-1.0916987074	 0.020355498	 2.5267929571	 0.110042
H	 0.3611348465	-0.3219066124	 3.4825499033	 0.111974
H	 0.2348139035	 1.1996415528	 2.5970368434	 0.127308
H	 0.2354691326	-2.4987036986	 2.3567585969	 0.099279
H	 0.6321090872	-2.6614888864	 0.6318099852	 0.10318
H	 2.5482045481	-1.8154136638	 2.8635625196	 0.069616
H	 3.097312951	-2.4468531709	-0.0886076136	 0.121053
H	 4.3186913683	-1.9601249464	 1.1020701112	 0.125065
H	 3.456303429	-3.4966509553	 1.3006833828	 0.113054
