19
gdb 117592	2.10476	1.08808	0.9186	4.6643	80.37	-0.3317	-0.008	0.3237	1395.0012	0.157446	-382.103715	-382.093351	-382.092407	-382.139244	36.587	
C	-0.0495635883	 1.6198507107	-0.0449595238	-0.386547
C	 0.0014635676	 0.0902103866	 0.0261872343	-0.204195
C	 0.7214669498	-0.5072091122	-1.1869068278	-0.184588
C	 0.7456077978	-2.0703408707	-1.235393768	-0.095174
C	 1.5025074323	-2.6911617216	-0.0308565928	-0.407767
C	-0.6357563042	-2.5890171829	-1.2627032372	 0.30873
N	-1.7235054802	-2.9768776682	-1.2470200916	-0.330262
C	 1.4229329228	-2.4780582407	-2.4811598468	 0.29641
N	 1.9919635729	-2.7710821125	-3.4423717858	-0.322678
H	 0.9566628468	 2.0516194813	-0.0747348464	 0.121046
H	-0.583402514	 1.9573130429	-0.9394694043	 0.126339
H	-0.5642907595	 2.0331342271	 0.8268972286	 0.124643
H	 0.5064495164	-0.2116822505	 0.9506298791	 0.10784
H	-1.0173915398	-0.3104917424	 0.0797671169	 0.131348
H	 0.249682074	-0.1508344798	-2.1084330273	 0.134963
H	 1.7646916521	-0.1731776224	-1.2159375086	 0.125005
H	 0.98334822	-2.4571345595	 0.8994950648	 0.151001
H	 1.5625964802	-3.7759842936	-0.1339157802	 0.158111
H	 2.5152701232	-2.2831693916	 0.0085755869	 0.145774
