18
gdb 6289	4.17028	1.06955	1.02683	5.6293	69.75	-0.2493	0.0193	0.2686	1206.349	0.152676	-381.112239	-381.103066	-381.102122	-381.146296	32.598	
C	 0.1430350392	 1.4472395769	 0.0270140456	-0.332114
N	-0.0859409522	 0.0053517124	-0.0052158436	-0.077925
C	 0.6579416828	-0.6769255051	 1.049107443	-0.325896
C	-1.5022447579	-0.3453036092	-0.0145085188	-0.177656
C	-2.0581237202	-0.172644026	-1.4516852655	-0.014101
O	-1.196605588	-0.7821342149	-2.3815738338	-0.421098
C	-3.3975822567	-0.774064147	-1.5436550742	 0.287434
N	-4.4607490779	-1.2238356443	-1.580385213	-0.317542
H	 1.2142610967	 1.6490807109	-0.0590763903	 0.13082
H	-0.3561704665	 1.9338620965	-0.81495566	 0.132436
H	-0.2226789442	 1.9120234979	 0.9596749152	 0.109014
H	 0.3451556605	-0.3705715388	 2.0625586557	 0.107505
H	 0.5230551842	-1.7580725918	 0.9593179439	 0.132296
H	 1.7240929458	-0.4553238249	 0.9432699052	 0.12846
H	-1.5970001595	-1.4003272924	 0.2556338563	 0.129914
H	-2.104203824	 0.2420311663	 0.6984241076	 0.108406
H	-2.17806272	 0.9012091007	-1.6716970123	 0.113381
H	-0.3218400721	-0.7051270173	-1.961662581	 0.286667
