21
gdb 112696	2.92032	1.12177	0.90969	3.0779	81.64	-0.2305	0.0155	0.246	1353.4052	0.181294	-424.24067	-424.230961	-424.230017	-424.275415	35.949	
C	 0.3302720573	 1.4390490312	-0.2891495582	-0.397379
C	 0.0572630103	-0.0366986565	 0.004183447	 0.049031
O	 0.5631245483	-0.8494484604	-1.0615253098	-0.305194
C	 1.457975882	-1.8530305325	-0.5564226913	 0.056764
C	 2.7970892446	-1.6991820804	-1.2853716572	-0.05245
O	 2.6193202614	-1.7614029764	-2.6851317184	-0.423637
C	 1.5013053834	-1.605157303	 0.9219440462	-0.232037
C	 0.7234916885	-0.5769047154	 1.2521651653	 0.311967
C	 0.4640301007	-0.0003376208	 2.6066276075	-0.496851
H	 1.4063311563	 1.6370879339	-0.3062553497	 0.119644
H	-0.0885632744	 1.708080295	-1.2628135311	 0.126771
H	-0.1337301299	 2.079567281	 0.4679771259	 0.114481
H	-1.0355492148	-0.1818224339	 0.0647752812	 0.07921
H	 1.0462397327	-2.8445140778	-0.8056665189	 0.085277
H	 3.2620339986	-0.7493339482	-0.974336156	 0.079491
H	 3.474421219	-2.5149096491	-1.0080602045	 0.100478
H	 1.9028705272	-1.1446136295	-2.8801458286	 0.289207
H	 2.0955035436	-2.202286011	 1.6033321224	 0.101094
H	 0.9940511526	-0.5552144255	 3.3846567986	 0.129587
H	 0.7794590687	 1.0484288875	 2.66345076	 0.134126
H	-0.6071039661	-0.0182497582	 2.8447495796	 0.130421
