16
gdb 4903	6.63853	1.17443	1.02067	1.8113	67.96	-0.2135	0.0207	0.2341	1127.7569	0.130408	-383.769645	-383.761659	-383.760715	-383.802326	28.751	
C	 0.1735194872	 1.4903464202	 0.1813338226	-0.487588
C	-0.0917866283	 0.0337575589	 0.0476020933	 0.381897
C	-1.2216295836	-0.7221070062	 0.105403921	-0.39688
C	-0.8224616218	-2.0878215765	-0.1046545925	 0.218461
C	-1.6905562527	-3.3112190928	-0.1337707517	-0.167192
O	-1.0652086731	-4.4165602561	-0.7671403231	-0.410513
C	 0.5256707243	-2.0486516644	-0.2761409157	-0.114613
O	 0.9851828969	-0.7679707839	-0.1896077627	-0.181814
H	 0.6306350191	 1.9008839906	-0.7261874075	 0.138247
H	-0.7621816322	 2.0229778231	 0.3644047323	 0.135058
H	 0.8555695413	 1.6995212541	 1.0133054136	 0.139331
H	-2.2230412441	-0.3559924657	 0.2751688704	 0.104403
H	-1.9168347263	-3.6511827085	 0.8841821249	 0.125993
H	-2.6581653678	-3.0695073568	-0.6031032462	 0.095162
H	-0.8310762004	-4.1360091326	-1.658485277	 0.281191
H	 1.2672196516	-2.8086637034	-0.4535295418	 0.138858
