17
gdb 25975	4.31758	1.01668	0.86831	3.3892	75.72	-0.1917	0.0202	0.2119	1305.6389	0.137871	-418.085431	-418.076973	-418.076029	-418.119387	31.46	
N	 0.2355843694	 1.1527139395	-0.3212357816	-0.513926
C	-0.0441790442	 0.0178287252	 0.3718668262	 0.424299
O	 0.6058085758	-0.3216809515	 1.3484742941	-0.376194
C	-1.256640034	-0.7778864872	-0.1176917978	-0.436639
C	-0.9979431028	-2.2517008618	-0.2033805575	 0.313971
C	-1.4091663845	-3.1873319102	-1.1293123304	-0.239715
C	-0.9207647502	-4.4536406489	-0.7011218702	-0.145304
C	-0.2263553637	-4.2486590228	 0.469390718	-0.096241
N	-0.2908304542	-2.9136013657	 0.7677434008	-0.265269
H	 1.0312548783	 1.701408481	-0.0369395909	 0.264347
H	-0.2432606432	 1.397206431	-1.1692953738	 0.264589
H	-2.058002933	-0.5600617909	 0.6049570097	 0.143549
H	-1.6091978397	-0.4181505983	-1.0883925677	 0.110081
H	-2.0011883873	-2.9842784613	-2.0094406784	 0.080073
H	-1.0642589027	-5.4022889395	-1.1951735264	 0.087007
H	 0.3080976193	-4.9344854585	 1.1069540367	 0.110829
H	 0.1995112067	-2.4151195603	 1.4957523593	 0.274541
