20
gdb 6574	3.70644	1.65017	1.44749	1.7947	74.99	-0.2426	0.0906	0.3332	977.807	0.17488	-348.98556	-348.977027	-348.976083	-349.017645	33.136	
C	 0.0731649319	 1.5575418937	-0.0312897595	-0.500722
C	-0.0852338226	 0.0796119879	 0.1173153801	 0.430635
C	-1.3688925578	-0.7635058121	 0.0302407545	-0.350084
C	-0.7056606454	-1.8124233651	 1.0100844609	 0.322373
C	-1.3789454761	-1.8274250832	 2.3813332286	-0.447996
C	-0.5035727675	-3.2164832211	 0.4496166732	-0.44741
C	 0.551717418	-0.9109976427	 1.0016692768	-0.073939
O	 0.9793525939	-0.7652833752	-0.3586782132	-0.2947
H	 1.0885033083	 1.8615154817	 0.237061753	 0.132816
H	-0.1120877136	 1.8663675203	-1.0666087371	 0.129515
H	-0.6360699463	 2.0920926926	 0.6090548299	 0.122048
H	-2.2446507308	-0.2772752297	 0.4688336924	 0.098869
H	-1.6135431725	-1.1200436473	-0.9737915474	 0.101617
H	-2.3780365247	-2.2727631688	 2.3207630415	 0.117185
H	-0.7950589255	-2.4143374918	 3.0998875789	 0.113301
H	-1.48719369	-0.815314821	 2.7870596323	 0.110213
H	 0.0367914004	-3.1739873201	-0.499266191	 0.131971
H	 0.0699514532	-3.8408925636	 1.1447763113	 0.10767
H	-1.4660532431	-3.7114221911	 0.2767616523	 0.10899
H	 1.3082337604	-0.7999059134	 1.7733588626	 0.087649
