18
gdb 106008	3.33707	1.68918	1.46294	2.2622	73.96	-0.2115	0.0763	0.2878	945.0549	0.148376	-401.844902	-401.837806	-401.836862	-401.876374	28.426	
C	 0.1236202798	 1.3566127597	 0.0599637197	-0.266478
O	 0.0353897426	-0.0558801244	-0.0097864052	-0.294785
C	-1.2340866573	-0.5581154078	-0.0159895082	 0.440767
C	-1.551683271	-2.065644572	-0.0744657824	-0.144277
C	-2.7643704557	-1.7883601175	 0.7297578112	-0.038201
C	-2.3909941164	-0.3336219929	 1.074572525	-0.157755
C	-3.1829411273	 0.533847633	 0.0656326322	-0.24849
C	-2.4375912043	-0.2856958291	-0.9985609496	-0.071913
N	-2.8327616419	-1.7441186655	-0.7747623609	-0.146525
H	 1.1859093239	 1.6075667158	 0.0591067841	 0.134208
H	-0.3575840193	 1.8338334857	-0.8047944886	 0.119693
H	-0.3361602577	 1.7438157602	 0.9795650843	 0.119015
H	-0.9678268977	-2.9571664816	-0.2663306831	 0.098536
H	-3.4349732799	-2.4656088728	 1.2443223449	 0.095752
H	-2.2165873303	-0.0603578018	 2.1133309398	 0.076062
H	-4.2744395514	 0.4749247301	 0.0793975253	 0.106535
H	-2.8628573968	 1.5797048787	 0.0741027325	 0.100436
H	-2.3808633193	-0.0206997678	-2.0533665911	 0.07742
