21
gdb 116865	3.97184	0.57773	0.56513	2.4151	86.26	-0.2501	0.0335	0.2837	2089.6941	0.177802	-424.185603	-424.174046	-424.173102	-424.223803	40.237	
C	-0.0500430769	 1.4274963756	-0.1424711307	-0.218791
O	 0.0137040976	 0.0232143331	-0.2307317467	-0.225635
C	-1.1691214853	-0.5918507844	 0.2411325584	-0.199925
C	-1.0630770627	-2.0407823008	 0.1352458544	-0.097356
C	-0.989009563	-3.2398974905	 0.0502966276	 0.21787
C	-0.9115770544	-4.7076140685	-0.0243042219	 0.165061
C	-2.3251441405	-5.2969393933	-0.1924168312	-0.397975
C	 0.0046210072	-5.1385213079	-1.1775960039	-0.383143
O	-0.3007011379	-5.2368075766	 1.1595722207	-0.441296
H	 0.8958483198	 1.8180233369	-0.5239013698	 0.132186
H	-0.8750751297	 1.8398893914	-0.7454036924	 0.104443
H	-0.182911722	 1.7678785092	 0.8971186949	 0.104549
H	-1.3564988044	-0.3080381783	 1.292113677	 0.113074
H	-2.0422486018	-0.238914209	-0.3361574618	 0.114242
H	-2.7930107876	-4.9436797006	-1.1157628525	 0.122236
H	-2.2596864007	-6.3882709729	-0.2179106329	 0.122314
H	-2.9656302571	-5.0044124461	 0.6454690916	 0.111201
H	 1.0029861389	-4.718837534	-1.0389842077	 0.135036
H	 0.080173863	-6.2296087009	-1.1879810946	 0.121133
H	-0.3936595091	-4.7974252174	-2.1359394964	 0.121141
H	-0.7539058334	-4.8519405851	 1.9173749878	 0.279632
