19
gdb 15991	3.30431	1.66944	1.2664	2.0671	72.5	-0.2399	0.0751	0.315	1015.8034	0.165382	-365.01235	-365.004154	-365.00321	-365.045126	30.351	
C	 0.1677715467	 1.508395807	-0.2220004667	-0.239025
O	-0.3283043175	 0.2284229281	-0.5487833444	-0.243741
C	 0.6196072615	-0.6005822076	-1.1617215341	 0.08198
C	 1.6945389828	-1.3322298619	-0.2978233443	-0.258501
C	 1.4093383874	-2.629319139	-1.1149147454	-0.299936
C	 0.1053879106	-1.9756751523	-1.580143793	 0.327613
C	-1.281623442	-2.4422968672	-1.3808937157	-0.292753
N	-0.6976527165	-2.3387110529	-2.7372235301	-0.381723
H	 0.9861242551	 1.4573129074	 0.5111270716	 0.111181
H	 0.536713803	 2.0396452974	-1.1134972177	 0.10525
H	-0.6581558138	 2.0766977782	 0.2122149609	 0.128068
H	 1.0939393125	-0.0753849358	-2.0090581313	 0.063027
H	 2.7124203672	-0.938693563	-0.3126141046	 0.097328
H	 1.3500002028	-1.4198891062	 0.7357308717	 0.112438
H	 2.1144268972	-2.7706332925	-1.939020395	 0.110332
H	 1.3272385074	-3.563617594	-0.5562569168	 0.107583
H	-1.4681496552	-3.4586433203	-1.0434538777	 0.113885
H	-2.0161730677	-1.7059043084	-1.0692258386	 0.126776
H	-1.0437294614	-1.4983918169	-3.1964844289	 0.230219
