14
gdb 19774	3.33303	2.71531	1.83239	2.7389	62.2	-0.249	-0.0159	0.2331	717.3899	0.109232	-378.674235	-378.668404	-378.66746	-378.704015	23.231	
N	-0.1034024188	 1.2608558607	-0.1270713363	-0.511203
C	-0.0264054012	 0.0044293848	-0.003767836	 0.367876
C	-1.2203787984	-0.8909859244	 0.1710520085	-0.021082
O	-1.3274387964	-1.8555008856	-0.8979585377	-0.245082
C	-0.7047024413	-2.2620827307	 0.3194726859	 0.028711
C	 0.8081807389	-2.1834446098	 0.2822523056	-0.060082
C	 1.4447372459	-1.7557030762	-0.987668625	-0.251219
N	 1.1861633281	-0.7648251592	 0.0873198141	-0.157222
H	 0.835222418	 1.662598182	-0.1973753519	 0.228517
H	-2.1548118809	-0.5084233468	 0.5674115644	 0.119958
H	-1.2088781584	-3.0404320784	 0.8830955284	 0.111525
H	 1.3651534864	-2.7308950986	 1.0362591268	 0.106465
H	 2.4987836488	-1.9542890872	-1.1557986086	 0.12832
H	 0.8164715995	-1.7192523007	-1.8700458581	 0.154517
