21
gdb 80474	2.05153	1.67864	1.56174	3.0307	77.15	-0.2185	0.0533	0.2717	1038.3991	0.183996	-424.222315	-424.213895	-424.212951	-424.254759	33.96	
C	-0.8581227581	 1.19956231	 0.0574996413	-0.394115
C	 0.0078632063	-0.0631820125	-0.0125596513	 0.007836
C	 0.7633264907	-0.256013704	-1.3285803046	-0.117599
C	 2.0349825748	 0.5118833383	-1.6034302719	 0.134078
O	 2.438817033	 1.6930465766	-0.9934643304	-0.441951
C	 2.1259175646	-0.8759694278	-1.0109055572	-0.116586
C	 2.210184451	-1.0429954314	 0.502396967	-0.251013
C	 1.067056542	-0.1971621451	 1.1118001591	 0.047457
O	 1.5073853769	 1.1164422555	 1.5022837454	-0.420308
H	-0.2582302145	 2.0976866973	-0.1001165024	 0.139162
H	-1.6279770359	 1.1673307852	-0.719896588	 0.109278
H	-1.3605699816	 1.2884048282	 1.0259586271	 0.109047
H	-0.6509429563	-0.9351924719	 0.0982399458	 0.078709
H	 0.1735367536	-0.5868509162	-2.1785657966	 0.075852
H	 2.2998026834	 0.5542776339	-2.6564784502	 0.096703
H	 2.1858645584	 1.6721238636	-0.0547495724	 0.294384
H	 2.5485996646	-1.6701181812	-1.618535618	 0.077687
H	 2.0605372213	-2.0985148931	 0.7573546993	 0.105569
H	 3.1807378858	-0.7508879517	 0.9238125441	 0.094744
H	 0.6353924754	-0.6794323633	 1.9973012574	 0.078881
H	 2.1995094948	 1.0115113796	 2.1633310764	 0.292186
