21
gdb 86273	2.02954	1.50599	1.25859	3.3899	83.41	-0.2324	0.0283	0.2607	1166.7665	0.180993	-383.271023	-383.261021	-383.260077	-383.305283	36.959	
C	-0.1669431835	 1.5382757919	 0.0885446969	-0.416328
C	-0.0775325234	 0.026826314	 0.24684841	-0.02641
C	 0.9170958986	-0.6729071919	-0.7159289162	-0.183795
N	 1.9114363307	-0.6950661926	 0.3700352013	-0.080592
C	 2.8630323067	-1.7834708807	 0.4611033961	-0.341565
C	 0.8685689623	-0.4924979564	 1.4003283486	 0.142492
C	 1.2639561275	 0.4265363908	 2.5541101253	-0.447085
C	 0.3415102217	-1.7665979671	 1.9389868595	 0.254241
N	-0.0393122387	-2.7836095522	 2.3379509515	-0.352477
H	 0.8253664165	 1.9904091038	 0.0031166265	 0.132585
H	-0.7244990107	 1.7822533687	-0.821788346	 0.123148
H	-0.6879132673	 2.0047164458	 0.9306860513	 0.123039
H	-1.0742638239	-0.4152257833	 0.2754451466	 0.096433
H	 0.5746298939	-1.6735381299	-1.022696986	 0.101342
H	 1.2327153362	-0.1153114599	-1.6047770014	 0.102659
H	 3.5252908677	-1.7476310025	-0.4098023654	 0.125964
H	 3.4823101225	-1.6634298966	 1.3557874024	 0.126959
H	 2.3891977798	-2.7787071963	 0.4988597756	 0.120755
H	 1.6498230893	 1.3691341512	 2.1630341492	 0.130862
H	 0.4079044943	 0.6269512048	 3.2053698345	 0.133099
H	 2.0448062399	-0.0407328613	 3.1616429398	 0.134674
