20
gdb 53499	3.26479	0.75808	0.69694	3.611	86.18	-0.2362	0.031	0.2672	1721.9784	0.167746	-403.15618	-403.144848	-403.143904	-403.19516	37.954	
C	-0.3710523616	 1.5749622561	-0.6001144166	-0.496749
C	-0.2336954597	 0.1518023696	-0.3250672673	 0.04027
C	-0.1139392197	-1.0212799657	-0.0809937561	 0.085253
C	 0.0372994995	-2.4475501827	 0.2046734107	-0.320212
N	-1.2124058781	-3.1984663747	 0.0710371517	-0.076945
C	-1.7958150294	-3.2362120325	-1.2560758611	-0.340293
C	-1.6873368597	-3.8699130492	 1.1729179994	 0.411795
C	-2.9721986696	-4.6698903986	 1.0039275339	-0.501188
O	-1.1133842511	-3.8325893897	 2.2494097897	-0.375257
H	 0.2584397215	 2.1691548	 0.0713374975	 0.152292
H	-0.0807022659	 1.8164543734	-1.6285173325	 0.146547
H	-1.4057991873	 1.9064923536	-0.4601907615	 0.150036
H	 0.7930548172	-2.8797948303	-0.4679186935	 0.123299
H	 0.3772798698	-2.6052565949	 1.2309152312	 0.175788
H	-2.7956547662	-3.6644700337	-1.2326365666	 0.137075
H	-1.867773509	-2.2190721276	-1.6557462041	 0.141813
H	-1.180760987	-3.8302157163	-1.9474410181	 0.12124
H	-2.8760800338	-5.444135253	 0.2366438489	 0.136173
H	-3.1837109548	-5.1420643023	 1.962456384	 0.14889
H	-3.8161176451	-4.0290578614	 0.7296155403	 0.140174
