27
gdb 116289	2.04651	1.16761	0.80664	0.0759	95.81	-0.2924	0.0801	0.3725	1574.2529	0.253368	-353.584994	-353.574578	-353.573634	-353.620919	39.485	
C	 0.162707701	 1.7517305378	 0.0778109796	-0.392268
C	 0.1939921273	 0.2257747506	-0.069142792	-0.195894
C	 0.6097792389	-0.5038598637	 1.2132102215	 0.044777
C	-0.3438095773	-0.3314162341	 2.4102966723	-0.204276
C	 0.1553093494	-1.3877656155	 3.4028919382	-0.212233
C	 0.4437491766	-2.6121217996	 2.5120351942	-0.210023
C	 0.8206612802	-2.0558768289	 1.1018004986	 0.020794
C	 0.029084749	-2.7497836974	-0.0200456743	-0.176979
C	 0.3521725076	-4.2426436445	-0.1498632141	-0.388132
H	 1.136921688	 2.1382259143	 0.3987218858	 0.111222
H	-0.0887311661	 2.2336232849	-0.8723595597	 0.108259
H	-0.578864114	 2.0722965951	 0.8163253301	 0.117466
H	-0.7929441589	-0.1255641117	-0.3950654758	 0.094537
H	 0.8913557587	-0.0359060488	-0.8755873215	 0.0922
H	 1.5769416536	-0.0804573216	 1.5229624919	 0.062718
H	-0.3381354166	 0.6816288775	 2.822522992	 0.091026
H	-1.3762152921	-0.554073441	 2.1055585703	 0.089062
H	 1.0781979732	-1.0336428717	 3.8787151733	 0.093415
H	-0.5562383454	-1.6062407675	 4.2046785514	 0.08816
H	 1.2182936169	-3.2607874375	 2.9306334703	 0.092342
H	-0.463321919	-3.2229869646	 2.4324008632	 0.0946
H	 1.8831144329	-2.2438558216	 0.9026976226	 0.060019
H	-1.0481302148	-2.6236215067	 0.155576021	 0.089876
H	 0.2412593334	-2.2638882151	-0.9789660168	 0.093086
H	 0.1180190549	-4.7923424876	 0.7674997064	 0.116931
H	-0.2179354134	-4.7009827167	-0.9642254911	 0.108213
H	 1.4167727959	-4.3950888044	-0.3620438675	 0.111102
