21
gdb 39110	3.95627	1.0986	1.02436	1.8362	81.88	-0.2427	0.0818	0.3246	1245.9772	0.183826	-387.035431	-387.027237	-387.026293	-387.069063	31.325	
C	-0.2318925631	 1.3043372256	-0.0112092355	-0.217688
C	 1.2824311198	 1.6492514595	 0.1715590871	-0.301349
C	 1.6278368611	 0.1525647946	 0.057239147	 0.393328
C	 0.1400571159	-0.1762797822	-0.1375394403	-0.105716
C	 1.1215054328	-0.3609189792	-1.2644507485	-0.328376
C	 2.6899953616	-0.5282477326	 0.8692503271	-0.169232
C	 2.6980877446	-2.0751037206	 0.8901722771	-0.088033
O	 3.9245518653	-2.1318634512	 0.1372582748	-0.272895
C	 4.0794414415	-0.6992676473	 0.1979106148	-0.074253
H	-0.8156463301	 1.5292813296	 0.8840864367	 0.10262
H	-0.7395635643	 1.7443029169	-0.8761771389	 0.096297
H	 1.7371748877	 2.3068975264	-0.5769386258	 0.094486
H	 1.4949593217	 2.0563830976	 1.1638730369	 0.100177
H	-0.432853468	-1.0090445817	 0.2547710537	 0.08352
H	 1.0870586318	 0.2955050924	-2.1321971688	 0.100656
H	 1.379299303	-1.3882015645	-1.5017063711	 0.122562
H	 2.735152087	-0.0786020526	 1.8655035376	 0.072573
H	 2.8081472283	-2.5180729392	 1.8887934934	 0.096325
H	 1.8711194456	-2.5784273145	 0.3744805413	 0.099177
H	 4.184933474	-0.2547830721	-0.7986073656	 0.102373
H	 4.9376589439	-0.4074047248	 0.8173840768	 0.093446
