14
gdb 31440	3.10358	1.2549	0.9017	3.0126	66.82	-0.2644	-0.0657	0.1987	1191.7148	0.101348	-473.876783	-473.869091	-473.868147	-473.909425	28.068	
O	 0.5042745451	 0.6198546141	-0.8708043436	-0.398638
C	-0.1365954415	 0.2916138348	 0.3394564445	-0.146409
C	-1.4642318163	-0.4058959065	 0.1745289918	 0.272131
C	-1.9539638143	-0.7916460982	-1.0286783418	-0.318015
C	-3.2335758205	-1.4487800303	-1.1257221179	 0.443076
O	-3.817787366	-1.8484013783	-2.0891405977	-0.325962
O	-3.8667921257	-1.6297980683	 0.1444999936	-0.202385
C	-3.2736338912	-1.2126295238	 1.2627841053	 0.146475
N	-2.1409285577	-0.6227122775	 1.3650577669	-0.32798
H	 0.0294554988	 1.3533420481	-1.2752789095	 0.293505
H	 0.5372371486	-0.3815195975	 0.8837355188	 0.149289
H	-0.2892883837	 1.1635845477	 0.9934628573	 0.125097
H	-1.4015641579	-0.6349596364	-1.9448570619	 0.136341
H	-3.8753571378	-1.4295530477	 2.1415428141	 0.153474
