19
gdb 81297	2.75672	1.60592	1.30405	3.5857	77.27	-0.2212	0.0289	0.25	1042.8626	0.161379	-419.186987	-419.179266	-419.178322	-419.218944	30.411	
C	-0.1768550456	 1.4075338297	 0.03248913	-0.328902
N	 0.0460156591	-0.0296998018	-0.0382426563	-0.107754
C	 0.904447966	-0.482191606	-1.1856191513	-0.013884
C	 2.1771500356	-0.32262395	-0.3206081331	-0.248721
C	 1.1696757485	-0.5232902249	 0.8417886989	-0.076673
C	 0.9365397438	-1.9993942676	 1.0256686069	 0.45548
N	 0.9700269526	-2.5610207332	 2.1572973525	-0.543597
O	 0.7296338197	-2.6889338656	-0.1358716253	-0.270383
C	 0.5823270823	-1.9570161527	-1.3698845694	-0.067929
H	 0.7311010291	 2.0283180204	-0.0655241219	 0.094742
H	-0.871454288	 1.6989151382	-0.7620809305	 0.1229
H	-0.6470855087	 1.647385595	 0.9911091375	 0.130996
H	 0.7993814694	 0.0719888605	-2.1225230901	 0.077872
H	 2.9893362106	-1.044390468	-0.4384776181	 0.11398
H	 2.5789529509	 0.6904840677	-0.3481895467	 0.115327
H	 1.3050110545	-0.0257235944	 1.8007667825	 0.09719
H	 0.7981380422	-3.5642947361	 2.0589984876	 0.21813
H	-0.4538985682	-2.0737606963	-1.7048227444	 0.120166
H	 1.252075156	-2.4273346147	-2.0984534388	 0.11106
