17
gdb 53211	2.9026	0.97047	0.89698	4.1663	79.74	-0.2412	0.0162	0.2574	1386.0889	0.134595	-417.968215	-417.958502	-417.957558	-418.004308	34.062	
C	-0.0390498832	 1.4406390611	-0.1375790216	-0.499533
C	-0.0230748115	-0.0135370671	-0.0709767636	 0.060551
C	 0.0108536171	-1.2179621144	-0.0254907952	 0.108024
C	 0.0094018145	-2.6684146392	 0.0470018519	-0.243278
N	 0.1012666036	-3.2362415877	 1.4145852114	-0.317239
C	-1.2690079816	-3.5000115978	 1.5115860003	 0.316567
N	-2.0935402285	-3.7525468068	 2.4333450991	-0.536735
C	-1.4519570129	-3.3029219939	-0.0030535322	 0.082509
O	-2.5120968849	-2.554314045	-0.4821337034	-0.405725
H	 0.9721793146	 1.8422070375	-0.2638032146	 0.154695
H	-0.643378596	 1.7900004439	-0.9816783727	 0.157425
H	-0.4594239091	 1.8761827331	 0.7752894316	 0.15332
H	 0.7356002637	-3.1032494638	-0.6462505067	 0.105132
H	 0.6602904078	-2.8245484498	 2.1504884111	 0.240894
H	-1.6484943999	-3.7513244319	 3.3535885109	 0.210655
H	-1.4493151468	-4.2481885116	-0.5504022242	 0.123682
H	-2.534249337	-1.7195615665	 0.0011464078	 0.289055
