21
gdb 122653	4.90484	0.72929	0.68408	0.7851	81.85	-0.251	0.0107	0.2617	1728.4116	0.181731	-424.230441	-424.220921	-424.219977	-424.26607	34.077	
C	 0.0971461324	 1.4247295288	 0.1492016828	-0.381938
C	 0.1456875115	-0.0973621527	-0.0050050671	-0.18186
C	 0.760293022	-0.5256365087	-1.3296754922	-0.041002
O	 0.7686372664	-1.9461292461	-1.3856033245	-0.255489
C	 1.2685325692	-2.4670470598	-2.5879398266	 0.184693
O	 2.663292002	-2.24163349	-2.7457007905	-0.268017
C	 3.3794627272	-3.4598112658	-2.5646873967	-0.119915
C	 2.3229983097	-4.5267656576	-2.5211038998	-0.086919
C	 1.1215755098	-3.9654698932	-2.5632068749	-0.10736
H	 1.1003112797	 1.862589978	 0.1017013503	 0.117264
H	-0.5031648918	 1.888019958	-0.641773197	 0.115256
H	-0.3437671224	 1.7090788823	 1.1089933379	 0.115707
H	 0.7291867504	-0.543113663	 0.8087139836	 0.106841
H	-0.8631069171	-0.5202377212	 0.0670565033	 0.102821
H	 0.17699018	-0.1207350774	-2.1745980623	 0.08128
H	 1.7848810645	-0.1399285115	-1.4251077703	 0.104858
H	 0.7644119688	-1.9669783335	-3.4320152688	 0.067767
H	 4.0778403223	-3.5839175245	-3.4037656023	 0.112579
H	 3.97760449	-3.4346959743	-1.6403163792	 0.111612
H	 2.5503996441	-5.5827533323	-2.4494782984	 0.109996
H	 0.1572181614	-4.4528049254	-2.5261673673	 0.111828
