15
gdb 10244	2.67771	1.95271	1.20948	2.7901	66.61	-0.2625	-0.0269	0.2356	968.9898	0.118482	-396.011151	-396.002837	-396.001893	-396.044313	29.039	
C	 0.0491767555	 1.4347068406	-0.1754879918	-0.456252
C	-0.2435248288	-0.0418122983	-0.1168891666	 0.345574
N	-0.6923619547	-0.6840443543	 0.8835617682	-0.466993
N	 0.0734649689	-0.8207353501	-1.2747470725	-0.125934
C	-0.0772239524	-0.3851070693	-2.5964624884	 0.096534
N	-0.5966158439	 0.7300343866	-2.9079492437	-0.464987
C	 0.5253719718	-2.1413139036	-1.0807001066	 0.177155
O	 0.7764991727	-2.9034052495	-1.9797132362	-0.308987
H	 1.0379162335	 1.6218517893	-0.604344636	 0.141987
H	-0.6712754976	 1.942978408	-0.8176294385	 0.185218
H	 0.0083366653	 1.8490517594	 0.8343648698	 0.120283
H	-0.8079798806	-0.0610470186	 1.6820948606	 0.229972
H	 0.2903113908	-1.1462116023	-3.2858516946	 0.149461
H	-0.6071767579	 0.8323974591	-3.921215286	 0.238225
H	 0.6297233575	-2.3746233969	-0.0139996276	 0.138745
