17
gdb 61197	3.8402	0.86477	0.80374	1.9863	76.65	-0.2653	0.0282	0.2935	1429.0075	0.131865	-421.748496	-421.738458	-421.737514	-421.783489	36.918	
O	 0.2339084134	 1.4123788773	-0.0267220745	-0.447198
C	 0.0534138305	 0.0106722445	 0.0562224667	 0.119595
C	 0.6004786627	-0.7035020407	-1.201360823	-0.376104
C	 0.0487375334	-0.1220840912	-2.4177204398	 0.244037
C	-0.4288880088	 0.4244507659	-3.377432867	-0.412783
C	 0.8363557884	-0.4312748356	 1.3123779453	-0.088932
O	 2.1813179663	 0.0072436204	 1.2228242955	-0.418274
C	 0.1755144165	 0.0348094475	 2.5375242387	 0.330128
C	-0.3640563322	 0.4123222477	 3.5424551178	-0.433239
H	-0.0377394942	 1.6910400695	-0.9102747221	 0.293855
H	-1.0088086536	-0.2416333525	 0.1844591858	 0.091242
H	 1.692486399	-0.6136493182	-1.1976972447	 0.153594
H	 0.3596737263	-1.7720738516	-1.14700487	 0.134104
H	-0.839320049	 0.8731538168	-4.2483421956	 0.203293
H	 0.8766166026	-1.527166057	 1.3278553105	 0.114301
H	 2.1266404813	 0.9521101415	 1.0234716445	 0.295162
H	-0.8367114826	 0.7477569556	 4.4324241917	 0.19722
