17
gdb 7739	3.31381	1.79599	1.2114	5.6393	74.62	-0.214	-0.0171	0.1969	975.5651	0.144288	-363.916693	-363.909271	-363.908327	-363.948151	28.921	
N	 0.0538694149	 1.3691809241	 0.1812543781	-0.561578
C	-0.0133811119	 0.011079798	 0.0162837953	 0.38694
C	-1.1866940136	-0.6725786452	-0.0045511477	-0.287678
C	-1.2644267051	-2.1255903319	-0.0450805862	 0.383652
O	-2.326388044	-2.7273445003	-0.0563785024	-0.367312
C	 0.067082639	-2.8805578156	-0.0426495558	-0.302983
C	 1.1943233758	-2.0805971942	-0.700769969	-0.222681
C	 1.3201057988	-0.6931781033	-0.0629775034	-0.28832
H	 0.878260294	 1.8507897316	-0.1386864483	 0.255045
H	-0.8014176151	 1.8985741913	 0.1146399837	 0.260066
H	-2.1356885007	-0.144898489	 0.0393565205	 0.075408
H	 0.3231644638	-3.0925642907	 1.005467077	 0.1148
H	-0.0925761231	-3.8456341288	-0.5299616862	 0.117154
H	 2.1475184277	-2.6135696756	-0.6226915711	 0.099732
H	 0.9808739302	-1.9641178879	-1.770085519	 0.109866
H	 2.0296285451	-0.0722256901	-0.6250984447	 0.099186
H	 1.7298822342	-0.7773300224	 0.9535638792	 0.128702
