20
gdb 57294	3.34941	0.67868	0.64764	4.0274	88.38	-0.266	0.0216	0.2876	1817.283	0.167842	-366.010936	-366.000063	-365.999119	-366.050385	38.455	
C	 0.2180585901	 1.5105878386	 0.0874991512	-0.39261
C	-0.0386983289	-0.0109472554	 0.0003027553	 0.069856
C	 0.6122115407	-0.7201635613	 1.2097616675	-0.391551
C	-1.5598672745	-0.2840193788	-0.0080528448	-0.392654
C	 0.5544808183	-0.5326291905	-1.2375291384	 0.185666
C	 1.0424190558	-0.9622086864	-2.2500233235	-0.020461
C	 1.6345468278	-1.4834752729	-3.4799786779	-0.473478
C	 2.6192994894	-2.5478098351	-3.2400707631	 0.279902
N	 3.394895863	-3.3849485665	-3.0647102922	-0.302839
H	 1.2899552303	 1.7270958646	 0.0926370048	 0.123145
H	-0.2314805924	 2.0335838044	-0.7613916713	 0.120145
H	-0.2185522408	 1.9110838221	 1.0084713778	 0.114144
H	 0.1791169164	-0.3411046761	 2.1414322047	 0.113106
H	 0.4462318422	-1.8000624075	 1.1665895673	 0.125856
H	 1.6909355806	-0.5430018522	 1.233812574	 0.125483
H	-2.0417617746	 0.2062919261	-0.8587022605	 0.12012
H	-1.7647707427	-1.3563161768	-0.0716078288	 0.123405
H	-2.0134786803	 0.0993415564	 0.9119900783	 0.114088
H	 0.857901525	-1.8833956812	-4.1449428837	 0.17934
H	 2.1316644146	-0.6814392115	-4.0411407367	 0.179339
