25
gdb 58959	2.45093	1.36045	1.16434	0.1594	91.52	-0.2555	0.0751	0.3306	1247.2287	0.228966	-352.341842	-352.332189	-352.331245	-352.376884	37.45	
C	-0.0074410232	 1.5643226833	 0.1335441207	-0.39174
C	 0.0282436984	 0.0277032193	 0.1225577757	-0.077161
C	 0.7391764021	-0.5156533931	 1.3703896633	-0.402522
C	-1.3720300676	-0.5462785317	-0.0709860527	 0.430881
C	-2.4152640003	-0.395322	 1.0833470219	-0.288408
C	-2.6441873496	-1.9363791491	 1.0903860492	-0.214915
C	-1.7022655139	-2.0928042134	-0.1264136221	-0.085228
C	-2.3847883152	-1.8869736177	-1.5048842003	-0.223949
C	-2.0130643023	-0.3745081706	-1.4785920365	-0.291271
H	 1.0023752143	 1.98155209	 0.2063893852	 0.107764
H	-0.4696084145	 1.9618424927	-0.7757314599	 0.114294
H	-0.5816208671	 1.9366013377	 0.9899670112	 0.114127
H	 0.6198461275	-0.2864774056	-0.7507749177	 0.06471
H	 0.770047934	-1.6098806769	 1.3708394468	 0.113094
H	 1.771496162	-0.1529989627	 1.4143234855	 0.109623
H	 0.2429139406	-0.192909393	 2.2921096491	 0.113713
H	-2.0098477858	-0.0038621679	 2.0194870928	 0.097681
H	-3.2898494266	 0.2076804436	 0.8221712395	 0.091396
H	-2.2549500519	-2.4131034536	 1.9941456316	 0.097033
H	-3.6731156884	-2.2792761626	 0.9430759902	 0.091187
H	-0.9385657069	-2.871450515	-0.0723841493	 0.055128
H	-1.9149420808	-2.4395204126	-2.3222693916	 0.097455
H	-3.4556768877	-2.1114467322	-1.5211253872	 0.09322
H	-2.8450415668	 0.3335567148	-1.5410163044	 0.090586
H	-1.2813277404	-0.1041586337	-2.2464010011	 0.0933
