17
gdb 28764	3.16156	1.71354	1.2589	1.5812	80.6	-0.1697	0.0286	0.1983	995.6922	0.138524	-380.832624	-380.82542	-380.824476	-380.863973	29.017	
N	 0.0324592385	 1.4653200149	-0.1145017057	-0.598729
C	 0.008125399	 0.0658047522	-0.1050168696	 0.26085
C	-1.041165541	-0.8357858201	-0.1750792638	-0.204058
C	-0.5029611634	-2.1683797322	-0.2541001413	-0.23578
C	 0.853824733	-2.0356201455	-0.113699367	 0.176989
C	 2.2286452795	-2.3435490101	-0.6683904542	-0.178952
C	 2.4075663822	-1.5117058574	-1.9339251095	-0.273619
C	 2.4901042732	-0.8436245444	-0.5869405536	-0.026401
N	 1.1575337914	-0.6748780037	 0.0193347674	-0.039733
H	 0.6477872427	 1.8499928844	 0.5932947455	 0.245171
H	-0.8933297446	 1.856320835	 0.0034342405	 0.247273
H	-2.0878587228	-0.5735011409	-0.1061296759	 0.078321
H	-1.0712618773	-3.0772111197	-0.3816141566	 0.092019
H	 2.8934748612	-3.1535589518	-0.4013692505	 0.101617
H	 3.3563967213	-1.6256518179	-2.4533572597	 0.11439
H	 1.5526758269	-1.3248906587	-2.5757994115	 0.133555
H	 3.35005282	-0.3016617942	-0.2156596244	 0.107087
