19
gdb 71303	2.59133	1.91467	1.44274	0.3539	74.13	-0.2306	0.0712	0.3019	954.7062	0.161122	-422.994645	-422.987403	-422.986459	-423.025708	30.161	
O	-0.0416641863	 1.3352950371	 0.0699680032	-0.491338
C	 0.0146434604	-0.0697278761	-0.0006069056	 0.382648
C	 0.253028573	-0.6919723417	-1.4217317086	-0.294186
C	-1.0783626479	-1.4413916829	-1.2831523578	-0.076652
C	-1.2193180155	-2.1700243453	 0.0353687455	-0.04159
C	-0.1061000905	-2.7998326796	 0.8533564137	-0.104011
O	 1.1029334583	-2.0564793197	 0.8680842151	-0.244098
C	 0.9166395579	-0.6681610153	 1.0808379515	-0.138914
C	-1.3973594922	-0.6806620004	 0.0051584382	-0.118303
H	 0.8456513336	 1.6792168328	-0.084434453	 0.276283
H	 0.1737631417	 0.1014258782	-2.1694640162	 0.101916
H	 1.1620751619	-1.2759214066	-1.5836196352	 0.100843
H	-1.7468097008	-1.6687568399	-2.1053916663	 0.084981
H	-2.1532115532	-2.7231504106	 0.1111986263	 0.090309
H	-0.4758699841	-2.9363891229	 1.8852423748	 0.088314
H	 0.1628383356	-3.7879388038	 0.4649370912	 0.109222
H	 1.9188701262	-0.2239683757	 1.0389698725	 0.092233
H	 0.4898878806	-0.461671946	 2.0763284716	 0.093337
H	-2.2907194385	-0.1541606516	 0.3159753993	 0.089005
