16
gdb 12441	3.55748	1.96817	1.36953	3.9652	65.95	-0.2336	-0.0023	0.2313	882.8409	0.133325	-379.955463	-379.94808	-379.947136	-379.987245	27.556	
O	 0.0020003148	-0.101940787	-0.1029982959	-0.409247
C	-0.0136382591	 1.1177467397	-0.0313234618	 0.417549
N	-1.2114161589	 1.797340326	 0.0566226874	-0.323678
C	-1.4899171798	 3.2235670514	-0.1005691602	-0.222529
C	-0.7070777758	 4.0892022791	 0.8578842401	-0.041717
C	 0.6221627085	 4.1072789007	 0.8402130544	-0.041719
C	 1.4025063674	 3.2629140722	-0.1390250204	-0.222525
N	 1.167131065	 1.8296954025	 0.0249201135	-0.323679
H	-1.9832719316	 1.1641232839	-0.0784485314	 0.24901
H	-1.3049021735	 3.5564774885	-1.1352265243	 0.116263
H	-2.5608800758	 3.3497360759	 0.0734032512	 0.116872
H	-1.2618938194	 4.6817870847	 1.5788837134	 0.101627
H	 1.1796288351	 4.7149948253	 1.546421867	 0.101627
H	 1.1811249596	 3.5903482992	-1.1682742787	 0.116263
H	 2.4738868268	 3.4181860085	 0.0065150468	 0.116873
H	 1.9520495468	 1.2176460594	-0.130860281	 0.249011
