23
gdb 121970	5.53032	0.54341	0.51862	1.0804	89.67	-0.2532	0.0525	0.3056	2156.2702	0.202158	-388.25264	-388.241208	-388.240264	-388.290117	40.33	
C	-0.1549237258	 1.357388545	 0.09053905	-0.227107
O	-0.1057511747	-0.0441879821	-0.0110222006	-0.229817
C	 0.6954900526	-0.4901223584	-1.0846421109	-0.068044
C	 0.691598079	-2.0143970936	-1.0777034532	-0.195828
C	 1.4078100275	-2.6563376564	-2.2771877034	 0.022782
C	 2.9051035498	-2.3256285116	-2.3251291539	-0.393294
C	 1.179039806	-4.1893445538	-2.2468869786	-0.363488
C	 1.677755288	-4.8836355084	-3.4278404448	 0.299639
C	 2.0862159214	-5.4378610568	-4.4136812719	-0.44137
H	 0.8436221176	 1.79231273	 0.2588305053	 0.101786
H	-0.5787420756	 1.8200294622	-0.8154807627	 0.101791
H	-0.7937121367	 1.6029954173	 0.9425961903	 0.12597
H	 0.2978089225	-0.1108388934	-2.0432983287	 0.082963
H	 1.7185858411	-0.0925341963	-0.9823453183	 0.087282
H	 1.1452696578	-2.3639310434	-0.1410485518	 0.10242
H	-0.3555602007	-2.339687292	-1.0569932259	 0.103945
H	 0.9421245903	-2.2806148976	-3.1983767461	 0.084724
H	 3.0796152031	-1.254247047	-2.4577099886	 0.115462
H	 3.4014536853	-2.6328180274	-1.3963188526	 0.111785
H	 3.3895362413	-2.8486958854	-3.1540731226	 0.131271
H	 1.6572785908	-4.6052218561	-1.3491773094	 0.127043
H	 0.1055736232	-4.3906247262	-2.1394340421	 0.127484
H	 2.444151906	-5.9380924884	-5.2790069094	 0.192602
