15
gdb 61102	2.46364	1.23915	1.03164	4.2998	77.5	-0.2676	-0.0021	0.2656	1189.3594	0.10906	-379.593345	-379.583479	-379.582535	-379.627967	35.593	
N	 0.0263516088	 1.5281503561	-0.0009085728	-0.499488
C	 0.0223465414	 0.0582253223	-0.0126763576	-0.135957
C	-1.4531418032	-0.4483440331	 0.1271653831	-0.368989
C	-2.1210367137	 0.0078260791	 1.3346940404	 0.337631
C	-2.684315541	 0.3621417917	 2.3338748004	-0.44111
C	 0.6015625299	-0.5224687425	-1.2384897159	 0.330579
C	 1.0422873142	-0.9522830457	-2.2702718547	-0.436008
C	 0.8145749952	-0.4063905633	 1.1485946585	 0.330713
N	 1.4468970816	-0.7805428369	 2.0389929779	-0.332463
H	 0.980962531	 1.8643007389	-0.0921597397	 0.251419
H	-0.4791108062	 1.8582687412	-0.8191473613	 0.243206
H	-1.9881255564	-0.1051558086	-0.7664579494	 0.1437
H	-1.4407392668	-1.5419593002	 0.0827834567	 0.160198
H	-3.1728712487	 0.6800615393	 3.2216126721	 0.204661
H	 1.4478117838	-1.3369788284	-3.1741043776	 0.211908
