20
gdb 110332	2.26683	1.36384	1.19519	3.8949	78.85	-0.2399	-0.0071	0.2328	1182.7615	0.170038	-403.136791	-403.127595	-403.126651	-403.170829	34.05	
C	 1.9667296762	 0.2862136938	 1.0691300035	-0.385602
C	 0.9419677104	 0.091335094	-0.0545332184	-0.216787
C	 1.4691098518	-0.8175649854	-1.1455304062	 0.011817
C	 1.3963169539	-2.2907707133	-1.2274872861	-0.075743
C	 0.1141939027	-2.9238396492	-0.6770718596	-0.110963
C	-0.1690808878	-3.1142606468	 0.8075028699	-0.424227
C	-0.6097570355	-1.8667006233	-1.5314782492	 0.374601
O	-1.7422769977	-1.5383519001	-1.7047349523	-0.30498
N	 0.5944653021	-1.4078965246	-2.2083336012	-0.205383
H	 2.1897728521	-0.6599147658	 1.5729682545	 0.12341
H	 2.9099466939	 0.6846528727	 0.6800456197	 0.121207
H	 1.5934011902	 0.9888310265	 1.8194278903	 0.123054
H	-0.0010955516	-0.2820201229	 0.3532374362	 0.11957
H	 0.7058064646	 1.0588783255	-0.514182485	 0.120549
H	 2.3661149245	-0.4147731694	-1.6156930644	 0.107292
H	 2.2296316973	-2.870491347	-1.6095703734	 0.106557
H	-0.0396331337	-3.8783949271	-1.19766404	 0.121789
H	 0.0018558193	-2.204291457	 1.3863230114	 0.130075
H	-1.211500254	-3.4144478567	 0.951551392	 0.139498
H	 0.4677735012	-3.9010436639	 1.2240832184	 0.124267
