17
gdb 76514	3.30893	1.32762	1.2213	3.0274	68.39	-0.2243	0.0437	0.268	1062.71	0.134665	-458.876034	-458.868072	-458.867128	-458.908357	31.114	
O	-0.1062914316	 1.300776551	 0.0706768616	-0.437143
C	 0.0369929686	-0.0941031322	 0.0166733937	-0.05638
C	-0.445825083	-0.8053601138	 1.2777952001	 0.012083
O	-0.843503481	-0.0232917595	 2.3491426244	-0.426104
C	-1.2613041847	-0.8558117692	 0.0107371126	 0.387055
O	-2.4649106768	-0.0780634464	-0.1240568391	-0.326241
C	-3.0602676229	-1.162827897	-0.8618661426	 0.109102
C	-2.314300617	-1.4442153927	-2.1263807276	-0.303195
C	-1.8027971055	-1.9984106312	-0.8076100618	-0.230472
H	-0.9624867852	 1.5072963976	-0.331007635	 0.303907
H	 0.9113530485	-0.4367069833	-0.5312225694	 0.100997
H	 0.0564761879	-1.7232729627	 1.5753200793	 0.104954
H	-0.7116387015	 0.8938727612	 2.0639804287	 0.292068
H	-4.1016456635	-1.3814739827	-0.6630535032	 0.117085
H	-2.7732852717	-2.1797040961	-2.7799835389	 0.121493
H	-1.7822106445	-0.642973425	-2.6316495051	 0.119277
H	-1.6630369661	-3.050483688	-0.6029585377	 0.111515
