17
gdb 50749	2.97633	1.39277	0.98535	5.5627	70.45	-0.2267	-0.0312	0.1955	1154.1884	0.137657	-455.1853	-455.177094	-455.17615	-455.218874	29.891	
O	-0.307834423	 0.0088055908	 0.1186329363	-0.260319
C	-0.0958479997	 1.1865704683	 0.0677027782	 0.164391
N	 1.1493379461	 1.8309138154	-0.0151904947	-0.151271
C	 1.1151041233	 3.3029839471	-0.1156772761	-0.17101
C	 2.3849968691	 3.9389078562	 0.4419167293	-0.180289
N	 3.5862309349	 3.38707511	-0.1698827916	-0.282728
C	 3.6549669269	 1.9482850049	 0.0440663351	-0.282943
C	 2.3675516559	 1.1164556933	-0.0857818796	 0.39376
O	 2.4249085749	-0.0829226782	-0.1745394749	-0.303716
H	-0.9065039815	 1.9446260694	 0.0993643007	 0.078479
H	 0.9960547015	 3.5987272145	-1.1677802138	 0.116923
H	 0.2321894841	 3.662415915	 0.4235008692	 0.124113
H	 2.3500159189	 5.0204027349	 0.2783831184	 0.117592
H	 2.4429509924	 3.7718991298	 1.5250219333	 0.122095
H	 3.5838372932	 3.588655262	-1.1652366738	 0.224328
H	 4.3880183483	 1.4975090189	-0.6280711705	 0.144407
H	 4.0152546948	 1.7554161979	 1.0649490345	 0.146187
