18
gdb 46949	2.81622	1.82373	1.38222	4.0716	75.03	-0.2292	0.0302	0.2594	958.1325	0.151613	-401.966822	-401.959981	-401.959037	-401.997947	27.962	
O	 0.0189400728	-0.0441093403	-0.0868006847	-0.388438
C	-0.0316351603	 1.1716389645	-0.016945768	 0.389408
N	-1.2247537748	 1.8458738024	-0.0039579002	-0.321331
C	-1.3970745472	 3.2899285024	-0.0957495091	-0.166457
C	-0.1712905404	 4.0042235909	 0.4572284954	-0.032043
C	 0.3083788505	 3.5313011138	 1.8732516449	-0.25027
C	 1.556276151	 2.9385321063	 1.2196486286	-0.062838
C	 1.167587259	 3.5119626658	-0.1326324684	-0.104359
C	 1.2042656476	 2.0201128135	 0.056136391	-0.118707
H	-2.0317614653	 1.2502716662	-0.117120655	 0.244178
H	-1.5767147376	 3.6039116092	-1.1361865859	 0.105901
H	-2.2850240772	 3.5721848621	 0.4834377717	 0.110349
H	-0.3087139351	 5.0847032862	 0.3916001742	 0.081081
H	 0.5488878269	 4.3802162673	 2.5171569113	 0.107154
H	-0.3469928142	 2.8452817678	 2.4177405864	 0.109091
H	 2.5381170738	 2.8691182104	 1.6715060362	 0.095171
H	 1.7678566357	 4.0228459522	-0.8750262457	 0.090783
H	 2.0657979747	 1.5049585694	-0.3530079326	 0.111327
