17
gdb 24282	3.92087	1.52054	1.19837	1.2934	77.7	-0.2124	0.0215	0.234	1012.9692	0.139603	-384.709614	-384.703214	-384.70227	-384.740198	26.686	
C	-0.0148202912	 1.4829357844	 0.0811971304	-0.282214
C	 1.3037684125	 0.7611810612	 0.0101694234	-0.026325
C	 2.0500929322	 0.466172838	 1.3252013876	-0.375943
C	 1.0873411411	-0.4256703463	 2.0669103966	 0.208852
C	 0.9347653868	-1.09230661	 3.2360485496	-0.158035
O	-0.2263947671	-1.8135620671	 3.2076608671	-0.156345
C	-0.8246950328	-1.5881469239	 1.9968885994	-0.182203
C	-0.0594229743	-0.744468548	 1.2635165626	 0.264702
C	-0.0069046104	-0.0313752211	-0.032195117	-0.197614
H	-0.328579083	 1.9168401122	 1.0254717379	 0.117109
H	-0.319665804	 2.0450749635	-0.7953979241	 0.111455
H	 1.8944410243	 0.8848033191	-0.8901376956	 0.086996
H	 2.9982238509	-0.0454057511	 1.1204652703	 0.115521
H	 2.2981000865	 1.3847164727	 1.8695756643	 0.115838
H	 1.5123469103	-1.1853617662	 4.1408320307	 0.133358
H	-1.7590532514	-2.100555437	 1.8408160612	 0.133871
H	-0.3674728304	-0.4932532405	-0.9434354345	 0.090978
