19
gdb 6388	3.42843	1.18925	1.02786	3.8986	69.51	-0.2354	0.0418	0.2773	1209.7717	0.163321	-402.237581	-402.22746	-402.226516	-402.274425	34.722	
C	 0.055593291	 1.6678731889	 0.0032840919	-0.389462
C	 0.0026887181	 0.1339305662	 0.0273619645	 0.056245
C	 0.690798982	-0.4538840586	 1.2575304213	-0.096164
O	-0.0707241654	-0.0691017878	 2.3995149876	-0.427309
N	-1.3663076236	-0.3614567213	-0.0148158212	-0.315258
C	-2.0024466183	-0.6691954429	-1.1796048117	 0.412637
C	-3.4516414855	-1.1097542504	-1.0301143764	-0.48253
O	-1.4575585565	-0.5962515094	-2.2685462425	-0.385478
H	 1.0930765544	 2.0176690023	-0.0260778882	 0.110224
H	-0.4572419708	 2.042938063	-0.8855473787	 0.133637
H	-0.4218925089	 2.0862632544	 0.8934163454	 0.126115
H	 0.4964622349	-0.2536095824	-0.8682665974	 0.115026
H	 0.7321165412	-1.5487725274	 1.1651708656	 0.09652
H	 1.7211000767	-0.0735495194	 1.3192628888	 0.094301
H	 0.3024667144	-0.4962330597	 3.1753311031	 0.293793
H	-1.8589162867	-0.3900822891	 0.8633117708	 0.248998
H	-3.755662489	-1.2750362758	 0.0068342016	 0.110374
H	-4.099920615	-0.3457141522	-1.4694825218	 0.149102
H	-3.598812843	-2.0294782285	-1.6008567528	 0.14923
