19
gdb 72687	2.22415	1.53984	1.47087	2.7273	75.68	-0.2436	-0.0384	0.2052	1045.7487	0.15738	-423.008409	-422.999602	-422.998658	-423.042134	32.652	
C	-0.2436923752	 1.4957473691	 0.2621734373	-0.498639
C	-0.0272983515	 0.0159674963	 0.0566542186	 0.242817
C	-1.2700484147	-0.9194575437	 0.017832355	-0.281218
C	-0.6366410973	-1.8320044956	 1.1094033071	-0.271375
C	 0.6431821655	-0.9683149782	 1.1061687805	 0.311609
O	 1.6278862943	-1.3741873867	 0.1408942332	-0.339406
C	 1.1192539964	-0.4597137657	-0.8587163366	-0.121625
C	 1.2334135319	-0.5110056453	 2.4031339734	 0.083784
O	 0.5788383029	-0.2949032989	 3.3945088215	-0.262157
H	 0.7015943473	 2.0294932893	 0.4060842861	 0.122021
H	-0.7464364132	 1.9329013776	-0.6092589831	 0.124914
H	-0.8739958283	 1.6833950762	 1.1372859136	 0.136761
H	-2.1906861357	-0.4273186606	 0.3396461054	 0.109863
H	-1.4529339276	-1.3905520538	-0.9515710436	 0.104147
H	-1.1493432064	-1.7766940437	 2.0718742623	 0.129753
H	-0.4602682408	-2.8754729594	 0.8425793909	 0.114864
H	 0.8252324388	-0.9742729341	-1.78183661	 0.10356
H	 1.85973737	 0.3144158985	-1.0993463333	 0.102927
H	 2.3342567738	-0.3526175213	 2.3718993418	 0.087402
