14
gdb 34276	3.92462	1.55881	1.24804	3.313	72.01	-0.2645	-0.0713	0.1933	944.6133	0.101942	-395.633247	-395.626647	-395.625703	-395.66412	25.873	
N	 0.044170586	-1.0943003714	 0.2664728111	-0.321826
C	 0.0204380034	 0.0501095263	 0.1033369991	 0.226289
C	-0.0235569653	 1.4845215936	-0.0361295256	 0.136757
C	-1.2871214332	 2.238559192	 0.4414473959	-0.233474
N	-0.9595202917	 3.6120130387	 0.0021740628	-0.185888
C	-0.0239441141	 3.4658177185	-0.8452886067	 0.148923
C	 1.4132352857	 3.7448629258	-0.4545333336	-0.261916
C	 1.3449244688	 2.1814887119	-0.3158814234	-0.087476
N	 0.2851053328	 2.0729343692	-1.3492745946	-0.143329
H	-2.180491429	 1.7926222691	-0.0158548265	 0.144303
H	-1.4242846177	 2.255176644	 1.5256122844	 0.145699
H	 2.1236788555	 3.9718763496	-1.2532264119	 0.146918
H	 1.5439451326	 4.3866968561	 0.4142413421	 0.146986
H	 2.2294107362	 1.5504064366	-0.3806367931	 0.138034
