21
gdb 97938	5.79417	0.5324	0.51254	1.6636	89.78	-0.2426	0.0548	0.2974	2233.4659	0.17992	-387.05302	-387.04233	-387.041386	-387.090587	37.281	
C	 0.0868678124	 1.5229960613	 0.1953290167	-0.363547
C	-0.0244192279	-0.012507336	 0.2068341928	-0.312486
C	-1.3815001148	-0.490279344	-0.0389005635	 0.110899
C	-2.511260913	-0.8575755156	-0.2367682034	 0.024954
C	-3.8666015784	-1.3435386267	-0.4822324424	-0.385701
C	-3.9496641915	-2.8619635119	-0.4490815435	 0.078171
O	-4.093677382	-3.4881434827	 0.8258050106	-0.254036
C	-5.1675666643	-3.6185647653	-0.1150398513	 0.074175
C	-6.4983244476	-3.0120632147	 0.251872338	-0.418451
H	 1.1191801376	 1.8326792502	 0.3840281549	 0.11302
H	-0.2233357499	 1.9280793889	-0.7718227905	 0.125919
H	-0.551785871	 1.9643239054	 0.9653141438	 0.127745
H	 0.6528723225	-0.4332824577	-0.5476828159	 0.126
H	 0.3270855236	-0.3974200876	 1.172790196	 0.129729
H	-4.5543419582	-0.9226854359	 0.258197606	 0.133286
H	-4.2120049122	-0.9979929	-1.4669431641	 0.127695
H	-3.2202528522	-3.3484427881	-1.0992754897	 0.094697
H	-5.2420301916	-4.6197186233	-0.5464523262	 0.086937
H	-6.392343533	-2.0123347972	 0.6772332935	 0.127634
H	-7.1449896949	-2.9509282312	-0.6303487752	 0.122354
H	-7.0044207138	-3.6396761078	 0.9928621432	 0.131007
