15
gdb 34128	3.65611	1.47922	1.40178	4.035	69.89	-0.2557	-0.0053	0.2504	933.4226	0.115043	-416.759457	-416.753101	-416.752157	-416.790173	25.762	
N	-0.0114339195	-1.1168752623	 0.100617092	-0.335549
C	-0.0313438141	 0.0390323802	 0.0731403805	 0.166943
C	-0.0071918398	 1.4760566744	-0.0054693354	 0.304078
C	-0.8648885295	 2.237676107	-1.0362024728	-0.256711
C	-0.0928920734	 3.5591613189	-0.817817126	-0.074434
N	 1.2953967986	 3.2573591316	-1.2610692064	-0.296173
C	 1.3645044472	 2.3629043963	-0.1238721286	-0.097208
C	 0.4160448687	 3.2622374845	 0.6762890185	 0.11078
O	-0.3402156868	 2.1825532614	 1.2224109081	-0.310805
H	-0.7819780115	 1.8714832278	-2.0625066661	 0.11611
H	-1.9093800449	 2.2507731795	-0.7206652808	 0.132669
H	-0.5375312725	 4.499310714	-1.1370194778	 0.092708
H	 1.3784772032	 2.8334545937	-2.1840079397	 0.224363
H	 2.3018025611	 1.9198300985	 0.2053983701	 0.111161
H	 0.6754873532	 4.0642082443	 1.3607963944	 0.112069
