16
gdb 133075	3.7182	1.09148	0.8497	3.8002	77.28	-0.2094	-0.0175	0.1919	1284.8074	0.125285	-442.083122	-442.075163	-442.074219	-442.115719	29.884	
C	 0.0364585433	 1.4464097959	 0.0799103645	-0.325256
N	-0.0228029335	 0.0151937889	-0.1389069317	-0.37651
C	-1.2031915767	-0.6948138249	-0.0526633504	 0.341228
C	-2.4655661901	-0.0693947315	-0.0300214686	-0.076418
N	-3.6185836513	-0.7344110534	 0.0115718135	-0.250749
C	-3.5992291291	-2.0651381818	 0.0401884915	-0.127828
C	-2.3960402727	-2.7631735818	 0.0283521277	 0.263355
F	-2.4087888686	-4.0993492591	 0.0637487712	-0.078834
C	-1.1880946702	-2.098200611	-0.0175193282	-0.321819
H	 1.079066521	 1.7655764526	 0.022731522	 0.129251
H	-0.5163827002	 1.9813769229	-0.6999206975	 0.141723
H	-0.3689978015	 1.7538662334	 1.0556519111	 0.124683
H	 0.8025054348	-0.4966383872	 0.1275425453	 0.242073
H	-2.5401400856	 1.0128404924	-0.0483632542	 0.098997
H	-4.5445141737	-2.597441307	 0.0766914645	 0.113352
H	-0.2594395659	-2.6588831683	-0.0307417906	 0.102752
