19
gdb 77558	2.33948	1.44927	1.31638	2.3321	71.31	-0.238	0.0691	0.3071	1083.3423	0.156342	-460.12514	-460.115696	-460.114751	-460.158432	36.613	
C	-0.1007328332	 1.5891593969	 0.0137036276	-0.446193
C	 0.0251399478	 0.0739380554	-0.0000726174	 0.362795
O	-1.1984495305	-0.5459940104	 0.3858886266	-0.48443
C	 0.6518660754	-0.6110748706	-1.223122692	-0.213146
C	 2.1100546711	-0.2267412481	-1.3676227678	-0.32736
C	 1.7453418265	-1.2323592659	-0.3336279899	 0.412953
O	 2.3457388554	-2.4748072875	-0.356688689	-0.462913
C	 1.1514585165	-0.567684793	 0.9000526751	-0.008699
O	 2.0420926077	 0.2652712565	 1.6024103805	-0.428221
H	 0.855494133	 2.0792558017	-0.1798897031	 0.131395
H	-0.8139681633	 1.9233328307	-0.7496586579	 0.105189
H	-0.4672945574	 1.9263851004	 0.9887928633	 0.113104
H	-1.8694459704	-0.298456968	-0.2599167094	 0.274154
H	 0.0885836397	-1.0552019815	-2.0358699659	 0.083507
H	 2.5975759043	-0.6654735615	-2.2324393685	 0.120356
H	 2.4749714165	 0.7590203085	-1.0959912758	 0.120355
H	 1.7393352291	-3.1090957297	 0.0419606674	 0.284883
H	 0.6678750704	-1.3035582483	 1.5570792699	 0.075773
H	 1.6012670414	 0.5795604846	 2.3982866964	 0.286498
