21
gdb 83427	3.0856	1.22574	1.08024	2.1021	82.89	-0.2243	0.0634	0.2877	1221.5851	0.183716	-383.195361	-383.186748	-383.185804	-383.228882	33.203	
C	-0.0777784139	 1.5440544868	-0.0983809414	-0.429627
C	 0.042065147	 0.0590856564	 0.1593206293	-0.027173
N	 1.2159401936	-0.7736606484	-0.1947719801	-0.196054
C	 2.4421035487	 0.0358844141	 0.130623448	-0.147376
C	 2.0532428153	 0.1804406472	 1.621828563	-0.343732
C	 0.778006758	-0.5954743828	 1.2684138621	 0.349853
C	 0.1842796499	-1.7005407801	 2.0683124558	-0.091833
C	 0.9594029431	-2.4621188737	 3.0789029388	-0.250032
N	-0.0806500434	-1.5100278236	 3.5106311233	-0.326526
H	 0.7513634218	 2.1272972282	 0.306909471	 0.121457
H	-0.1353080845	 1.7422200251	-1.1744050136	 0.129152
H	-0.9990194208	 1.9212820248	 0.3574308614	 0.126646
H	-0.860639415	-0.4818928764	-0.1222222005	 0.095715
H	 3.3298810628	-0.5788360614	-0.0280338379	 0.112478
H	 2.5445675285	 0.9539020166	-0.4556232076	 0.105197
H	 2.7286031118	-0.3663848231	 2.2817026832	 0.113546
H	 1.9178668311	 1.1883633888	 2.0254479258	 0.103652
H	-0.6173399204	-2.2257269119	 1.5530591507	 0.091836
H	 0.7212683353	-3.5070018678	 3.2569226215	 0.121541
H	 2.0025949536	-2.2067912091	 3.2394923876	 0.11052
H	 0.3612515577	-0.6464482697	 3.8209301397	 0.230761
