18
gdb 28326	4.63717	1.23025	0.99571	3.0639	80.06	-0.1751	0.0454	0.2204	1180.2831	0.151942	-398.181825	-398.174162	-398.173218	-398.213821	29.744	
N	 0.0338287558	 1.3617739258	 0.1578142581	-0.596518
C	-0.0313076736	-0.03075939	 0.0454945249	 0.27954
C	-1.1457962676	-0.8472108295	 0.0217694043	-0.24968
N	-0.6228926952	-2.1274617557	-0.0597344116	 0.024818
C	-1.1140413306	-3.490834799	-0.0134516323	-0.179469
C	 0.160921437	-4.2973137978	-0.387070161	-0.213295
C	 1.3644761162	-3.3735173126	-0.040747486	-0.349057
C	 0.7247340812	-2.0201484221	-0.0509402371	 0.383613
N	 1.1318208521	-0.7680451417	 0.0031702274	-0.413021
H	 0.9430371145	 1.6956647527	-0.1355198375	 0.246622
H	-0.6958345053	 1.8426645138	-0.350935424	 0.238134
H	-2.2022843089	-0.6433063447	 0.032293597	 0.110699
H	-1.4820871559	-3.7382042214	 0.9909659525	 0.118116
H	-1.9342671738	-3.6503441976	-0.7201272956	 0.119017
H	 0.1994164672	-5.2573562628	 0.1312481908	 0.110988
H	 0.1537616665	-4.5016326333	-1.4612201851	 0.120304
H	 1.7789347129	-3.6033104211	 0.9490328112	 0.122943
H	 2.1830117474	-3.4669229031	-0.7590748758	 0.126248
