16
gdb 30247	4.74295	1.07772	0.91634	0.1848	74.15	-0.1924	0.0266	0.219	1219.3159	0.125183	-437.872645	-437.864722	-437.863777	-437.905069	30.231	
O	 0.4711322678	 1.2497692494	-0.3784191389	-0.423985
C	 0.0473461429	-0.0543382715	-0.0817229039	 0.01104
C	 0.3562754795	-0.6350988727	 1.3625545268	-0.210743
N	-1.1050677564	-0.730273473	 1.5376872274	 0.019379
C	-2.1582768062	-1.4000209393	 2.1016493546	-0.233129
C	-3.1858459272	-1.3053181611	 1.1685258599	 0.337653
O	-4.4484179317	-1.7632491756	 1.4105015958	-0.442701
C	-2.718547688	-0.6430212737	-0.0088453028	-0.474022
C	-1.4092571389	-0.3063706844	 0.277457472	 0.262786
H	-0.0407545564	 1.8545495676	 0.1705807658	 0.282676
H	 0.4462408038	-0.687294292	-0.8790127725	 0.110688
H	 0.8678927021	-1.6026410419	 1.3667571332	 0.125995
H	 0.8484727075	 0.0541624595	 2.0550230974	 0.117905
H	-2.16145008	-1.79731199	 3.1022402672	 0.121938
H	-4.9845598175	-1.6063815906	 0.6281515503	 0.297374
H	-3.2843796312	-0.4494248506	-0.9076042624	 0.097145
