20
gdb 92054	2.79418	1.4275	1.0237	3.2416	78.28	-0.233	-0.0101	0.2229	1182.8077	0.172047	-403.159744	-403.15135	-403.150406	-403.193389	32.398	
C	-0.0807705423	 1.5845513274	-0.029364994	-0.399777
C	 0.1197043072	 0.0673984475	-0.0365052937	-0.079689
C	 0.9943767308	-0.4338359013	-1.2039423074	-0.229902
C	 1.0725636742	-1.9509010094	-1.1946012261	-0.035609
N	 2.3866838986	-2.5545596372	-0.915191384	-0.33465
C	 1.3356558522	-2.5930183286	 0.1212631981	-0.043615
C	 1.5342492888	-1.6790553204	 1.3181532364	-0.318942
C	 0.6419353332	-0.4329966765	 1.3188824558	 0.393893
O	 0.3727289257	 0.1327895376	 2.3531194078	-0.319589
H	 0.8829909362	 2.1039116001	 0.0086949685	 0.118639
H	-0.6041450372	 1.9107632722	-0.9332250878	 0.107665
H	-0.6572818053	 1.8892888756	 0.8456452657	 0.139836
H	-0.8676925321	-0.4120298144	-0.1398633413	 0.101637
H	 0.5870482825	-0.0679202224	-2.1521286575	 0.101818
H	 2.0063794009	-0.0235676267	-1.1156004327	 0.116501
H	 0.4143089503	-2.4727789786	-1.8852055999	 0.085999
H	 2.4570180452	-3.4610925464	-1.3705261894	 0.231848
H	 0.8645865468	-3.5513045847	 0.3229940132	 0.091683
H	 1.3883399974	-2.193688177	 2.270914085	 0.126042
H	 2.5702744071	-1.3152372269	 1.3119716135	 0.146212
