19
gdb 2944	5.77565	1.68025	1.3991	1.7513	67.	-0.2377	0.0819	0.3196	911.0666	0.172656	-310.930659	-310.922937	-310.921993	-310.963411	27.53	
C	 0.0183363424	 1.5764850316	 0.0710782909	-0.385562
C	 0.043837644	 0.0445181186	 0.0260974946	-0.19492
C	 0.6253983609	-0.5256781604	-1.2687440907	 0.028878
C	 0.6792760201	-2.0618836479	-1.3332136699	-0.247876
C	 0.7829688604	-2.3243112752	-2.83937022	-0.066654
O	 0.142697133	-1.2248484409	-3.4901518487	-0.264264
C	-0.1846291731	-0.2182096375	-2.537819648	-0.063483
H	 1.0246447136	 1.9924397712	-0.051202424	 0.115508
H	-0.6101205257	 1.9927604646	-0.7232471141	 0.121384
H	-0.3760722164	 1.9368704659	 1.026123731	 0.113798
H	 0.6279576449	-0.3328621044	 0.8748186079	 0.09639
H	-0.9745267206	-0.3452175744	 0.1601069854	 0.09552
H	 1.6432210369	-0.1343211249	-1.4058887192	 0.074004
H	 1.5121128665	-2.4905994963	-0.7696247693	 0.10041
H	-0.2505167085	-2.4823526674	-0.9312188523	 0.10172
H	 1.8330803989	-2.3740291402	-3.1633135983	 0.092064
H	 0.294279802	-3.2566165614	-3.1459088717	 0.098894
H	-1.2651901113	-0.2429526613	-2.3158710395	 0.082633
H	 0.044843872	 0.7592310501	-2.9753850142	 0.101555
