20
gdb 92772	3.49412	1.02838	0.91178	2.2323	83.11	-0.2198	0.0197	0.2395	1336.128	0.172215	-403.130255	-403.121704	-403.12076	-403.163892	32.704	
O	-0.5639444026	 1.2811638161	 0.8542472833	-0.43863
C	-0.1046228245	 0.1445658323	 0.1309146036	 0.122104
C	 0.8241424542	-0.7521087775	 0.9913400196	-0.278892
C	-0.1141890636	-1.7890917752	 1.5502889986	-0.187323
C	-1.3088665881	-1.7767797301	 0.9499481149	 0.388137
C	-1.3487632068	-0.7256059991	-0.1444324141	-0.337931
C	-2.4321698795	-2.6806968777	 1.2603414425	-0.10898
C	-3.8502666432	-2.2220713157	 1.1815469749	-0.245156
N	-3.3377502833	-3.182331846	 0.197774615	-0.325148
H	 0.2057195451	 1.797871488	 1.1130831666	 0.279802
H	 0.3839703412	 0.4625399564	-0.8005305594	 0.060245
H	 1.6156467219	-1.2118647005	 0.3819660924	 0.104508
H	 1.3322293683	-0.1615445307	 1.7648924391	 0.09448
H	 0.1697646471	-2.4752520557	 2.3409428948	 0.087656
H	-2.2435637787	-0.0950891382	-0.129681552	 0.1215
H	-1.2902190008	-1.1871177929	-1.1394380045	 0.10489
H	-2.2005036795	-3.4400988916	 2.0035368361	 0.08798
H	-4.5765339357	-2.6255135364	 1.8817208995	 0.12074
H	-4.0422240427	-1.1994641583	 0.8699709846	 0.117491
H	-3.1358217886	-2.7003572873	-0.6751576256	 0.232527
