20
gdb 77704	3.05381	1.29975	1.09051	1.3635	79.9	-0.24	0.0687	0.3087	1174.1994	0.171119	-403.091496	-403.083001	-403.082057	-403.124452	33.466	
O	 0.5363137632	 0.7279273389	 0.650197505	-0.423289
C	 0.1440362463	-0.5023675733	 0.0947428426	-0.012146
C	-1.3549245351	-0.8232334759	-0.0780962505	 0.33164
C	-2.3335824382	-1.2682065708	 0.9605566526	-0.337045
C	-2.4553134335	 0.1084059725	 0.3457194519	-0.323729
C	-1.1123116332	-1.3602194073	-1.4990767299	-0.389841
C	 0.285084185	-0.7287826344	-1.4220718365	 0.326006
C	 0.9256256494	 0.2237697279	-2.355247511	-0.308522
N	 1.459152835	-1.1428315118	-2.1739182393	-0.376024
H	 0.0666952041	 1.4200852734	 0.1706027095	 0.279571
H	 0.6691475774	-1.268636739	 0.6776026516	 0.092157
H	-3.0670061466	-2.0186961476	 0.6830264618	 0.113982
H	-1.9914343915	-1.3347033712	 1.988800856	 0.116999
H	-2.1876410785	 0.9583411453	 0.966566292	 0.11369
H	-3.2679816686	 0.2937418742	-0.3493525429	 0.113241
H	-1.0735861977	-2.4528084081	-1.5513005736	 0.11186
H	-1.7738795951	-0.9906372315	-2.2873019868	 0.105046
H	 0.4821350656	 0.4160679923	-3.3288055053	 0.118134
H	 1.4789115495	 1.0566487559	-1.9273119091	 0.114877
H	 2.2833480325	-1.1137197995	-1.5764981882	 0.233392
