19
gdb 69541	3.09809	1.53637	1.37664	2.5948	74.02	-0.2476	0.0718	0.3195	1012.0875	0.159244	-422.98629	-422.9786	-422.977656	-423.017763	31.761	
C	-0.0482506292	 1.465213843	 0.0525681078	-0.492171
C	 0.0809516529	-0.0253266454	-0.0317952829	 0.436468
O	-0.5369583743	-0.8057357108	 1.0126707941	-0.301474
C	 0.8819189214	-0.9134834867	 0.8085932368	-0.065503
C	 1.3267887483	-1.9839963968	-0.2103589525	 0.379293
O	 2.1421573112	-2.9693079704	 0.3330623725	-0.487899
C	 0.0191442274	-2.254635994	-1.0064697963	-0.2847
C	 0.1977878052	-0.7606821349	-1.3965950178	-0.119684
C	 1.7392917251	-1.0424205824	-1.4067107364	-0.289944
H	 0.6973988552	 1.9550438341	-0.5827992841	 0.124488
H	-1.0387837767	 1.7880210149	-0.2874714646	 0.128325
H	 0.0871227251	 1.8076559649	 1.081469847	 0.132132
H	 1.524874022	-0.6224225381	 1.6328203334	 0.101008
H	 2.3836335064	-3.5856486806	-0.3658259283	 0.280574
H	 0.1982281746	-2.9124384476	-1.860864052	 0.084367
H	-0.871952543	-2.5462895893	-0.4550456035	 0.122687
H	-0.3118989411	-0.3280343525	-2.2559092527	 0.067372
H	 2.4178703574	-0.2109537193	-1.1936853678	 0.096029
H	 2.0740486619	-1.590900128	-2.2927191026	 0.088633
