23
gdb 115765	3.22452	0.83292	0.72889	2.8185	86.97	-0.2463	-0.0187	0.2276	1631.4328	0.204371	-388.296386	-388.286232	-388.285288	-388.33263	36.626	
C	 0.0552044532	 1.7300492958	 0.1472163593	-0.385319
C	 0.4497472113	 0.269312946	-0.0994882335	-0.197892
C	 0.6525567406	-0.5081068177	 1.1950740032	 0.050329
C	-0.569644801	-0.8161208407	 2.1068439962	-0.226858
C	 0.0465470989	-2.2073156549	 2.4123569083	-0.229878
C	 0.9767459304	-2.0415875898	 1.1732974858	-0.034694
C	 0.4869580626	-2.8072093578	-0.0680410725	-0.283621
C	 0.7649404169	-4.2835994829	 0.0877072922	 0.160244
O	-0.0758788879	-5.139111941	 0.19823249	-0.24217
H	 0.8297416064	 2.2588211443	 0.7137916201	 0.114323
H	-0.094399787	 2.2664502387	-0.7947255726	 0.11288
H	-0.8760983132	 1.7964093477	 0.7197670728	 0.120823
H	-0.3243337487	-0.2156238573	-0.7075418221	 0.095666
H	 1.3728116026	 0.2364137504	-0.6942855866	 0.092746
H	 1.4263109802	-0.0069529292	 1.7902019765	 0.070456
H	-0.7515531569	-0.1484279303	 2.9520317185	 0.097693
H	-1.4961731393	-0.8948138928	 1.5285557208	 0.10137
H	 0.6102021399	-2.212748056	 3.3489775557	 0.101827
H	-0.6261195701	-3.0685297136	 2.4081164361	 0.113941
H	 2.0319421042	-2.2835939884	 1.342251215	 0.067057
H	-0.5861074271	-2.6721863717	-0.2316852443	 0.118518
H	 1.0252341286	-2.4492501908	-0.9564469416	 0.112492
H	 1.8501172854	-4.543053308	 0.1222893527	 0.070066
