17
gdb 74049	2.81846	1.35295	0.9514	6.0402	78.47	-0.2307	-0.081	0.1497	1209.9118	0.135501	-421.880413	-421.871986	-421.871042	-421.913819	31.074	
C	-0.0193076674	 1.5371896223	 0.0400719932	-0.476576
C	-0.0143250458	 0.0377164422	-0.0156242742	 0.308045
C	-0.0195350844	-0.6328461976	-1.1835593138	-0.247722
C	 0.0543951925	-2.0959177088	-1.2855786228	 0.287102
O	 0.1137188233	-2.6888534927	-2.341486672	-0.306951
C	 0.0784755202	-2.8789354768	 0.0532528115	 0.3026
O	 0.4958138562	-4.0072373592	 0.1027809004	-0.276978
C	-0.4810395272	-2.1270221464	 1.2452371777	-0.33063
C	 0.0276046761	-0.6778153563	 1.3125521364	-0.311626
H	 0.8380640706	 1.9048938616	 0.6179614789	 0.141154
H	 0.0160019074	 1.984437264	-0.955334894	 0.138153
H	-0.9169955977	 1.9013103788	 0.555647496	 0.140471
H	-0.0319983464	-0.1023503654	-2.1320132934	 0.107262
H	-1.5731127581	-2.1080920584	 1.1193365655	 0.1363
H	-0.2620034266	-2.6854241721	 2.1582623501	 0.13025
H	 1.0638663513	-0.6617490539	 1.680305481	 0.139313
H	-0.5508511241	-0.1126992212	 2.0523467295	 0.119834
