19
gdb 41831	2.31258	2.21716	1.91856	1.2848	78.19	-0.2113	0.0206	0.2319	868.7571	0.163808	-385.892665	-385.886319	-385.885375	-385.922872	27.483	
C	-0.008728416	 1.5316520308	 0.0443287331	-0.053978
O	 1.2961410863	 2.0857273978	-0.1083500425	-0.254089
C	 2.1636977335	 1.4263118009	-0.9790139304	 0.104013
C	 1.7869670872	 0.1672500721	-1.6970906821	-0.10168
C	 0.4269375827	-0.4294792839	-1.4082230514	-0.227733
C	 0.0096390744	-0.0046214858	 0.0168936074	-0.10842
C	 1.0143511935	-0.5428461822	 1.0149163837	-0.099777
C	 2.317355744	-0.4964909955	 0.7221259245	-0.021961
C	 2.7978799713	 0.0984074761	-0.5447644335	-0.129854
H	-0.3723129567	 1.9099968936	 1.0043014011	 0.106242
H	-0.6788174761	 1.9081335315	-0.7476124101	 0.081809
H	 2.8104434373	 2.1390607458	-1.4820657269	 0.097204
H	 2.1794370741	 0.0297582528	-2.6998702078	 0.086173
H	-0.3111635658	-0.0659213818	-2.1326926636	 0.097519
H	 0.4630932119	-1.5218210148	-1.4887651999	 0.100626
H	-0.9997510374	-0.3664214955	 0.2385406957	 0.071128
H	 0.6608655176	-0.9526699723	 1.9553283032	 0.08511
H	 3.0613078091	-0.8716851916	 1.4184162847	 0.087883
H	 3.842594089	-0.0478029581	-0.796271735	 0.079786
