18
gdb 119766	5.05038	0.73832	0.68109	4.611	76.22	-0.2397	-0.0235	0.2162	1607.7622	0.147657	-439.12986	-439.120507	-439.119563	-439.165565	32.814	
O	-0.1074182013	 1.4357057766	-0.0747901926	-0.414609
C	 0.0216207382	 0.0252036735	-0.0653472074	-0.067184
C	-1.3878433516	-0.5544391941	 0.1052236469	-0.29159
C	-1.4156776223	-2.0502892983	 0.1021600038	 0.313347
C	-1.622217727	-2.8859411406	 1.1260465144	-0.329232
C	-1.5596516316	-4.3032892684	 0.6655060868	 0.432578
O	-1.690652272	-5.3233972772	 1.308580115	-0.390281
N	-1.3138584436	-4.2169817181	-0.6907467	-0.343173
C	-1.1982690184	-2.8602518236	-1.1621767958	-0.247898
H	 0.771938728	 1.8204188684	-0.1334774638	 0.290041
H	 0.4704322199	-0.341409782	-1.0024617031	 0.08777
H	 0.6602147654	-0.3204719843	 0.7619420176	 0.099594
H	-1.8027419871	-0.1737342297	 1.0431879429	 0.12403
H	-2.0107189133	-0.1584086364	-0.7069555883	 0.118948
H	-1.818911328	-2.6282958603	 2.1575012011	 0.116896
H	-1.2092021825	-5.0354409702	-1.2648693765	 0.252821
H	-1.9554048181	-2.6099255545	-1.9206246576	 0.125289
H	-0.2153196847	-2.6554596609	-1.6119182736	 0.122654
