21
gdb 32731	2.99204	0.99497	0.79135	1.4645	87.14	-0.1719	0.05	0.2218	1504.4362	0.183293	-383.310097	-383.300028	-383.299083	-383.346313	36.518	
C	-0.1550275748	 1.6343674951	 0.1036199255	-0.377526
C	-0.1241733664	 0.1050438388	 0.0551436703	-0.151378
C	 0.7734294073	-0.5117840588	 1.1486554514	-0.320179
C	 0.8377663397	-2.0033724808	 1.1410941378	 0.269316
C	 1.7983661547	-2.8567773963	 0.6304751834	 0.159857
N	 3.0067515081	-2.4450996636	 0.0113114543	-0.613105
C	 1.3827653556	-4.1932911644	 0.9006771619	-0.21669
C	 0.1794508861	-4.1230460457	 1.5651041786	-0.093037
N	-0.1480426584	-2.8011732031	 1.6925693788	-0.297941
H	 0.8479996569	 2.0546422114	-0.0311360875	 0.115183
H	-0.7975920426	 2.0478363208	-0.6800118295	 0.110624
H	-0.5331290505	 1.9926837917	 1.0679711199	 0.111761
H	-1.1429116352	-0.2905041833	 0.1584586365	 0.08884
H	 0.2280433952	-0.2317855579	-0.9277365678	 0.094684
H	 1.7961037529	-0.132779632	 1.0316259748	 0.117235
H	 0.4288807626	-0.1534601287	 2.1300599093	 0.091343
H	 2.8416130715	-1.8927342305	-0.8224902966	 0.236077
H	 3.5639259938	-3.2455630388	-0.2604814352	 0.233683
H	 1.9124124738	-5.0967456288	 0.6361517584	 0.078653
H	-0.4635662349	-4.8985107064	 1.9488380689	 0.109897
H	-0.9709129154	-2.4514640586	 2.1504425569	 0.252703
