17
gdb 55418	2.71599	1.54038	1.00748	2.791	71.43	-0.2512	-0.0025	0.2487	1138.011	0.136819	-455.203427	-455.194917	-455.193973	-455.237096	30.652	
C	 0.20296568	 1.4852806198	 0.0895233932	-0.465165
C	 0.0213844291	-0.0096705622	 0.0313490997	 0.392174
O	-0.0119624265	-0.7177629722	 1.0176171641	-0.348132
N	-0.1027001541	-0.6151739246	-1.2221197826	-0.17017
C	-0.2870235741	-2.0628359383	-1.2988390207	-0.178468
C	-0.0443873382	-2.3097379816	-2.7892356142	-0.110619
O	-0.2962351396	-1.0399643977	-3.412536896	-0.247173
C	-0.203139598	-0.0392797827	-2.4920141835	 0.486101
N	-0.2250130558	 1.1961720366	-2.7570795219	-0.584573
H	 1.0536729212	 1.8043497398	-0.5164426365	 0.154695
H	-0.6670973918	 1.9976230578	-0.3266311947	 0.164394
H	 0.3472172929	 1.7551821218	 1.135555179	 0.133719
H	 0.4216987926	-2.5758576552	-0.6486128343	 0.14854
H	-1.2986577594	-2.3417978501	-0.9839142287	 0.132954
H	 0.9908958887	-2.6047760117	-2.9942559716	 0.126264
H	-0.7201701075	-3.0459912617	-3.2269629452	 0.13304
H	-0.2802451394	 1.3317216022	-3.7642042961	 0.232421
