21
gdb 99081	3.28341	0.77034	0.68426	1.6458	80.09	-0.2505	-0.023	0.2275	1711.0626	0.178096	-424.269867	-424.258863	-424.257919	-424.307701	37.848	
C	-0.2942920539	 1.4585177976	 0.0862083743	-0.376319
C	 0.0234355121	-0.0265205383	-0.0687207086	-0.275794
C	 0.7221588052	-0.3706969603	-1.3766142025	 0.374655
O	 1.0818036389	 0.4847095184	-2.1560002578	-0.306546
C	 0.9300283518	-1.8540223052	-1.6551711958	-0.308719
C	 1.8472615148	-2.1304785037	-2.845301347	-0.069207
C	 3.339615059	-1.9301603575	-2.5295711619	-0.415228
C	 1.6101592261	-3.5033172901	-3.4398313759	 0.150503
O	 0.7299194809	-4.2620173457	-3.1203204433	-0.251895
H	 0.6156829827	 2.059474483	 0.0181327481	 0.133105
H	-0.9676034367	 1.7993768554	-0.7047166061	 0.129881
H	-0.7694700282	 1.6534216392	 1.0515296397	 0.111204
H	 0.6716320954	-0.3779592639	 0.7469334826	 0.12414
H	-0.8823043032	-0.6431136846	 0.0078231715	 0.123048
H	 1.3000151153	-2.3462487978	-0.7467611608	 0.117879
H	-0.0542584562	-2.3060344065	-1.8355963797	 0.146413
H	 1.5927104971	-1.4150629696	-3.642681679	 0.126191
H	 3.5244129283	-0.8923876338	-2.2436860224	 0.144955
H	 3.6615274567	-2.5804506523	-1.7086556008	 0.121553
H	 3.9631498761	-2.1542668427	-3.4013198654	 0.121921
H	 2.3340072079	-3.7775747515	-4.2425558592	 0.07826
