18
gdb 32434	3.07081	1.21693	0.92896	1.6684	75.96	-0.1784	0.0503	0.2287	1266.9172	0.148776	-435.275801	-435.266261	-435.265317	-435.310488	34.924	
C	 0.2449536345	 0.9684464587	-0.6232035838	-0.319546
N	-0.0435597759	-0.007359504	 0.432587732	-0.402032
C	-1.2990146535	-0.6701165462	 0.3223902153	 0.097769
C	-2.5984046012	-0.2235684252	 0.4948230016	-0.162443
N	-3.4257520664	-1.2841149156	 0.2600116921	-0.255677
C	-2.6988820267	-2.418609567	-0.0654268481	 0.152395
N	-3.3748519138	-3.6297414146	-0.334310033	-0.614712
C	-1.3732870594	-2.0469149785	-0.0290346617	 0.251775
O	-0.2936516091	-2.8384838751	-0.2716368881	-0.462687
H	 1.2423019954	 1.3914603815	-0.4641237803	 0.111688
H	 0.2404595198	 0.4598568659	-1.5916542161	 0.130621
H	-0.4801814719	 1.7955369628	-0.6769651897	 0.102179
H	 0.0653228895	 0.4265519113	 1.3422616309	 0.227
H	-2.9846492367	 0.7455056479	 0.7670172577	 0.111906
H	-4.4289119091	-1.287165062	 0.3188062519	 0.258203
H	-3.0681919942	-4.3693698814	 0.2904272393	 0.243669
H	-3.1924029215	-3.9553306295	-1.2789584707	 0.243024
H	 0.4694666104	-2.269924889	-0.0861253595	 0.286867
