21
gdb 60689	3.1872	0.92241	0.85318	2.6345	84.39	-0.2426	-0.0578	0.1848	1458.2182	0.179206	-420.431819	-420.421039	-420.420095	-420.467139	39.866	
C	-0.2266235016	 1.4754358232	 0.0905810084	-0.402967
C	-0.0348406575	-0.0549939149	 0.1615613738	 0.248119
C	 0.8293870721	-0.4509245652	 1.3774770424	-0.401728
C	-1.41917388	-0.7130585739	 0.3048034811	-0.380339
N	 0.5269087535	-0.5814887182	-1.089832511	-0.290003
C	 1.6867094039	-0.2888705028	-1.5422011103	 0.253359
N	 2.7067013751	 0.4906778759	-1.0652430481	-0.55785
C	 2.0308121331	-0.9486959882	-2.8506922365	 0.155194
O	 3.0560215098	-0.7334894126	-3.451723996	-0.272984
H	 0.717898365	 2.0265886331	 0.050953995	 0.094707
H	-0.8057535634	 1.7436347771	-0.7978046785	 0.126015
H	-0.7707674573	 1.8284887745	 0.9723495444	 0.118629
H	 0.3450851588	-0.1285033693	 2.3049177774	 0.113726
H	 0.9485878127	-1.5376904013	 1.4166058111	 0.124059
H	 1.8286827381	-0.0094708369	 1.3492760756	 0.107014
H	-2.0502255511	-0.45819772	-0.5513374151	 0.114179
H	-1.3176717044	-1.8015609397	 0.3319417036	 0.115252
H	-1.9216671791	-0.3853706141	 1.2207103087	 0.100574
H	 2.5372961015	 1.1997155233	-0.3758672344	 0.259763
H	 3.4515368724	 0.6567775439	-1.7277699328	 0.26858
H	 1.2427241485	-1.6374265839	-3.2063885087	 0.1067
