23
gdb 74281	2.46263	1.31938	1.08259	1.2416	89.27	-0.2332	0.0283	0.2615	1276.1914	0.204724	-388.317735	-388.308078	-388.307134	-388.351416	37.63	
C	 0.0027612481	 1.5426123184	 0.0664884526	-0.475713
C	 0.0022913548	 0.0412627094	-0.0073642572	 0.276725
C	-0.1228798043	-0.6305083922	-1.1525782918	-0.161389
C	-0.0678662814	-2.137188875	-1.2712041028	 0.323604
C	-1.4158740146	-2.6956523255	-1.7700896621	-0.406741
C	 1.0574643903	-2.5447984422	-2.2325777981	-0.402945
O	 0.2795523419	-2.7528431528	-0.0239150161	-0.292057
C	-0.3081260136	-2.1598716702	 1.1180858181	-0.090643
C	 0.1550636398	-0.7143961149	 1.2916598658	-0.294639
H	 0.9283274404	 1.9123751872	 0.5270200031	 0.123426
H	-0.0891546069	 1.9982053754	-0.9232680957	 0.118553
H	-0.821643524	 1.9095305035	 0.6917148656	 0.120945
H	-0.2566123828	-0.0928632648	-2.0894084846	 0.076723
H	-1.6823696933	-2.262281158	-2.7394744448	 0.11024
H	-1.351213723	-3.7821830715	-1.881450502	 0.117161
H	-2.2239553821	-2.4634849026	-1.0709493319	 0.114597
H	 2.0156704114	-2.157609525	-1.8773901317	 0.119357
H	 1.1218806018	-3.6356429426	-2.2872080009	 0.11871
H	 0.8714385042	-2.1555026264	-3.2380901842	 0.107496
H	-1.4075942071	-2.1878780072	 1.058499585	 0.087315
H	-0.0080476605	-2.7814855309	 1.9670120639	 0.101305
H	 1.202651453	-0.6878918439	 1.6228998303	 0.111497
H	-0.430355982	-0.2293449781	 2.0844023196	 0.096471
