16
gdb 4105	3.47594	1.76468	1.26481	2.3655	72.6	-0.1868	-0.0114	0.1754	948.5351	0.13107	-379.895569	-379.887852	-379.886908	-379.92736	29.171	
C	 0.0015195662	 1.5227262621	-0.0054128919	-0.394914
C	-0.0190835326	-0.0071325736	 0.0578277761	-0.036343
N	 0.6775371447	-0.6317164007	-1.0877962627	-0.310987
C	 1.8414960279	-1.2141537241	-0.6217100459	-0.002685
C	 1.9267802283	-1.2464902463	 0.7277215159	-0.24674
C	 0.7640483399	-0.5559822368	 1.2504895273	 0.393881
N	 0.3395146121	-0.3624928406	 2.443853567	-0.270619
O	 1.2160382168	-0.947903784	 3.3858495309	-0.401519
H	 1.0305724911	 1.8929319977	-0.0489097515	 0.125369
H	-0.5437251486	 1.8903475592	-0.8817830799	 0.109234
H	-0.4710158179	 1.9278490494	 0.8932135567	 0.144371
H	-1.0566859572	-0.3560872909	 0.088665302	 0.10876
H	 0.7260762972	-0.094269759	-1.9417272567	 0.23951
H	 2.5461977642	-1.6186810379	-1.3381782766	 0.124346
H	 2.688026363	-1.7239105217	 1.3205814243	 0.117791
H	 0.7733151949	-0.7505662528	 4.217285025	 0.300542
