20
gdb 89074	3.63802	0.88365	0.8364	2.6352	75.53	-0.2367	0.0574	0.2941	1451.5895	0.170182	-440.215447	-440.206175	-440.205231	-440.250516	34.149	
O	-0.6445098296	 1.3253099799	 0.2717075861	-0.427756
C	-0.3939426824	-0.0463790532	 0.2922833004	 0.121331
C	-0.8715845582	-0.8974042568	 1.4499726208	-0.365712
C	-1.5486719634	-0.9997567409	 0.1085926687	 0.080495
O	-2.8213089177	-0.4198922274	 0.0304432986	-0.272801
C	-3.2159678887	-0.1184984659	-1.3061193833	-0.111333
C	-4.6540782461	 0.3486049259	-1.303182631	 0.002593
C	-5.654433478	-0.2595242932	-0.3966777883	-0.230539
N	-5.1875841	 1.126760149	-0.1775680029	-0.319835
H	-1.5914885711	 1.4377290305	 0.4211055556	 0.289185
H	 0.5632400395	-0.27223378	-0.1653280895	 0.109071
H	-0.2672399891	-1.7315966623	 1.7890361969	 0.11991
H	-1.427474321	-0.3879883915	 2.2305308927	 0.125517
H	-1.4326743841	-1.9044809221	-0.4875956477	 0.092699
H	-2.5562910536	 0.6558895812	-1.7242542292	 0.114689
H	-3.1165265307	-1.0148921316	-1.9383175063	 0.104458
H	-4.9828227511	 0.7027231887	-2.2785441923	 0.09544
H	-6.6897237827	-0.350835074	-0.7121939931	 0.116088
H	-5.3078385442	-1.025890534	 0.2895141522	 0.122816
H	-4.5030335478	 1.1076146577	 0.5754667317	 0.233685
