15
gdb 2313	7.55689	1.40046	1.28926	2.0811	63.31	-0.259	0.0516	0.3105	932.2101	0.122572	-308.465445	-308.457676	-308.456732	-308.497663	27.627	
C	 0.1169866741	 1.5067659954	-0.2212383108	-0.418941
C	-0.0302318459	 0.0430805533	 0.1095068215	 0.07423
O	 1.1579334504	-0.7594185683	 0.125300124	-0.252179
C	 0.4389131055	-0.600660259	 1.3475652252	 0.071937
C	 1.13560859	 0.1385129153	 2.4800753319	-0.381047
C	 1.9997319244	-0.7378856068	 3.2641231674	 0.29848
C	 2.6963217245	-1.4777313551	 3.9050019564	-0.437389
H	 0.9584488909	 1.9651386925	 0.3017355687	 0.12765
H	 0.2815884645	 1.6325481396	-1.2963790355	 0.133187
H	-0.7971241619	 2.0500429415	 0.0419397906	 0.12386
H	-0.8703416959	-0.442688434	-0.3922988543	 0.089781
H	-0.0826483417	-1.5018424754	 1.6745541386	 0.09905
H	 1.7224217457	 0.9672209371	 2.0725351008	 0.139459
H	 0.3717025038	 0.5799123226	 3.1347962702	 0.134176
H	 3.3216905315	-2.1245816088	 4.4686718152	 0.197745
