26
gdb 122345	3.20863	0.68184	0.63717	1.3832	93.79	-0.2095	0.0777	0.2872	1945.5783	0.238604	-369.592076	-369.580543	-369.579599	-369.62968	41.356	
C	 3.4006326734	 1.898969665	-8.4396823308	-0.380668
C	 3.8515133948	 1.5979646497	-7.007877956	-0.164679
C	 3.3249529858	 0.259717202	-6.4790815298	-0.156871
C	 3.772113779	-0.0461005691	-5.0424680811	-0.218173
C	 3.1668394815	-1.3365063293	-4.5231326727	-0.012492
C	 3.8346545696	-2.6738800651	-4.6383100151	 0.007168
C	 5.1941089887	-2.8799016423	-5.273231084	-0.415917
N	 3.6390883394	-2.043406992	-3.3288021026	-0.118244
C	 4.7746453501	-1.5421274423	-2.5700708477	-0.310694
H	 3.7467517567	 1.1258104426	-9.1347647874	 0.11317
H	 2.3078689176	 1.9391795181	-8.5102744805	 0.113915
H	 3.7919022169	 2.8595775899	-8.7891311937	 0.111026
H	 4.9487575372	 1.5994600949	-6.9609627553	 0.093197
H	 3.5200815381	 2.4052980869	-6.3413268272	 0.094788
H	 2.2270207529	 0.2582618126	-6.525007091	 0.09449
H	 3.6547952724	-0.5514672642	-7.142035964	 0.096669
H	 4.8653173544	-0.0680155516	-5.0027249039	 0.094472
H	 3.4619050738	 0.7789616698	-4.3857368019	 0.097815
H	 2.0770046144	-1.3305126465	-4.5911337449	 0.079719
H	 3.1799497108	-3.5351039316	-4.7789555449	 0.081956
H	 5.8388675545	-2.0009254287	-5.2215336602	 0.119127
H	 5.7237085926	-3.709314539	-4.7909275692	 0.121743
H	 5.0740686593	-3.1401786601	-6.3305012767	 0.12103
H	 5.5912567213	-1.096558699	-3.1556169416	 0.097408
H	 4.4181737764	-0.7836399217	-1.8652103851	 0.120783
H	 5.1956545083	-2.3662756991	-1.9845202126	 0.119259
