16
gdb 48835	3.58476	1.37349	1.16088	2.6235	70.35	-0.2477	-0.0285	0.2192	1041.223	0.125001	-437.894809	-437.887267	-437.886323	-437.926965	28.338	
O	-0.9366044559	 1.2985821864	-0.3502755495	-0.276342
C	 0.1300036941	 0.9500319194	 0.0978277258	 0.096992
C	 1.3855153816	 1.7368368556	-0.0389676194	 0.229818
C	 1.2420696124	 3.2627079882	 0.0984887937	-0.307721
C	 1.5248067929	 2.6689299688	-1.2343130381	-0.082913
C	 2.9103646877	 2.7085310127	-1.8344189483	-0.104844
O	 3.9523211487	 2.4076848585	-0.886956126	-0.227363
C	 3.6786294228	 1.4792374052	 0.0600742295	 0.108234
N	 2.5494694187	 1.1043575797	 0.4939343782	-0.320958
H	 0.2586247335	 0.0007304366	 0.6588318377	 0.091235
H	 0.2375876428	 3.6255758206	 0.2835560305	 0.145196
H	 2.0393310275	 3.7604112301	 0.6396781971	 0.137419
H	 0.707316935	 2.6445438976	-1.9487295074	 0.123595
H	 2.9759310326	 1.981638414	-2.6538183687	 0.124617
H	 3.1587945663	 3.6966104677	-2.2317298198	 0.130368
H	 4.5985017293	 1.0678705691	 0.4692360346	 0.132667
