18
gdb 80038	3.10775	1.35001	1.19239	4.1811	78.12	-0.2337	-0.0123	0.2214	1097.4638	0.147866	-401.920593	-401.912809	-401.911865	-401.952878	30.322	
C	-0.2203586431	 1.432717667	-0.0697393537	-0.43265
C	 0.1130622098	-0.0447767284	 0.0151029791	 0.054877
C	 1.3883779206	-0.6761469098	-0.6772893679	-0.090092
C	 2.5205125991	 0.1178211507	-0.0070849044	-0.071555
C	 2.1631108449	 0.1120507582	 1.2798431364	-0.070625
C	 0.8488019579	-0.6854294292	 1.2577801096	-0.110554
N	 1.2531213476	-1.7918027318	 0.320203099	-0.031076
C	 0.6150325867	-2.9746822598	 0.1053258698	 0.127525
O	 0.5197017894	-3.5343392629	-0.9679206227	-0.333487
H	 0.6374574106	 2.0634607819	 0.1733569369	 0.124239
H	-0.5592857207	 1.6872728603	-1.0796125138	 0.125061
H	-1.0347086585	 1.6798907931	 0.6199717713	 0.121183
H	-0.7638342077	-0.6504362177	-0.2380745681	 0.096088
H	 1.4314755512	-0.9463157604	-1.7288146302	 0.10639
H	 3.3797144889	 0.5505290696	-0.4970228934	 0.117086
H	 2.6436090667	 0.5382555056	 2.1476372612	 0.115884
H	 0.3475140549	-0.95221905	 2.1873968838	 0.084664
H	 0.2466702918	-3.4149294463	 1.055805507	 0.067043
