13
gdb 714	6.1754	5.44278	4.33078	1.7558	52.12	-0.2359	0.0934	0.3294	400.0483	0.110586	-249.280474	-249.276201	-249.275257	-249.307696	17.203	
C	-0.0143715424	 1.4894839147	-0.1331515148	-0.235852
C	 1.495992376	 1.4055466708	 0.0780267939	-0.026264
C	 1.3833221535	 0.1243004954	 0.8129611844	-0.042649
C	-0.0138558012	-0.0472609483	 0.094144653	-0.079577
C	 0.8167176944	-0.5503364656	-1.0968035505	-0.139952
N	 2.0282874214	 0.1315380301	-0.5300323478	-0.145204
H	-0.4879974377	 2.0242230851	 0.6942282661	 0.106432
H	-0.4026806575	 1.8613715783	-1.0878741646	 0.094194
H	 2.2147660253	 2.2053083679	 0.1970618875	 0.097471
H	 1.8396136116	-0.2668285554	 1.7124727357	 0.095637
H	-0.9003722253	-0.5621555682	 0.4589915383	 0.073365
H	 0.9956653854	-1.6284858249	-1.0824738511	 0.107725
H	 0.5252831265	-0.23389779	-2.1059033602	 0.094674
