22
gdb 120620	4.43201	0.6675	0.63198	0.9862	79.64	-0.2442	0.0626	0.3069	1806.1084	0.192091	-441.449894	-441.438896	-441.437952	-441.486791	39.114	
C	 0.0239802514	 1.6357298221	-0.124618025	-0.46321
C	-0.1183279379	 0.1427733468	 0.0941900082	 0.305198
C	-1.3390571607	-0.4785882636	-0.56568512	-0.14163
O	-1.2522394984	-0.5234536098	-1.9837512124	-0.415915
N	 1.1361766917	-0.6291148852	 0.0495311409	-0.364468
C	 0.3911879678	-0.5400892797	 1.3201229749	-0.063469
C	 1.0736000755	 0.1444980054	 2.4814931529	-0.196642
C	 2.0995614341	-0.7658091877	 3.1485867445	-0.063778
O	 2.6621159402	-0.0573283812	 4.2429161586	-0.422989
H	 0.9558834865	 2.0138745526	 0.2965797568	 0.138074
H	 0.0442383186	 1.8669020718	-1.1965663512	 0.10785
H	-0.8122313219	 2.1833073401	 0.3246966636	 0.115565
H	-1.4382881046	-1.5229208392	-0.2501796772	 0.101518
H	-2.2487185426	 0.0510982429	-0.2397519933	 0.090823
H	-1.2759628028	 0.3793686558	-2.3150930304	 0.286816
H	 0.9810804312	-1.5234686263	-0.4100987089	 0.230893
H	-0.1729483327	-1.4273749008	 1.6135611961	 0.074696
H	 1.5853435393	 1.0525126144	 2.1524009797	 0.111827
H	 0.3274837953	 0.4428830608	 3.2282918686	 0.104315
H	 1.6111198581	-1.6957287319	 3.4862033848	 0.077087
H	 2.8654915201	-1.0453013394	 2.4097608814	 0.102612
H	 3.356518262	-0.6002972279	 4.6267698974	 0.284829
