15
gdb 99463	1.68738	1.49074	1.17687	1.9132	74.87	-0.2547	-0.071	0.1837	1165.9302	0.10727	-420.541707	-420.53166	-420.530716	-420.577542	34.562	
C	 0.4805860738	 0.3137019053	-1.0440842786	-0.24186
O	 0.2638472672	-0.7451159247	-0.1262795992	-0.237383
C	 0.4506863638	-0.359942198	 1.2179231406	-0.12418
C	-0.0728270244	-1.3986015367	 2.0974190405	 0.27321
C	-0.4642729166	-2.2433933597	 2.855901125	-0.40289
C	 1.9512533964	-0.1333810244	 1.5588622389	 0.199998
O	 2.3162569558	 0.819373548	 2.2060210062	-0.272135
C	 2.8644796089	-1.132395851	 1.0436171391	 0.31584
C	 3.6379179375	-1.9500975521	 0.6178565012	-0.439079
H	 1.5174679747	 0.6770933086	-1.0231464504	 0.122843
H	 0.2679674811	-0.086692481	-2.0368672142	 0.139249
H	-0.1921519217	 1.1602261786	-0.8438876594	 0.117982
H	-0.0465320114	 0.5991199031	 1.4328219955	 0.120569
H	-0.824657636	-2.9914719025	 3.5185517636	 0.207113
H	 4.3208703408	-2.6746817634	 0.2451410511	 0.220722
