21
gdb 123240	12.20238	0.37647	0.36941	3.0413	77.81	-0.2565	-0.0272	0.2293	2796.4139	0.178438	-461.352489	-461.34109	-461.340145	-461.391371	37.523	
O	-0.0496818292	 1.4319933552	-0.0886335367	-0.421118
C	 0.0250534319	 0.015244974	-0.0611959297	-0.074023
C	-1.3973528852	-0.5260048508	-0.0011219068	-0.168939
C	-1.4467210853	-2.0555463964	 0.032842788	-0.205412
C	-2.8712451854	-2.5876944801	 0.0926888275	-0.050527
O	-2.8257108124	-4.0019993468	 0.1211036617	-0.249454
C	-4.0903743711	-4.6044419321	 0.1765083846	-0.144279
C	-3.8989860815	-6.1109752125	 0.201065528	 0.139278
O	-4.8058198104	-6.8984299359	 0.2488115528	-0.237928
H	 0.8456178901	 1.7805554031	-0.1260540576	 0.286471
H	 0.5333682284	-0.3760149507	-0.95787891	 0.085893
H	 0.5939481451	-0.3385089686	 0.8144277585	 0.085896
H	-1.8880865035	-0.108220403	 0.8865633573	 0.108021
H	-1.9481626929	-0.1452939099	-0.870041018	 0.108024
H	-0.9567494533	-2.4731826806	-0.8551605946	 0.108232
H	-0.8967910915	-2.4360951922	 0.9022120313	 0.108238
H	-3.3887657588	-2.207115854	 0.9896520672	 0.091916
H	-3.4491888419	-2.244682978	-0.782259615	 0.09191
H	-4.655903658	-4.3053063097	 1.0760568035	 0.120914
H	-4.7159659237	-4.3418612668	-0.6942402087	 0.120902
H	-2.8316390015	-6.4229280041	 0.1704614167	 0.095984
