18
gdb 54632	3.86147	1.12368	0.93899	3.7962	79.83	-0.2395	-0.0499	0.1897	1251.1515	0.147817	-401.953085	-401.944865	-401.943921	-401.986376	31.042	
C	-0.185377953	 1.4823558344	-0.0084715386	-0.489724
C	-0.1090170036	-0.0339596315	 0.0232689996	 0.298811
O	-0.1220577665	-0.6466035162	 1.0732624825	-0.311458
C	-0.010741577	-0.7380352484	-1.2829844768	 0.211977
C	-0.0044187519	-2.0770745149	-1.3940815772	-0.109483
C	 0.0273747929	-2.4975978447	-2.8171610775	-0.092662
N	-1.1765667337	-2.0203489015	-3.5669495835	-0.329243
C	 0.0719810912	-1.2390438709	-3.6186950858	-0.042756
C	 0.0893428599	-0.0636497651	-2.6471238916	-0.334376
H	 0.675377628	 1.9043970238	-0.5397091691	 0.134603
H	-1.0816898682	 1.8085337156	-0.5486634151	 0.140698
H	-0.2137951785	 1.8666555353	 1.0113997527	 0.139511
H	-0.0447234434	-2.753153702	-0.5495503292	 0.128393
H	 0.4984342638	-3.4235460133	-3.1269543222	 0.095776
H	-1.2484071052	-2.5640857951	-4.4258972931	 0.231602
H	 0.6114786592	-1.1753892971	-4.5573542043	 0.09329
H	-0.7448752183	 0.6209858333	-2.8372999993	 0.124896
H	 1.0141751443	 0.5195525883	-2.7440182913	 0.110143
