21
gdb 64342	2.45403	1.39744	1.13939	2.8656	78.42	-0.2321	-0.0205	0.2116	1175.6014	0.181625	-424.257237	-424.248112	-424.247168	-424.290666	35.127	
C	 0.0197259702	 1.5341557567	 0.0121551474	-0.425271
C	-0.050459033	 0.0009605445	-0.0134301334	 0.225476
C	-1.5161341995	-0.4621349804	-0.0783481137	-0.408308
C	 0.7164200952	-0.5274855494	-1.2400472575	-0.086298
O	 0.7229477214	-1.9438578229	-1.2973228335	-0.245483
C	 1.4236825909	-2.5368126662	-0.2202912933	-0.174137
C	 0.9230590712	-2.0709171932	 1.148338507	 0.365749
O	 0.823625703	-2.8314748882	 2.0813959404	-0.300622
C	 0.6345843595	-0.5810873162	 1.2481607697	-0.327487
H	 1.0566992715	 1.8881410804	 0.0286208124	 0.112193
H	-0.4699993802	 1.9658130751	-0.8675679575	 0.116105
H	-0.4827380642	 1.9318487344	 0.9001114165	 0.120043
H	-2.0194260609	-0.0349875136	-0.9523845555	 0.113036
H	-1.5848946329	-1.5505983678	-0.154435462	 0.131907
H	-2.0652089637	-0.1452486053	 0.8142388236	 0.114985
H	 0.2394857416	-0.1922521544	-2.166381696	 0.109398
H	 1.7511581351	-0.1416401027	-1.231140913	 0.082112
H	 1.3016333065	-3.6186729225	-0.2987647079	 0.134418
H	 2.503716486	-2.3033439614	-0.2809251205	 0.105175
H	 1.6119353715	-0.0915556481	 1.3781474512	 0.117484
H	 0.0570876908	-0.3929750487	 2.1579601655	 0.119524
