16
gdb 62329	4.21766	1.30982	1.16404	4.0261	74.84	-0.2271	0.0342	0.2613	1049.0072	0.122987	-400.611533	-400.60408	-400.603136	-400.643007	30.535	
O	 0.0891872131	 1.4521291833	-0.0284363856	-0.463343
C	-0.0210160911	 0.0736364381	 0.0299497556	 0.219722
C	 1.0355445528	-0.567956008	-0.7266523976	 0.280827
C	 1.9035473973	-1.119023335	-1.3483989799	-0.41249
C	-0.4245362785	-0.7570312644	 1.248372367	-0.137957
C	-1.6141005699	-0.1780317572	 2.0567104315	-0.069072
N	-2.035549702	 1.1280355626	 1.4698715095	-0.369791
C	-2.465743747	-0.1612725882	 0.8531318104	-0.06902
C	-1.3152502484	-0.7392219635	-0.0106082739	-0.137992
H	-0.6602777066	 1.779284336	 0.5065662147	 0.302174
H	 2.677002889	-1.5912118422	-1.9017962831	 0.191805
H	 0.1964061812	-1.5596316792	 1.624576236	 0.104712
H	-1.8456087298	-0.4157148693	 3.086393425	 0.107939
H	-2.8132778127	 1.4804734978	 2.025024399	 0.239844
H	-3.5167966188	-0.3828471345	 0.7245738783	 0.107938
H	-1.4739077587	-1.5262344861	-0.736353217	 0.104706
