19
gdb 122256	2.81219	0.87471	0.73428	1.0442	78.9	-0.2532	0.022	0.2751	1581.5303	0.155575	-422.954183	-422.944075	-422.943131	-422.990114	35.763	
C	 0.1524687118	 1.3070249485	-0.2477929561	-0.229124
O	-0.1111659021	-0.0449280879	 0.0394274125	-0.231922
C	 0.7414697594	-0.5690847135	 1.0332910174	-0.051981
C	 0.3684422658	-2.033328422	 1.2435714218	-0.296629
C	 1.2334329386	-2.7066373902	 2.2928797541	 0.197945
C	 1.6908134789	-4.0985752684	 2.0968344258	-0.213481
O	 2.5791217133	-3.0114136866	 1.8669686139	-0.26285
C	 1.1184563943	-2.2011872903	 3.6430723283	 0.317075
C	 0.9932954477	-1.7677410078	 4.7572819512	-0.444503
H	 1.1794557194	 1.4539662395	-0.6184106097	 0.105089
H	-0.5507004121	 1.6205149955	-1.0233406708	 0.126064
H	 0.0144500286	 1.9481035961	 0.6375649574	 0.103857
H	 1.7966694826	-0.4922224825	 0.7237753901	 0.102285
H	 0.6336890957	-0.0066664008	 1.9752243857	 0.098358
H	-0.6841692297	-2.0977794725	 1.5399831941	 0.118939
H	 0.4819641558	-2.5688702327	 0.2963879968	 0.116481
H	 1.9144822207	-4.7125153163	 2.9671867862	 0.124186
H	 1.3617756339	-4.6378240184	 1.2091926235	 0.118707
H	 0.8935763575	-1.3886207599	 5.7444852179	 0.201502
