17
gdb 110653	2.47572	1.42249	1.09541	1.4538	67.19	-0.2302	0.0521	0.2823	1121.8176	0.13374	-458.855293	-458.84688	-458.845936	-458.888588	32.186	
O	 0.0790061226	 1.3778113003	 0.4475562549	-0.424099
C	 0.1443151111	 0.0646646227	-0.102709546	-0.099435
C	-1.2435685953	-0.5843710817	-0.1320098957	-0.115903
C	-1.918579366	-1.3655237635	-1.2512402677	-0.197758
C	-0.9799105972	-2.4328846604	-1.8904704736	 0.027964
O	 0.3218482437	-2.3656614551	-1.275141032	-0.238068
C	-0.7339693458	-3.0600678524	-0.5991773448	-0.061136
C	-1.665043267	-2.0111407937	 0.1049526751	 0.331088
O	-2.6157954717	-2.3987327079	 1.0276862855	-0.452491
H	-0.3524355569	 1.9445618081	-0.1993532209	 0.28017
H	 0.5939898127	 0.072852132	-1.1007068491	 0.107107
H	 0.8191953487	-0.4946784626	 0.5496802427	 0.117638
H	-1.9762759927	 0.0676518321	 0.3441439136	 0.10379
H	-2.8609995214	-1.065292985	-1.6903323141	 0.102041
H	-1.038624188	-2.8433793484	-2.8906425312	 0.113715
H	-0.577500501	-4.0914544668	-0.3055489602	 0.113731
H	-2.2478323157	-2.2801798877	 1.9110136235	 0.291646
