15
gdb 24712	3.80193	1.60653	1.14558	1.0727	73.86	-0.2491	-0.0574	0.1917	996.3235	0.115935	-416.854819	-416.848137	-416.847193	-416.887641	24.83	
C	-0.0440123354	 1.4924799719	 0.092394803	-0.165011
O	 1.2512764125	 1.9253543728	-0.3333823676	-0.275697
C	 2.1161800668	 0.8228126957	-0.6211025855	-0.165011
C	 1.2780494317	-0.3999310457	-0.3878271187	 0.284602
N	 1.6302228624	-1.6691139112	-0.5362998984	-0.322756
C	 0.6578388527	-2.547455352	-0.2490113122	-0.029826
C	-0.6121322414	-2.1537598101	 0.1704520078	-0.029826
N	-0.9590101837	-0.8664424997	 0.3189070702	-0.322756
C	 0.0075465943	-0.0060706643	 0.0318117392	 0.284602
H	-0.249186616	 1.8571323753	 1.1089120201	 0.125051
H	-0.8140381069	 1.9085410499	-0.5717123563	 0.126396
H	 2.4740306191	 0.8892281889	-1.6577398368	 0.126396
H	 2.996251312	 0.8510350793	 0.0369652057	 0.125051
H	 0.900494303	-3.6007651408	-0.3569992704	 0.119393
H	-1.3732187641	-2.895906036	 0.3939936544	 0.119393
