19
gdb 16339	3.09026	1.82644	1.43902	2.6208	71.08	-0.2318	0.0702	0.302	950.6943	0.165805	-365.024247	-365.016157	-365.015212	-365.056631	30.878	
C	-0.2619045875	 1.5036013996	-0.1012896196	-0.375445
C	 0.0932819097	 0.0186997819	 0.0729168824	-0.327042
C	 0.8715368647	-0.5250007206	-1.0872379474	 0.346001
N	 0.2400233662	-0.8075734715	-2.4063371411	-0.39596
C	 0.995790886	-1.8785871903	-1.6958022793	-0.11888
C	 2.4604059291	-1.6576434763	-2.0667502952	-0.258905
C	 2.3317467984	-0.2003661855	-1.4725800367	 0.103417
O	 2.5197526688	 0.8926355953	-2.3275719326	-0.439542
H	 0.6385140059	 2.1016114939	-0.2696487628	 0.139111
H	-0.9194837924	 1.6512356598	-0.9639415479	 0.119319
H	-0.7727335374	 1.8921121385	 0.7846100082	 0.111368
H	 0.6844742533	-0.1125448569	 0.9884561477	 0.105405
H	-0.8209171231	-0.5745371786	 0.211102308	 0.093114
H	-0.752902551	-0.9651572616	-2.2356574669	 0.226142
H	 0.5015468604	-2.8030239825	-1.4217767447	 0.092941
H	 3.1579358399	-2.2808376335	-1.5021824642	 0.1015
H	 2.693108953	-1.7103555793	-3.1333185607	 0.103914
H	 2.9794274602	-0.0488315625	-0.6052368086	 0.085814
H	 1.8313956656	 0.8038260601	-3.0017999485	 0.287729
