17
gdb 66137	2.63568	1.43717	1.41964	1.4315	67.67	-0.2473	-0.0369	0.2103	1014.9437	0.133841	-458.95364	-458.945263	-458.944319	-458.987041	30.763	
C	 0.1847386914	 1.5350708816	-0.2153364641	-0.435237
C	 0.0183496294	 0.0182110193	-0.0989376879	 0.259
O	 0.7469464723	-0.5939214349	-1.170101457	-0.304272
C	 1.366815764	-1.8042988904	-0.7336371755	-0.122394
C	 1.4460878976	-1.7037728523	 0.77229762	 0.030686
O	 2.0242649794	-0.4716211907	 1.2215523185	-0.257274
C	 0.6000482597	-0.5804165276	 1.1729197937	-0.011124
C	-1.4652581257	-0.3412876344	-0.2205923459	 0.118026
O	-2.2411016395	-0.3365965916	 0.699771871	-0.254395
H	 1.2407277314	 1.7821374848	-0.0860050904	 0.14906
H	-0.1404806607	 1.8797989653	-1.2008065225	 0.131847
H	-0.4078184399	 2.0437117891	 0.5499785337	 0.134784
H	 0.773391269	-2.6881382077	-1.015360125	 0.104012
H	 2.3455761045	-1.871905867	-1.2194425275	 0.125922
H	 1.6273289969	-2.5794412706	 1.3885460594	 0.111338
H	 0.0558772988	-0.5129633565	 2.1083117931	 0.124265
H	-1.7712177987	-0.5990998763	-1.2595404238	 0.095757
