21
gdb 87487	2.91831	1.35106	1.10729	1.8486	83.56	-0.2296	0.0819	0.3115	1195.9341	0.181132	-387.001699	-386.992946	-386.992001	-387.034696	34.204	
C	-0.1401887986	 1.57790297	 0.027469654	-0.403777
C	-0.0433776838	 0.0681672527	 0.0009042477	-0.107044
C	 1.2755240826	-0.6145073446	-0.3536979551	-0.391506
C	 0.7273727645	-0.6691193113	 1.0355771152	 0.460089
C	 1.2050703718	-0.2588037528	 2.4378437411	-0.07083
O	-0.1179132786	-0.6920458577	 2.955792801	-0.311758
C	 0.3152186231	-1.7672412308	 2.0260138941	-0.074455
C	 1.7208007102	-1.7075815501	 2.6980931058	 0.050536
C	 2.9768617653	-2.276032396	 2.0609722831	-0.442925
H	 0.7914807503	 2.0254793016	 0.38978899	 0.109543
H	-0.3354561038	 1.9823908998	-0.9717457359	 0.114992
H	-0.9462760865	 1.9081879224	 0.6909624858	 0.128295
H	-0.9352900018	-0.4347346698	-0.3672099951	 0.086568
H	 1.2467260029	-1.5113039267	-0.9652173871	 0.112428
H	 2.1343743286	 0.0231500993	-0.544989447	 0.111903
H	 1.596659853	 0.6951588787	 2.7942893649	 0.089162
H	-0.3584024973	-2.6145713099	 1.8870444967	 0.088229
H	 1.6489883656	-1.9538423599	 3.7612239843	 0.08005
H	 3.057103334	-2.0329134997	 1.0002138748	 0.131298
H	 3.8688092397	-1.889725715	 2.5663896342	 0.119505
H	 2.9945428187	-3.3668362301	 2.1615021073	 0.119696
