17
gdb 38049	3.33764	1.78516	1.70601	1.9643	76.28	-0.2301	0.0011	0.2312	867.6506	0.137588	-384.606052	-384.59986	-384.598916	-384.636085	26.966	
C	-0.0470389154	 1.5378880687	-0.0446282822	-0.404843
C	 1.4521243545	 1.9056340299	 0.0586670272	-0.044725
C	 2.2168516647	 0.9510302381	 0.6219950797	-0.150642
C	 1.2782082038	-0.1312016057	 1.0960454094	-0.012277
C	 0.8317526711	-1.6226372281	 0.8214999814	-0.073837
O	-0.5551664317	-1.0783720186	 0.7729686062	-0.363228
C	 0.1405545715	 0.0382853162	 0.0874898987	 0.417608
C	 0.6765533728	-0.6868350838	-1.1688077958	-0.124917
C	 1.1422964805	-1.8250537971	-0.6597709768	-0.071003
H	-0.6124547682	 1.9730656442	 0.7891654802	 0.125116
H	-0.50614197	 1.8728882143	-0.9797700017	 0.108246
H	 1.8165301468	 2.8727597543	-0.2711389526	 0.100167
H	 3.2780276489	 1.0435252476	 0.8203720019	 0.099553
H	 0.9332249167	 0.10453082	 2.1110258561	 0.099658
H	 0.953143888	-2.4294048014	 1.542634211	 0.080333
H	 0.6480959561	-0.3119657884	-2.181559507	 0.105064
H	 1.6217811299	-2.6768180001	-1.1181531559	 0.109729
