13
gdb 125792	3.5663	1.65553	1.13865	1.8338	64.94	-0.2493	-0.0231	0.2263	983.0871	0.09069	-452.736378	-452.729707	-452.728762	-452.767569	25.044	
C	-0.0141045505	 1.5219725975	-0.0187437268	-0.499639
C	-0.0073478038	 0.0318359337	 0.0594927525	 0.277686
N	-0.043743885	-0.6728551276	-1.0581445253	-0.20662
O	-0.0278415602	-2.0789701504	-0.6947784532	-0.24358
C	 0.017568342	-2.069024718	 0.6174287495	 0.483594
C	 0.033945936	-0.8405243457	 1.1858606137	 0.065317
N	 0.0820474776	-0.9989571516	 2.5703743517	-0.329193
C	 0.0910986714	-2.2805736804	 2.7185401699	 0.037229
O	 0.0517446554	-3.0386853476	 1.5387880201	-0.20841
H	 0.8848454957	 1.9337671649	 0.4504760523	 0.150776
H	-0.0528290174	 1.8446493712	-1.0604019131	 0.156272
H	-0.8786095591	 1.9291845604	 0.5147620613	 0.150755
H	 0.1240855378	-2.8595739264	 3.6271212772	 0.165813
