18
gdb 90360	2.40484	1.55023	1.31668	3.6687	73.57	-0.2553	0.03	0.2853	1057.9189	0.146748	-439.070355	-439.061811	-439.060867	-439.103451	32.474	
C	 0.1495783048	 1.6199353466	-0.0767729793	-0.486365
C	 0.125919382	 0.126170356	 0.0839340482	 0.427649
O	-1.2064926095	-0.3607169932	 0.4601846832	-0.286239
C	-0.7059271032	-1.0309583085	 1.5618568624	 0.43734
N	-1.2994145675	-1.6637183812	 2.4673599778	-0.557474
C	 0.7347801993	-0.7293650404	 1.2428667628	-0.224845
C	 1.2961545296	-1.738680559	 0.189705018	-0.284523
C	 0.7956065613	-0.8027862298	-0.9578467525	 0.0821
O	-0.0909317421	-1.3009560109	-1.9214698623	-0.424533
H	 1.1678561824	 1.9723200032	-0.2673509053	 0.121787
H	-0.4800416768	 1.9162888931	-0.922537497	 0.143621
H	-0.2287472954	 2.1143124261	 0.8224630779	 0.13274
H	-2.3100855309	-1.6612292005	 2.317205921	 0.226843
H	 1.3887054106	-0.3602001242	 2.0290697295	 0.099618
H	 2.3796814971	-1.8664440249	 0.2233708464	 0.107219
H	 0.8158515294	-2.7183941786	 0.2172341163	 0.125169
H	 1.6436421731	-0.2742655053	-1.4198249442	 0.070698
H	 0.4032977358	-1.8576214388	-2.5314956232	 0.289195
