12
gdb 25355	7.17629	0.87304	0.77835	0.8113	73.45	-0.2753	-0.0846	0.1907	1318.8503	0.078181	-435.537699	-435.530411	-435.529466	-435.569979	25.837	
O	 0.0093421296	-0.0815562967	-0.0014745313	-0.261623
C	-0.0105357944	 1.1257551166	 0.0085425823	 0.077452
C	 1.1717389155	 1.9820161957	 0.0029557201	 0.291703
C	 1.2983963326	 3.3424903749	 0.0126047111	-0.368572
C	 2.7032424174	 3.6127814301	-0.0000135332	 0.153812
C	 3.3165757026	 2.383029067	-0.0164916278	-0.071036
O	 2.4113468372	 1.4006200927	-0.0149082808	-0.14227
C	 3.3449963627	 4.8765440103	 0.0034717982	 0.20871
N	 3.860618073	 5.9126521505	 0.0064370489	-0.324657
H	-0.9572423726	 1.706376315	 0.0232424312	 0.094176
H	 0.4998908323	 4.0671694866	 0.0269100659	 0.159309
H	 4.3542135941	 2.0911058473	-0.0298306047	 0.182996
