19
gdb 38484	3.28836	1.68558	1.53939	1.8616	77.14	-0.2189	0.0721	0.291	937.9646	0.161511	-385.839104	-385.832382	-385.831438	-385.869724	28.564	
C	-0.0099081887	 1.385156988	-0.0152583711	-0.365063
C	 1.3369585588	 0.7270990199	-0.0636006294	 0.253235
C	 1.7408549427	 0.1939881259	 1.3265017044	-0.278892
C	 0.4451530344	-0.6886032279	 1.3544201267	-0.291872
C	 0.0494739642	-0.1193307799	-0.0172667141	 0.245233
C	-0.0388308441	-0.8525590215	-1.3266135036	-0.062427
O	-0.1509952498	 0.02364137	-2.4552435002	-0.252073
C	 1.1485083267	-0.5032259055	-2.148376817	 0.050817
C	 2.0594887567	 0.4688942637	-1.3821981929	-0.344207
H	-0.3203455822	 1.9004542378	 0.8910483203	 0.101968
H	-0.3572476479	 1.8300660958	-0.9387650499	 0.136945
H	 2.6535936904	-0.4065338631	 1.3055707036	 0.101025
H	 1.8425225491	 0.9460148143	 2.1161847726	 0.098185
H	 0.6740823303	-1.7569782072	 1.3237282559	 0.10342
H	-0.2644093881	-0.5133514398	 2.1696791537	 0.098899
H	-0.5632095807	-1.8015084014	-1.4143750494	 0.092218
H	 1.5650560349	-1.1494465697	-2.920097614	 0.091869
H	 2.2514251724	 1.3711993123	-1.9728487115	 0.116755
H	 3.027788661	-0.0117612317	-1.2014715538	 0.103964
