25
gdb 117635	2.6415	0.92581	0.82774	2.5295	89.3	-0.236	-0.0076	0.2284	1583.4032	0.225111	-389.52593	-389.514157	-389.513212	-389.563226	42.743	
C	-0.0926000587	 1.6397856624	 0.1035089091	-0.375705
C	 0.0228929617	 0.1167566622	-0.0228154311	-0.198717
C	-1.3484407841	-0.5673335292	 0.0423323633	-0.165254
C	-1.3604533871	-2.1137393235	-0.0238743704	 0.134363
C	-0.6741704655	-2.6195377168	-1.3166112245	-0.419196
C	-0.6642554225	-2.7292107706	 1.2056612334	-0.430015
C	-2.8346868386	-2.5808385915	-0.1079327764	 0.380765
C	-3.1617819311	-4.0264309234	 0.2431953357	-0.484916
O	-3.7159065657	-1.8303918435	-0.4611971114	-0.311255
H	 0.8892829475	 2.1203208118	 0.0483753721	 0.108273
H	-0.7146187014	 2.0569929441	-0.6960485693	 0.116903
H	-0.5504604329	 1.9240249305	 1.0574843379	 0.11422
H	 0.5209705601	-0.125370658	-0.9692405275	 0.09685
H	 0.6792882046	-0.257255589	 0.7726789939	 0.093136
H	-1.8526959441	-0.2625275264	 0.9690990485	 0.09019
H	-1.9800418777	-0.1892898966	-0.7672910021	 0.11426
H	 0.3933612953	-2.3823100451	-1.3024158358	 0.123415
H	-0.7633956456	-3.7052414297	-1.4233190429	 0.11284
H	-1.1160734381	-2.1547191931	-2.203433472	 0.12771
H	-1.1525305781	-2.4222217537	 2.1370392172	 0.116796
H	-0.6592277715	-3.8219974115	 1.1698534999	 0.113859
H	 0.3791121861	-2.4052637713	 1.2566637189	 0.122409
H	-3.1435522879	-4.1542243819	 1.3314340484	 0.145076
H	-4.1643867021	-4.2578181127	-0.1184155965	 0.140598
H	-2.4401904527	-4.7345208736	-0.1734213486	 0.133395
