20
gdb 56265	5.3708	0.55053	0.53586	3.8115	76.77	-0.245	0.0331	0.278	2044.9601	0.169197	-440.300936	-440.290528	-440.289584	-440.338535	35.841	
N	-0.0457267861	 1.1445822975	-0.5696885756	-0.521846
C	 0.1187776475	-0.1281408138	-0.1034267475	 0.408343
O	 1.2173863499	-0.6034893123	 0.1097295515	-0.359375
C	-1.1781241587	-0.8900019732	 0.1699185809	-0.314722
C	-1.0226805297	-2.3930516217	-0.0740123466	-0.161072
C	-2.2286097752	-3.2070958042	 0.4094752401	-0.230115
C	-2.0672717915	-4.6818103827	 0.1329117633	 0.101027
C	-3.2001382708	-5.5518683736	-0.2029354619	-0.18213
O	-2.2961800538	-5.1064144815	-1.2154779837	-0.236683
H	 0.7773798153	 1.689426509	-0.7683359484	 0.259745
H	-0.9451092506	 1.5174492109	-0.8154512013	 0.256545
H	-1.4352924594	-0.7095996536	 1.2231496064	 0.126862
H	-2.0042506184	-0.4787194071	-0.4229118221	 0.095228
H	-0.8702862912	-2.579147725	-1.1433569648	 0.118433
H	-0.1094732164	-2.7254609925	 0.4299634164	 0.127773
H	-2.367419906	-3.0614742546	 1.4899127356	 0.098649
H	-3.1461964977	-2.858170028	-0.0805189699	 0.097993
H	-1.1933152119	-5.1481866979	 0.5930197736	 0.092977
H	-3.1584608876	-6.6154721847	 0.0286430109	 0.113207
H	-4.2032695577	-5.1291262408	-0.2533759069	 0.109159
