19
gdb 120083	4.36142	1.0676	0.98895	2.2123	76.12	-0.211	0.0693	0.2803	1236.5182	0.159563	-419.068869	-419.060909	-419.059965	-419.101729	30.75	
O	 0.1285547531	 1.4007263378	 0.1083514425	-0.416146
C	 0.1566207289	-0.0099012474	-0.0829587306	-0.074667
C	-1.2705983698	-0.5287794239	-0.0083025916	-0.134584
N	-2.0437571586	-0.1220853063	-1.1806239954	-0.130491
C	-2.6523573753	 1.2452487522	-1.1335943416	-0.020152
C	-3.8334570478	 0.8007109876	-2.0509626812	-0.036869
N	-4.9307225534	 1.2975654365	-1.1592911608	-0.351492
C	-3.8661026133	 0.8454422673	-0.2055448829	-0.045663
C	-3.5103116606	-0.3890682883	-1.1075112726	-0.004805
H	 1.0076462039	 1.7463792694	-0.0699189324	 0.287812
H	 0.5767479827	-0.2703384962	-1.0650253193	 0.097459
H	 0.7639803134	-0.499820902	 0.6944200884	 0.082737
H	-1.2384298734	-1.6253063933	 0.0085701981	 0.098212
H	-1.7140024817	-0.1968877257	 0.9470019436	 0.089835
H	-2.0627878052	 2.1607032059	-1.1466260481	 0.092034
H	-3.8824754639	 0.7950534801	-3.1395008379	 0.086953
H	-4.9633456574	 2.3204700392	-1.1843183603	 0.207485
H	-3.9827826688	 0.9142726189	 0.8761551266	 0.08593
H	-3.9480572629	-1.3880582318	-1.1010712346	 0.086412
