18
gdb 36456	3.60663	1.00675	0.86885	5.6367	76.83	-0.2613	0.0319	0.2933	1332.9611	0.147215	-401.926555	-401.917941	-401.916997	-401.960622	31.483	
N	 0.0579486941	-1.1525495056	-0.4409253469	-0.301183
C	 0.0209057437	-0.0071639953	-0.2948735436	 0.267884
C	-0.0211048368	 1.4390763699	-0.0918777857	-0.358324
C	 1.368918654	 2.0350921876	 0.1645859519	 0.071674
O	 2.2129470267	 1.9632533159	-1.0008954813	-0.288208
C	 2.3909756379	 3.3995282854	-1.0385499883	-0.135468
C	 1.4804085258	 3.5603416547	 0.1741983767	 0.282248
C	 0.4217781608	 4.5917052652	 0.4234673042	-0.327414
C	 1.6206985562	 4.4866622271	 1.3394208331	-0.320208
H	-0.4645782871	 1.9155682917	-0.9720211603	 0.155532
H	-0.6732986141	 1.6519328844	 0.7638961605	 0.148619
H	 1.8336883034	 1.5324109369	 1.0232847053	 0.097735
H	 3.4401335435	 3.6830736144	-0.8880430161	 0.110615
H	 2.0310454953	 3.831638487	-1.9806864549	 0.109257
H	 0.3667700533	 5.4342962276	-0.258547114	 0.12357
H	-0.5415254907	 4.2680089206	 0.804794348	 0.11934
H	 1.4680263132	 4.0820614339	 2.3351428084	 0.121722
H	 2.3797008809	 5.2604720286	 1.2847101829	 0.122609
