17
gdb 24050	6.63232	0.73846	0.69301	0.8291	81.97	-0.2188	0.0146	0.2334	1582.0518	0.135572	-384.689154	-384.680635	-384.67969	-384.723351	31.318	
C	 0.003040473	-1.2142080564	-0.1791537378	-0.442191
C	-0.0271962362	-0.0129162827	-0.1479197234	 0.296913
C	-0.0234837419	 1.4430080903	-0.100306266	-0.348217
C	 1.387796203	 2.0254774698	 0.1761196702	-0.311282
C	 1.3989591939	 3.5129875316	 0.2166860248	 0.372622
C	 1.6568817455	 4.4260914143	 1.1926189374	-0.280129
C	 1.4883499143	 5.7211783014	 0.5998009449	-0.167907
C	 1.1376221866	 5.4974336068	-0.6914505521	-0.020386
O	 1.0779005707	 4.1611140036	-0.9433350527	-0.181568
H	 0.0136866799	-2.2753132974	-0.2115803028	 0.194661
H	-0.394737096	 1.8489706605	-1.0481961279	 0.145692
H	-0.7140869485	 1.7930972035	 0.6764790708	 0.135351
H	 1.7566759597	 1.647770585	 1.133408465	 0.126606
H	 2.0728615644	 1.6596979392	-0.5975912959	 0.129465
H	 1.9369311745	 4.2045606837	 2.2107809804	 0.107631
H	 1.6140988932	 6.6815684813	 1.0744197818	 0.110939
H	 0.9077895239	 6.1405029356	-1.5247870967	 0.1318
