16
gdb 27897	1.9973	1.85549	0.96806	1.6825	76.2	-0.2288	-0.0026	0.2262	1167.8015	0.125905	-434.160089	-434.151784	-434.15084	-434.193533	31.258	
C	-0.0063467339	 1.4445506864	-0.011073204	-0.457209
C	 0.0347486535	-0.0590394196	 0.0031015653	 0.350162
N	 0.0971783343	-0.6669103988	-1.1891169625	-0.400108
C	 0.1359011677	-1.9989952565	-1.1636251985	 0.438382
O	 0.1960489003	-2.6304259664	-2.3492970966	-0.416493
C	 0.1162660174	-2.7473271385	 0.0040062935	-0.309277
C	 0.0509334634	-2.0079822878	 1.1879883284	 0.405872
N	 0.0664076886	-2.6034168936	 2.4192340702	-0.567401
N	 0.0060554399	-0.6607464087	 1.1894298822	-0.360829
H	 0.9104438523	 1.8412952529	-0.459530562	 0.137538
H	-0.8393202609	 1.7948212314	-0.6282565817	 0.135824
H	-0.1098295507	 1.8318113047	 1.0024961763	 0.13176
H	 0.2003974995	-1.9299278605	-3.0174315492	 0.297328
H	 0.1545848736	-3.828469611	-0.0167579674	 0.097828
H	-0.190795753	-3.5733263998	 2.4910997401	 0.256671
H	-0.1986609821	-2.009316294	 3.188636686	 0.259953
