15
gdb 149	11.92252	3.07744	2.77702	0.095	52.9	-0.2723	0.0986	0.3709	514.3053	0.137725	-196.40532	-196.399392	-196.398448	-196.434166	21.364	
C	 0.1523109297	 1.4792047744	 0.1084939203	-0.369694
C	-0.1648107895	-0.0017525401	-0.127743154	-0.187476
C	 0.5826050755	-0.5865867173	-1.3080946629	 0.054855
C	 1.9882595853	-1.1078871699	-1.1388500777	-0.254122
C	 0.8497792235	-2.0667655777	-1.3951034368	-0.274098
H	 1.2207143171	 1.6269312144	 0.297567467	 0.1169
H	-0.1143763408	 2.0835523866	-0.7657223833	 0.112233
H	-0.400830387	 1.8741898179	 0.9665278778	 0.108518
H	 0.0819498889	-0.5792424723	 0.7729855292	 0.090324
H	-1.245196341	-0.1259050848	-0.2806764896	 0.094811
H	 0.3786099457	-0.0887850521	-2.2538720463	 0.076887
H	 2.708447899	-0.9381205772	-1.9317081811	 0.107848
H	 2.4164053818	-1.088711473	-0.1414114299	 0.107334
H	 0.518015036	-2.6895310598	-0.570310384	 0.107649
H	 0.7908821959	-2.5499501091	-2.3642880386	 0.108032
