16
gdb 1480	4.80946	1.58999	1.39529	4.2236	58.51	-0.2446	0.0375	0.2821	888.8399	0.135832	-362.938898	-362.930544	-362.9296	-362.972383	28.787	
C	 0.0121663811	 1.7027424143	-0.1159648582	-0.387491
C	 0.0139553139	 0.172116193	-0.0052137981	 0.052911
C	 0.6629820607	-0.498521456	-1.2146109401	-0.093038
O	 2.044639888	-0.1506965654	-1.2039881338	-0.427118
N	 0.703248685	-0.2811415875	 1.1973102427	-0.273152
C	 0.0639868861	-0.5777579973	 2.3552910564	 0.155969
O	-1.136932648	-0.5197898036	 2.5279067143	-0.334175
H	 1.0316753375	 2.0840730919	-0.2174647363	 0.128907
H	-0.5628398158	 2.0238274582	-0.9909072391	 0.112518
H	-0.4440586686	 2.1418705567	 0.7743905355	 0.134192
H	-1.0165990236	-0.1838324886	 0.0804838324	 0.116951
H	 0.5313777768	-1.5877512906	-1.1431234454	 0.098683
H	 0.1706191172	-0.1514124808	-2.1350159708	 0.095844
H	 2.4876385871	-0.6295502126	-1.9097157315	 0.294941
H	 1.7090614026	-0.3366513726	 1.1503445119	 0.253657
H	 0.7724755099	-0.8940714789	 3.1472947901	 0.070402
