20
gdb 12877	2.62033	2.13448	1.73147	1.2431	74.2	-0.2405	0.0712	0.3117	894.1393	0.178157	-349.008232	-349.000254	-348.99931	-349.039887	31.214	
C	 0.1291912016	 1.5525986904	-0.0902143594	-0.478649
C	-0.0383882645	 0.0568549718	 0.0492934887	 0.308764
C	-1.4533711844	-0.5091597897	-0.0661926179	-0.252322
C	-1.4536304368	-1.8726412748	 0.6632983745	-0.208793
C	-0.2688418108	-1.815455568	 1.6595170716	-0.220802
C	 0.6907200558	-0.7709680369	 1.1069269468	-0.133472
C	 1.0910937767	-0.8492199895	-0.3509891754	 0.050559
O	 0.8321514945	-1.9710366059	-1.1510814279	-0.420302
H	 1.1710203148	 1.8565907807	 0.0531692498	 0.110644
H	-0.1805909284	 1.895625854	-1.0847850228	 0.118047
H	-0.4784914622	 2.0890038483	 0.6483562237	 0.112468
H	-2.138589871	 0.1938388225	 0.423954814	 0.090655
H	-1.7820664641	-0.6025290583	-1.1066311162	 0.102269
H	-2.4035342388	-2.0667419651	 1.1697870804	 0.08676
H	-1.2932472849	-2.6742885184	-0.0578287402	 0.113754
H	-0.6065064541	-1.4897080368	 2.6504769575	 0.097841
H	 0.1970849112	-2.7985804702	 1.7962479199	 0.086895
H	 1.394610032	-0.3075540782	 1.7924899868	 0.072425
H	 2.0219601049	-0.3393489016	-0.6056243253	 0.076533
H	 1.4297647184	-2.6748477641	-0.8774345187	 0.286725
