16
gdb 44181	5.30594	1.01263	0.93506	3.161	75.94	-0.2286	-0.028	0.2006	1219.5872	0.123298	-400.682837	-400.67482	-400.673876	-400.715701	30.414	
O	 0.3689460295	 0.4652534346	-1.1751335226	-0.292696
C	 0.1611625079	 1.3418466662	-0.3917172881	 0.447601
C	-1.1199169346	 1.8969945603	 0.2816087966	-0.379944
C	-0.2846781678	 3.0962092769	 0.8151735869	-0.043021
C	 0.3097349192	 2.9003363497	 2.2414097853	-0.150516
N	 1.3564205628	 2.0075199249	 1.6579038912	-0.325349
C	 1.0288861209	 2.4345268215	 0.2688456978	-0.132903
C	 0.8204238351	 4.1184950076	 2.8498826327	 0.309525
C	 1.2696537373	 5.1190069934	 3.3441572062	-0.440981
H	-1.8938477823	 2.1612455372	-0.4449839538	 0.134044
H	-1.5647186462	 1.2453361089	 1.0389666682	 0.136108
H	-0.6160048702	 4.0937465405	 0.5409308006	 0.099259
H	-0.3447027876	 2.3775204651	 2.9501433098	 0.107447
H	 2.3009098137	 2.2188488402	 1.9556974457	 0.237163
H	 1.8133344864	 2.9335235399	-0.3039685978	 0.091015
H	 1.6587577659	 6.0013717329	 3.7893722613	 0.20325
