17
gdb 110549	3.6616	1.42896	1.37972	1.372	65.89	-0.2354	0.0826	0.318	989.9451	0.137092	-458.926986	-458.919941	-458.918997	-458.958786	27.385	
C	-0.0931189072	 1.3624681543	-0.0309366814	-0.240529
O	 0.1595678388	-0.0224749386	 0.0740179105	-0.248917
C	 0.7185526368	-0.5839457196	-1.0798896324	 0.168719
C	 1.0452530609	-2.0511302242	-0.876063473	-0.233217
C	-0.2324990049	-2.7724165916	-1.2916359884	 0.053264
O	-1.1799943108	-1.8026577221	-1.6984943547	-0.236019
C	-0.279232923	-0.8625120664	-2.2522601322	 0.083715
O	 0.5297462481	-1.6051274088	-3.1588274461	-0.250838
C	 0.9086542527	-2.6459717714	-2.2683468426	 0.03681
H	 0.8204740513	 1.9228091132	-0.2834623495	 0.107147
H	-0.8591534472	 1.5917922571	-0.7858547042	 0.109993
H	-0.455024326	 1.6968287554	 0.9438056994	 0.132254
H	 1.5763929621	 0.0000116375	-1.4436737834	 0.076874
H	 1.7277034759	-2.4115460326	-0.1208054278	 0.1054
H	-0.6414332097	-3.6744695754	-0.8630019818	 0.11755
H	-0.8013640975	-0.0526837631	-2.7528471935	 0.099679
H	 1.5007147599	-3.4365653837	-2.704071629	 0.118116
