22
gdb 117558	2.2709	0.96466	0.71613	3.9381	87.01	-0.296	0.0362	0.3322	1644.6171	0.193458	-367.225867	-367.215633	-367.214688	-367.2619	36.868	
C	-0.1547489338	 1.5332184229	 0.106872363	-0.382662
C	-0.0096138531	 0.0126105312	 0.0037543456	-0.185068
C	 0.7061174638	-0.5938043082	 1.2144568436	-0.172434
C	 0.8667241604	-2.1304169504	 1.1530061517	-0.177136
C	 1.6711391989	-2.5265835148	-0.0121911584	 0.288516
N	 2.3166901814	-2.8277257616	-0.9227449341	-0.336781
C	 1.4746407194	-2.6997344019	 2.4291095541	 0.031009
C	 0.5838770074	-3.0048284422	 3.6059838077	-0.279783
C	 1.2213122239	-4.1289568432	 2.8262911026	-0.269765
H	 0.8243767259	 2.0204491747	 0.1701190929	 0.119316
H	-0.6726475629	 1.9409295316	-0.7663044718	 0.11796
H	-0.7254151622	 1.819859728	 0.9972846549	 0.113989
H	-1.0026795902	-0.4456106712	-0.0962336161	 0.096142
H	 0.5396212287	-0.2444055564	-0.909664599	 0.125179
H	 1.698811774	-0.1402425764	 1.3262524448	 0.110876
H	 0.1519170153	-0.3640400458	 2.1321213592	 0.106311
H	-0.1281562089	-2.5768077283	 1.0168302633	 0.116274
H	 2.460126851	-2.3024871159	 2.6547643714	 0.100479
H	 0.9561012246	-2.7860695933	 4.6003211842	 0.119992
H	-0.4843312677	-2.8504808537	 3.4899946085	 0.114632
H	 0.5822239223	-4.7271814456	 2.1852466914	 0.120609
H	 2.0318921922	-4.6837632995	 3.2842479405	 0.122343
