20
gdb 63278	2.08844	1.68365	1.28873	2.959	80.84	-0.2512	0.0301	0.2813	1106.1844	0.169305	-403.152283	-403.14311	-403.142166	-403.185688	35.148	
C	-0.2793064004	 1.5436994765	 0.1493175711	-0.430108
C	-0.0026284103	 0.0535145733	 0.0615468362	 0.344611
C	-1.1582561641	-0.7455771371	-0.513681155	-0.430104
O	 1.2278961195	-0.1861410013	-0.7422612447	-0.319739
C	 1.8828702166	-0.7492301007	 0.3331177086	 0.391578
N	 3.0406645459	-1.2245983115	 0.4392176584	-0.569516
C	 0.7333671225	-0.5754736852	 1.2577461492	 0.162216
C	 0.7826607974	-0.1789163002	 2.7057467704	-0.324653
C	 0.261957514	-1.534787029	 2.3131470347	-0.324651
H	 0.5916660191	 2.0778899957	 0.536765317	 0.130903
H	-0.524517427	 1.9461502145	-0.838437493	 0.128319
H	-1.1281250649	 1.7369526984	 0.8139164285	 0.119339
H	-1.4173112993	-0.3792773757	-1.5119152842	 0.128322
H	-0.8989672057	-1.8045267291	-0.5875856985	 0.130903
H	-2.0444011785	-0.6494770508	 0.1227489426	 0.119341
H	 3.551091068	-1.1651736067	-0.4427568703	 0.224382
H	 1.7649994069	-0.1146651567	 3.1604824198	 0.140524
H	 0.0687911966	 0.5634019397	 3.0474992109	 0.118907
H	-0.8056705394	-1.7136273947	 2.3881588884	 0.118903
H	 0.8867603229	-2.4015274394	 2.4983072499	 0.140523
