19
gdb 59929	2.18025	1.07947	0.8664	1.2342	84.32	-0.2626	0.0103	0.273	1436.1635	0.153863	-385.807257	-385.796562	-385.795617	-385.843506	38.666	
C	-0.4502238734	 1.3301719342	-0.0727902542	-0.394695
C	 0.0650156587	-0.1094887291	-0.0136432268	 0.160349
C	 1.0505249466	-0.4193587019	-1.1335940963	-0.393822
O	 0.7736745507	-0.3569976826	 1.2104306121	-0.260837
C	-0.0452680423	-0.6007911824	 2.3442288162	-0.228636
C	-0.7617057386	-1.8869747042	 2.2537501503	 0.348659
C	-1.3586954155	-2.925244308	 2.160842825	-0.470625
C	 0.802693807	-0.5535924824	 3.5387072412	 0.314369
C	 1.4752800092	-0.5004971021	 4.5309440836	-0.412022
H	 0.3846245008	 2.0344970539	-0.0035033719	 0.12645
H	-0.9765463134	 1.5061426528	-1.0163843186	 0.11742
H	-1.1517549862	 1.5502274469	 0.737894854	 0.116057
H	-0.7826362609	-0.8068024204	-0.0783834186	 0.083436
H	 1.9255330732	 0.2342729068	-1.0605272306	 0.125417
H	 1.3901009751	-1.4557813261	-1.0661747549	 0.126824
H	 0.5830723326	-0.2646384214	-2.110581761	 0.112752
H	-0.8032852469	 0.1943652858	 2.4425910595	 0.123847
H	-1.8791810435	-3.8484122152	 2.0878557075	 0.203945
H	 2.0772412468	-0.4595120745	 5.4050238635	 0.201115
