19
gdb 94952	3.36832	1.33742	1.13663	3.5043	74.58	-0.2289	-0.0335	0.1954	1116.7236	0.159379	-423.03869	-423.030562	-423.029618	-423.071847	31.08	
C	 0.0814015592	 1.4746863503	-0.1878173217	-0.406321
C	-0.0447942555	-0.034814536	 0.0469176983	 0.007192
C	 0.7505574424	-0.8412015863	-1.0041699879	-0.109562
O	 2.0929556548	-0.8857666963	-0.5168947568	-0.248048
C	 2.0083259008	-1.0444324492	 0.8792824784	-0.000577
C	 0.6314627916	-0.4663754335	 1.365123872	-0.051539
C	 0.2219613078	-1.8512925654	 1.9488561786	-0.386225
C	 1.5275277629	-2.4449925406	 1.3857184605	 0.377994
O	 1.9802296488	-3.5487062038	 1.3230985536	-0.283553
H	 1.1341791955	 1.7736530536	-0.2226768251	 0.131907
H	-0.3815247545	 1.765549184	-1.1363149805	 0.115664
H	-0.4052965956	 2.0421308948	 0.6117747313	 0.115317
H	-1.1009480967	-0.3241315563	 0.0330099795	 0.078212
H	 0.3479813315	-1.860107575	-1.112534692	 0.100914
H	 0.773519098	-0.3735140588	-1.9915158884	 0.114035
H	 2.9357620082	-0.6883665097	 1.3355961365	 0.102395
H	 0.6722783915	 0.3409262809	 2.0963406822	 0.078769
H	 0.1724753261	-1.8934275729	 3.0413861119	 0.134544
H	-0.6919753667	-2.30358354	 1.5496207796	 0.128881
