19
gdb 107962	2.70323	1.37947	1.30714	1.9312	75.65	-0.2265	0.069	0.2955	1088.9801	0.157457	-422.934713	-422.926092	-422.925147	-422.967865	32.825	
C	 0.025828535	 1.4449751421	-0.0947404423	-0.527671
C	-0.0120400255	-0.0476617729	-0.0138155159	 0.414399
O	 0.541103546	-0.8342188191	-1.1202385376	-0.364965
C	 0.0730552616	-1.8282602514	-0.1604322772	 0.054108
C	 0.5048422353	-1.0242711754	 1.0982507292	-0.140877
C	-0.8953439167	-1.1465193249	 1.7395200649	-0.32804
C	-1.2126514957	-1.0344773194	 0.2323044764	 0.294556
C	-2.5204269936	-1.0501720062	-0.495778361	-0.232488
O	-3.145309256	-2.3046856638	-0.2510194834	-0.422049
H	 1.0593848332	 1.7962726393	-0.1715856381	 0.137184
H	-0.5237332176	 1.8000531858	-0.972140199	 0.133327
H	-0.4243174703	 1.8867729324	 0.7998960714	 0.128931
H	 0.1916279787	-2.8845806963	-0.3965009326	 0.09657
H	 1.4920722771	-1.0168749016	 1.5604690039	 0.078924
H	-1.1352465701	-2.1014905352	 2.2128137337	 0.108952
H	-1.2198198199	-0.3149590005	 2.3725308288	 0.093348
H	-3.1529268633	-0.2155596352	-0.1508719652	 0.085774
H	-2.3211797729	-0.8980532794	-1.5685186218	 0.10116
H	-3.9717139953	-2.3271622484	-0.7424694541	 0.288856
