19
gdb 109650	1.99721	1.39493	1.03535	2.7519	74.45	-0.2561	-0.0358	0.2203	1228.9728	0.157157	-460.157622	-460.147938	-460.146994	-460.192135	35.572	
C	 0.0582628906	 1.5651204383	 0.2270839721	-0.413783
C	 0.0079654172	 0.0704834813	-0.0060000405	-0.101344
C	 0.4742234307	-0.6025341907	-1.2721439893	-0.127037
C	 1.1001787193	 0.1501073269	-2.4364063367	-0.080251
O	 2.2614205558	-0.4986820569	-2.9195723061	-0.423367
C	 1.3196335702	-0.7248332588	-0.0131044496	 0.325833
O	 2.5307940493	-0.0322631988	 0.0027193818	-0.477334
C	 1.3740543531	-1.9948097087	 0.7280588227	 0.099152
O	 2.3708978839	-2.335656742	 1.3292052077	-0.296626
H	 1.0180915895	 1.9889427251	-0.0714586375	 0.14784
H	-0.7382456299	 2.0757432797	-0.323999141	 0.12533
H	-0.0782403535	 1.7821035062	 1.2909937464	 0.126148
H	-0.820980596	-0.4291867051	 0.4904843121	 0.095933
H	-0.0590810259	-1.5048965262	-1.5606805934	 0.099679
H	 0.3904684168	 0.1801246375	-3.2694715906	 0.113606
H	 1.3117989542	 1.1884082488	-2.1529578019	 0.099662
H	 2.9005494274	-0.4534864845	-2.1974158365	 0.291671
H	 3.0864305623	-0.5370135938	 0.6208376305	 0.301025
H	 0.4514924748	-2.6092561383	 0.71857128	 0.093862
