19
gdb 92003	2.64139	1.41371	1.14579	3.0371	74.86	-0.2459	-0.0247	0.2212	1119.783	0.159198	-423.029682	-423.021383	-423.020438	-423.062898	31.465	
C	 0.6828973986	 1.466471447	-0.234282396	-0.409936
C	 0.0544298706	 0.0975740543	 0.0672784544	-0.020914
C	 0.1376214424	-0.8640154266	-1.1540855798	-0.255352
C	 1.3260851138	-1.757717128	-0.8754679119	 0.053951
O	 2.5041056904	-1.049908381	-0.4591263497	-0.254636
C	 1.6824333164	-1.6662179904	 0.5437983314	 0.013814
C	 0.7379770503	-0.6986091888	 1.242623046	-0.101656
C	 1.441638325	 0.1704728112	 2.2630003681	 0.146387
O	 1.0528985768	 0.3431660459	 3.3908879924	-0.258565
H	 1.7281372367	 1.3665347795	-0.5348044521	 0.143519
H	 0.1383944812	 1.9500434627	-1.0520002325	 0.113677
H	 0.6305673798	 2.1354042541	 0.6311788129	 0.122927
H	-0.991521044	 0.2639782907	 0.3389251091	 0.090565
H	-0.7590611624	-1.4904960224	-1.2322558311	 0.107182
H	 0.2360272559	-0.3156491962	-2.0964920937	 0.113483
H	 1.5098878668	-2.649938492	-1.468573976	 0.099707
H	 2.149703702	-2.4773618151	 1.0966319757	 0.105871
H	-0.0183625633	-1.277239279	 1.7848182873	 0.095592
H	 2.3783836128	 0.6458505242	 1.9003222755	 0.094385
