20
gdb 70692	2.19924	1.87656	1.23433	2.662	79.42	-0.2293	-0.0165	0.2127	1075.0874	0.171682	-403.158105	-403.149725	-403.148781	-403.190851	32.617	
C	 0.0769628445	 1.5405757745	 0.0318922246	-0.451323
C	 0.0010609036	 0.030896747	-0.0203817407	 0.212627
C	-0.8751888109	-0.7078190484	 0.9544210931	-0.274129
N	 0.5588259354	-0.6939916481	 1.1444413796	-0.127167
C	 1.2914359064	-1.9615153554	 0.9520191772	-0.151062
C	 1.7531791584	-2.2143421096	-0.4842236755	-0.212381
C	 0.587523957	-2.017287495	-1.4667056655	-0.315605
C	 0.1203886168	-0.5706767107	-1.3950095068	 0.347564
O	-0.0764294221	 0.0970677311	-2.3869145124	-0.321821
H	 1.0424788968	 1.894750851	-0.3422743955	 0.124197
H	-0.7022475546	 1.9812077399	-0.5945993799	 0.136557
H	-0.0426547919	 1.8858227398	 1.0611021787	 0.119551
H	-1.4619140273	-0.1263835691	 1.6624889276	 0.120382
H	-1.3499101008	-1.6321895898	 0.6278985599	 0.110645
H	 2.1588191521	-1.9410820299	 1.6209523914	 0.113278
H	 0.6547402842	-2.7914468618	 1.2846201537	 0.103131
H	 2.5615691774	-1.5185522348	-0.740814054	 0.11627
H	 2.1696595634	-3.2239733986	-0.5664702299	 0.107607
H	 0.868043918	-2.2224997676	-2.5022646353	 0.124676
H	-0.2370893366	-2.6942088546	-1.2070322103	 0.117004
