20
gdb 22216	2.03663	1.16281	0.88192	2.2716	79.31	-0.2444	-0.0326	0.2118	1383.534	0.167071	-440.259315	-440.24861	-440.247666	-440.29618	37.788	
C	 0.7216059319	-0.0792255125	 1.37126054	-0.392361
C	 0.1133387231	 0.0457384549	-0.0405336625	-0.052715
C	 1.0864841228	-0.4614620523	-1.1167062993	-0.410605
C	-1.2295326458	-0.6587139207	-0.0843633968	 0.333394
C	-1.2981019328	-2.1621655168	-0.2531648964	-0.346507
C	-1.2969978838	-2.5860146904	-1.7164439057	 0.160438
O	-0.5539067542	-3.4019297138	-2.1937126484	-0.236299
N	-2.3710367899	-0.0897462824	 0.0274674101	-0.183191
O	-2.2799083314	 1.3015537764	 0.1756764949	-0.395534
H	 1.6694731914	 0.4660946396	 1.4218361113	 0.11873
H	 0.0481866653	 0.3346568854	 2.1267125907	 0.130282
H	 0.9264814167	-1.1238073719	 1.6303357944	 0.118372
H	-0.0813727772	 1.1045081626	-0.2249178323	 0.113055
H	 1.3338471795	-1.519613449	-0.9882559066	 0.134405
H	 0.6772636022	-0.33446105	-2.1238414959	 0.122651
H	 2.0211642053	 0.1056680242	-1.0646514906	 0.11736
H	-0.4792722187	-2.6734301328	 0.2589135917	 0.126713
H	-2.2513623023	-2.5040259185	 0.1668403462	 0.143492
H	-2.0748623658	-2.075200475	-2.3273750315	 0.09003
H	-3.2065605764	 1.556873943	 0.2340385565	 0.308289
