14
gdb 44447	3.27311	1.87021	1.64858	4.5761	59.95	-0.2349	0.0154	0.2502	821.3426	0.10357	-473.828945	-473.822846	-473.821901	-473.859385	24.659	
O	 0.0066272256	-0.0469970174	-0.0358395085	-0.386309
C	-0.0147380239	 1.1640480738	 0.0042368584	 0.492911
N	-1.13674334	 1.9451702091	 0.0542408842	-0.340358
C	-0.9854883307	 3.3655824377	 0.0972962943	-0.067797
C	 0.2051376809	 3.9435310073	-0.6636864608	 0.027069
O	 1.1182735318	 2.9684100986	-1.1007571322	-0.2443
C	 1.2199104843	 2.0775360365	 0.0065164196	-0.023575
O	 1.1686195772	 2.8942964209	 1.1728576597	-0.244322
C	 0.2384167678	 3.8944560746	 0.8410294399	 0.02703
H	-2.0441977451	 1.5053796735	 0.0603898329	 0.258618
H	-1.9081941895	 3.9305193805	 0.1360557308	 0.121542
H	 0.1657918778	 4.8202361121	-1.2950469742	 0.126129
H	 2.1526909363	 1.518343867	-0.0323664155	 0.12723
H	 0.2282587576	 4.7281274858	 1.5292632315	 0.126134
