17
gdb 110160	2.62669	1.18824	0.88353	2.5689	76.62	-0.24	0.0037	0.2436	1295.8319	0.13643	-414.173206	-414.164152	-414.163208	-414.207364	32.607	
C	-0.060025734	 1.4202573304	 0.2269131385	-0.329469
N	-0.193730291	 0.0534254382	-0.2877309016	-0.300061
C	-1.4755810107	-0.540089708	 0.0123182221	-0.086209
C	-1.560193305	-2.0724746551	-0.3332971126	-0.133759
N	-1.9317537238	-2.3014931267	 1.0663546491	-0.328014
C	-1.6592412551	-0.9962869894	 1.4692255753	 0.427179
N	-1.5678506679	-0.3752938334	 2.5632237131	-0.545164
C	-2.5505717429	-2.496277772	-1.3222074547	 0.286394
N	-3.3189368442	-2.8279119787	-2.1190033825	-0.318706
H	 0.9300103369	 1.8015262733	-0.0366876192	 0.120199
H	-0.8193681759	 2.1166401988	-0.1674044728	 0.100531
H	-0.1515598727	 1.4006358653	 1.3145598572	 0.171503
H	-0.0681741137	 0.0621046774	-1.2959481234	 0.226716
H	-2.3511521124	 0.0166476341	-0.3595053731	 0.103616
H	-0.572489368	-2.4577255347	-0.6086524068	 0.135419
H	-1.7994630747	-3.1563744616	 1.5881705457	 0.252957
H	-1.6980119149	-0.9883451179	 3.3697548856	 0.216867
