18
gdb 42347	4.06882	1.00169	0.86283	4.3446	75.3	-0.2397	0.0047	0.2445	1348.1471	0.147599	-439.06826	-439.059488	-439.058544	-439.103236	30.616	
O	-0.1061859074	 0.4637268153	 1.0236139457	-0.38175
C	-0.1683026527	 1.5997596025	 0.5849467352	 0.390018
C	 1.038813555	 2.5088268536	 0.5172336797	-0.051049
C	 2.1998293997	 2.1872121412	 1.3613683514	-0.161344
O	 2.2136709424	 1.9051435425	-0.0317593206	-0.216672
N	-1.3292581275	 2.1460527433	 0.1470604651	-0.092895
C	-1.6798434278	 3.3143670759	-0.6754466714	-0.173497
C	-3.0936272992	 2.6940123353	-0.8690201418	-0.244844
C	-2.6131031695	 1.4667866477	-0.0410009257	-0.159467
H	 0.8777205035	 3.5413883428	 0.2103231046	 0.094428
H	 2.8561869681	 2.9927261482	 1.6875910525	 0.113195
H	 2.1286712323	 1.3145456443	 2.0057906704	 0.142364
H	-1.6519604987	 4.267540727	-0.1364742975	 0.11852
H	-1.0861340165	 3.4081937771	-1.5912871832	 0.125525
H	-3.8995612116	 3.264190788	-0.406645519	 0.120758
H	-3.3583124587	 2.4760479143	-1.9035721483	 0.122564
H	-2.5218040309	 0.5254121307	-0.591828014	 0.129995
H	-3.1506146204	 1.2744058702	 0.8924848269	 0.12415
