20
gdb 82059	2.80487	1.45182	1.26544	2.5425	78.38	-0.2365	0.0739	0.3104	1086.2456	0.172096	-403.088539	-403.080526	-403.079582	-403.121155	31.807	
O	 0.4399000914	 1.3510768776	 0.1830913516	-0.437168
C	 0.2030514238	-0.0263490795	 0.1032954419	 0.054455
C	 0.2318822257	-0.8105992473	 1.4225188183	-0.078483
N	-0.8467300157	-0.1838237668	 2.2314293823	-0.364027
C	-1.1812420353	-1.2352067089	 1.2344975141	-0.1422
C	-1.2845977509	-0.5133040522	-0.1090743733	 0.372099
C	-2.4549788379	 0.4535726176	-0.3948418933	-0.285265
C	-3.0374654262	-0.5837561182	-1.3954245475	-0.209517
C	-1.6785811349	-1.3383507767	-1.3623306717	-0.306872
H	-0.0390066741	 1.64473082	 0.9707345144	 0.291638
H	 0.8705724014	-0.433219603	-0.6615499327	 0.082901
H	 1.0648226137	-1.309301869	 1.9034275862	 0.092578
H	-0.8298316731	-0.6187261424	 3.1525986313	 0.232375
H	-1.6711977721	-2.1521046305	 1.5413193717	 0.092151
H	-3.072189764	 0.7387885023	 0.460382155	 0.101046
H	-2.0975724171	 1.363635503	-0.8859208013	 0.1104
H	-3.8489452746	-1.1727063354	-0.9594023495	 0.099224
H	-3.3707860695	-0.2086569194	-2.3657570632	 0.097965
H	-1.0440613699	-1.0973438992	-2.2211008163	 0.102793
H	-1.7088122405	-2.426502652	-1.252875208	 0.093906
