15
gdb 42694	3.08731	1.97263	1.72364	3.6736	66.84	-0.2379	-0.0126	0.2252	818.0262	0.115579	-420.630057	-420.624386	-420.623442	-420.659981	24.101	
O	 0.0030683486	 0.0029822083	 0.0574325088	-0.349291
C	-0.0140807165	 1.2097855294	 0.0098412601	 0.471624
C	-1.2302332777	 2.0848658141	-0.0250288478	-0.250695
C	-1.1527994221	 3.311828716	 0.8972454912	 0.08589
O	-0.0219733485	 3.4546216666	 1.7053607086	-0.228701
C	 1.0901820357	 3.3425176915	 0.8670562222	 0.085891
C	 0.7109472	 3.4779210282	-0.5735046693	-0.123774
C	-0.8163033311	 3.4570352538	-0.5529457613	-0.123773
C	 1.1763059231	 2.1177852294	-0.057409927	-0.250695
H	-2.1988283092	 1.6417243249	-0.2151550268	 0.11185
H	-2.0569671206	 3.6778560438	 1.3655347638	 0.123213
H	 1.9962710336	 3.7333157393	 1.3109816671	 0.123213
H	 1.260951441	 4.0612390639	-1.2986545669	 0.106699
H	-1.4013665349	 4.0248306492	-1.2628163243	 0.106699
H	 2.1511939987	 1.7012293916	-0.2736812484	 0.111851
