17
gdb 41077	4.08994	1.83502	1.64747	1.9215	74.23	-0.2456	0.0706	0.3162	841.3955	0.138121	-384.557985	-384.552269	-384.551325	-384.587657	25.141	
C	 0.135179302	 1.4702437329	-0.2236303887	-0.21312
O	 1.499165496	 1.3575724387	 0.2881518946	-0.310941
C	 1.145561083	 0.1442244233	 1.0342726819	 0.113112
C	 1.5619848141	-1.2471627331	 0.5414069535	-0.122512
C	 0.3106370304	-2.1374734357	 0.8888726174	-0.077651
C	-0.224348328	-2.1458550056	-0.5230603494	-0.1012
C	-0.8896594957	-1.2269005103	 0.4712369043	-0.221134
C	-0.0517081192	-0.0064915623	 0.0900060875	 0.318261
C	 0.7979723443	-1.0069743065	-0.8022524423	-0.078934
H	-0.459760236	 2.1619564638	 0.3891816743	 0.101524
H	 0.1108597584	 1.7845199385	-1.2723012218	 0.108418
H	 1.0629462529	 0.3487833706	 2.1070524816	 0.069969
H	 2.5479614853	-1.7016230828	 0.641350662	 0.068269
H	 0.2107346206	-2.8902480508	 1.6598667994	 0.090563
H	-0.6190417854	-2.9503868428	-1.1295201924	 0.089287
H	-1.852669401	-1.3132345866	 0.9572448094	 0.089529
H	 1.2409964585	-0.7220898115	-1.7515958012	 0.076561
