23
gdb 41351	2.61461	1.78855	1.60783	0.0868	87.86	-0.2533	0.078	0.3313	997.2621	0.210895	-351.142178	-351.135245	-351.134301	-351.172882	30.664	
C	 0.0138437338	 1.5422693243	 0.2689321726	-0.294307
C	 1.5483406296	 1.4451310361	-0.0719603093	-0.331753
C	 1.1862053482	 0.2128249949	-0.9470595633	 0.374545
C	 0.5844936111	 0.6248153105	-2.3293525572	-0.250055
C	-0.825244873	-0.0420795171	-2.3534907035	-0.208749
C	-0.8054755173	-0.8796803073	-1.0656507303	-0.061634
C	 0.3106181216	-1.980024349	-1.2300609526	-0.203715
C	 1.7007515112	-1.2194975763	-1.0868291366	-0.320618
C	-0.0608188434	 0.019689181	-0.0721353028	 0.055912
H	-0.2567849716	 1.829136991	 1.2871261189	 0.093802
H	-0.5241553415	 2.1871015726	-0.4291362192	 0.106899
H	 2.0231495182	 2.3005497953	-0.5600059893	 0.091201
H	 2.1296784798	 1.174800208	 0.8148141912	 0.098215
H	 0.5155118561	 1.7100972981	-2.4368027563	 0.093632
H	 1.2241072065	 0.2704762065	-3.1428006836	 0.092512
H	-1.6212844013	 0.7091045006	-2.3210666342	 0.090861
H	-0.9942210493	-0.6542637037	-3.2446997972	 0.089457
H	-1.7725518943	-1.3001404214	-0.779690824	 0.050305
H	 0.2118882192	-2.7441161594	-0.4536759541	 0.096886
H	 0.2185934475	-2.4884937827	-2.1944199374	 0.094153
H	 2.3540719016	-1.3924717961	-1.9478998053	 0.087668
H	 2.2328879131	-1.5532095887	-0.190664193	 0.090517
H	 0.1882694643	-0.5366185573	 0.8391062466	 0.064265
