16
gdb 44781	2.4578	2.16936	1.5822	3.4316	69.29	-0.235	-0.0245	0.2105	874.9587	0.124924	-437.762436	-437.755718	-437.754774	-437.793269	27.431	
O	 0.098969095	 0.10017712	 0.1161856139	-0.331657
C	-0.0050764293	 1.2888502509	 0.0181564421	 0.44135
C	-1.2491951558	 2.1916234411	 0.0690424076	-0.332218
C	-0.4768122573	 3.495225498	-0.0656195951	-0.000838
O	 0.6419562438	 3.2872928447	 0.9363457921	-0.376027
C	 1.1216598847	 2.3353094078	-0.1271344713	 0.244727
C	 2.1989083599	 1.8745811368	-1.1433903312	-0.273836
N	 1.1174527393	 2.2724298874	-2.1719584421	-0.363233
C	 0.6528908665	 3.2739204051	-1.1544716932	 0.026619
H	-1.9424864408	 1.9756891291	-0.748659987	 0.135865
H	-1.774112679	 2.113214644	 1.0233168367	 0.139422
H	-0.9761811806	 4.4534165064	 0.0681110741	 0.098554
H	 3.0911628984	 2.5053240394	-1.19302929	 0.121422
H	 2.4461058591	 0.811411815	-1.1432223846	 0.144116
H	 1.4915781296	 2.6858813049	-3.0226738286	 0.230235
H	 1.2657684464	 4.1820546295	-1.1597958332	 0.095499
