21
gdb 68686	2.6593	1.74539	1.47989	1.4356	81.77	-0.2401	0.0069	0.247	1002.1146	0.18524	-387.104788	-387.097309	-387.096365	-387.135953	31.562	
C	 0.0224848571	 1.5396356695	 0.0303961382	-0.470741
C	-0.015677095	 0.0156530268	-0.0035494074	 0.268812
C	 0.6798406468	-0.6301777728	-1.2276374264	-0.239013
C	 0.1025209553	-2.0496583009	-1.1335243364	 0.073231
O	 0.756162501	-2.7467953316	-0.0594313555	-0.278537
C	 0.546946441	-2.1573009904	 1.2215720138	-0.06803
C	 0.669480028	-0.6182264348	 1.2396579474	-0.245499
C	-1.3569323314	-1.7482585861	-0.8053580499	-0.110981
C	-1.4150509443	-0.5881008886	-0.1502864047	-0.096536
H	 1.0533983994	 1.9064990194	 0.0849578669	 0.113646
H	-0.4374392731	 1.9642865455	-0.8686266504	 0.113845
H	-0.5149062186	 1.9326749051	 0.9013048564	 0.110075
H	 0.3634348018	-0.1408201773	-2.1544210949	 0.090875
H	 1.7718904681	-0.6239960311	-1.1678434024	 0.091683
H	 0.2615820923	-2.6736455663	-2.0150516914	 0.072247
H	-0.4444821422	-2.4378268006	 1.6026165582	 0.09277
H	 1.2926205631	-2.6128068077	 1.8798282807	 0.102366
H	 1.7239354315	-0.3163822728	 1.2419522396	 0.099623
H	 0.2261444244	-0.2461829953	 2.171897316	 0.090911
H	-2.1752906188	-2.4347219828	-0.9856082346	 0.096375
H	-2.2988692064	-0.139999237	 0.2919570768	 0.092879
