21
gdb 85402	1.76332	1.66582	0.90914	2.8268	86.28	-0.2339	-0.0094	0.2245	1329.6911	0.18193	-387.140993	-387.131748	-387.130804	-387.175004	35.015	
C	-0.1072603931	 1.5651800258	-0.0337499211	-0.397493
C	-0.0242192559	 0.0330958069	 0.0343481126	-0.032479
C	 0.61935303	-0.5465848486	-1.2434515794	-0.303401
C	 0.9172871054	-2.0248697542	-1.0927983653	 0.372397
O	 0.5274600314	-2.8620777567	-1.8725466884	-0.310457
C	 1.7600235735	-2.3835260518	 0.124679091	-0.390998
C	 1.5299120628	-1.4885611833	 1.323088279	 0.282229
C	 2.2506938184	-1.8899057445	 2.5809632479	-0.469852
C	 0.7200605251	-0.4283030098	 1.2644911058	-0.134287
H	 0.8934743762	 2.0085502206	-0.0833444456	 0.117787
H	-0.6664051451	 1.8890399957	-0.9173093145	 0.116522
H	-0.6104265878	 1.9701710973	 0.8503892223	 0.115465
H	-1.0564356665	-0.3467354007	 0.092286573	 0.095917
H	-0.0121120236	-0.3967059115	-2.1224448188	 0.115373
H	 1.5743810853	-0.0279771226	-1.4120141431	 0.113603
H	 1.572239842	-3.4353847855	 0.3705317662	 0.1296
H	 2.8192664065	-2.3383457216	-0.1765042526	 0.130063
H	 3.3371771875	-1.9108996622	 2.4237098081	 0.123291
H	 2.038680358	-1.203744183	 3.4049592306	 0.122414
H	 1.9645144488	-2.9018269825	 2.895378414	 0.126607
H	 0.568059581	 0.1655134923	 2.1644669482	 0.0777
