21
gdb 38181	4.47594	0.96323	0.86637	2.0274	82.02	-0.2421	0.0801	0.3222	1374.1748	0.183751	-387.033522	-387.025295	-387.024351	-387.067536	31.073	
C	 0.0515712754	 1.5082198437	 0.0922847727	-0.287689
C	 1.3969723983	 0.8390073765	 0.0683317666	-0.028095
C	 1.6249326638	 0.0672131439	 1.3725634275	-0.264269
C	 0.322494786	-0.7639315273	 1.0920179809	 0.014833
C	 0.1217039828	 0.0376944932	-0.2059974505	-0.051096
C	 0.5667369772	-2.2468280493	 0.8886744064	-0.038745
C	 0.7466822907	-3.1010587689	 2.1661840961	-0.090284
O	-0.4604130495	-3.8430960648	 1.899320562	-0.272161
C	-0.6818027305	-3.1334881572	 0.6639947679	-0.090746
H	-0.3721748467	 1.8593561298	 1.0313880796	 0.103398
H	-0.1677244366	 2.1452668276	-0.7587457875	 0.110646
H	 2.1717152025	 1.1473241393	-0.6231478951	 0.083487
H	 2.5182885722	-0.5629667714	 1.3512657657	 0.101788
H	 1.644913771	 0.6663027356	 2.2890463627	 0.094869
H	-0.4783722511	-0.6281606265	 1.8309835524	 0.06805
H	-0.2416512517	-0.3738274729	-1.1410832478	 0.082151
H	 1.3516934634	-2.3983889383	 0.1416593489	 0.074686
H	 1.630583769	-3.7511959394	 2.1875083238	 0.096222
H	 0.6903451102	-2.5498541297	 3.1143061653	 0.097908
H	-1.643706629	-2.6034292421	 0.6603372849	 0.09872
H	-0.6435025874	-3.8028677818	-0.2049384226	 0.096328
