17
gdb 75092	3.225	1.45646	1.09934	2.6364	74.75	-0.2273	-0.0316	0.1957	1092.8804	0.136031	-418.011493	-418.003445	-418.002501	-418.044544	30.148	
C	 0.3345511887	 1.485957166	 0.0683576844	-0.441051
C	-0.0095113597	 0.0294610547	-0.0623941777	 0.322068
N	-0.130293704	-0.50606882	-1.206303805	-0.251008
C	-0.4167525877	-1.9248514947	-1.3418570773	-0.282333
C	-0.7676727896	-2.7143966609	-0.0872429756	 0.377902
O	-1.2696749618	-3.8140427915	-0.1379444292	-0.318791
C	-0.5188662504	-2.0288471942	 1.2133901883	-0.121194
C	 0.8540541414	-1.5588291398	 1.5814846923	-0.257096
N	-0.1876679	-0.5949595308	 1.2181960081	-0.146579
H	 1.2310859929	 1.6096660261	 0.6863668437	 0.132347
H	 0.5040571476	 1.9207908847	-0.916307504	 0.14171
H	-0.474569027	 2.0190920684	 0.5778709762	 0.143959
H	-1.2407323242	-2.062157452	-2.0522673565	 0.150285
H	 0.4481103765	-2.4076402646	-1.8193316945	 0.146299
H	-1.1764733934	-2.3479450827	 2.017100656	 0.125302
H	 1.1446269944	-1.5739490247	 2.6273764616	 0.140754
H	 1.6593601561	-1.7236326042	 0.8698291692	 0.137426
