20
gdb 126436	2.0373	1.48817	0.92482	2.2869	82.77	-0.1861	0.0348	0.2209	1313.8383	0.172197	-399.34695	-399.337412	-399.336468	-399.381677	34.878	
C	 0.0640175972	 1.5284748957	 0.1138460227	-0.373339
C	-0.0546933016	 0.0064943047	-0.0861024652	-0.297399
C	 0.7224979804	-0.5043455292	-1.260859535	 0.278589
N	 0.1336457307	-0.7496911216	-2.4309639485	-0.288975
N	 1.1200240238	-1.168912858	-3.2362524394	-0.198748
C	 2.338753179	-1.1971528415	-2.6241204318	-0.119394
C	 2.119741247	-0.7712492099	-1.3269473196	 0.169573
N	 3.0312387997	-0.6808224632	-0.2698761453	-0.39194
C	 4.4397730679	-0.8038192997	-0.5978410476	-0.32334
H	 1.1048378495	 1.838628037	 0.2622762504	 0.104304
H	-0.3137242182	 2.0620456171	-0.7632418983	 0.129149
H	-0.5078023866	 1.8557784722	 0.9881395757	 0.111056
H	 0.2838887378	-0.5087508278	 0.8219111211	 0.102847
H	-1.1062984364	-0.259431178	-0.2296692755	 0.118625
H	 0.9011634028	-1.4380131132	-4.1789033699	 0.268411
H	 3.2289916823	-1.5156398226	-3.1400743457	 0.12115
H	 2.8435181976	 0.109418574	 0.3309616916	 0.234241
H	 4.6427037889	-1.8136694787	-0.972328565	 0.128978
H	 4.7818507591	-0.0869794254	-1.3636749299	 0.104983
H	 5.0361887993	-0.6588668519	 0.3061972249	 0.121229
