23
gdb 40623	3.66647	1.07773	1.05209	0.1075	89.49	-0.2545	0.0953	0.3498	1292.2821	0.20891	-351.132863	-351.125022	-351.124078	-351.165446	32.171	
C	-0.2479881232	 1.385828771	-0.1801465811	-0.273842
C	 1.1985162111	 1.2059268419	 0.2090333503	-0.27382
C	 0.3033874787	-0.0004044372	 0.0540534969	-0.007999
C	-0.121435955	-0.7729050373	 1.276054828	 0.050147
C	-1.2783535003	-1.8155008021	 1.1139112523	-0.02209
C	-0.1946598308	-2.8130267071	 0.6090855942	-0.235643
C	 0.691286918	-2.0596058652	 1.6443425598	-0.022068
C	 0.029239655	-2.4686856474	 2.9748435997	-0.216215
C	-1.475201824	-2.2822319235	 2.569694927	-0.216217
H	-0.9252132942	 1.7922196208	 0.5642280713	 0.108007
H	-0.4754324677	 1.6876370396	-1.1966612607	 0.108184
H	 1.9610508268	 1.3846210002	-0.5411198012	 0.108183
H	 1.4910685871	 1.4916909499	 1.2143357415	 0.108006
H	 0.4719333901	-0.5870755654	-0.8436857146	 0.079333
H	-0.2570850841	-0.0654242503	 2.1053865415	 0.047127
H	-2.1728459323	-1.5891822548	 0.5317551314	 0.054368
H	-0.370682803	-3.8812505494	 0.7710848833	 0.082602
H	 0.1047298509	-2.6464976481	-0.4259514166	 0.098231
H	 1.7810447716	-2.0792005971	 1.5965407185	 0.054368
H	 0.264428888	-3.4991782523	 3.2568238712	 0.092497
H	 0.3249856879	-1.8187414379	 3.8038019645	 0.092172
H	-1.9854880126	-1.5323893458	 3.1815842866	 0.092174
H	-2.0467926179	-3.2127361225	 2.6344067461	 0.092497
