20
gdb 120718	3.11911	0.81676	0.7308	3.7023	76.81	-0.2486	0.0246	0.2732	1588.3739	0.170268	-440.305434	-440.295265	-440.29432	-440.341331	36.581	
N	 0.0338386095	 1.2333689735	 0.3863070262	-0.533564
C	 0.0323112986	 0.0425077634	-0.2851766589	 0.421494
O	 0.9878575061	-0.3193639305	-0.9529381055	-0.37823
C	-1.2310604014	-0.7491746839	-0.1485727345	-0.149614
C	-1.5513846196	-1.7555212053	-1.2341600086	-0.282127
C	-1.1748177786	-2.2533379353	 0.1273324752	-0.003232
C	 0.1193939539	-2.9966964961	 0.3816831208	-0.243218
C	 0.0102158811	-4.4816759871	 0.0215978842	-0.050625
O	 1.1930356143	-5.2034864794	 0.3259425656	-0.421054
H	 0.8887870488	 1.7652725127	 0.3932571774	 0.260103
H	-0.6896553243	 1.4800737402	 1.0381998432	 0.257469
H	-2.0666806371	-0.2224062598	 0.3018478569	 0.077937
H	-2.5798392208	-1.8337498569	-1.5676055755	 0.112313
H	-0.7996805136	-1.8300507009	-2.0128097744	 0.139991
H	-2.0071101897	-2.5964225404	 0.7386577077	 0.089461
H	 0.9230800769	-2.5352386432	-0.2005243925	 0.129683
H	 0.3991255107	-2.917106982	 1.439558368	 0.099371
H	-0.7840212839	-4.9594410478	 0.607033811	 0.102659
H	-0.2647368266	-4.5881463424	-1.0399702086	 0.089395
H	 1.9099945656	-4.8124534488	-0.1839198778	 0.281787
