21
gdb 94878	2.80037	1.63206	1.3385	1.3597	81.6	-0.2299	0.0789	0.3089	1054.6764	0.184121	-387.061823	-387.053973	-387.053029	-387.093638	31.915	
C	 0.0818591507	 1.595945504	-0.0755921888	-0.398712
C	 0.0551196625	 0.0774815658	 0.0127024786	 0.064385
O	 0.8003980981	-0.4426425187	-1.1089589598	-0.274256
C	 1.2467987439	-1.7735004442	-0.8143768793	-0.157653
C	 1.4768990557	-1.7839448902	 0.6786662738	 0.224553
C	 2.2051433085	-0.6145503053	 1.2772238119	-0.371748
C	 0.7041660746	-0.5753957886	 1.2160730251	 0.241366
C	 0.0619639911	-1.4524208489	 2.3095469709	-0.295368
C	 0.8484078096	-2.6879221342	 1.7568601017	-0.284906
H	 1.1049860573	 1.9697536935	 0.0210793706	 0.120403
H	-0.320543076	 1.9325436165	-1.0351433509	 0.12234
H	-0.5240278294	 2.0308971767	 0.7252058246	 0.114092
H	-0.991064405	-0.2721708915	-0.0433001889	 0.060243
H	 0.4814308489	-2.5212647088	-1.0806488967	 0.086339
H	 2.1290001386	-1.9477895465	-1.4393802488	 0.106253
H	 2.6968226443	-0.7257495122	 2.2394860396	 0.107131
H	 2.7252635385	 0.0247276648	 0.5723331885	 0.127468
H	 0.2651152349	-1.1535150677	 3.3424195752	 0.099213
H	-1.0192850413	-1.5539042509	 2.1872655845	 0.104722
H	 0.1887180522	-3.450078823	 1.3347713666	 0.104513
H	 1.5499364422	-3.1784109005	 2.4385593316	 0.09962
