21
gdb 122293	4.69052	0.71855	0.69773	2.4649	79.83	-0.2314	0.0787	0.3101	1673.6642	0.181446	-424.155268	-424.146015	-424.145071	-424.190271	34.296	
O	-0.1011546426	 1.4318525816	 0.0896339824	-0.421592
C	-0.0222791855	 0.0152006661	 0.1136693513	-0.076493
C	-1.4352921962	-0.5349159433	-0.0224121919	-0.165971
C	-1.471363667	-2.0671497318	-0.0384423983	-0.356872
C	-2.8654999398	-2.6191363955	-0.0923188226	 0.446835
C	-4.0320871902	-2.3235362618	-1.0799540059	-0.255611
C	-4.5693699584	-3.1463750041	 0.1106596123	 0.054129
C	-3.3521081249	-4.0912406488	 0.0100976463	-0.267745
O	-3.7945336087	-2.2836175794	 1.02960809	-0.346477
H	 0.7861761144	 1.784810349	 0.2012761331	 0.284899
H	 0.6065517992	-0.3628945463	-0.7103032786	 0.080171
H	 0.4270447908	-0.3444565606	 1.0541925953	 0.085162
H	-2.0462651496	-0.1623220412	 0.8059570088	 0.13014
H	-1.8760909066	-0.1372785955	-0.9439257541	 0.107672
H	-0.9140388134	-2.4569454551	-0.9006468291	 0.103759
H	-0.9822757041	-2.4676342649	 0.8592379756	 0.110267
H	-4.3645640023	-1.2854568506	-1.1120223175	 0.1089
H	-4.0024802706	-2.7961089422	-2.0655863085	 0.09104
H	-5.5991717067	-3.3710605893	 0.3868409753	 0.093592
H	-3.2599645796	-4.7275110892	-0.8744138152	 0.09074
H	-3.0837398982	-4.6019985871	 0.9360968912	 0.103455
