27
gdb 100292	1.5853	1.39449	1.07262	1.3529	91.7	-0.2611	0.0698	0.3309	1404.5153	0.249325	-390.701251	-390.689284	-390.68834	-390.737479	45.068	
C	-1.6704453106	-0.4886518812	 0.0218264044	-0.404475
C	-0.1466408122	-0.3148364078	 0.0251966474	-0.182672
C	 0.598498671	-0.6863941614	 1.3391034474	 0.274398
C	 0.5346899512	-2.210101116	 1.5633485512	-0.437226
C	 2.0752966134	-0.2171117174	 1.2409398626	-0.194197
C	 2.8631503176	-0.6812314386	 0.0089678768	-0.403216
C	-0.0926415012	 0.0284696741	 2.5343818432	 0.131602
C	 0.5711221047	-0.1494562406	 3.9028527528	-0.429313
O	-0.1709613311	 1.416846096	 2.2010779621	-0.446209
H	-2.1543092819	 0.2167108416	 0.7026995638	 0.124792
H	-2.0664515458	-0.2968612422	-0.9807410367	 0.106389
H	-1.9769327343	-1.5020061569	 0.30180492	 0.108587
H	 0.2751068783	-0.9238375468	-0.7822183492	 0.087387
H	 0.082149496	 0.7273964174	-0.218296439	 0.107272
H	 0.8889847403	-2.7491355921	 0.6796772648	 0.114518
H	 1.1565874703	-2.5231039993	 2.4077726978	 0.10963
H	-0.4873346679	-2.5488788328	 1.7623938159	 0.110621
H	 2.082236955	 0.8774914283	 1.2792767428	 0.109003
H	 2.6108036231	-0.5613231706	 2.1338656464	 0.084813
H	 2.8773848417	-1.771941917	-0.0861668898	 0.111634
H	 2.4572789207	-0.2708554657	-0.9198147387	 0.119314
H	 3.9036245245	-0.3486375027	 0.0833092031	 0.108273
H	-1.1113486315	-0.3846326103	 2.6071740221	 0.060595
H	-0.0304963389	 0.3513399764	 4.6714993834	 0.101051
H	 0.6422323635	-1.2023491056	 4.1890565275	 0.120474
H	 1.5716413117	 0.2894438983	 3.9251777929	 0.127889
H	-0.5358104375	 1.8828999628	 2.9593346949	 0.279063
