20
gdb 61456	2.99314	0.91999	0.8227	2.1096	76.33	-0.2467	0.0559	0.3026	1468.1741	0.171174	-436.48077	-436.470768	-436.469824	-436.516908	36.381	
C	 0.1784889825	 1.4492438688	 0.1767801285	-0.396951
C	-0.0661807961	-0.0516113612	-0.0303863179	 0.019801
N	-1.4916217683	-0.38278754	-0.0636611204	-0.340307
C	-2.2005569446	-0.5157655985	 1.1095867163	 0.455232
N	-3.5755450449	-0.6308394004	 0.9287705815	-0.567322
O	-1.6800049867	-0.5179962371	 2.2110319911	-0.397736
C	 0.6000769698	-0.5624311213	-1.2909529657	 0.013616
C	 1.9468693038	-1.1800536312	-1.2247252959	-0.241198
N	 0.7604944348	-2.0040635116	-1.5163830377	-0.321521
H	 1.2507743091	 1.6623778556	 0.2287717744	 0.119737
H	-0.2432918114	 2.0330007276	-0.6494572511	 0.107004
H	-0.2878929077	 1.7767512828	 1.1087241708	 0.143278
H	 0.3347241262	-0.5927361102	 0.8324361737	 0.109107
H	-2.0008515032	-0.1003804793	-0.8878360591	 0.236876
H	-3.8962338348	-1.0853025967	 0.0863324515	 0.247753
H	-4.042004413	-0.9508390898	 1.7643808429	 0.259834
H	 0.336288629	-0.013206727	-2.1957941714	 0.084214
H	 2.6427833286	-1.0681053508	-2.0511996241	 0.118998
H	 2.4159250832	-1.2660947277	-0.2475219408	 0.115289
H	 0.4735991737	-2.5075706521	-0.6793672167	 0.234299
