21
gdb 39249	2.79826	1.75602	1.27799	0.1814	88.06	-0.2138	0.0288	0.2425	1048.6709	0.18611	-349.971032	-349.96385	-349.962906	-350.002342	30.167	
C	-0.1257366878	 1.4083085197	-0.0872952679	-0.356352
C	 1.3165776662	 0.979767145	 0.0213683889	-0.082445
C	 1.9441482282	 0.8747725733	 1.4149087797	-0.234247
C	 1.5430953114	-0.5310115595	 1.9263737191	-0.207262
C	 0.1630910239	-0.8193216401	 1.293434355	-0.060764
C	-0.1297139168	-2.2977332918	 0.9079310269	-0.300709
C	-0.195129692	-2.2822039451	-0.6042811312	-0.077924
C	-0.0251461467	-1.0596746392	-1.1136262175	-0.178553
C	 0.2050054473	-0.0604479357	-0.0516897839	 0.378789
H	-0.6063457292	 1.8488152885	 0.7832641307	 0.102806
H	-0.4533349368	 1.8289910006	-1.0338179698	 0.105686
H	 1.9632759807	 1.1559136768	-0.8315664695	 0.081601
H	 3.0302022994	 0.9997244963	 1.3808273877	 0.098169
H	 1.5576689447	 1.6578941033	 2.0791113653	 0.096593
H	 2.2638631746	-1.2657648608	 1.5463604366	 0.097707
H	 1.5452181261	-0.6098703181	 3.018595526	 0.08918
H	-0.630770934	-0.4289006321	 1.9394439877	 0.066809
H	 0.6524173155	-2.9772689722	 1.2735115972	 0.100921
H	-1.0688555242	-2.659948649	 1.3446717287	 0.103454
H	-0.3574939937	-3.1825860423	-1.1868468901	 0.087809
H	-0.0350370466	-0.8085754877	-2.1688486297	 0.088731
