17
gdb 83034	2.79068	1.3698	1.1635	2.2945	76.37	-0.2423	-0.0545	0.1879	1095.1013	0.136028	-421.832355	-421.824429	-421.823485	-421.864914	30.181	
O	-0.1867863518	 1.4314704335	 0.11438414	-0.416104
C	-0.0934548737	 0.0455983505	 0.0053892928	 0.104482
C	-1.3689950818	-0.7358606972	-0.016682092	-0.10629
C	-2.649895776	 0.034061611	-0.3518874889	-0.270507
C	-2.4337163098	 0.5101047536	-1.7643873794	-0.149728
C	-1.2611378029	 0.0871131126	-2.2683650676	 0.264257
C	-0.789762871	 0.3786687248	-3.6218419714	 0.059167
O	 0.2837542157	 0.0300517752	-4.0646316315	-0.276511
C	-0.4795234467	-0.6929717713	-1.2678886758	-0.225122
H	 0.5054145397	 1.8249126515	-0.427759376	 0.293241
H	 0.7299423032	-0.4004672147	 0.5632338156	 0.092499
H	-1.4410701621	-1.6244610281	 0.5987304792	 0.094542
H	-3.5392610384	-0.6051832466	-0.2815166191	 0.117841
H	-2.8138702939	 0.8780121064	 0.3294718794	 0.137831
H	-3.139732635	 1.1448554987	-2.2901016525	 0.110244
H	-1.5083721978	 0.9574974596	-4.244596601	 0.065527
H	 0.1391348224	-1.5181085995	-1.5990418618	 0.104631
