21
gdb 83644	2.31337	1.69559	1.24123	1.8002	81.43	-0.2511	0.0689	0.32	1100.6984	0.182537	-387.045104	-387.036748	-387.035804	-387.07809	32.755	
C	-0.5467583775	 1.4278006204	-0.0908815407	-0.423262
C	-0.0363765264	-0.0040856281	-0.0261955594	-0.057302
C	 1.1050450729	-0.506845627	-0.9619430441	-0.043584
C	 2.3497332301	 0.4144656278	-1.1326863515	-0.23154
C	 3.1055439935	-0.3795420165	-0.0241516308	-0.222252
C	 1.8192728709	-1.1912824828	 0.2648517223	-0.12857
C	 0.8024760981	-0.4824805384	 1.1702811494	 0.445888
C	 1.009367916	 0.1286028199	 2.4865190556	-0.26865
O	 0.2304392474	-1.0655349555	 2.3289974391	-0.280764
H	 0.2599108685	 2.1570562366	 0.0324704304	 0.115907
H	-1.0353944215	 1.6281823497	-1.05053971	 0.117086
H	-1.2832365856	 1.6126192459	 0.6987182494	 0.122486
H	-0.8821597862	-0.6960647583	-0.1248234746	 0.088469
H	 0.7947211261	-1.0586244321	-1.8494707015	 0.065393
H	 2.8130295064	 0.3563342355	-2.1200537547	 0.103062
H	 2.1762196309	 1.4704707861	-0.9101431291	 0.099661
H	 3.9078215129	-1.0009271581	-0.4301390684	 0.102345
H	 3.511095276	 0.1978384345	 0.8117192636	 0.094913
H	 1.8917402741	-2.2707162321	 0.4047428852	 0.077492
H	 1.9610777992	 0.0003477162	 3.0016814165	 0.111857
H	 0.4467380342	 1.0173444064	 2.7705302336	 0.111365
