18
gdb 11673	3.42178	1.74478	1.45708	1.689	67.9	-0.2483	0.0816	0.3299	932.2552	0.153063	-384.880709	-384.872995	-384.872051	-384.912714	29.722	
C	-0.0398227976	 1.4884487508	-0.188184855	-0.380947
C	-0.064044544	-0.0253188258	 0.0512898144	-0.316753
C	-1.4473303146	-0.5888602294	 0.1698713941	 0.372029
C	-2.6096933239	-0.2618841011	 1.1378002114	-0.267946
C	-3.1638944577	-1.1601097599	 0.0188983427	-0.006376
O	-2.4007543313	-0.3590269359	-0.976507072	-0.378084
C	-1.9198200142	-2.0802376917	 0.1487810085	 0.149456
O	-1.5549313786	-2.8571596252	-0.9404811309	-0.447183
H	 0.986124395	 1.8457387308	-0.3145352841	 0.114575
H	-0.6069953385	 1.7446305313	-1.0870073277	 0.139
H	-0.4833917941	 2.0301950745	 0.6532149088	 0.118197
H	 0.4438755897	-0.5497615259	-0.767631357	 0.114225
H	 0.482493101	-0.2798108731	 0.968287369	 0.109109
H	-2.5607882215	-0.6670020298	 2.1523509346	 0.097578
H	-2.960714621	 0.7691592798	 1.1053893199	 0.114799
H	-4.1959976209	-1.4047910131	-0.2321606985	 0.096195
H	-1.8036263936	-2.6687172537	 1.061925184	 0.086513
H	-1.6988931143	-2.2830262327	-1.708067052	 0.285613
