15
gdb 28349	3.19928	1.39602	0.97775	2.711	74.13	-0.2144	-0.0421	0.1723	1141.0282	0.112296	-457.842171	-457.834207	-457.833262	-457.874626	29.953	
C	-0.0241799696	 1.5226531772	 0.0120681033	-0.47318
C	-0.0496463185	 0.0200843421	 0.000201627	 0.068215
C	-1.1794748147	-0.7306460582	-0.1505665149	-0.108521
C	-1.1726930039	-2.1504206442	-0.1576688388	-0.311081
C	 0.0318430755	-2.7553001414	-0.0052808867	 0.489762
O	 0.2045995468	-4.0801424256	 0.0098343738	-0.395618
O	 1.1668098443	-2.0750444343	 0.144656381	-0.266387
C	 1.2240615235	-0.6408141684	 0.1618352536	 0.382707
O	 2.3128847593	-0.1573127083	 0.3065144042	-0.333901
H	 0.6152746562	 1.9132214331	-0.7869851702	 0.141374
H	-1.0300746111	 1.9303578905	-0.1159126385	 0.116406
H	 0.3900795602	 1.9032764011	 0.9519798225	 0.141403
H	-2.1320594088	-0.2221156911	-0.2711196876	 0.11317
H	-2.0675142504	-2.7424978588	-0.2762646418	 0.119868
H	 1.1475944313	-4.2560783037	 0.1300949432	 0.315784
