16
gdb 28506	3.12113	1.42594	0.98544	3.1648	77.88	-0.2079	-0.0241	0.1838	1148.2376	0.125828	-434.142323	-434.134294	-434.13335	-434.174497	31.219	
C	-0.1032492302	 1.5162601336	-0.0097899301	-0.502874
C	-0.0276963685	 0.0140687285	-0.014988611	 0.274196
N	-0.0245276445	-0.6227325829	-1.1827107133	-0.278827
C	 0.0288769639	-1.9538127383	-1.1969461241	-0.122741
C	 0.0848022896	-2.6643709081	 0.0022788142	 0.397275
O	 0.1395815259	-4.0119142488	-0.0195494657	-0.418799
N	 0.092697855	-2.0629540952	 1.185407314	-0.412288
C	 0.0319280033	-0.7278701255	 1.1887477961	 0.314623
N	-0.0192560899	-0.1107320675	 2.4201103701	-0.56638
H	 0.7886459642	 1.973300827	 0.44172549	 0.117983
H	-0.1815928448	 1.8746849606	-1.0370482319	 0.145911
H	-0.9719151798	 1.8761628661	 0.5556354785	 0.130731
H	 0.0286283974	-2.4650069461	-2.1530486419	 0.113443
H	 0.1693227738	-4.2972673058	 0.9038127715	 0.296015
H	 0.258315264	-0.6976559994	 3.1924626043	 0.255245
H	 0.3115335508	 0.8390341219	 2.4734162694	 0.256486
