20
gdb 59069	2.1049	1.36068	1.03712	3.7454	79.93	-0.2719	0.026	0.2979	1250.485	0.169077	-403.155295	-403.145203	-403.144259	-403.190414	36.721	
C	 0.0269515472	 1.4092014795	-0.2953899066	-0.396803
C	 0.0686024122	-0.0587865699	 0.1555624001	 0.020495
C	 0.6855920561	-0.2062908662	 1.5532874776	-0.397755
C	-1.3306720027	-0.6500380859	 0.1210930717	-0.033747
C	-1.9423812475	-1.1491128168	-1.1456698531	 0.072306
O	-1.159715653	-1.0682515762	-2.2881524013	-0.400997
C	-1.5673136319	-2.1568283125	-0.0495595836	-0.264931
C	-0.4699608067	-3.045106392	-0.292117161	 0.297022
N	 0.4001703354	-3.7785987486	-0.5049433666	-0.35082
H	 1.0306039391	 1.8456890946	-0.2801489519	 0.114643
H	-0.3670926768	 1.4956062161	-1.3116845994	 0.131251
H	-0.6053279201	 2.0097571099	 0.3697246304	 0.107615
H	 0.6874028975	-0.6126892373	-0.5570184706	 0.108962
H	 0.0908094859	 0.3255897599	 2.3056303905	 0.107903
H	 0.7503449428	-1.2566203766	 1.8524964236	 0.127828
H	 1.696926488	 0.2114870545	 1.5741669603	 0.116945
H	-2.0254723578	-0.18838362	 0.8194264158	 0.100403
H	-3.0111328051	-1.0020690756	-1.300130324	 0.103845
H	-1.260331753	-1.8792403126	-2.7989360291	 0.303651
H	-2.3805562896	-2.6020716644	 0.5139747072	 0.132183
