15
gdb 27916	1.83118	1.831	0.91554	0.0006	72.2	-0.2134	0.0233	0.2368	1179.7949	0.113197	-457.834875	-457.827097	-457.826152	-457.866682	31.08	
O	 0.0545648221	 1.3521122266	 0.166918143	-0.444246
C	 0.0721875664	-0.0048626218	 0.0492033298	 0.44177
C	 0.07448057	-0.6390145723	-1.1897903013	-0.384873
C	 0.0929602849	-2.0344391206	-1.2331592081	 0.441668
O	 0.0944860313	-2.6108315835	-2.4673467858	-0.444212
C	 0.1089249424	-2.7902151919	-0.0644702846	-0.384997
C	 0.106255004	-2.1299859416	 1.1658018674	 0.441761
O	 0.1223559124	-2.9103693924	 2.2821591982	-0.444189
C	 0.0879983272	-0.7400256517	 1.2361042263	-0.385121
H	 0.0450801228	 1.7410397213	-0.7136748116	 0.29838
H	 0.0622666773	-0.0778019864	-2.1178005697	 0.089093
H	 0.1079005897	-3.5678788752	-2.3641537452	 0.298379
H	 0.12335752	-3.87446572	-0.0864508607	 0.089111
H	 0.1184184315	-2.3421375929	 3.0592351424	 0.298374
H	 0.0857822478	-0.2169388676	 2.1861810499	 0.089104
