18
gdb 32605	2.85805	1.24758	0.93194	4.6484	75.85	-0.2044	0.029	0.2334	1287.8769	0.147148	-439.155401	-439.146316	-439.145372	-439.189957	32.661	
C	 0.0948145199	 1.565961007	-0.1078218735	-0.376594
C	-0.0742642857	 0.0589571158	 0.0968535056	-0.158451
N	 0.7026969049	-0.457856529	 1.2097401775	-0.116024
C	 2.0828674766	-0.6772441957	 1.2624046648	-0.233263
C	 2.3707171252	-1.1233468305	 2.4927859325	 0.341377
C	 3.6230582449	-1.5374416629	 3.1668243945	-0.485773
O	 1.1997457895	-1.186049925	 3.2291556864	-0.248251
C	 0.1507134176	-0.7659293898	 2.4326658412	 0.475253
O	-0.9972567971	-0.7048524286	 2.7901684377	-0.418567
H	 1.1382651288	 1.8261826709	-0.311801873	 0.120147
H	-0.5095586732	 1.9002369323	-0.9565644174	 0.124034
H	-0.2278085122	 2.1134964226	 0.7819965919	 0.141368
H	-1.1158226558	-0.1819451631	 0.3228960924	 0.151162
H	 0.2077091085	-0.4878968269	-0.8102116483	 0.114644
H	 2.7254899543	-0.5047490802	 0.4158407454	 0.144399
H	 3.82301055	-0.919328651	 4.0494427587	 0.144709
H	 3.5689261326	-2.5791046132	 3.5030539053	 0.144868
H	 4.4663716512	-1.4401478125	 2.4790285082	 0.134961
