24
gdb 119157	3.09898	0.95056	0.81451	0.936	89.83	-0.218	0.0897	0.3077	1541.2811	0.216294	-368.368008	-368.357977	-368.357032	-368.403751	37.838	
C	-0.422136882	 1.4981343838	-1.2444815939	-0.377734
C	-0.1114418065	 0.0427168401	-0.8783505588	-0.191489
C	-1.3808288103	-0.7449054721	-0.5385685015	-0.210955
C	-1.2249454193	-2.1996834859	-0.109724684	 0.337072
C	-0.1189914841	-3.0639468662	-0.6813212768	-0.322211
C	-0.094223056	-2.637662055	 0.7739144308	-0.300524
N	-2.5430862003	-2.7364444562	 0.1865080425	-0.107645
C	-3.2889326544	-3.3824442369	-0.8889884733	-0.222385
C	-2.7814546318	-4.167701954	 0.2707311229	-0.237289
H	 0.4897607631	 2.0495847103	-1.4936071848	 0.109389
H	-1.0929787087	 1.5540058285	-2.1089631354	 0.114106
H	-0.9116037763	 2.0188216416	-0.4141394579	 0.115979
H	 0.4150194079	-0.4305989431	-1.715806605	 0.098266
H	 0.5816392178	 0.0290712812	-0.0285574064	 0.099174
H	-1.9234974028	-0.2293467283	 0.2642073856	 0.106171
H	-2.0499339482	-0.7240592144	-1.4103766914	 0.093977
H	-0.315670435	-4.107415998	-0.9018172134	 0.108031
H	 0.5949968747	-2.6095524009	-1.3586075804	 0.111106
H	 0.6463503308	-1.9112984277	 1.0885209292	 0.112649
H	-0.316810753	-3.3941200875	 1.519362028	 0.113257
H	-4.3403019912	-3.1197877131	-0.9670830185	 0.113624
H	-2.779507855	-3.5340520179	-1.8393020572	 0.110619
H	-1.9663383732	-4.8622688817	 0.080775504	 0.111922
H	-3.4537867064	-4.4770256465	 1.0666257656	 0.114891
