15
gdb 54087	2.0609	1.53874	0.93689	1.5948	63.39	-0.2544	-0.0432	0.2112	1176.8848	0.111649	-491.150108	-491.141172	-491.140227	-491.184501	31.543	
N	-0.1502666401	 0.1809530795	-1.2210139532	-0.525247
C	-0.2793349586	 0.0611373257	 0.1162143266	 0.406633
O	 0.4673619677	 0.554334282	 0.9429101864	-0.362548
C	-1.52092948	-0.7583683749	 0.5617132566	-0.194879
N	-1.5174777238	-2.1414126664	 0.1298907515	-0.266412
C	-1.8553217239	-2.5403769341	-1.1131950116	 0.162053
O	-2.0487804833	-1.791017417	-2.0588965556	-0.34627
C	-1.5843753073	-0.730585903	 2.0854079936	 0.179888
O	-1.6440237384	-1.735239714	 2.7469855676	-0.259756
H	 0.6629171175	 0.6563753344	-1.5785331879	 0.263198
H	-0.7833415452	-0.3126241326	-1.84273945	 0.292093
H	-2.4155236733	-0.2526830505	 0.1667016666	 0.140659
H	-1.460956796	-2.812444698	 0.886913238	 0.272055
H	-1.9332566607	-3.6382661645	-1.2006571769	 0.106661
H	-1.5743665546	 0.2762496134	 2.5340930784	 0.131872
