17
gdb 127381	3.84903	1.06756	1.0373	2.0137	74.62	-0.2339	-0.0182	0.2157	1199.4338	0.13664	-417.962228	-417.954325	-417.953381	-417.995541	29.22	
C	-0.2806214303	 1.4980533197	-0.1747864096	-0.315664
N	-0.1298664855	 0.0653161491	 0.0351356649	-0.080424
C	 1.1652214532	-0.5252362752	-0.2586225671	-0.257344
C	 0.7020598316	-0.4150614783	 1.1570773808	-0.128286
C	 1.3569592407	 0.4865838494	 2.1304203986	 0.163197
C	 1.0576531319	 0.6124636761	 3.454590392	-0.010661
O	 1.8550239552	 1.5090241637	 4.0482356441	-0.160938
N	 2.7360442742	 2.0223982076	 3.1029979597	-0.132717
C	 2.4354199347	 1.4125474857	 1.9845088066	-0.054198
H	 0.6321570357	 2.0876257736	 0.0002949642	 0.105214
H	-0.5979903923	 1.662508481	-1.2090411618	 0.128386
H	-1.0636533769	 1.8799415908	 0.4873901267	 0.128348
H	 1.1558116498	-1.4877774625	-0.7636237154	 0.12042
H	 1.9703271854	 0.1386537952	-0.5727254034	 0.108677
H	 0.281267044	-1.3063616755	 1.6175216523	 0.096109
H	 0.3286070842	 0.1342990686	 4.0908450672	 0.15572
H	 3.0089515943	 1.6446886211	 1.0986067602	 0.134159
