22
gdb 76629	2.66924	1.13966	0.98967	2.4058	83.36	-0.2229	0.0875	0.3104	1345.9825	0.191394	-404.304236	-404.294063	-404.293119	-404.3392	37.55	
C	 0.0633168786	 0.9667153473	 1.2176016704	-0.427249
C	 0.3688154585	-0.3054290841	 0.4581437026	 0.016265
C	 0.1965046071	-0.4066754605	-1.0244544529	-0.105125
N	 1.5240719992	-0.4616012756	-0.4330336359	-0.10087
C	 2.4218199287	 0.6592814319	-0.6691360364	-0.315095
C	-0.3479122914	-1.6443368185	-1.6937637843	 0.403764
C	-1.7165612727	-1.481786608	-2.3181331262	-0.467453
C	 0.5790371055	-2.6780295151	-2.1805209532	-0.218058
O	-0.1529172551	-2.8593713656	-0.9626707415	-0.273429
H	 0.1624562012	 1.8642579287	 0.6024975339	 0.118454
H	-0.965627614	 0.9346676908	 1.5909863904	 0.125563
H	 0.7234597251	 1.0749757748	 2.0856069665	 0.124163
H	 0.1749070054	-1.2185310843	 1.0172881867	 0.107598
H	-0.0766493794	 0.5225954834	-1.5298460892	 0.068392
H	 1.9247665136	 1.6371471594	-0.7619858738	 0.099284
H	 3.148743258	 0.7211260097	 0.1472077815	 0.123365
H	 2.9736870239	 0.4766109197	-1.5969790656	 0.122688
H	-1.6930823142	-0.7421544334	-3.1260515763	 0.11879
H	-2.0659284231	-2.4332070928	-2.7256482042	 0.128116
H	-2.4429164256	-1.1407531072	-1.5721925441	 0.125661
H	 0.2809426089	-3.3263357696	-3.0041889899	 0.102342
H	 1.6474685718	-2.5266306609	-2.0479029185	 0.122834
