23
gdb 121415	3.94263	0.77398	0.68034	0.3973	82.32	-0.2435	0.0772	0.3207	1681.9984	0.207116	-425.432463	-425.422991	-425.422047	-425.467193	35.534	
O	-0.117668445	 1.4985587249	 0.1216066005	-0.420554
C	 0.0393086082	 0.0915623934	 0.004530782	-0.086087
C	-1.3563798341	-0.5223407006	-0.0375772762	-0.182267
C	-1.3853316687	-2.0565853332	-0.0388425729	 0.007831
C	-2.8157203194	-2.5900825565	 0.1564200333	-0.207672
C	-2.8532509412	-4.120100675	 0.0503403495	-0.213481
C	-2.1734444538	-4.5716332562	-1.2429134538	-0.06347
O	-0.8502198324	-4.0725259106	-1.3378864726	-0.247298
C	-0.8045770484	-2.6569192167	-1.329844955	-0.074311
H	 0.7560326247	 1.9000196237	 0.1162533098	 0.285135
H	 0.6052401779	-0.1642722415	-0.904629535	 0.087859
H	 0.5978584956	-0.3197718712	 0.8619320087	 0.085354
H	-1.9050379147	-0.1508899164	 0.8365732578	 0.104651
H	-1.8849400071	-0.1347194373	-0.9182582991	 0.101874
H	-0.7686182782	-2.4243245313	 0.7942956835	 0.07411
H	-3.2149521976	-2.2566378554	 1.121027431	 0.094057
H	-3.4655717513	-2.1555652581	-0.6172526173	 0.093248
H	-2.3244152412	-4.5662692665	 0.9015635288	 0.102134
H	-3.8848514281	-4.4899334135	 0.0771431736	 0.09238
H	-2.0922540429	-5.6614553661	-1.2942975138	 0.102921
H	-2.7655564612	-4.2354761181	-2.1130273535	 0.080827
H	-1.3577415216	-2.2528623208	-2.1981203672	 0.080328
H	 0.2494793305	-2.3943440469	-1.4560294021	 0.102431
