14
gdb 127502	3.05567	1.33324	0.93372	2.1277	76.22	-0.2236	-0.0197	0.2039	1184.7901	0.100602	-432.841384	-432.83296	-432.832016	-432.87498	30.26	
C	-0.0353192006	 1.3752294575	-0.0566282797	-0.311644
N	 0.0165434793	-0.0702265246	-0.0244342639	 0.124679
N	 0.13495637	-0.7957862162	-1.1454556452	-0.329427
C	 0.1450940156	-2.0433296236	-0.6958391056	 0.269549
O	 0.2499540123	-3.1173235359	-1.4894914763	-0.417552
C	 0.0303388241	-2.0414331921	 0.7138039483	 0.118419
N	-0.0494266562	-0.7529838531	 1.0998496149	-0.294686
C	-0.0011587971	-3.1337458034	 1.6055392433	 0.287901
C	-0.0254979944	-4.0836071847	 2.3438069547	-0.427214
H	 0.8796662223	 1.773646413	-0.5025598758	 0.153668
H	-0.8942229028	 1.7068796569	-0.6457838878	 0.153661
H	-0.1313195065	 1.7185855723	 0.9720930514	 0.168322
H	 0.313726568	-2.8056696317	-2.4009904535	 0.311053
H	-0.0471704341	-4.9200828343	 2.9972736951	 0.193271
