15
gdb 43584	3.49931	1.27538	1.0602	1.6008	69.1	-0.2713	-0.0299	0.2415	1087.602	0.113763	-416.824999	-416.817503	-416.816559	-416.857721	27.809	
O	 0.0473493762	 0.0219948283	-0.2884918537	-0.291698
C	 0.0183761525	 1.2063821021	-0.133821492	 0.39438
C	-1.245817858	 2.0478541002	 0.1180748312	-0.36688
C	-0.7810288771	 3.521425441	 0.050958311	-0.172319
C	-1.3203437158	 4.3692379121	 1.1119690457	 0.276745
N	-1.7410916762	 5.0318719744	 1.9602354179	-0.316662
C	 0.7561853206	 3.4298734328	 0.0745415766	-0.030832
C	 1.4116980627	 2.6912270058	 1.1687816861	-0.248362
N	 1.1894213865	 2.0432223435	-0.1580282612	-0.134534
H	-2.012026364	 1.809515911	-0.6207373214	 0.161033
H	-1.6503733459	 1.7774479629	 1.09699274	 0.165632
H	-1.0784026496	 3.9580999408	-0.9076232812	 0.143524
H	 1.3041026292	 4.1937818352	-0.4660073232	 0.1257
H	 2.4545952253	 2.8740765972	 1.4026346381	 0.150042
H	 0.8066727637	 2.3539578028	 2.0066139962	 0.144233
