11
gdb 21619	4.02546	2.06119	1.36332	4.5358	56.	-0.252	-0.0655	0.1865	804.0496	0.07246	-430.726767	-430.719969	-430.719025	-430.758023	24.205	
N	 0.0116232949	 1.3407922466	 0.0612203682	-0.546265
C	-0.0486256186	-0.0024812013	 0.0201520586	 0.542727
N	-1.1787567161	-0.633234087	 0.0144122321	-0.395652
C	-1.127962289	-2.012583281	-0.0037475123	 0.365054
O	-2.1001018693	-2.7362342983	-0.0114754072	-0.344551
C	 0.2463912732	-2.5926805885	-0.0171573769	-0.046942
N	 1.3414808124	-1.9357027478	-0.016806572	-0.048915
O	 1.1978304085	-0.5338584467	 0.0020124525	-0.261832
H	 0.8918507585	 1.8143224178	-0.0411784661	 0.28404
H	-0.8522839383	 1.8497969633	-0.0099609755	 0.289672
H	 0.3567784238	-3.673142327	-0.0313189615	 0.162664
