15
gdb 35123	2.49197	1.5654	1.36859	3.8729	70.38	-0.2651	-0.0358	0.2294	987.6681	0.114392	-416.807283	-416.79965	-416.798706	-416.83979	28.065	
N	 0.8423327854	-0.3789492742	 1.2719623942	-0.332915
C	 0.3611102661	 0.4104569308	 0.5780228557	 0.296465
C	-0.2558027604	 1.4328444797	-0.2931846682	-0.172863
C	-1.3448006923	 2.1870468071	 0.4635026422	-0.057508
C	-1.070734262	 3.1012749533	 1.3885316624	-0.070745
C	 0.3455985175	 3.4425952354	 1.7632080823	-0.145735
O	 1.1068286092	 3.9985129476	 0.6709631976	-0.214181
C	 1.2718888001	 3.308503828	-0.472352716	 0.160374
N	 0.7787244443	 2.2407590445	-0.9424432853	-0.265232
H	-0.7391968789	 0.8765444349	-1.1043507996	 0.141809
H	-2.3700364241	 1.9452323596	 0.2014871398	 0.118719
H	-1.8737640669	 3.6279603905	 1.8945805995	 0.117238
H	 0.3809797062	 4.2175114564	 2.5295773733	 0.133129
H	 0.8755008789	 2.5615156435	 2.1458606928	 0.154494
H	 1.9930617768	 3.8457840829	-1.0890275008	 0.136952
