21
gdb 103621	2.68616	1.15888	0.9833	2.0299	74.08	-0.2495	0.0523	0.3018	1275.1079	0.180451	-461.342069	-461.331891	-461.330947	-461.376849	38.116	
C	-0.5973341887	 1.6428603776	 0.0728760616	-0.47258
C	-0.0736307208	 0.2111572483	 0.0250939073	 0.293702
C	-1.204883379	-0.7887350711	-0.2568544717	-0.112203
O	-1.7793378266	-0.6413763473	-1.5442997262	-0.422597
C	 1.1646081365	-0.0510227345	-0.8881019446	-0.318358
C	 1.8169241051	-0.8669252155	 0.2616958638	 0.143634
O	 3.1601043698	-0.6298307881	 0.5903261028	-0.444428
C	 0.7595131832	-0.2725592954	 1.2510728537	 0.019087
O	 1.297726993	 0.8280783097	 1.969371677	-0.439123
H	 0.1891929524	 2.3379048089	 0.3720863665	 0.13495
H	-0.9575192398	 1.953893714	-0.9148649431	 0.106044
H	-1.421912703	 1.7471991571	 0.7881960548	 0.111741
H	-0.8219577074	-1.8150807497	-0.228538621	 0.107907
H	-1.9674309359	-0.7052252283	 0.5354801045	 0.086751
H	-2.2221536249	 0.2121259574	-1.575852101	 0.286093
H	 0.9702971604	-0.5638542709	-1.8323672358	 0.113468
H	 1.7302281133	 0.8629801828	-1.0930535445	 0.093779
H	 1.7129140342	-1.9467617902	 0.1295154183	 0.089284
H	 3.2051363053	 0.2993273868	 0.8503437482	 0.275057
H	 0.2562459947	-0.9713931266	 1.9336507777	 0.056378
H	 1.8173619381	 0.4682008652	 2.6961886418	 0.291414
