14
gdb 131416	5.03311	1.09755	0.93722	4.357	65.28	-0.2414	-0.0026	0.2389	1182.726	0.102084	-469.977767	-469.970402	-469.969457	-470.010277	26.965	
O	-0.2618571087	 1.2559668639	 0.0420281068	-0.402886
C	-0.0048129207	-0.0468563408	-0.0708684658	 0.446868
N	 0.5258272846	-0.543436882	-1.158869172	-0.211
O	 0.6099661281	-1.9260905231	-0.830781098	-0.214249
C	 0.1203638041	-2.0526723063	 0.4043513752	 0.510305
N	-0.2862495413	-0.9317850369	 0.9377744006	-0.426261
N	 0.1717733784	-3.2886939371	 0.9842861813	-0.154888
C	-0.9837844913	-3.8386291186	 1.6780575241	-0.216981
C	-0.5087249787	-4.4392359718	 0.3952873332	-0.227397
H	-0.6307429957	 1.3946196561	 0.9227059222	 0.317631
H	-0.7608226035	-4.3251974345	 2.6218152086	 0.140217
H	-1.8971215167	-3.2515882745	 1.6587092403	 0.148004
H	-1.1006847855	-4.2645839247	-0.498314972	 0.148158
H	 0.0637611267	-5.3606921597	 0.4017288254	 0.142479
