22
gdb 89434	2.83539	1.59851	1.37194	1.3585	84.55	-0.2306	0.0895	0.3201	1067.1687	0.195514	-367.189128	-367.181004	-367.18006	-367.221081	33.208	
C	-0.3382524086	 1.5322670807	 0.0490488816	-0.399527
C	 0.031195083	 0.0538127548	-0.0410455262	 0.059883
C	 0.7565312001	-0.3972461805	-1.3455672329	-0.281275
C	 2.1639144307	-0.78266786	-0.8669903731	 0.327941
C	 2.9847532398	-1.636034961	-1.8125289502	-0.490937
C	 2.8507533566	 0.4903182592	-0.2671675289	-0.290526
C	 2.2966528995	 0.0927921184	 1.1068888211	-0.048391
C	 1.9293881745	-1.2687997848	 0.6064784998	-0.106102
N	 0.8996474834	-0.3719005253	 1.0847825651	-0.097642
H	 0.5354169737	 2.1801053917	-0.0664666689	 0.119668
H	-1.0594763992	 1.7957662439	-0.7310070776	 0.113139
H	-0.7919015471	 1.7492515148	 1.0208062268	 0.124216
H	-0.8906925359	-0.5281260368	 0.0726199002	 0.078907
H	 0.2501169541	-1.2593903252	-1.7949431015	 0.08987
H	 0.790370964	 0.3949712823	-2.1016464257	 0.095042
H	 3.1793665521	-1.111027648	-2.7545453973	 0.117101
H	 3.9536603403	-1.8972351266	-1.3732416909	 0.114585
H	 2.4631423438	-2.5694703148	-2.0547536679	 0.113952
H	 3.9407521107	 0.3916859159	-0.273638351	 0.099314
H	 2.5829722484	 1.4639939644	-0.6906008574	 0.090327
H	 2.6933140727	 0.3978627032	 2.0691957614	 0.08776
H	 2.0629554432	-2.2619103265	 1.0214462435	 0.082696
