17
gdb 46001	4.13671	0.99979	0.85896	3.7328	77.44	-0.244	-0.0317	0.2123	1315.211	0.137646	-418.026348	-418.018161	-418.017217	-418.060359	29.869	
O	-0.3390935362	 0.2625260187	-0.9179592862	-0.389839
C	-0.2259574147	 1.365019431	-0.4261930971	 0.443922
N	-0.766732223	 1.7857929004	 0.7740643493	-0.35082
C	-0.4972602576	 3.1708360551	 1.0615305145	-0.251911
C	 0.3633650225	 3.5913096261	-0.113067921	 0.357309
C	 0.5030751876	 2.5542109429	-0.950712273	-0.385269
C	 0.9016720751	 4.9616830744	-0.1926282394	-0.104915
C	 2.3667243195	 5.1801825071	-0.422059226	-0.22864
N	 1.397814803	 5.5188690391	-1.4625887579	-0.308842
H	-1.382604958	 1.1999851433	 1.3108444775	 0.254626
H	-1.4121517816	 3.7804381066	 1.1121373766	 0.129272
H	 0.0363206541	 3.3099956645	 2.013487974	 0.129217
H	 1.043071813	 2.5122481019	-1.8866213711	 0.113662
H	 0.3785978527	 5.6919574924	 0.4211962652	 0.096618
H	 2.8603564026	 6.0285721412	 0.0440363066	 0.1284
H	 2.981398659	 4.2920587718	-0.5389229762	 0.126139
H	 1.380547642	 4.7995597837	-2.1816496358	 0.24107
