22
gdb 26361	3.81503	0.9308	0.89937	1.9796	90.4	-0.1938	0.0539	0.2477	1460.8405	0.193878	-367.262662	-367.252804	-367.25186	-367.297883	36.688	
C	 0.0245156765	 1.5349372094	-0.0351546768	-0.378943
C	-0.0138830658	 0.0042869069	 0.0597962538	 0.037465
C	 0.7668454426	-0.5184455239	 1.2724638524	-0.379002
N	-1.3882889693	-0.4952148562	 0.0556360165	 0.024873
C	-2.35013445	-0.2406633658	 1.0025729346	-0.090992
C	-3.5047104201	-0.8915090352	 0.6340354616	-0.268259
C	-3.2467526522	-1.5758999672	-0.5896630949	 0.256837
C	-4.2043466925	-2.4207131808	-1.3756770085	-0.496703
C	-1.9344201089	-1.3068005547	-0.9116685111	-0.190031
H	 1.0584929759	 1.8849586465	-0.1133875459	 0.115995
H	-0.5279634835	 1.8829751458	-0.9119496991	 0.128309
H	-0.4202598786	 1.9956383783	 0.8524461997	 0.122365
H	 0.4438920564	-0.4071252647	-0.846027431	 0.091296
H	 0.7349567759	-1.6104584433	 1.3127510814	 0.128313
H	 1.8130800627	-0.2023410498	 1.2157666752	 0.116007
H	 0.3486732867	-0.1309492277	 2.2067403722	 0.122366
H	-2.137561557	 0.3798752633	 1.8584012677	 0.111528
H	-4.4364803386	-0.8806789479	 1.1805736478	 0.085506
H	-5.0835428715	-1.849690425	-1.6976302446	 0.12036
H	-3.7288184245	-2.8247252859	-2.2746537792	 0.113637
H	-4.5748446719	-3.270569345	-0.7899098487	 0.120346
H	-1.3408467624	-1.628046577	-1.7542680732	 0.108726
