21
gdb 10078	2.00332	1.74369	1.06581	3.5936	76.	-0.2482	0.0343	0.2825	1195.1449	0.18734	-366.304268	-366.294195	-366.293251	-366.340355	35.26	
C	-0.2183913156	 1.4648164418	 0.3860205623	-0.384331
C	-0.0543582202	-0.0404166283	 0.1648885808	-0.178995
C	 0.6389700159	-0.4098866025	-1.1582715557	 0.042826
C	 0.891268683	-1.924169801	-1.264670535	-0.178894
C	 1.690446601	-2.3397230128	-2.5016647351	-0.384323
N	-0.1267512484	 0.0761943951	-2.304834421	-0.267314
C	 0.3360947641	 0.987049194	-3.2025044756	 0.15448
O	 1.4289060863	 1.512980493	-3.176985072	-0.326735
H	 0.7521160997	 1.9715147055	 0.3891185448	 0.127834
H	-0.8237576686	 1.9188287843	-0.4039207245	 0.118424
H	-0.7080810363	 1.6681810428	 1.3431119488	 0.111867
H	 0.5316879307	-0.4728489476	 0.9846775939	 0.10158
H	-1.0362810324	-0.5339479451	 0.2036561845	 0.086338
H	 1.5962462465	 0.1178375638	-1.2205655334	 0.12072
H	 1.4206858376	-2.2419956736	-0.3584645586	 0.101544
H	-0.0747662456	-2.4493042837	-1.2489822405	 0.086319
H	 1.8466613037	-3.4225074632	-2.5204465185	 0.111828
H	 1.1711899284	-2.0594565572	-3.4227565104	 0.118448
H	 2.6728008281	-1.8566690633	-2.5177499246	 0.127888
H	-1.0588704075	-0.2852091084	-2.4419144948	 0.2411
H	-0.4179923205	 1.2044421265	-3.9862249655	 0.069395
