19
gdb 112077	1.94799	1.53789	0.94286	1.5756	77.2	-0.2387	-0.0233	0.2154	1244.0746	0.158402	-423.036651	-423.027531	-423.026587	-423.071364	33.023	
O	-0.0462436796	 1.4246230473	 0.0483280164	-0.427715
C	 0.0674162073	 0.0094537374	 0.0333884959	-0.103569
C	-1.3554857872	-0.5465991518	-0.0302898096	-0.028436
C	-2.0992815704	-0.2369745459	-1.3094822668	-0.053856
C	-2.8114991512	-1.2733397247	-1.7445042144	-0.075111
C	-2.6753244667	-2.4755872027	-0.8408392318	-0.290356
C	-1.4718655414	-2.1080388505	 0.0741987267	-0.112618
C	-0.2188290935	-2.7923681489	-0.4379083967	 0.16055
O	 0.6353178429	-3.2728270359	 0.2630885415	-0.262026
H	 0.839482425	 1.7983068603	 0.0702447289	 0.289649
H	 0.6512019253	-0.3309457633	-0.8365260389	 0.090296
H	 0.5733742366	-0.3661673989	 0.9356890967	 0.106023
H	-1.8889997189	-0.0920279673	 0.8169840784	 0.100686
H	-2.0620936253	 0.7486014392	-1.757307123	 0.110644
H	-3.4532376534	-1.2735444638	-2.6185517184	 0.097058
H	-3.5858235136	-2.638152102	-0.2495692291	 0.117544
H	-2.50337395	-3.408487078	-1.3940840258	 0.107683
H	-1.6037887537	-2.4238906208	 1.1111567108	 0.093864
H	-0.1339956624	-2.8301670097	-1.5495036609	 0.079688
