13
gdb 25361	7.15878	0.85167	0.76112	2.4796	73.04	-0.2666	-0.0768	0.1898	1361.3125	0.088713	-456.611729	-456.604134	-456.60319	-456.64444	26.619	
O	-0.0037953012	-0.0789595064	-0.001351765	-0.268228
C	-0.0123918434	 1.1294462917	 0.0086940225	 0.078018
C	 1.1701759396	 1.9801543302	 0.0030078301	 0.2863
C	 1.3060383797	 3.3408714731	 0.0128687465	-0.373602
C	 2.7084630199	 3.610858976	 0.0000142778	 0.157566
C	 3.3919378423	 4.9093536557	 0.0035186958	 0.076606
O	 4.5938270921	 5.0431904909	-0.0085079681	-0.263765
C	 3.3159418788	 2.3764541192	-0.016910896	-0.04568
O	 2.4121877646	 1.3942034784	-0.0152996538	-0.144919
H	-0.9561607373	 1.7163611129	 0.0239330277	 0.087141
H	 0.5015643801	 4.0610115865	 0.0275632514	 0.146436
H	 2.7122112043	 5.7888334162	 0.0180783213	 0.080077
H	 4.3539935006	 2.0855643757	-0.0305623102	 0.184049
