20
gdb 111649	2.22305	1.55496	1.19938	3.8002	78.6	-0.2368	0.0318	0.2687	1136.4662	0.172811	-403.188406	-403.179843	-403.178898	-403.221943	32.496	
C	 0.3187241184	 1.4000284892	-0.2059006354	-0.377208
C	-0.2138755384	 0.0056623955	 0.1481023151	-0.214463
C	 0.5770204036	-0.6407050289	 1.2690084258	 0.005098
C	 0.7524024609	-2.1214580768	 1.4711789292	-0.095003
C	 0.4737545191	-3.0595584394	 0.2958223321	-0.190603
N	 1.4237206258	-2.6273296836	-0.7142612174	-0.302222
C	 2.3284488547	-1.6720821259	-0.3167650126	 0.40761
O	 3.2492300188	-1.2490806079	-0.9830474938	-0.390754
C	 1.94907653	-1.2725058345	 1.0860804197	-0.177492
H	 1.3519500748	 1.3395416641	-0.5612013871	 0.142432
H	-0.2846937422	 1.8651989584	-0.9913919088	 0.110416
H	 0.3016527763	 2.0637188902	 0.6657097437	 0.110789
H	-1.2646904265	 0.075552139	 0.457992012	 0.094668
H	-0.1980452413	-0.6250830238	-0.7459375339	 0.108769
H	 0.5054742579	-0.0907541163	 2.2058299109	 0.091896
H	 0.6452791413	-2.5314861287	 2.4680134658	 0.09517
H	 0.6468569353	-4.1033872678	 0.5894299052	 0.11209
H	-0.5606300537	-2.9833395798	-0.0645348199	 0.112423
H	 1.471039342	-3.0191983499	-1.6408344252	 0.249991
H	 2.7570876833	-1.0146743031	 1.7580654145	 0.106393
