17
gdb 52137	4.4802	0.80192	0.71709	2.518	72.17	-0.2424	-0.0018	0.2406	1519.5748	0.134915	-458.979317	-458.970488	-458.969543	-459.014945	30.1	
O	 0.33706997	 0.1093580596	-0.216879796	-0.268832
C	 0.3927878692	 1.2980572767	-0.2963871923	 0.176876
O	 0.8238105978	 2.0759824226	 0.7183223466	-0.167373
C	 0.9115417926	 3.4821066195	 0.4783690917	-0.205673
C	 2.3061027838	 3.9126656387	 0.1644031096	 0.274257
C	 3.4098322536	 3.1755160679	 0.0925443489	-0.199097
C	 4.5826664959	 4.0486152567	-0.2460249848	-0.104155
O	 4.0481767819	 5.3652560343	-0.3756056639	-0.262607
C	 2.6511697702	 5.3546796998	-0.1185634335	-0.148593
H	 0.0926873512	 1.8840929758	-1.1874563435	 0.081651
H	 0.2245854913	 3.7710636193	-0.3319785322	 0.120844
H	 0.5460533171	 3.9711399354	 1.3890607157	 0.141222
H	 3.4837237087	 2.1094936037	 0.259873334	 0.127647
H	 5.3549509181	 4.0332588837	 0.5392110389	 0.111792
H	 5.0725965803	 3.7521613536	-1.1865330594	 0.11157
H	 2.1051758837	 5.7530014162	-0.989813415	 0.104472
H	 2.4162733944	 6.0133500466	 0.7343870651	 0.105999
