23
gdb 58805	3.4823	1.0259	0.92312	1.495	85.76	-0.2443	0.0775	0.3219	1381.3949	0.204633	-388.268254	-388.258471	-388.257526	-388.302602	37.641	
C	 0.1658016365	 1.5658924479	-0.107949415	-0.383695
C	 0.021616087	 0.0386156421	 0.0063616523	-0.081685
C	 0.4937684682	-0.6551205827	-1.2778476365	-0.400665
C	 0.7131332322	-0.4656779441	 1.2534677081	 0.398704
C	 2.1674880879	-0.8284474597	 1.3635962875	-0.325576
C	 1.1354982818	-1.883986236	 1.6730769166	-0.130847
C	 0.5656976467	-1.6658400114	 3.0646768646	 0.126446
O	 1.5051531656	-1.8678155058	 4.1007881308	-0.434709
C	 0.1830507322	-0.1953091344	 2.6727774749	-0.348209
H	 1.2168170268	 1.8467215569	-0.2389099605	 0.116099
H	-0.3959505132	 1.9506761915	-0.9656514811	 0.10664
H	-0.2049825213	 2.0711115151	 0.7896899988	 0.114355
H	-1.0496157026	-0.184065351	 0.1255661592	 0.068087
H	 1.5370350247	-0.410814118	-1.505225446	 0.116906
H	 0.4084825189	-1.7437966814	-1.202604197	 0.11421
H	-0.1104618841	-0.3306721496	-2.1310526237	 0.111373
H	 2.6953921036	-0.9795328823	 0.4280950862	 0.107419
H	 2.7826359396	-0.4243902772	 2.1627709781	 0.113699
H	 1.0916724866	-2.8138643666	 1.1182542613	 0.080067
H	-0.3355655876	-2.2714043847	 3.2310399004	 0.06567
H	 1.078627693	-1.6547689142	 4.937023759	 0.280426
H	 0.6989696878	 0.5892671989	 3.2363049166	 0.091939
H	-0.8953625404	-0.0154062036	 2.7122864355	 0.093345
