16
gdb 97321	4.75176	0.79869	0.68666	1.0151	73.97	-0.2393	-0.0515	0.1878	1587.0699	0.123566	-471.268875	-471.259348	-471.258404	-471.303895	33.276	
C	 0.0045591177	 1.6200535827	-0.2451355058	-0.311553
N	-0.1328244615	 0.2029376339	 0.0092953625	-0.164842
C	 0.5233057176	-0.5829962804	-0.726818923	 0.100569
N	 0.5005562387	-1.970569461	-0.6113379514	-0.357832
C	-0.1888296638	-2.760965797	 0.2659012036	 0.34131
O	-0.9443306902	-2.4255832532	 1.1511559652	-0.344826
C	 0.1268876613	-4.2516110923	-0.0185295001	 0.344332
N	-0.5328379758	-5.0632200349	 0.8242848988	-0.517241
O	 0.8881208897	-4.5894044882	-0.9105668043	-0.381021
H	 0.6865740705	 1.8627058704	-1.077110982	 0.095851
H	-0.9803299051	 2.0466667394	-0.4664150173	 0.134099
H	 0.3687999676	 2.1182504657	 0.6604548368	 0.134107
H	 1.1868206827	-0.2588153885	-1.5421383095	 0.091069
H	 1.065134702	-2.5154369321	-1.2540901286	 0.276386
H	-1.1317637471	-4.6398927278	 1.5164000717	 0.286816
H	-0.4266638844	-6.0609969768	 0.7603139434	 0.272775
