18
gdb 49091	3.46875	1.51216	1.259	2.559	76.43	-0.2345	-0.0245	0.2099	1012.1858	0.149439	-401.919312	-401.912177	-401.911233	-401.950826	28.331	
O	-0.1875860551	 0.4002873734	-0.7575505821	-0.277296
C	 0.1791481211	 1.0918523914	 0.1663736875	 0.052864
C	 1.4166397001	 1.8961215091	 0.1766423033	 0.245825
C	 1.8869046778	 2.6421667345	 1.4198999695	-0.343387
C	 2.4919737979	 3.9476130633	 0.8144638848	-0.161804
N	 2.7779187416	 3.6492991314	-0.6029467789	-0.124244
C	 3.6788567853	 2.4351190352	-0.6852613192	-0.200955
C	 2.4575161048	 1.5529213806	-0.9053608754	-0.110282
C	 1.6510615021	 2.7968877922	-1.048666665	-0.045996
H	-0.4368910464	 1.1837634652	 1.0896496116	 0.069422
H	 1.051515056	 2.8480039544	 2.0971778861	 0.106955
H	 2.6289413143	 2.0737425326	 1.9894310571	 0.110995
H	 1.7622916087	 4.763004779	 0.851255903	 0.112138
H	 3.4015636895	 4.2828157341	 1.3201446784	 0.109974
H	 4.3135882422	 2.4997060081	-1.5726343249	 0.122287
H	 4.3052036935	 2.2601223077	 0.1962414749	 0.10428
H	 2.3763090202	 0.6257389271	-1.4578798828	 0.117007
H	 0.8781487363	 3.1092689209	-1.7380787778	 0.112217
