15
gdb 28767	3.4506	1.6598	1.24795	2.5077	71.6	-0.1987	0.0232	0.2219	963.1814	0.115181	-416.77553	-416.768927	-416.767983	-416.806471	26.398	
O	 0.0165946254	 1.3572617487	 0.0046346505	-0.418551
C	 0.0305362003	 0.0178179796	 0.076958053	 0.413775
N	 1.0947051907	-0.749999005	 0.1173077738	-0.369687
C	 0.6287038131	-2.0614698106	 0.2297971641	-0.189028
C	-0.7338056159	-2.0533701392	 0.1465239491	 0.202294
C	-2.126563759	-2.4528045309	 0.589546106	-0.201365
C	-2.4699616014	-1.6339870413	 1.8277807839	-0.273532
C	-2.4831546104	-0.9680750861	 0.4788027225	-0.018667
N	-1.1100750683	-0.7179076075	 0.0012815833	-0.067659
H	 0.9418832147	 1.6342613188	-0.0083440888	 0.313067
H	 1.3182874238	-2.8848355319	 0.3260157815	 0.110353
H	-2.7085204836	-3.3041933886	 0.2672515047	 0.113678
H	-3.45158475	-1.8172661028	 2.2578260808	 0.124394
H	-1.6933822316	-1.389845266	 2.5455204626	 0.135732
H	-3.3323042878	-0.478849277	 0.0230200631	 0.125198
