18
gdb 125096	2.99986	1.28882	0.9768	4.8939	79.64	-0.2286	0.0031	0.2318	1223.5819	0.148703	-398.125841	-398.117264	-398.116319	-398.16091	30.95	
C	 0.1853408221	 1.5167939864	 0.1192063709	-0.506379
C	 0.040791993	 0.0342655054	-0.004417963	 0.208008
C	-0.1221961022	-0.7495329829	-1.13212809	 0.300787
N	-0.1953016705	-2.0089651289	-0.6269657793	-0.264818
N	-0.0868233463	-2.0206031865	 0.7181630709	-0.128143
N	 0.0557399755	-0.7833909574	 1.0901912906	-0.244157
C	-0.2064033317	-0.3983590139	-2.5572563922	-0.088917
C	 0.3813661856	-1.2890033249	-3.6363797201	-0.270981
C	-1.1094371702	-1.1537138914	-3.5149603733	-0.270977
H	 1.0650078699	 1.8910564414	-0.4162483695	 0.127494
H	-0.6888275029	 2.0499521367	-0.2709054903	 0.127529
H	 0.2962210606	 1.7760473489	 1.174152932	 0.149499
H	-0.3141550834	-2.8832073048	-1.1129026374	 0.273082
H	-0.1235343844	 0.6689562164	-2.7289294677	 0.100894
H	 0.8799656016	-0.8080488349	-4.4701547788	 0.127101
H	 0.8448696696	-2.2183725315	-3.3221590796	 0.116438
H	-1.6751333496	-1.9896832618	-3.1169148565	 0.11644
H	-1.6412382767	-0.5792521865	-4.2648143266	 0.127101
