21
gdb 108949	3.50511	1.04088	1.02091	1.7787	84.39	-0.2187	0.0146	0.2333	1305.4964	0.18297	-387.091	-387.082181	-387.081237	-387.124526	34.19	
C	 0.0842927442	 1.435866299	 0.2594728644	-0.374055
C	-0.0596299532	-0.0391643143	-0.1553723914	-0.28826
C	-1.4771459771	-0.5335804177	-0.127754071	 0.30568
C	-2.187041784	-1.0052146817	-1.1642927024	-0.213397
C	-3.5415607763	-1.4819988217	-0.7707660365	-0.133271
C	-3.554997773	-2.6310294111	 0.2218566164	 0.127164
O	-2.4544807513	-3.4578711779	 0.4387756977	-0.428254
C	-3.6229890665	-1.219854653	 0.7418103698	-0.107632
C	-2.3037674256	-0.5676189057	 1.1514115458	-0.319477
H	 1.1310029088	 1.7506266019	 0.2100583497	 0.115176
H	-0.4980073981	 2.0863225797	-0.4006847673	 0.121639
H	-0.2638264712	 1.6001975303	 1.2838531653	 0.122019
H	 0.3516796285	-0.1783688877	-1.1615359255	 0.102682
H	 0.5561455691	-0.6520639388	 0.5180973042	 0.105415
H	-1.8146254376	-1.0754052066	-2.1812965535	 0.09047
H	-4.3822646624	-1.3515586979	-1.4439262438	 0.083797
H	-4.4732246004	-3.2082679168	 0.2731412029	 0.101168
H	-1.6950029811	-3.0446808809	 0.007657557	 0.280585
H	-4.542298299	-0.8818737536	 1.2063766514	 0.083202
H	-1.7945417684	-1.1435135486	 1.9368565818	 0.116151
H	-2.4590461155	 0.440359943	 1.5549927751	 0.109197
