19
gdb 73291	2.81707	1.84545	1.29783	1.6137	74.28	-0.2393	0.0711	0.3104	998.7199	0.159525	-422.979425	-422.971871	-422.970927	-423.010753	31.29	
C	-0.0076364629	 1.4972903618	 0.0225814496	-0.499471
C	 0.0452624516	-0.0096213494	-0.0302725323	 0.345535
C	 0.4373862464	-0.7167438557	-1.3342725271	-0.296
C	 0.3545335245	-2.2135138699	-0.9152243472	-0.294821
C	-0.0650337114	-2.0457704441	 0.5313589904	 0.467052
O	-0.2477551673	-3.1960877701	 1.2679835519	-0.494973
C	 0.6580303543	-0.8068410847	 1.1604780014	-0.068638
O	-0.5256722736	-0.5456425682	 2.0048534091	-0.345367
C	-1.0680173924	-0.8500428333	 0.6648675183	-0.068635
H	 0.9688526851	 1.9343232921	-0.2143932164	 0.115389
H	-0.7289856707	 1.8918142269	-0.701775312	 0.11539
H	-0.3027577303	 1.8285250296	 1.0217571305	 0.137056
H	-0.252128616	-0.4692735009	-2.1477105355	 0.104228
H	 1.4409878564	-0.4268843168	-1.661561735	 0.104228
H	-0.3860122713	-2.780699244	-1.4860805115	 0.111032
H	 1.3103804269	-2.738229402	-0.9989781613	 0.111032
H	-0.5090031577	-2.8995941033	 2.1520811338	 0.286619
H	 1.6415241028	-0.7246291721	 1.6274067163	 0.085171
H	-2.1520174343	-0.8195825456	 0.5381524269	 0.085172
