17
gdb 38346	3.95954	1.4159	1.20319	2.2808	67.87	-0.2414	0.0758	0.3173	1023.1695	0.136443	-458.877602	-458.870538	-458.869594	-458.909554	27.41	
C	-0.0941249762	 1.5818291558	 0.0795471071	-0.24097
C	 1.4172552261	 1.242749964	 0.0796111398	-0.02252
O	 1.1268220639	 0.1438925601	 1.028625628	-0.311143
C	 0.0722315263	 0.0451271188	-0.0058269297	-0.032636
C	 1.1729495616	 0.251669925	-1.0902982361	 0.467894
C	 0.8364546714	 0.6959927053	-2.5314528487	-0.202212
O	 1.8189690205	 0.0572339574	-3.3306672807	-0.236345
C	 2.1597707137	-1.1033342703	-2.6168479311	 0.004015
O	 2.1340188846	-0.7602249977	-1.2492198352	-0.288841
H	-0.463147675	 1.9278315408	 1.0440089055	 0.119362
H	-0.5271196282	 2.1266143319	-0.7636307673	 0.101337
H	 2.2801867996	 1.8761815808	 0.2851174679	 0.101109
H	-0.6697898682	-0.7468096977	 0.0997907855	 0.098789
H	-0.1766885595	 0.370158226	-2.8139105971	 0.105123
H	 0.9149626444	 1.7738204433	-2.6885066229	 0.126829
H	 1.4394763281	-1.9169214261	-2.8214490282	 0.085102
H	 3.1704521667	-1.4143154873	-2.8938175768	 0.125107
