20
gdb 87457	2.80725	1.36502	1.24069	1.9916	80.05	-0.2336	0.07	0.3036	1126.6051	0.170682	-403.072454	-403.063928	-403.062984	-403.10513	33.612	
C	-0.0500915482	 1.5186599449	-0.1180705692	-0.391898
C	-0.0275791734	 0.0197258825	 0.0565070171	-0.13838
N	 1.3096589429	-0.6436587533	-0.0997440082	-0.440784
C	 0.6327423927	-0.6564192662	 1.1780578271	 0.439906
C	 1.1722420183	-0.2662234151	 2.5681693434	-0.142352
C	-0.1935480125	-0.7614490485	 3.1363962147	-0.284245
C	 0.2435075301	-1.8290629137	 2.0786574222	 0.296155
O	-0.4372546446	-2.9361148131	 1.6133386195	-0.477059
C	 1.688757739	-1.7344837504	 2.680265986	-0.291752
H	 0.8316314731	 1.9723114987	 0.3421072479	 0.123585
H	-0.0530667648	 1.787615988	-1.1798604239	 0.119681
H	-0.9444435395	 1.9528557522	 0.3425173727	 0.113495
H	-0.8723668068	-0.5092265875	-0.3841661368	 0.092022
H	 1.1988280128	-1.5422891227	-0.5662005889	 0.233005
H	 1.7086595467	 0.6353141228	 2.8491699251	 0.088682
H	-0.1837413822	-1.083429524	 4.1814844465	 0.085162
H	-1.0770026802	-0.165576905	 2.8969123097	 0.097943
H	-0.5260545532	-3.5727631198	 2.3303836332	 0.286516
H	 2.5139283057	-2.0130224055	 2.0222515929	 0.107056
H	 1.8191534244	-2.1204208143	 3.6956588089	 0.083261
