22
gdb 102619	1.88019	1.0306	0.76687	2.0971	78.91	-0.245	0.0349	0.2799	1573.9088	0.192149	-441.524061	-441.512746	-441.511802	-441.561952	39.974	
C	 0.0920730733	 1.6727402928	 0.1459733992	-0.391812
C	 0.093724075	 0.1465614037	 0.0009168696	-0.185446
C	-1.3022690421	-0.5003614859	-0.0710147598	 0.020631
C	-2.0506630836	-0.1308549246	-1.3592325145	-0.082254
O	-3.3594478701	-0.6858527428	-1.4238226649	-0.420013
C	-1.2244956249	-2.0254836019	 0.0727951311	-0.328986
C	-0.9343648488	-2.4794027043	 1.5010830058	 0.407325
N	-0.4405825339	-3.750150367	 1.607044021	-0.523249
O	-1.1275323419	-1.7795682569	 2.4779452152	-0.364482
H	 1.1120359452	 2.0510864943	 0.2662822996	 0.112749
H	-0.3395934595	 2.1758372256	-0.724835953	 0.115389
H	-0.4806372771	 1.9801615843	 1.0277064907	 0.122349
H	 0.6706680349	-0.1403950562	-0.8901035222	 0.08646
H	 0.6191978164	-0.2829230289	 0.8605251831	 0.114341
H	-1.8849559087	-0.1308150239	 0.7841347874	 0.088989
H	-2.0868432129	 0.9608620975	-1.4781787478	 0.090667
H	-1.5204123224	-0.533171166	-2.2312779385	 0.103879
H	-3.8723707801	-0.3032029258	-0.7042414734	 0.282929
H	-2.1893390715	-2.4555956575	-0.2235712784	 0.137326
H	-0.4743463148	-2.4425038055	-0.6120238888	 0.098446
H	-0.4011064816	-4.3691422948	 0.8160978203	 0.256761
H	-0.3565051607	-4.1462158063	 2.5292603883	 0.258004
