19
gdb 59379	4.42445	0.86137	0.83968	6.525	76.68	-0.2445	0.0225	0.267	1419.7048	0.158891	-419.197072	-419.187617	-419.186672	-419.231652	34.514	
C	 0.3199141219	 1.4780508717	 0.2674030539	-0.409834
C	 0.0723908557	-0.0300864046	 0.2137310734	 0.101539
O	 0.1605133656	-0.6189043179	 1.5100809385	-0.434749
C	-1.3087597037	-0.3791336883	-0.3417178536	 0.054418
C	-1.6743461905	-1.8860935055	-0.2939959811	-0.27099
C	-2.6146747908	-1.518764818	 0.8907950549	-0.107377
N	-2.4661569724	-0.0837191284	 0.5461903521	-0.319871
C	-3.9894993722	-2.0203557764	 0.8438253748	 0.293269
N	-5.0670482423	-2.4370240697	 0.8080700244	-0.32717
H	 1.3127888055	 1.6928172956	 0.6783942499	 0.111969
H	 0.2724416151	 1.9183856511	-0.7333972682	 0.127661
H	-0.4202703904	 1.9782473806	 0.9003441981	 0.126925
H	 0.815410514	-0.4882151071	-0.4614028641	 0.074289
H	 1.0151167043	-0.3942050187	 1.8897691079	 0.289078
H	-1.4064180218	 0.0918560466	-1.3267298477	 0.082267
H	-2.2099621643	-2.236134632	-1.1760898352	 0.1279
H	-0.8661408077	-2.5728540931	-0.0461773529	 0.125732
H	-2.1714392329	-1.79408253	 1.8532726996	 0.127364
H	-2.249065323	 0.5004583442	 1.3468203254	 0.22758
