18
gdb 113513	3.56743	1.01246	0.91535	4.9477	73.96	-0.2512	-0.0022	0.249	1327.2119	0.146756	-439.075578	-439.066902	-439.065958	-439.109323	31.665	
C	 0.3156906799	 1.5469896831	 0.1355905614	-0.379459
C	-0.2107522571	 0.1452924952	-0.1556035625	-0.123465
N	 0.5551084262	-0.4710284965	-1.2402031956	-0.112827
C	 1.7443567687	-1.2275089419	-0.8762342062	-0.306379
C	 0.5116505551	-1.9107151024	-1.3515409217	 0.122312
C	-0.3683406645	-2.9561653094	-0.6640211774	-0.152915
O	-0.5050620644	-3.645877435	-1.9461291298	-0.252014
C	 0.2569734551	-2.7046633751	-2.6151989699	 0.432848
O	 0.5374325781	-2.6775030053	-3.7672390129	-0.329018
H	 1.3562415619	 1.5127996831	 0.4737484931	 0.122626
H	 0.2713734296	 2.166992077	-0.7636094074	 0.137514
H	-0.2799900454	 2.0234488985	 0.9196682753	 0.119221
H	-0.1841178931	-0.465745729	 0.7642016535	 0.085968
H	-1.2563992939	 0.1960217019	-0.4794963865	 0.115939
H	 2.5981288254	-1.1281280353	-1.5401607195	 0.142039
H	 1.9812944361	-1.3433995476	 0.1819120422	 0.118138
H	 0.1118489541	-3.600671725	 0.0751369544	 0.12964
H	-1.3397378616	-2.6097788062	-0.3031022905	 0.129831
