20
gdb 89114	5.95172	0.5519	0.52804	3.6311	77.91	-0.2512	-0.0261	0.2251	2061.596	0.167755	-440.251873	-440.241453	-440.240509	-440.289354	35.398	
C	 0.0254578423	 1.4884794687	-0.2682930829	-0.395355
C	-0.0465194843	 0.0256661377	 0.1047783127	 0.000316
N	 1.2080381096	-0.7435151173	 0.0818034818	-0.332785
C	 0.5022992641	-0.5581383953	 1.3597758789	-0.029578
C	 1.2052519074	 0.2431047387	 2.4216118608	-0.05516
O	 1.9593701711	-0.6536242651	 3.2191416152	-0.252102
C	 2.6755495726	-0.0218298279	 4.2455147493	-0.140273
C	 3.4342385684	-1.0856426112	 5.0197817252	 0.140158
O	 4.1053386918	-0.8539131245	 5.9896673426	-0.238502
H	 0.952481975	 1.9459021128	 0.0835858939	 0.127702
H	-0.0081202864	 1.6044857962	-1.3567913481	 0.123487
H	-0.8202753995	 2.0420076975	 0.1540244519	 0.117173
H	-0.9353088856	-0.4787333295	-0.274237429	 0.083927
H	 1.0573462279	-1.6810369095	-0.2793578222	 0.232795
H	-0.0332281238	-1.4141191767	 1.7679002421	 0.089783
H	 1.8652583262	 0.9921741525	 1.962180989	 0.101132
H	 0.4705695803	 0.7761703279	 3.0495224942	 0.088983
H	 3.401005866	 0.7126441705	 3.8543670932	 0.122934
H	 2.0157393097	 0.522408966	 4.9432323853	 0.119119
H	 3.3132401572	-2.1092872815	 4.6016963162	 0.096245
