18
gdb 33795	3.48507	1.3839	1.19133	4.8362	75.38	-0.2639	0.006	0.2699	1063.3863	0.150096	-401.95807	-401.950683	-401.949739	-401.989703	29.377	
N	 0.0290758287	-1.1657441114	-0.0703751743	-0.335435
C	 0.0030618929	-0.012022976	-0.0133278023	 0.223944
C	-0.0094518584	 1.4443581843	 0.0940702425	 0.268829
C	-0.9453686844	 2.098497931	 1.1443561354	-0.293136
C	-1.1481972193	 3.1184378349	 0.003812284	 0.090888
C	-0.0599110428	 4.189000767	-0.0317646524	-0.201604
C	 1.2855388178	 3.5761667374	 0.4311849903	-0.232467
C	 1.3962638533	 2.0691597361	 0.0899914865	-0.23422
O	-0.7716035776	 2.086928223	-0.9652753749	-0.315166
H	-1.8342093846	 1.4924306333	 1.3168607986	 0.133231
H	-0.5122726683	 2.4260805168	 2.0901046628	 0.115164
H	-2.153468523	 3.5009858805	-0.1835121257	 0.089734
H	 0.0041266537	 4.5547569516	-1.0619245675	 0.119457
H	-0.3280200592	 5.0422649375	 0.6013886411	 0.101813
H	 2.1289906942	 4.1218920918	 0.0001178336	 0.111028
H	 1.3731096678	 3.6959262872	 1.5159059004	 0.111844
H	 2.0538694123	 1.5583777783	 0.800621863	 0.116555
H	 1.8074398067	 1.9134476568	-0.9120119111	 0.129542
