15
gdb 29313	3.26687	1.29329	0.93298	5.8802	77.84	-0.2187	-0.034	0.1847	1180.4827	0.113145	-416.852067	-416.843527	-416.842582	-416.885186	31.092	
C	-0.049364612	 1.5463766295	 0.0713287392	-0.528098
C	-0.0094007128	 0.0546410267	 0.029260544	 0.101017
C	 0.0032296936	-0.7574729136	-1.0761740855	 0.204605
O	 0.0250530581	-2.0710985562	-0.7217839471	-0.182394
C	 0.036655341	-2.102235177	 0.6381222836	-0.099194
C	 0.012914347	-0.8358412564	 1.1541538841	 0.163111
N	-0.0702992194	-0.4327393876	 2.4895734072	-0.607005
C	-0.0058610302	-0.4360080641	-2.4492040344	 0.224861
N	-0.0135103926	-0.1317841722	-3.5680428955	-0.353099
H	 0.8499542651	 1.9596401991	 0.5450657287	 0.132809
H	-0.1159388279	 1.9662362931	-0.9348552956	 0.155091
H	-0.9110816203	 1.8984839751	 0.6494427013	 0.147238
H	 0.0506122454	-3.0817084143	 1.0862273206	 0.138715
H	 0.1911328592	-1.1547230148	 3.1474874466	 0.250711
H	 0.4536129658	 0.4106573727	 2.6840299928	 0.251632
