19
gdb 117971	1.9691	1.14252	0.77111	2.4547	69.51	-0.2677	-0.0374	0.2302	1474.3632	0.155683	-497.295264	-497.284704	-497.28376	-497.331949	36.511	
C	-0.6228580119	 1.1858933459	-0.6914446309	-0.23293
O	-0.7775558238	-0.2174224029	-0.6820416115	-0.232399
C	-0.930883706	-0.7461425831	 0.6136039225	-0.090673
C	-1.0609066699	-2.2784237358	 0.5270503271	 0.016269
O	-0.9134610909	-2.8171190691	 1.8127410535	-0.43385
C	-2.3991202064	-2.712810633	-0.0679106189	 0.329635
O	-3.1837492306	-3.3310488422	 0.6288380537	-0.347292
C	-2.7502034628	-2.4069862385	-1.5070928327	-0.131571
O	-4.0238048462	-2.8773936277	-1.8418514578	-0.421659
H	-0.5047024131	 1.4930525591	-1.7327584101	 0.13496
H	-1.5008052677	 1.6938690946	-0.2647469332	 0.113517
H	 0.2667109211	 1.4953164067	-0.1228092249	 0.114837
H	-0.0518662128	-0.5321564923	 1.2395478581	 0.116815
H	-1.8118031588	-0.3197140449	 1.1217149735	 0.099749
H	-0.2588534321	-2.6356246438	-0.1375738297	 0.106175
H	-1.7542243097	-3.2609846789	 2.0075170761	 0.297932
H	-2.6618449396	-1.3230073272	-1.6626245815	 0.142693
H	-1.9696001695	-2.8618952066	-2.1408879585	 0.122195
H	-4.3457718392	-3.3466114303	-1.057862025	 0.295599
