16
gdb 83915	2.57079	1.532	1.25857	4.2162	69.54	-0.2662	0.0048	0.271	1028.2715	0.125148	-437.877016	-437.869286	-437.868342	-437.909243	29.466	
O	-0.018774285	 1.3972650059	 0.0072957328	-0.42076
C	-0.0451368816	 0.0158863766	 0.0521521958	 0.074224
C	-1.3530022564	-0.7480094268	 0.0541079068	-0.165795
C	-2.613878835	 0.0310823384	-0.3124877239	-0.257511
C	-2.5038976428	 0.1704169502	-1.8430172929	-0.093396
O	-1.0902845445	 0.1324755687	-2.1372084758	-0.309038
C	-0.485406116	-0.7262454195	-1.2013743464	 0.219236
C	 0.2033622593	-1.8681447724	-1.7298848028	 0.243719
N	 0.7730676273	-2.7929268659	-2.1284072623	-0.34437
H	-0.2427807542	 1.6494957004	-0.9007779191	 0.302021
H	 0.7742355768	-0.4084494709	 0.6244941195	 0.127285
H	-1.420785601	-1.6511663707	 0.6477300238	 0.122971
H	-3.5179682917	-0.5040371527	-0.0160756531	 0.121805
H	-2.6128803205	 1.0106064877	 0.1745136826	 0.132654
H	-3.0021380315	-0.662143392	-2.3559732734	 0.122424
H	-2.8879384932	 1.1129247628	-2.2390623115	 0.124531
