20
gdb 59798	2.59858	0.86134	0.75494	4.3537	80.97	-0.2568	-0.0165	0.2403	1600.618	0.166808	-440.325677	-440.314774	-440.31383	-440.363158	37.469	
C	-0.7406493786	 0.9461268624	 0.0846154824	-0.369957
C	-0.3619888865	-0.536864339	-0.0172228458	 0.04353
C	-1.5975568978	-1.4173351751	-0.2419061867	-0.36905
N	 0.536222825	-0.7058623816	-1.1504999036	-0.270716
C	 1.6938256168	-1.1870882125	-1.0533736156	 0.398238
C	 2.4647701782	-1.7402108546	 0.1133921568	-0.478856
O	 2.4868309951	-1.3031137012	-2.1910607312	-0.222715
C	 2.2284190344	-0.5127757351	-3.2779882842	 0.174868
O	 2.8108223899	-0.675827986	-4.3054633126	-0.262862
H	 0.1448261076	 1.5661156741	 0.2536462286	 0.113722
H	-1.2187378162	 1.2810971935	-0.8409593731	 0.126553
H	-1.4356714381	 1.1072492695	 0.9145081141	 0.114614
H	 0.1058232656	-0.8343020443	 0.9330499499	 0.067143
H	-2.088116937	-1.1503235419	-1.182825519	 0.12823
H	-1.3211860614	-2.4746277231	-0.2921512471	 0.115984
H	-2.3138156743	-1.2870155589	 0.5752871421	 0.113872
H	 1.8632036324	-1.7984334132	 1.0190000172	 0.143362
H	 2.8308974981	-2.7392183917	-0.1396945801	 0.15953
H	 3.343023445	-1.11572339	 0.3054894823	 0.154013
H	 1.4702402422	 0.2530286387	-3.0718336744	 0.120497
