15
gdb 133076	3.67936	1.15895	0.8864	3.4182	74.04	-0.2171	-0.0363	0.1808	1228.9043	0.113339	-458.146727	-458.138692	-458.137748	-458.180255	28.946	
C	 0.0652721722	 1.4343489819	-0.0015163633	-0.325617
N	-0.0582002024	-0.0035040531	 0.0529504316	-0.351918
C	-1.2378788974	-0.6795285116	 0.0343034985	 0.404137
C	-2.4982804268	-0.0404365118	 0.0477059797	-0.096512
N	-3.6275890306	-0.7374947973	 0.0411681103	-0.211507
C	-3.5469817925	-2.0680891149	 0.0196687517	-0.165323
C	-2.2925713118	-2.6725876079	 0.0028029059	 0.301021
F	-2.2141170016	-3.9990407912	-0.0226707932	-0.06882
N	-1.1559547927	-2.0223712533	 0.0085218189	-0.379468
H	 1.1244527406	 1.6957242676	 0.0176648894	 0.137683
H	-0.3742490283	 1.8563358122	-0.915565498	 0.134092
H	-0.4151574586	 1.9142536439	 0.8602478915	 0.13842
H	 0.7654479961	-0.5770619073	-0.0199901964	 0.256178
H	-2.5820972194	 1.0406331513	 0.0640378921	 0.106671
H	-4.4595962269	-2.6526227586	 0.0137419414	 0.120963
