18
gdb 116377	3.30389	1.18313	0.91163	0.9021	69.38	-0.2492	0.0082	0.2574	1240.517	0.148838	-476.214394	-476.205997	-476.205053	-476.247799	31.013	
O	 0.0579115361	 1.3941185129	 0.2786683557	-0.422791
C	 0.0524962438	 0.010795189	 0.0008892866	-0.066756
C	-1.369982373	-0.5431395426	-0.0619748598	 0.050948
C	-1.4045251488	-2.0441849089	-0.3447011868	-0.154001
N	-2.693610863	-2.703806165	-0.4350921702	-0.255654
C	-3.6927934128	-2.477153545	 0.2966568955	 0.121306
O	-3.9277522794	-1.5565351306	 1.278177976	-0.222566
C	-3.3442396215	-0.2628417978	 1.2082641649	 0.017432
O	-1.9584099369	-0.2418267552	 1.208259273	-0.245914
H	-0.4856599501	 1.5064792921	 1.0674621103	 0.287576
H	 0.5433935324	-0.1245328604	-0.9676952571	 0.115736
H	 0.624939085	-0.5567605022	 0.7524145598	 0.0957
H	-1.9285429922	-0.0018929123	-0.8417364731	 0.086127
H	-0.8748777988	-2.2250656176	-1.2876623668	 0.114432
H	-0.8276101212	-2.554807275	 0.4396759882	 0.125851
H	-4.5622279526	-3.1304037704	 0.2199801817	 0.124621
H	-3.7366279326	 0.2443743561	 0.3126906522	 0.100693
H	-3.6811615246	 0.2404859229	 2.1158571698	 0.127261
