25
gdb 118216	3.73981	0.59316	0.58096	0.269	86.16	-0.2581	0.0687	0.3268	2060.6236	0.225915	-426.630398	-426.618471	-426.617527	-426.668351	42.757	
C	 0.9626617165	-0.2669570962	-1.0371309615	-0.387324
C	 0.0227012623	 0.0376869846	 0.1378153525	 0.04855
C	-0.0797246983	 1.5513532815	 0.3683026952	-0.39176
C	-1.376759203	-0.571938436	-0.0606744427	-0.195188
C	-1.4288166525	-2.1057682305	-0.0507585511	 0.103052
O	-0.8417605054	-2.6430258551	 1.1379638879	-0.428746
C	-2.854694286	-2.6287592617	-0.25374197	-0.185019
C	-2.9307584515	-4.1483996942	-0.3247656795	-0.078074
O	-4.2971159758	-4.507628334	-0.4800071464	-0.424234
H	 1.9460408521	 0.187067627	-0.8763758434	 0.109861
H	 1.1173881137	-1.3413600687	-1.1720331142	 0.118847
H	 0.5617194457	 0.1363521522	-1.9754441331	 0.107078
H	 0.4501041742	-0.4205073966	 1.0382820487	 0.081887
H	-0.5125473373	 2.0549428333	-0.5048812335	 0.10961
H	-0.7126629421	 1.7844324981	 1.2314704878	 0.105576
H	 0.9066987732	 1.99186526	 0.5475761283	 0.108966
H	-2.0439934972	-0.2048589195	 0.7340445287	 0.078525
H	-1.8061393606	-0.2095740735	-1.0050481288	 0.092427
H	-0.7943390318	-2.4959030477	-0.8563113623	 0.088383
H	-1.3561618861	-2.3170662696	 1.8857734932	 0.276076
H	-3.4955999677	-2.2816657956	 0.5688472102	 0.093111
H	-3.2754277131	-2.2072244687	-1.1743180844	 0.104893
H	-2.3253252205	-4.5085353346	-1.1732445955	 0.081915
H	-2.4989144901	-4.5792397261	 0.589129952	 0.097073
H	-4.3553940085	-5.4673033484	-0.4751820581	 0.284518
