19
gdb 115761	3.77535	0.85805	0.74144	2.4751	77.96	-0.244	0.0488	0.2929	1511.9123	0.157058	-422.960444	-422.950635	-422.949691	-422.996111	34.919	
O	-0.1413857389	 1.5158158752	-0.3005753603	-0.428322
C	 0.0221406109	 0.1663935029	 0.1106158618	-0.090872
C	-1.3517574833	-0.4766494874	 0.0465301077	-0.053598
C	-1.8643693519	-0.769740177	-1.3779502504	-0.072178
O	-1.7265789847	-2.1947580872	-1.1800393066	-0.286274
C	-1.4508114964	-2.0155441864	 0.2232463993	 0.127441
C	-0.2342434625	-2.8181188294	 0.6981888259	-0.384059
C	-0.4850244402	-4.2538414856	 0.707893552	 0.295922
C	-0.7100871121	-5.4339614542	 0.7222617242	-0.419984
H	 0.7256844981	 1.9305138084	-0.332203	 0.288915
H	 0.7224158569	-0.3657461952	-0.5519985437	 0.093478
H	 0.4240950752	 0.1060465992	 1.13499778	 0.088772
H	-2.0360966163	 0.096346327	 0.6760577327	 0.087627
H	-2.9065746417	-0.4822823495	-1.5636037251	 0.10178
H	-1.2399198	-0.4033226651	-2.2003092544	 0.109575
H	-2.3196652994	-2.3084055778	 0.8291405832	 0.084507
H	 0.6228510736	-2.5976668074	 0.0521630712	 0.132741
H	 0.02995654	-2.4844351866	 1.7108853151	 0.129803
H	-0.9036859973	-6.4777789341	 0.7256609873	 0.194726
