15
gdb 31417	3.05491	1.39481	0.96333	4.3912	72.22	-0.2434	-0.0334	0.21	1157.4503	0.115302	-450.211702	-450.203566	-450.202621	-450.245529	28.836	
C	-0.0362085679	 1.4381522144	 0.0482633727	-0.31233
N	 0.0341396503	-0.0048951136	-0.0575901377	-0.333026
C	 0.6220797342	-0.6452035648	-1.0838486347	 0.456728
N	 1.1651033028	 0.0681136924	-2.0499611085	-0.399274
C	 1.7606991234	-0.5844665803	-3.0904137802	 0.430812
O	 2.3011175391	-0.0844433471	-4.0502400567	-0.386431
N	 1.7189183263	-2.0167125208	-2.9976513133	-0.327883
C	 1.1364212275	-2.646319253	-1.9627282603	 0.116209
N	 0.571135452	-2.0291060781	-0.9752213036	-0.345146
H	 0.9647472772	 1.8798311041	 0.0737969331	 0.150171
H	-0.5675151521	 1.8689525299	-0.805887705	 0.150635
H	-0.5658170681	 1.6937339119	 0.9677466304	 0.124696
H	-0.3646477648	-0.5921600271	 0.6550053354	 0.262229
H	 2.1526885794	-2.5240935893	-3.7550279258	 0.271726
H	 1.1527354407	-3.7345862685	-1.9765973059	 0.140885
