16
gdb 61724	5.09274	0.57468	0.53445	3.4727	85.56	-0.2702	-0.0511	0.219	1930.112	0.121577	-400.748922	-400.739066	-400.738122	-400.785182	33.359	
C	-0.0787244651	 1.6245925222	 0.1227131938	-0.389092
C	 0.042165795	 0.0880155294	 0.0324743909	-0.216217
C	 0.7672317084	-0.3585814319	-1.2643004908	-0.273191
C	-0.0486178328	-0.0398080341	-2.5013621399	 0.156025
O	 0.3741733068	 0.5208953988	-3.4764239857	-0.226181
C	 0.7145228483	-0.4545717761	 1.2051254716	 0.096045
C	 1.285899036	-0.8973199412	 2.1736870585	 0.066982
C	 1.9277130181	-1.3982367001	 3.2696471266	 0.2041
N	 2.4736137243	-1.8250987426	 4.2020797404	-0.333808
H	 0.9117349448	 2.0871719749	 0.1450729707	 0.144076
H	-0.6177122372	 2.0119007931	-0.7468184269	 0.138415
H	-0.6183504364	 1.9204954669	 1.0250243953	 0.141261
H	-0.9723792908	-0.3370295242	 0.0126764615	 0.129602
H	 1.7510152194	 0.1098141014	-1.3497583199	 0.140635
H	 0.9072291783	-1.4473473391	-1.238872704	 0.142108
H	-1.108381707	-0.3870264672	-2.4503819622	 0.079242
