15
gdb 25824	4.0542	1.07496	0.85726	4.4821	73.25	-0.2004	-0.0097	0.1907	1257.7144	0.114125	-454.014868	-454.006693	-454.005749	-454.047595	31.04	
N	-0.1205120202	 1.3507670152	 0.088340212	-0.56229
C	 0.0281432209	-0.0297806355	-0.0615924655	 0.28883
O	 1.1113579521	-0.5388161353	-0.2873966948	-0.358203
C	-1.211767729	-0.797899364	 0.0237736112	 0.222017
C	-1.3846087117	-2.1564511571	 0.1794550441	-0.17304
C	-2.775346575	-2.4282048637	 0.2380035326	-0.302489
C	-3.4145241387	-1.210720257	 0.1016041933	 0.390977
O	-4.7170929465	-0.8532321143	 0.0493869124	-0.428941
N	-2.4848584751	-0.2252476079	-0.000792308	-0.383206
H	 0.768497737	 1.8268452922	 0.1597678515	 0.254821
H	-0.8008104752	 1.6652777961	 0.7656766645	 0.245869
H	-0.5765830202	-2.8652374267	 0.2681551601	 0.125155
H	-3.2531298685	-3.3865835709	 0.3700365633	 0.098049
H	-5.2554512911	-1.6503698283	 0.0746515278	 0.31309
H	-2.6946359189	 0.7129678572	-0.2985198543	 0.269362
