19
gdb 30095	3.53827	1.16733	1.05648	3.2689	81.56	-0.2121	0.0343	0.2463	1208.6061	0.161402	-382.10251	-382.094227	-382.093283	-382.136464	31.34	
C	-0.2643925828	 1.4649010241	-0.0291988819	-0.404125
C	-0.0131463755	-0.0238612072	 0.0292398521	 0.029409
C	 1.3581936377	-0.5854415282	-0.2449280557	-0.316999
C	 0.7920714551	-0.6399155971	 1.1588164515	-0.130934
C	 1.3502734206	 0.1901215063	 2.2482829774	 0.345167
N	 0.6878363092	 0.6463725504	 3.2933130378	-0.30812
C	 1.608322753	 1.3278070048	 4.0533931369	-0.089681
C	 2.8451890614	 1.2882011792	 3.4671922781	-0.116419
N	 2.6669726284	 0.5589351631	 2.3127990568	-0.273601
H	 0.6122208627	 2.0292400967	 0.3023721351	 0.120063
H	-0.5013712649	 1.780896034	-1.0509194991	 0.111419
H	-1.0988610138	 1.7482083632	 0.6199452287	 0.134434
H	-0.8460271244	-0.6344497334	-0.3084461705	 0.088152
H	 1.455702815	-1.5150923109	-0.794288148	 0.113815
H	 2.1464616127	 0.1334182231	-0.4498890143	 0.101969
H	 0.4424982446	-1.6132555267	 1.4918460321	 0.107526
H	 1.3276109522	 1.8111870436	 4.9770241534	 0.102829
H	 3.8024611666	 1.6971253629	 3.7441925934	 0.123205
H	 3.3800005521	 0.3025666424	 1.6512764263	 0.261892
