15
gdb 33946	3.47582	1.43966	1.24646	3.1987	71.19	-0.2575	0.0086	0.2661	1004.5826	0.111556	-420.551283	-420.544105	-420.543161	-420.582724	28.428	
C	-0.0086566149	-1.2075046761	-0.0748464316	-0.339625
C	 0.0470182442	-0.0089597155	-0.0008747951	 0.168832
C	 0.0758239504	 1.4155839717	 0.1372274149	 0.282101
O	 0.2806629433	 2.2125838971	-1.0407011009	-0.278792
C	 1.2805506676	 2.2715087201	-0.0294222162	-0.040305
C	 1.1959994764	 3.4672577845	 0.9137078492	-0.282503
C	-0.1486052268	 3.327758965	 1.6224929421	 0.035231
O	-1.2914663446	 3.3790525696	 0.7659454532	-0.227577
C	-0.8227752655	 2.098179024	 1.170510393	-0.084383
H	-0.0499224521	-2.2656513114	-0.1555737884	 0.194837
H	 2.2482010512	 1.8620878913	-0.3108831836	 0.11037
H	 2.0096810286	 3.4170548223	 1.6459565112	 0.115631
H	 1.2816926667	 4.4172891697	 0.3769710489	 0.136233
H	-0.2904542065	 3.7581993251	 2.6111455014	 0.103241
H	-1.4932995581	 1.4956078724	 1.7747366819	 0.10671
