17
gdb 126859	3.29692	1.28014	0.99972	0.2688	71.81	-0.2402	-0.0202	0.2201	1204.5314	0.13604	-451.337964	-451.32887	-451.327926	-451.373098	31.248	
C	-0.0469822993	 1.6357266577	 0.2102425104	-0.380869
C	-0.1105304813	 0.1272495482	-0.0274148728	-0.150437
N	-1.4707783549	-0.3798293004	-0.0558572124	-0.08173
N	-2.2119679963	-0.5360767286	 1.0715125982	-0.115069
N	-3.3604206957	-0.9752375524	 0.741178769	-0.116613
N	-3.3920375739	-1.1108432411	-0.6105351334	-0.082078
C	-4.5553530302	-1.5943426165	-1.3164526353	-0.335077
C	-2.1887812918	-0.7356030519	-1.1851849193	 0.526108
O	-1.8558445103	-0.7254609358	-2.3531790343	-0.43761
H	 0.9958553314	 1.9652489575	 0.2313449928	 0.126811
H	-0.5627994722	 2.1767599283	-0.5879581116	 0.13753
H	-0.5109870535	 1.8964647607	 1.1652037599	 0.142663
H	 0.3168420977	-0.1377700763	-0.9980955045	 0.151819
H	 0.434297532	-0.4157630889	 0.7500617484	 0.135016
H	-5.4100334044	-0.9338964596	-1.1496547869	 0.152552
H	-4.2961287323	-1.6012830599	-2.376613963	 0.174168
H	-4.810359495	-2.6063513113	-0.9919835651	 0.152818
