17
gdb 3288	4.53168	2.64487	2.13072	1.6825	63.36	-0.2396	0.0742	0.3138	684.7706	0.149365	-309.68596	-309.679486	-309.678542	-309.716218	24.72	
C	 0.2164244376	 1.5678807978	 0.0486940458	-0.403195
C	 0.0621071185	 0.0558566148	 0.020744147	 0.028712
C	 0.94721269	-0.7789194771	-0.9653513387	-0.255794
C	 1.4164764818	-1.6839054204	 0.2092486175	-0.073445
C	 2.6733496423	-1.1709397528	 0.9244919032	-0.07373
O	 1.900984807	-0.2247748798	 1.7023114524	-0.291596
C	 0.6549154171	-0.757064805	 1.1998466897	 0.110894
H	 1.2502620249	 1.8412229397	 0.2774530614	 0.12955
H	-0.0544014144	 2.0080933715	-0.9169899631	 0.109598
H	-0.424617816	 2.0190238143	 0.8141285031	 0.113432
H	-0.9922350481	-0.2174235399	-0.1052454462	 0.069451
H	 0.3853608494	-1.2966589796	-1.7458229985	 0.100614
H	 1.7570363607	-0.2178531123	-1.4426250531	 0.097678
H	 1.2689449737	-2.7592279344	 0.1230382328	 0.074301
H	 3.1640516163	-1.9074630032	 1.5748595739	 0.097753
H	 3.4330190153	-0.6805592655	 0.3022913487	 0.098538
H	-0.0072775162	-1.0785411982	 2.0094613339	 0.067239
