21
gdb 90867	3.28158	1.49905	1.27613	1.3678	81.1	-0.2358	0.0829	0.3187	1072.2494	0.184809	-387.072448	-387.064929	-387.063985	-387.104041	31.114	
C	-0.8113907412	 1.3140459685	 0.1283880593	-0.3957
C	 0.046779668	 0.0639170225	 0.0035908429	 0.164587
C	 0.7446277005	-0.0662063525	-1.360651974	-0.256824
C	 1.6622817055	-1.2865472755	-1.3651271375	-0.040294
C	 3.1015017872	-1.2508786942	-0.9103118842	-0.066426
C	 3.3107080031	-0.1357242707	 0.1111121515	-0.259927
C	 2.1199692408	-0.7244416827	 0.9511633285	 0.117126
O	 0.9743954918	 0.094101897	 1.0900427467	-0.289299
C	 2.0282097275	-1.8991018239	-0.0361747772	-0.11247
H	-0.2037790834	 2.2126260425	-0.0184826955	 0.117448
H	-1.612699262	 1.3079252716	-0.6172563491	 0.108225
H	-1.2621347672	 1.3673802907	 1.1231241266	 0.122684
H	-0.594251073	-0.8260958234	 0.1217177138	 0.065047
H	-0.0256847061	-0.1721713663	-2.1314261411	 0.09775
H	 1.2922053723	 0.8561793119	-1.5896879508	 0.102174
H	 1.480707852	-2.0141354421	-2.1502492688	 0.08528
H	 3.8799299624	-1.7417729067	-1.4815367707	 0.082802
H	 4.2578306272	-0.2271354183	 0.6487330299	 0.099958
H	 3.1959778569	 0.8976825258	-0.2296302403	 0.094765
H	 2.422668324	-1.0021300991	 1.9628195979	 0.082688
H	 1.8579807136	-2.9394635049	 0.2111695022	 0.080406
