25
gdb 100997	2.56554	1.02452	0.95238	1.9833	87.93	-0.2419	0.0679	0.3098	1439.9416	0.227207	-389.479969	-389.469203	-389.468259	-389.515948	39.727	
C	-0.2099815372	 1.5843683613	-0.1502011138	-0.390445
C	-0.0266379993	 0.0653257574	-0.0599559685	-0.183493
C	 0.8471723846	-0.535432646	-1.1799422679	-0.023646
C	 2.3166919361	-0.1005157459	-1.0646849777	-0.412516
C	 0.7039775218	-2.0681164992	-1.2640165919	 0.314525
C	 1.1789609009	-2.8196083747	-0.0186885441	-0.468414
C	-0.6728843956	-2.5756563221	-1.7733346583	-0.122774
O	-0.0630958474	-3.2853676788	-2.8684225583	-0.275729
C	 1.2255491916	-2.7103653373	-2.5787403821	-0.124894
H	 0.7398668552	 2.1183947985	-0.049634142	 0.118794
H	-0.6527935075	 1.872409735	-1.1102919246	 0.114909
H	-0.8731915345	 1.9452996217	 0.6421369883	 0.112985
H	 0.4043733394	-0.1889146903	 0.9166323139	 0.09765
H	-1.0165594783	-0.4085795196	-0.0872791007	 0.096494
H	 0.4627533805	-0.1434939644	-2.1336944687	 0.068274
H	 2.7422888215	-0.3780357937	-0.0943517381	 0.116945
H	 2.9322596681	-0.562582479	-1.8438493822	 0.115333
H	 2.4196417544	 0.9828734363	-1.1710019927	 0.117865
H	 0.6174105678	-2.5214693251	 0.8723403123	 0.117631
H	 1.0399298083	-3.897210823	-0.1526881966	 0.12329
H	 2.2416959803	-2.6466550921	 0.1788869976	 0.117037
H	-1.226477224	-3.2470506834	-1.1053294335	 0.095941
H	-1.3513671992	-1.7864249936	-2.1269925302	 0.089104
H	 1.5336444855	-1.9913990841	-3.3510764771	 0.089466
H	 2.0042551268	-3.4762253179	-2.4754132933	 0.095669
