18
gdb 79509	3.04845	1.6621	1.2903	3.1962	76.15	-0.2393	-0.0247	0.2146	1007.662	0.149065	-401.902554	-401.895306	-401.894361	-401.934185	28.662	
C	-0.0800794781	 1.5562958801	 0.0439834149	-0.408822
C	 0.0072340167	 0.0283722271	-0.0126536538	-0.139441
C	 0.8931494969	-0.5435669953	-1.1098414134	 0.017156
C	 1.3475413844	-1.9939251881	-0.7874267534	-0.086928
C	 2.6748454328	-1.6226548738	-1.4552832168	-0.170764
N	 2.3696114632	-0.3487130294	-0.6596268922	-0.162012
C	 1.9101964162	-1.2979654297	 0.489935658	-0.113171
C	 0.7803296189	-0.5678265495	 1.1780695313	 0.438607
O	 0.5478848304	-0.4661249469	 2.3529519873	-0.331147
H	 0.9190389909	 2.000164203	 0.0152494103	 0.141982
H	-0.6544193374	 1.9486897112	-0.8007394601	 0.116131
H	-0.5698193087	 1.8696156615	 0.9699965028	 0.137268
H	-0.9993033216	-0.4074398356	-0.0447068713	 0.100439
H	 0.7022775218	-0.2567639526	-2.1457124959	 0.08099
H	 0.7688307993	-2.9226817701	-0.8424027395	 0.075502
H	 3.5830637315	-2.1340306959	-1.1261220354	 0.108597
H	 2.6814758727	-1.4652899144	-2.538416461	 0.103996
H	 2.6988961702	-1.7451588116	 1.0931828081	 0.091617
