16
gdb 45707	3.10336	1.68279	1.12028	4.4955	71.28	-0.2283	0.0088	0.2371	1030.2016	0.128311	-434.126327	-434.119168	-434.118224	-434.15811	27.067	
O	 0.0297646426	-0.0199147429	 0.1412943041	-0.371342
C	 0.0089955341	 1.1845172687	 0.0739002911	 0.37079
C	-1.1839036994	 2.1743068175	 0.0968691067	-0.295934
N	-0.6358385711	 3.5363533138	-0.0132850184	-0.386802
C	 0.6245543539	 3.3516641201	-0.0947740059	 0.487903
N	 1.7078245586	 4.1810745419	-0.255199883	-0.395711
C	 2.9321381721	 3.440842736	 0.0893474362	-0.179672
C	 2.531287757	 1.9564046193	-0.1547395411	-0.179711
N	 1.09029101	 2.0396894331	-0.0402608705	-0.119036
H	-1.8650724336	 1.9461920268	-0.7314917106	 0.141094
H	-1.7557720154	 2.0439966761	 1.0230362359	 0.13942
H	 1.6103641242	 5.1411825217	 0.036405504	 0.2617
H	 3.7685395046	 3.7472525492	-0.5431180727	 0.128552
H	 3.2184876505	 3.5923518983	 1.1388425685	 0.121067
H	 2.8296779242	 1.6162923666	-1.1527979393	 0.135211
H	 2.9621937779	 1.2786295338	 0.585234005	 0.142472
