16
gdb 53369	3.37255	0.93642	0.86194	2.8189	74.79	-0.2624	0.0172	0.2796	1398.7109	0.123413	-437.868838	-437.85989	-437.858946	-437.906252	30.803	
C	-0.172607585	 1.1943831791	 0.3972572367	-0.501001
C	-0.0677017247	-0.2286130848	 0.1159294758	 0.065774
C	 0.0164915185	-1.4063341419	-0.1175687648	 0.128273
C	 0.1441668909	-2.8360907212	-0.409142414	-0.046354
O	 0.9108634969	-3.5312360025	 0.5488618944	-0.22875
C	-0.0064498847	-3.9768643289	 1.5394320517	-0.174211
C	-1.3138814019	-4.1049481503	 0.7868411762	 0.390939
N	-2.3524460481	-4.6940967514	 1.1840617103	-0.53324
O	-1.1494352898	-3.4676784431	-0.4115398047	-0.218899
H	 0.818351456	 1.6475649306	 0.5067275528	 0.158289
H	-0.6928140969	 1.7174269014	-0.4121676265	 0.158431
H	-0.7280413869	 1.3740018307	 1.3237397562	 0.158092
H	 0.5973647453	-3.0028474646	-1.3904788969	 0.127866
H	 0.335325811	-4.9320442648	 1.9398393057	 0.150155
H	-0.1051109708	-3.2538471807	 2.3608415395	 0.134602
H	-3.1031650598	-4.6185042673	 0.4964456776	 0.230033
