21
gdb 73613	2.11925	1.44716	1.13392	3.621	83.96	-0.2375	-0.0161	0.2214	1198.5597	0.182979	-387.109669	-387.10081	-387.099865	-387.143177	33.648	
C	 0.1076251272	 1.5524188241	-0.0538379916	-0.474761
C	-0.0348389914	 0.0531141664	 0.0776129243	 0.314245
C	-1.4363263231	-0.537763305	-0.0949010331	-0.270894
C	-1.4685148257	-1.8728663705	 0.6923808926	-0.233748
C	-0.2518170886	-1.8369889412	 1.6546958631	-0.225379
C	 0.6763691012	-0.7552734664	 1.1199420217	-0.095591
C	 1.1752328027	-0.8024235857	-0.3299848067	-0.150338
C	 1.1365104398	-1.9850599779	-1.2168914338	 0.143985
O	 2.0056192653	-2.2330818997	-2.0216479244	-0.277141
H	 1.1249553192	 1.880332707	 0.1794732757	 0.120673
H	-0.1235344812	 1.8862860957	-1.0716581255	 0.125697
H	-0.5778453785	 2.068803927	 0.628628161	 0.117849
H	-2.1489900557	 0.1757547561	 0.3355106159	 0.103524
H	-1.7221001718	-0.6648846288	-1.1444742715	 0.106509
H	-2.4076571481	-1.9914928581	 1.2391125135	 0.103456
H	-1.4033316013	-2.728248815	 0.0155102648	 0.116812
H	-0.5677225615	-1.5442586996	 2.6623675035	 0.107237
H	 0.2308014685	-2.8149669217	 1.7501568274	 0.108534
H	 1.3621022849	-0.2861346955	 1.8185103803	 0.091626
H	 2.078821197	-0.2247558689	-0.503792615	 0.10023
H	 0.2592043113	-2.6568890522	-1.1225906121	 0.067476
