21
gdb 117819	2.24783	1.00047	0.85825	4.0454	75.38	-0.2518	-0.0276	0.2242	1474.3102	0.178575	-461.367887	-461.356828	-461.355884	-461.404622	39.175	
C	-2.3311276705	 1.5917729351	 1.2041121489	-0.382384
C	-2.4054875748	 0.0615266959	 1.179695498	-0.206837
C	-1.4361150957	-0.5441936642	 0.1547875486	-0.208152
C	-1.3789495698	-2.0833756565	 0.1044612468	 0.212707
O	-0.9340265006	-2.6578781643	 1.3396552131	-0.480512
C	-2.7064503392	-2.7479261551	-0.3036956325	-0.082851
O	-2.5814065053	-4.1543337174	-0.2648971082	-0.428808
C	-0.308779725	-2.4876832651	-0.9169433113	 0.162326
O	-0.3594409812	-2.1800633458	-2.0776683959	-0.263599
H	-3.0219480786	 2.010328664	 1.9419306005	 0.11779
H	-1.3218836539	 1.934355969	 1.4563414033	 0.121379
H	-2.5889528807	 2.0126473201	 0.2265618564	 0.124483
H	-2.1774486452	-0.3147913008	 2.1876411519	 0.086533
H	-3.4334794602	-0.2479921639	 0.9615009756	 0.113425
H	-1.6864576587	-0.1937437969	-0.8525973158	 0.126415
H	-0.4235131379	-0.1771084174	 0.3664621191	 0.107876
H	-1.4424841946	-2.2638577314	 2.0562148594	 0.288669
H	-3.5180191603	-2.3991075387	 0.354637791	 0.080739
H	-2.9527526765	-2.4653086106	-1.3313578324	 0.130251
H	-2.1323072417	-4.3514013594	 0.5674129579	 0.284879
H	 0.5323839704	-3.0721896466	-0.4866175443	 0.09567
