16
gdb 1543	5.63191	1.28563	1.10569	3.4606	61.63	-0.3012	0.0125	0.3136	1052.2991	0.135501	-325.792503	-325.784155	-325.78321	-325.825392	28.988	
C	-0.0393359801	 1.5709104127	 0.0374627389	-0.387393
C	-0.0106878006	 0.0410933109	-0.0028695085	-0.172229
C	 0.7289704592	-0.5015677633	-1.2296207561	-0.186226
C	 0.7137089581	-2.0391062852	-1.2920660767	-0.022846
O	-0.5920937178	-2.5871038	-1.3350460536	-0.405826
C	 1.5244490461	-2.5210978059	-2.4310156898	 0.255089
N	 2.1353454486	-2.8793183494	-3.3442531174	-0.315656
H	 0.973241665	 1.9883370695	 0.0608677716	 0.118784
H	-0.5455062386	 1.981861916	-0.8429838417	 0.117778
H	-0.5691610871	 1.9317169089	 0.9239572902	 0.119764
H	 0.4715845218	-0.3435653648	 0.9053884247	 0.10143
H	-1.0308003253	-0.3565872473	 0.0018968164	 0.115784
H	 0.2790067612	-0.1100185367	-2.1521492554	 0.106224
H	 1.7724871539	-0.1639405644	-1.2295096905	 0.120601
H	 1.1590820095	-2.4405219093	-0.3742183746	 0.139955
H	-1.0076180639	-2.3097673317	-2.1600765074	 0.294766
