19
gdb 92403	2.09869	1.63016	1.23164	1.863	81.97	-0.2408	0.038	0.2788	1105.5353	0.158372	-385.829361	-385.820711	-385.819766	-385.862478	33.772	
O	 0.5458206363	 0.8800341086	-0.8337630614	-0.426876
C	 0.1690054582	-0.1919280657	-0.0168953936	 0.101542
C	 0.2040087254	-0.0456616248	 1.5315309095	-0.291583
C	-1.1917358845	-0.7178244843	 1.6371375453	-0.06587
C	-2.3622136232	 0.27552352	 1.7901523942	-0.214665
C	-2.3484072289	 0.5332556506	 0.2562175485	-0.29158
C	-1.33116537	-0.6403530143	 0.0525534998	 0.173724
C	-1.7487064971	-1.7345499997	-0.7797496185	 0.152329
C	-2.086607883	-2.6609750604	-1.4708141257	-0.404246
H	 0.1029309311	 1.6754817292	-0.5200106566	 0.281398
H	 0.7737629076	-1.0405049683	-0.3462005258	 0.104685
H	 1.0289184268	-0.5636567736	 2.0244390219	 0.111467
H	 0.2090380249	 0.9965994022	 1.8703910343	 0.092736
H	-1.2371647292	-1.6654508984	 2.1719064775	 0.077765
H	-3.2856268441	-0.2130963583	 2.1109314046	 0.109991
H	-2.1827778976	 1.1353728332	 2.4425016398	 0.096811
H	-3.3019859292	 0.3798924257	-0.2492516662	 0.124012
H	-1.9629157134	 1.5096609089	-0.0542253434	 0.082964
H	-2.3836785601	-3.4750807504	-2.0840271846	 0.185396
