17
gdb 68429	2.66293	1.66648	1.28557	3.7339	71.86	-0.2543	0.0084	0.2626	999.87	0.137633	-417.989139	-417.981524	-417.98058	-418.021016	30.06	
N	-0.0929207364	 1.4561062402	 0.0382160691	-0.608892
C	-0.0567816906	 0.0283129293	 0.0138441232	 0.280014
C	 0.3549236565	-0.8199361688	 1.2594364628	-0.274513
C	-0.3721580419	-1.9175919694	 0.4516442147	 0.109937
C	-1.3631135791	-0.8289374373	-0.01145524	-0.273635
O	 0.4883424457	-2.1043165093	-0.7010860018	-0.279816
C	 0.7726872275	-0.7482632245	-1.0689647639	-0.062341
C	 0.3474133246	-0.4481126637	-2.4401992768	 0.275973
N	 0.0032449473	-0.1544827752	-3.5039585586	-0.329162
H	 0.8392344142	 1.8463423814	 0.1467418177	 0.23431
H	-0.4714475835	 1.8213542157	-0.8320410838	 0.24678
H	 1.4175434543	-0.9681347183	 1.4676357069	 0.103788
H	-0.1842957059	-0.5017869442	 2.1520288917	 0.120179
H	-0.6570213209	-2.8901883233	 0.8438387471	 0.096722
H	-2.0577406173	-0.5118816221	 0.7665861704	 0.119215
H	-1.8731171127	-0.9800012896	-0.9650204665	 0.124405
H	 1.8478074382	-0.5448237509	-0.9847389123	 0.117035
