15
gdb 124093	3.72378	1.59049	1.14934	1.924	66.16	-0.2173	0.0311	0.2484	989.4501	0.116924	-453.955252	-453.948679	-453.947735	-453.986252	25.62	
C	 0.0197852292	 1.3933127589	 0.0088090734	 0.001723
O	 1.2957240391	 1.930761346	-0.0387191645	-0.231058
C	 2.0657782879	 1.6763180946	 1.1516368653	-0.209359
C	 1.8957213695	 0.2356309401	 1.5202744969	 0.055797
C	 0.911561075	-0.4936744801	 0.8913591993	 0.453224
N	 0.9819544472	-1.7637670462	 1.3390416917	-0.319553
N	 1.9837199655	-1.9214054548	 2.2488111664	-0.23453
C	 2.5276229295	-0.7133630452	 2.3564179057	-0.113489
O	 0.0186853401	-0.0527658163	-0.0119822368	-0.271325
H	-0.520430739	 1.7081437182	 0.9156169666	 0.103266
H	-0.5075093207	 1.7002788542	-0.8940916639	 0.133502
H	 3.0961523406	 1.9290752994	 0.8856349169	 0.133166
H	 1.7469794737	 2.3643357382	 1.9502788682	 0.110044
H	 0.4136928694	-2.5492746051	 1.0730606802	 0.276474
H	 3.3604896631	-0.568223522	 3.0294936146	 0.112117
