16
gdb 17573	3.56816	2.43896	1.96866	3.0281	63.	-0.2439	0.0757	0.3195	737.416	0.130696	-383.680515	-383.674248	-383.673304	-383.710472	25.582	
C	-0.0028451449	 1.5083926395	 0.0939169619	-0.506554
C	 0.0242082109	 0.0119918399	-0.015944798	 0.37525
C	 0.9165814474	-0.808671309	-1.0040308879	-0.270807
C	 0.7243901273	-1.8114164044	 0.165839082	 0.015962
O	 0.6992810334	-0.6834489035	 1.0739843611	-0.291021
C	-0.7886537545	-2.1523265237	 0.021670412	 0.026257
O	-1.5992141403	-1.5738258353	 1.0463771628	-0.22701
C	-1.3123298761	-0.7962066584	-0.1178783471	-0.014998
H	 1.0103849607	 1.9162457623	 0.1411819681	 0.12964
H	-0.51447477	 1.9454750001	-0.7699928167	 0.122142
H	-0.5408365554	 1.8098135293	 0.9982097493	 0.142395
H	 0.5182347923	-1.0626669939	-1.991310661	 0.095129
H	 1.9350972226	-0.4206132329	-1.0667085819	 0.110425
H	 1.4363297692	-2.5917561706	 0.4299006721	 0.087705
H	-1.1605157893	-3.0407845861	-0.4762502684	 0.103791
H	-2.1483312232	-0.4863521932	-0.7357429683	 0.101693
