16
gdb 53169	3.04827	1.02737	0.86277	3.4897	79.75	-0.2257	-0.022	0.2037	1367.7537	0.122599	-400.687445	-400.678547	-400.677603	-400.725146	31.141	
C	 0.0363065095	 1.5498259502	 0.0086045642	-0.499305
C	 0.0314599253	 0.0948618454	 0.0224538128	 0.074337
C	 0.0209598116	-1.1090970788	 0.0396367538	 0.104473
C	-0.0100811835	-2.5526647159	 0.0496612366	-0.321994
C	 0.3027240513	-3.3269304519	 1.3494294305	-0.052472
N	-0.7320938067	-2.9558366619	 2.3100394833	-0.314603
C	-1.0093846647	-4.058484186	 1.3198996986	-0.193636
C	-1.3882445766	-3.3392736537	 0.0476646784	 0.44739
O	-2.2685285686	-3.4370874658	-0.7486987606	-0.297008
H	 1.0549712375	 1.9469141853	-0.0646685005	 0.145821
H	-0.5320491488	 1.937709752	-0.844019167	 0.151539
H	-0.4151993985	 1.9564619251	 0.9201662747	 0.151128
H	 0.5646221616	-2.9727495122	-0.786904811	 0.126658
H	 1.2689306924	-3.7080464274	 1.6523405194	 0.114498
H	-0.5278861756	-3.4243874822	 3.1932790086	 0.24277
H	-1.2833829562	-5.0496599819	 1.6568378381	 0.120405
