19
gdb 115549	1.97408	1.52564	1.12295	2.2878	76.73	-0.2608	0.0275	0.2883	1175.5362	0.158715	-419.194524	-419.184888	-419.183944	-419.229047	34.967	
C	-0.204187563	 1.3582162518	-0.7115449294	-0.258597
O	 0.325210798	 0.2576829054	 0.011288176	-0.240727
C	 0.9973083901	-0.6697076405	-0.77797339	 0.154823
C	 1.8836632157	-1.6935018329	-0.0484093757	-0.273853
C	 1.425349072	-2.7561645491	-1.0847845499	-0.236876
C	 0.168622581	-1.8754473013	-1.3778285851	 0.102569
N	-0.9145774777	-2.2123847378	-0.4640937103	-0.539146
C	-0.2504548261	-1.7508798505	-2.7767738894	 0.205202
N	-0.5981840616	-1.6468729972	-3.8760737761	-0.349968
H	 0.5903404453	 1.9121998435	-1.2313317228	 0.120109
H	-0.9500632331	 1.0438984381	-1.4546290567	 0.125674
H	-0.6826168584	 2.0172258839	 0.0158845347	 0.135492
H	 1.548703674	-0.1762728592	-1.590169248	 0.085407
H	 2.9483568973	-1.4687081886	 0.0241633484	 0.107198
H	 1.4788225566	-1.9042138558	 0.9419707741	 0.137435
H	 2.0907059233	-2.8168033462	-1.9486247687	 0.119878
H	 1.2026939604	-3.7580864914	-0.7179176319	 0.119436
H	-1.4790080605	-1.3911611774	-0.2713815928	 0.24376
H	-1.5150465633	-2.9258759848	-0.8633432364	 0.242186
