15
gdb 44345	3.99675	1.61647	1.32386	3.8473	73.7	-0.234	-0.0607	0.1734	926.7058	0.113975	-416.688309	-416.681847	-416.680903	-416.719061	26.321	
N	-0.012254209	 1.401155276	-0.0165151104	-0.487573
C	 0.0458907874	 0.145408976	 0.1071795773	 0.375908
O	-1.1596288986	-0.5480311971	 0.126376706	-0.235957
C	-1.1996808322	-1.7311569878	 0.9016952625	 0.129354
C	-0.5045076499	-3.1373796901	 0.7976004073	-0.048705
N	 0.851299621	-3.2465674348	 0.1183231281	-0.36301
C	 1.0427761826	-1.9249052248	 0.7489142363	 0.141554
C	 1.1724294046	-0.8226820686	 0.0095744144	-0.215409
C	-0.0685764116	-2.0707415388	 1.7833865636	-0.23547
H	 0.9316795739	 1.780786311	-0.0796119634	 0.230855
H	-2.2075979635	-1.8370850196	 1.2953353528	 0.122485
H	-1.102460628	-4.0329783816	 0.9364561972	 0.111494
H	 1.3350865948	-3.9651076227	 0.6649399119	 0.229546
H	 1.7143953192	-0.8509785989	-0.931548547	 0.135844
H	 0.0045956492	-2.0260911281	 2.8641315432	 0.109085
