14
gdb 25682	6.01833	0.77632	0.69059	4.9334	80.51	-0.2085	-0.0177	0.1908	1560.0876	0.100442	-436.722323	-436.713773	-436.712829	-436.75747	29.76	
C	-0.1296934005	 1.4425021255	-0.0045377751	-0.510059
C	-0.0125861789	-0.0054711182	-0.0058340283	 0.203969
C	 0.0825083213	-1.2088079207	-0.0073671245	-0.058644
C	 0.1759603072	-2.6058307593	-0.0128012856	 0.212392
C	 1.2089973716	-3.4480819038	 0.1950135565	-0.227706
N	 0.7101566366	-4.7344474502	 0.0636005818	-0.350377
C	-0.6404130817	-4.6989679036	-0.2276420923	 0.457541
O	-1.407718537	-5.6019839379	-0.4100429729	-0.395734
O	-0.9675926992	-3.3601847473	-0.2737935723	-0.242792
H	 0.5188334781	 1.8971654096	-0.7617665907	 0.155524
H	-1.1593801136	 1.7454567902	-0.2227133324	 0.162391
H	 0.1427139337	 1.8652274247	 0.9690137025	 0.155523
H	 2.2388748888	-3.2355418408	 0.4214970508	 0.156941
H	 1.2155972836	-5.5976004981	 0.1570059923	 0.281031
