18
gdb 69690	3.56905	1.28638	1.16807	3.2006	76.87	-0.2279	-0.0313	0.1966	1106.4986	0.145423	-401.857286	-401.848885	-401.847941	-401.890549	31.557	
C	 0.0603530308	 1.6128048788	-0.0174645222	-0.499985
C	-0.0167967095	 0.116429231	 0.0504865702	 0.342508
C	-0.8891017583	-0.6716200229	 0.9781558567	-0.355707
C	 0.6043471746	-0.88481774	 1.0037599595	-0.042139
N	 1.2648194165	-1.676625061	-0.1129365894	-0.152496
C	 0.2834800771	-2.2363834014	-1.0410811974	-0.079858
C	-0.9355726263	-3.0628283983	-0.7446919853	 0.115926
O	-1.0679662312	-3.7942062	 0.2019888174	-0.241687
C	 0.5389881336	-0.770159658	-1.0844195133	-0.126047
H	 1.0421222255	 1.947921236	-0.3711600538	 0.124872
H	-0.6965588472	 2.0206504209	-0.6987963647	 0.123292
H	-0.1094379651	 2.055425928	 0.9687361054	 0.12463
H	-1.2294892917	-0.1036163095	 1.8404611837	 0.11819
H	-1.6117427132	-1.4048964006	 0.6457302506	 0.130364
H	 1.197400216	-0.7428063181	 1.8977869359	 0.10803
H	 0.8079887027	-2.7383932331	-1.8628535814	 0.128156
H	-1.6968941475	-3.0199342632	-1.5584685911	 0.080578
H	 1.0762119032	-0.3320363585	-1.9217669009	 0.101373
