21
gdb 110543	3.36737	1.29392	1.25389	1.4919	79.99	-0.2275	0.09	0.3175	1127.182	0.185265	-387.093328	-387.085822	-387.084878	-387.125351	30.584	
C	 1.0090314062	-0.0777002382	 1.2753923398	-0.381846
C	 0.0641923558	 0.0586896474	 0.0758221673	-0.201949
C	 0.6534001898	-0.5142396878	-1.2155770546	 0.039619
C	 0.7250070162	-2.0380810712	-1.3257276701	-0.119181
C	-0.5698524829	-2.5081194672	-2.0032919783	-0.112487
C	-1.3991895873	-1.2644174764	-2.3010385981	-0.232141
C	-0.1845958831	-0.3339335639	-2.5098340997	 0.021484
O	 0.5930867028	-1.0542807161	-3.4837889413	-0.261456
C	 0.6899238387	-2.2983983419	-2.811187048	 0.08243
H	 1.2340571318	-1.1279676081	 1.4882439194	 0.117645
H	 1.9601239099	 0.4335625109	 1.0900908155	 0.115678
H	 0.5674897935	 0.3563373814	 2.1777855409	 0.111654
H	-0.8849608993	-0.4362483007	 0.3093176155	 0.099239
H	-0.1690452509	 1.1207187103	-0.0792069971	 0.092924
H	 1.6449671006	-0.0756890513	-1.3861307216	 0.073577
H	 1.2800756928	-2.6630979077	-0.6394873153	 0.0857
H	-0.9969449606	-3.4862056851	-1.8292609818	 0.085773
H	-1.9891407715	-1.3611565502	-3.2168697807	 0.10476
H	-2.0519794225	-0.9520068789	-1.4833016039	 0.102653
H	-0.3651039554	 0.6808747928	-2.8592754574	 0.075998
H	 1.2439076955	-3.059046038	-3.3422321903	 0.099925
