16
gdb 18560	3.70262	2.00737	1.60652	1.6695	63.79	-0.2397	-0.0284	0.2113	815.6551	0.131521	-383.753169	-383.746518	-383.745574	-383.784349	25.483	
O	 0.0082796558	-0.001756122	-0.3981030095	-0.296046
C	-0.0077186866	 1.1486592715	-0.0689939258	 0.394341
C	-1.1048056954	 2.1101836277	 0.4174677561	-0.373102
C	-0.0008544383	 3.1967988282	 0.6212347436	 0.102935
O	 0.3501407609	 3.4708305678	 1.9631566394	-0.254713
C	 1.2391789713	 2.4540407254	 2.420802192	-0.095276
C	 2.0840568926	 2.0526662106	 1.2004103543	-0.233656
C	 1.0884423241	 2.230212996	 0.0428591283	-0.166661
H	-1.8341562536	 2.3470377081	-0.3638925073	 0.133826
H	-1.6452488804	 1.8041783794	 1.3178061855	 0.138041
H	-0.1801467405	 4.1470881339	 0.1172830464	 0.089236
H	 1.8234464921	 2.8712086444	 3.2445317932	 0.116626
H	 0.6777841859	 1.5882245481	 2.8056699992	 0.101969
H	 2.9265420302	 2.73840835	 1.0726368259	 0.115941
H	 2.4740100761	 1.0344342864	 1.2712649583	 0.125201
H	 1.5594015958	 2.4874715244	-0.9079306796	 0.10134
