17
gdb 132530	3.09699	1.31208	0.93223	0.7524	79.5	-0.2487	-0.0147	0.234	1226.8428	0.135355	-426.052023	-426.04343	-426.042486	-426.086013	31.116	
C	-0.0469786889	 1.5170479103	 0.0033436202	-0.465633
C	-0.0199959878	 0.0111475811	 0.0244976494	 0.332108
N	-0.233015047	-0.6109543836	-1.1429706926	-0.328961
C	-0.2161732506	-1.9433516105	-1.1565798631	-0.062738
C	 0.0068960145	-2.7607110369	-0.0468302669	 0.107972
C	 0.0157456699	-4.2621573934	-0.116147825	-0.502583
C	 0.2238795151	-2.07881742	 1.1456140256	 0.272299
F	 0.4463029738	-2.7823744724	 2.2598728294	-0.07131
C	 0.2151468372	-0.6964626419	 1.2055328233	-0.308416
H	 0.1418887182	 1.9412702775	 0.9923463055	 0.117799
H	 0.7061030501	 1.8999081076	-0.6925425124	 0.141912
H	-1.0192502363	 1.8737880396	-0.3511156744	 0.141865
H	-0.3931646004	-2.4125352441	-2.1232750371	 0.106633
H	 0.9785072722	-4.6724355812	 0.2067498215	 0.140334
H	-0.7490530433	-4.6977922158	 0.5356221165	 0.140331
H	-0.1736785743	-4.6018158206	-1.1373914911	 0.129135
H	 0.3876214076	-0.1942305056	 2.1497687613	 0.109252
