13
gdb 130257	3.21159	1.49701	1.0262	7.8876	65.34	-0.254	-0.0719	0.1821	1056.9111	0.090507	-486.079587	-486.072039	-486.071095	-486.111633	28.735	
N	 0.0806179952	 1.4159404165	 0.0730852583	-0.579214
C	 0.0179837557	 0.0200769174	 0.0334315806	 0.328827
N	-1.120912708	-0.5663801923	 0.1480287168	-0.130442
O	-1.1149013625	-1.943948418	 0.184840896	-0.25553
C	 0.0544333906	-2.7044402046	-0.04264182	 0.459916
O	-0.0991101919	-3.8858741765	-0.1434193926	-0.336082
N	 1.2610070656	-2.0425496407	-0.0882236344	-0.399471
C	 1.261761772	-0.7481373919	-0.0364360038	 0.376121
N	 2.4252829508	-0.0548809097	-0.0655392779	-0.553999
H	 0.5405031394	 1.8134962127	-0.7396037301	 0.262879
H	-0.8463364036	 1.8153064728	 0.1773008565	 0.269328
H	 3.2709611467	-0.5989597156	 0.022943651	 0.280023
H	 2.4278655999	 0.8793944497	 0.3128248398	 0.277643
