19
gdb 102432	2.84985	0.73688	0.60714	3.2836	85.	-0.2675	-0.0634	0.2042	1820.2434	0.155345	-422.995585	-422.984667	-422.983722	-423.033183	36.497	
C	 0.0400667521	 1.0475299873	 0.9797587111	-0.391162
C	 0.0270799704	-0.345848271	 0.3490944259	-0.182372
C	 0.503943616	-0.3328636274	-1.1134509831	-0.076275
O	 1.8397800911	 0.1318549112	-1.1251096222	-0.225547
C	 2.3497887783	 0.4061125664	-2.4155223359	-0.243228
C	 0.3713686637	-1.659625489	-1.7295453546	 0.136993
C	 0.2808721791	-2.7540331287	-2.2351287669	 0.016915
C	 0.1295608524	-4.0573539186	-2.8280212923	 0.020595
O	 1.0029308358	-4.646337684	-3.4226767808	-0.228666
H	 1.0436611568	 1.4768722021	 0.9478209326	 0.140297
H	-0.6374226556	 1.7279109048	 0.4517026914	 0.113532
H	-0.2825810794	 0.9996548543	 2.0236953122	 0.116407
H	 0.678731012	-1.0265095336	 0.9070475463	 0.122746
H	-0.98070397	-0.773256156	 0.3729136286	 0.110638
H	-0.1359858189	 0.3623338412	-1.6880922098	 0.098709
H	 2.3798716951	-0.4954627179	-3.0416061908	 0.129325
H	 1.7504384622	 1.1731099406	-2.9296827204	 0.106549
H	 3.3662019256	 0.7811062524	-2.2797342985	 0.134294
H	-0.8801156665	-4.4975291841	-2.6969555728	 0.100252
