19
gdb 72583	2.17707	1.6634	1.47702	1.8706	76.78	-0.2388	0.0268	0.2656	1035.8772	0.158986	-419.199689	-419.190661	-419.189717	-419.233312	33.957	
C	 0.1015149043	 1.5896654297	-0.1252749726	-0.474712
C	 0.0535369165	 0.1005866686	 0.0426505081	 0.416143
C	 0.5728419275	-0.8739286297	-1.0345613683	-0.273299
C	 1.2606221252	-1.7253424104	 0.0761824932	-0.279083
C	 0.7615734968	-0.7402938419	 1.1758048919	 0.161442
N	 1.7395637206	-0.2600069048	 2.1045441247	-0.599512
C	-0.6599378251	-1.0334212893	 1.6127558995	 0.365086
N	-1.167350415	-1.6048542006	 2.6094598319	-0.561339
O	-1.2479343093	-0.3762139481	 0.5525971516	-0.308132
H	 1.1231174959	 1.9058361576	-0.3561255629	 0.131836
H	-0.5531935561	 1.9136059729	-0.9417433883	 0.129597
H	-0.2154158717	 2.0952641723	 0.7915605824	 0.127937
H	-0.2190650745	-1.364193438	-1.6034018251	 0.116128
H	 1.2813815348	-0.4181542277	-1.7301093262	 0.108963
H	 0.9342645024	-2.7607697695	 0.1881272787	 0.119029
H	 2.3507801787	-1.7021385879	 0.0045798136	 0.113312
H	 1.3011982167	 0.0399925768	 2.9695888412	 0.24298
H	 2.3919402009	-0.9983109911	 2.3465438142	 0.238215
H	-2.1880548985	-1.5673052588	 2.5830529624	 0.225409
