15
gdb 57181	2.84866	1.29816	0.89286	4.7141	76.21	-0.1833	-0.0737	0.1096	1207.9426	0.110741	-491.121141	-491.11212	-491.111176	-491.15459	33.664	
N	-0.1769358946	 1.2245357381	 0.0185099178	-0.5473
C	-0.0416460749	-0.1065788196	-0.2228787458	 0.357114
N	 1.0290361004	-0.5645484655	-0.898065464	-0.560324
H	 1.8504417544	 0.0115409833	-0.9781504449	 0.2547
H	 1.0945859738	-1.5906239824	-0.9095380682	 0.300351
C	-1.0247336026	-0.99068906	 0.2533876083	 0.167815
O	-2.1074054936	-0.3834686568	 0.8526152736	-0.48144
C	-0.8644599779	-2.3912568551	 0.1314628585	 0.177237
O	 0.100191358	-2.982222082	-0.421440089	-0.454619
C	-1.9431625175	-3.26378009	 0.7153038138	 0.114794
O	-2.9598107325	-2.8671593627	 1.2576453144	-0.304025
H	 0.2844106831	 1.8783225943	-0.5927246125	 0.261487
H	-1.0798705425	 1.4995565031	 0.3750458231	 0.288132
H	-2.7044095657	-1.0979135834	 1.1449222616	 0.311756
H	-1.7275973177	-4.3441360414	 0.5997426132	 0.11432
