21
gdb 88621	3.3986	1.07946	0.99332	1.6128	82.54	-0.229	0.0804	0.3094	1296.2805	0.182609	-387.027728	-387.019175	-387.018231	-387.06154	32.886	
C	 0.226668953	 1.5840368357	-0.5188807817	-0.399449
C	 0.036042162	 0.1221467058	-0.1778015508	 0.005501
C	 1.2188577832	-0.8093561021	-0.0720794628	-0.315182
C	 0.4297013613	-0.4521838457	 1.16788336	-0.011695
C	 1.0485979358	 0.3762644115	 2.250371989	-0.04948
C	 0.2685396282	 1.1556989615	 3.3046650822	-0.149886
C	-0.9290992919	 0.3356101337	 3.7699669137	-0.093161
O	-0.0894561503	-0.8268838106	 4.0166719992	-0.283909
C	 1.0766167188	-0.0652436005	 3.6845980069	 0.065113
H	 1.1449825931	 1.9864793919	-0.0807720021	 0.111064
H	 0.2911557913	 1.7268396746	-1.6033450861	 0.114493
H	-0.6072931698	 2.1931565167	-0.1523710412	 0.115009
H	-0.8608588835	-0.31383646	-0.6117482816	 0.079354
H	 1.1401498506	-1.8155392516	-0.4694288772	 0.108508
H	 2.2071712946	-0.3701664934	-0.176994437	 0.104018
H	-0.2155761895	-1.2343734503	 1.5544059647	 0.099658
H	 1.95796719	 0.9057727852	 1.9735498452	 0.087915
H	 0.433801799	 2.2053401941	 3.5073845124	 0.094518
H	-1.3645383455	 0.6928763396	 4.7096408755	 0.109069
H	-1.725880605	 0.1306938595	 3.0456188056	 0.107689
H	 1.9619286745	-0.2132817355	 4.2931146161	 0.100856
