21
gdb 75019	3.33813	1.19376	0.94527	0.3987	97.29	-0.2023	-0.0206	0.1817	1316.9491	0.18295	-349.990728	-349.981808	-349.980864	-350.023862	34.571	
C	-0.097467103	 1.5480375605	 0.0137571318	-0.480167
C	 0.0126005663	 0.0500336544	 0.0075008273	 0.280047
C	 0.105415978	-0.6682391319	-1.131005717	-0.134585
C	 0.0970082758	-2.1079564412	-1.2456349675	-0.167857
C	-0.5556852027	-3.0012058154	-0.4496392069	 0.248792
C	-0.5686484292	-4.469710302	-0.8048031103	-0.481178
C	-1.3791944992	-2.6013467764	 0.6780427844	-0.097007
C	-1.1782243621	-1.5273600647	 1.4610097313	-0.085245
C	 0.0518827519	-0.6668792625	 1.3420776473	-0.359984
H	 0.7290557913	 2.004304097	 0.5750215377	 0.122897
H	-0.0957005343	 1.9603122898	-0.9987562049	 0.120741
H	-1.0218480076	 1.8739518623	 0.5078013665	 0.128835
H	 0.1894587943	-0.1242506147	-2.0707893443	 0.077582
H	 0.5726853765	-2.5082060583	-2.1399253922	 0.077941
H	-0.0131549216	-4.6674853133	-1.7251200642	 0.118528
H	-0.1276437345	-5.078100002	-0.0056268981	 0.126699
H	-1.5950271666	-4.8326572627	-0.9425622723	 0.123578
H	-2.2424938169	-3.2337261332	 0.8809864363	 0.081254
H	-1.9208209112	-1.2661785967	 2.2105097869	 0.088763
H	 0.9489822782	-1.3003353952	 1.3870410859	 0.115455
H	 0.1099511765	 0.0487448161	 2.1665652624	 0.094912
