19
gdb 23372	3.5982	0.9359	0.881	13.6689	82.68	-0.1073	-0.0078	0.0995	1363.9994	0.156031	-456.184464	-456.174779	-456.173834	-456.219428	35.581	
C	 0.2577679731	 1.5668446904	 0.3108295429	-0.526653
C	-0.0402712896	 0.1140380554	 0.0561383479	 0.198149
N	-0.3723180082	-0.7423022031	 1.039788082	-0.096659
O	-0.4491064121	-0.2962356408	 2.2166077363	-0.452658
C	 0.0138099494	-0.504435102	-1.2655384947	 0.022864
O	-1.0691549008	-0.0715956597	-2.2079057869	-0.493706
C	 1.2655786358	-0.1545923434	-2.0600640302	-0.014346
C	 1.3194260563	-0.2152630839	-3.5416633273	-0.233766
N	 1.0609777991	 1.0930888766	-2.8776109852	-0.23539
H	 0.0573278755	 1.324068251	-2.819862169	 0.319993
H	 1.750650165	 1.8334488234	-2.8884573883	 0.313096
H	 1.3024136787	 1.862845468	 0.1087835167	 0.056668
H	-0.3853553706	 2.2695783723	-0.241791333	 0.068543
H	 0.0777906022	 1.7056158601	 1.3836803975	 0.157627
H	-0.0500000807	-1.5915820274	-1.1368806062	 0.102847
H	-1.8128051643	 0.1062119491	-1.6188958419	 0.286229
H	 2.2031678347	-0.1703848278	-1.5174569943	 0.162696
H	 2.2785315319	-0.2697929077	-4.0436666786	 0.166827
H	 0.4584686047	-0.5891056906	-4.0808084276	 0.19764
