15
gdb 29619	3.04349	1.29565	0.90877	4.1906	71.02	-0.1948	0.0211	0.216	1190.8587	0.113439	-453.996593	-453.988065	-453.987121	-454.029979	31.122	
O	 0.1072381146	 1.3448709414	 0.2361652864	-0.464672
C	 0.0751768524	-0.0080546956	 0.0301756806	 0.197256
C	 0.0641352546	-0.73980148	-1.1341753126	-0.199768
N	 0.0291074516	-2.0684902447	-0.768055214	-0.246481
C	 0.0178656733	-2.1949506056	 0.5961405332	-0.147917
C	 0.0461716259	-0.9193816032	 1.1215302664	 0.286079
N	 0.0483006715	-0.5043730915	 2.4591747204	-0.411159
C	 0.0226184997	-1.324586955	 3.5428227316	 0.13857
O	-0.0064573927	-2.5383530869	 3.5022619298	-0.325153
H	 0.1234154853	 1.796837225	-0.6120992555	 0.29968
H	 0.0778337274	-0.4322809601	-2.1664618095	 0.115165
H	 0.0142635273	-2.8385456972	-1.4108939712	 0.265456
H	-0.0084082869	-3.1450353503	 1.095888494	 0.156763
H	 0.0718761567	 0.4923808141	 2.6119927353	 0.261687
H	 0.0312796393	-0.7483068304	 4.4881428052	 0.074492
