17
gdb 12055	3.49589	1.84408	1.52521	3.4592	68.04	-0.2417	-0.0296	0.2121	877.7258	0.141235	-363.821461	-363.813816	-363.812872	-363.85341	28.603	
C	-0.0413554139	 1.6742066597	 0.3194249052	-0.47147
C	 0.0115941059	 0.1553221134	 0.1402252064	 0.199954
C	 0.9660481545	-0.4829049389	-0.9022998851	-0.218937
N	 1.6120785384	-1.3744641302	 0.1295104305	-0.118659
C	 2.2401463257	-0.4599373481	 1.0980821687	-0.249466
C	 0.7825787939	-0.6723326787	 1.1884059762	-0.066869
C	-1.4098791847	-0.3725850677	 0.0247923235	 0.123872
O	-1.8404834683	-1.0556186133	-0.866182292	-0.240173
H	 0.950382603	 2.0804904227	 0.532366281	 0.127356
H	-0.4184602204	 2.1608543292	-0.5866341617	 0.132113
H	-0.7016633086	 1.952144344	 1.1492234041	 0.124118
H	 0.4332631258	-1.0773502405	-1.6447305383	 0.141166
H	 1.6708119632	 0.1937011256	-1.3959449167	 0.100706
H	 2.8599339406	-0.9730391152	 1.8274417086	 0.126616
H	 2.643967029	 0.4878334681	 0.7485649349	 0.112724
H	 0.3241201672	-1.2173879951	 2.0091356697	 0.098794
H	-2.0641039014	-0.0616157349	 0.873720775	 0.078155
