15
gdb 17223	5.32494	1.6931	1.53527	4.5585	70.21	-0.2688	0.0211	0.2899	830.7761	0.12103	-325.493357	-325.487239	-325.486295	-325.523455	24.313	
N	 0.076289762	-1.082060273	-0.1028488321	-0.352969
C	 0.0359271194	 0.073511673	-0.0386368436	 0.166282
C	-0.0292330468	 1.4922459381	 0.0501583451	 0.232516
C	-1.1353043725	 2.3449172305	 0.6803053647	-0.284061
C	-0.4885787932	 3.5408793925	-0.0665128935	-0.07907
C	 0.8979201553	 3.7064370118	 0.6188863425	-0.232601
C	 1.2541289634	 2.3654044647	-0.0153321251	-0.098153
C	 0.1897336939	 2.5121418899	-1.0624779334	-0.108882
H	-2.1099995708	 2.0781695909	 0.2658047256	 0.120112
H	-1.1933420401	 2.3987485157	 1.7722416821	 0.107276
H	-1.0832575369	 4.4054875375	-0.3482748299	 0.087136
H	 1.4798388227	 4.5124571752	 0.1644103504	 0.113273
H	 0.9151559885	 3.8033479787	 1.7094317694	 0.102412
H	 2.2189632852	 1.8850091719	-0.1091939234	 0.111754
H	 0.18988142	 2.3774433424	-2.1338039787	 0.114974
