19
gdb 112462	2.48543	1.3687	0.94989	4.1106	78.4	-0.2596	0.0045	0.2641	1262.0709	0.159056	-423.078073	-423.069197	-423.068253	-423.112939	32.437	
C	 0.1189571546	 1.5210138706	 0.0511678612	-0.388996
C	 0.2251769921	-0.005531324	 0.0497745318	-0.173442
C	 0.5744001785	-0.5902894367	-1.328429407	 0.085129
O	 1.8193106921	-0.005651276	-1.7644658632	-0.243239
C	 2.9680885151	-0.6822855525	-1.9861853914	 0.409497
O	 3.9524004516	-0.0688664613	-2.2980292504	-0.326502
C	 2.9737915076	-2.1965482922	-1.8430185538	-0.404622
C	 1.6437648045	-2.8204526029	-1.5588222424	-0.077882
C	 0.563466035	-2.0855913259	-1.3314551302	-0.07624
H	 1.0583309637	 1.9762130737	-0.2711387773	 0.145987
H	-0.6703963048	 1.8619158802	-0.6280512517	 0.114849
H	-0.1182193311	 1.8927916377	 1.052104778	 0.115051
H	 0.986074515	-0.3400780087	 0.7650636424	 0.107151
H	-0.724316307	-0.4518460621	 0.3702407792	 0.100672
H	-0.1683043188	-0.2234196556	-2.0521631431	 0.103741
H	 3.4175828047	-2.5952051203	-2.7633210894	 0.150317
H	 3.7012363405	-2.4355859468	-1.0557287415	 0.150859
H	 1.5918086617	-3.905472617	-1.5446934165	 0.103624
H	-0.3986594451	-2.54398498	-1.1221746548	 0.104046
