19
gdb 71030	3.86634	1.61912	1.35519	1.6166	79.2	-0.2263	0.0919	0.3181	984.8417	0.160192	-385.797254	-385.790317	-385.789373	-385.828043	29.121	
C	-0.0163166098	 1.4997005302	-0.0850663935	-0.509026
C	 0.0456434757	-0.0006446156	-0.0224928159	 0.286644
C	 0.6791504926	-0.9693913483	-1.1104946357	-0.371937
C	 0.1477195079	-1.8664933681	 0.0078004648	 0.464506
O	-0.0032106482	-3.1825490783	 0.4530207376	-0.349326
C	-0.6867342884	-2.901584631	 1.7188186431	-0.111016
C	-0.7946993912	-1.343110712	 1.7366920088	-0.142995
C	 0.564699885	-0.8978040666	 1.1462292463	-0.124954
C	-1.1173007108	-1.0041852319	 0.2615754707	-0.124959
H	 0.9868156437	 1.9367592107	-0.141523995	 0.11981
H	-0.5759043152	 1.8379118185	-0.9642451644	 0.119809
H	-0.5103596462	 1.904730089	 0.8046821883	 0.121357
H	 0.1698599571	-1.0172868935	-2.0781196875	 0.10024
H	 1.7647737783	-0.9164229694	-1.2392779733	 0.100241
H	-1.6631733297	-3.3983797468	 1.7125859674	 0.108773
H	-0.084049837	-3.2985107044	 2.5431354772	 0.108773
H	-1.2802616369	-0.8965100322	 2.6061906723	 0.066844
H	 1.5506699817	-0.8734427534	 1.6123942416	 0.068608
H	-2.0564679386	-1.1015925768	-0.2847911728	 0.068609
