17
gdb 31811	4.7053	1.00231	0.87892	1.1606	79.49	-0.238	-0.0442	0.1938	1321.8019	0.137551	-418.076157	-418.068088	-418.067144	-418.10941	30.19	
C	 0.0146665056	 1.5337151006	-0.2577960281	-0.369647
C	-0.0163570461	 0.0300750816	 0.0580465007	-0.271086
C	-1.4148679436	-0.5330630844	 0.0573215268	 0.307629
C	-1.8545230612	-1.4500133233	-0.8929666155	-0.076282
N	-3.0993897373	-1.941962643	-0.9041786222	-0.336557
C	-3.911045274	-1.510084408	 0.0466465039	 0.403397
O	-5.1748985621	-1.9748024509	 0.081033414	-0.414142
C	-3.4916496042	-0.5865500192	 1.0178914793	-0.08611
N	-2.2586070241	-0.1084666152	 1.016698457	-0.279984
H	 1.0354090757	 1.9232399881	-0.1998254778	 0.112935
H	-0.3689525789	 1.7331612797	-1.2637268238	 0.115274
H	-0.6059412309	 2.0825388054	 0.4556331969	 0.138123
H	 0.5960279026	-0.5194756613	-0.6652708784	 0.100903
H	 0.4272493575	-0.1386545431	 1.0461915868	 0.118364
H	-1.1867695899	-1.8063591077	-1.6733332985	 0.112408
H	-5.2596172108	-2.5908170124	-0.6602608578	 0.300931
H	-4.1775712384	-0.2512385567	 1.7905695866	 0.123845
