25
gdb 118568	1.69408	0.86854	0.60786	1.5398	87.01	-0.2509	0.0786	0.3295	1913.7125	0.226249	-426.614495	-426.602506	-426.601562	-426.653016	41.612	
C	-0.135571839	 1.4354818233	-0.0881259534	-0.391684
C	-0.0612193522	-0.0885169619	 0.0430444565	-0.180582
C	 0.8053844947	-0.5855316425	 1.2173534277	 0.012151
C	 0.1249016156	-0.3614618238	 2.5805017827	-0.188934
C	 1.0788094485	-0.3540056493	 3.7704984162	-0.079198
O	 0.3044425211	-0.1283712293	 4.939976291	-0.420849
C	 1.1603497207	-2.0627216991	 1.0256409836	-0.065644
O	 1.9726677671	-2.1985955912	-0.1219662573	-0.231753
C	 2.3074020436	-3.5345995545	-0.404134563	-0.227392
H	 0.8612729266	 1.8648928336	-0.2387571691	 0.11471
H	-0.7527320587	 1.7237424036	-0.9449440289	 0.111341
H	-0.5690005696	 1.9089669012	 0.7989134282	 0.116706
H	-1.0740047707	-0.5018252004	 0.149718295	 0.087282
H	 0.3506040302	-0.5077917185	-0.8801177982	 0.111877
H	 1.7531690264	-0.0280694708	 1.1960338517	 0.074671
H	-0.4035797461	 0.597241419	 2.5828373994	 0.107732
H	-0.640201031	-1.1307904309	 2.7487770646	 0.101079
H	 1.625115831	-1.307805016	 3.8398155704	 0.084975
H	 1.830884271	 0.4401378059	 3.6314764586	 0.085861
H	 0.8974212452	-0.1240284236	 5.696849122	 0.28453
H	 1.6903820332	-2.4594016341	 1.9072657197	 0.081075
H	 0.2356496243	-2.6575277833	 0.9128556555	 0.082415
H	 1.413591241	-4.1501016317	-0.5950980415	 0.102893
H	 2.9334668388	-3.5348777253	-1.2999785953	 0.125469
H	 2.8699913584	-3.9994769304	 0.4216433838	 0.101269
