21
gdb 69494	3.03711	1.4674	1.22656	0.9082	81.35	-0.2383	0.082	0.3203	1110.8809	0.184006	-383.24711	-383.238742	-383.237798	-383.27937	33.536	
C	-0.0663724977	 1.5286938667	 0.0842442089	-0.465618
C	-0.0467185995	 0.0208669782	 0.0973165446	 0.343854
C	-1.3166057609	-0.741599289	-0.3017394867	-0.326606
C	-1.280837125	-2.0269986517	 0.5184631385	-0.063918
N	-1.3756825275	-1.9052392629	 1.9843264183	-0.376668
C	-0.0476947593	-2.0744419929	 1.3622299117	 0.322446
C	 0.7098302453	-3.3283283609	 1.7201600152	-0.466319
C	 0.7082446063	-0.7992610943	 1.0906673902	-0.155292
N	 1.2325862247	-0.6107444682	-0.2764999957	-0.375826
H	 0.9007572669	 1.9291597044	 0.3972103322	 0.130571
H	-0.2745093191	 1.9063242917	-0.9236369424	 0.120613
H	-0.8416295183	 1.9193656316	 0.7531363475	 0.111194
H	-2.217366343	-0.1537314056	-0.0826472285	 0.105077
H	-1.3349347004	-0.9492985887	-1.3794910041	 0.105125
H	-1.7318447487	-2.9279938882	 0.1127113828	 0.089984
H	-1.5262352501	-0.9319815754	 2.245396415	 0.223691
H	 0.0236340065	-4.1713014252	 1.831497924	 0.129586
H	 1.4511333952	-3.5763861048	 0.9525683977	 0.116079
H	 1.2424802789	-3.2019659342	 2.669544701	 0.121968
H	 1.3132911271	-0.3593231089	 1.8808058531	 0.08641
H	 1.0705222585	-1.4518092618	-0.8286804633	 0.223647
