18
gdb 65169	2.51712	1.32163	1.18771	3.016	78.08	-0.2376	0.0242	0.2617	1144.9157	0.145168	-401.859771	-401.850672	-401.849727	-401.893818	34.023	
C	 0.0311446177	 1.4544508679	-0.8186114287	-0.474632
C	-0.0010084384	 0.1112972274	-0.1184326941	 0.266936
C	 1.1000748862	-0.8654908429	-0.3461908748	-0.274048
N	 0.9637864089	-0.1737323064	 0.9468397005	-0.324002
C	-1.3920122702	-0.4172449051	 0.1018603549	 0.035905
O	-1.569318916	-1.5160355361	 0.9767791643	-0.236827
C	-2.1555154154	-0.2589304296	 1.3624772196	-0.176416
C	-1.6529179863	 0.4167638431	 2.5274337253	 0.356434
C	-1.3336850581	 1.018574301	 3.5177164246	-0.420158
H	 1.0600741686	 1.750031063	-1.0458219277	 0.117372
H	-0.5240513191	 1.4273730671	-1.7631832948	 0.124687
H	-0.417896634	 2.2313644887	-0.189738472	 0.134596
H	 0.8907971784	-1.9304407089	-0.3047650008	 0.130047
H	 1.9034188563	-0.5775894337	-1.0199186763	 0.108051
H	 1.6316875395	 0.5901022879	 1.0152039362	 0.22841
H	-1.9867454884	-0.4719816573	-0.8145457704	 0.09137
H	-3.2430484972	-0.2507891729	 1.2802903987	 0.114483
H	-1.0215310723	 1.5347099268	 4.3916908055	 0.197791
