19
gdb 18532	4.97475	1.13821	1.04237	0.392	70.98	-0.2295	0.0799	0.3095	1162.1596	0.16594	-365.00613	-364.998026	-364.997082	-365.03907	30.097	
O	 0.030912232	 1.4900827772	 0.2002086713	-0.423667
C	 0.0743090004	 0.075060159	 0.0802521855	-0.070144
C	-1.3626635553	-0.4291188523	 0.0106553945	-0.197878
C	-1.4437282172	-1.9424261418	-0.1065995933	 0.065272
C	-2.8083025691	-2.6404259944	-0.3721756328	-0.289831
C	-2.1461222314	-3.2523643094	-1.604517349	-0.006435
C	-1.6288165603	-2.202562204	-2.498509042	-0.241337
N	-0.8099145623	-2.5824151965	-1.329450754	-0.145073
H	 0.9345690669	 1.8183590461	 0.1920021164	 0.285121
H	 0.6180518572	-0.2369980582	-0.8236301383	 0.105776
H	 0.586560298	-0.3830790104	 0.9424016652	 0.084019
H	-1.8942944473	-0.1151324592	 0.9178541834	 0.107698
H	-1.8671619071	 0.0659938851	-0.8265428447	 0.104896
H	-0.9489014605	-2.3941813783	 0.7591325651	 0.083635
H	-3.0744947036	-3.3643771706	 0.3997458354	 0.109573
H	-3.6742875973	-1.9993025372	-0.5659615618	 0.102242
H	-2.2048724272	-4.2952387883	-1.8991494348	 0.093468
H	-1.1733323913	-2.5114973182	-3.434327129	 0.119616
H	-2.1160262546	-1.2315223583	-2.5360765671	 0.11305
