13
gdb 19325	5.24214	1.69245	1.51361	2.9515	65.37	-0.2225	0.0132	0.2356	815.9795	0.093902	-361.317712	-361.311228	-361.310284	-361.348082	25.595	
C	 0.0360185503	-1.198710807	-0.075420486	-0.39978
C	 0.0514116366	 0.0042260577	-0.0170093601	 0.170205
C	 0.0357699086	 1.4151320247	 0.0814621002	 0.18841
N	 0.2075481981	 2.3337717214	-1.0825507892	-0.345487
C	 1.1544932449	 2.4083646613	 0.0396732173	-0.173614
C	 0.4733104445	 3.214151064	 1.2020742875	 0.028777
O	-0.8435973198	 3.5880282961	 0.7952422845	-0.204833
C	-0.6301767297	 2.2593974998	 1.2458205343	-0.049788
H	 0.029002996	-2.2590152845	-0.1315719103	 0.191867
H	 0.6556699589	 1.7804028265	-1.8140885388	 0.243252
H	 2.2143698283	 2.2240060666	-0.0729157638	 0.116586
H	 0.9616364557	 3.7946439363	 1.9740064763	 0.118248
H	-1.2352173426	 1.867258907	 2.053508118	 0.116157
