14
gdb 132636	3.23975	1.32831	0.94297	4.0262	68.45	-0.2071	-0.0124	0.1947	1123.6996	0.101943	-478.034044	-478.026532	-478.025588	-478.065753	29.29	
N	-0.0314713542	 1.421096083	-0.1387758851	-0.598738
C	-0.0187351372	 0.0274172608	-0.0515322854	 0.197193
C	-1.1721951229	-0.7453215181	 0.0352349637	-0.064894
N	-1.1903885065	-2.0866051995	 0.0579939634	-0.330178
C	-0.0346975374	-2.694229318	-0.0048585414	 0.340698
F	-0.0520401665	-4.0291633323	 0.016005545	-0.082215
C	 1.2022500811	-2.0593409377	-0.0872903025	-0.425252
C	 1.2029491524	-0.6735026997	-0.1093886016	 0.389178
O	 2.3317015266	 0.0821496146	-0.1768412734	-0.447531
H	 0.8325901251	 1.8506690712	 0.1603532314	 0.259133
H	-0.8331418061	 1.8552969939	 0.296010688	 0.249542
H	-2.1404638511	-0.2520806474	 0.0880019437	 0.104012
H	 2.1201492951	-2.6352381821	-0.1283849283	 0.103234
H	 3.1050626216	-0.4913687488	-0.1923817974	 0.305818
