20
gdb 9771	2.707	1.99768	1.62038	0.8597	70.32	-0.2473	0.0839	0.3312	929.9237	0.176192	-386.157019	-386.148374	-386.14743	-386.189978	32.113	
C	 0.0181700789	 1.5478077135	-0.2657046345	-0.395283
C	-0.0181575632	 0.0376721902	-0.0325886722	-0.19837
C	-1.4339690406	-0.5381215483	 0.0759020304	 0.46165
C	-1.4283003546	-2.0602033067	 0.227873754	-0.416011
O	-2.0892354337	 0.0789041226	 1.1799394532	-0.285206
C	-3.4407716609	 0.2858084555	 0.8058294365	-0.109251
C	-3.3289455861	 0.5696732515	-0.6924037873	-0.091176
O	-2.2043031541	-0.2028892763	-1.0875019829	-0.303366
H	 1.0500619985	 1.9056440025	-0.3268050467	 0.107211
H	-0.4850789189	 1.8059238893	-1.2017457195	 0.125053
H	-0.4785414867	 2.078203722	 0.5508608774	 0.123548
H	 0.4911286301	-0.4852905263	-0.8498655463	 0.101973
H	 0.5152297308	-0.2194269956	 0.8897859434	 0.103487
H	-0.8281468887	-2.3557439425	 1.0928408234	 0.119319
H	-2.447115638	-2.432403292	 0.3637408577	 0.113767
H	-1.0112323502	-2.5266233023	-0.6686719264	 0.123629
H	-4.0530908794	-0.6072555282	 1.0006861196	 0.097809
H	-3.8385303611	 1.1204817869	 1.3880618625	 0.113559
H	-4.2052385131	 0.2479293538	-1.2638237625	 0.107712
H	-3.152215249	 1.6373286903	-0.8834640698	 0.099949
