19
gdb 74855	2.41331	1.8293	1.23083	2.1114	81.26	-0.2273	0.0067	0.234	1057.1063	0.159311	-385.870308	-385.862391	-385.861447	-385.902421	31.484	
C	 0.0603330383	 1.4942080419	 0.0211824854	-0.504084
C	-0.0220381902	 0.0009457642	-0.004242228	 0.243287
C	-0.1140136998	-0.7768178099	-1.0948785169	-0.211762
C	-0.0563120603	-2.218848334	-0.7233602231	-0.010713
O	 1.1842952617	-2.6001808671	-0.0725319377	-0.26681
C	 0.0579579435	-2.2674021192	 0.7435043652	-0.057654
C	 0.03434086	-0.8434989327	 1.2364421999	 0.285594
C	 0.7675089509	-0.4328345792	 2.4959211816	-0.304798
C	-0.7318362739	-0.4923180709	 2.4989214844	-0.318096
H	 1.0271388231	 1.8339137699	 0.4131572489	 0.135296
H	-0.0568009958	 1.9100339063	-0.9826182439	 0.129751
H	-0.7134792568	 1.9344773562	 0.6620347558	 0.126736
H	-0.1736543683	-0.4193008755	-2.1155583432	 0.094312
H	-0.5142615174	-2.9983846119	-1.3243338589	 0.093235
H	-0.3305616012	-3.0730324111	 1.362506983	 0.089709
H	 1.322209708	-1.2020705379	 3.0216623735	 0.124719
H	 1.2403770357	 0.5430779743	 2.5091025806	 0.117387
H	-1.2865503001	 0.4392004112	 2.5168013052	 0.1163
H	-1.2165974771	-1.3093870446	 3.0239209681	 0.117592
