17
gdb 94780	3.83805	1.13804	0.99938	1.2254	69.11	-0.2628	-0.0414	0.2214	1175.4612	0.135322	-458.964621	-458.956456	-458.955511	-458.997533	30.693	
O	 0.0064426942	 1.4154948695	-0.072600706	-0.434684
C	 0.0388373311	 0.0037632111	-0.0464869801	 0.137831
C	 0.7539463064	-0.605164553	 1.1872340491	-0.265704
C	 0.1096799783	-1.9888301717	 1.4140537683	-0.299077
C	-1.292040845	-1.8302887829	 0.8562325373	 0.310165
O	-1.959042468	-0.6134049863	 1.2558680783	-0.295154
C	-1.3399579995	-0.6435752352	-0.0286702948	-0.057777
C	-2.1998920378	-2.9862418356	 0.629727385	 0.090397
O	-1.8460892482	-4.1368783388	 0.691005494	-0.255418
H	-0.4807341155	 1.7044899803	 0.7081651321	 0.288464
H	 0.5434560055	-0.2917506525	-0.9739179517	 0.101035
H	 1.835600986	-0.653274432	 1.0500257761	 0.114692
H	 0.5612800304	 0.0421876517	 2.0476890698	 0.112816
H	 0.6136693341	-2.7787143934	 0.8479772974	 0.130861
H	 0.1067600282	-2.2952373249	 2.4636298052	 0.122548
H	-2.0129152754	-0.5524680659	-0.878166439	 0.109894
H	-3.2462031749	-2.6921007404	 0.3958049291	 0.08911
