19
gdb 38942	3.05834	1.80894	1.5572	1.8393	72.62	-0.2352	0.0807	0.316	916.024	0.163369	-423.005072	-422.998699	-422.997755	-423.035494	27.173	
C	 0.00012176	 1.5552435492	 0.1342188594	-0.248231
C	 1.5108989612	 1.8025879219	 0.0112679396	 0.060702
O	 2.0275753541	 0.8180773168	 0.9664764004	-0.300433
C	 1.5967043602	-0.1461353205	-0.0268934065	 0.027372
C	 1.9665261724	 0.8629789641	-1.1424619424	-0.00838
C	 1.1775278598	 0.764374701	-2.4541435523	-0.275781
C	 0.2373101246	-0.4474927937	-2.3807123789	-0.056471
O	-0.5743203878	-0.4696299369	-1.2144083132	-0.278118
C	 0.0488592641	-0.0021450288	-0.0244712953	 0.116463
H	-0.3635390404	 1.8709209756	 1.1140269361	 0.108839
H	-0.6141346688	 2.0164324703	-0.6421410434	 0.104892
H	 1.9067772927	 2.8084302497	 0.1504350551	 0.079443
H	 2.036435915	-1.1370899486	 0.0819511778	 0.083011
H	 3.0480831469	 0.9219075271	-1.2695320662	 0.085694
H	 0.6061281607	 1.6805000745	-2.6404814944	 0.109319
H	 1.849212921	 0.6323972674	-3.3083742179	 0.104358
H	-0.4529493439	-0.4700139701	-3.2292731249	 0.107598
H	 0.8471836704	-1.3645791691	-2.4287637328	 0.092128
H	-0.4325259423	-0.52791753	 0.8018424396	 0.087596
