16
gdb 126640	3.43084	1.04525	0.85226	3.8706	67.14	-0.2788	-0.05	0.2288	1337.8684	0.123545	-471.193724	-471.185164	-471.18422	-471.228465	29.813	
C	-0.0887789071	 1.5152343473	-0.0056489944	-0.383363
C	-0.0669303224	-0.0148900599	 0.0052681103	-0.183221
C	 0.755094299	-0.5596377006	 1.1766157088	-0.154685
N	 0.7938131996	-2.0137711899	 1.2143436625	-0.10025
N	-0.249774687	-2.7652617099	 1.6126644451	-0.052144
N	 0.040091932	-3.9788585203	 1.5195286808	 0.020783
O	 1.3609309689	-4.0889481631	 1.0224383986	-0.232356
C	 1.8456879837	-2.8231884058	 0.8218704649	 0.549764
O	 2.9289995124	-2.5236023044	 0.4079585162	-0.389545
H	 0.9212683496	 1.9276326704	-0.1015846727	 0.12723
H	-0.6817244062	 1.8884851554	-0.8447124341	 0.128821
H	-0.5267944117	 1.9143870405	 0.9155649658	 0.123954
H	-1.0870798613	-0.4086568088	 0.076577864	 0.124788
H	 0.357199495	-0.3951167978	-0.9310113107	 0.122537
H	 1.8006831741	-0.2472029558	 1.1033834018	 0.15739
H	 0.3577591812	-0.2079060072	 2.1334890329	 0.140297
