17
gdb 124339	2.60661	1.69084	1.0386	1.4209	77.45	-0.2483	-0.0371	0.2112	1120.2671	0.1361	-418.07082	-418.062314	-418.06137	-418.104146	31.079	
C	-0.1213772669	 1.5118946499	-0.0260212283	-0.477398
C	 0.0581949669	 0.0141011907	-0.0195972413	 0.42391
O	 1.1297475122	-0.5430038059	-0.0358534692	-0.321499
N	-1.1393495931	-0.7363939131	 0.0073672491	-0.101298
N	-2.3468024323	-0.091091227	 0.0255264486	-0.262357
C	-3.2398363389	-1.0582625757	 0.0482119818	 0.007718
C	-2.6359222792	-2.3417083744	 0.0453218741	-0.305382
C	-1.2832197341	-2.1152153564	 0.0188368511	 0.386121
C	-0.1533166342	-3.0890876846	 0.0041921296	-0.473249
H	 0.8683170231	 1.9671109686	-0.0467238031	 0.140301
H	-0.7072007355	 1.8255297229	-0.8931853225	 0.160907
H	-0.6759360384	 1.8368981832	 0.8573427217	 0.16092
H	-4.2924953241	-0.8132278967	 0.0660885149	 0.12301
H	-3.1220656739	-3.3042519414	 0.0604897318	 0.111741
H	 0.4730153866	-2.9670748863	-0.8833399852	 0.152136
H	 0.505101339	-2.9561417325	 0.8665824589	 0.152124
H	-0.5579937772	-4.1039594212	 0.017969478	 0.122295
