19
gdb 68198	3.62348	1.22451	1.13624	4.9198	79.36	-0.2483	0.0203	0.2686	1137.853	0.161319	-382.055693	-382.047878	-382.046934	-382.087772	30.913	
C	-0.0361086436	 1.5465008433	 0.0589948609	-0.506733
C	 0.0168210939	 0.0370864242	 0.0208472	 0.330923
C	 0.9814967264	-0.7758536124	-0.8878443656	-0.224026
N	 0.7702913343	-1.9264426697	 0.0814591998	-0.127483
C	 0.6545715999	-0.8393599324	 1.1347563422	-0.214288
C	-0.6889094054	-2.1892050436	-0.1401702091	-0.122849
C	-1.2972399363	-0.7358131686	-0.214732644	-0.283851
C	-0.9174299549	-2.9882197227	-1.3427104291	 0.292756
N	-1.1212259149	-3.6049093228	-2.2985770678	-0.329095
H	 0.9570201534	 1.9728211247	 0.2347623947	 0.120965
H	-0.412420499	 1.9525533969	-0.8863341358	 0.126621
H	-0.6984068592	 1.8999766602	 0.8570545178	 0.123206
H	 0.7013739508	-0.9837255913	-1.9242572885	 0.122124
H	 2.0201925999	-0.4427884639	-0.836382096	 0.114207
H	 1.6534004636	-0.515290722	 1.4346910789	 0.114617
H	 0.0624607949	-1.1049908101	 2.0165763972	 0.101415
H	-1.0753079658	-2.7492092592	 0.7158991561	 0.126405
H	-2.0427815249	-0.5616202079	 0.5655447346	 0.110442
H	-1.7503109131	-0.5164711028	-1.1842868562	 0.124644
