21
gdb 36894	3.65701	1.07497	1.03152	1.0416	82.36	-0.2333	0.0873	0.3206	1276.0251	0.182851	-387.029609	-387.021287	-387.020343	-387.063136	32.337	
C	-0.4418637016	 1.1020830266	 0.512950534	-0.287798
C	 1.0616737065	 0.9578348702	 0.3723017478	-0.291051
C	 0.1673870517	-0.1869472876	 0.0267135473	 0.143382
O	 0.2261613601	-1.3016813335	 0.8666834386	-0.25655
C	-0.9600764819	-2.0452694844	 0.8968317873	 0.148543
C	-1.1314031262	-3.1212559493	 1.9076178583	-0.121033
C	-0.5060866019	-2.7122990669	 3.2475016781	-0.218212
C	-1.4149846579	-1.4436339414	 3.2777381177	-0.224007
C	-2.0284472726	-1.8511195058	 1.9324710594	-0.104782
H	-0.8467086844	 1.1119018455	 1.5176917149	 0.125298
H	-0.9767781389	 1.7218853665	-0.1986239144	 0.110665
H	 1.5697516642	 1.4813821768	-0.4295521778	 0.112935
H	 1.6351114411	 0.8585813485	 1.2868503019	 0.124646
H	 0.0381484387	-0.4394650639	-1.0265893058	 0.084063
H	-1.3414967325	-2.292543977	-0.0951337566	 0.081791
H	-1.3764057942	-4.1370368952	 1.6186232656	 0.083425
H	-0.7444157766	-3.4104143089	 4.0523170558	 0.099478
H	 0.5730926581	-2.5419625653	 3.2298991077	 0.109806
H	-2.1392321	-1.4755212275	 4.0942532943	 0.100947
H	-0.9043102635	-0.4766107482	 3.2994657523	 0.098308
H	-3.0720230982	-1.7381013392	 1.6603757534	 0.080148
