22
gdb 122939	2.40419	0.87356	0.72422	4.4487	81.26	-0.2361	0.0367	0.2728	1667.2094	0.191887	-441.504026	-441.49295	-441.492006	-441.542034	37.738	
C	 0.0994139287	 1.4968335869	-0.0228387527	-0.385973
C	 0.1135847324	-0.0216511726	 0.0082837109	-0.030109
O	 0.673760576	-0.4917004346	-1.2033293785	-0.238598
C	 0.7558121791	-1.8926688375	-1.2864447193	-0.049365
C	 1.4877427461	-2.2423827871	-2.5817208025	-0.201463
N	 2.8772368924	-1.8282714726	-2.599849763	-0.021265
C	 3.8667121086	-2.6499640118	-1.9265207325	-0.346208
C	 3.2407845958	-0.6190965208	-3.1210024082	 0.160118
O	 4.3612322886	-0.1537084579	-3.1037539975	-0.347641
H	 1.114720506	 1.8870222338	-0.1349484363	 0.135062
H	-0.5015862569	 1.8581989772	-0.8620408424	 0.127333
H	-0.3257567917	 1.8918252665	 0.9044995352	 0.11647
H	 0.7060254171	-0.3875653029	 0.8636237424	 0.089139
H	-0.9085483275	-0.4178658316	 0.1314127979	 0.086727
H	 1.2892372845	-2.3065375221	-0.4141473082	 0.090285
H	-0.248424964	-2.3505194854	-1.3000332478	 0.087863
H	 1.4320040038	-3.3244068586	-2.7508016547	 0.108087
H	 0.9662801238	-1.7523869411	-3.4105156058	 0.127808
H	 3.8867593862	-3.6584922302	-2.3564242763	 0.121029
H	 4.8378287244	-2.1738439404	-2.0624289749	 0.169471
H	 3.6615327178	-2.736135874	-0.8524775841	 0.122816
H	 2.3808503886	-0.1023154233	-3.5858023417	 0.078415
