21
gdb 101067	2.57965	1.20385	0.96548	1.0831	85.92	-0.2389	0.052	0.2909	1315.0201	0.179247	-387.037355	-387.027012	-387.026068	-387.072592	38.293	
C	 0.0246341183	 1.5005763087	-0.2652768458	-0.236327
O	-0.1867250978	 0.1080736744	-0.2757838768	-0.253157
C	 0.7097939599	-0.6267086411	-1.0970810834	 0.035061
C	 2.0679767262	-0.8168440095	-0.4165060449	-0.402808
C	 0.0392661108	-1.9701823309	-1.4194234422	 0.176687
C	-0.7823373255	-2.6538912333	-0.3355215216	-0.293815
C	-1.4771804594	-2.0358392184	-1.5140257814	-0.307723
C	 0.7894642369	-2.8005674378	-2.3227177425	 0.242034
C	 1.4240144654	-3.4775572402	-3.0894931049	-0.439115
H	 0.9861230103	 1.7789344961	 0.1891886648	 0.110469
H	-0.012308041	 1.9236235451	-1.2810251163	 0.107473
H	-0.7790582271	 1.941760502	 0.3296091931	 0.128232
H	 0.8515472921	-0.0865055211	-2.0477952555	 0.0737
H	 2.5559345558	 0.1441361952	-0.2313038985	 0.111595
H	 1.938881796	-1.3315709058	 0.5402724072	 0.123122
H	 2.7280147084	-1.4155837393	-1.0489266037	 0.135581
H	-0.7226256658	-3.7336538948	-0.2723649226	 0.120434
H	-0.8507331917	-2.1313339139	 0.6108017435	 0.132438
H	-2.0061341156	-1.1062243515	-1.3481265216	 0.129028
H	-1.8933076428	-2.6894354389	-2.271142536	 0.12009
H	 1.9791915865	-4.0821934051	-3.7626353508	 0.186999
