17
gdb 79615	2.33208	1.87742	1.4676	3.5325	72.17	-0.2221	-0.0382	0.1839	955.9663	0.136714	-417.951401	-417.943785	-417.942841	-417.983531	29.346	
C	-0.2000300882	 1.5198024067	 0.0943913331	-0.302521
N	 0.0478044153	 0.0904686503	-0.0713256725	-0.085517
C	 0.5356000323	-0.6332065387	-1.2149755738	-0.033297
C	 1.3721089429	 0.014904149	-2.3211071915	-0.051763
N	 1.6054372323	 1.4582402994	-2.159348598	-0.331125
C	 2.6528369378	 0.4901052108	-1.7371770888	-0.169055
C	 2.6458645309	 0.1124982164	-0.2626673721	 0.427239
O	 3.6016991574	 0.1762139195	 0.4688355184	-0.31453
C	 1.3272589491	-0.5767369615	 0.0743749645	-0.173757
H	 0.6609720163	 2.1653339475	-0.0853591798	 0.13736
H	-0.9942669146	 1.8164854016	-0.5961142837	 0.123589
H	-0.564845656	 1.6689058723	 1.1163748765	 0.116983
H	-0.0435771091	-1.5093415365	-1.4987082142	 0.098128
H	 1.3202615576	-0.4103229855	-3.3174316215	 0.097134
H	 1.8941669659	 1.8563025778	-3.050903589	 0.242784
H	 3.6068970757	 0.4854492651	-2.2521681029	 0.111227
H	 1.3917519844	-1.3653336642	 0.8212323751	 0.107119
