20
gdb 77967	3.21224	1.20405	1.01492	2.2439	80.47	-0.2365	-0.0316	0.2049	1234.0396	0.169347	-403.06477	-403.055492	-403.054548	-403.099741	33.775	
C	-0.0712882421	 1.5925103913	-0.6778657975	-0.461272
C	 0.005918968	 0.0947643367	-0.4371691257	 0.100459
C	 0.908753265	-0.9177800232	-1.1966561395	-0.123941
C	 2.0838039834	-0.435077731	-0.2983446539	 0.094105
C	 2.8735108937	 0.8657791346	-0.4582833165	-0.456146
N	 0.8941802451	-0.4915135198	 0.7061312868	-0.202552
C	 0.6081002132	-1.8403101314	 0.0018678916	-0.015572
C	-0.7407145323	-2.4702272446	 0.2473970274	 0.106396
O	-1.5049572623	-2.8173101355	-0.6173497826	-0.239714
H	 0.8411334895	 2.0596008126	-1.0380419902	 0.125202
H	-0.8555532259	 1.7843872719	-1.4181886855	 0.12432
H	-0.3695921144	 2.0936422082	 0.2497670784	 0.132769
H	-1.0239386156	-0.2505681557	-0.3098636653	 0.092172
H	 0.9149014236	-1.171917566	-2.2616102222	 0.074161
H	 2.7893399786	-1.2371056195	-0.0592097717	 0.07613
H	 2.5710744715	 1.6118868583	 0.280100621	 0.142033
H	 3.9378589588	 0.6698734368	-0.3018429144	 0.118632
H	 2.7693785026	 1.3043408392	-1.4540034554	 0.130847
H	 1.3686778681	-2.5908606201	 0.2585187338	 0.093997
H	-0.9649098987	-2.643269173	 1.3252640513	 0.087973
