18
gdb 79984	2.03118	1.85386	1.74561	1.6613	77.49	-0.2351	0.002	0.2371	961.167	0.146196	-401.919936	-401.911491	-401.910547	-401.952536	32.358	
C	 0.0182428253	 1.4727161591	-0.1779438426	-0.349514
N	 0.0192662533	 0.0204055768	 0.0143709263	-0.092676
C	-1.1491421517	-0.5231524009	 0.7970457939	-0.172895
C	-0.7925059936	-1.986363641	 0.8582925027	-0.083061
C	 0.5305061853	-1.9732350541	 1.0884421907	-0.117632
C	 0.882517236	-0.5029572598	 1.1556290228	 0.181175
C	 2.302808161	-0.0357721483	 1.3152838824	-0.525503
C	-0.3346670527	-0.0068200151	 2.0607786097	 0.369122
O	-0.497835385	 0.6978055541	 3.0015132997	-0.311524
H	 0.9731691546	 1.7698964575	-0.620009452	 0.129645
H	-0.7712287867	 1.7228642268	-0.8926397192	 0.128894
H	-0.1425822958	 2.066053777	 0.7370883978	 0.122587
H	-2.1502934677	-0.1899444252	 0.5331940609	 0.087403
H	-1.4823191801	-2.8152078902	 0.8053907944	 0.116562
H	 1.2138187301	-2.7896945289	 1.2727469021	 0.11219
H	 2.8967741916	-0.2816052523	 0.4292393277	 0.13514
H	 2.3547405093	 1.0436570831	 1.4815230909	 0.134407
H	 2.761822867	-0.5262176887	 2.1787606316	 0.13568
