19
gdb 52097	3.61176	1.05036	0.98558	3.8598	76.39	-0.2257	0.025	0.2507	1254.9009	0.160654	-419.14891	-419.140534	-419.13959	-419.183309	30.995	
O	 0.5458653921	 1.0768988063	 1.3533257475	-0.325727
C	 0.2900750394	 1.5499212776	 0.2657147552	 0.159289
N	 1.1451579289	 1.5753083984	-0.7905648969	-0.26524
C	 2.5019898097	 1.0509947381	-0.703584199	-0.325348
C	 3.5085484106	 2.080983164	-0.232524267	 0.31875
C	 3.5606213489	 2.8466613311	 1.1096277684	-0.186163
N	 4.8085216686	 3.3885381515	 0.3852814314	-0.143454
C	 5.0331512849	 1.9216827085	-0.0242093101	-0.214414
C	 3.8946053173	 3.4484047116	-0.8501793714	-0.210032
H	-0.6888166946	 2.0062780647	 0.0171641532	 0.07756
H	 0.8509905261	 2.0402533529	-1.6339684417	 0.251019
H	 2.4800510013	 0.2138219272	 0.0003661116	 0.145144
H	 2.7894918399	 0.6613066656	-1.6864667832	 0.108525
H	 2.8004291045	 3.6083675106	 1.298458069	 0.103771
H	 3.7885984996	 2.2792716189	 2.0150153817	 0.109763
H	 5.3771149147	 1.287450413	 0.7974681201	 0.104817
H	 5.6673392694	 1.8083789452	-0.9085686004	 0.097634
H	 4.4427417893	 3.4532877948	-1.7974590566	 0.096122
H	 3.1623992793	 4.25996753	-0.8087883321	 0.097985
