15
gdb 127830	4.63782	1.07078	0.87559	4.7037	71.79	-0.2374	-0.0373	0.2001	1261.8178	0.113998	-446.291576	-446.283301	-446.282356	-446.324931	29.665	
C	-0.1039641685	 1.4143900275	-0.0030640237	-0.341104
N	-0.1537491611	-0.0337756226	-0.0322144149	-0.261907
C	 0.539998424	-0.6251043174	-0.9247746228	 0.285872
N	 1.3699502029	-0.0424726406	-1.8634260549	-0.571011
C	 0.523662224	-2.1022751314	-0.9795049949	 0.394823
N	 1.1476355795	-2.7896210583	-1.9345794998	-0.287191
N	 0.8600004	-4.0331662689	-1.587208996	-0.072155
N	 0.1116359588	-4.1396347154	-0.4947280277	-0.089402
N	-0.1103813414	-2.9200190732	-0.0945261316	-0.242545
H	 0.9211919024	 1.7949411855	 0.1289567759	 0.117823
H	-0.5038538546	 1.8674169682	-0.9264511735	 0.106622
H	-0.7105925051	 1.7822241874	 0.8274690326	 0.130616
H	 1.1996843429	 0.9229541019	-2.0922751274	 0.257739
H	 1.6687314791	-0.6226461688	-2.6317421487	 0.26843
H	 1.1806473572	-4.8384630936	-2.1043192526	 0.303388
