22
gdb 57188	2.31633	1.2619	1.14137	4.6182	78.39	-0.2477	0.0202	0.2679	1237.1337	0.191461	-441.537587	-441.526635	-441.525691	-441.572999	40.95	
C	 0.8657314061	-0.6182998982	 0.7817324861	-0.400905
C	-0.1984132322	 0.0495853882	-0.1123245652	-0.120988
C	-0.0702119166	 1.5639300478	 0.0584323016	 0.42375
N	-0.9489642247	 2.1431830683	 0.9173768929	-0.519342
O	 0.7880840088	 2.2246297235	-0.5158166577	-0.393733
C	-0.0561921037	-0.3353308732	-1.6226522162	 0.375128
C	-0.1813996407	-1.84940195	-1.8177295378	-0.413596
C	-1.1377828772	 0.3802487781	-2.4550177168	-0.428336
O	 1.2373579246	 0.0165822223	-2.0916741415	-0.47551
H	 0.7091433912	-1.6978175339	 0.836883723	 0.121441
H	 1.8607423683	-0.4321640899	 0.3724578461	 0.14936
H	 0.8266939212	-0.2231517696	 1.801659324	 0.109082
H	-1.1958979659	-0.2606714252	 0.223833902	 0.065171
H	-1.651126956	 1.6159780147	 1.4047938242	 0.263735
H	-0.8611933383	 3.1295615121	 1.1028034894	 0.263546
H	-1.1386365479	-2.223247923	-1.4401850714	 0.101257
H	-0.117777069	-2.0815870752	-2.8844850693	 0.122323
H	 0.6297366039	-2.3796942622	-1.3148108312	 0.122242
H	-1.0450373352	 1.4668094728	-2.3738665485	 0.125062
H	-1.0204983084	 0.1126746979	-3.5085654435	 0.120871
H	-2.1467758347	 0.0932654029	-2.1372597608	 0.098001
H	 1.3805698662	 0.935879742	-1.8091118094	 0.291444
