16
gdb 31106	3.33609	1.19486	0.90462	3.3495	69.17	-0.1769	0.0386	0.2155	1234.3808	0.12565	-471.229851	-471.221069	-471.220124	-471.263163	32.657	
N	 0.1567047608	 1.3274026547	 0.3012777522	-0.590462
C	-0.0491898769	-0.0247562468	 0.1315947134	 0.428238
N	-1.1561549477	-0.684663919	 0.1667158273	-0.384561
C	-0.7590471558	-2.025711066	 0.006415192	 0.144299
C	-1.7236702725	-3.1668978543	-0.0131468337	-0.190789
O	-1.2549793571	-4.2500031404	-0.8247926131	-0.415285
C	 0.5897253769	-2.0721907481	-0.1163226888	 0.262615
N	 1.5313639859	-3.0881420376	-0.200927267	-0.602554
O	 1.0714661018	-0.7825629763	-0.03730546	-0.204817
H	 0.9424033949	 1.6934056762	-0.2182589757	 0.259215
H	-0.6889511689	 1.8592219444	 0.1516919174	 0.267161
H	-1.863171605	-3.6050194883	 0.9826288601	 0.124207
H	-2.7067336099	-2.8055465362	-0.3452220284	 0.113353
H	-1.1952350069	-3.9140476617	-1.725951882	 0.28197
H	 1.0564112514	-3.9629859878	-0.3977866183	 0.260764
H	 2.245990579	-2.9089837628	-0.8983355754	 0.246647
