12
gdb 25470	2.88974	1.6979	1.0695	1.7807	63.17	-0.2863	-0.1074	0.1789	999.3128	0.079193	-468.878296	-468.871339	-468.870395	-468.910279	24.705	
O	-0.0345953519	-0.0760037227	-0.0020029642	-0.271703
C	-0.0327259145	 1.1223166448	 0.0073972352	 0.191317
N	 1.1738053386	 1.8855031114	 0.0001609737	-0.204207
C	 2.3811911498	 1.2469866498	-0.0180608212	 0.154749
N	 3.51568825	 1.8654159042	-0.0256209411	-0.292073
C	 3.4103663321	 3.2414208956	-0.0136277095	 0.089995
N	 2.3367701609	 3.9662923763	 0.003739873	-0.29746
C	 1.1068362412	 3.330607517	 0.0121975536	 0.479739
O	 0.037292619	 3.8832143862	 0.0281955616	-0.351583
H	-0.9131197721	 1.7753531979	 0.0221729938	 0.170525
H	 2.3247759651	 0.1621687287	-0.0259394213	 0.181985
H	 4.3634275019	 3.7670111108	-0.0200737836	 0.148717
