17
gdb 67440	2.36013	2.02518	1.86219	1.687	73.77	-0.2309	-0.0237	0.2072	868.0083	0.136376	-421.756053	-421.748951	-421.748007	-421.78717	28.717	
O	-0.2114238822	 1.4880556259	 0.2857436236	-0.490792
C	-0.0174085185	 0.1287152739	 0.0994323259	 0.356403
C	-1.1298445441	-0.9242673361	-0.0585380953	 0.068838
C	-0.866108005	-0.9845168998	-1.6166991882	-0.309213
C	 0.5038541178	-0.4365774589	-1.2281057016	 0.019418
C	 1.657863934	-1.0953368757	-1.0660431235	-0.113476
C	 2.056235623	-1.1240810463	 0.4117322466	-0.277836
C	 0.6959832272	-0.81854158	 1.0708927517	 0.054281
O	-0.3275512441	-1.8322025698	 0.7478152668	-0.321973
H	 0.357306995	 1.9607389699	-0.3308014137	 0.287948
H	-2.1609829774	-0.8474868957	 0.2957312266	 0.088477
H	-0.8911621854	-1.9484514975	-2.1281922701	 0.115214
H	-1.5466053169	-0.2776830229	-2.1040784987	 0.114318
H	 2.0709149451	-1.8021402069	-1.7786329249	 0.100776
H	 2.4236913925	-2.1210953484	 0.6775874739	 0.122404
H	 2.8252536858	-0.4040903569	 0.7239971824	 0.109221
H	 0.710465093	-0.6043770447	 2.1438081385	 0.07599
