21
gdb 75497	2.18384	1.79037	1.22101	1.4941	84.57	-0.2266	0.0203	0.247	1115.9478	0.182399	-387.087657	-387.078885	-387.07794	-387.12046	34.345	
C	-0.0999349542	 1.4990022473	 0.0294893788	-0.4881
C	-0.0267983756	-0.0027582275	-0.0097417106	 0.253696
C	-0.036831992	-0.7064138809	-1.1435377913	-0.174556
C	 0.1057137678	-2.2069362781	-1.1388453684	-0.128567
O	 0.9053924151	-2.6721605323	-0.0569168566	-0.258137
C	 0.5240031492	-2.1688558718	 1.1888610654	 0.064471
C	 1.42578363	-1.1391933352	 1.8210901988	-0.345137
C	 0.0505818906	-0.7434865327	 1.2913254543	 0.217332
C	-1.0288672345	-0.4229682106	 2.3113800844	-0.468965
H	 0.7597584912	 1.919779125	 0.5661590502	 0.126423
H	-0.1138183946	 1.9211030549	-0.97885491	 0.119839
H	-0.9971339345	 1.8482063206	 0.554498604	 0.12582
H	-0.1208450328	-0.2122180565	-2.108078645	 0.084017
H	-0.8849890329	-2.6941334519	-1.1224204121	 0.097003
H	 0.6138796781	-2.5483246944	-2.0462824662	 0.113124
H	 0.0520684381	-2.9111719326	 1.832319531	 0.082183
H	 1.5764684241	-1.1616488967	 2.8959008379	 0.104835
H	 2.2912961611	-0.8508390665	 1.2356270996	 0.119597
H	-0.9488165504	 0.6080748533	 2.6724692633	 0.120097
H	-2.0293796994	-0.5535728831	 1.8837236202	 0.119252
H	-0.9476363044	-1.0810509505	 3.182122542	 0.115774
