17
gdb 30942	2.31167	1.4086	0.92788	5.1691	71.99	-0.2301	0.019	0.2491	1261.0823	0.134782	-459.035113	-459.026244	-459.025299	-459.069139	31.783	
C	-0.3194331721	 1.6575112683	-0.1307347403	-0.375885
C	 0.0393788903	 0.1699631693	 0.0305624344	-0.298868
C	 0.8416062748	-0.3651809335	-1.0986459304	 0.245248
C	 2.06593678	-0.8829641054	-1.2200587989	 0.217765
C	 3.1739423819	-1.1661684459	-0.2792027718	-0.492612
O	 2.2738892418	-1.2069885645	-2.5585166492	-0.242029
C	 1.1453522931	-0.8709058095	-3.2490679427	 0.489042
O	 0.9728420253	-1.008549765	-4.4175876183	-0.375882
O	 0.2500856259	-0.3492070155	-2.3606917221	-0.247641
H	 0.5821979235	 2.2760060844	-0.1668467847	 0.124587
H	-0.8801821812	 1.8223296186	-1.0543649324	 0.143981
H	-0.9347018066	 1.9948276135	 0.7079411877	 0.121302
H	 0.6036030016	 0.0122940974	 0.9551663106	 0.118068
H	-0.8827636037	-0.4185394358	 0.1217944698	 0.129606
H	 3.4255104458	-2.2324758853	-0.2774313868	 0.15116
H	 4.0785400246	-0.6149320062	-0.5588616258	 0.150877
H	 2.8933172551	-0.876233605	 0.7354097108	 0.141283
