14
gdb 10110	2.31066	1.63091	1.00261	4.2764	60.21	-0.2712	-0.0169	0.2543	1097.4694	0.106023	-415.874788	-415.866124	-415.86518	-415.909479	28.995	
N	-0.220597087	 1.4537411351	-0.0721618241	-0.520613
C	-0.0469244731	 0.0077551046	-0.0418460398	-0.163948
C	-1.4344258671	-0.6465342852	-0.0102263216	-0.027579
O	-2.1136019028	-0.3082679693	-1.2246403694	-0.188915
C	-3.3791777181	 0.1775266304	-1.1321480452	 0.18046
O	-3.9983203025	 0.510116339	-2.0919370873	-0.255349
C	-1.3497016791	-2.1092059823	 0.1148033334	 0.287496
N	-1.2626630849	-3.254231954	 0.2363544306	-0.302981
H	 0.6555427654	 1.9166928459	 0.1418676043	 0.243751
H	-0.4912029596	 1.7508632056	-1.0041152736	 0.249187
H	 0.5149074497	-0.4181684059	-0.8868129018	 0.124287
H	 0.4765601914	-0.2744003864	 0.8769772147	 0.134403
H	-1.9873128575	-0.2454831852	 0.8482771125	 0.142558
H	-3.743821485	 0.2284880576	-0.0894484525	 0.097242
