23
gdb 109246	3.04631	1.25778	1.10495	0.1557	91.25	-0.2202	0.028	0.2482	1242.9437	0.208231	-351.164451	-351.156138	-351.155194	-351.197241	33.468	
C	-0.2422709322	 1.5183096619	-0.0295272537	-0.370609
C	 0.0948864731	 0.017471063	 0.028297177	-0.303145
C	 0.7907055889	-0.484435105	-1.207408647	 0.364361
C	 2.06122747	-0.8981075061	-1.2371058955	-0.181596
C	 2.6721449054	-1.3780488209	-2.5342615067	-0.248245
C	 1.637473105	-1.3047377434	-3.6700589652	-0.011295
C	 0.9169986267	 0.0755368425	-3.6469643009	-0.217496
C	 0.024617223	-0.5325556805	-2.5222875395	-0.098569
C	 0.2853463538	-1.9144659995	-3.1963711732	-0.219545
H	 0.6695639846	 2.1166167676	-0.1221732975	 0.118638
H	-0.8829764607	 1.7537880495	-0.8855589284	 0.118756
H	-0.7683134731	 1.8355928342	 0.8763932103	 0.110889
H	 0.7217268313	-0.1805325139	 0.9052186646	 0.097185
H	-0.837245857	-0.5469488849	 0.1758466063	 0.098391
H	 2.6757034707	-0.9017842671	-0.3399126463	 0.073562
H	 3.554916391	-0.7731635471	-2.7880436216	 0.099666
H	 3.0396615495	-2.4087402979	-2.4244895955	 0.099699
H	 2.0565826602	-1.6521889613	-4.6175906881	 0.055555
H	 1.504765073	 0.9641253136	-3.4017686549	 0.090313
H	 0.3523292617	 0.2459684373	-4.5680261906	 0.090405
H	-1.0060616218	-0.1855867584	-2.4241475494	 0.052533
H	-0.3898944332	-2.0901455547	-4.0386868406	 0.090406
H	 0.3105208801	-2.7960978291	-2.5503239337	 0.090141
