15
gdb 124051	4.18686	1.57304	1.34484	1.749	71.09	-0.2451	0.0069	0.252	926.9352	0.115996	-416.756008	-416.749807	-416.748862	-416.786825	24.215	
C	 0.1512147311	 1.5222246032	-0.1461671387	-0.090236
O	 1.5409718526	 1.4569472288	 0.2434401661	-0.274921
C	 1.4868806827	 0.02575241	 0.4356069461	-0.059366
C	-0.03340379	-0.0026112445	 0.0214649481	-0.055187
N	 0.4113783984	-0.8025427534	-1.1224289906	 0.088984
N	 0.0962395957	-1.1781308635	-2.3678254004	-0.299099
C	 1.3084151871	-1.4626100736	-2.8757493464	 0.01525
C	 2.3856691837	-1.202324586	-1.9834942909	-0.373219
C	 1.7343807663	-0.7675737337	-0.8452448315	 0.342013
H	-0.4274314587	 2.1128069893	 0.5724500836	 0.119551
H	 0.0057720411	 1.9117052546	-1.1582955944	 0.131605
H	 1.9086321453	-0.2928970054	 1.3881395933	 0.106956
H	-0.8697957403	-0.3937518357	 0.5972354536	 0.117214
H	 1.3747273807	-1.868526473	-3.8754909273	 0.115817
H	 3.438124884	-1.3326341871	-2.1702575205	 0.114638
