21
gdb 101861	5.38107	0.56374	0.53393	2.4833	82.55	-0.2554	0.0329	0.2883	2047.2835	0.178353	-424.172373	-424.161126	-424.160182	-424.209816	39.145	
C	-0.0334161318	 1.566385375	 0.0193206499	-0.387828
C	 0.0405160106	 0.0356456935	 0.0029853309	 0.01309
C	 0.732640925	-0.4851254353	-1.2572021483	-0.078656
O	-0.0346265997	-0.0802924334	-2.3808197689	-0.421706
C	 0.7402735393	-0.5110151857	 1.2455433591	-0.049055
O	-0.0017301096	-0.1299922657	 2.3879993279	-0.247374
C	 0.595827749	-0.5663974712	 3.5911073462	-0.204829
C	-0.2087667793	-0.1456595362	 4.7308566504	 0.278896
C	-0.8521533401	 0.188334386	 5.6880200787	-0.413189
H	 0.9736278936	 2.0026701654	 0.0293279831	 0.100441
H	-0.5502296257	 1.9316558421	-0.8702953582	 0.130395
H	-0.5603063517	 1.9156133219	 0.9096359495	 0.13107
H	-0.9804841988	-0.3672491143	 0.0002674782	 0.09634
H	 1.7577728289	-0.0806660291	-1.3104543426	 0.082637
H	 0.8145615118	-1.5836629285	-1.2121864352	 0.082071
H	 0.4328302353	-0.347545129	-3.1771033397	 0.287019
H	 0.8176773777	-1.6111558262	 1.195480129	 0.083298
H	 1.7700851105	-0.1156344098	 1.3125156153	 0.083051
H	 0.6980546292	-1.6657170044	 3.5959237437	 0.116746
H	 1.6166324593	-0.1570328621	 3.6870604533	 0.117333
H	-1.4264621737	 0.4871380071	 6.5297768376	 0.200251
