18
gdb 105121	2.35986	1.21447	0.96024	3.7582	84.39	-0.264	0.005	0.2689	1277.9347	0.145626	-364.788874	-364.779327	-364.778383	-364.823216	35.149	
C	 0.0815528877	 1.512282559	-0.3088538439	-0.386433
C	-0.0223397362	 0.074518447	 0.2081592011	-0.253139
C	-1.4335314146	-0.4955564371	 0.0852834353	 0.125153
C	-1.8631929968	-1.0915772391	-1.2365445019	-0.303393
C	-1.620492632	-2.0210725528	-0.0652169692	-0.2302
C	-0.4783335306	-2.889766556	-0.0542604059	 0.298133
N	 0.4427645323	-3.5902367484	-0.0415078519	-0.341316
C	-2.4418342783	 0.1628010534	 0.8750427528	 0.276756
C	-3.2704538652	 0.7215653782	 1.5440808597	-0.432988
H	 1.1019459158	 1.888131893	-0.1927460602	 0.121237
H	-0.1809758055	 1.5720513885	-1.3702724815	 0.117948
H	-0.590711765	 2.1770482009	 0.2412124517	 0.133899
H	 0.6670152765	-0.5744556138	-0.3414410933	 0.122489
H	 0.2812078019	 0.0311446002	 1.2599466408	 0.119856
H	-2.890405536	-0.9632521228	-1.5542035747	 0.140418
H	-1.127449123	-1.097635976	-2.0325751648	 0.142664
H	-2.4972515967	-2.4343316017	 0.4199391622	 0.147209
H	-4.0034620643	 1.2148514575	 2.1334211936	 0.201705
