18
gdb 28880	2.26457	1.79675	1.00997	2.6738	83.7	-0.1956	0.0153	0.2108	1146.7584	0.148939	-402.023048	-402.014509	-402.013565	-402.055637	33.519	
C	 0.1169940051	 1.5222624815	 0.0479936806	-0.552946
C	 0.0495125637	 0.0138861399	 0.0245610617	 0.108062
C	 0.0748150483	-0.6800755155	-1.2013102273	 0.249514
N	 0.1595855058	 0.036624601	-2.4056523942	-0.593108
C	 0.0818753504	-2.0791540749	-1.2189760891	-0.206944
C	 0.053889421	-2.7907446032	-0.0259379101	-0.096109
C	-0.0021419172	-2.1302226135	 1.1932488137	-0.217328
C	-0.0121578108	-0.7351795088	 1.2084930006	 0.321445
O	-0.072583716	-0.1441708638	 2.4390661909	-0.442777
H	 0.7234366703	 1.8908225719	-0.7848606869	 0.145554
H	-0.868745556	 2.0031440573	-0.0242242759	 0.126629
H	 0.5962763043	 1.9012364842	 0.9584462543	 0.11877
H	-0.3923190497	 0.882206593	-2.434505921	 0.245091
H	-0.028738341	-0.5313267027	-3.219894482	 0.2431
H	 0.1061960327	-2.6007871263	-2.1707993073	 0.073581
H	 0.0594819857	-3.8756626544	-0.0488325818	 0.091161
H	-0.0435873153	-2.6636637188	 2.1348719353	 0.094547
H	-0.1669417914	 0.806756573	 2.3324685985	 0.291758
