17
gdb 27895	1.97004	1.92458	0.98542	1.7327	78.78	-0.2447	-0.0192	0.2255	1186.5089	0.136253	-414.283546	-414.274228	-414.273284	-414.319162	32.547	
C	 0.016476292	 1.4716607811	 0.0086836752	-0.458746
C	 0.023237629	-0.0301133417	-0.0094270698	 0.339032
N	 0.0012301968	-0.6343122895	-1.1962261337	-0.338938
C	 0.0118833204	-1.9774125798	-1.1349139199	 0.434198
N	 0.0148073228	-2.6491871083	-2.307489695	-0.55538
N	 0.0341492187	-2.7094036505	-0.0073112381	-0.338938
C	 0.0543353813	-1.9906077311	 1.1138307946	 0.339033
C	 0.0830743131	-2.7342067745	 2.4184127657	-0.458747
N	 0.051438449	-0.6526275097	 1.1762274766	-0.332324
H	 0.9223214588	 1.8409072993	 0.5000663539	 0.142969
H	-0.0385880867	 1.868749095	-1.0049409348	 0.132451
H	-0.8317249387	 1.8337396265	 0.59758141	 0.142201
H	-0.117751644	-2.1349366847	-3.1601360649	 0.267784
H	-0.093758016	-3.6477091436	-2.2934018941	 0.267784
H	 0.9900198246	-2.4744930368	 2.973689339	 0.142963
H	-0.764967374	-2.4303923768	 3.0396119138	 0.142207
H	 0.0524615528	-3.810534695	 2.2489136315	 0.132451
