22
gdb 26367	2.41744	1.35226	1.07708	2.1367	89.4	-0.1895	0.0499	0.2394	1258.6974	0.19415	-367.262796	-367.253131	-367.252187	-367.297535	36.482	
C	-0.0479862699	 1.5516694291	 0.0383636044	-0.379233
C	 0.043886675	 0.0200578755	 0.0123822919	 0.029365
C	 0.6996122085	-0.4963920519	-1.2753509135	-0.379206
N	 0.7301403976	-0.4910511137	 1.1998487094	-0.032696
C	 2.0418557045	-0.221589595	 1.5262084616	-0.108445
C	 2.3412176542	-0.86700076	 2.7006992832	-0.169022
C	 1.1676354139	-1.5565678404	 3.106530673	-0.244155
C	 0.1860736677	-1.3129435984	 2.1694181798	 0.299128
C	-1.2251522111	-1.8048611568	 2.132921095	-0.501774
H	 0.9455011979	 2.0075570188	-0.0148035153	 0.122894
H	-0.6299097277	 1.911592704	-0.8158204391	 0.115538
H	-0.5297678362	 1.89686463	 0.9571403447	 0.126976
H	-0.9721519032	-0.3804552396	 0.0585407056	 0.095328
H	 1.720991723	-0.1169540265	-1.3777251061	 0.122891
H	 0.742747152	-1.5888907776	-1.2787172721	 0.126983
H	 0.1291145924	-0.1682195725	-2.1497945654	 0.115534
H	 2.6501185655	 0.4062126398	 0.8951481774	 0.108592
H	 3.2930644594	-0.8458019905	 3.2090634749	 0.087949
H	 1.0444486881	-2.1680143103	 3.9882145623	 0.084197
H	-1.9624195972	-0.9922050103	 2.1580522169	 0.123755
H	-1.4434575525	-2.4136157938	 1.2461358293	 0.123744
H	-1.4045301817	-2.4324733799	 3.0090697521	 0.131659
