23
gdb 111560	3.22004	1.36233	1.20857	0.0413	88.64	-0.2677	0.0898	0.3575	1159.4186	0.2089	-351.126994	-351.119341	-351.118397	-351.159003	31.888	
C	-0.1275747513	 1.5153497023	 0.0564271815	-0.381827
C	 0.1192891227	 0.0064758744	-0.0470247179	-0.221837
C	 0.7163300579	-0.599930002	 1.2255647524	 0.083932
C	-0.1084264418	-0.5170622437	 2.5362361029	-0.060082
C	-1.4004068209	-1.3054923015	 2.1928226315	-0.243263
C	-0.443318308	-2.5027779191	 2.139022054	-0.017726
C	 0.4316689734	-1.8398472087	 3.2504350352	-0.024432
C	 1.6991526462	-2.3414341982	 2.5442509048	-0.248672
C	 0.8434891222	-2.1444500785	 1.2654680143	-0.0663
H	 0.7944322267	 2.0495335705	 0.3127963434	 0.112122
H	-0.4960843342	 1.9237772848	-0.8897698665	 0.10935
H	-0.8682232427	 1.7474081383	 0.8290132174	 0.118283
H	-0.8116377906	-0.5016508279	-0.3207795686	 0.098701
H	 0.8154469268	-0.1910108056	-0.8727906107	 0.090718
H	 1.7032819704	-0.1433137431	 1.375775893	 0.059747
H	-0.1455920117	 0.438501222	 3.0591562567	 0.056813
H	-2.0618739533	-1.3904677234	 3.0609542833	 0.092406
H	-1.9919153989	-1.017330638	 1.3201476618	 0.089057
H	-0.7581848044	-3.5457311871	 2.1677238302	 0.060737
H	 0.2326074164	-1.9530651232	 4.3161078187	 0.061531
H	 2.6392043565	-1.7854929025	 2.6247589812	 0.084927
H	 1.8740902473	-3.3960772035	 2.7789322548	 0.0913
H	 1.0716385311	-2.6615530164	 0.3327137765	 0.054515
