23
gdb 66237	2.64876	1.35764	1.20226	1.4469	84.7	-0.2418	0.0828	0.3245	1188.33	0.206298	-388.293702	-388.284656	-388.283711	-388.327393	35.311	
C	 0.0549902989	 1.5944876358	-0.1329199807	-0.415123
C	-0.0168627993	 0.0659603236	-0.0325497024	 0.374914
C	 0.7314091748	-0.6302362009	-1.19852345	-0.264795
C	 2.1289389969	-0.8889034945	-0.6185389011	-0.226014
C	 1.7918307417	-1.1752908533	 0.8452452329	-0.067639
O	 0.6959231148	-0.3244189922	 1.1622069822	-0.30228
C	-1.4669513964	-0.3881683304	 0.0732545014	-0.007625
C	-1.8355565267	-1.6716243351	 0.7681559196	-0.282434
C	-2.196788626	-0.3424956292	 1.3889679873	-0.271692
H	 1.0876870473	 1.9287040758	-0.2729351305	 0.107065
H	-0.5434472442	 1.9590130321	-0.9746569889	 0.106344
H	-0.329706962	 2.0474716168	 0.7845684626	 0.124565
H	 0.2408379583	-1.5785160531	-1.4414433825	 0.104472
H	 0.74463674	-0.0179639375	-2.1035994615	 0.09961
H	 2.6556141835	-1.7139031671	-1.1048509433	 0.099728
H	 2.7552254087	 0.0059008603	-0.6963055073	 0.106671
H	 1.5106508892	-2.2321881624	 0.9787170256	 0.086808
H	 2.6089866299	-0.9529471132	 1.5390643714	 0.103173
H	-2.0524778511	-0.1366918337	-0.8080163105	 0.076064
H	-2.6259728935	-2.2800797246	 0.3424719614	 0.102777
H	-1.0387739531	-2.2304023597	 1.2450827358	 0.117643
H	-1.6246166423	-0.0423681762	 2.2590531373	 0.125159
H	-3.2368948393	-0.0355396212	 1.3954976213	 0.102609
