17
gdb 18226	4.32372	1.54626	1.29724	3.5441	68.53	-0.2331	-0.0155	0.2176	947.1662	0.143918	-363.860254	-363.853187	-363.852243	-363.891926	26.759	
O	 0.0807727428	-0.0983062896	 0.0368896452	-0.256189
C	 0.1228632544	 1.1053419883	 0.0791225144	 0.1493
C	 1.3873262458	 1.9322083381	 0.0426316328	-0.055033
C	 1.4171371701	 2.8964155426	-1.1803779416	-0.246194
C	 2.2324932106	 4.1309871497	-0.7244597627	-0.211857
C	 2.0070691856	 4.1908381895	 0.7735970917	-0.02606
N	 0.5872275655	 4.0323849651	 1.1515477458	-0.336272
C	 1.5066172306	 2.8737327376	 1.2382243293	-0.063656
H	-0.8049130593	 1.716483926	 0.1528282391	 0.087916
H	 2.2413199482	 1.2473090975	 0.0317714707	 0.089271
H	 1.8356788653	 2.4123745344	-2.065192916	 0.110291
H	 0.3962527374	 3.2027538871	-1.422911142	 0.124736
H	 3.3023348578	 3.9899104991	-0.9179960583	 0.104111
H	 1.918262734	 5.0425014434	-1.2418925915	 0.109367
H	 2.6493178292	 4.8019937104	 1.3995747222	 0.089526
H	 0.4405611975	 4.4109034986	 2.0835401959	 0.234859
H	 1.7561198443	 2.4699419224	 2.213783625	 0.095884
