16
gdb 123910	3.53408	1.6221	1.1546	5.2913	70.66	-0.1985	0.0113	0.2098	1004.6804	0.129539	-430.234828	-430.228009	-430.227065	-430.265955	27.173	
C	-0.0297867016	 1.4371090846	 0.0903866157	-0.180015
C	 1.4283427482	 1.9592765928	 0.0166672382	-0.170836
N	 2.2999449511	 1.416491944	 1.0622027142	-0.393834
C	 1.9790202208	 0.0895468817	 1.3623543393	 0.316967
C	 0.9113128562	-0.5823572549	 0.8083543886	 0.317423
N	 1.0141228819	-1.8302353153	 1.3326069365	-0.279543
N	 2.0826396046	-1.9237474406	 2.1574235701	-0.130998
N	 2.6643941204	-0.75283493	 2.1784996084	-0.283151
N	-0.1182391577	-0.0342889963	 0.0389739903	-0.406291
H	-0.4869366139	 1.7685076954	 1.0300150722	 0.121064
H	-0.620906621	 1.8492396604	-0.7312664731	 0.111965
H	 1.8450767397	 1.6849894777	-0.9620290328	 0.111759
H	 1.4378193535	 3.0506803759	 0.077846076	 0.112335
H	 2.3752947629	 2.0055982925	 1.8814335046	 0.241069
H	 0.4314861664	-2.6370422582	 1.1797077498	 0.273993
H	-0.1298072215	-0.3762478296	-0.916345618	 0.238094
