18
gdb 92034	2.91004	1.6091	1.22296	2.7377	70.27	-0.2468	0.0632	0.31	1024.3376	0.149793	-439.041577	-439.03423	-439.033286	-439.073172	29.622	
O	-0.0004923158	 1.4247917409	-0.0027012098	-0.436691
C	 0.043770896	 0.0037891939	-0.0376823078	 0.108094
C	 0.8557609488	-0.5588954022	 1.1442384121	-0.241505
C	 0.833129398	-2.0811879279	 1.2093675876	-0.060471
N	-0.0151607663	-2.6852576274	 2.2565796779	-0.321391
C	-0.4279680866	-2.7814732428	 0.8479620526	-0.053688
C	-1.6001119665	-1.9540629721	 0.3924409177	 0.049466
O	-1.971377167	-0.8266939654	 1.1831979312	-0.24733
C	-1.354214528	-0.5836923123	-0.0898295119	 0.008083
H	-0.4582100781	 1.6744732001	 0.8086985763	 0.285637
H	 0.5440963712	-0.2353732337	-0.9854230665	 0.090251
H	 1.8802199443	-0.1849865254	 1.0676381411	 0.105132
H	 0.4240279085	-0.1688663285	 2.070999243	 0.122051
H	 1.7637132143	-2.5894547172	 0.9692075419	 0.087458
H	 0.379122186	-3.5738656079	 2.5553607261	 0.232326
H	-0.357741878	-3.7494010845	 0.3562638341	 0.083947
H	-2.4457834888	-2.5089648927	-0.013848071	 0.092337
H	-2.0121944221	-0.1472831849	-0.8410459047	 0.096295
