17
gdb 41488	3.28112	1.70087	1.36589	0.7639	66.96	-0.253	0.0594	0.3124	941.5532	0.137431	-458.920443	-458.913596	-458.912651	-458.951783	26.92	
C	-0.0916170745	 1.4537847724	-0.1910124115	-0.162267
O	 1.1561988515	 1.6616339192	 0.5200194193	-0.293867
C	 1.533201862	 0.2642537933	 0.4338195075	 0.032061
C	 1.2489744601	-0.521407681	 1.7332776687	-0.276026
C	-0.2169829871	-0.7648736449	 1.2535447393	 0.043083
O	-0.5516145737	-2.0832069528	 0.8468334127	-0.262832
C	-0.2096531653	-2.2066815078	-0.5197204774	-0.005503
O	-0.2956908335	-0.9163088072	-1.1019411298	-0.27983
C	 0.0911865339	-0.0492462936	-0.091339988	 0.354422
H	-0.9506188587	 1.8983238352	 0.3243064951	 0.110172
H	-0.0397246841	 1.8337647231	-1.2192556068	 0.114738
H	 2.4717016289	 0.115456809	-0.1058464253	 0.082632
H	 1.8140510463	-1.4541506518	 1.8143723794	 0.112901
H	 1.3604252057	 0.0565294005	 2.65281186	 0.117162
H	-1.0198139783	-0.3869441173	 1.8905455135	 0.091637
H	 0.8164464204	-2.5971035163	-0.6315108842	 0.094553
H	-0.9233786536	-2.87084905	-1.0134086725	 0.126963
