23
gdb 83356	2.06192	1.85067	1.5039	1.5082	83.18	-0.247	0.0613	0.3083	1052.8873	0.208192	-388.320244	-388.311736	-388.310792	-388.352505	34.704	
C	-0.0268209617	 1.4857493851	 0.0535107632	-0.484505
C	-0.0001112247	-0.0323997432	 0.0120083041	 0.312741
C	 0.6368460257	-0.6528443531	-1.2538284435	-0.244929
C	 0.0822199282	-2.11656549	-1.2753616216	-0.222529
C	-0.8046969072	-2.1757250718	-0.0152732419	-0.039995
C	 0.1125126623	-2.1623214352	 1.2298739092	-0.24051
C	 0.6665651184	-0.7006818054	 1.2456568709	-0.261637
C	-1.383538421	-0.743241168	-0.0001858263	 0.141339
O	-2.2598537341	-0.4164573684	 1.0599794731	-0.461769
H	 0.9814322481	 1.9041568445	 0.1503338303	 0.107667
H	-0.4712190155	 1.8996612961	-0.8586510802	 0.109327
H	-0.6227651643	 1.8360854318	 0.9026471157	 0.117858
H	 0.3256618654	-0.1008217316	-2.1466462534	 0.093719
H	 1.7298656161	-0.6141870409	-1.2185435028	 0.093298
H	-0.5085787184	-2.2996307406	-2.1779049295	 0.097111
H	 0.8753906263	-2.8693910636	-1.2522425262	 0.094647
H	-1.5406137544	-2.9818319404	-0.02025905	 0.059034
H	-0.4489693148	-2.3903193975	 2.1427236567	 0.089769
H	 0.9028879217	-2.9147063187	 1.159056534	 0.098692
H	 1.7577954801	-0.6606192967	 1.1806302104	 0.097578
H	 0.3913810315	-0.1759221596	 2.1676358739	 0.088375
H	-1.9461965033	-0.5154432674	-0.9118680059	 0.073438
H	-1.8389612044	-0.6501781754	 1.8930805899	 0.281281
