20
gdb 22733	2.33746	1.40139	0.99473	0.7992	84.29	-0.2286	0.0061	0.2347	1250.3687	0.169495	-403.088851	-403.079549	-403.078604	-403.123052	35.116	
C	-0.6934893396	 1.2463249858	 0.2188314734	-0.398519
C	 0.0037505647	-0.0816757785	-0.0688596974	-0.075296
C	 0.9931252639	-0.1251686453	-1.2894399497	-0.345498
C	 2.1278436815	-0.5234917241	-0.3257757869	 0.289046
C	 3.2161163633	-1.5506870106	-0.5234305295	-0.312511
C	 3.5769069771	-0.1038559275	-0.3400709164	-0.313052
C	 1.1848373653	-0.4470723059	 0.823305347	 0.356295
N	 1.388851264	-0.6349505048	 2.0603012647	-0.268078
O	 0.197640265	-0.4738386942	 2.8029483494	-0.396548
H	 0.029138397	 2.0683234805	 0.2579363655	 0.11532
H	-1.4226728266	 1.4751500859	-0.5657263417	 0.112759
H	-1.2127525665	 1.2083935409	 1.1792766395	 0.139512
H	-0.7353741707	-0.8899261538	-0.0988549977	 0.096548
H	 0.7488468534	-0.8670050932	-2.0536718519	 0.104078
H	 1.1309415932	 0.8472230622	-1.7707188028	 0.103739
H	 3.3997717483	-2.2352150842	 0.2975960639	 0.128767
H	 3.316518673	-1.9840293747	-1.5134770926	 0.114952
H	 3.9252914824	 0.4528253213	-1.2042163508	 0.11496
H	 4.0079480875	 0.2031404053	 0.6067212751	 0.129109
H	 0.5000754437	-0.631194385	 3.7033695291	 0.304418
