18
gdb 109047	2.89078	1.31122	1.0216	2.7058	72.78	-0.2364	0.0033	0.2397	1172.5915	0.148762	-439.053301	-439.045071	-439.044127	-439.086198	31.703	
O	 0.1637122508	 1.376833927	-0.0035105992	-0.411178
C	 0.0171153457	-0.0225098167	 0.16651684	-0.164975
C	-1.403712493	-0.494205372	 0.1663796067	 0.228412
C	-2.5106972003	 0.2538435246	 0.1473906362	-0.167196
C	-3.7284039805	-0.6037776542	 0.0303339037	-0.075818
N	-3.7456327698	-1.4008569143	-1.2393509196	-0.354886
C	-3.2584618124	-2.0053717393	 0.0232239676	-0.077698
C	-1.726600002	-1.9896292829	 0.0687211298	 0.037892
O	-1.141907388	-2.5933319505	-1.0752059014	-0.434561
H	-0.2060854899	 1.5990170702	-0.8645900538	 0.28288
H	 0.5748113	-0.5927845111	-0.5931577512	 0.115585
H	 0.4882395323	-0.2565509788	 1.1309560177	 0.122055
H	-2.5364833638	 1.3362179548	 0.1734590999	 0.10392
H	-4.6780620734	-0.3068564024	 0.4612397172	 0.094694
H	-4.6924911498	-1.734152799	-1.4131125488	 0.23274
H	-3.8142033152	-2.8231478838	 0.4667901067	 0.093449
H	-1.3409482065	-2.5469418437	 0.930855495	 0.08679
H	-1.6686755444	-2.2643516982	-1.8184177966	 0.287893
