22
gdb 55685	3.1793	1.01482	0.98993	3.3385	83.07	-0.2358	0.0369	0.2726	1362.062	0.192638	-404.383227	-404.372971	-404.372027	-404.419289	37.518	
C	 0.0881239315	 1.5368791044	-0.2884408328	-0.48187
C	 0.1188262082	 0.0453035312	 0.0173621731	 0.406316
O	 1.1355120446	-0.5180058844	 0.3887380307	-0.387261
N	-1.0629845306	-0.6119857609	-0.1524662994	-0.375251
C	-1.2149238308	-2.049169018	 0.0489175624	 0.367768
C	-0.4943412159	-2.8397835389	-1.0460813513	-0.434339
C	-0.9012663304	-2.5779103254	 1.4825675085	-0.223766
C	-2.2304251115	-3.3789124371	 1.446203448	-0.220443
C	-2.6913992177	-2.495334582	 0.2547500292	-0.278626
H	 0.568717051	 2.0716186094	 0.5338215501	 0.1511
H	 0.6785533781	 1.7254194514	-1.1901688782	 0.149629
H	-0.9184222809	 1.9365668422	-0.4383705412	 0.108662
H	-1.8601488345	-0.1027409882	-0.497387153	 0.23826
H	 0.5723617478	-2.6059922779	-1.029247535	 0.151256
H	-0.6172998752	-3.9169276831	-0.8937613822	 0.110929
H	-0.8982372422	-2.5880758469	-2.0328657184	 0.102744
H	 0.031589442	-3.1300240227	 1.6033794519	 0.110262
H	-0.9271084717	-1.7683354092	 2.2145698264	 0.104843
H	-2.0853938741	-4.4225732207	 1.1561739838	 0.106931
H	-2.8515114558	-3.3570030488	 2.3436320714	 0.100374
H	-3.3168331964	-1.6622820134	 0.5913589093	 0.094115
H	-3.1806478655	-2.9850813211	-0.5915559732	 0.098367
