22
gdb 12540	3.11523	1.72171	1.2012	0.2534	83.32	-0.2331	0.0239	0.257	1075.3231	0.202351	-313.091764	-313.083596	-313.082652	-313.12398	32.064	
C	-0.0187002464	 1.5939578676	-0.0237029985	-0.39704
C	-0.0174951693	 0.0584502111	-0.0044445834	 0.047767
C	 0.7147662472	-0.4795706405	-1.2469999207	-0.170361
C	 0.6254318716	-1.9896334423	-1.5038279036	-0.194562
C	 1.3422901383	-2.8782230044	-0.4706412612	-0.243642
C	 0.6777006784	-2.9468825813	 0.8837350762	-0.04642
C	 0.3511751354	-1.9054924873	 1.648766522	-0.062051
C	 0.5861482747	-0.4487432964	 1.3252356204	-0.237731
H	 1.0031179134	 1.9883045171	 0.0352037842	 0.110911
H	-0.4690810401	 1.9799157474	-0.9441999642	 0.108207
H	-0.5805958426	 2.0033778416	 0.8223444872	 0.107833
H	-1.0605623695	-0.2850196211	-0.0486335147	 0.070365
H	 0.3169727828	 0.0397977867	-2.1283990715	 0.086852
H	 1.7744493093	-0.1889016574	-1.182274716	 0.085324
H	-0.4279403931	-2.2911926657	-1.5668026804	 0.094178
H	 1.0637031257	-2.1910561505	-2.4893684408	 0.087935
H	 1.4234534561	-3.8917547187	-0.8772569415	 0.09442
H	 2.3770695119	-2.5190912033	-0.3586930135	 0.103545
H	 0.4559642973	-3.9438933689	 1.2585776688	 0.080548
H	-0.1208129813	-2.1079437881	 2.607885083	 0.080536
H	 1.6677081211	-0.2402180864	 1.3110629089	 0.101809
H	 0.1810225191	 0.1590754408	 2.1416752193	 0.091578
