16
gdb 16432	3.42245	2.20046	1.67658	2.9667	63.79	-0.2271	0.0631	0.2901	804.5829	0.1291	-383.642262	-383.635185	-383.634241	-383.673123	27.59	
C	-0.1514238981	 1.6145019988	-0.0153819952	-0.426028
C	-0.0552313756	 0.0955737904	 0.0050865581	-0.085542
C	 1.1531072867	-0.5934622437	-0.6699636608	-0.101038
C	 2.1120732569	-0.3477423254	 0.5356180481	 0.002897
O	 2.5226093666	-1.7401410837	 0.6478115023	-0.326633
C	 1.1083089204	-1.8098839254	 0.3073087504	 0.038955
C	 0.686128129	-0.5943897163	 1.179866489	 0.357995
O	 0.3338418348	-0.683213432	 2.5046681017	-0.461177
H	 0.8086784088	 2.0845249259	 0.2261730442	 0.114028
H	-0.458527493	 1.9797722006	-1.0009414507	 0.124526
H	-0.8921366671	 1.973441852	 0.708592035	 0.115943
H	-1.0202163022	-0.3656138551	-0.2359971952	 0.074441
H	 1.4392481283	-0.6249380912	-1.7182880957	 0.089486
H	 2.8571185977	 0.4292609621	 0.7017338126	 0.094203
H	 0.635130493	-2.7841597478	 0.1911732049	 0.098414
H	 0.2752332838	 0.2057710408	 2.8718176812	 0.28953
