25
gdb 103633	2.05018	1.26638	1.17258	1.2174	88.59	-0.2486	0.0733	0.3219	1302.1101	0.227191	-389.490383	-389.479703	-389.478759	-389.52511	40.992	
C	-0.0415025591	 1.4689099378	-0.5125735112	-0.396685
C	-0.1882920067	-0.052424924	-0.3829033147	-0.225887
C	-1.5709558556	-0.5352245306	 0.09169134	 0.342507
C	-1.9454751357	 0.0464323608	 1.4538861882	-0.467463
C	-2.661840307	-0.4043415433	-1.0241387738	-0.298395
C	-2.4758973491	-1.9045190012	-1.3747338927	 0.099704
O	-1.5802229437	-2.1388065126	-2.4511013061	-0.427
C	-1.7475319814	-2.0981243582	-0.0197866743	-0.008361
C	-0.561827233	-3.0493215518	 0.0610787109	-0.415805
H	 0.933021671	 1.7245675387	-0.9404614064	 0.110242
H	-0.8087817971	 1.894942148	-1.1687326377	 0.112032
H	-0.1161214149	 1.9750431816	 0.4545741043	 0.115268
H	 0.0249763704	-0.5145498139	-1.3516274598	 0.112865
H	 0.5745421526	-0.4255777296	 0.3132207147	 0.088298
H	-2.0229127539	 1.1382946996	 1.4260900794	 0.114194
H	-2.9121301746	-0.3415518895	 1.7934028972	 0.10427
H	-1.1978573998	-0.2128010989	 2.2136942929	 0.109621
H	-3.655512337	-0.1934439313	-0.6168637721	 0.090807
H	-2.4615734773	 0.2996393098	-1.8378590775	 0.087272
H	-3.3962565961	-2.4888894639	-1.5129081053	 0.05618
H	-1.990954748	-1.8025171511	-3.25400217	 0.281539
H	-2.4990269884	-2.4007370109	 0.7190980297	 0.063647
H	 0.1794529072	-2.8421177228	-0.71276767	 0.13324
H	-0.0709314097	-2.9802854821	 1.0380626953	 0.107527
H	-0.8922128531	-4.0856366705	-0.0690415811	 0.110384
