16
gdb 66304	2.41028	1.50735	1.24381	3.4062	66.88	-0.232	-0.0604	0.1717	1045.6283	0.123288	-475.036957	-475.028514	-475.02757	-475.070331	31.093	
O	 0.1746211589	 1.5078287493	 0.0874173647	-0.460993
C	-0.0259275918	 0.134809033	-0.0360657034	 0.211464
C	-1.5155777741	-0.2651344962	-0.2376320702	-0.246951
N	-1.5378841502	-1.4280806886	-1.12929089	-0.291934
C	-0.4399358919	-1.2510115406	-2.0797492653	-0.288247
C	 0.6240447325	-0.4133411992	-1.3635887981	 0.341438
O	 1.7366336083	-0.166108596	-1.729894816	-0.288859
C	 0.5743709089	-0.5916935087	 1.1445368115	 0.120486
O	 1.2538014304	-0.017469459	 1.9606824712	-0.270901
H	 0.8236258839	 1.619514448	 0.8007475642	 0.300171
H	-2.0388229966	-0.4866252833	 0.6951977456	 0.122204
H	-2.0155623099	 0.5893049155	-0.7073868856	 0.140891
H	-1.4068950629	-2.2812803343	-0.5983337792	 0.230756
H	-0.0319867396	-2.2003224836	-2.4350238863	 0.141231
H	-0.7767667671	-0.6898095184	-2.9629636317	 0.148953
H	 0.3579911313	-1.6767953275	 1.2234304386	 0.09029
