16
gdb 13130	4.49511	1.08318	0.92828	2.2269	62.23	-0.2589	-0.033	0.226	1206.991	0.128432	-420.86205	-420.853607	-420.852663	-420.895881	29.208	
O	 0.014663756	 1.4214448327	-0.1353502556	-0.420077
C	 0.0190295261	 0.030398135	 0.1403590197	-0.076846
C	-1.3549693753	-0.5144872196	-0.2344422889	-0.189441
C	-1.4677801132	-2.0090770756	 0.0147888787	 0.001706
O	-1.3934871741	-2.3810788443	 1.4184162243	-0.293226
C	-2.6919832329	-3.006724212	 1.431569551	-0.189214
C	-2.8718029994	-2.6325252376	-0.0452475888	 0.33776
O	-3.7232459596	-2.7503423763	-0.8706902526	-0.270228
H	 0.8476364917	 1.7916507837	 0.1706868985	 0.288225
H	 0.7954657103	-0.4926610763	-0.4427881965	 0.085375
H	 0.2119944472	-0.1727709452	 1.2037222656	 0.109667
H	-2.1197448419	 0.0194106179	 0.3399715379	 0.114313
H	-1.5483252657	-0.3218416596	-1.2961173161	 0.126266
H	-0.7254575329	-2.5656939199	-0.5770884565	 0.105784
H	-2.6494147264	-4.0846037435	 1.6348093604	 0.133531
H	-3.3926421099	-2.5330570294	 2.130568489	 0.136406
