19
gdb 100862	2.238	1.12676	0.80746	2.1671	73.38	-0.2594	-0.0609	0.1984	1420.9531	0.154726	-460.177542	-460.166881	-460.165937	-460.214588	36.542	
C	-0.1016587839	 1.5034208375	 0.1946501797	-0.383917
C	 0.0870935226	-0.0153281769	 0.1597259626	-0.208516
C	 0.6601149289	-0.5133601537	-1.1690830016	 0.130313
O	 1.9216439988	 0.0874585459	-1.4700370165	-0.43546
C	 0.7992012343	-2.0415266943	-1.2332647908	-0.209948
C	-0.5257575336	-2.7966896448	-1.2988599881	 0.136961
O	-1.6024193513	-2.2725300157	-1.4198406194	-0.234323
C	 1.6099515413	-2.469980682	-2.4640991541	 0.150869
O	 2.2699768357	-3.4736222064	-2.5059317782	-0.248389
H	 0.8376932802	 2.0207940908	-0.0171330662	 0.125512
H	-0.8332527107	 1.8226701322	-0.5551115531	 0.123793
H	-0.4625490844	 1.8303642912	 1.1739686159	 0.114893
H	 0.761878032	-0.3298662468	 0.9706736481	 0.083908
H	-0.869136347	-0.5175833682	 0.3353189396	 0.126731
H	-0.0006037986	-0.1940818784	-1.9830115355	 0.109257
H	 2.5097538534	-0.0657055683	-0.7212899627	 0.282827
H	 1.3421273577	-2.4387955556	-0.3639917235	 0.111589
H	-0.4156568666	-3.9006581802	-1.2491268489	 0.113207
H	 1.5075219311	-1.7948848962	-3.3374136873	 0.110694
