21
gdb 117790	2.47699	1.04539	0.8996	2.73	80.23	-0.2338	0.0191	0.2529	1431.4318	0.179999	-420.39893	-420.387909	-420.386965	-420.435054	38.791	
C	 0.6888528606	 1.5261647692	-0.0120998929	-0.311051
N	 1.0530880533	 0.1394949757	-0.2773610339	-0.296497
C	-0.0142445817	-0.6242895565	-0.8976640357	-0.165951
C	 0.322445088	-2.1322264555	-0.9777427475	 0.210336
C	 0.496979956	-2.7376521735	 0.4233039312	-0.426246
O	-0.7580254323	-2.6927352819	-1.7032368863	-0.264799
C	-0.6929493102	-4.0838214776	-1.9711972524	-0.258837
C	 1.5849501935	-2.292639412	-1.7504454864	 0.26083
N	 2.5630373591	-2.4027386486	-2.3570707033	-0.354576
H	 0.3391188976	 2.0798255403	-0.9008598656	 0.100913
H	-0.1125005709	 1.5578109882	 0.7345667794	 0.124193
H	 1.5518244238	 2.0549291859	 0.4018012586	 0.124487
H	 1.8758962389	 0.1145375207	-0.8719539233	 0.234614
H	-0.9152388068	-0.5365733949	-0.2800927179	 0.115799
H	-0.2841572997	-0.2898266468	-1.9132101077	 0.105075
H	-0.4756463068	-2.7384416584	 0.9240723515	 0.128307
H	 0.8803969504	-3.7593327671	 0.3871925675	 0.129789
H	 1.1905350954	-2.1175548626	 0.993845049	 0.156147
H	-0.7718187631	-4.6866548125	-1.0577597923	 0.116848
H	-1.5455572293	-4.3083422936	-2.6150874914	 0.137572
H	 0.2319847442	-4.3526725285	-2.4985438508	 0.133047
