22
gdb 83870	1.94724	1.87624	1.27773	1.5754	81.83	-0.2112	0.0772	0.2883	1112.0867	0.195372	-404.318994	-404.310269	-404.309325	-404.35183	34.272	
C	-0.1279776931	 2.0816298515	-0.1177474074	-0.42738
C	-0.0346506296	 0.5750131402	-0.2427840845	 0.009949
C	 0.5769966592	-0.1416717373	-1.4121646995	-0.060994
C	 1.3646719484	 0.6099172586	-2.4808902698	-0.110185
O	 2.766350298	 0.5759211016	-2.2491990482	-0.23975
C	 3.0869813177	 1.1132861881	-0.9808635074	-0.106032
C	 2.5249391371	 0.2338483432	 0.1506443971	 0.056187
C	 2.6714846286	 0.8814999818	 1.5254272782	-0.404485
N	 1.1561703394	-0.2535367119	-0.0687393283	-0.111478
H	 0.6888799245	 2.619336176	-0.6000917116	 0.123291
H	-1.0653502821	 2.424658985	-0.5711713236	 0.121999
H	-0.1490405256	 2.3806040352	 0.9353736102	 0.127196
H	-0.9066943778	 0.0871998273	 0.1953207688	 0.088581
H	 0.0995253998	-1.0555993385	-1.7635167719	 0.087927
H	 1.2104516841	 0.1337523743	-3.4522114563	 0.111559
H	 1.034291537	 1.6574105663	-2.569716685	 0.090345
H	 4.1797762453	 1.1319688762	-0.9183276998	 0.107502
H	 2.7318189651	 2.1543596483	-0.9019680076	 0.083747
H	 3.1325739745	-0.6814634526	 0.1390844489	 0.090506
H	 2.1500695948	 1.8418131457	 1.5800056986	 0.11778
H	 2.2595077863	 0.2257072808	 2.2973667908	 0.128106
H	 3.7273494586	 1.0594235104	 1.7543619583	 0.115628
