18
gdb 53023	4.10621	1.02403	0.91604	1.7847	88.04	-0.2271	0.0295	0.2565	1333.7632	0.14722	-364.691238	-364.682994	-364.68205	-364.725669	30.638	
C	-0.0237478668	 1.3974088208	-0.0455821929	-0.517951
C	 0.0031660718	-0.0560916346	-0.0067482046	 0.380559
C	 0.0300132985	-1.2610891983	 0.0224742335	-0.35782
C	 0.059992412	-2.6891372417	 0.07278821	 0.279333
C	 0.9051644615	-3.624094536	 0.9559768612	-0.303264
C	 0.1447778153	-4.5408554851	-0.000688205	-0.040555
C	-1.1552834428	-3.6874239497	 0.0175573902	-0.10274
C	-1.1222110368	-3.6284648465	-1.5027126275	-0.189064
N	 0.3720023728	-3.5739112624	-1.19655357	-0.184128
H	 0.6129017462	 1.8264097718	 0.7360310011	 0.152363
H	 0.3369040876	 1.7721502889	-1.0098797054	 0.154937
H	-1.0388227054	 1.7821941981	 0.1025596226	 0.150643
H	 1.9866823009	-3.5607285402	 0.8120779734	 0.113685
H	 0.6335193927	-3.6694211397	 2.0132880812	 0.101959
H	 0.2260299162	-5.61734088	-0.1521220833	 0.085546
H	-1.9931982641	-3.7397063848	 0.7209138341	 0.068757
H	-1.4141197692	-4.5256538724	-2.0580007828	 0.098946
H	-1.4987859803	-2.7266038882	-1.9941321158	 0.108794
