21
gdb 54258	2.20047	1.41071	1.36327	2.3839	77.59	-0.2418	-0.0137	0.228	1130.6387	0.18146	-424.254428	-424.2448	-424.243855	-424.289601	35.214	
C	-0.3871376679	 1.3602166046	 0.0620903686	-0.492187
C	 0.0418977266	-0.095497031	-0.0186093195	 0.386633
O	 0.3557300296	-0.7004701769	 0.9804717495	-0.314098
C	 0.0947870223	-0.7670300831	-1.4118825958	 0.165076
C	 1.4069613236	-0.3474825003	-2.0945252126	-0.463789
C	-0.06011694	-2.2964597967	-1.2648795723	-0.275229
C	-1.5900591159	-2.5165435543	-1.3370144027	-0.078848
O	-2.1780015048	-1.2526717123	-1.671544213	-0.258211
C	-1.1628834729	-0.4475554455	-2.2386870284	-0.116184
H	-0.0586709695	 1.7769858554	 1.0149366319	 0.142572
H	-0.0016961311	 1.9609495434	-0.7662469414	 0.131296
H	-1.4813979368	 1.4094991833	 0.0201333316	 0.161274
H	 2.2717493507	-0.6781165784	-1.5117534318	 0.137255
H	 1.4755108234	-0.7980507166	-3.0898971184	 0.123674
H	 1.4791226312	 0.7385134655	-2.2144927277	 0.120265
H	 0.4480192317	-2.8041197678	-2.089650306	 0.094765
H	 0.371251556	-2.6412843073	-0.3251432031	 0.134701
H	-1.8528864922	-3.2653796606	-2.0967301893	 0.094821
H	-2.0196901071	-2.8337355373	-0.3823958758	 0.116345
H	-1.4937426749	 0.5927930526	-2.1970870652	 0.107436
H	-0.9830163218	-0.7033224466	-3.2977768685	 0.082435
