17
gdb 50153	5.23399	1.00166	0.90626	3.6069	78.84	-0.2322	-0.0229	0.2092	1270.907	0.137064	-418.032014	-418.024111	-418.023166	-418.065055	29.384	
O	-0.0211924112	-0.0393165434	-0.0002113437	-0.313587
C	 0.0033297271	 1.1704755972	 0.0096406869	 0.154601
N	 1.1489233398	 1.9244182236	 0.0030068152	-0.087952
C	 1.2402208883	 3.391506753	 0.0141918474	-0.278409
C	 2.7709118339	 3.5795072008	-0.001930694	 0.358676
C	 3.4470163013	 4.6948658098	-0.7550401325	-0.307319
C	 3.4644062786	 4.6824872345	 0.7535770216	-0.307325
N	 3.3902162722	 2.2714157268	-0.0198238462	-0.291949
C	 2.4514942559	 1.4115715771	-0.0162087557	 0.066407
H	-0.9065491717	 1.8001712526	 0.0252571841	 0.084858
H	 0.7502576369	 3.821807813	-0.8658615336	 0.1287
H	 0.7708531855	 3.8069516202	 0.9124257958	 0.128698
H	 4.363267552	 4.4446218675	-1.2765293393	 0.133675
H	 2.8134144244	 5.4185143812	-1.2578719085	 0.115341
H	 2.8427012353	 5.3976698709	 1.2826852803	 0.115341
H	 4.3923884431	 4.4238994271	 1.2496325845	 0.133675
H	 2.5787376487	 0.3373025082	-0.0265616625	 0.166569
