14
gdb 75861	3.26353	1.27562	0.95041	2.7682	70.85	-0.2649	-0.0611	0.2038	1144.2172	0.09999	-436.719322	-436.711039	-436.710094	-436.752916	29.559	
O	 0.0688329161	 1.4627322616	 0.0774442657	-0.401635
C	 0.0492783812	 0.0615256055	-0.0308908893	-0.113946
C	-1.4219186644	-0.4289269714	-0.126491094	 0.397906
O	-2.3079746548	-0.0799310186	 0.597859928	-0.275739
C	-1.5354224973	-1.4033787822	-1.3088084615	-0.374996
C	-0.2050563338	-1.2800250921	-1.9887482755	-0.163992
C	 0.6484183098	-0.4942071859	-1.3149095361	 0.186426
C	 1.9764905791	-0.1670826641	-1.6961466292	 0.200327
N	 3.0658242388	 0.1351989168	-1.9495422262	-0.327316
H	 0.9457536528	 1.7381116306	 0.3645435578	 0.305755
H	 0.5105060105	-0.4167008193	 0.8484908859	 0.115621
H	-1.7299034556	-2.41749385	-0.9344337848	 0.156908
H	-2.3851773268	-1.1460238112	-1.9516011686	 0.158517
H	 0.0298293743	-1.7732166297	-2.9243171922	 0.136164
