16
gdb 28526	3.17092	1.36746	0.95735	1.8892	78.44	-0.181	-0.0011	0.1798	1165.838	0.126809	-434.134504	-434.126401	-434.125457	-434.166514	32.167	
N	-0.0278698151	 1.4037397022	 0.2046441091	-0.596729
C	 0.0074137003	 0.0085459491	 0.0503237995	 0.274758
C	-1.1598394097	-0.7487641874	-0.0072429448	-0.096653
N	-1.1513540482	-2.088315628	-0.0828750864	-0.355596
C	 0.0004577519	-2.7146097825	-0.1142915072	 0.368717
O	 0.0106719601	-4.0788267582	-0.188357862	-0.446229
C	 1.2528973328	-2.0656650498	-0.0713736828	 0.222209
N	 2.4234114478	-2.8122890854	-0.1694743855	-0.597715
C	 1.2293487994	-0.6804863828	 0.0179234049	-0.226609
H	 0.7487198223	 1.8813365403	-0.2323215677	 0.242854
H	-0.9004237753	 1.8165611582	-0.0962286255	 0.244258
H	-2.1347345608	-0.2682599671	 0.0158885579	 0.087249
H	-0.9170842177	-4.3476087113	-0.1902482361	 0.293708
H	 2.302225724	-3.7837919904	 0.0781275406	 0.262098
H	 3.2318574026	-2.4000268922	 0.2728790319	 0.245148
H	 2.1647129557	-0.1288092448	 0.0651387341	 0.078533
