14
gdb 12293	3.2455	2.32619	1.36659	5.2941	67.73	-0.229	-0.0736	0.1555	844.6567	0.109349	-378.758069	-378.751095	-378.75015	-378.790635	25.396	
N	-0.0476938699	 1.2341597662	 0.4676852052	-0.520239
C	-0.0129016542	 0.0430190219	 0.0116053604	 0.260896
N	-1.1602875325	-0.595938207	-0.3892531592	-0.342171
C	-1.2602977409	-1.8959420876	-0.9972307654	-0.199164
C	 0.0406650399	-2.618656953	-1.0779195365	-0.052097
C	 1.2039115201	-2.1025202613	-0.6677311378	-0.147071
C	 1.2832500865	-0.7491130057	-0.1045027271	 0.330823
O	 2.3284651672	-0.2485541885	 0.2589446177	-0.330043
H	 0.9060315625	 1.5005547714	 0.718140048	 0.234647
H	-1.9981953595	-0.0389423448	-0.3145734081	 0.252286
H	-1.9718116966	-2.5291216517	-0.4411012535	 0.133974
H	-1.675313706	-1.82673882	-2.0182424775	 0.133394
H	-0.0056667002	-3.6171008843	-1.5040757531	 0.123896
H	 2.1378648737	-2.6499635856	-0.739718393	 0.12087
