15
gdb 1062	6.87706	1.90268	1.62971	3.33	62.72	-0.2162	0.0365	0.2527	778.6349	0.127344	-304.745635	-304.738997	-304.738053	-304.776487	24.269	
C	-0.1781445687	 1.5593731059	 0.0532203189	-0.365277
C	 0.0695565489	 0.0439855495	-0.0109986093	-0.285584
C	 0.7129358238	-0.4929492824	 1.2303196613	 0.29748
C	 0.2165173954	-1.3958020716	 2.1357506609	-0.194847
N	 1.1972756213	-1.5395407599	 3.0954364517	-0.230028
C	 2.2301530281	-0.7286394273	 2.7346398417	 0.011069
N	 1.9744977742	-0.0848943387	 1.6207361565	-0.302442
H	 0.7599719663	 2.0880790855	 0.2416790241	 0.13747
H	-0.6017048723	 1.9285673455	-0.886210866	 0.103549
H	-0.8722671292	 1.8089127336	 0.8623484112	 0.110097
H	-0.8746403801	-0.4847625239	-0.1844820907	 0.093127
H	 0.7145364639	-0.1754334352	-0.8710316783	 0.110711
H	-0.713806465	-1.9369075982	 2.1866189602	 0.123771
H	 1.1563718953	-2.1350104712	 3.9049283312	 0.264644
H	 3.1350228081	-0.6534046315	 3.3195281066	 0.126259
