21
gdb 37126	3.53367	1.53469	1.43852	0.4553	84.24	-0.1893	0.085	0.2743	1012.0983	0.185216	-349.891048	-349.884021	-349.883077	-349.92181	30.538	
C	-0.00521921	 1.5021181864	-0.1174872759	-0.299932
C	 1.3089865028	 0.7898668363	 0.0347499306	-0.119145
C	-0.0045137714	 0.0081537376	 0.0427874177	-0.11915
C	 0.4481164651	-0.7644245434	-1.2314371385	 0.272545
C	 0.8146477427	 0.1009207624	-2.4090470084	-0.413566
C	 1.7606761556	 0.0167553994	-1.2394820863	 0.27254
C	 2.9026875597	-0.9789573351	-1.2634288284	-0.285616
C	 2.2504083466	-2.3047125295	-1.7523098161	-0.218751
C	 0.7785375794	-2.243164088	-1.2504011049	-0.285617
H	-0.31816001	 2.0371469894	 0.7750014181	 0.110573
H	-0.3062039675	 1.9984358248	-1.0336775658	 0.109104
H	 1.9862771084	 1.011925199	 0.8506521347	 0.082526
H	-0.5152907695	-0.4768513401	 0.8659554471	 0.082526
H	 1.1230930764	-0.4265934346	-3.3060387111	 0.111521
H	 0.2714972164	 1.0112594377	-2.6306282604	 0.112673
H	 3.756678144	-0.6851639626	-1.8843049848	 0.095511
H	 3.2809438283	-1.1059194834	-0.241352721	 0.098259
H	 2.2748646052	-2.3570709345	-2.8458340943	 0.104255
H	 2.7798360256	-3.1905291952	-1.3895859806	 0.095974
H	 0.7190186321	-2.6306707255	-0.2256410557	 0.09826
H	 0.1074791903	-2.8570174911	-1.8619285157	 0.095512
