20
gdb 108057	2.66262	1.59239	1.17483	2.2311	78.57	-0.2437	0.084	0.3277	1102.0905	0.171455	-403.096746	-403.088358	-403.087413	-403.129541	32.716	
C	-0.1488627804	 1.4598666193	 0.0831943435	-0.502949
C	 0.1224959882	-0.0121463845	 0.0022235527	 0.289929
C	-0.1348320615	-0.8955740841	-1.2131181151	-0.285395
C	-0.1655213487	-2.0417357443	-0.1890874264	-0.005143
C	 1.2683161695	-2.1614828776	 0.3491571544	-0.281715
C	 0.9954262422	-0.7887528754	 0.9498382728	 0.249199
C	 1.6470506166	-0.2500062792	 2.1903412579	-0.166808
O	 1.4818858711	-1.1432784953	 3.2804651228	-0.417373
N	-0.5068160022	-1.0150059704	 0.93976458	-0.250116
H	 0.6119147798	 2.0272826999	-0.4650494341	 0.123844
H	-1.1248986714	 1.690599892	-0.35640183	 0.125948
H	-0.1583145755	 1.8152104161	 1.1165606171	 0.132313
H	-1.1274868809	-0.6913498907	-1.6246967856	 0.107936
H	 0.6021722695	-0.9355542768	-2.0224721774	 0.094322
H	-0.8031075244	-2.9128605041	-0.3260321136	 0.082541
H	 1.3492888545	-2.903545099	 1.146762409	 0.118125
H	 2.0873509996	-2.2876372824	-0.367030074	 0.092317
H	 2.727418703	-0.1475200142	 2.0358125366	 0.112139
H	 1.2536888531	 0.7479754616	 2.4321629781	 0.089993
H	 0.5369662381	-1.337098641	 3.3184327813	 0.290891
