19
gdb 92309	2.46213	1.70551	1.12326	3.8521	76.25	-0.2122	0.0292	0.2414	1104.4574	0.161522	-419.223364	-419.215236	-419.214291	-419.256246	30.682	
C	 0.008666684	 1.5548682344	 0.1004303559	-0.3288
N	 0.0091655674	 0.1112017559	 0.1482058965	-0.067778
C	-1.252068197	-0.6139485544	 0.3850276872	-0.179315
C	-0.4801969744	-1.6208312329	 1.2701600707	-0.058582
C	 0.1433944342	-2.8488013234	 0.5579766712	-0.175488
N	 1.5695464591	-2.5598218054	 0.539904686	-0.311772
C	 1.9428607099	-1.2900627218	 0.8917403081	 0.427355
O	 3.0669128546	-0.8375889809	 0.8652159154	-0.387781
C	 0.6553062941	-0.5723572852	 1.2933483631	-0.096895
H	 1.0382617789	 1.9173263661	 0.0257196821	 0.141082
H	-0.5352752507	 1.8953963284	-0.7871130924	 0.121184
H	-0.4595829387	 2.019782258	 0.9891927786	 0.089043
H	-1.9832793507	-0.0357378142	 0.9735701802	 0.087698
H	-1.7464190528	-0.9917679132	-0.5184148716	 0.100697
H	-0.9473391687	-1.8887139388	 2.2160623562	 0.087894
H	-0.057955593	-3.7786376047	 1.1016646633	 0.110246
H	-0.2570907583	-2.9653547097	-0.4580868527	 0.112342
H	 2.2438443364	-3.1806779789	 0.1205656887	 0.249413
H	 0.7753831555	 0.0395398007	 2.1953527635	 0.079458
