23
gdb 101735	3.8755	0.67949	0.66471	2.4765	81.87	-0.2418	0.0722	0.3139	1777.7452	0.204507	-425.40002	-425.389486	-425.388542	-425.437074	37.289	
C	-0.1339359095	 1.5691523858	-0.1544407198	-0.392889
C	 0.0447437999	 0.0519142025	-0.0087279575	 0.037613
C	 0.7577049143	-0.5282687831	-1.2321313505	-0.079205
O	-0.0344188021	-0.2688764211	-2.3821454014	-0.423551
C	 0.7985847849	-0.3448785271	 1.273563927	-0.222581
C	 0.0574732802	-0.0307107193	 2.5685963207	-0.030262
C	-1.1684292564	-0.9074579434	 2.9211537169	-0.074545
O	-0.5580405932	-1.3537893033	 4.1487398807	-0.272096
C	 0.6467395812	-0.6110845712	 3.8750689361	-0.089473
H	 0.8365920161	 2.07996265	-0.1188170911	 0.105498
H	-0.6026304081	 1.8020225969	-1.1127439235	 0.136265
H	-0.7592209634	 1.9856350499	 0.6403211965	 0.110634
H	-0.9514374132	-0.4126655868	 0.016408474	 0.085266
H	 1.7570730917	-0.0701149679	-1.3261518653	 0.081754
H	 0.9050484693	-1.6113189781	-1.0928081085	 0.082888
H	 0.4471728638	-0.5739448878	-3.1560636648	 0.287045
H	 1.008559194	-1.4234480192	 1.249535898	 0.093729
H	 1.7766209825	 0.1575372013	 1.2888923904	 0.094038
H	-0.1525330437	 1.0384545391	 2.6459921179	 0.082858
H	-2.1135143887	-0.3806931316	 3.1008964503	 0.099965
H	-1.3552559916	-1.7409079525	 2.2294516764	 0.095323
H	 1.5144982569	-1.2715807723	 3.7382074308	 0.093707
H	 0.8741526651	 0.1098759092	 4.6700411668	 0.098018
