25
gdb 58983	3.23348	0.89191	0.85383	0.2331	96.2	-0.2243	0.0336	0.2579	1570.3182	0.228652	-352.388631	-352.378331	-352.377386	-352.423958	38.936	
C	 0.010077377	 1.5536498551	 0.0372023728	-0.387497
C	 0.0107255212	 0.0137135775	 0.0628614303	-0.076848
C	 0.8194090558	-0.5098189466	 1.2653957703	-0.385284
C	-1.3894640789	-0.5447378661	 0.0490873185	 0.357375
C	-1.9160082977	-1.3439455128	-0.8817746373	-0.203566
C	-3.3619469651	-1.703316652	-0.619512023	 0.005089
C	-3.7101528944	-3.1756334963	-0.8642458072	-0.394403
C	-3.5428936035	-1.2503582864	 0.8535753315	-0.217831
C	-2.4270726472	-0.2109114268	 1.1099849211	-0.312874
H	 1.0339344523	 1.9398910303	-0.0043966939	 0.109222
H	-0.5334927812	 1.9350478142	-0.8327020932	 0.114629
H	-0.4622869504	 1.9651096892	 0.9359588875	 0.115871
H	 0.50943375	-0.3365372687	-0.8502380554	 0.071622
H	 0.3841146353	-0.1770667788	 2.2139295731	 0.114835
H	 0.8490906585	-1.6035009958	 1.2745668958	 0.114675
H	 1.8496992543	-0.1403483189	 1.2277608729	 0.108912
H	-1.3874457491	-1.687605229	-1.7666824363	 0.076177
H	-4.0061847042	-1.095572878	-1.2755482201	 0.071559
H	-3.0859672611	-3.8313576561	-0.2467937997	 0.111877
H	-4.7583258943	-3.378986783	-0.6188246066	 0.109756
H	-3.5546237551	-3.4544718352	-1.9121857652	 0.108864
H	-4.5452647213	-0.8655993667	 1.0616058316	 0.09042
H	-3.386459024	-2.1165386205	 1.5073239347	 0.09693
H	-2.0348057094	-0.2593496951	 2.1320758886	 0.098141
H	-2.7940191678	 0.8165071063	 0.9737054893	 0.102351
