16
gdb 30081	3.12117	1.31164	0.92899	6.9068	75.15	-0.2045	-0.0022	0.2024	1195.0201	0.125635	-434.120439	-434.111966	-434.111022	-434.154478	30.021	
C	-0.0305576497	 1.4256315523	 0.1012302418	-0.360629
N	-0.0132099548	-0.0173579206	 0.0120989994	-0.078832
C	-0.0347627631	-0.7731709535	-1.1347365368	 0.000489
N	-0.0098848616	-2.0558016412	-0.8834466744	-0.261875
C	 0.0301459237	-2.1711584223	 0.4882453068	-0.161662
C	 0.0286710795	-0.9203444547	 1.0569635049	 0.387077
N	 0.059469935	-0.4729505197	 2.3795646161	-0.426096
C	 0.1030095177	-1.288679504	 3.4799828463	 0.144127
O	 0.1198550836	-2.4969349475	 3.4506737543	-0.294593
H	 0.8709462348	 1.8080810226	 0.594002815	 0.143715
H	-0.0643791545	 1.8379485077	-0.9084050311	 0.158329
H	-0.913349877	 1.7835898961	 0.6437677549	 0.14371
H	-0.0685743749	-0.3078978009	-2.1090071853	 0.126342
H	 0.0576005365	-3.1183062098	 0.9965043565	 0.143868
H	 0.0501307921	 0.5208310342	 2.5476890442	 0.252521
H	 0.1210614128	-0.6953040387	 4.4141386874	 0.083508
