18
gdb 89386	2.69268	1.47629	1.21824	2.1325	72.72	-0.236	-0.0335	0.2025	1077.371	0.148171	-439.09217	-439.083858	-439.082914	-439.124816	31.991	
C	-0.0286109038	 1.5322570458	-0.0035076082	-0.469596
C	-0.0178047625	 0.0265573277	 0.0579063454	 0.322711
C	-1.2444773359	-0.7489380057	-0.4336088672	-0.288015
C	-1.1203817223	-2.1553360272	 0.1648160938	-0.025014
O	-0.5001416352	-3.0221759023	-0.7910068815	-0.425072
C	-0.1842837337	-1.9813066055	 1.3894721652	 0.400398
O	-0.1437559824	-2.7403126837	 2.3281503453	-0.336368
C	 0.6169441519	-0.7413092791	 1.1870688582	-0.187785
N	 1.2615035697	-0.6334670756	-0.1497568739	-0.361827
H	 0.9116589893	 1.9381448455	 0.3766037266	 0.136056
H	-0.147926533	 1.8713561708	-1.0388076791	 0.12648
H	-0.8558499574	 1.9441380358	 0.583926815	 0.120389
H	-2.1599980553	-0.2673731339	-0.0742560706	 0.113224
H	-1.2961756756	-0.7882615674	-1.5265387714	 0.12331
H	-2.0823678454	-2.5673158978	 0.4912327363	 0.098114
H	-0.3302152507	-3.8636292598	-0.3507253922	 0.298281
H	 1.1510443857	-0.296321962	 2.0192903442	 0.106259
H	 1.1494739266	-1.5034562757	-0.6693826359	 0.248455
