17
gdb 114982	2.35001	1.61179	1.13289	4.0409	70.98	-0.2627	-0.0458	0.2169	1101.4174	0.136019	-459.004018	-458.995707	-458.994763	-459.037393	30.326	
C	 0.5692683538	 1.1009037546	-0.2986443822	-0.247783
O	 0.5881683288	-0.2792137417	 0.0393685927	-0.236893
C	 0.3776911822	-0.5394027063	 1.3895933508	 0.204864
C	 0.2428055038	-2.0493059915	 1.5582038319	-0.300729
C	 1.5863960108	-2.7136629574	 1.540092644	-0.053731
C	 2.6946637959	-2.0296969873	 1.8252602126	-0.170621
C	 2.6525171273	-0.6107328423	 2.2299265095	 0.415771
O	 3.6061386908	-0.0026660397	 2.6390555133	-0.334618
O	 1.4326172611	 0.0120577649	 2.1924283708	-0.255872
H	 1.3792994879	 1.6478536748	 0.1947149532	 0.142772
H	 0.6951402425	 1.1592744672	-1.3811272055	 0.133241
H	-0.3905999799	 1.5611699938	-0.0220300409	 0.110948
H	-0.5146027589	-0.0096741455	 1.7508354768	 0.085282
H	-0.271158713	-2.2725124778	 2.502394111	 0.133461
H	-0.3952803029	-2.425748122	 0.7533851375	 0.13602
H	 1.6321987605	-3.7738371193	 1.3069634623	 0.115927
H	 3.6815383891	-2.4758966545	 1.8324433525	 0.121961
