18
gdb 78912	3.45921	1.80924	1.6145	1.272	72.13	-0.224	0.0748	0.2988	887.4292	0.150599	-401.904579	-401.898309	-401.897365	-401.934933	26.594	
C	-0.104227915	 1.5784736785	 0.0710032283	-0.39829
C	-0.016039201	 0.0586955433	 0.0062036667	 0.0324
C	 0.805006848	-0.5040420708	-1.1346033684	-0.076342
C	 2.3148373696	-0.37839376	-0.7673406069	 0.058372
O	 2.5490980669	-1.7264831329	-1.2737769968	-0.299272
C	 1.1949413728	-1.9691714394	-0.7899469307	 0.047995
C	 1.3002890737	-1.7848713578	 0.7462212474	-0.064347
C	 2.1566720224	-0.5665595041	 0.761743309	-0.065572
N	 0.7349290141	-0.4884453566	 1.1669216196	-0.128748
H	 0.8924654886	 2.0318158133	 0.0450478077	 0.118015
H	-0.6772877163	 1.9708022969	-0.7748194797	 0.115886
H	-0.5937425226	 1.8923686407	 0.9966569461	 0.130364
H	-1.023456409	-0.3760655515	 0.0274403039	 0.081781
H	 0.5370707463	-0.3018328886	-2.1685313409	 0.08595
H	 3.0046285082	 0.3692049206	-1.153989427	 0.083154
H	 0.7259910465	-2.8627087259	-1.1980658916	 0.082496
H	 1.3324166293	-2.5987719084	 1.4582675689	 0.098457
H	 2.9216592174	-0.3312419974	 1.4893138643	 0.097701
