23
gdb 114250	4.72805	0.79166	0.7778	2.0641	85.93	-0.241	0.0709	0.3119	1589.409	0.205436	-388.263951	-388.254524	-388.25358	-388.299119	35.066	
C	 0.0113404424	 1.5059222483	 0.1997263148	-0.378739
C	-0.1194715027	-0.0060500792	-0.0106096678	-0.196996
C	 0.6432202505	-0.5110751784	-1.2279465029	 0.068386
C	 2.2006367764	-0.5021404854	-1.2045111926	-0.308693
C	 2.1899173293	-1.8801206235	-1.9077413238	 0.309926
C	 2.5903273845	-1.9849086591	-3.3961758939	-0.121567
O	 3.5819335245	-2.9901370548	-3.1081101421	-0.275306
C	 3.2646613825	-2.9596309152	-1.7012947527	-0.142522
C	 0.7081900005	-2.0417336978	-1.4944415597	-0.325705
H	 1.0586241755	 1.7984818038	 0.3323999966	 0.11898
H	-0.3794906559	 2.0600321715	-0.6610232802	 0.113859
H	-0.5401774889	 1.8349808515	 1.0857738167	 0.112452
H	 0.242452015	-0.5349387594	 0.8819388378	 0.089477
H	-1.179767066	-0.2733666358	-0.1136335688	 0.095139
H	 0.285129948	 0.0075183066	-2.1259280936	 0.068642
H	 2.724478927	 0.3142194807	-1.7098039506	 0.098755
H	 2.584386834	-0.5801597276	-0.1801950987	 0.096185
H	 1.8101131072	-2.3602460423	-4.0726671637	 0.09562
H	 3.0366844491	-1.0812631265	-3.833398653	 0.095874
H	 4.1270005175	-2.6586440562	-1.0904815917	 0.095891
H	 2.8954586756	-3.9297983226	-1.3408694818	 0.095827
H	 0.6142620703	-2.6132508643	-0.5637438305	 0.096502
H	 0.0229221835	-2.467066824	-2.2335393181	 0.098013
