18
gdb 53345	3.62183	0.98197	0.89235	2.1657	81.32	-0.223	0.0307	0.2537	1377.0029	0.147044	-401.866797	-401.857933	-401.856989	-401.902441	31.655	
C	-0.0524814559	 1.4366283804	 0.1634203737	-0.500201
C	-0.0665018806	-0.0142946047	 0.0622099254	 0.085086
C	-0.0861156449	-1.2162015516	-0.007923793	 0.107125
C	-0.0934812572	-2.6578093869	-0.1223475839	-0.065152
O	 0.3835172241	-3.3721440158	 1.0657331879	-0.307512
C	-0.7700352299	-4.2313286667	 1.0824024415	 0.110984
C	-1.9100600309	-3.738530426	 1.9997936459	-0.182719
N	-2.394926278	-2.8405749435	 0.9091381429	-0.306906
C	-1.4430813693	-3.4288047742	-0.0539802466	-0.075397
H	 0.5826631702	 1.7635795382	 0.9942200158	 0.152865
H	 0.3355192253	 1.8987567267	-0.7510609242	 0.146697
H	-1.0583150489	 1.833520389	 0.3394960184	 0.150431
H	 0.5030607098	-2.9745564091	-0.9900945915	 0.094989
H	-0.5086869304	-5.2916436466	 1.0781847403	 0.080903
H	-2.6102531017	-4.5390225075	 2.2714860662	 0.093658
H	-1.5921269163	-3.2108730813	 2.9042739518	 0.116353
H	-3.3653234829	-2.9813609121	 0.6597404883	 0.222299
H	-1.8469696024	-3.8253477883	-0.9863016189	 0.076496
