20
gdb 6085	4.10342	0.82515	0.77769	1.8152	80.99	-0.2478	0.0416	0.2894	1575.3181	0.174083	-348.986018	-348.975594	-348.974649	-349.023614	36.554	
C	-0.3976319861	 1.3238526139	 0.1305636746	-0.373291
C	 0.175860812	-0.0897289039	-0.0924098209	-0.123139
C	 1.0764500319	-0.1381445887	-1.343078816	-0.373909
C	 0.8989677428	-0.557129517	 1.0912674677	 0.06683
C	 1.5067779892	-0.9130737481	 2.0699453188	 0.03542
C	 2.2644631034	-1.3936669085	 3.2304137846	-0.013501
C	 1.7140758689	-2.7289990926	 3.7522848122	-0.381567
O	 3.6620270584	-1.4802464768	 2.9516156504	-0.41549
H	 0.4092979414	 2.0447457422	 0.2937955546	 0.125934
H	-0.9721106544	 1.6422482927	-0.7452887484	 0.111758
H	-1.0553164708	 1.348619777	 1.0033210688	 0.123425
H	-0.6693294161	-0.7714905802	-0.2628603715	 0.103591
H	 1.9332199087	 0.5325768018	-1.2263918466	 0.126439
H	 1.4574390019	-1.1481772026	-1.5158703804	 0.12018
H	 0.5126420725	 0.1747768548	-2.2276478326	 0.112936
H	 2.1955368732	-0.6499449283	 4.0339498816	 0.11441
H	 2.3073093785	-3.0576288012	 4.6097475328	 0.122881
H	 0.6683730214	-2.6271605464	 4.0571564769	 0.122471
H	 1.7674345949	-3.4952081705	 2.9720275601	 0.114316
H	 3.7583939984	-1.9861795075	 2.1372089832	 0.280305
