18
gdb 83977	2.58017	1.67287	1.22245	4.4962	72.54	-0.2332	0.0225	0.2557	1050.6226	0.149147	-439.110809	-439.102728	-439.101784	-439.143767	29.765	
C	-0.0057909317	 1.4545798228	-0.0061883232	-0.351637
N	-0.0025430404	 0.0145764947	-0.0208147575	-0.066377
C	-1.0847862908	-0.9747235346	-0.0657239727	-0.022704
C	-1.7482344599	-1.1877953866	-1.4306899814	-0.243319
C	-0.6908922173	-2.0108346064	-2.1936657052	-0.093512
O	-0.0705238132	-2.8374026082	-1.2078447781	-0.246106
C	 0.022047513	-2.0827670022	-0.0280570647	-0.039407
C	 1.0363279626	-0.8873987858	-0.016491092	 0.367356
O	 2.2299090561	-0.738429737	-0.0111134334	-0.373605
H	 1.0352748922	 1.7856033722	 0.0232859469	 0.164033
H	-0.4815743355	 1.8710869529	-0.9023240527	 0.128477
H	-0.5274222255	 1.8460826537	 0.8757029637	 0.129814
H	-1.7823530154	-0.9079439806	 0.7734730321	 0.084423
H	-2.6648308782	-1.7714714373	-1.2995660126	 0.115577
H	-2.0071684934	-0.2552155763	-1.9389797781	 0.109681
H	-1.1085350996	-2.6664627182	-2.9604427429	 0.117719
H	 0.0517517217	-1.352311878	-2.6664192811	 0.111531
H	 0.0794676851	-2.7539092153	 0.829627713	 0.108055
