17
gdb 7001	2.58195	2.05599	1.56774	4.3553	64.05	-0.256	0.012	0.268	898.1802	0.141074	-401.027193	-401.018591	-401.017647	-401.059914	31.39	
C	-0.3227052121	 1.5097637593	-0.0751581364	-0.416543
C	 0.1028586934	 0.0610346581	-0.0292561408	 0.156984
O	 1.3824013718	-0.1538937442	-0.7412772477	-0.26426
C	 1.9460821806	-0.7585849282	 0.3400664896	 0.464891
O	 3.0272048041	-1.2483648571	 0.4371096721	-0.343521
C	 0.7232469286	-0.574765813	 1.254370814	 0.058623
C	 0.9680267557	 0.340927921	 2.4536053378	-0.45755
N	 0.143852486	-1.8727168987	 1.5895033231	-0.557258
H	 0.4534273129	 2.1743566051	 0.312049832	 0.13008
H	-0.5378722116	 1.8042291916	-1.106458481	 0.139152
H	-1.2339979185	 1.6554643336	 0.5143095347	 0.126108
H	-0.650503091	-0.600842405	-0.4621488773	 0.105239
H	 1.4319040622	 1.2914351038	 2.1757414225	 0.129559
H	 0.0236820158	 0.5604337998	 2.9649622426	 0.118584
H	 1.6334752986	-0.1602981559	 3.1627463535	 0.13546
H	 0.870256413	-2.4707619985	 1.9746807847	 0.245583
H	-0.5587987394	-1.7666628816	 2.3166282167	 0.22887
