15
gdb 31444	2.95654	1.32014	0.91785	6.5895	71.9	-0.2337	-0.0475	0.1861	1193.4354	0.113695	-453.998805	-453.990787	-453.989843	-454.032137	29.12	
O	 0.025331233	 1.4252193853	 0.0093589008	-0.387717
C	-0.0114391993	 0.0259821193	 0.0016297302	-0.156309
C	-1.4369706918	-0.4867976419	 0.0127963434	 0.30852
N	-2.4155697659	 0.3723220882	 0.0222152727	-0.348529
C	-3.7294070491	-0.0705956049	 0.032489258	 0.432165
O	-4.7063621279	 0.6440725958	 0.0403032633	-0.379372
N	-3.9063463643	-1.4798570622	 0.0305967835	-0.335339
C	-2.8860053959	-2.3666898901	 0.0207053426	 0.047942
C	-1.6081347739	-1.9092634336	 0.0115790806	-0.206067
H	 0.9477475979	 1.696850215	-0.0045517418	 0.292633
H	 0.4828101772	-0.403189952	-0.8888456264	 0.107706
H	 0.5006778773	-0.4133604734	 0.8769418818	 0.107494
H	-4.8687454491	-1.7858217641	 0.037517327	 0.269672
H	-3.1518788894	-3.4179528465	 0.0206685041	 0.141916
H	-0.7661185289	-2.5876524647	 0.0037180403	 0.105285
