19
gdb 40087	3.89231	1.24668	1.05176	1.9931	83.38	-0.2329	-0.0002	0.2327	1171.2187	0.160139	-385.848393	-385.840855	-385.83991	-385.880394	30.007	
C	-0.0864954508	 1.4787499945	-0.1122470295	-0.263941
O	 1.1657503652	 0.7914783317	 0.0112400663	-0.268124
C	-0.0316127777	 0.0214163869	-0.0078264332	 0.328194
C	-0.3866196163	-0.9559340807	 1.1454145232	-0.338955
C	-0.2767538485	-2.1365964857	 0.1089046622	-0.042035
C	-1.3969074022	-3.1102929931	-0.3045026764	-0.242776
C	-1.5072632864	-2.8890110974	-1.8508093815	-0.237924
C	-1.0535863017	-1.4405684349	-2.0279144018	-0.236383
C	-0.3247070683	-1.0859657232	-0.9741532668	 0.257459
H	-0.3836397875	 2.0691526293	 0.7542737113	 0.114364
H	-0.270212263	 1.946767492	-1.0787110129	 0.115115
H	 0.316097047	-0.9608003708	 1.9818149493	 0.115238
H	-1.4052667612	-0.8081507496	 1.5146489498	 0.108792
H	 0.6968372392	-2.632172609	 0.1996891282	 0.083635
H	-1.2041572827	-4.1531734819	-0.0374645738	 0.095981
H	-2.3427432126	-2.8167383777	 0.1658120634	 0.100831
H	-0.8647867131	-3.5896689542	-2.4031632715	 0.109758
H	-2.5253450345	-3.0472799257	-2.2224276931	 0.103926
H	-1.3707761749	-0.8149072104	-2.8541526231	 0.096844
