19
gdb 80734	4.08369	1.09265	1.07315	3.1001	79.35	-0.2314	0.0276	0.259	1193.3154	0.161151	-382.070137	-382.061775	-382.060831	-382.103257	31.812	
C	 0.0089070541	 1.656580718	 0.0237296527	-0.412703
C	 0.0058710753	 0.1463781066	-0.0049912105	-0.012129
C	 0.5812936749	-0.6798659939	-1.1470378172	-0.061262
C	 1.5601002534	-0.0386765413	-2.1330378155	-0.2499
C	 2.9214796844	-0.0780250638	-1.3826835403	-0.112258
N	 2.5263251054	 0.0265499512	 0.0298198391	-0.303009
C	 1.2606589862	-0.6764838399	 0.1981914907	-0.02915
C	 3.6643534075	-1.3233510172	-1.6765438114	 0.25835
N	 4.2541746284	-2.3009647817	-1.8615325151	-0.3257
H	 0.9999825711	 2.0567928379	-0.2011824473	 0.129537
H	-0.708895076	 2.0734801291	-0.691281513	 0.1145
H	-0.2678793222	 2.0170262949	 1.020084833	 0.118086
H	-0.8856856702	-0.3038032881	 0.426221816	 0.086233
H	 0.0226950079	-1.544541275	-1.4836933752	 0.096483
H	 1.6072268724	-0.5869310956	-3.0750966702	 0.127865
H	 1.306244026	 0.9997850009	-2.3634992138	 0.118453
H	 3.5643862703	 0.7635043322	-1.6625462623	 0.122877
H	 3.2423398642	-0.295976621	 0.6669737315	 0.23839
H	 1.2528978772	-1.5423179336	 0.8525468191	 0.095338
