20
gdb 15945	3.33357	1.73856	1.42052	1.3844	74.31	-0.2592	0.0696	0.3289	960.702	0.177548	-348.973882	-348.965754	-348.96481	-349.007217	30.593	
O	-0.0719037831	 1.4397347027	 0.1594572626	-0.426015
C	 0.0141047744	 0.0190272226	 0.1676991072	-0.191617
C	-1.3732288083	-0.5281163322	-0.0427671944	 0.419159
C	-2.3904680852	-0.3698663855	 1.1222143082	-0.273351
C	-2.6936223561	-1.8986445734	 1.0754590916	-0.218644
C	-1.6906805019	-2.0716855232	-0.0959580301	-0.086647
C	-2.30033029	-1.8908450291	-1.5113160642	-0.218573
C	-2.0023830918	-0.3613589609	-1.4547962161	-0.273404
H	 0.8111853807	 1.796179448	 0.2934260154	 0.286403
H	 0.6833901704	-0.3430931224	-0.6311773907	 0.077533
H	 0.4191328159	-0.3489098961	 1.125740548	 0.077529
H	-1.9265775986	-0.0436636504	 2.0568982239	 0.099191
H	-3.2326095296	 0.2958807359	 0.9157205267	 0.096591
H	-2.3986690734	-2.426527438	 1.9859807599	 0.096968
H	-3.7260532471	-2.1786179105	 0.8449119715	 0.093564
H	-0.9247360963	-2.8418326203	 0.018360892	 0.054969
H	-1.7451868668	-2.4107955315	-2.2963053718	 0.096938
H	-3.3534218028	-2.1743812383	-1.6010530724	 0.093524
H	-2.8707384455	 0.3011855389	-1.5000176608	 0.096589
H	-1.285296155	-0.0260408963	-2.2088084364	 0.099292
