15
gdb 124080	5.16391	1.01363	0.96646	1.8415	66.03	-0.2529	-0.0349	0.218	1191.8644	0.115328	-450.083546	-450.076298	-450.075354	-450.11688	25.524	
C	 0.4010771567	 1.542204336	 0.6206139749	-0.079981
O	 1.7211820593	 1.1103354363	 0.2443212248	-0.26945
C	 1.230158815	-0.1746471312	-0.1777686025	-0.079996
C	-0.2451747704	 0.2734063309	 0.0025580467	-0.135221
C	-1.1433098368	-0.5526050068	 0.8454641042	 0.374797
N	-0.846927364	-0.9802113814	 2.0715175852	-0.261882
N	-1.9449294653	-1.6534153551	 2.3799744369	-0.064141
N	-2.8752993906	-1.6643212857	 1.4381874225	-0.099566
N	-2.3791562067	-0.9655509598	 0.4510742679	-0.252515
H	 0.2841900681	 1.6146833619	 1.7089337419	 0.114024
H	 0.1283586167	 2.4965646582	 0.1572015337	 0.111565
H	 1.5373454487	-0.421618242	-1.1998403286	 0.111533
H	 1.5362749005	-0.9785768639	 0.5029739433	 0.114017
H	-0.749511982	 0.4694823327	-0.9434013476	 0.11282
H	-2.0679800792	-2.1246228601	 3.2642137667	 0.303997
