18
gdb 19530	3.53413	1.75486	1.66274	2.2316	67.72	-0.2317	0.0753	0.307	884.937	0.154491	-384.911145	-384.903523	-384.902578	-384.943249	27.925	
C	 0.2527223767	 1.2274582977	 0.1915230199	-0.233524
O	-0.3795566549	 0.0968245249	-0.3734111436	-0.227971
C	 0.418373373	-0.5658045214	-1.2966359753	 0.131401
C	 1.4150768859	-1.6293137449	-0.8891083628	-0.131152
C	 1.2864515673	-2.2358339574	 0.497938846	-0.08242
O	-0.0750812202	-2.5997383619	 0.6721162229	-0.248877
C	-0.6932560738	-2.7820078212	-0.5950414935	-0.077759
C	 0.12422369	-1.9986527186	-1.6083512717	-0.136716
H	 1.1808162089	 0.9586124128	 0.7149965626	 0.109926
H	 0.4947105291	 1.9793877259	-0.5757947203	 0.103959
H	-0.4482639412	 1.6640334954	 0.9063264039	 0.130022
H	 0.7220063215	 0.0561940163	-2.1423529292	 0.081488
H	 2.3807651788	-1.6714689025	-1.3805810666	 0.088795
H	 1.9500605189	-3.1134314793	 0.5719517042	 0.089714
H	 1.5442508533	-1.5507030048	 1.3136491557	 0.106252
H	-0.7073216857	-3.8455188346	-0.8833794099	 0.088419
H	-1.7277211192	-2.4349159384	-0.5039836727	 0.115996
H	 0.1067364116	-2.3257422279	-2.6416250595	 0.092446
