17
gdb 73397	2.77022	2.07727	1.56005	1.7245	71.8	-0.2306	0.0013	0.2318	875.3956	0.137891	-421.794468	-421.787992	-421.787047	-421.824787	27.74	
O	 0.1618590871	 1.3849364182	 0.1591545329	-0.477575
C	 0.0376402075	 0.0200781367	 0.0470279377	 0.371644
C	 0.8831361335	-0.7796410425	 1.025950982	-0.122614
O	 0.5270063624	-2.1248865522	 0.6496272838	-0.273947
C	-0.3891886715	-1.9014074473	-0.3974306954	 0.132779
C	-1.3597899265	-0.7429258369	 0.0490157431	-0.161513
C	-2.001677326	-0.3147941213	-1.2483072764	-0.128606
C	-0.9928284681	-0.333656429	-2.1350883629	-0.128633
C	 0.202279175	-0.7722824756	-1.324106655	-0.161508
H	-0.4186884922	 1.773393477	-0.509754049	 0.283681
H	 1.958628705	-0.6183539286	 0.8933559854	 0.113741
H	 0.617469353	-0.5931200437	 2.0723299853	 0.11374
H	-0.7661148879	-2.8382907139	-0.806188781	 0.091763
H	-1.95404563	-0.8297107337	 0.9586548304	 0.068043
H	-3.0476009958	-0.0896564221	-1.4007028646	 0.105481
H	-1.0052780923	-0.1278659017	-3.1959194988	 0.105479
H	 1.1784498466	-0.8885863235	-1.7949356373	 0.068044
