20
gdb 95929	2.11368	1.58312	1.29528	4.7949	77.85	-0.2432	0.0291	0.2723	1096.7936	0.173137	-399.34399	-399.334633	-399.333689	-399.378119	35.206	
N	-0.2263143807	 1.4498952063	 0.751637246	-0.526664
C	-0.1072866628	 0.1898129654	 0.0098577445	-0.014397
C	 0.7826606815	-0.8808674096	 0.6668991159	-0.238437
C	-0.1280216079	-1.6048284458	 1.7046212303	-0.21756
C	-1.5782453476	-1.1726939065	 1.3790460002	-0.223598
C	-1.5269161009	-0.4998779453	-0.0210847308	 0.143906
N	-2.6677785099	 0.3875811589	-0.239613664	-0.565065
C	-1.5177939125	-1.5311330295	-1.0696560955	 0.279301
N	-1.48374318	-2.3341354346	-1.9006768523	-0.35121
H	-0.1053566344	 1.2981861523	 1.7483951454	 0.234012
H	 0.5031371124	 2.0937527486	 0.468484525	 0.240479
H	 0.2147219482	 0.4342054728	-1.0056592552	 0.0866
H	 1.1223538453	-1.5908837453	-0.0927133093	 0.127995
H	 1.676591851	-0.4390140158	 1.1158723805	 0.093966
H	-0.00908251	-2.6877915508	 1.6265293407	 0.119975
H	 0.1360940153	-1.3378868362	 2.7316270408	 0.102611
H	-2.29776664	-1.9922712436	 1.4052362996	 0.124527
H	-1.9385301821	-0.4121724981	 2.079079011	 0.108439
H	-2.4198783548	 1.2714491493	 0.2059531683	 0.241807
H	-2.76564457	 0.5867393575	-1.2314420311	 0.233313
