19
gdb 94927	2.32973	1.47008	1.20585	3.6974	76.31	-0.2389	-0.0191	0.2198	1116.0217	0.159464	-423.031536	-423.02324	-423.022296	-423.064498	31.461	
C	-0.1067081275	 1.5265911419	-0.1027957055	-0.407106
C	-0.0203795783	 0.0148087759	 0.032640295	 0.124892
O	 0.6259174807	-0.526814236	-1.1245007524	-0.265578
C	 1.1663087712	-1.801032153	-0.7887425986	-0.105578
C	 1.5115109176	-1.7294802091	 0.6913281645	-0.092351
C	 2.2946003484	-0.5138286702	 1.179012914	-0.120562
C	 3.1236110417	 0.3423310134	 0.2879470312	 0.134457
O	 4.1420549661	 0.8740118651	 0.6664729415	-0.27754
C	 0.7639659604	-0.544203024	 1.2118338325	-0.087462
H	 0.8857035435	 1.9835864694	-0.1319490223	 0.132046
H	-0.6369985808	 1.7921185138	-1.021410053	 0.131384
H	-0.6558203166	 1.9484718432	 0.7444495376	 0.120293
H	-1.0437830815	-0.3947011981	 0.1046050997	 0.075108
H	 0.4258749265	-2.6008061455	-0.9495661105	 0.102621
H	 2.0173533336	-1.9842645807	-1.4519626091	 0.118467
H	 1.6094045893	-2.6537310816	 1.2482781772	 0.104072
H	 2.7562112947	-0.6324568096	 2.1546725536	 0.108374
H	 2.7635387716	 0.4610444016	-0.7512092189	 0.10152
H	 0.2943822995	-0.5393922564	 2.1885099437	 0.102942
