20
gdb 99340	6.06273	0.54254	0.51916	3.7718	83.75	-0.2462	0.0307	0.2769	2111.4169	0.16834	-403.153812	-403.14282	-403.141876	-403.191836	37.766	
C	 0.031778067	 1.4572211389	-0.167821079	-0.333557
N	-0.1456034624	 0.0221677624	-0.2733779504	-0.313315
C	-1.146341173	-0.6455035439	 0.3717129548	 0.414886
O	-1.9780482437	-0.0865424149	 1.0654450258	-0.374888
C	-1.1367760955	-2.1617783684	 0.1801862148	-0.321632
C	-2.5551422198	-2.7267349486	 0.0598119099	-0.159173
C	-2.5721943288	-4.2675396983	 0.0632034235	-0.361355
C	-3.9145706083	-4.8197546621	-0.0727068529	 0.291776
C	-5.0304153137	-5.2513098365	-0.1880266888	-0.431666
H	 0.9988602287	 1.7099003903	 0.2816181258	 0.124684
H	-0.0351871086	 1.9407560996	-1.1487614542	 0.12505
H	-0.7675450388	 1.8344180697	 0.4709462934	 0.173109
H	 0.5031904964	-0.5057298223	-0.8322901363	 0.243807
H	-0.5274478554	-2.4464364491	-0.6865315678	 0.091415
H	-0.644294186	-2.5917100164	 1.0632525441	 0.128334
H	-3.1553317479	-2.3424622211	 0.8879410819	 0.142513
H	-3.0249321251	-2.3630247792	-0.8604709774	 0.113183
H	-1.9399482376	-4.6479084119	-0.750709086	 0.124436
H	-2.1186417275	-4.635215755	 0.9935756306	 0.129195
H	-6.0132384601	-5.640217843	-0.286884152	 0.193199
