16
gdb 35102	2.34788	1.79325	1.17734	1.8282	74.52	-0.247	0.0121	0.2591	1040.8628	0.123668	-400.705205	-400.697316	-400.696372	-400.738093	30.069	
C	-0.1016539126	-1.2461442542	 0.2204529389	-0.466976
C	-0.0553763345	-0.049367035	 0.1251595822	 0.373073
C	 0.0251324989	 1.4014752976	-0.0206332817	-0.27612
N	-0.6485372596	 2.1102913693	 1.0983643066	-0.260755
C	 0.2374648251	 2.8605009883	 1.6081425039	 0.113016
O	 1.4900834043	 2.8834300578	 1.1038936212	-0.24136
C	 1.4679744824	 1.9638859718	 0.0028291659	 0.419652
C	 2.721189291	 1.2087043971	-0.2753122592	-0.327279
C	 2.2718204965	 2.3286155591	-1.2012499537	-0.325559
H	-0.1574741629	-2.3024049107	 0.3161491891	 0.201732
H	-0.4785321199	 1.6843211016	-0.9543046401	 0.122718
H	 0.0827590016	 3.5214791194	 2.4536968433	 0.146467
H	 3.568667467	 1.4042746917	 0.3717825884	 0.130848
H	 2.6204554223	 0.1816381764	-0.608029007	 0.136125
H	 1.871444231	 2.0681860509	-2.1761444329	 0.124495
H	 2.8227557195	 3.2617631587	-1.1663183549	 0.129923
