18
gdb 112212	2.53423	1.32903	0.98347	1.4769	74.14	-0.2587	0.0193	0.278	1216.3357	0.147389	-439.065868	-439.057238	-439.056294	-439.09943	32.271	
O	 0.0307086258	 1.4355530004	-0.1806991315	-0.416776
C	-0.0148640456	 0.1161604508	 0.3237685912	-0.070178
C	-1.3557224485	-0.5313361236	 0.0404907193	 0.026735
O	-1.5597803888	-0.6345523899	-1.4206397389	-0.303294
C	-1.6538916305	-2.0176994711	-1.3504346914	 0.401427
N	-1.8322546981	-2.8779963507	-2.2441740362	-0.559002
C	-1.4773894413	-2.0503645828	 0.1265514516	 0.184469
C	-0.7136304332	-3.0662296001	 0.9331245551	-0.320423
C	-2.2010467063	-2.9336728108	 1.1030023726	-0.319893
H	-0.1634982758	 1.3763649144	-1.123575966	 0.295006
H	 0.786057406	-0.5128942461	-0.0945027993	 0.097578
H	 0.1422926397	 0.184292233	 1.4061905321	 0.11372
H	-2.1752901468	 0.0448838011	 0.4802450823	 0.103395
H	-1.9166110453	-2.4548811691	-3.1689232137	 0.229325
H	-0.3299337258	-3.9239320903	 0.392140145	 0.144136
H	-0.0724728156	-2.7013738388	 1.7284745759	 0.125302
H	-2.5749062464	-2.4738204946	 2.0118423399	 0.124646
H	-2.8392070734	-3.7013108018	 0.679779152	 0.143827
