18
gdb 76068	2.26933	1.35444	1.11268	3.2936	79.35	-0.2392	0.0133	0.2525	1169.5073	0.14605	-401.940747	-401.93122	-401.930275	-401.975076	35.61	
C	 0.2378654401	 1.6776294452	 0.0156139172	-0.412923
C	 0.0840118912	 0.1747692224	 0.0347020236	-0.025489
C	 1.2738539655	-0.7543883018	-0.1515162502	-0.243523
C	 2.5976181337	-0.24976433	-0.3696547379	 0.321518
C	 3.7132538551	 0.1526629325	-0.5823213216	-0.450833
C	 0.5411855422	-0.6840356182	 1.1970846661	-0.126914
C	 1.0426499762	-0.1300899873	 2.5086250004	 0.369785
N	 2.1935066998	 0.6033822632	 2.5042165956	-0.533604
O	 0.394319687	-0.3240211079	 3.5207513424	-0.365921
H	 1.1578036056	 2.0030647474	 0.5038721567	 0.134388
H	 0.2507428809	 2.0469558872	-1.0149812558	 0.123642
H	-0.6019774226	 2.1506003524	 0.5344965624	 0.130565
H	-0.8265215991	-0.1794188492	-0.4409341552	 0.104619
H	 1.0753862874	-1.6707296831	-0.700986606	 0.124257
H	 4.693486707	 0.5055903986	-0.7893266969	 0.205004
H	-0.0870484563	-1.5436228688	 1.4002633482	 0.122255
H	 2.8413567924	 0.5574044137	 1.7319730613	 0.267576
H	 2.5440661538	 0.8730919136	 3.40991779	 0.255599
