18
gdb 91677	3.44778	1.246	1.12223	3.5185	76.55	-0.2593	0.0266	0.2859	1127.8014	0.148953	-401.945709	-401.938025	-401.93708	-401.977743	30.076	
C	-0.0709898336	 1.520860713	-0.0199988039	-0.417673
C	 0.073556927	 0.0115681494	 0.0622996695	 0.136933
O	 0.9488581495	-0.4923280392	-0.9892795289	-0.291406
C	 1.883703229	-1.2802502439	-0.2565814495	 0.111719
C	 1.0193410804	-2.0420839373	 0.7731965108	-0.266612
C	 0.7847766626	-0.5880857607	 1.2889600793	-0.074561
C	 2.2900791409	-0.3068249657	 0.9082674468	-0.167264
C	 3.2704514916	-0.8014080624	 1.8529372961	 0.265708
N	 4.063894056	-1.1882631575	 2.6007639026	-0.335518
H	 0.8742860951	 2.0394255723	 0.1610171931	 0.123483
H	-0.4252225125	 1.8051685321	-1.014901709	 0.137428
H	-0.8038055325	 1.8696111952	 0.714996815	 0.121545
H	-0.9146211723	-0.4521550276	-0.057316633	 0.085909
H	 2.6087328917	-1.7380735037	-0.9259177472	 0.103489
H	 0.1588388022	-2.5899281484	 0.3840883264	 0.110533
H	 1.5992190151	-2.6549214353	 1.4631181973	 0.13864
H	 0.3893841401	-0.35986612	 2.2768611339	 0.095845
H	 2.5501551996	 0.7057076796	 0.5946857106	 0.1218
