18
gdb 88353	2.14815	1.31358	0.89335	1.6237	83.67	-0.25	0.0361	0.2861	1317.7311	0.144519	-364.711562	-364.701709	-364.700765	-364.746623	36.17	
C	-1.1509500932	 0.5473966864	 0.8232128774	-0.397171
C	-0.0705522458	-0.2925489961	 0.184881711	 0.003908
N	 0.9803684201	 0.409895968	-0.5751592437	-0.337997
C	 1.3471337947	-0.335877534	 0.6303381193	-0.011956
C	 1.8926618006	 0.4930359018	 1.8008291945	-0.361013
C	 1.5971096908	-0.1570110015	 3.0831344085	 0.341952
C	 1.3353429516	-0.703921411	 4.1197430344	-0.457092
C	 3.3318205282	 0.7279750168	 1.6355754288	 0.326618
C	 4.5087428384	 0.9041627639	 1.4755018619	-0.438543
H	-0.7603793759	 1.5048056833	 1.1748319523	 0.127547
H	-1.9426788432	 0.7623366981	 0.0978634255	 0.120483
H	-1.6002758339	 0.0220727933	 1.6720578853	 0.127197
H	-0.4340260832	-1.228886778	-0.2381051672	 0.084601
H	 1.242827527	-0.1005879052	-1.4130792806	 0.234418
H	 1.8687623336	-1.2831022769	 0.5119257427	 0.098525
H	 1.3869129506	 1.4661264773	 1.7740614307	 0.142059
H	 1.1117275062	-1.1800465301	 5.0421734217	 0.198967
H	 5.5491532934	 1.069902654	 1.3430910977	 0.197497
