14
gdb 66054	2.61895	1.3101	1.14499	4.5496	68.52	-0.2849	-0.0177	0.2672	1090.6144	0.098257	-436.626136	-436.617365	-436.616421	-436.660161	31.393	
O	 0.1149374241	 1.4115980265	-0.0254735037	-0.433824
C	 0.0643598588	 0.0107016095	-0.0271414209	 0.154119
C	 0.0383783547	-0.5111621188	 1.4304540653	-0.096687
O	-1.3114090687	-1.0068058452	 1.2941090732	-0.268986
C	-1.3905249664	-0.6186598036	-0.082274681	-0.076748
C	-2.4636775214	 0.3290823693	-0.3739428722	 0.292346
N	-3.298795142	 1.0806516483	-0.6435777564	-0.316241
C	 1.0141684703	-0.5917073943	-0.9487003655	 0.284871
C	 1.781143733	-1.0751740314	-1.7375902698	-0.4516
H	 0.0872134265	 1.7276701572	-0.9364884336	 0.299585
H	 0.7486682481	-1.3097084772	 1.6602267689	 0.126165
H	 0.1114380653	 0.2991540981	 2.1614064976	 0.138974
H	-1.475872404	-1.4851220019	-0.747482817	 0.132506
H	 2.4684869516	-1.5027363165	-2.4262988148	 0.21552
