18
gdb 122583	4.46515	0.83743	0.76207	1.4852	69.11	-0.2642	0.0159	0.2801	1479.4671	0.148006	-476.225395	-476.216661	-476.215717	-476.260237	31.107	
O	-0.1057079607	 1.4806925218	-0.0305707644	-0.419187
C	 0.0207786267	 0.0745370835	 0.0308735289	-0.063699
C	-1.3339982829	-0.6131341814	 0.0230018019	-0.084216
O	-1.9697907708	-0.2487773762	-1.2041673562	-0.25595
C	-3.3000525111	-0.6258057435	-1.3122386273	 0.194532
C	-3.8712685795	-0.1408991563	-2.6597370853	-0.20434
N	-4.0218783039	-1.3538963916	-3.4774429921	-0.255719
C	-3.7525512979	-2.3171151886	-2.7024123848	 0.115974
O	-3.4158649708	-2.0685730009	-1.4073197593	-0.230742
H	-0.6661222439	 1.6645045364	-0.7930342454	 0.288615
H	 0.6257245319	-0.3150627789	-0.8029917883	 0.099182
H	 0.542988909	-0.1625417795	 0.963361521	 0.113555
H	-1.2278465464	-1.7029684644	 0.0898732311	 0.113168
H	-1.9418901094	-0.2633337046	 0.8707451276	 0.102741
H	-3.8641531293	-0.3299514904	-0.4192538519	 0.08853
H	-4.841550956	 0.3524091169	-2.5452551101	 0.124041
H	-3.1803329857	 0.5639706438	-3.1296830213	 0.130034
H	-3.7730967192	-3.368057806	-2.9678983842	 0.143481
