23
gdb 109930	2.09136	1.32902	1.07178	1.9373	81.9	-0.2468	0.0705	0.3174	1285.7444	0.203314	-425.422172	-425.411702	-425.410758	-425.457008	39.864	
C	 0.0689362631	 1.5692009264	 0.0714063187	-0.384879
C	-0.0988027869	 0.0465033365	 0.0115294118	-0.205913
C	 0.673762473	-0.583676769	-1.1392921248	 0.012791
C	 2.2261904138	-0.6196389157	-1.1089228781	 0.088858
O	 2.6794192683	-0.6715203258	 0.2367981533	-0.430152
C	 2.1700603463	-2.0066776957	-1.8051846817	-0.316584
C	 0.6683726221	-2.1224713553	-1.3850525986	 0.386431
C	 0.4515358792	-2.9910237849	-0.1509379046	-0.458093
O	-0.2461887554	-2.45975898	-2.414116278	-0.480634
H	 1.1177345238	 1.8379590767	 0.232080246	 0.125402
H	-0.2627794781	 2.0444029532	-0.8588029006	 0.108744
H	-0.5146339921	 1.9995860025	 0.8913482547	 0.107444
H	 0.2311640764	-0.3884263511	 0.959716052	 0.109421
H	-1.1610091744	-0.2048800005	-0.1018862189	 0.096735
H	 0.3680928182	-0.1248223636	-2.0865737781	 0.081504
H	 2.742090812	 0.1790317545	-1.6560719585	 0.063954
H	 3.6170386237	-0.8881329908	 0.2238542135	 0.283221
H	 2.2577454647	-1.9242103723	-2.8914962091	 0.102659
H	 2.8649428673	-2.7670933713	-1.4347459796	 0.08316
H	 1.1396512638	-2.710410572	 0.6493766734	 0.138346
H	-0.5759748246	-2.8995303055	 0.2144082706	 0.120324
H	 0.6350653847	-4.0455063251	-0.3972039091	 0.096247
H	-0.2888432387	-3.4200753112	-2.4766960742	 0.271016
