21
gdb 79338	3.04644	1.48015	1.38023	1.2952	80.59	-0.2359	0.0825	0.3185	1050.8523	0.184878	-387.103076	-387.095423	-387.094479	-387.134502	32.103	
C	-0.1269002781	 1.5472999709	-0.0437067954	-0.419507
C	 0.0340331569	 0.0282016335	-0.0096579144	 0.041134
C	 0.9256199896	-0.5627357596	-1.1012627706	-0.102326
C	 2.3437293522	-0.6504264539	-0.5336915134	-0.13612
C	 2.2887065027	-0.1302714496	 0.8977995162	-0.228493
C	 0.8289785077	-0.5629991503	 1.1926556364	-0.056048
C	 0.8706996389	-2.0645772093	 0.8172092164	-0.295789
C	 1.4460674433	-1.8779330172	-0.5855890752	 0.408045
O	 1.6424636431	-2.9362723913	-1.4626287961	-0.48264
H	 0.8369958758	 2.0631132893	-0.0775632326	 0.118244
H	-0.6911118139	 1.8555927052	-0.9304544217	 0.113286
H	-0.6725421834	 1.9058732931	 0.8362711445	 0.108933
H	-0.963306946	-0.4297428772	-0.0405415632	 0.066897
H	 0.7541895316	-0.4129461443	-2.1593473796	 0.084141
H	 3.2090757309	-0.5649735175	-1.1778413346	 0.079546
H	 3.0048896295	-0.6302268721	 1.559665315	 0.088841
H	 2.4483291333	 0.9484821481	 0.9828028485	 0.095597
H	 0.4442742731	-0.3228077469	 2.1843431744	 0.059073
H	 1.5258793538	-2.6492809752	 1.4742677509	 0.080722
H	-0.1198725076	-2.5310969391	 0.8044338191	 0.09712
H	 2.3905590867	-3.4532974066	-1.1440061944	 0.279345
