15
gdb 67423	2.81039	1.53985	1.29493	4.7178	71.69	-0.2412	0.0201	0.2613	988.7051	0.113759	-416.746782	-416.739473	-416.738529	-416.778416	28.443	
O	-0.2163414834	 1.3808956386	 0.0010368967	-0.439287
C	-0.0215318713	 0.0380492501	 0.0122975939	 0.348093
C	 0.0784701479	-1.0236952063	-1.0227873472	-0.158161
N	 1.2898710498	-1.5856724043	-0.4630159922	-0.291336
C	 0.9170910926	-0.9603636042	 0.8393569376	-0.119347
C	-0.3702473814	-1.6847166118	 1.3271583435	-0.294868
C	-1.0599968506	-1.0663693597	 0.1128551756	 0.156412
C	-2.436199535	-1.027529589	-0.2261277988	 0.164966
N	-3.5600559929	-1.0040306476	-0.5072083812	-0.356274
H	 0.4784049508	 1.7950401191	-0.5252043609	 0.305448
H	-0.1950246689	-1.0368678256	-2.0697264343	 0.127473
H	 1.3098543517	-2.6058912901	-0.4291578681	 0.221598
H	 1.7253532612	-0.7112803647	 1.5227869824	 0.096785
H	-0.3269281355	-2.776317958	 1.4033677405	 0.106616
H	-0.7526346651	-1.2563280266	 2.2559672523	 0.131881
