20
gdb 116582	3.55341	0.9377	0.79333	3.3892	85.45	-0.2185	0.0057	0.2242	1506.0649	0.170495	-399.367184	-399.357416	-399.356472	-399.403367	34.929	
C	 0.1291295649	 1.5354079276	 0.0553585567	-0.358583
C	-0.027591945	 0.015313339	-0.0645157107	-0.147895
N	 0.6926302189	-0.4942563004	-1.2185680471	-0.326422
C	 1.7849768927	-1.116868949	-1.0695575925	 0.394922
C	 2.6522077124	-1.6971078607	-2.1846396618	-0.260457
N	 3.8049002754	-2.3314225229	-1.5347069438	-0.291188
C	 3.6507603709	-2.1588621416	-0.2770004314	 0.376885
C	 4.5900335455	-2.6391851901	 0.7799728159	-0.492234
N	 2.4975645206	-1.4601059263	 0.0855168739	-0.388723
H	 1.1721246417	 1.8086361555	 0.2463167675	 0.111397
H	-0.178453706	 2.0201448542	-0.8752516302	 0.131666
H	-0.4843493169	 1.9274968311	 0.8729999152	 0.108229
H	 0.2638391439	-0.4611436179	 0.8882902666	 0.059963
H	-1.0894215755	-0.2215586339	-0.2050920346	 0.108706
H	 2.0911756274	-2.4278357895	-2.7775295226	 0.139541
H	 2.9809785825	-0.9136992513	-2.8765484523	 0.138781
H	 5.4264474733	-3.154417945	 0.3081765071	 0.160297
H	 4.9731565775	-1.8014479953	 1.3734720509	 0.137305
H	 4.0863053585	-3.3273592119	 1.4680299618	 0.138274
H	 2.2370580972	-1.2238933815	 1.0262444813	 0.259536
