15
gdb 25590	4.36529	0.90594	0.83957	2.0844	68.35	-0.2336	-0.0055	0.2281	1338.3112	0.113832	-454.000419	-453.992375	-453.991431	-454.0351	28.033	
O	 0.3735777725	 0.2255651307	-0.710426581	-0.266533
C	 0.3781139607	 1.4034549634	-0.5257505295	 0.175529
O	 0.8891635756	 1.9576194281	 0.5968906184	-0.189739
C	 0.9378433921	 3.3932089009	 0.6614329334	-0.210492
C	 2.2719595118	 3.8976768358	 0.2154636927	 0.331081
N	 2.5005863046	 5.0498896361	-0.3735263493	-0.300332
C	 3.8649890153	 5.1054362433	-0.5472334424	-0.089093
C	 4.4588601147	 3.9695124603	-0.0640518469	-0.10313
N	 3.4265589823	 3.2045252827	 0.4300965143	-0.262044
H	-0.0355754937	 2.1552839858	-1.2244710169	 0.094442
H	 0.1575013029	 3.8532713144	 0.046607937	 0.148072
H	 0.7352464876	 3.6396151337	 1.7083016175	 0.144916
H	 4.3372633199	 5.95431909	-1.0170319819	 0.113327
H	 5.4818485612	 3.6337870312	-0.0355792027	 0.134359
H	 3.4895279627	 2.2805052138	 0.8253665872	 0.279637
