20
gdb 30794	2.1093	1.38181	0.86111	1.8972	85.83	-0.1835	0.0424	0.226	1373.6656	0.170229	-403.194078	-403.184011	-403.183066	-403.229459	36.127	
C	 0.0543465176	 1.4706246281	 0.123001911	-0.50295
C	 0.0601144009	-0.0155415158	-0.0202020913	 0.314474
C	-0.0359949175	-0.8180592027	-1.135055333	-0.319212
C	-0.0238236702	-2.1834448527	-0.714004798	 0.193487
C	-0.0893329153	-3.3867830899	-1.6067484821	-0.508682
C	 0.087334783	-2.1675240654	 0.6611044566	 0.232643
C	 0.2027872461	-3.2540182578	 1.673502619	-0.209043
O	-0.4935283272	-2.8394491419	 2.8524492763	-0.426612
N	 0.1566840245	-0.852427969	 1.0637498442	-0.33703
H	 0.9685485382	 1.8452029523	 0.6006432904	 0.123425
H	-0.019468225	 1.9383430699	-0.8615035464	 0.134269
H	-0.7937217569	 1.8266588419	 0.7220892372	 0.124361
H	-0.1119883024	-0.4658812825	-2.1539726668	 0.081425
H	 0.8712437584	-3.5949874813	-2.0953597996	 0.120976
H	-0.3709048423	-4.2888894936	-1.0540368468	 0.114174
H	-0.8277140718	-3.2470618609	-2.4038952164	 0.121783
H	-0.2145934038	-4.1849176336	 1.262550064	 0.102483
H	 1.2590301251	-3.4575075899	 1.9213365136	 0.094989
H	-0.2680528461	-3.4525148371	 3.5586325816	 0.287892
H	 0.1110558346	-0.580787718	 2.0314483166	 0.25715
