19
gdb 70534	2.75866	1.48098	1.11968	3.1883	75.62	-0.2439	0.0253	0.2692	1119.4683	0.161394	-419.236916	-419.228674	-419.22773	-419.269608	31.891	
C	-0.080110006	 1.5159878142	 0.052949248	-0.446069
C	 0.0286615671	 0.0070950032	 0.0369153413	 0.303099
C	-1.1059697206	-0.7062979595	-0.6808361731	-0.383379
C	-1.082386542	-2.230567667	-0.6414067362	 0.362578
O	-1.6286375411	-2.9092739014	-1.4898575481	-0.36876
N	-0.4011850408	-2.7925848915	 0.4049851413	-0.310735
C	 0.1722204901	-2.0915658672	 1.5412108598	-0.195213
C	 0.6794653464	-0.7168165335	 1.1564034162	-0.039864
N	 1.4080674562	-0.5100383231	-0.1039963228	-0.37281
H	 0.7850309266	 1.955872583	 0.5545976927	 0.129668
H	-0.1154587087	 1.9124988849	-0.9679902935	 0.123428
H	-0.9895825587	 1.8398365817	 0.571370774	 0.114143
H	-2.0627775917	-0.3868961234	-0.2449679709	 0.132224
H	-1.1471039878	-0.422044544	-1.737410854	 0.136868
H	-0.4368820264	-3.8012551209	 0.4256653942	 0.250674
H	-0.5563468553	-1.980929766	 2.3597810448	 0.11618
H	 0.9969669129	-2.6986399975	 1.9337131117	 0.12233
H	 1.0711432689	-0.1503608436	 1.9990559967	 0.092283
H	 1.413304111	-1.3740613283	-0.6434058419	 0.233356
