15
gdb 5335	6.32551	1.57399	1.28773	2.0333	69.31	-0.1819	0.0466	0.2284	908.1939	0.120514	-362.655964	-362.649093	-362.648149	-362.686964	26.052	
O	-0.1320590208	 1.4018099088	-0.0353378968	-0.444568
C	 0.0663630339	 0.0500512543	-0.0382134623	 0.335949
C	 0.0070342854	-0.7200309298	-1.1901693301	-0.242403
N	 0.1339220802	-2.0184260046	-0.7496870999	 0.018894
C	 0.6593778417	-3.372825887	-0.9991888042	-0.168235
C	 0.7986556148	-3.5126551436	 0.5642523673	-0.363349
C	 0.3509418078	-2.0619350397	 0.5927394058	 0.336237
C	 0.3158822472	-0.7831577303	 1.1030893491	-0.464295
H	-0.0483841826	 1.7173803842	 0.8686197346	 0.295416
H	-0.214183584	-0.4408237115	-2.205840257	 0.116408
H	-0.0463185759	-4.0415220881	-1.5005303203	 0.120092
H	 1.616222425	-3.3807323926	-1.5300109422	 0.126413
H	 0.1274644563	-4.2420026545	 1.026319157	 0.120186
H	 1.8196027435	-3.7050500755	 0.9042390863	 0.12338
H	 0.4358524574	-0.4564856501	 2.1249580628	 0.089874
