20
gdb 87244	3.55814	0.81949	0.81096	4.272	77.34	-0.2474	0.0331	0.2805	1493.4212	0.169248	-440.294365	-440.284239	-440.283295	-440.330514	36.526	
C	-0.3452791571	 1.3774823355	-0.4565065805	-0.453385
C	-0.0550219272	-0.041532517	-0.0100228396	 0.305757
C	-1.1873887605	-1.0355521161	-0.2088583369	-0.222853
N	-2.3713456527	-0.6944867061	 0.5663851674	-0.269639
C	-3.6079527588	-0.5432831644	 0.0208399712	 0.154635
O	-3.8849797027	-0.6996621396	-1.1494950229	-0.322977
C	 1.3546429512	-0.5763838597	-0.1930026028	-0.375491
C	 0.8358241983	-0.2624468044	 1.1890882296	 0.068083
O	 1.2959337068	 0.8654102549	 1.8739707747	-0.421489
H	 0.4674975606	 2.048293262	-0.1742066048	 0.129226
H	-0.4782373725	 1.419739701	-1.5428498361	 0.121168
H	-1.2638647585	 1.7518686135	 0.0063461518	 0.119646
H	-1.5072249559	-1.0626588759	-1.2540221902	 0.1488
H	-0.8460871542	-2.0453644026	 0.055561443	 0.10025
H	-2.2624946509	-0.5185159827	 1.553101073	 0.249168
H	-4.3576296191	-0.2554256597	 0.7851310917	 0.072419
H	 1.4971071661	-1.6148324509	-0.47486185	 0.111205
H	 2.0834727815	 0.1113553919	-0.6089568251	 0.1165
H	 0.59937116	-1.1127870977	 1.8318993127	 0.078791
H	 2.2181130455	 0.7168064881	 2.1072466737	 0.290187
