19
gdb 104479	2.4807	1.55489	1.13699	2.842	75.53	-0.2348	-0.0287	0.2061	1116.2654	0.157725	-422.960703	-422.952143	-422.951199	-422.994077	32.401	
C	 0.9537376242	-0.8178651229	-1.404655938	-0.384449
C	 0.2035047644	-0.1477674527	-0.2451765278	-0.285541
C	 0.6671247731	-0.6357112808	 1.1265605516	 0.237273
C	 1.9704396231	 0.0194485131	 1.547713919	 0.107866
O	 2.5311583958	 0.8647388295	 0.8906990823	-0.267932
C	-0.348719964	-0.8259792051	 2.3181093514	-0.007648
C	-0.976268154	-2.0538181989	 1.6162167463	-0.233578
C	 0.5638304713	-2.1527424036	 1.5484077987	 0.003819
O	 0.6116316371	-1.7435554959	 2.9706008897	-0.306492
H	 0.7820944414	-1.9000339741	-1.4228631026	 0.109681
H	 0.6199770452	-0.4141508585	-2.3650466655	 0.117314
H	 2.0296214544	-0.6430192659	-1.3248291476	 0.139817
H	 0.3815316382	 0.9311466822	-0.2849239459	 0.12274
H	-0.8724419363	-0.2940745462	-0.3689403981	 0.095459
H	 2.3798351154	-0.3263594096	 2.5128747381	 0.111905
H	-0.8147199361	-0.0611475926	 2.9404183204	 0.105897
H	-1.4375047964	-2.7670351818	 2.2997901912	 0.116319
H	-1.5456812528	-1.918288173	 0.6976340109	 0.111279
H	 1.198110146	-2.9865307432	 1.246226066	 0.106272
