14
gdb 27682	2.85711	1.36146	0.92787	4.9539	74.88	-0.2266	-0.0297	0.1969	1180.0104	0.101757	-432.930364	-432.92211	-432.921166	-432.963226	29.989	
C	-0.0080432085	 1.5254997923	 0.1215639611	-0.500132
C	 0.0267211744	 0.0414732055	 0.0281461066	 0.186178
C	 0.0081743835	-0.7432687986	-1.0895939586	 0.145735
O	 0.0568138131	-2.0736564659	-0.6707259115	-0.213502
C	 0.1004751232	-1.9804233155	 0.6691511916	 0.474259
N	 0.211033157	-3.1408367552	 1.3641248839	-0.591641
N	 0.0822815788	-0.7658858992	 1.1487960851	-0.372138
C	-0.0518165294	-0.4682181329	-2.4628238534	 0.21359
N	-0.1030396023	-0.2101008954	-3.5932145889	-0.351579
H	 0.8856982042	 1.89538614	 0.6344844763	 0.150771
H	-0.0602472265	 1.9815546868	-0.8691134123	 0.148091
H	-0.8744292416	 1.8500078229	 0.7069338839	 0.149416
H	-0.1028699088	-3.9800830298	 0.9034451212	 0.278268
H	 0.0013240529	-3.070830705	 2.3469438651	 0.282683
