13
gdb 2655	22.60627	0.76046	0.74254	1.2171	77.05	-0.229	-0.0129	0.2161	1474.0311	0.099342	-307.265351	-307.256761	-307.255817	-307.301153	27.61	
C	-0.0014147665	 1.4694651979	 0.0342603822	-0.518307
C	-0.0032366417	 0.0183353816	-0.0005139602	 0.251141
C	-0.007234006	-1.1916138627	-0.0285065401	-0.194476
C	-0.0122517564	-2.5508636172	-0.0596749652	-0.212548
C	-0.0208706295	-3.7605881864	-0.0854373158	 0.321664
C	 0.0067065004	-5.2141694737	-0.1343411736	-0.245088
O	-1.1930499208	-5.7385023046	 0.4208394406	-0.407937
H	 0.7886583866	 1.8506787483	 0.6910884292	 0.156261
H	 0.1617688306	 1.8905540872	-0.9642574485	 0.156307
H	-0.9576597118	 1.8552300774	 0.4054890688	 0.158223
H	 0.1353954901	-5.5328795561	-1.1822977435	 0.121804
H	 0.8924845596	-5.5723052183	 0.416553695	 0.121806
H	-1.1358227146	-6.6982788835	 0.3700898112	 0.29115
