13
gdb 131978	4.72916	1.08754	0.88551	7.4915	65.63	-0.2386	-0.0699	0.1686	1196.3891	0.09063	-485.995567	-485.987912	-485.986968	-486.028238	27.715	
N	 0.1053356059	 1.3770328169	 0.138078882	-0.607275
C	-0.0624971268	 0.0017097858	 0.0396121034	 0.427838
C	-1.1865511766	-0.8019087782	 0.0230810161	-0.376121
C	-0.6506328939	-2.1047271374	-0.0019229613	 0.451042
N	 0.6697112773	-2.1487415661	-0.0069498577	-0.261082
N	 1.0076906969	-0.8450323337	 0.0265273059	-0.230691
N	-1.4226111851	-3.3330970754	-0.0349167656	 0.364264
O	-2.6431658142	-3.1954011296	-0.0169584317	-0.369962
O	-0.8257719699	-4.3959414869	-0.0777862956	-0.346201
H	 0.7757115147	 1.7627364587	-0.5156460223	 0.259585
H	-0.7697594696	 1.8774967054	 0.0676828145	 0.267523
H	-2.2224041791	-0.5142107639	 0.0148884991	 0.137448
H	 1.9827414206	-0.5985026657	 0.0806235032	 0.283631
