18
gdb 119544	3.07041	1.14594	0.93648	3.2169	73.63	-0.235	0.0049	0.2399	1290.1957	0.146464	-439.06583	-439.057012	-439.056068	-439.100079	32.321	
C	-0.1055326971	 1.5441020306	-0.0698445193	-0.39019
C	-0.0560376059	 0.0308415282	-0.1583663558	-0.068688
O	-1.3540192902	-0.4748355062	 0.1862078649	-0.286693
C	-1.4245698848	-1.8354738588	 0.1783752874	 0.309587
C	-1.6407512679	-2.6617839965	-1.1054244823	-0.349275
C	-2.6362983753	-2.7234917378	 0.0191202345	-0.09565
N	-2.1465464325	-3.5744565488	 1.1114765714	-0.343341
C	-0.9707403487	-2.807966623	 1.2720302205	 0.347328
O	-0.022470194	-2.9327764334	 1.9928221963	-0.344944
H	 0.868314893	 1.9682973567	-0.3313445634	 0.120123
H	-0.8557474526	 1.9468981166	-0.7564001366	 0.125985
H	-0.3614415807	 1.8617627895	 0.944624312	 0.134001
H	 0.2039614754	-0.2989382596	-1.1751978906	 0.095436
H	 0.6903023422	-0.3839753204	 0.530848121	 0.127219
H	-1.9219216754	-2.0466788371	-1.9562615711	 0.128611
H	-1.02403358	-3.5249622372	-1.3388527858	 0.121285
H	-3.6773353669	-2.4371858998	-0.0401124029	 0.127216
H	-2.1219932986	-4.5869667531	 1.0501378797	 0.241992
