13
gdb 133683	3.27506	0.92285	0.84329	1.6115	51.66	-0.3196	-0.002	0.3176	1280.5331	0.084313	-584.259993	-584.251158	-584.250214	-584.294673	30.67	
O	-0.2029570385	 1.3696962033	 0.1029746303	-0.397824
C	-0.0014894587	-0.0232621915	 0.0446096802	-0.027738
C	 0.6905317969	-0.503126379	-1.2454908563	-0.373964
C	-0.0625488865	-0.0993507959	-2.5036514433	 0.296617
F	 0.0194995116	 1.2145985046	-2.7430771344	-0.07022
F	 0.4448744646	-0.7352007313	-3.5695591794	-0.072761
F	-1.3627900807	-0.4200797422	-2.4195096992	-0.081526
C	 0.7562488792	-0.5118251502	 1.21734047	 0.263881
N	 1.3723794022	-0.8730093053	 2.1252866422	-0.304433
H	 0.6502165767	 1.8142652971	 0.0347018142	 0.299187
H	-1.0042949194	-0.460182246	 0.0851494017	 0.162321
H	 1.7066441568	-0.1029389105	-1.3131089699	 0.146719
H	 0.7645382657	-1.5939595631	-1.2355044463	 0.159743
