13
gdb 47133	3.34294	1.25938	0.93145	3.2791	68.02	-0.2584	-0.066	0.1924	1144.0595	0.090688	-452.803191	-452.795657	-452.794713	-452.835743	27.196	
O	-0.0304308515	-0.0116027836	 0.2000669472	-0.362093
C	-0.0210093966	 1.1724184903	 0.0105185691	 0.475577
N	-1.185116042	 1.9306072881	-0.0728617972	-0.459115
C	-1.1750444476	 3.3281949027	 0.0168271608	 0.282583
C	-0.0492471144	 3.9983678298	-0.2543596146	-0.20096
C	 1.1359537715	 3.1899487854	-0.6774604047	-0.125596
O	 1.1309928925	 1.8698450027	-0.0988535818	-0.237606
C	-2.3974775666	 3.9561451051	 0.405134706	 0.225788
N	-3.4026607394	 4.4408809258	 0.7109717459	-0.314778
H	-2.0269172536	 1.4215371892	 0.1472779739	 0.284102
H	 0.0061819877	 5.0747613702	-0.1818484004	 0.141138
H	 1.1777871928	 3.0911971932	-1.7729265947	 0.141214
H	 2.0745869772	 3.6417131911	-0.3493076795	 0.149746
