16
gdb 107319	2.7609	1.70353	1.20138	3.5983	71.12	-0.2514	-0.064	0.1874	1007.0237	0.125395	-437.88299	-437.875491	-437.874547	-437.914936	28.873	
O	 0.1466182672	 1.0773661651	-0.7069928503	-0.417616
C	-0.0186536437	 0.0873654536	 0.283827966	-0.153299
C	-1.4241400351	-0.4808556017	 0.2219209113	 0.165679
C	-2.5411211694	 0.0820043758	 1.0454281028	-0.261715
N	-1.9825051345	-1.2616381989	 1.3325121112	-0.137323
C	-2.7477832155	-2.2850982068	 0.7079543564	-0.034092
C	-2.6260215186	-2.3407970441	-0.6311206941	-0.207897
C	-1.7822772007	-1.2111577021	-1.0565699552	 0.353671
O	-1.3643246242	-0.928168119	-2.1650578605	-0.369307
H	-0.1048815469	 0.6625796487	-1.5460628738	 0.300986
H	 0.7050265759	-0.735361744	 0.1712298173	 0.100248
H	 0.1614232219	 0.5537833005	 1.2572419729	 0.11373
H	-2.298202142	 0.8537986943	 1.7700624785	 0.142573
H	-3.5419650804	 0.1195974809	 0.6251954554	 0.137209
H	-3.3646833473	-2.9047549659	 1.3479680102	 0.137186
H	-3.0834861266	-3.0522124863	-1.3032172681	 0.129968
