17
gdb 78596	2.84148	1.5834	1.25885	3.5129	67.08	-0.2436	0.06	0.3036	1003.4283	0.136247	-458.899908	-458.892281	-458.891337	-458.931441	31.025	
O	 0.0592027202	 1.4539721006	 0.0133272864	-0.454438
C	 0.0016027747	 0.0609488736	-0.0584242805	 0.188408
C	-1.3291992238	-0.6954533396	-0.1228466324	-0.180164
C	-1.735389095	-0.811047828	-1.6158256982	-0.189752
C	-0.6446654769	-0.1546116932	-2.4342709362	 0.133719
O	-0.7832573207	 1.2473286229	-2.6418184411	-0.443172
C	 0.3785075825	-0.6791907191	-1.3820684796	-0.27075
C	-0.7279516267	-1.754850994	-0.9916464624	 0.375222
O	-0.6971369182	-3.1090174005	-0.7994147733	-0.449958
H	-0.3986073047	 1.7850176648	-0.7731138279	 0.284141
H	 0.6019069067	-0.3295690853	 0.7685870513	 0.092959
H	-2.0770557775	-0.8257955008	 0.6483718709	 0.094502
H	-2.761728793	-1.004416922	-1.8973851053	 0.094502
H	-0.5181307945	-0.6701943327	-3.3954636977	 0.07397
H	-0.0224219947	 1.5562680327	-3.1458122422	 0.289636
H	 1.4162289284	-0.8644712071	-1.6529919643	 0.069104
H	-0.6473949768	-3.5435796022	-1.6583257374	 0.292071
