19
gdb 17317	2.61212	2.42745	1.65218	1.7214	75.05	-0.2145	0.0699	0.2844	879.7138	0.165228	-327.834618	-327.826913	-327.825969	-327.866013	30.264	
C	-0.0195363445	 1.6015999228	-0.0276770927	-0.443626
C	 0.1545497034	 0.0852454725	 0.0246865118	-0.059198
C	 1.2930856212	-0.8577177228	-0.3387675983	-0.08354
N	 2.7214407098	-0.5780799245	 0.0749938933	-0.133219
C	 2.8288758755	 0.7468353827	 0.7093110142	-0.253432
C	 2.2066818926	-0.3616440658	 1.4719285169	-0.092893
C	 0.7689340909	-0.788030456	 1.0855536851	 0.306479
C	 0.0233240434	-1.7917157114	 1.9172075314	-0.495229
H	 0.4531261139	 2.0453060675	-0.910434928	 0.12837
H	-1.0863918151	 1.8411645345	-0.0803432406	 0.113016
H	 0.374722055	 2.1010667424	 0.8601086776	 0.13001
H	-0.7471221902	-0.4141428896	-0.3338887477	 0.091046
H	 1.1659831354	-1.6210423119	-1.097931027	 0.095026
H	 3.8580450785	 0.9793599548	 0.9738144128	 0.118519
H	 2.2720142885	 1.5872366601	 0.326117373	 0.124179
H	 2.7138735911	-0.8259790311	 2.3132283486	 0.094712
H	-0.3676504434	-1.3376116241	 2.8365834873	 0.119199
H	-0.8268485524	-2.2044924517	 1.36507715	 0.118554
H	 0.6704399061	-2.6266437387	 2.2107922822	 0.122027
