15
gdb 127726	3.36786	1.46208	1.03253	1.9802	71.99	-0.2543	-0.0905	0.1638	1110.8529	0.112034	-450.139781	-450.131474	-450.13053	-450.173109	29.402	
C	-0.0708365809	 1.4236325668	-0.02853048	-0.317746
N	-0.031321786	-0.0331366725	 0.0084503662	-0.044155
N	-0.15161949	-0.6592909054	-1.1552963935	-0.048012
N	-0.1242029983	-1.9365844452	-1.1853950101	-0.239635
C	 0.0325560735	-2.6115316703	 0.0209619452	 0.383267
C	 0.0529996412	-4.1017171569	-0.1137994105	-0.451891
N	 0.1554818642	-2.0624807197	 1.1912909664	-0.335117
C	 0.1305933247	-0.6842441576	 1.2642798661	 0.465666
O	 0.2317988561	-0.0236547456	 2.2693831174	-0.365826
H	 0.8578487799	 1.8259458064	 0.3818053903	 0.16503
H	-0.1994647543	 1.7227123659	-1.0678413238	 0.158061
H	-0.8980980969	 1.7834746873	 0.5869562819	 0.165044
H	 0.8667875256	-4.4020030546	-0.7817544774	 0.156181
H	 0.1774815363	-4.5685186771	 0.8622958506	 0.152957
H	-0.8766278451	-4.4442248814	-0.5796871188	 0.156175
