15
gdb 10050	3.45455	1.26024	0.98105	3.1494	67.13	-0.2781	0.0211	0.2993	1135.0843	0.117008	-362.63696	-362.628162	-362.627218	-362.670738	30.908	
O	 0.1152738334	 1.3913484637	 0.0422053855	-0.415489
C	 0.0457983741	-0.0098417877	-0.0340122788	-0.062355
C	-1.4128188384	-0.5293787873	 0.0098641564	-0.175079
C	-1.4299851711	-2.07535032	-0.1122084294	-0.353768
C	-2.7772846811	-2.6276416129	-0.2190172445	 0.271187
N	-3.8442595566	-3.0597678334	-0.3152335295	-0.299123
C	-2.0633592711	-0.0706620777	 1.2334577592	 0.316518
C	-2.5409694104	 0.3310792657	 2.2612597532	-0.457476
H	-0.3136709902	 1.6571819701	 0.8649090302	 0.290428
H	 0.4969376132	-0.292168111	-0.990886915	 0.117181
H	 0.6213870196	-0.4979339742	 0.7691299514	 0.097663
H	-1.9406965932	-0.1049921886	-0.8523974955	 0.138312
H	-0.8605532969	-2.3723886077	-1.0003037699	 0.156461
H	-0.9330548241	-2.5211201701	 0.7561179784	 0.162432
H	-2.9989709972	 0.6712867511	 3.1577379884	 0.213107
