16
gdb 77848	2.24812	1.55094	1.46275	3.4715	75.44	-0.2356	0.0003	0.2359	1011.1658	0.122857	-400.70219	-400.693747	-400.692803	-400.735254	31.265	
C	-0.1224071069	 1.2822278034	-0.3748880143	-0.349984
N	-0.0417395885	-0.0551843496	 0.1759358932	-0.0925
C	-1.0618419794	-1.0974665994	 0.1893402828	-0.029647
C	-1.0084700463	-1.9658026235	-1.0521499055	-0.236399
C	-0.6561568275	-1.4764307659	-2.3547676106	 0.328301
C	-0.3719475749	-1.0806129817	-3.4542113969	-0.422509
C	 0.0151433198	-2.1501621263	 0.0882295884	-0.251333
C	 1.0001689811	-0.9760433511	 0.034412825	 0.413333
O	 2.1827028885	-0.8316168011	-0.0949471218	-0.354687
H	 0.8990236211	 1.6574933923	-0.4736395154	 0.157794
H	-0.5995580084	 1.2893347836	-1.361786632	 0.135968
H	-0.6747843344	 1.9460823221	 0.2976296905	 0.126546
H	-1.9128771778	-1.0520186122	 0.8569195655	 0.120615
H	-1.7563643358	-2.7578924906	-1.0554595981	 0.12656
H	-0.1088760627	-0.7319074049	-4.4222273624	 0.203951
H	 0.1229896421	-3.0881903754	 0.6130697616	 0.12399
