20
gdb 69368	4.14679	1.08719	1.04146	2.9073	78.85	-0.2452	0.0906	0.3358	1235.7594	0.171186	-403.088002	-403.079597	-403.078653	-403.121001	32.306	
C	 0.0153019222	 1.5082611074	-0.0516156549	-0.485568
C	-0.1033444982	 0.0186049937	 0.060864222	 0.353153
C	-1.4192322257	-0.769007829	 0.2274205668	-0.332033
C	-0.6576175541	-1.7960964649	 1.1332220755	-0.039867
C	-0.6309158361	-3.2538969154	 0.7533689483	 0.076861
C	-1.743576363	-3.9275026702	 0.0722723545	-0.185326
O	-0.5606742083	-3.5668601749	-0.6468693613	-0.23471
C	 0.6364343448	-0.9845413387	 0.9019613878	-0.11051
N	 0.9267375016	-0.833080159	-0.5216784834	-0.362997
H	 1.0642221897	 1.8106505783	 0.0029255256	 0.132364
H	-0.3859236729	 1.8612885764	-1.0093839943	 0.120335
H	-0.5388482764	 2.0119873433	 0.7479934216	 0.111951
H	-2.1923996761	-0.2276689616	 0.7782940716	 0.102407
H	-1.8480291421	-1.1526105781	-0.703533766	 0.106294
H	-0.9887692319	-1.715843208	 2.174594176	 0.081987
H	 0.0283591448	-3.873750144	 1.3646728899	 0.096206
H	-1.8936373048	-4.9973119416	 0.2068737298	 0.118556
H	-2.6371985309	-3.3614237225	-0.1856654589	 0.116703
H	 1.4466424629	-0.8523299288	 1.6115083105	 0.086834
H	 0.5518855043	-1.5997976025	-1.0763858411	 0.24736
