15
gdb 12423	3.58725	1.99986	1.342	5.7965	71.73	-0.2162	-0.047	0.1692	877.6563	0.121458	-362.687404	-362.680502	-362.679558	-362.718543	26.123	
O	-0.0101274634	-0.08841811	 0.4849161546	-0.365366
C	-0.0203383607	 1.0960268057	 0.1666899642	 0.326544
C	-1.3442421988	 1.7795449322	 0.0650369719	-0.117829
C	-1.6486330243	 2.8876218695	-0.6117671019	-0.066778
C	-0.6757818553	 3.6881066681	-1.4428519296	-0.231233
N	 0.5268181445	 4.0690594034	-0.7122079663	-0.27872
C	 1.4279366479	 3.1467665264	-0.2772035214	 0.013756
C	 1.2300512443	 1.8344812638	 0.0025319517	-0.208907
H	-2.1295932624	 1.2338461391	 0.5808035771	 0.111157
H	-2.6791798492	 3.2330948446	-0.6157608879	 0.105454
H	-0.3987394282	 3.1109446961	-2.3414842459	 0.125809
H	-1.1529005747	 4.6094682048	-1.7844062879	 0.117078
H	 0.9012439363	 4.9745689857	-0.9402664081	 0.252467
H	 2.4276766279	 3.5536833893	-0.142139919	 0.116402
H	 2.1059845061	 1.2537246012	 0.2686789185	 0.100165
