16
gdb 56466	3.45006	0.94365	0.80987	3.8558	71.02	-0.2728	-0.0657	0.2071	1366.6153	0.120904	-437.921007	-437.911185	-437.910241	-437.957396	33.114	
C	 0.2388549154	 1.426550959	-0.4238080077	-0.410661
C	-0.0303269007	-0.0499058321	-0.0316969529	-0.26533
C	-1.4572023865	-0.2881739326	 0.1832373915	 0.298438
N	-2.5836236567	-0.449068819	 0.37926513	-0.308925
C	 0.5412833849	-0.9915989213	-1.1085557864	 0.376308
O	-0.149836334	-1.6073168256	-1.876667007	-0.277208
C	 2.0694104102	-1.0436609243	-1.1922057085	-0.377215
C	 2.5310900188	-0.3631510268	-2.477727895	 0.161497
O	 3.2357290729	 0.6096695317	-2.4980170223	-0.223772
H	 1.3063594648	 1.5948054036	-0.5853652682	 0.155154
H	-0.2984936218	 1.6787563529	-1.3410225526	 0.157721
H	-0.1033352201	 2.0907957504	 0.3720829295	 0.15401
H	 0.4947407742	-0.2600702313	 0.9087358579	 0.146247
H	 2.5656854384	-0.5749636174	-0.3412612628	 0.133938
H	 2.3436660283	-2.1028602365	-1.2524709447	 0.161639
H	 2.1424506719	-0.8333723508	-3.4041393007	 0.11816
