18
gdb 66211	3.2461	1.25302	1.15851	0.556	72.48	-0.2528	-0.0376	0.2153	1111.7549	0.14692	-439.111733	-439.103088	-439.102144	-439.145329	31.824	
C	-0.0943299482	 1.7264570782	 0.1197289804	-0.428382
C	 0.0022890263	 0.2039291625	 0.0665803599	 0.273206
C	 0.6830403889	-0.3284565777	-1.2106590167	-0.25889
C	 2.1870165716	-0.0408469499	-1.1599755412	-0.175003
N	 2.7961363817	-0.4046919842	 0.1136654403	-0.259371
C	 2.0414250217	-0.5019174773	 1.1207089284	 0.126977
O	 0.7034959108	-0.2871873859	 1.2294724039	-0.272585
C	-1.3825925389	-0.4384774646	 0.1538659278	 0.132896
O	-2.372048394	 0.026351579	-0.3445989787	-0.251639
H	 0.8770095042	 2.1930056956	-0.059694412	 0.129254
H	-0.806003969	 2.0684025324	-0.6351365389	 0.146086
H	-0.4536766072	 2.0442005351	 1.1017170837	 0.13535
H	 0.527265463	-1.412527437	-1.2719068415	 0.115112
H	 0.2082804755	 0.1212253103	-2.0872300557	 0.124053
H	 2.7002974538	-0.5940053327	-1.953599878	 0.118596
H	 2.3876776882	 1.0207199836	-1.3545534032	 0.120156
H	 2.4373625721	-0.7988362207	 2.0901315287	 0.12832
H	-1.3841757505	-1.4081819866	 0.6984885228	 0.095862
