19
gdb 16490	2.75282	2.57283	1.72312	1.7324	74.25	-0.2358	0.087	0.3228	847.3648	0.166201	-327.881289	-327.873874	-327.87293	-327.912404	29.14	
C	 0.0466063941	 1.6800706257	-0.0421647067	-0.431748
C	 0.1127213351	 0.1607058565	 0.039592524	-0.013139
C	 1.1082538784	-0.668074239	-0.8037333205	-0.027725
C	 2.526995683	-0.1786568278	-0.4589608443	-0.243401
C	 2.2146798658	-0.7468361865	 0.9119168495	-0.081782
N	 1.1956658442	-1.7138057192	 0.3574122873	-0.201997
C	 0.7591182555	-0.5583524662	 1.2193900294	 0.329813
C	 0.1849890754	-0.7605401116	 2.5883589542	-0.504664
H	 1.0234746334	 2.1438682053	 0.1217962438	 0.118682
H	-0.3215083834	 2.0056734559	-1.0214841495	 0.116721
H	-0.6384571734	 2.0783147544	 0.7142962838	 0.11842
H	-0.8874914703	-0.2673762531	-0.1014687288	 0.079029
H	 0.8531098244	-1.0047067624	-1.8071811347	 0.076369
H	 3.2809226703	-0.7880640098	-0.9644674734	 0.110694
H	 2.7742161534	 0.8813923329	-0.5742899378	 0.094278
H	 2.9169535491	-1.0581627913	 1.6782053245	 0.088252
H	 0.2147171517	 0.1682714131	 3.1695570873	 0.120319
H	-0.8568915948	-1.0935282117	 2.5312999031	 0.123003
H	 0.750512128	-1.5200215852	 3.1372450486	 0.128875
