21
gdb 82175	2.63104	1.58391	1.24929	1.0489	80.72	-0.2384	0.08	0.3183	1090.8115	0.183145	-387.068025	-387.059789	-387.058845	-387.100086	33.874	
C	 0.0218360209	 1.6304636039	-0.0515489292	-0.385487
C	 0.0156869665	 0.0979535946	-0.0072677457	-0.010997
C	 0.7195149757	-0.5861494107	-1.1928915381	-0.03501
C	 2.2002344154	-0.4030035223	-1.4252904173	-0.308481
C	 1.7029414761	-1.6023171073	-0.6563197375	-0.111476
C	 1.6385696819	-1.5584685073	 0.8673186936	 0.404259
O	 1.6557443229	-2.7901439393	 1.5263096563	-0.476418
C	 2.1004178784	-0.3201658525	 1.594269329	-0.369683
C	 0.6284088089	-0.5180181943	 1.2594831248	-0.088209
H	 1.041247289	 2.0272985513	-0.0147815213	 0.11138
H	-0.4447439025	 1.9980243369	-0.9715342773	 0.110648
H	-0.5290348363	 2.0510953343	 0.7961813607	 0.111485
H	-1.0309243873	-0.2319216733	-0.0361808328	 0.077655
H	 0.1096025956	-0.8048814543	-2.0634086181	 0.081587
H	 2.5552126562	-0.5794827524	-2.4358517671	 0.106562
H	 2.7464949445	 0.3801762035	-0.9129004123	 0.11002
H	 1.8025926552	-2.5921884448	-1.0866205166	 0.083885
H	 2.5735518123	-3.0743467997	 1.5975417031	 0.280638
H	 2.3546019101	-0.4591993827	 2.6402578568	 0.10886
H	 2.6917670469	 0.4370033524	 1.0931314128	 0.108184
H	-0.0290529105	-0.696803796	 2.1035015861	 0.090598
