20
gdb 96470	2.255	1.83433	1.28705	3.8703	74.43	-0.2365	0.0613	0.2978	1040.6264	0.173539	-440.255647	-440.247844	-440.2469	-440.287603	31.428	
O	 0.2586842458	 1.3068410961	-0.2673914	-0.434816
C	 0.0674185723	-0.0586369478	 0.0142917429	 0.113993
C	 0.7987761215	-0.4227676273	 1.3203140906	-0.085878
O	 0.5525583283	 0.4333704479	 2.4134795017	-0.230591
C	-0.7293968728	 0.3899986243	 3.0083313322	-0.063147
C	-1.8185611781	 1.0762931622	 2.1683483699	-0.223724
C	-2.3384684617	 0.1687736357	 1.0693834647	-0.009667
N	-2.3445068479	 0.6563511257	-0.3239311813	-0.35692
C	-1.4215024427	-0.4237540026	 0.0633871465	-0.070985
H	-0.5944777909	 1.6224159054	-0.6064002803	 0.292552
H	 0.5276386009	-0.6775586161	-0.7778322448	 0.059212
H	 0.5646645441	-1.4721901672	 1.5743562811	 0.076098
H	 1.8768172158	-0.3514996938	 1.1449511768	 0.114011
H	-1.0181723542	-0.6518519202	 3.2324486397	 0.078383
H	-0.6168496232	 0.9135322991	 3.9633719239	 0.105668
H	-2.6465383305	 1.3792165661	 2.8204871407	 0.09168
H	-1.3869746196	 1.9818121134	 1.735195033	 0.131512
H	-3.1809991721	-0.4585076377	 1.3568755267	 0.087455
H	-3.1402208342	 0.3034484286	-0.8463007176	 0.238804
H	-1.6499291408	-1.4304847017	-0.2790807465	 0.086361
