19
gdb 88762	3.98676	1.05526	0.93585	0.8884	75.81	-0.2403	0.0628	0.3031	1293.9885	0.158166	-422.957392	-422.948994	-422.94805	-422.991201	31.604	
C	-0.1295537193	 1.4995444486	-0.0886539313	-0.420492
C	-0.0528202342	 0.0056466862	 0.0959122782	 0.082676
O	 1.2345389558	-0.6157968365	 0.0069758373	-0.262779
C	 0.5378393	-0.6814196516	 1.2585444291	 0.032961
C	 1.1867663776	 0.0376306799	 2.4081885242	 0.112278
O	 0.2520589073	 0.3726356815	 3.4780328705	-0.309033
C	 1.12692882	-0.2228306216	 4.4435218056	 0.112043
C	 1.2458938204	-1.692622671	 4.2131557575	-0.298397
C	 2.0796407216	-0.7294529836	 3.3872346877	-0.152364
H	 0.6593916166	 2.0222848305	 0.4546175153	 0.130053
H	-0.0334415687	 1.7508451103	-1.1500754523	 0.1285
H	-1.0982159518	 1.8728052839	 0.2596563925	 0.130753
H	-0.8320647716	-0.5493935343	-0.4310350016	 0.090006
H	 0.1498533188	-1.6712764755	 1.5020302544	 0.088448
H	 1.6846676711	 0.945551222	 2.0526225678	 0.087961
H	 1.2720080672	 0.2945709573	 5.3841548253	 0.105344
H	 1.8175760787	-2.2393484885	 4.9567554093	 0.117394
H	 0.4104341483	-2.2384615146	 3.7848919986	 0.118542
H	 3.1597388722	-0.7576647428	 3.3594918018	 0.106105
