14
gdb 4140	3.34953	1.83328	1.44992	0.5447	61.9	-0.2502	0.0068	0.257	860.4683	0.106886	-415.719865	-415.712848	-415.711903	-415.751065	26.838	
O	-0.1628706487	 1.3756939563	 0.0935516296	-0.397339
N	 0.0065370312	-0.0269818211	 0.0790852351	-0.313685
C	-1.099058195	-0.6203826587	-0.0175678982	 0.530072
C	-2.6114330875	-0.4509538589	-0.0355272719	-0.185154
N	-2.6075506674	-1.5940328578	-1.0482179669	-0.318113
C	-1.6069853229	-2.0465764202	 0.0118584963	-0.176359
C	-2.6089110407	-1.5327132212	 1.1156677476	 0.161345
O	-2.2104662324	-1.2516452031	 2.4137541587	-0.43317
H	 0.749123585	 1.6853679994	 0.1155471971	 0.30953
H	-3.2128303998	 0.4462559437	-0.1582514323	 0.10854
H	-3.4723496004	-2.1343944693	-0.9241393123	 0.217123
H	-1.055878975	-2.9821969348	-0.0559564755	 0.103168
H	-3.5366322644	-2.1101981353	 1.167505603	 0.098638
H	-1.3786475919	-0.760736649	 2.3838081497	 0.295406
