27
gdb 123247	9.82994	0.34058	0.33461	1.3703	94.74	-0.2612	0.0816	0.3427	3286.0203	0.250375	-390.703268	-390.691026	-390.690082	-390.742218	42.719	
C	-0.0466519416	 1.6072910034	 0.0587337434	-0.378957
C	-0.0077877546	 0.0772015667	 0.0180659757	-0.162839
C	 0.6993721452	-0.4762729187	-1.2238350339	-0.158115
C	 0.7431748157	-2.0070969483	-1.2733162786	-0.179034
C	 1.4505218001	-2.5586453581	-2.5156441804	-0.177894
C	 1.4941066632	-4.089891596	-2.5646410314	-0.18439
C	 2.2023585806	-4.6340590732	-3.8086482521	-0.164481
C	 2.2435758643	-6.155366774	-3.8538796832	-0.073531
O	 2.9192255054	-6.5435434644	-5.0416377046	-0.422051
H	 0.9647889871	 2.0289345728	 0.0565140898	 0.11254
H	-0.5734619643	 2.0129501464	-0.8123086865	 0.112538
H	-0.5570604758	 1.9721272725	 0.9556987902	 0.109412
H	 0.4944104075	-0.3010349206	 0.9185341523	 0.092615
H	-1.0321543373	-0.3168976302	 0.0563578054	 0.092614
H	 0.1975228455	-0.0974254164	-2.1254366326	 0.090153
H	 1.7245453478	-0.0816198478	-1.2629668998	 0.090156
H	 1.2451175025	-2.3853068058	-0.3715448945	 0.08997
H	-0.282198966	-2.4011214156	-1.2341445062	 0.089967
H	 0.9488364973	-2.1815490778	-3.4176299651	 0.092697
H	 2.4759382352	-2.165676389	-2.5552095086	 0.092702
H	 1.9958818173	-4.4662112459	-1.6620381365	 0.091554
H	 0.4680907134	-4.482076324	-2.524917798	 0.091537
H	 1.7020934097	-4.273657874	-4.7161126374	 0.102942
H	 3.232099044	-4.2579932137	-3.8518717011	 0.102976
H	 2.7600051956	-6.5400035201	-2.958576182	 0.081529
H	 1.2163361384	-6.5559284588	-3.8314463347	 0.081537
H	 2.9441698537	-7.5042151393	-5.0726279296	 0.283852
