19
gdb 96309	2.10576	1.55603	0.98773	2.7157	71.76	-0.2409	-0.0173	0.2237	1195.9207	0.159382	-460.176937	-460.168249	-460.167305	-460.210962	32.644	
O	-0.2994555478	 1.4506949542	 0.4649055561	-0.42521
C	-0.0726999289	 0.0952650035	 0.0982696696	 0.091593
C	 1.1559839414	-0.4321422741	 0.8560415196	-0.102243
O	 1.4717763482	-1.78398745	 0.6023354806	-0.244124
C	 0.6230003353	-2.7249483188	 1.2419189217	-0.087902
C	-0.5484979111	-3.1567812665	 0.3606167877	-0.298895
C	-1.4266761614	-2.0401596596	-0.2062684524	 0.372571
O	-2.1510249821	-2.2593328244	-1.1489876853	-0.301662
C	-1.3707163714	-0.6583452704	 0.4330265573	-0.300474
H	 0.4436998415	 1.9764100072	 0.1506789893	 0.287894
H	 0.1098015835	 0.0088966113	-0.9841887504	 0.088357
H	 2.0374392626	 0.1456133885	 0.552480527	 0.098444
H	 0.99512866	-0.2562324735	 1.9320587982	 0.099214
H	 1.2415980369	-3.6000208152	 1.4684768414	 0.113599
H	 0.2678586106	-2.3214911661	 2.2018760763	 0.095913
H	-0.1915848483	-3.7401823447	-0.493655802	 0.139685
H	-1.2064031228	-3.8247415715	 0.9345045565	 0.128609
H	-1.4733747936	-0.7266229908	 1.5237658467	 0.110747
H	-2.2099387226	-0.0813193791	 0.0405019621	 0.133885
