19
gdb 91493	2.58683	1.83053	1.47421	0.6507	75.22	-0.2479	0.0263	0.2742	970.036	0.159384	-422.892056	-422.884653	-422.883709	-422.923426	30.344	
C	 0.0652410737	 1.5177248938	 0.1272925822	-0.418007
C	 0.0686328809	-0.0029647085	-0.0166202581	 0.021979
C	 0.9740957442	-0.5517939703	-1.1588785533	-0.238361
C	 1.9109378121	-1.3688666067	-0.2817269008	-0.004615
O	 2.2174416735	-0.4240610755	 0.8507242271	-0.370682
C	 0.767612913	-0.7025074308	 1.1775553717	 0.327533
C	-0.2339559754	-1.3086829023	 2.2021858742	-0.202749
O	-0.3661635742	-2.4402312363	 1.2403487318	-0.321597
C	 1.0206534206	-2.0904998928	 0.8150390603	 0.100693
H	 1.083691366	 1.8893855417	 0.2711370675	 0.1338
H	-0.3495334019	 1.9929427942	-0.7674611039	 0.114208
H	-0.5411368133	 1.8362263685	 0.9827266625	 0.109954
H	-0.9530603965	-0.3763061365	-0.117856155	 0.090064
H	 0.4394774671	-1.165476738	-1.8889867171	 0.108881
H	 1.5133707205	 0.2368535784	-1.6897718787	 0.108327
H	 2.8121951006	-1.8252876288	-0.6924259539	 0.091267
H	 0.1968114395	-1.6511054503	 3.1478269607	 0.123947
H	-1.1890709119	-0.7998367323	 2.355771091	 0.123398
H	 1.7046957916	-2.6055782276	 1.4946802019	 0.101962
