16
gdb 19883	3.31237	2.3333	2.06044	3.1233	62.37	-0.2333	0.0692	0.3025	733.6457	0.132383	-383.70825	-383.702132	-383.701188	-383.73819	25.186	
O	 0.0566070012	 1.4057039339	-0.1482191015	-0.430237
C	-0.0351865409	 0.0309673944	-0.0039306193	 0.134481
C	-0.4102745119	-0.6808188771	 1.2691482257	-0.114687
C	-1.1548814292	 0.0789030438	 2.3748672015	-0.270817
C	-2.5194789992	 0.443714166	 1.8034713914	 0.038439
O	-2.4868823582	 1.3691617478	 0.6998810541	-0.277584
C	-2.6107956157	-0.0520296706	 0.4202895842	 0.037059
C	-1.3350760313	-0.7571522648	 0.0389334843	-0.146975
H	-0.7974978434	 1.7738362947	 0.1262802719	 0.300425
H	 0.7605343463	-0.4517009378	-0.5658039422	 0.103071
H	 0.1905998509	-1.5330264452	 1.5698040704	 0.087471
H	-1.293511569	-0.567259197	 3.2476321986	 0.112114
H	-0.6136604138	 0.9711713075	 2.7104080038	 0.127447
H	-3.3768953988	 0.570544694	 2.4596275534	 0.104322
H	-3.5472163489	-0.3282805148	-0.0542327336	 0.108149
H	-1.4344049181	-1.653941275	-0.5621575426	 0.087322
