17
gdb 94521	3.06974	1.18309	0.99683	3.5014	76.35	-0.2554	-0.07	0.1854	1206.743	0.134489	-421.791622	-421.782869	-421.781925	-421.825668	32.525	
O	 0.5994130125	 0.9287409217	-0.6489165072	-0.432879
C	 0.1469594734	-0.1760720349	 0.0664151719	 0.158964
C	-0.1321433745	-0.0772319721	 1.5921986523	-0.257126
C	-1.336483213	-1.032630688	 1.3952162176	-0.229532
C	-1.3160377128	-0.7056504853	-0.1445335911	-0.184046
C	-2.3193405652	 0.3685673663	-0.4752877135	 0.241109
O	-2.0933383377	 1.5623951227	-0.3589642297	-0.330839
C	-3.6218717337	-0.1018546567	-0.9102150024	 0.254689
C	-4.6937687368	-0.5168522286	-1.2683024631	-0.376063
H	-0.0869428397	 1.6062957207	-0.5646906277	 0.296251
H	 0.8467769924	-0.9922141835	-0.139814048	 0.091871
H	 0.6612493357	-0.3862058583	 2.2757894738	 0.102228
H	-0.4611576446	 0.9309172244	 1.8566237597	 0.119411
H	-1.0835812706	-2.0812039999	 1.5651033221	 0.116233
H	-2.25722987	-0.8034796877	 1.9349066462	 0.117311
H	-1.4575523567	-1.5584069634	-0.8126230038	 0.0942
H	-5.6460530488	-0.8657955375	-1.5874561071	 0.218217
