17
gdb 84816	3.15644	1.16506	0.91359	3.3487	72.73	-0.2649	0.0055	0.2704	1244.538	0.13667	-418.039134	-418.030625	-418.029681	-418.073285	30.589	
C	-0.0365172174	 1.5549845926	-0.1479503936	-0.398742
C	 0.0326005628	 0.0371340524	 0.0054530664	 0.006982
N	 0.6860140504	-0.592958298	-1.1613180345	-0.264165
C	 1.5058642879	-1.4346098423	-0.6934278789	 0.113858
O	 1.6445441182	-1.5701426096	 0.6500255441	-0.221057
C	 0.8246297393	-0.5275211575	 1.2320032759	 0.076418
C	 1.7522477392	 0.4660838238	 1.9524855448	-0.365844
C	 2.4762485615	-0.1563540651	 3.0583919058	 0.272835
N	 3.036846825	-0.6451049777	 3.9421864535	-0.297575
H	 0.958036287	 2.0002516793	-0.240937392	 0.124423
H	-0.5904640167	 1.7950692401	-1.058294168	 0.140544
H	-0.5539292542	 2.0203428505	 0.6971044918	 0.118471
H	-0.9950247133	-0.3449227734	 0.0490965803	 0.103272
H	 2.13892545	-2.0955947518	-1.2745647307	 0.150567
H	 0.1666195676	-1.0023096828	 1.9628155642	 0.117393
H	 2.4750385701	 0.8833399976	 1.2439995639	 0.163339
H	 1.1635278625	 1.3008369521	 2.3469534269	 0.159283
