16
gdb 47615	2.53183	1.91458	1.19934	4.4367	64.5	-0.2377	-0.0016	0.2362	991.1418	0.1265	-475.021198	-475.014016	-475.013072	-475.053233	27.142	
O	 0.0160784197	 0.0333199481	 0.4041288804	-0.33412
C	-0.0106183397	 1.153833077	-0.019729939	 0.451193
O	-1.1883501803	 1.7212676256	-0.3828476643	-0.225413
C	-1.1714348532	 3.0179357527	-0.9975387876	 0.015911
O	-0.3130884292	 3.9060360367	-0.3668109765	-0.232016
C	 1.0349097396	 3.5052524878	-0.5436196562	 0.097632
C	 1.9002655537	 3.87161651	 0.6740841126	-0.191054
N	 1.7197745129	 2.4929316378	 1.1914520616	-0.304084
C	 1.234386066	 2.0255361654	-0.1301733719	-0.163404
H	-0.9131807879	 2.8931500115	-2.0613633763	 0.101781
H	-2.1870487335	 3.4021182318	-0.8987945561	 0.139676
H	 1.394342972	 3.8008769736	-1.5356168109	 0.084716
H	 2.9274914095	 4.1306611261	 0.3858253699	 0.101533
H	 1.4945533996	 4.654337512	 1.3215492405	 0.125268
H	 2.5472614534	 2.0251148297	 1.5398515437	 0.23296
H	 1.9759245475	 1.4951099843	-0.74014806	 0.09942
