22
gdb 93794	2.84199	1.24876	0.90948	3.69	83.87	-0.2313	0.0348	0.2661	1335.9378	0.195487	-404.407918	-404.398551	-404.397607	-404.44197	35.094	
C	-0.0426851346	 1.5670765284	 0.0124963532	-0.404037
C	 0.0159050444	 0.0379681045	-0.0184898269	 0.018236
C	 0.718221185	-0.5001238826	-1.2667991323	-0.2127
C	 0.6583616391	-2.0239664688	-1.3030706033	-0.15271
N	 1.0464300267	-2.6475903786	-0.0423603265	-0.092824
C	 1.268491004	-4.0824671501	-0.0971058714	-0.343316
C	 1.0166461892	-2.0301399311	 1.1844620913	 0.391792
O	 1.2398863924	-2.6299168678	 2.2238473785	-0.389558
C	 0.7409681683	-0.528890802	 1.2064569315	-0.299048
H	 0.9653235586	 1.9978749439	-0.0120754364	 0.11509
H	-0.5955101507	 1.9606634424	-0.8469904744	 0.111996
H	-0.5349303457	 1.9266531739	 0.9220174481	 0.117539
H	-1.0150261588	-0.3458260824	-0.0188538942	 0.077019
H	 0.2597991779	-0.1086155299	-2.1815708999	 0.099751
H	 1.7648804552	-0.1680242536	-1.2643809428	 0.103024
H	-0.3603078953	-2.3484349331	-1.5732686284	 0.102704
H	 1.3210604789	-2.4082179617	-2.0890070791	 0.105987
H	 2.0828790969	-4.3163582478	-0.7933359123	 0.117314
H	 1.5268508413	-4.4261282239	 0.9029508095	 0.168881
H	 0.3662971866	-4.6077349674	-0.4391991733	 0.116604
H	 1.7170587898	-0.0349483788	 1.3139515651	 0.12239
H	 0.1975691408	-0.3308025038	 2.1341498937	 0.125865
