20
gdb 68890	2.3808	1.82787	1.25855	2.0265	79.65	-0.2281	0.0201	0.2482	1061.6087	0.171107	-403.157639	-403.149018	-403.148074	-403.190285	33.445	
C	-0.0543045466	 1.5055115803	-0.0766302876	-0.471332
C	 0.0376395255	-0.0056438932	-0.0110531956	 0.244339
C	 1.3663094793	-0.6893568289	-0.2243409049	-0.363664
C	 0.703541541	-0.7305346266	 1.1462999243	 0.303999
C	 1.329212977	 0.0029519046	 2.3120865286	-0.453029
N	 0.1587494422	-2.0031563132	 1.5490974882	-0.300006
C	-0.7053622404	-2.559049046	 0.8139764449	 0.099465
O	-1.2572861134	-2.0991835777	-0.3364599718	-0.230896
C	-1.2125691898	-0.6807360717	-0.5421142579	-0.130382
H	 0.868637763	 1.983294642	 0.2579509852	 0.124875
H	-0.2369586063	 1.8361130835	-1.1067902028	 0.118977
H	-0.8741943658	 1.8862068524	 0.543519979	 0.121267
H	 1.398260104	-1.6158087803	-0.7884326757	 0.122959
H	 2.241793545	-0.0585029526	-0.3432274588	 0.109405
H	 1.8371627887	 0.9184737215	 2.0004066371	 0.107342
H	 0.5730944005	 0.2659167063	 3.0594951908	 0.118768
H	 2.062087096	-0.6479516755	 2.7984197472	 0.129726
H	-1.0898630251	-3.5492542042	 1.0498376796	 0.122755
H	-2.0946148874	-0.2392891414	-0.0562707571	 0.108459
H	-1.3175778073	-0.5382366593	-1.6230088128	 0.116974
