19
gdb 109114	3.1398	1.23254	0.90491	3.1142	77.87	-0.2384	-0.0058	0.2327	1291.0324	0.159179	-419.273609	-419.264297	-419.263353	-419.307961	33.321	
C	-0.0512577562	 1.5551745746	 0.0771892428	-0.369884
C	 0.0217088843	 0.0322294623	-0.0321797128	-0.29605
C	 0.7253611991	-0.440579184	-1.2685130163	 0.38575
N	 1.2277903802	 0.323352825	-2.1656576678	-0.302211
C	 1.8084465735	-0.554030759	-3.1795075643	-0.30112
C	 1.5542095055	-1.986393433	-2.7116636146	 0.386489
O	 1.8477572234	-3.0447990474	-3.2161827824	-0.375873
N	 0.8721547804	-1.8158680554	-1.5095321962	-0.138919
C	 0.4198846794	-2.9237392162	-0.6962545224	-0.356255
H	 0.9495347643	 1.9925172904	 0.0897778074	 0.137264
H	-0.581168683	 1.9814468521	-0.7775001668	 0.13728
H	-0.5726426493	 1.8441393497	 0.993739581	 0.109733
H	 0.5324842788	-0.392959445	 0.8426616978	 0.123529
H	-0.9865502554	-0.4039216234	-0.0176959579	 0.123536
H	 1.3517261015	-0.3832500617	-4.1608405064	 0.147604
H	 2.8829347403	-0.371823649	-3.2937455168	 0.147599
H	 0.7194626588	-3.83622736	-1.2161828462	 0.170371
H	 0.8814495586	-2.9101083031	 0.2964685406	 0.135581
H	-0.6686755943	-2.9199676069	-0.5791820086	 0.135576
