19
gdb 64732	3.18084	1.16443	1.07371	1.0702	81.56	-0.2408	0.0234	0.2642	1196.9835	0.157962	-385.870023	-385.861182	-385.860238	-385.903447	34.396	
O	 0.1145641068	 1.5358312576	-0.2501319223	-0.482243
C	-0.000334686	 0.1637501748	 0.0815759545	 0.405344
C	 0.7679433158	-0.6949716032	-0.9608333197	-0.390182
C	 2.1749925815	-0.322999168	-1.0475253712	 0.265871
C	 3.319295572	 0.0468125339	-1.0932268865	-0.429277
C	 0.4812465554	-0.1705754363	 1.5277073113	-0.316837
C	-0.5632374851	-1.13111445	 2.0364621066	-0.05829
C	-1.6380167594	-1.1593878737	 1.2490364384	-0.065644
C	-1.5017285131	-0.2237868736	 0.0751126368	-0.303761
H	 1.0538864686	 1.727345543	-0.3659822822	 0.280158
H	 0.668117121	-1.7550764106	-0.6987346114	 0.135609
H	 0.2942794233	-0.5553588381	-1.93965822	 0.134684
H	 4.3380209009	 0.3417938771	-1.1494780945	 0.199499
H	 1.4994504744	-0.5754316025	 1.5455777003	 0.107594
H	 0.4964997101	 0.7525318671	 2.1217907996	 0.113075
H	-0.4429884829	-1.6963077841	 2.9542078398	 0.091918
H	-2.5306330108	-1.7493657934	 1.424658633	 0.092307
H	-2.1042201229	 0.6836797715	 0.2081210534	 0.122135
H	-1.8126070095	-0.6689370316	-0.8774881459	 0.098041
