16
gdb 79727	2.94551	1.59561	1.27586	0.7387	67.63	-0.2373	-0.0465	0.1908	985.5938	0.123964	-437.809007	-437.801497	-437.800553	-437.841107	28.879	
O	-0.0836162846	 1.456229506	-0.0163792696	-0.433599
C	 0.0415923716	 0.0536189885	 0.1090144443	 0.000789
C	-1.3610383422	-0.6077000286	 0.0641879496	 0.001613
C	-1.0790837495	-1.2372808842	-1.329543445	-0.17166
C	-1.2415560029	-2.6035179483	-0.6278883897	-0.02534
C	-0.3643539092	-2.7894739242	 0.5404168386	-0.256861
N	-1.5819269297	-1.9648379341	 0.7087302641	-0.147275
C	 0.3186610157	-0.5946577209	-1.2904202412	 0.350922
O	 1.2146693932	-0.455706615	-2.0710496559	-0.299482
H	 0.725514729	 1.7819798619	-0.4288171117	 0.298443
H	 0.7036111364	-0.2316753427	 0.9379056516	 0.097437
H	-2.1923911654	 0.0665779838	 0.2549318526	 0.109297
H	-1.6927717216	-1.0775213048	-2.2147691778	 0.106232
H	-1.8434373858	-3.4064429405	-1.0401381216	 0.109691
H	-0.4477710261	-3.7340339197	 1.0694994304	 0.131633
H	 0.628101001	-2.3524719573	 0.5859408614	 0.12816
