15
gdb 128372	2.72333	1.287	0.87965	2.7754	71.18	-0.2393	-0.0595	0.1798	1246.59	0.112387	-453.944421	-453.93597	-453.935026	-453.977901	29.77	
C	-0.0249074053	 1.4154584464	-0.0223257013	-0.324115
N	-0.0127857924	-0.0339699887	 0.1164031498	-0.382481
C	-1.1862623518	-0.7286781094	 0.0413620796	 0.393284
N	-2.3508087324	-0.1089631062	 0.0417782551	-0.239831
O	-3.316989199	-1.1441597887	 0.0243140028	-0.165937
C	-2.7041433103	-2.3131160781	-0.0046832163	 0.050203
C	-1.345464436	-2.1634245048	 0.0046548732	-0.030705
C	-0.3440968575	-3.2201927526	 0.0043024711	 0.061936
O	-0.5940346984	-4.4054394814	-0.039582622	-0.277965
H	 0.9903099189	 1.789406534	 0.1226752104	 0.127686
H	-0.3975432514	 1.7447368316	-1.0012123564	 0.133581
H	-0.6726233638	 1.8464222548	 0.7446831652	 0.160293
H	 0.792384186	-0.506267672	-0.2612595131	 0.252102
H	-3.3270175721	-3.1946466885	-0.0247427887	 0.182974
H	 0.7108954657	-2.8666746464	 0.0538016206	 0.058976
