14
gdb 3376	5.32122	2.36423	2.15737	1.5269	62.8	-0.2312	0.0307	0.2619	652.2278	0.113723	-287.354343	-287.348169	-287.347224	-287.384054	23.755	
C	-0.0224689527	-1.2168503795	-0.0182607094	-0.465246
C	 0.0077291302	-0.0153274969	 0.0389134533	 0.358994
C	 0.0289890715	 1.4184109957	 0.0890380233	-0.198018
C	 0.5166644816	 2.1933569378	 1.2618988835	-0.022162
C	 1.6360839924	 1.4698385801	 2.0032974362	-0.256468
C	 2.3752071168	 1.4392721897	 0.6397827252	-0.153204
N	 1.2800202683	 2.2244964739	-0.0426901557	-0.15075
H	-0.0549657279	-2.2770448581	-0.0706503304	 0.201426
H	-0.7747008255	 1.8947855817	-0.4672867312	 0.120672
H	-0.0368496162	 3.0550195354	 1.6235272933	 0.098938
H	 2.1333730674	 2.1000270683	 2.7421899626	 0.112977
H	 1.3720846782	 0.5140404412	 2.4626032895	 0.117146
H	 3.2944983959	 2.0266118193	 0.6225487825	 0.114198
H	 2.55801798	 0.4601377615	 0.1909654773	 0.121496
