19
gdb 99099	2.94717	1.02836	0.89617	3.9184	72.27	-0.264	-0.0293	0.2346	1351.15	0.155949	-460.160025	-460.150213	-460.149269	-460.195559	35.301	
C	 0.1706244157	 1.4346380707	-0.5531275166	-0.458982
C	-0.0945514695	 0.0454807841	-0.0184996375	 0.411147
C	-1.5618720236	-0.3251664134	 0.2092918162	-0.370472
C	-2.1314172322	 0.466596857	 1.3745498685	 0.3656
O	-2.577131867	 1.5891334637	 1.2493922421	-0.328043
C	-2.0820266569	-0.1733700864	 2.7491876194	-0.13753
O	-2.5669063743	 0.6846736228	 3.7366358054	-0.420825
C	 0.8809496151	-1.0326859408	-0.2385362674	-0.229443
O	 0.7787017223	-0.3906169743	 1.0362659887	-0.267816
H	-0.3097757677	 2.1925155171	 0.0714124849	 0.152348
H	 1.2452791046	 1.6286443833	-0.5791145068	 0.129729
H	-0.2306040569	 1.5372084076	-1.5669684624	 0.125788
H	-2.1435140189	-0.0906004839	-0.6871861789	 0.132349
H	-1.6371272761	-1.3970830606	 0.4139086568	 0.114684
H	-2.665090028	-1.1102772492	 2.7065520789	 0.110964
H	-1.0363683597	-0.4705602255	 2.9341693447	 0.143142
H	-2.8330720675	 1.4888474126	 3.2628947977	 0.292502
H	 0.5487906466	-2.0695870743	-0.2698325404	 0.115412
H	 1.7959736841	-0.8236436205	-0.7910325835	 0.119446
