17
gdb 25608	3.82776	1.02258	0.87117	3.0658	75.09	-0.2052	0.0309	0.2361	1304.0611	0.138185	-418.067318	-418.058933	-418.057989	-418.101626	30.576	
O	 0.6772700177	 0.9880922979	-1.4347385658	-0.333964
C	 0.3361074105	 1.4562672091	-0.3660493707	 0.160627
N	 1.0935620419	 1.4644453675	 0.7589678501	-0.254605
C	 2.4867581767	 1.004537999	 0.7500690983	-0.301414
C	 3.4770322229	 2.042072027	 0.3026556478	 0.270589
C	 3.7032492961	 2.4286400531	-1.0021673205	-0.167837
N	 4.6581698305	 3.4096485223	-0.9893404396	-0.228131
C	 5.0568621866	 3.6608470311	 0.2993577773	-0.073782
C	 4.3389895927	 2.8272351864	 1.1243632596	-0.255034
H	-0.6607473542	 1.9122042303	-0.2001339015	 0.072958
H	 0.7734784201	 2.0173624505	 1.5385351051	 0.245739
H	 2.7275918942	 0.6591632679	 1.7596023895	 0.107526
H	 2.5125201858	 0.1382168341	 0.0850901014	 0.143887
H	 3.2416975787	 2.0897318674	-1.9152648303	 0.146329
H	 5.0197920462	 3.8705830696	-1.8057232882	 0.262939
H	 5.8144190308	 4.3969313068	 0.5144486617	 0.117477
H	 4.4249526626	 2.7737785401	 2.1998209558	 0.086698
