19
gdb 71603	2.15864	1.96117	1.64046	1.4639	74.39	-0.2328	0.0794	0.3122	960.4925	0.158334	-422.974359	-422.966352	-422.965408	-423.006309	31.652	
C	 0.013233785	 1.5165580597	-0.0126846704	-0.512407
C	 0.0522768402	 0.011187109	-0.0298623318	 0.250831
C	 0.8483864967	-0.736836598	-1.0902083615	-0.147553
O	 0.5988246284	-2.1157395294	-0.7406226974	-0.279342
C	-0.2308577232	-1.9984460244	 0.3864880885	 0.060584
C	 0.1970642836	-0.814043588	 1.2919542566	-0.024754
O	-1.1972442882	-0.5577871594	 1.6590492284	-0.351153
C	-1.2577862859	-0.8376897039	 0.2141306353	 0.357369
C	-2.5783504248	-0.7893970331	-0.4841910746	-0.535373
H	 1.0163272184	 1.941411445	 0.1039331706	 0.119871
H	-0.4087998535	 1.9153032933	-0.9420889053	 0.118425
H	-0.6050201558	 1.8584172154	 0.8221487669	 0.1409
H	 0.4971953419	-0.5416573801	-2.1115034662	 0.105172
H	 1.9256136231	-0.5316777039	-1.0480039397	 0.106023
H	-0.5184343197	-2.9636591041	 0.7978734739	 0.099063
H	 0.9542319462	-0.7483923639	 2.073304261	 0.087781
H	-2.9994340462	 0.2208491824	-0.4629118162	 0.1328
H	-2.4608249661	-1.0950664562	-1.5288142529	 0.133816
H	-3.2892178001	-1.4698731503	-0.0054511553	 0.137948
