21
gdb 106671	2.53232	1.27237	1.01159	2.398	79.21	-0.2329	0.0662	0.2992	1273.4624	0.180339	-424.191667	-424.181853	-424.180908	-424.226246	36.582	
C	-0.0083539369	 1.5123043767	-0.0501184165	-0.412325
C	 0.1727374694	 0.0108372117	 0.0263245879	 0.115986
O	 1.2542965794	-0.4931606567	-0.8173421342	-0.363012
C	 1.7875144062	-1.2389058395	 0.2913084223	 0.424794
C	 2.3125231511	-2.6008616698	-0.0311834262	-0.172866
O	 3.4546864225	-2.5381651587	-0.8732277471	-0.412681
C	 2.2524496839	-0.2887896283	 1.3516826218	-0.388458
C	 0.7797746819	-0.6633503054	 1.2648863141	 0.168367
C	-0.0081838959	-1.2579846967	 2.3955650482	-0.495765
H	 0.8881314843	 2.0436650983	 0.2794319582	 0.123025
H	-0.2265250219	 1.8144737673	-1.0794474946	 0.12857
H	-0.8497168898	 1.822590563	 0.5790646849	 0.118095
H	-0.7593123015	-0.4972227184	-0.2596972302	 0.077067
H	 2.6267737658	-3.1091290125	 0.8859943896	 0.109837
H	 1.5137626374	-3.2009930925	-0.4945547788	 0.091881
H	 3.1974384605	-2.0273895097	-1.6490834951	 0.294584
H	 2.7725283353	-0.7434665487	 2.1900378714	 0.113336
H	 2.6129202348	 0.6968056501	 1.0718946518	 0.112319
H	-0.3973241318	-0.4774340184	 3.0606443637	 0.124418
H	-0.8619903663	-1.8387955804	 2.0283357626	 0.119715
H	 0.6114168615	-1.9234135815	 3.0049383061	 0.123112
