21
gdb 68870	2.39253	1.83169	1.57434	1.1243	81.5	-0.2357	0.0814	0.3172	988.7898	0.183858	-387.052196	-387.044312	-387.043368	-387.083792	32.897	
C	-0.0484729799	 1.4576374883	 0.0752541186	-0.477976
C	 0.0017965173	-0.0472845181	-0.005801998	 0.308367
C	 1.3244710016	-0.7520229272	-0.2864297633	-0.441615
C	 0.6353938442	-0.92270644	 1.0477485035	 0.384972
O	 1.1790807244	-0.3543034153	 2.2006488303	-0.475291
C	-0.4574639901	-2.0001439962	 1.2248501385	-0.089228
C	-1.7249198994	-1.0777729599	 1.2843261847	-0.22115
C	-1.322719616	-0.8241785559	-0.2144247696	-0.080879
C	-0.912292869	-2.3210865763	-0.2238131761	-0.242277
H	 0.8361201918	 1.8508007425	 0.5842204441	 0.126049
H	-0.0981313084	 1.9112863977	-0.9214280016	 0.112134
H	-0.9279292708	 1.7939244908	 0.6361223355	 0.114971
H	 1.4239625338	-1.5580869596	-1.0039248441	 0.106304
H	 2.1862506806	-0.0913891145	-0.2540213133	 0.106568
H	 1.9123912187	-0.9075668683	 2.4896310157	 0.282347
H	-0.2648638115	-2.7841393366	 1.9590730764	 0.052882
H	-2.6622199121	-1.6301079332	 1.3945274978	 0.086864
H	-1.6928751772	-0.2303791607	 1.9733326871	 0.103684
H	-2.0255344747	-0.4189689223	-0.9440330689	 0.056247
H	-0.1900744729	-2.6847674583	-0.9553546944	 0.091023
H	-1.7874063905	-2.9747646967	-0.2290850532	 0.096005
