19
gdb 120782	3.13337	0.89765	0.78041	2.6575	72.19	-0.2593	0.0703	0.3296	1486.2914	0.157649	-460.105786	-460.096418	-460.095474	-460.141041	33.38	
O	-0.0507263864	 1.2899134812	 0.5249099206	-0.419988
C	-0.1960691918	-0.1192424869	 0.4639829017	-0.053914
C	-1.4245267494	-0.5471516174	-0.347987041	-0.261585
C	-1.512665545	-2.0474204137	-0.4709030826	 0.055704
O	-1.9539699562	-2.7850766287	 0.6852855108	-0.25861
C	-2.7600964247	-2.8344957919	-0.4854396772	 0.018596
C	-4.1533190363	-2.2863026679	-0.4002222946	 0.045781
C	-4.9125611513	-2.3476242658	 0.8580822503	-0.174318
O	-4.3926044129	-1.1103401835	 0.3648847845	-0.223657
H	-0.8137866214	 1.6416886595	 0.9946366771	 0.283155
H	 0.7203773801	-0.4903320359	-0.0093012876	 0.106675
H	-0.2467337515	-0.5658242218	 1.4684046496	 0.104705
H	-2.3335399597	-0.1679792631	 0.1238811039	 0.132673
H	-1.3547175278	-0.107096039	-1.3505790474	 0.106607
H	-0.6529929325	-2.513782385	-0.9597959844	 0.091545
H	-2.7346854944	-3.7933812876	-1.0115074565	 0.092146
H	-4.7048941423	-2.3337108463	-1.3407856652	 0.100914
H	-5.9966802714	-2.4404977988	 0.8340444442	 0.118484
H	-4.4147116553	-2.7314569173	 1.7455041338	 0.135087
