19
gdb 94814	2.38674	1.69213	1.28243	1.6166	70.25	-0.2506	0.0684	0.319	1045.4777	0.158834	-460.144076	-460.135568	-460.134624	-460.177038	32.661	
C	 0.793556988	 1.3007012002	-0.2038887987	-0.413931
C	-0.1179453623	 0.1151075	 0.1017441822	 0.085509
O	-0.147695209	-0.8465555143	-0.9618140222	-0.276213
C	 0.8990275348	-1.7995683432	-0.7817579631	-0.147945
C	 1.3469693392	-1.6602368702	 0.6616703692	 0.336224
C	 2.2139454429	-2.5691359683	 1.4041723696	-0.250782
O	 2.7197970831	-1.3106343606	 0.9192376262	-0.281029
C	 0.3381983767	-0.7209019048	 1.3244495853	 0.045831
O	 0.8801619317	-0.0165713939	 2.408701597	-0.437886
H	 1.8334320338	 0.9860079423	-0.3401689917	 0.126807
H	 0.4630831803	 1.7968325707	-1.1200791321	 0.123258
H	 0.7612557705	 2.0205634063	 0.6187260622	 0.12887
H	-1.148612022	 0.4622409949	 0.2206372127	 0.084639
H	 0.4940141475	-2.7934332571	-1.0031115489	 0.113733
H	 1.7457637037	-1.6104968494	-1.4556395284	 0.115863
H	 2.1131296658	-2.6377377876	 2.4861477904	 0.129695
H	 2.6308932335	-3.4477391008	 0.9146355003	 0.125054
H	-0.5178464126	-1.2991797422	 1.6917803102	 0.097723
H	 1.8311407142	 0.0452360679	 2.2345259697	 0.294578
