17
gdb 126298	5.52686	0.83001	0.76969	6.0179	79.2	-0.2442	-0.0436	0.2006	1480.32	0.136734	-418.047197	-418.038537	-418.037593	-418.081757	30.747	
C	 0.0689790712	 1.5415903027	-0.182380146	-0.368968
C	 0.0029425019	 0.0245862493	 0.0732255162	-0.304652
C	-1.3944623223	-0.5076999055	 0.1444065908	 0.400037
C	-2.2194313043	-0.8221975835	 1.2035411262	-0.386089
C	-3.4403054367	-1.2437895094	 0.6182439766	 0.246924
C	-4.6433599199	-1.6901458324	 1.3381082956	 0.097684
O	-5.6801974429	-2.0464339662	 0.8335796051	-0.261413
N	-3.3802967059	-1.1967406427	-0.7187845613	-0.262295
N	-2.1470503994	-0.7515189729	-0.968833201	-0.23643
H	 1.1084275426	 1.8802295376	-0.2212996191	 0.123043
H	-0.4082004594	 1.8072884709	-1.1309864058	 0.120147
H	-0.4428122971	 2.092252808	 0.6118867213	 0.132729
H	 0.5589971689	-0.5044550092	-0.7111596155	 0.114407
H	 0.5061802221	-0.2111544202	 1.0157807861	 0.126884
H	-1.9773067332	-0.7612390049	 2.2528466783	 0.11486
H	-4.5160517509	-1.6723505073	 2.4451771733	 0.065597
H	-1.8611819447	-0.6403958145	-1.9291820711	 0.277534
