14
gdb 74171	2.73979	1.41513	1.00438	6.6145	72.04	-0.2414	-0.02	0.2214	1120.7215	0.100583	-436.699916	-436.691885	-436.690941	-436.732545	30.354	
N	 0.1029015347	 1.3272324758	 0.0528179018	-0.583098
C	-0.0595788379	-0.0217236217	 0.0128029235	 0.375178
C	-1.1501926595	-0.8049561384	 0.0892321942	-0.411979
C	-0.7389923015	-2.2060756073	 0.033823112	 0.452659
O	-1.3797173934	-3.2166738766	 0.0644668345	-0.351751
O	 0.6545397738	-2.2455703124	-0.0774132252	-0.239489
C	 1.1705623586	-0.9215061202	-0.0534540031	-0.115297
C	 2.0174415397	-0.6345082408	-1.2087999438	 0.313312
C	 2.7184533106	-0.346229712	-2.1408173857	-0.450931
H	 0.9426519871	 1.6931455921	-0.3718821451	 0.267299
H	-0.7148926924	 1.9009787559	-0.0822806439	 0.2693
H	-2.1855400031	-0.5101075141	 0.1620550748	 0.119423
H	 1.7624760344	-0.7962628005	 0.8650990085	 0.141704
H	 3.3409233488	-0.1186211698	-2.9714854625	 0.213669
