19
gdb 66389	3.33135	1.17817	1.08128	1.2419	71.92	-0.2506	-0.0411	0.2095	1164.1806	0.159449	-460.181489	-460.173097	-460.172153	-460.214357	32.365	
O	 0.0334841048	 1.4654866951	 0.025505355	-0.477112
C	 0.01051467	 0.0553394333	 0.0125716114	 0.271571
C	 0.7375657447	-0.4962575565	 1.2632352677	-0.235298
C	-0.0626872387	-0.1472385893	 2.5211709107	-0.081787
O	-1.3845126581	-0.6557813107	 2.4546225948	-0.251821
C	-2.1064130288	-0.1040157064	 1.3662216567	-0.081783
C	-1.4527170011	-0.4498382955	 0.0253671271	-0.235346
C	 0.7072482823	-0.4424648818	-1.2388116013	 0.112453
O	 1.1826883373	 0.3126456259	-2.0523560154	-0.271137
H	 0.4971491153	 1.7258208459	-0.7864815446	 0.292241
H	 0.8368765004	-1.5857912161	 1.1886472106	 0.101678
H	 1.740505504	-0.0605959377	 1.318329275	 0.109197
H	 0.3955909609	-0.5953778147	 3.4071269436	 0.108174
H	-0.0772628725	 0.9453876733	 2.6524799431	 0.111039
H	-3.1156461198	-0.5211294567	 1.4228007482	 0.108174
H	-2.1762743471	 0.9897951778	 1.4661787622	 0.111024
H	-2.0031689917	 0.0184938053	-0.7970985386	 0.109174
H	-1.4749236292	-1.5367974495	-0.1180240026	 0.101692
H	 0.7567529973	-1.5432575617	-1.3670264035	 0.097867
