21
gdb 58051	1.70936	1.56655	0.95984	1.7483	84.49	-0.2527	0.054	0.3067	1313.0251	0.179627	-387.039388	-387.029053	-387.028109	-387.074594	38.459	
C	-0.1370725485	 1.5395576048	 0.0978810556	-0.416058
C	 0.0488316193	 0.0253598994	-0.0051268681	 0.129865
O	 0.7781100624	-0.3289919216	-1.1738134862	-0.429784
C	 0.8199302302	-0.5808860387	 1.1957248462	-0.227254
C	 0.7469145613	-2.0435977994	 1.1596880216	 0.3558
C	 0.6846194466	-3.2437596628	 1.1431471557	-0.456267
C	 2.268863503	-0.1064852572	 1.2696177878	 0.047319
C	 2.6443934973	 1.1030176549	 2.0906735493	-0.277982
C	 3.0478486725	-0.2772969097	 2.5447718449	-0.27479
H	 0.827576233	 2.0518915587	 0.1061288336	 0.137448
H	-0.7138658039	 1.9059562348	-0.7593412347	 0.103413
H	-0.6887604834	 1.8109510317	 1.0041433317	 0.113622
H	-0.9425959916	-0.4536500244	-0.0216033746	 0.073266
H	 0.3063288734	 0.0188813728	-1.9363860168	 0.283551
H	 0.3013374889	-0.2424463886	 2.1040845237	 0.094625
H	 0.6339334958	-4.3040326247	 1.123173754	 0.188507
H	 2.8119710131	-0.2563003416	 0.3436837576	 0.109453
H	 3.4093518415	 1.7688381388	 1.7058144927	 0.111202
H	 1.8608243067	 1.6076279602	 2.6467893863	 0.107636
H	 2.5308983465	-0.701057362	 3.3997263093	 0.114012
H	 4.0912181757	-0.5631584256	 2.4742101104	 0.112414
