19
gdb 100503	1.98457	1.05368	0.90214	2.7944	82.6	-0.2412	-0.0515	0.1897	1460.0997	0.15475	-423.009587	-422.998362	-422.997417	-423.048057	37.368	
C	 0.8713913	 1.0938138528	-1.9926470787	-0.243177
O	 0.1759406879	 0.2204184747	-1.1256853216	-0.23645
C	 1.0025847401	-0.7329686405	-0.496405277	 0.04102
C	 0.1942357942	-1.3758526879	 0.6303522822	-0.414772
C	 1.4960336626	-1.8309416998	-1.4574086822	 0.177471
O	 2.5802638486	-2.355141349	-1.3095621834	-0.291111
C	 0.5761696616	-2.2288846519	-2.5016656924	 0.095566
C	-0.1764284464	-2.583818783	-3.3764594964	 0.044481
C	-1.0796742128	-3.0167322917	-4.4277511695	-0.503003
H	 1.6590680704	 1.6463380211	-1.458550504	 0.11054
H	 1.3311013563	 0.5623106253	-2.8380022585	 0.115709
H	 0.1406208229	 1.8057487458	-2.3830571207	 0.128874
H	 1.908413708	-0.2603116818	-0.0863367003	 0.088215
H	-0.6897875375	-1.8757483056	 0.2241591722	 0.134406
H	 0.8035578136	-2.1084525918	 1.1655436357	 0.135144
H	-0.1352435242	-0.6033608834	 1.3296951198	 0.129679
H	-1.4762879265	-4.0139532222	-4.2070794225	 0.164208
H	-1.9269289509	-2.3319210342	-4.5359803511	 0.16032
H	-0.5597683881	-3.0745685768	-5.3900791415	 0.16288
