18
gdb 99184	5.09657	0.78101	0.72854	1.087	68.61	-0.2517	0.0046	0.2563	1552.0864	0.146783	-476.219467	-476.209865	-476.208921	-476.256117	32.538	
N	-0.264747564	 1.3507081434	-0.078730149	-0.484582
C	 0.2104550939	-0.0199847293	-0.077163226	-0.274438
C	 0.8678167576	-0.4793888755	 1.2206460018	 0.413458
O	 1.0307474709	 0.2068041533	 2.1983991878	-0.359842
O	 1.2524583255	-1.7717981836	 1.1402518913	-0.247871
C	 1.9184435142	-2.2854733093	 2.2941343164	 0.091854
C	 1.042218365	-2.6567612051	 3.5025091753	-0.083645
O	 1.475101459	-4.0333815251	 3.4276415328	-0.272743
C	 2.189931399	-3.7916870146	 2.1980805697	-0.101982
H	-0.9280631293	 1.4742546723	 0.6812498434	 0.236851
H	 0.5079229502	 1.9706692255	 0.1482874956	 0.237397
H	-0.6168871132	-0.7052047235	-0.2959014654	 0.141434
H	 0.9341057357	-0.1666916912	-0.8879341501	 0.141208
H	 2.7754653731	-1.653991451	 2.5306355227	 0.111356
H	 1.3014185401	-2.1880644469	 4.4566454648	 0.119678
H	-0.0335164093	-2.5467451262	 3.3175915274	 0.107184
H	 1.7086406452	-4.2629097669	 1.3320474058	 0.113332
H	 3.2363471364	-4.1098848962	 2.2565020157	 0.111352
