14
gdb 56384	2.08795	1.57219	1.13082	2.9	66.88	-0.2772	-0.0432	0.2339	1080.2635	0.099828	-432.83658	-432.827797	-432.826852	-432.870301	31.197	
O	 0.210072844	 1.4209202337	 0.0013602242	-0.424261
C	 0.1047996627	 0.0136753801	-0.0189866339	 0.032875
C	-1.3197374223	-0.4001320764	 0.0533675701	 0.281501
N	-2.4351252009	-0.6916676774	 0.1167049567	-0.306481
C	 0.7007858327	-0.5451353359	-1.2571555776	 0.287895
N	 1.187272822	-0.9574526504	-2.2199240998	-0.30924
C	 0.8670630041	-0.5370803134	 1.1979236122	 0.011968
C	 2.1194148462	 0.128922276	 1.6226658763	-0.238807
N	 0.8927253429	 0.2281123766	 2.4366242535	-0.318712
H	-0.2770299666	 1.789322136	-0.7454841165	 0.316632
H	 0.745189089	-1.6105837971	 1.3088497181	 0.133797
H	 2.9145934576	-0.4688704834	 2.056239105	 0.136631
H	 2.4392304529	 1.0034675191	 1.0659842311	 0.141228
H	 0.4634429456	 1.1390787726	 2.2888887006	 0.254976
