16
gdb 133107	2.77206	1.49957	1.0512	1.0703	74.32	-0.261	-0.0514	0.2096	1117.9177	0.125031	-442.094993	-442.087202	-442.086258	-442.127961	28.739	
C	 0.0437773496	 1.5362488016	-0.1370834267	-0.384751
C	-0.0061171948	 0.0178223198	 0.1115223216	-0.277602
C	-1.4080770074	-0.5287350794	 0.0833602235	 0.191988
N	-2.0129726399	-0.8486298798	 1.2252221674	-0.288661
C	-3.2648065467	-1.3202222961	 1.1590885851	-0.028778
C	-3.9235844779	-1.4798392597	-0.0499835222	-0.024115
N	-3.3338806889	-1.1628504035	-1.2119133951	-0.28572
C	-2.115557183	-0.7008666227	-1.1199819056	 0.294755
F	-1.5080317038	-0.3735813319	-2.2603923292	-0.065853
H	 1.0761883466	 1.8953850019	-0.1001134765	 0.12174
H	-0.3664548319	 1.7854250995	-1.119737146	 0.13204
H	-0.5316428148	 2.0745101525	 0.6220008545	 0.128293
H	 0.595808396	-0.4917694431	-0.6491235568	 0.118675
H	 0.417941808	-0.2190132197	 1.0905621482	 0.123205
H	-3.7450482603	-1.577318028	 2.0983973525	 0.119585
H	-4.9368664708	-1.8667602514	-0.101174675	 0.1252
