17
gdb 79593	2.2935	1.84698	1.24256	2.6761	72.84	-0.2595	-0.0394	0.2201	1021.4638	0.134345	-421.777366	-421.769325	-421.768381	-421.810051	30.291	
C	 0.3338397293	 1.7461719232	 0.038476978	-0.414333
C	 0.2128148119	 0.2364270318	 0.0379566685	-0.008261
C	 1.3422753294	-0.7433153437	-0.1776290902	-0.112271
C	 2.6052766668	-0.3072994224	 0.5294125422	-0.049222
O	 2.911098566	-1.2080708062	 1.5809026043	-0.275183
C	 1.8716253744	-0.2405617282	 1.8373803526	 0.311291
C	 2.1021368645	 0.709546526	 2.9413170842	 0.064811
O	 1.2219495513	 1.3342114267	 3.4816977143	-0.258076
C	 0.5893273027	-0.6800063826	 1.1757370337	-0.156637
H	 1.2577868802	 2.0928525518	 0.5046595241	 0.123083
H	 0.3094966594	 2.1310331095	-0.9867177906	 0.117811
H	-0.4994362473	 2.1945781018	 0.5882242912	 0.13469
H	-0.6980884274	-0.1095970412	-0.4499889181	 0.09829
H	 1.2969281732	-1.5359280263	-0.9142839869	 0.107596
H	 3.4113043117	 0.3262205573	 0.176066314	 0.119021
H	 3.1705404229	 0.8076959902	 3.2299027692	 0.089111
H	-0.090191309	-1.4172843876	 1.5830939094	 0.108278
