18
gdb 81104	2.55527	1.69583	1.29955	2.0936	76.96	-0.2219	-0.0361	0.1858	1019.9982	0.146458	-401.887703	-401.879625	-401.878681	-401.920462	31.17	
C	-0.5155043451	 1.2966737583	-0.2220120324	-0.340738
N	-0.0936182852	-0.0997111063	-0.1129835036	-0.132099
C	 1.2433581829	-0.4386158091	-0.7758673519	-0.057857
C	 1.9948864626	 0.1409395283	 0.4673260253	-0.270002
C	 0.7291419397	-0.4722184589	 1.137456678	 0.229402
C	 0.2004519094	-0.0751493116	 2.4784895711	 0.024753
O	 0.8014334989	 0.607027542	 3.2697901318	-0.242404
C	 0.9276911326	-1.9703814144	 0.8224256188	-0.114958
C	 1.2829572724	-1.9367902195	-0.4628696342	-0.071697
H	 0.2397992661	 2.0619842857	 0.015152082	 0.106849
H	-0.855106771	 1.4648733639	-1.2494945371	 0.12607
H	-1.3760236985	 1.4581014271	 0.4354481488	 0.12673
H	 1.4045152276	-0.0896086038	-1.7955371131	 0.074287
H	 2.9644393479	-0.2872031773	 0.726218537	 0.107357
H	 2.0338382544	 1.2301371656	 0.5106775466	 0.114964
H	-0.8204279582	-0.4612273952	 2.7015880604	 0.086554
H	 0.7853813674	-2.7946247214	 1.5052370739	 0.118412
H	 1.5228433361	-2.7381488833	-1.1458449614	 0.114377
