18
gdb 13678	5.12547	0.94614	0.91125	4.4017	69.65	-0.2734	0.0112	0.2845	1301.7209	0.152424	-384.950015	-384.941232	-384.940288	-384.984503	30.764	
C	 0.1493041167	 1.4120234799	-0.2999729341	-0.408312
C	 0.1692311627	-0.0611323205	 0.0528089693	 0.000765
C	 1.4648863663	-0.7836500547	 0.3258014998	-0.293882
C	 0.465826403	-0.5837635671	 1.4429430602	-0.002104
C	 0.7725428709	 0.3285828516	 2.6005391803	-0.11602
O	 1.4690883069	-0.3872356064	 3.6373740218	-0.174323
C	 2.8033204044	-0.2455755388	 3.7120936091	 0.177855
O	 3.4780644923	-0.8467229129	 4.4929480038	-0.27667
H	 0.9489500587	 1.9688469625	 0.1971063104	 0.115613
H	 0.2862833144	 1.5463966421	-1.3782623691	 0.125411
H	-0.8033624645	 1.8790924682	-0.0268125918	 0.121816
H	-0.5792648414	-0.6402396315	-0.4819464342	 0.093042
H	 1.6115722645	-1.7832731169	-0.0670855933	 0.12106
H	 2.3691560322	-0.1816574339	 0.3499378908	 0.110226
H	-0.0953830409	-1.4638934189	 1.7437931358	 0.101735
H	 1.3682714927	 1.1939592923	 2.2878357753	 0.107559
H	-0.1417577325	 0.7007291756	 3.0715995275	 0.126605
H	 3.1982485038	 0.4941770095	 2.9869665784	 0.069626
