14
gdb 47299	3.68828	1.34448	1.03714	2.7753	60.07	-0.2932	-0.0204	0.2728	1066.9682	0.101916	-510.989885	-510.982391	-510.981447	-511.02276	27.017	
N	-0.0933677629	 1.3056129739	 0.3668085342	-0.476612
C	-0.0186420424	 0.1137269397	-0.040094223	 0.36724
C	-1.28893776	-0.6715242244	-0.2790344896	-0.15626
O	-1.3291768829	-1.4395864583	-1.4967128694	-0.239736
C	-0.7487266172	-2.6646754968	-1.4873917886	 0.439794
O	-1.2667936573	-3.6382786778	-1.9299040352	-0.325475
O	 0.5002163543	-2.6901379068	-0.9387858533	-0.227487
C	 1.3174008209	-1.5470799226	-1.1278079166	 0.007644
O	 1.1707547841	-0.5572989811	-0.1352827765	-0.229787
H	 0.8385993982	 1.6774597907	 0.5631511991	 0.234351
H	-1.4616759045	-1.3373705654	 0.5745582312	 0.151836
H	-2.1111651172	 0.0375349906	-0.3485511475	 0.168268
H	 2.3428700247	-1.9007679396	-1.0324684694	 0.150412
H	 1.1373503122	-1.1214732022	-2.1202278353	 0.135813
