18
gdb 46778	2.86868	1.70252	1.3457	2.9963	72.11	-0.2505	0.0135	0.2641	983.1469	0.149974	-439.078045	-439.070783	-439.069838	-439.109884	28.681	
N	-0.1618960133	 1.3358544288	 0.0404316676	-0.47262
C	-0.0438550359	 0.078810225	 0.0665334665	 0.373839
C	-1.263940023	-0.8146578976	-0.0686016802	-0.279132
C	-1.1909964914	-2.106619695	 0.7393706222	 0.101937
C	-0.0322288796	-3.0654975869	 0.3882535848	-0.276653
C	 0.6555538253	-2.4008756986	 1.5950239614	 0.09843
C	 1.6088170405	-1.2789141792	 1.2225631071	-0.102255
O	 1.1950835609	-0.5379065676	 0.0673991	-0.268826
O	-0.6092269984	-1.8560570936	 2.0491510802	-0.297517
H	 0.7632548489	 1.7690375948	 0.0890824794	 0.221381
H	-2.1286452285	-0.2194017991	 0.2322740091	 0.140253
H	-1.3974924491	-1.0642711586	-1.1303947838	 0.125367
H	-2.1832106767	-2.5602338865	 0.8231947575	 0.086409
H	-0.2835343599	-4.1115719873	 0.5662954117	 0.112519
H	 0.4437799985	-2.9489645953	-0.5857015833	 0.117956
H	 1.1127999247	-3.048838482	 2.3515498302	 0.083795
H	 1.7203067187	-0.5997599626	 2.0786933513	 0.117873
H	 2.5924400882	-1.6823627487	 0.9623588486	 0.117245
