9
gdb 133449	3.15768	1.47383	1.00483	1.5781	49.1	-0.303	-0.1231	0.1799	986.3921	0.040292	-573.855725	-573.849178	-573.848234	-573.887283	23.431	
F	 0.0925952594	 0.0526388543	-0.2513719775	-0.028535
C	-0.0171022593	 1.3367232463	-0.0212321202	 0.411592
N	-1.2128119897	 1.7867378816	 0.1046413538	-0.137028
O	-1.2990083848	 3.160590092	 0.3476504828	-0.239766
C	-0.2051089473	 3.9758750871	 0.4462023012	 0.368253
O	-0.3186121628	 5.1464050988	 0.6551182371	-0.294752
C	 1.0786177786	 3.2456806365	 0.2677829724	 0.236752
F	 2.1475015196	 3.9825739753	 0.3531605642	 0.004005
N	 1.1808695164	 1.998174458	 0.0459962763	-0.320523
