18
gdb 35481	3.14415	1.5557	1.47682	1.6452	79.67	-0.2387	0.0467	0.2854	968.4128	0.149204	-364.738734	-364.731603	-364.730659	-364.770067	29.225	
C	-0.1466481265	-1.2572788035	-0.2500413763	-0.491322
C	-0.0754409107	-0.0661170071	-0.1042980453	 0.374681
C	-0.0068200521	 1.3806500242	 0.0635069773	-0.155698
C	-0.686821984	 1.9175632655	 1.3698202961	-0.240861
C	 0.5200558046	 2.3072788599	 2.2235695449	-0.042577
C	 1.436523289	 1.0641085133	 2.4641790724	-0.252143
C	 2.241672056	 1.4806630294	 1.2261771262	-0.03234
C	 1.5673623747	 2.8169981344	 1.1897177764	-0.064636
N	 1.3984640445	 1.8826170362	 0.0887660297	-0.091898
H	-0.2048900129	-2.3090459437	-0.3842188863	 0.197514
H	-0.4758656971	 1.8445018658	-0.8113935016	 0.113209
H	-1.3092807967	 2.7882312187	 1.138560301	 0.101553
H	-1.3171344915	 1.161946831	 1.8447342336	 0.115359
H	 0.2940741806	 2.9227754763	 3.0935544926	 0.071535
H	 2.0406693874	 1.1783990509	 3.3679760061	 0.103942
H	 0.9641196272	 0.0778990196	 2.4643487079	 0.109528
H	 3.2642361688	 1.2022208208	 0.9973249051	 0.092689
H	 1.9333332585	 3.8224187183	 1.0188237001	 0.091465
