16
gdb 69186	2.11008	1.71267	1.16823	3.0862	75.36	-0.2649	-0.017	0.2479	1077.8851	0.124032	-396.904268	-396.896006	-396.895062	-396.937212	30.649	
C	-0.0228569988	 1.5356576805	 0.0313278924	-0.49419
C	-0.0305566232	 0.0394749208	-0.0126239816	 0.332591
C	-0.8047720108	-0.8312496988	 0.8840929789	-0.287279
N	 0.6855698763	-0.8221448921	 1.0363064953	-0.167624
C	 1.1650310995	-1.671085181	-0.0251408406	 0.378769
N	 1.8782839135	-2.692895498	 0.0842585066	-0.495681
C	 0.5792995482	-0.7882629279	-1.1619114195	-0.335186
C	-0.2981296132	-1.3901127777	-2.1502763975	 0.281265
N	-1.0035288805	-1.8932298785	-2.9160592361	-0.323296
H	 0.9508667909	 1.9369800819	-0.2673072524	 0.134388
H	-0.7825830015	 1.9436484347	-0.644345159	 0.14294
H	-0.2414966519	 1.8881187079	 1.0426770355	 0.144914
H	-1.3015401927	-0.3632744727	 1.7272954918	 0.143744
H	-1.2843370445	-1.7334599279	 0.5143934403	 0.150612
H	 2.0967246377	-3.1001929536	-0.8258515194	 0.242047
H	 1.388211641	-0.2452919577	-1.6612530647	 0.151986
