18
gdb 65295	2.52307	1.43298	1.17226	3.1856	77.72	-0.2246	0.0232	0.2478	1113.3027	0.148501	-398.097406	-398.088749	-398.087805	-398.130556	32.905	
N	-0.1703931472	 1.4376045379	-0.1425887872	-0.55817
C	-0.0795155462	 0.0051362624	-0.0361435876	 0.066414
C	-0.3361966922	-0.5951662847	 1.3508787562	-0.380132
C	-1.3665510617	-0.7715261898	 0.2996707817	 0.369352
C	-2.7723087165	-0.1985239833	 0.1380911982	-0.310642
C	-3.0106478695	-1.3914170134	-0.8281404963	-0.155709
N	-1.7686702319	-2.0274889191	-0.3099646385	-0.355664
C	 0.8559113891	-0.6839191749	-0.8945894174	 0.238842
N	 1.5695514985	-1.230983747	-1.6255973	-0.359475
H	 0.6925706515	 1.8778444303	 0.1641953182	 0.243643
H	-0.3264299474	 1.7205852006	-1.1053760265	 0.242933
H	 0.2516293024	-1.4604613552	 1.6374841331	 0.138083
H	-0.5156769312	 0.1334349841	 2.1339914157	 0.134008
H	-3.3642476969	-0.2554197557	 1.054121395	 0.120348
H	-2.8375966425	 0.8083080598	-0.2732333012	 0.11991
H	-3.9105259949	-1.9913594664	-0.6670858067	 0.109615
H	-2.9617917411	-1.0975045124	-1.8839850028	 0.10208
H	-1.1312772923	-2.4105023229	-1.0025535637	 0.234563
