15
gdb 18202	4.40188	1.6789	1.39311	5.0854	64.46	-0.2806	0.0323	0.3128	876.2305	0.120743	-362.672407	-362.665775	-362.664831	-362.703341	25.089	
N	-0.0388773702	-1.1527647116	-0.1240373147	-0.32192
C	-0.0254644842	 0.0013018604	-0.0655024527	 0.274374
C	-0.0134389269	 1.4604702645	 0.0020071979	-0.1699
C	-0.6611332336	 2.0303077274	 1.3001987467	-0.230324
C	 0.0077396077	 3.4086116756	 1.5071864416	-0.251953
C	 1.3809675604	 3.244439471	 0.8876415044	 0.051312
O	 2.0364692488	 2.0228538197	 1.2646237747	-0.245009
C	 1.3856839398	 2.0781193567	-0.0020776228	 0.043022
H	-0.5429152401	 1.839045823	-0.8822518934	 0.128197
H	-1.7475724201	 2.0868885037	 1.2186824737	 0.120128
H	-0.4192597118	 1.3693042149	 2.1330272238	 0.146159
H	-0.5298859798	 4.2025026284	 0.9746700323	 0.112212
H	 0.0499820939	 3.6901487801	 2.5631836524	 0.12335
H	 2.0370107334	 4.0968841441	 0.7342252798	 0.105804
H	 2.0228889027	 1.9769906822	-0.8758795237	 0.114548
