15
gdb 128439	4.55498	1.0783	0.87671	2.0776	70.84	-0.2589	-0.0411	0.2177	1257.6568	0.114268	-453.999177	-453.991081	-453.990137	-454.032607	28.439	
C	-0.0686251817	 1.2913304177	-0.0856937177	-0.244872
O	 0.0315695375	-0.1327993378	 0.0432282455	-0.262401
C	 0.6848976251	-0.5664940961	 1.1486815167	 0.397436
O	 1.1596744128	 0.1630709056	 1.9830455766	-0.371367
C	 0.7309852192	-2.0311217166	 1.1835757418	 0.264289
C	 1.2901336868	-2.8901697197	 2.1147586599	-0.283899
C	 1.0202696776	-4.1747253647	 1.6144764166	-0.003331
N	 0.3455503911	-4.1272636809	 0.4607973412	-0.210406
N	 0.1832623547	-2.8238666935	 0.2223294043	-0.253038
H	 0.9251446925	 1.7432043127	-0.133186657	 0.146679
H	-0.6139459476	 1.4676790937	-1.0126606218	 0.135537
H	-0.6083834275	 1.716533364	 0.7639369081	 0.146704
H	 1.8102752638	-2.6045781625	 3.0135646189	 0.131571
H	 1.2842684602	-5.1321649997	 2.0376652095	 0.122042
H	-0.3038084147	-2.512495692	-0.6019465827	 0.285057
