21
gdb 56570	2.09333	1.35635	0.87244	1.5087	83.64	-0.2614	0.0492	0.3106	1355.4587	0.179384	-387.038408	-387.028125	-387.027181	-387.073805	37.852	
C	 0.1084964782	 1.5605920353	-0.0976938281	-0.401281
C	 0.0566277671	 0.0234344886	 0.0284237415	-0.164102
C	 0.922659853	-0.5845615363	-0.9838022672	 0.333499
C	 1.6470675289	-1.0474744146	-1.8247804511	-0.472629
C	 0.4133833364	-0.4812713363	 1.4559546682	 0.00103
C	-0.4848740953	 0.1300772653	 2.5413357478	-0.418794
C	 0.3219732867	-1.9935655044	 1.5242031096	 0.099395
C	 1.4904591956	-2.8697487902	 1.414290803	-0.173025
O	 0.8889814433	-2.6057195386	 2.6856902678	-0.249485
H	 1.0996241607	 1.9365299896	 0.1746340858	 0.126441
H	-0.0945471676	 1.8622901099	-1.1281216056	 0.128122
H	-0.6332666385	 2.0343339545	 0.5492523598	 0.121236
H	-0.9759877774	-0.2946001473	-0.1804840962	 0.103788
H	 2.2776873137	-1.4667194432	-2.5691686157	 0.194394
H	 1.4546855786	-0.2041240465	 1.6632057078	 0.084738
H	-1.5454781501	-0.0455290623	 2.323659283	 0.111981
H	-0.2575281205	-0.3331502092	 3.5050579451	 0.139337
H	-0.3345704025	 1.207595364	 2.6411460142	 0.119082
H	-0.6501097314	-2.4067269791	 1.2418587532	 0.08703
H	 1.3749419129	-3.8870842307	 1.0435079084	 0.113028
H	 2.4731354682	-2.4279257284	 1.2601434185	 0.116214
