21
gdb 122186	3.37244	0.84557	0.82441	1.4957	75.14	-0.2522	0.0639	0.3161	1499.3879	0.180534	-461.32622	-461.316262	-461.315317	-461.362227	35.879	
C	-0.0470342497	 1.6479650177	 0.0831654511	-0.456637
C	-0.0512186123	 0.1267075181	-0.0081896537	 0.367906
C	 1.1246489294	-0.4812817005	-0.8233125919	-0.116676
O	 1.7835479357	-0.9013177075	 0.387703655	-0.272356
C	 0.6202424139	-0.5905963387	 1.1810673608	-0.115526
O	-1.3293072721	-0.4181515594	-0.2626424246	-0.310136
C	-1.9408443254	-0.0700415806	-1.4972117227	-0.096446
C	-3.2500193429	-0.8433185223	-1.5532933409	-0.056229
O	-4.0978710351	-0.5005013676	-0.4759443637	-0.420393
H	 0.9393982824	 1.9968159237	 0.4019372361	 0.133067
H	-0.2685430664	 2.1163932714	-0.8804266827	 0.123401
H	-0.78911221	 1.9879034415	 0.8125778343	 0.126691
H	 0.8237635237	-1.3337847305	-1.4465866696	 0.098416
H	 1.7421774685	 0.2075244614	-1.4108015903	 0.101677
H	 0.8667793634	 0.0172534022	 2.0587110946	 0.102463
H	 0.0724384896	-1.4894402874	 1.4898494052	 0.104831
H	-2.1484661823	 1.0076066471	-1.5444559899	 0.103987
H	-1.2956358428	-0.3397733455	-2.3480698479	 0.09029
H	-3.784165815	-0.5974229776	-2.4769303671	 0.108676
H	-3.0279210497	-1.9222242975	-1.5659164507	 0.09351
H	-3.5593708629	-0.587584478	 0.3192622985	 0.289484
