15
gdb 126848	2.05981	1.82423	1.0419	2.0258	74.32	-0.2815	-0.0577	0.2238	1106.583	0.114008	-413.006704	-412.9986	-412.997656	-413.04052	28.555	
C	 0.1122123133	 1.5279024267	 0.1058853886	-0.389908
C	-0.0082489111	 0.0116638037	-0.0438190185	-0.156163
N	 0.7259354275	-0.4961663162	-1.2015299878	-0.034571
N	 0.0976485769	-0.7356027842	-2.3568578724	-0.121059
N	 0.9830983081	-1.1380793051	-3.231840134	-0.174573
C	 2.2012732736	-1.1591072651	-2.6459908299	-0.165835
C	 2.0617509634	-0.7465472872	-1.33288867	 0.255758
C	 2.9905291187	-0.5876632938	-0.2827598759	 0.236916
N	 3.7403071594	-0.4500949327	 0.5895043289	-0.343448
H	 1.1500091879	 1.8282687724	 0.2732545801	 0.147899
H	-0.2619857939	 2.0340012843	-0.7877131567	 0.147791
H	-0.4793498194	 1.8565143268	 0.9648367795	 0.137441
H	 0.3716406044	-0.5038444617	 0.8423105663	 0.149226
H	-1.044959053	-0.2906500311	-0.2010949696	 0.156675
H	 3.0927510244	-1.4632469969	-3.1693477286	 0.153847
