21
gdb 100432	3.19938	0.80878	0.71654	2.1997	82.57	-0.2375	0.028	0.2655	1650.6979	0.181054	-420.380635	-420.370247	-420.369303	-420.417876	36.26	
C	-0.1120864475	 1.2875170131	-0.0365406497	-0.22737
O	 0.0463860353	-0.130580497	-0.0227055797	-0.240541
C	 0.6040899202	-0.6820211774	-1.1244418824	 0.409007
C	 0.7079679634	-2.181730723	-0.964118116	-0.487852
N	 0.9645628952	 0.0455806902	-2.0961955412	-0.297953
C	 1.5667088756	-0.5344450235	-3.2800429117	-0.19275
C	 1.0671947096	 0.1667178267	-4.5251922284	 0.05299
C	 1.0427559779	-0.551221404	-5.8213228905	-0.250434
N	-0.2168763807	-0.2138206214	-5.131788205	-0.309604
H	 0.8556967058	 1.7869680115	-0.1371665296	 0.131188
H	-0.7464511569	 1.6007495725	-0.8703962844	 0.136675
H	-0.577309785	 1.5407712381	 0.9172845379	 0.122448
H	 0.2617696224	-2.4869098157	-0.0178581644	 0.144764
H	 0.194236691	-2.6993377836	-1.7794697631	 0.140972
H	 1.754572913	-2.5005496679	-0.981344303	 0.144525
H	 2.657954645	-0.4026249864	-3.2204877088	 0.108248
H	 1.3876616574	-1.6174064297	-3.38819269	 0.074915
H	 1.2390062767	 1.2407669724	-4.5243299244	 0.096895
H	 1.2149879293	-0.0151159591	-6.7502987968	 0.11712
H	 1.3702385742	-1.5885236308	-5.8352582411	 0.10453
H	-0.5844319518	-1.039586935	-4.6633096378	 0.222226
