16
gdb 81717	3.23208	1.30638	1.03288	3.5309	78.9	-0.2371	-0.0257	0.2115	1152.7748	0.122167	-400.687233	-400.678629	-400.677685	-400.72039	32.131	
C	-0.0395662577	 1.6311731175	-0.0844723514	-0.41601
C	 0.0393467219	 0.1127100791	-0.0217494646	-0.102187
C	 0.6996344837	-0.6682046235	-1.1731203497	-0.13556
N	 2.0916961498	-0.2347136893	-1.2140757377	-0.359178
C	 1.6960137899	-1.3398223013	-0.2481978648	 0.123732
C	 2.2982928029	-2.6207151268	-0.2844490207	 0.141936
C	 2.8079116112	-3.7109732145	-0.2814062218	-0.403048
C	 1.0784252758	-0.5688197327	 0.92078248	 0.367995
O	 1.2294109724	-0.5924281434	 2.1028902753	-0.292517
H	 0.914825208	 2.0496754049	-0.411587967	 0.145462
H	-0.821055403	 1.9577579235	-0.7780230738	 0.118278
H	-0.2753034151	 2.0365716095	 0.9040363286	 0.136143
H	-0.9345511404	-0.3274722126	 0.2282460389	 0.110257
H	 0.2114020891	-1.1240190594	-2.0249079092	 0.120246
H	 2.5590290799	-0.7097532494	-1.9872391796	 0.248718
H	 3.2554729117	-4.6740783019	-0.2759274226	 0.195733
