14
gdb 33822	2.29257	1.57624	1.12416	6.5373	73.02	-0.3018	-0.0386	0.2632	1066.7965	0.101885	-395.709348	-395.701683	-395.700739	-395.741763	28.305	
N	 0.0305129591	-1.1662964668	 0.0476052636	-0.329753
C	 0.0429396373	-0.0104009011	 0.0318671076	 0.268247
C	 0.0246612112	 1.418699271	-0.0468841504	 0.125092
C	-0.7317431707	 2.2474229364	-1.103210094	-0.289799
C	 0.440346251	 3.2802339682	-1.1087541181	-0.289825
C	 1.1729715752	 2.4303771354	-0.0524749	 0.125119
N	 0.3573877947	 2.2050929293	 1.1301862083	-0.349846
C	 2.5887982905	 2.2324940307	 0.0194270758	 0.268233
N	 3.7371568052	 2.0995520902	 0.0295009289	-0.329744
H	-0.8314522635	 1.7266927496	-2.0559898705	 0.147907
H	-1.7150547478	 2.5991633825	-0.7808679057	 0.127742
H	 0.9643346823	 3.3092016764	-2.0645178304	 0.147902
H	 0.216881352	 4.3014842413	-0.7899201028	 0.127753
H	-0.3062072365	 2.9590996568	 1.3032771377	 0.250973
