16
gdb 10888	3.04917	1.93824	1.53653	2.3914	65.75	-0.2303	-0.0152	0.2151	875.154	0.129129	-383.730241	-383.722363	-383.721419	-383.762235	29.262	
C	-0.0020814642	 1.5382507736	 0.0348602182	-0.502122
C	 0.0302631869	 0.0387806271	-0.0166456011	 0.350733
C	-0.860417589	-0.8473713989	 0.7755323417	-0.318927
C	 0.6458264927	-0.9580850818	 1.0231074618	-0.237224
C	 1.2349154921	-1.740927318	-0.0996953787	 0.401047
O	 1.9965917643	-2.6649153214	-0.1883926235	-0.331667
C	 0.6303827286	-0.7788833128	-1.1668858241	-0.070674
O	-0.2930368185	-1.2710808928	-2.108837725	-0.434015
H	 0.969466174	 1.9693335128	-0.2294600017	 0.124747
H	-0.7452721237	 1.9332206027	-0.6668750489	 0.137976
H	-0.270352358	 1.8929457943	 1.034909201	 0.123817
H	-1.3972730246	-0.372102047	 1.5907792829	 0.123386
H	-1.3958919629	-1.6609886484	 0.2985695823	 0.137177
H	 1.0729848531	-0.7761937195	 2.0017784335	 0.111097
H	 1.4577051637	-0.2326823771	-1.650119119	 0.087892
H	 0.1381277253	-1.9846645029	-2.5922855294	 0.296757
