15
gdb 128256	6.65418	0.90458	0.80361	4.5151	78.44	-0.2162	-0.0041	0.212	1373.0182	0.113341	-412.977021	-412.968431	-412.967486	-413.010384	31.08	
C	 0.0042139224	 1.361783591	 0.2581253899	-0.347364
N	-0.0278631437	-0.0221291414	-0.1764948021	-0.399805
C	-1.1619925499	-0.7736929991	-0.0457281887	 0.451615
N	-1.2173954	-2.0928851563	-0.0704036665	-0.390322
C	-2.5630638801	-2.3410198599	 0.0433489557	 0.18339
N	-3.3330980338	-1.2649227508	 0.1421724119	-0.282785
N	-2.4104636678	-0.2601274142	 0.0871593025	-0.259353
C	-3.1026913198	-3.6542870369	 0.0585117393	 0.286363
C	-3.5501255148	-4.7699657335	 0.0713936949	-0.384994
H	 1.0098920308	 1.7556906284	 0.1030860363	 0.146198
H	-0.6763096455	 1.9685213117	-0.3507649082	 0.134761
H	-0.2636145737	 1.4949952696	 1.3169309023	 0.129134
H	 0.8087584285	-0.5650641941	-0.0278828273	 0.264373
H	-2.7161266416	 0.6965124072	 0.1282316062	 0.277667
H	-3.947037431	-5.7546371617	 0.0810465937	 0.191123
