16
gdb 109145	4.32283	1.02457	0.8443	1.5619	66.98	-0.2512	-0.0434	0.2078	1291.4789	0.123517	-475.043909	-475.035309	-475.034365	-475.078466	30.366	
O	 0.1982524863	 1.4041688855	 0.0189627934	-0.420292
C	 0.0824802526	 0.0111700002	 0.028183952	-0.113531
C	-1.3596811816	-0.4344179001	-0.0464131245	 0.38278
N	-2.2849730034	 0.4287306016	-0.0233424031	-0.338469
C	-3.6684535552	 0.0248490523	-0.1822485419	-0.273464
C	-3.9402764175	-1.4698710387	-0.144781292	 0.336416
O	-5.0405804818	-1.9445457804	-0.2755498497	-0.289908
C	-2.7391956946	-2.3658056852	 0.1303988206	-0.185469
O	-1.4643397915	-1.7789801539	-0.1464602	-0.248681
H	-0.7137023909	 1.7358883987	 0.0351951313	 0.292607
H	 0.6210040695	-0.4368070204	-0.8207924044	 0.120949
H	 0.5239189892	-0.4239869378	 0.9395430751	 0.115025
H	-4.2857664645	 0.4988634869	 0.5919121747	 0.154263
H	-4.0555911275	 0.4097116771	-1.135087829	 0.157858
H	-2.7753823432	-2.6546264821	 1.1907099952	 0.150742
H	-2.8178682959	-3.2746913237	-0.4692861378	 0.159173
