23
gdb 117727	2.58343	0.87707	0.77681	1.6718	79.92	-0.2547	0.0795	0.3342	1621.9877	0.201772	-462.542852	-462.531296	-462.530352	-462.579871	40.767	
C	 0.877382161	 1.3401207926	-0.2817534474	-0.222043
O	 1.0557324424	-0.0511932285	-0.3941269756	-0.240702
C	-0.0749665754	-0.7105343853	-0.9225912436	-0.084688
C	 0.2031817456	-2.2144915987	-0.9825186961	 0.315666
C	 0.427086689	-2.7964326908	 0.4190798114	-0.422798
O	-0.9627398022	-2.7745226067	-1.5812807121	-0.485501
C	 1.4064670693	-2.492182198	-1.8948963453	-0.0844
O	 1.4446843737	-3.8931921982	-2.1091991054	-0.255088
C	 2.4472877359	-4.2947246635	-3.0128588058	-0.228154
H	 0.6863449703	 1.8076897413	-1.2605958082	 0.104897
H	 0.0379066324	 1.5902066106	 0.3858574384	 0.106651
H	 1.7974815772	 1.7565375606	 0.1355839128	 0.126068
H	-0.9644758911	-0.5344396798	-0.2962811552	 0.095589
H	-0.3069032945	-0.3449548976	-1.9358493909	 0.09128
H	-0.4963597075	-2.7165963038	 0.9994439682	 0.114238
H	 0.7079365301	-3.8506384309	 0.3516513591	 0.120077
H	 1.2191981318	-2.2523999791	 0.9406318576	 0.12436
H	-0.6949621736	-3.6436724842	-1.9048841737	 0.285689
H	 1.2719640842	-1.9685895585	-2.8551833651	 0.085794
H	 2.3394411872	-2.1370895511	-1.4365166516	 0.10636
H	 2.3079915222	-3.8366365638	-4.0043149145	 0.108369
H	 3.4508800715	-4.0274788563	-2.6486355839	 0.110025
H	 2.3844685307	-5.3812045701	-3.1115657432	 0.128311
