19
gdb 62230	4.89487	0.57155	0.52521	5.5698	79.82	-0.2724	0.0118	0.2842	2017.1393	0.157635	-419.220342	-419.209834	-419.208889	-419.258264	35.285	
C	-0.0692295456	 1.5811151099	-0.1092168767	-0.39289
C	-0.0164754053	 0.0450854623	 0.023217083	-0.149795
C	 0.7986761023	-0.4486396121	 1.2408381474	-0.195217
C	 2.276904089	-0.0888372952	 1.1523374075	-0.089241
O	 2.9249614741	-0.7094225389	 2.2599613202	-0.181897
C	 4.194235914	-0.3261269025	 2.5069744732	 0.128884
N	 4.8547307314	-0.8891097444	 3.4215343649	-0.432254
C	-1.3779594971	-0.4975564416	 0.0933198788	 0.268766
N	-2.4534009928	-0.9159620132	 0.1550557707	-0.316039
H	 0.9313220348	 1.9875607266	-0.2760772082	 0.127392
H	-0.69851961	 1.8750280641	-0.9523977807	 0.144624
H	-0.4811085945	 2.0327336272	 0.7977749286	 0.142195
H	 0.4375788439	-0.3677376033	-0.8879202166	 0.130148
H	 0.3775017173	-0.0320651942	 2.1616690804	 0.133239
H	 0.7157356096	-1.5366660348	 1.3173138749	 0.142012
H	 2.7081433544	-0.4590801257	 0.2105802141	 0.111625
H	 2.4286799981	 0.9974190373	 1.1903598579	 0.112208
H	 4.5417315183	 0.4882718708	 1.8552900777	 0.08424
H	 5.782041768	-0.4749503923	 3.4879990928	 0.231999
