20
gdb 106209	2.82247	1.74035	1.32539	1.5298	82.76	-0.2118	-0.0046	0.2072	1031.8515	0.172026	-365.933823	-365.926239	-365.925295	-365.965694	30.945	
C	 0.141722916	 1.4925148337	-0.1002700292	-0.376166
C	-0.1017154747	-0.0119194562	 0.0788296835	-0.317951
C	 0.6243329599	-0.5775535862	 1.2813653889	 0.358336
C	 0.1949274896	-0.1136797626	 2.6669961662	-0.144374
C	 1.0815617399	-0.6808922282	 3.4826190686	-0.102098
C	 1.971008722	-1.4404027827	 2.5264735965	-0.033734
C	 1.0893602282	-2.0747295392	 1.4087201584	-0.116951
C	 2.2348040501	-1.7402094593	 0.4488356679	-0.198937
N	 2.2024731264	-0.4804707691	 1.3178247128	-0.178283
H	 1.2097682973	 1.6957045798	-0.2166398236	 0.140675
H	-0.383545985	 1.8717375993	-0.9818196935	 0.109278
H	-0.2073707261	 2.0604893253	 0.7681861424	 0.116804
H	-1.1742408018	-0.207758757	 0.2080758421	 0.100218
H	 0.1927399592	-0.540337677	-0.8338584338	 0.100136
H	-0.6343478975	 0.5443986556	 2.8858032155	 0.107878
H	 1.1869122853	-0.6206644514	 4.5560504005	 0.111406
H	 2.8655045591	-1.9509907747	 2.8853899916	 0.071673
H	 0.4598064716	-2.972837287	 1.4714565967	 0.057602
H	 3.1642220494	-2.3077344229	 0.552009227	 0.095694
H	 2.0132515609	-1.5657843102	-0.6057353985	 0.098793
