17
gdb 53525	2.92605	0.79676	0.72402	5.6346	81.14	-0.242	-0.0192	0.2228	1620.1807	0.133506	-417.994268	-417.983874	-417.98293	-418.03233	34.209	
C	-0.0458361576	 1.4533322862	-0.1441117115	-0.49711
C	-0.0344893779	-0.0008141896	-0.0909004133	 0.050977
C	-0.0260509106	-1.2033266591	-0.0384842159	 0.108618
C	-0.0332646519	-2.6636221457	 0.0106762898	-0.375879
N	-1.3807400935	-3.2494769696	 0.0710843807	-0.046833
C	-2.1555727864	-3.1530332406	-1.0932287583	 0.097319
N	-3.3179188903	-3.6377067319	-1.2249680976	-0.415026
C	-1.812547132	-3.7884672253	 1.2823869879	 0.168015
O	-2.8842357245	-4.2747423707	 1.5148189001	-0.270411
H	 0.5580467563	 1.8835233665	 0.6619550453	 0.155606
H	 0.3544846655	 1.8205752596	-1.095080185	 0.15326
H	-1.0649548974	 1.8404670741	-0.0389245487	 0.159034
H	 0.493979863	-3.0738253813	-0.8590954242	 0.148836
H	 0.5158162622	-3.0153018082	 0.8900399516	 0.151335
H	-1.6110480097	-2.6005953953	-1.8680922487	 0.104069
H	-3.6624384406	-3.4351589624	-2.1628968419	 0.230228
H	-1.0066289144	-3.7130623966	 2.0411537097	 0.077962
