17
gdb 28235	4.66961	1.21597	0.98542	1.5815	77.22	-0.1694	0.0382	0.2076	1174.6308	0.139179	-418.021222	-418.013564	-418.01262	-418.053253	29.573	
N	 0.0187441889	 1.3613267438	-0.0116137049	-0.596973
C	-0.1096626791	-0.0226559245	 0.0212759041	 0.28411
C	-1.2021779302	-0.8386428461	-0.0083416605	-0.381996
C	-0.7117150423	-2.1849998532	-0.029994507	 0.227427
C	 0.6347386341	-2.0710147345	 0.0212878383	 0.361129
N	 1.3627601684	-3.2449656247	 0.2025906088	-0.405955
C	 0.3464273028	-4.303155989	-0.1029664098	-0.164753
C	-1.0629710074	-3.6414885748	 0.0991645887	-0.34784
O	 1.0695250145	-0.8052339339	 0.0496146139	-0.236312
H	 0.588081944	 1.7188647028	 0.7488357933	 0.24271
H	 0.4074930718	 1.7067792805	-0.8842299495	 0.24112
H	-2.2208123109	-0.4836218195	-0.02962961	 0.105615
H	 2.198618249	-3.3245622221	-0.3658866507	 0.235476
H	 0.4482706743	-4.6343271194	-1.1442960679	 0.105353
H	 0.5009013879	-5.1673340756	 0.5470058914	 0.112844
H	-1.4662076153	-3.8818939059	 1.0920920165	 0.111364
H	-1.7802429205	-4.021041474	-0.6358691849	 0.106679
