16
gdb 79619	2.27904	2.00379	1.58913	3.4196	67.84	-0.2487	-0.0131	0.2356	901.6853	0.125569	-437.859822	-437.852671	-437.851727	-437.89133	28.228	
O	 0.1922228571	 1.3597257714	 0.0024665072	-0.407529
C	 0.0214875616	-0.0260806862	-0.0046036221	 0.081827
C	-1.3417274141	-0.644683965	 0.069306253	-0.098376
C	-2.6050298321	 0.1020023136	-0.3307982072	-0.034849
C	-2.6475036358	 1.543076111	-0.7148914337	-0.262747
N	-2.5192057599	 0.4796832931	-1.740321888	-0.125567
C	-1.2137396136	 0.1416021295	-2.217229731	 0.38219
O	-0.7607712208	 0.4988878934	-3.2712423556	-0.326407
C	-0.5202292932	-0.7637066378	-1.2103907056	-0.224965
H	 0.8789900787	 1.577994337	-0.6381564592	 0.302253
H	 0.7917445501	-0.5663009834	 0.5462632498	 0.106082
H	-1.473985722	-1.4800807672	 0.7460086455	 0.102275
H	-3.5315764842	-0.3828016753	-0.0344558724	 0.103908
H	-3.6053045889	 2.0555480765	-0.730962429	 0.125446
H	-1.7806222916	 2.1564898375	-0.515371149	 0.16178
H	-0.0154210315	-1.6509139983	-1.5734971228	 0.114678
