19
gdb 7980	2.81413	1.93341	1.45831	3.1047	72.14	-0.2508	0.0323	0.2831	950.4969	0.166313	-365.099498	-365.091291	-365.090347	-365.132255	30.661	
C	 0.6298577785	 1.348029716	 0.0722048992	-0.396976
C	-0.0763754238	 0.006160891	-0.0826438197	 0.120788
C	 0.4042758028	-0.8508785558	-1.2754313791	-0.261922
C	 1.3456567574	-1.89907294	-0.647194966	-0.06709
C	 2.8447570664	-1.6444834321	-0.8660518045	-0.398302
C	 0.9871690796	-1.852657201	 0.8285842562	 0.399709
N	 1.4025795356	-2.6720260315	 1.6962669808	-0.544199
O	 0.1609336922	-0.8016056432	 1.0911951749	-0.245002
H	 1.7165335943	 1.2218726642	 0.1042694028	 0.127968
H	 0.3848027025	 2.0032722338	-0.7700528067	 0.119504
H	 0.3149092112	 1.8412365339	 0.9958642482	 0.130665
H	-1.1579477233	 0.1704327629	-0.1220474382	 0.09061
H	-0.4489577489	-1.337899322	-1.7545095698	 0.11183
H	 0.9020650771	-0.2406877271	-2.0333280678	 0.10786
H	 1.1159311974	-2.9017477763	-1.0169140254	 0.107446
H	 3.140808606	-0.6497750314	-0.5169346572	 0.119333
H	 3.4314859184	-2.3826832344	-0.3142115639	 0.146071
H	 3.0959175436	-1.7176778784	-1.9288408012	 0.113768
H	 1.0459045831	-2.4276720285	 2.6215713373	 0.217938
