16
gdb 11710	5.55057	1.4222	1.28112	1.877	73.14	-0.2292	0.0198	0.249	973.2417	0.128606	-346.530934	-346.523296	-346.522351	-346.562475	29.371	
C	-0.0896529856	 1.524700767	-0.0212756562	-0.412678
C	 0.125159313	 0.0286659452	 0.0619696613	 0.146348
O	 1.2045944026	-0.4537774685	-0.7982296958	-0.335531
C	 1.7734499478	-1.192581349	 0.2937374876	 0.319064
C	 2.237665799	-0.2417086323	 1.3634175201	-0.338365
C	 0.7752180538	-0.6084024293	 1.2902881477	-0.20097
C	 2.2598904273	-2.5090999836	 0.0759862713	 0.219231
C	 2.6811333953	-3.6203707394	-0.1112929366	-0.418445
H	 0.7979082947	 2.0770934224	 0.2978373081	 0.12282
H	-0.3223134855	 1.8141620879	-1.0508701381	 0.132641
H	-0.9320142903	 1.8197380508	 0.6135011389	 0.120429
H	-0.7954263053	-0.5063405147	-0.204409249	 0.089792
H	 2.773862091	-0.6979550899	 2.1886765172	 0.129645
H	 2.5932102032	 0.7391144255	 1.0620899282	 0.122251
H	 0.2532687853	-1.1012091752	 2.0989020879	 0.110968
H	 3.0509361436	-4.6015613569	-0.2788978726	 0.1928
