15
gdb 42229	4.16704	1.12101	1.01775	3.8463	73.84	-0.2634	-0.0949	0.1686	1150.7788	0.112653	-416.769762	-416.761961	-416.761017	-416.802945	28.44	
O	 0.4549513409	 0.2967184262	-0.9392238878	-0.305049
C	 0.2089345177	 1.3217170823	-0.3438105789	 0.30344
C	 1.2641592	 1.9551956035	 0.4823670129	 0.225061
N	 2.09116162	 2.4528793757	 1.1194502327	-0.295792
C	-1.0629238517	 2.084728539	-0.3400060131	-0.122531
C	-1.8503745334	 2.3840117292	-1.5837915211	-0.030946
C	-1.8284926802	 1.2546786215	-2.6089631836	-0.252694
C	-2.3918630847	 0.3612803069	-1.4755467562	-0.151497
N	-2.4319911975	 1.5252126035	-0.5063089286	-0.143896
H	-1.0743670632	 2.8841207143	 0.3952279905	 0.130722
H	-2.1807541018	 3.4045224698	-1.7534988189	 0.117519
H	-2.5343503305	 1.4212262367	-3.4241391579	 0.122349
H	-0.855341202	 0.9834357552	-3.0210225584	 0.135609
H	-3.4210536009	 0.0398872189	-1.6426633042	 0.123688
H	-1.7866715527	-0.4814766827	-1.1473025675	 0.144017
