17
gdb 81984	2.5418	1.43551	1.32575	4.4821	72.32	-0.2626	0.0294	0.2921	1041.0947	0.136059	-417.975606	-417.967234	-417.96629	-418.00832	31.88	
C	-0.1409380385	 1.5715070961	-0.0124253099	-0.449003
C	-0.0300437723	 0.047626416	-0.0096480516	 0.09367
C	-1.3187908377	-0.5871514876	 0.231691364	 0.236935
N	-2.3362000965	-1.101731068	 0.4273085372	-0.341508
C	 0.7062832237	-0.6297104315	-1.187631859	-0.079504
N	 2.0948959553	-0.1201739359	-1.1486046036	-0.368795
C	 1.7030545629	-1.2694985741	-0.2938273478	-0.075624
C	 1.102496488	-0.6070744878	 0.9510018674	 0.104795
O	 1.9242889241	 0.2638532541	 1.6533738924	-0.421022
H	 0.8164492425	 2.0092748687	-0.2991772229	 0.135739
H	-0.9034976055	 1.9045955399	-0.7221543217	 0.132092
H	-0.4102543523	 1.9363854836	 0.9818242249	 0.144445
H	 0.2620350767	-0.9933095752	-2.1051472607	 0.117311
H	 2.5860190033	-0.4824040663	-1.9634089542	 0.244968
H	 2.2088550755	-2.2233835867	-0.3694841839	 0.109169
H	 0.6576857652	-1.3053762371	 1.6603959447	 0.117828
H	 2.4636032655	 0.7150087716	 0.9885807146	 0.298501
