17
gdb 64032	2.36888	1.61183	1.23911	4.3758	72.11	-0.2745	-0.0036	0.2709	1053.1934	0.135564	-418.042992	-418.034385	-418.033441	-418.076682	31.782	
C	-0.275018209	 1.600232537	 0.0462576532	-0.427012
C	-0.0320143323	 0.0978421682	 0.0188302463	 0.332029
C	-1.2896185861	-0.6940979578	-0.3235217702	-0.425597
O	 0.958062836	-0.1703216639	-1.0306724547	-0.237063
C	 1.9598635028	-0.8524009355	-0.4531956705	 0.121666
N	 1.9408466586	-1.1049079583	 0.7913897621	-0.262148
C	 0.6899704341	-0.5006958813	 1.2918802197	-0.18716
C	 0.9737949816	 0.4768536153	 2.3495621609	 0.30966
N	 1.1712863501	 1.2509041016	 3.1840284401	-0.332833
H	 0.6482386328	 2.1447705984	 0.2560581652	 0.147196
H	-0.6638625402	 1.9292886643	-0.9210197778	 0.129784
H	-1.0040891358	 1.8570731065	 0.819518518	 0.13939
H	-1.6947637858	-0.3720335034	-1.2863605273	 0.136049
H	-1.0709568266	-1.7644715338	-0.3798610789	 0.133725
H	-2.0543524703	-0.5367509831	 0.4436579328	 0.133011
H	 2.7532992767	-1.1538120054	-1.1286437496	 0.153657
H	 0.0685778433	-1.2845866487	 1.7402782906	 0.135647
