16
gdb 27644	3.03791	1.27399	0.9046	4.3465	83.9	-0.1878	0.021	0.2088	1250.9831	0.124216	-396.946	-396.936958	-396.936013	-396.9795	33.452	
C	-0.0137023176	 1.4919969522	 0.0471840948	-0.507868
C	-0.0099106839	 0.0029380513	-0.0259213675	 0.323709
N	-0.0128435636	-0.7170510465	-1.1155295492	-0.348881
C	 0.0152097929	-2.0465352485	-0.7011786089	 0.105013
C	 0.025774789	-3.1597876551	-1.5689547063	 0.195436
C	 0.0400355464	-4.1436722971	-2.266638938	-0.42052
C	 0.0251108405	-2.1055126468	 0.6790788485	 0.217304
N	-0.0341676976	-3.1758943817	 1.5698697081	-0.619068
N	 0.0108956107	-0.7995153022	 1.0991881822	-0.317962
H	 0.879925682	 1.8795408801	 0.5508184653	 0.129912
H	-0.0354917663	 1.8867363133	-0.9691891743	 0.161211
H	-0.8886836837	 1.8747563275	 0.5859858345	 0.129873
H	 0.0468493814	-4.9952868107	-2.8999342695	 0.179344
H	-0.0807674812	-4.0486909419	 1.0558948352	 0.261151
H	 0.7560501666	-3.2150207846	 2.206114656	 0.248641
H	-0.0615821757	-0.4985672892	 2.0570596591	 0.262703
