24
gdb 118681	2.85643	0.87102	0.83305	2.0445	86.19	-0.2139	0.0762	0.2902	1561.1282	0.214353	-405.51795	-405.506457	-405.505513	-405.554705	41.311	
C	 1.6416805599	 0.5844003739	-1.6337611902	-0.423705
C	 0.7817353967	-0.2820192138	-0.7375468854	-0.041887
N	 1.2369603675	-0.8306359193	 0.5452326986	-0.131925
C	 2.5660973139	-0.5277774827	 1.0520932426	-0.316594
C	 0.1642033173	 0.1784294095	 0.5522669912	 0.296561
C	 0.4067203487	 1.5878292348	 1.0674640382	-0.468244
C	-1.1887392061	-0.40525923	 0.9444629481	-0.252827
C	-1.3338185956	-0.6625013919	 2.4476792729	-0.059422
O	-2.5754329715	-1.2671047125	 2.7795505292	-0.42077
H	 2.2098517358	 1.3458384012	-1.0977866268	 0.11923
H	 2.3569025465	-0.0330466396	-2.1888212525	 0.123763
H	 1.0123311052	 1.0969700617	-2.3693278452	 0.123476
H	 0.2018587039	-1.0083854461	-1.310167595	 0.077709
H	 2.9388106032	 0.4874469939	 0.8576432827	 0.097767
H	 2.5730224356	-0.6821563681	 2.1361764583	 0.122077
H	 3.2787982237	-1.233935389	 0.6129313957	 0.121552
H	 1.3342132096	 2.0297094567	 0.7023127638	 0.11824
H	-0.4140161697	 2.2434375086	 0.7566375402	 0.122822
H	 0.4435227695	 1.6083632328	 2.161994387	 0.125528
H	-1.9993444025	 0.2555748717	 0.6123164868	 0.096424
H	-1.314553371	-1.3612614816	 0.4213118151	 0.087143
H	-0.4838179283	-1.2708986316	 2.7925943787	 0.097593
H	-1.3139011131	 0.2774060843	 3.0086774034	 0.105929
H	-2.6044675491	-2.1255398428	 2.3450139027	 0.279561
