22
gdb 15009	3.87012	1.30822	1.05298	1.2696	78.	-0.2613	0.0796	0.3409	1172.3645	0.202521	-350.22911	-350.220774	-350.21983	-350.261641	32.28	
O	-0.0291531717	 1.4450859335	-0.0090309291	-0.425132
C	 0.0300552173	 0.024694115	 0.0092698867	-0.097118
C	-1.3946404927	-0.5210221353	-0.0108082388	 0.056242
C	-2.1489107384	-0.1029472394	-1.2839032232	-0.178518
C	-3.5795396765	-0.6585989594	-1.3061220123	-0.200303
C	-3.5918111785	-2.1846765441	-1.1396392541	-0.175715
C	-2.836623158	-2.6127918099	 0.1265039503	-0.19607
C	-1.4073486459	-2.0501072253	 0.1497459829	-0.198479
H	 0.8689618633	 1.7835272628	-0.0617622521	 0.285368
H	 0.5831510601	-0.3599650686	-0.8644684605	 0.079663
H	 0.5518356913	-0.3358065165	 0.9110442725	 0.079038
H	-1.9156082991	-0.0809127746	 0.8527336065	 0.075446
H	-2.1522125575	 0.9874535724	-1.3648331297	 0.108104
H	-1.5996389993	-0.4814921039	-2.1593724085	 0.081049
H	-4.1575452253	-0.2015115821	-0.4906606736	 0.091344
H	-4.0814681078	-0.3734096591	-2.2378182963	 0.086711
H	-4.621664035	-2.5586619492	-1.1108449436	 0.086506
H	-3.1168866672	-2.6470800251	-2.016488549	 0.088939
H	-3.3792416384	-2.2501187588	 1.0106115148	 0.091801
H	-2.8115716842	-3.7057402392	 0.2050174159	 0.087084
H	-0.827631218	-2.5023866393	-0.6686396945	 0.088061
H	-0.9037657586	-2.3368025338	 1.0812833858	 0.085979
