21
gdb 100891	2.26224	1.17951	0.90325	4.8596	80.37	-0.2463	0.0229	0.2692	1369.3516	0.181013	-420.397052	-420.386486	-420.385542	-420.433155	37.702	
C	-0.2585830991	 1.3475507285	 0.2774859832	-0.395575
C	 0.1924129195	-0.1099149319	 0.1946291402	-0.117809
N	 0.6215705131	-0.5121998704	-1.1547429317	-0.095522
C	 1.9118882405	 0.0813044725	-1.5076570143	-0.342963
C	 0.5500959784	-1.9807804084	-1.3058841499	-0.141088
C	-0.9141770051	-2.376315296	-1.6357730142	-0.051092
O	-1.3848843049	-1.6459656916	-2.7353157945	-0.41052
C	 1.4236380413	-2.4771549795	-2.3777109665	 0.290271
N	 2.1035314182	-2.9185382232	-3.2007862976	-0.328862
H	 0.5593515298	 2.048947502	 0.0930509803	 0.127802
H	-1.0511331456	 1.5478629018	-0.4494571855	 0.127822
H	-0.6482010266	 1.5565923969	 1.2782981297	 0.123985
H	 1.0002942044	-0.2982474414	 0.9256305361	 0.091686
H	-0.6461786197	-0.7470491331	 0.4880710885	 0.110836
H	 2.7273491137	-0.2341768807	-0.8337902189	 0.107086
H	 2.1845195053	-0.185561431	-2.5290508195	 0.158738
H	 1.8313816642	 1.1687511945	-1.4570191955	 0.129149
H	 0.8674593681	-2.4991251251	-0.3832599714	 0.110583
H	-0.9594658762	-3.4404414054	-1.8852388763	 0.128196
H	-1.5318421776	-2.2198140139	-0.7371988705	 0.0954
H	-1.0546898617	-0.7453682447	-2.5957376716	 0.281875
