16
gdb 46428	3.26829	0.99709	0.8989	4.1914	70.21	-0.2493	0.0023	0.2516	1302.7344	0.123577	-437.852702	-437.843982	-437.843038	-437.887136	31.163	
O	 0.5683792242	 0.8705824228	-1.3225836036	-0.324001
C	 0.4126893638	 1.6876145654	-0.4728803381	 0.4899
O	-0.7457219554	 2.3235405053	-0.115334175	-0.236591
C	-0.0812349643	 3.0259490467	 0.9866681791	-0.102401
C	 1.2666580231	 2.3971330898	 0.5921622715	-0.170586
N	 1.8518348005	 1.4895769187	 1.5643760826	-0.300014
C	 3.0081080506	 0.7461293341	 1.0352056784	-0.316478
C	 4.170779232	 1.5805953488	 0.7103333091	 0.303747
C	 5.0989636288	 2.3076826689	 0.4726268348	-0.463378
H	-0.1742064544	 4.1066922095	 0.86873277	 0.128032
H	-0.4766199404	 2.6928483979	 1.947957527	 0.132402
H	 1.9768122618	 3.1097929352	 0.1456488561	 0.111535
H	 2.1530739884	 2.0248041256	 2.3741704445	 0.231007
H	 3.2905239769	-0.0074382086	 1.7784642116	 0.139577
H	 2.6773627454	 0.2027722841	 0.1439833197	 0.174013
H	 5.9295874789	 2.9314619158	 0.2509968323	 0.203234
