15
gdb 73909	2.30111	1.46232	0.89957	6.0342	75.03	-0.2031	-0.0543	0.1488	1202.5679	0.112609	-454.007803	-453.999406	-453.998462	-454.040831	31.191	
N	 0.0955156649	 1.372650414	 0.1422781672	-0.583827
C	 0.0084745947	 0.0142159205	 0.0361876949	 0.242837
C	-1.0940534712	-0.7909460213	 0.0183237374	 0.205937
N	-0.6882685168	-2.1497497136	-0.0099955312	-0.38633
C	 0.6701046995	-2.2999428915	-0.0243852821	 0.421861
O	 1.3027660959	-3.3298745656	-0.0615342612	-0.37383
C	 1.2351010989	-0.8596870471	 0.0141422899	-0.445026
C	-2.4918336484	-0.4602155017	 0.0162746358	 0.059111
O	-3.3840375754	-1.2919774095	-0.0038734176	-0.316159
H	 0.9466470802	 1.805539197	-0.1791467331	 0.267518
H	-0.7334517802	 1.9228965736	-0.0192467387	 0.268133
H	-1.3553170461	-2.904154244	-0.0373908507	 0.274669
H	 1.8702843968	-0.6853844766	-0.8617004519	 0.152817
H	 1.8620068625	-0.7251817187	 0.9020086144	 0.162226
H	-2.7220305254	 0.6280072745	 0.0302453767	 0.050061
