21
gdb 87771	3.60368	1.05864	1.04794	1.2226	83.6	-0.2362	0.0821	0.3183	1272.4713	0.181366	-387.045095	-387.036179	-387.035235	-387.078193	35.198	
C	-0.1395475293	 1.4820179478	-0.0062542893	-0.404753
C	-0.0129768915	-0.0241595513	 0.0579396346	-0.052818
C	 1.3312491072	-0.6875504621	-0.1737011246	-0.371623
C	 0.7079724164	-0.7022078255	 1.1903434999	 0.396113
C	 1.3051282663	-0.0761007906	 2.4737176636	-0.390505
C	 0.8215858985	-1.3209158986	 3.2374143006	 0.40639
O	 1.5613475352	-1.9581650219	 4.2183265357	-0.461789
C	-0.6593487932	-1.5246437815	 3.0815146419	-0.344015
C	 0.2750897418	-1.9365430975	 1.9580294971	-0.20046
H	 0.7507522948	 1.9709982254	 0.4028693563	 0.115352
H	-0.2588365688	 1.8262658586	-1.039833498	 0.115371
H	-1.0044167978	 1.8383883352	 0.5649285532	 0.113244
H	-0.8723172584	-0.5654798598	-0.3328224553	 0.079917
H	 1.3633944254	-1.6161689753	-0.7353984027	 0.108083
H	 2.1914024425	-0.042770713	-0.3320775917	 0.105707
H	 2.3969601786	-0.0279507785	 2.4413845719	 0.109903
H	 0.9091338082	 0.8909693356	 2.8040927047	 0.088405
H	 1.2972918739	-1.602614273	 5.0740979216	 0.283941
H	-1.0510058262	-2.3535327582	 3.6633925926	 0.109469
H	-1.3435991611	-0.6884334859	 2.9536513079	 0.102401
H	 0.3331623775	-2.9598762899	 1.6068983801	 0.091667
