17
gdb 33461	2.84059	1.3206	1.02454	2.8565	73.9	-0.2475	0.0177	0.2652	1162.7537	0.134119	-421.737029	-421.728447	-421.727503	-421.770897	31.423	
C	-0.2156311027	-1.2428011667	 0.4636823619	-0.404419
C	-0.1113232385	-0.0619668271	 0.2654052883	 0.289863
C	-0.0451917965	 1.3578292176	 0.0017576139	 0.175224
C	 0.7829463545	 2.2138599768	 0.8755682956	-0.216733
O	 1.2417386521	 1.8468627855	-0.4221036149	-0.254994
C	-1.241102773	 1.9176299446	-0.7388289073	-0.128588
C	-1.1616764861	 3.3548057703	-1.2995117479	-0.099139
O	-1.4586868096	 2.8955501419	-2.6323562825	-0.27157
C	-1.3989298156	 1.5141917942	-2.2245750182	-0.075284
H	-0.2911244215	-2.2869082214	 0.6447803567	 0.202556
H	 0.5111750621	 3.2615438989	 1.0002273732	 0.120228
H	 1.3188291536	 1.7630520259	 1.7081462604	 0.129254
H	-2.1415368889	 1.7289572935	-0.1498205002	 0.097335
H	-1.9131915751	 4.0614581595	-0.9299085215	 0.100728
H	-0.1654882958	 3.8085203442	-1.2403233307	 0.114901
H	-0.527505936	 0.9978055194	-2.6460874869	 0.114343
H	-2.3091832128	 0.9653751928	-2.4890149298	 0.106296
