20
gdb 108773	2.61195	1.22864	0.86428	6.063	86.94	-0.2077	-0.0115	0.1961	1350.9641	0.172266	-403.200142	-403.191036	-403.190092	-403.23408	33.892	
C	-0.0568827631	 1.4497757524	-0.1315527146	-0.322404
N	 0.0288819261	 0.0121808843	 0.004501701	-0.341749
C	 0.5885898262	-0.6178938242	 1.0721864424	 0.401333
C	 1.172572362	 0.0391876793	 2.1138083196	-0.316698
C	 1.8383125902	-0.6431355801	 3.2124537599	 0.382686
O	 2.367988184	-0.0422391995	 4.1347424123	-0.371261
C	 1.8752475955	-2.1727363324	 3.1542572824	-0.301168
C	 0.6789452612	-2.7586473483	 2.4005103863	-0.220928
C	 0.5597172125	-2.1288417765	 1.0092980819	-0.303142
H	 0.9409033888	 1.90302402	-0.114737333	 0.14454
H	-0.5275055139	 1.6889587908	-1.0868916097	 0.128483
H	-0.6484783447	 1.9050952529	 0.6739428527	 0.136897
H	-0.4963548642	-0.5493772431	-0.6428049187	 0.245009
H	 1.1854287625	 1.1218662414	 2.1608678745	 0.080033
H	 2.8094551556	-2.4611327089	 2.6509443726	 0.112644
H	 1.9413328437	-2.5464384122	 4.1791730246	 0.115915
H	 0.7680590698	-3.8463523174	 2.3105784119	 0.097937
H	-0.2407437492	-2.5588060115	 2.9633525713	 0.109406
H	-0.363575522	-2.4574922699	 0.5150510505	 0.098094
H	 1.3879079889	-2.4693179269	 0.3715170021	 0.124375
