17
gdb 104959	2.5076	1.36073	1.05553	2.1027	75.74	-0.2631	-0.0668	0.1963	1180.318	0.132304	-421.785015	-421.775493	-421.774549	-421.819745	34.207	
C	-0.3284205181	 0.921205089	 0.9255473201	-0.388428
C	 0.331441501	-0.3208934133	 0.3135850638	-0.260833
C	 0.689106046	-0.1327293311	-1.1447913378	 0.305254
C	 0.4329171119	-1.1958348572	-2.1448452548	-0.23314
O	-0.4040731262	-0.0525594709	-2.0719988512	-0.259592
C	 1.8278887447	 0.8179910432	-1.4356874018	 0.187991
O	 2.6048986091	 1.1644125493	-0.5710954604	-0.299209
C	 1.9513757424	 1.2901089379	-2.8046993698	 0.275578
C	 2.1020492753	 1.6976660213	-3.9270225487	-0.410447
H	 0.3548196512	 1.7745138046	 0.9159867296	 0.137802
H	-1.2304755197	 1.1930280211	 0.3693061531	 0.130331
H	-0.6136669203	 0.7309265023	 1.9639862728	 0.11628
H	 1.2463596416	-0.5689952244	 0.8604827317	 0.124266
H	-0.3431908458	-1.1795785258	 0.3917032784	 0.101471
H	 1.0486623966	-1.2669965335	-3.0394181571	 0.129555
H	-0.0035297158	-2.1291173299	-1.7917550633	 0.126559
H	 2.2303803361	 2.0638979673	-4.9168146145	 0.216561
