15
gdb 33762	2.48297	1.6686	1.27904	2.9545	71.02	-0.2699	-0.0175	0.2524	997.0629	0.112536	-416.705267	-416.697912	-416.696968	-416.737115	28.298	
N	 0.0686656894	-1.1038504453	-0.0530421095	-0.339203
C	 0.0365946733	 0.0506916777	-0.0082507926	 0.171719
C	-0.0742408162	 1.486778563	 0.0132941703	 0.220479
C	-0.6808175378	 2.4230802178	 1.0989657082	-0.258376
C	 0.0167954956	 3.2935186558	 0.0233051408	-0.046325
O	 1.1459402405	 2.3184615655	 0.0202059873	-0.321866
C	-0.6457945864	 2.4368692183	-1.0675922513	 0.395107
C	-0.671121256	 2.3902848951	-2.5268960621	-0.332727
N	-1.9202520613	 2.5458651198	-1.7148499624	-0.389035
H	-1.7683575451	 2.4735588396	 1.1759021314	 0.126572
H	-0.1690166966	 2.3805164065	 2.0600743975	 0.129269
H	 0.2659210771	 4.3513087889	 0.0370825636	 0.122347
H	-0.4038752906	 3.2632035507	-3.1144806446	 0.137423
H	-0.4844230128	 1.4349443466	-3.0100828071	 0.137446
H	-2.438880213	 1.6709656399	-1.6805898796	 0.24717
