20
gdb 78255	2.67903	1.32868	1.07377	1.5751	80.18	-0.207	-0.0319	0.175	1201.3167	0.169054	-403.098695	-403.089531	-403.088587	-403.132798	33.967	
C	 0.1605445287	 1.5370114657	 0.1667730232	-0.418231
C	-0.0005658221	 0.120863102	-0.3395660393	-0.040316
C	 0.5953462293	-0.4253515417	-1.6214138176	-0.102331
C	 1.0704975834	-0.9278931188	-0.2653313577	-0.006336
N	 2.3995760519	-0.3027250093	-0.4374759681	-0.110726
C	 3.5406310499	-1.1776492741	-0.2316053938	-0.342701
C	 2.020097631	 0.0780307636	-1.8476730355	-0.071196
C	 2.773101956	-0.6625937142	-2.9333600878	 0.137865
O	 2.2752729318	-1.443911973	-3.7035024312	-0.23889
H	 1.2096360352	 1.8407137276	 0.144941945	 0.135401
H	-0.4245025242	 2.2428979321	-0.4322345428	 0.114039
H	-0.1829412537	 1.6140494863	 1.2039158702	 0.114548
H	-0.9892731619	-0.3046730577	-0.1744985421	 0.090242
H	 0.0179417836	-0.9226635144	-2.388010821	 0.110755
H	 0.9658387108	-1.8962672607	 0.2118513712	 0.091681
H	 3.5178909802	-2.1151695766	-0.816047232	 0.108074
H	 4.4675090488	-0.6463619386	-0.4701523053	 0.124072
H	 3.580343347	-1.4485513737	 0.828648281	 0.127854
H	 2.1603241538	 1.1542053972	-2.0372644289	 0.091915
H	 3.8569819907	-0.4151948416	-2.9924205174	 0.084281
