15
gdb 43351	2.9686	1.81195	1.47334	1.9961	65.91	-0.2439	-0.0678	0.176	889.7101	0.11483	-457.783026	-457.776465	-457.775521	-457.814054	25.706	
O	 0.019209981	-0.0224959927	-0.0780573209	-0.326149
C	-0.0266185293	 1.1827910762	 0.0381162251	 0.384239
C	-1.281376456	 1.9661303081	 0.1150573509	-0.182293
C	-1.2066080472	 3.3025369893	 0.160642608	-0.036197
C	 0.1609662862	 3.9669841899	 0.1888818167	 0.130614
O	 0.6894139147	 4.0276050424	-1.1360809972	-0.261904
C	 1.3668779914	 2.7852291492	-1.3410824277	-0.111432
C	 1.2320185555	 2.0602275383	 0.0280266037	-0.076098
O	 1.0602258553	 3.16731543	 0.9160732888	-0.241403
H	-2.2177310663	 1.4185343243	 0.0950219246	 0.121934
H	-2.0890098576	 3.934920963	 0.1430628247	 0.123505
H	 0.1457959048	 4.9735216999	 0.6103190608	 0.106104
H	 0.9130259832	 2.2254054479	-2.1653304161	 0.126529
H	 2.41602666	 2.9895304026	-1.5754906962	 0.127085
H	 2.1079555243	 1.4831778617	 0.3212035346	 0.115465
