16
gdb 53245	8.1426	0.65038	0.63477	5.1569	80.71	-0.2637	-0.0128	0.2509	1728.4675	0.122699	-400.71337	-400.703968	-400.703024	-400.749858	31.738	
C	 0.3888856132	 1.5444937071	-0.4260005079	-0.498766
C	 0.0941276299	 0.1401935215	-0.1878951634	 0.070454
C	-0.1574878954	-1.0215515945	 0.0066430183	 0.092364
C	-0.4510506608	-2.4192033014	 0.2408999509	-0.038228
C	 0.1775727399	-3.092545818	 1.4923141736	-0.308231
C	-1.2886502427	-3.3586972184	 1.9137066834	 0.005544
O	-1.7974470636	-2.653742933	 0.7682203177	-0.280113
C	-1.7000054042	-4.7666850581	 1.9405508008	 0.273274
N	-2.0102153213	-5.8795591337	 1.9701808945	-0.316362
H	 1.2253322348	 1.8857883647	 0.1933712495	 0.153803
H	 0.6508684458	 1.7245369618	-1.473986183	 0.155937
H	-0.4783860349	 2.1693015533	-0.186654219	 0.159836
H	-0.3107158891	-3.000764326	-0.6781284901	 0.119954
H	 0.7842755034	-3.9755350051	 1.2977826969	 0.140836
H	 0.7070176244	-2.4065933399	 2.1514129889	 0.136282
H	-1.6013434794	-2.8847459005	 2.8509988489	 0.133415
