23
gdb 112837	2.82584	1.13647	0.91926	1.4367	84.92	-0.2521	0.0758	0.3279	1368.2647	0.206763	-388.295026	-388.285848	-388.284904	-388.328817	35.8	
C	-0.0745559834	 1.5520494811	-0.0582071539	-0.383202
C	 0.0019448288	 0.0225287763	-0.0161143628	-0.177822
C	 0.7097544057	-0.5314230163	 1.2271591784	 0.031986
C	 0.0089889129	-0.2178821934	 2.5703282104	-0.287071
C	 0.4421977655	-1.339076557	 3.5456396664	 0.125148
O	-0.5294887439	-1.6447198536	 4.5380817956	-0.438832
C	 0.7009625603	-2.5448032	 2.6640491203	-0.041758
C	-0.3459093361	-2.8765250382	 1.630313136	-0.285905
C	 0.8582238663	-2.0529700647	 1.2436733311	-0.049375
H	 0.9251347173	 1.9996862327	-0.0160306849	 0.110977
H	-0.554413952	 1.8994711479	-0.9784943258	 0.110692
H	-0.6501002684	 1.9495872231	 0.7842751875	 0.11636
H	-1.0095239768	-0.4009724039	-0.0679498448	 0.094838
H	 0.5282358228	-0.3382227343	-0.9094341782	 0.090673
H	 1.7231285758	-0.1044234685	 1.2573319212	 0.066273
H	 0.249437598	 0.7787837463	 2.9512623445	 0.090816
H	-1.0804297506	-0.2643232599	 2.4590781921	 0.106671
H	 1.3923985322	-1.0585042072	 4.0289370694	 0.060894
H	-0.6230539625	-0.8743626376	 5.1074020983	 0.278341
H	 1.3123366973	-3.346180509	 3.0627461614	 0.080779
H	-0.3732800871	-3.901682102	 1.2781023511	 0.107517
H	-1.3233604238	-2.4118346232	 1.6988392202	 0.115826
H	 1.5883358116	-2.5002634588	 0.5769583064	 0.076175
