17
gdb 79037	4.69611	1.35931	1.29232	3.0485	70.21	-0.2504	0.0751	0.3255	983.4685	0.137605	-421.745648	-421.739192	-421.738248	-421.776156	27.108	
O	-0.0509993038	 1.4386623576	-0.0976613942	-0.44191
C	 0.0095478833	 0.0358472402	-0.0015246123	 0.119512
C	 0.0155822819	-0.627784744	 1.3966898831	-0.122479
C	-1.4892456038	-0.1816078584	 1.5827542153	-0.051471
C	-2.1991012609	-1.2901960272	 2.3508559085	 0.009714
O	-2.9927542781	-2.1605593043	 1.518325225	-0.254345
C	-1.6115033213	-2.4884343877	 1.7604554705	 0.017463
C	-0.6482122496	-1.8965875982	 0.7379519118	-0.068996
C	-1.3574731139	-0.6592786801	 0.0953436257	-0.05917
H	 0.8423031116	 1.7856882281	-0.0137444817	 0.28397
H	 0.7099773247	-0.3879068714	-0.7343448846	 0.06279
H	 0.8071874632	-0.6165590968	 2.1495773485	 0.068604
H	-1.7158057371	 0.8608600514	 1.788681597	 0.084677
H	-2.5191761096	-1.1920801294	 3.3828165321	 0.098049
H	-1.4216526559	-3.4198543123	 2.2832897686	 0.098889
H	-0.0487122586	-2.5600350983	 0.1137687504	 0.067103
H	-2.149852732	-0.6828046592	-0.6500405537	 0.087603
