16
gdb 44890	4.30854	1.18248	1.11949	2.6057	77.4	-0.2548	0.0097	0.2645	1098.7223	0.125207	-400.703056	-400.695808	-400.694864	-400.734643	28.913	
N	-0.0747969625	 1.2152354654	 0.0623945519	-0.571973
C	-0.0712782332	-0.0411717979	 0.0105905768	 0.435007
O	 1.0364460211	-0.8740853212	 0.0099037859	-0.259986
C	 0.4192954807	-2.1864398169	-0.063911355	 0.089549
C	-0.6624649922	-1.9934975971	-1.1458257496	-0.257304
C	-1.2224042159	-1.0103148916	-0.0595925012	-0.122878
C	-0.706552544	-2.0623587318	 1.0162381062	-0.209346
C	-1.5448881542	-3.2195376961	 1.2314993933	 0.305997
C	-2.2373405017	-4.1828271481	 1.4288423396	-0.425128
H	 0.8799516223	 1.5778537165	 0.0998303252	 0.226591
H	 1.183262336	-2.9596457361	-0.0602338547	 0.105078
H	-0.3413217985	-1.5721252852	-2.099757052	 0.120011
H	-1.296705385	-2.8682121212	-1.2834074671	 0.134692
H	-2.2290269293	-0.6049689705	-0.0568352036	 0.109797
H	-0.3703475795	-1.6344505115	 1.9649617587	 0.120097
H	-2.8497949241	-5.0322266668	 1.6058322056	 0.199797
