18
gdb 23176	2.39488	1.61632	1.05094	0.5799	82.14	-0.2175	0.009	0.2265	1140.8692	0.147519	-401.912027	-401.903877	-401.902933	-401.944639	31.867	
O	-0.1354523637	 1.2997930205	 0.0054991628	-0.394194
N	 0.0072503395	-0.1011831836	 0.0003971422	-0.244259
C	-1.1268509352	-0.6779709414	 0.0077880364	 0.321286
C	-2.5056233887	-0.0449636958	 0.0206021835	-0.35807
C	-3.418300941	-1.2484949008	 0.0247288528	-0.114796
C	-2.7358717412	-2.3955469289	 0.0160508996	-0.133729
C	-1.2676789343	-2.1677955766	 0.0047434756	 0.267009
C	-0.2927045954	-3.0555657682	-0.7540380616	-0.302622
C	-0.2804198459	-3.059841965	 0.7422614238	-0.30264
H	 0.7804088986	 1.5971903613	-0.0008860253	 0.304906
H	-2.6320751132	 0.6039297566	 0.8974786412	 0.134145
H	-2.6461866034	 0.6085870611	-0.8506542309	 0.134142
H	-4.4979564491	-1.1612082925	 0.0337232321	 0.097426
H	-3.1651994473	-3.3909570081	 0.0168157591	 0.097735
H	-0.7014092178	-3.9158158651	-1.2736779737	 0.113997
H	 0.5118990682	-2.5421767385	-1.2685035222	 0.132832
H	 0.5325576256	-2.5493733372	 1.2463660489	 0.132837
H	-0.6805490756	-3.9230819978	 1.2636164156	 0.113996
