19
gdb 76763	2.20917	1.72726	1.33555	2.323	70.33	-0.2487	0.0471	0.2958	1036.3038	0.158478	-460.12372	-460.115142	-460.114198	-460.15672	33.305	
C	-0.6050340766	 1.3146774698	-0.1045670183	-0.415194
C	-0.0285967906	-0.0904619197	-0.0422350463	-0.064679
C	 1.2169665785	-0.4352166082	-0.9499139099	 0.121955
O	 1.8647417171	 0.6230796726	-1.5989508978	-0.431315
C	 1.9684698984	-0.9661001353	 0.3026198589	-0.032987
O	 2.7663935123	 0.1018397591	 0.8712045819	-0.300979
C	 1.7306659289	 0.4553917331	 1.8245835109	-0.148333
C	 0.7509413195	-0.5637481941	 1.210533913	 0.347815
O	 0.0031882835	-1.3781644613	 2.0519071743	-0.472344
H	 0.1780194228	 2.0769080632	-0.0624536998	 0.11687
H	-1.1427636744	 1.465803343	-1.0455044133	 0.125398
H	-1.3069734552	 1.4903952233	 0.7173702541	 0.118007
H	-0.8168154063	-0.8295407813	-0.2176865904	 0.086962
H	 0.9930014006	-1.2045954028	-1.6939962469	 0.08545
H	 2.475517751	 0.9916640656	-0.9427512266	 0.289788
H	 2.4955989246	-1.9223700441	 0.2780503285	 0.077629
H	 2.0380925177	 0.1975917856	 2.8484883998	 0.096996
H	 1.4689670888	 1.517918976	 1.7885426827	 0.116412
H	 0.5625381894	-1.6808113247	 2.7761793352	 0.282549
