17
gdb 68085	2.61179	1.65292	1.37052	1.8794	73.47	-0.2376	-0.0015	0.2361	999.1739	0.13412	-421.817341	-421.808929	-421.807985	-421.849923	32.263	
C	-0.0256517691	 1.541973634	-0.060532611	-0.504898
C	 0.0175327288	 0.0359689582	 0.0053522941	 0.156679
C	 0.676826153	-0.8632785543	-1.0966568086	-0.311667
C	-0.1642088784	-2.0191874148	-0.4453179984	 0.266611
O	-0.3878268356	-3.2600490278	-1.004948482	-0.483617
C	 0.3637883643	-1.9939375105	 0.9755274799	-0.124614
C	 0.4795694963	-0.6863510564	 1.265020882	-0.131333
C	-1.2533313479	-0.8773546512	-0.2680649431	 0.329209
O	-2.4232952504	-0.7438461306	-0.419268911	-0.313695
H	 0.9799489764	 1.9706719533	 0.0021719697	 0.125441
H	-0.4811278424	 1.8828011402	-0.9951465535	 0.126891
H	-0.6173389718	 1.9511531082	 0.7647252601	 0.131438
H	 0.3594516155	-0.6061396584	-2.114029917	 0.100222
H	 1.76053568	-0.9808653214	-1.0221261702	 0.111119
H	-1.0172903941	-3.1612514973	-1.727453636	 0.29395
H	 0.4730520693	-2.8667143635	 1.6030225801	 0.117835
H	 0.7094466461	-0.2111159776	 2.2087622648	 0.110429
