14
gdb 127871	3.08352	1.36064	0.94957	1.5899	71.92	-0.2492	-0.0583	0.1909	1159.7505	0.100441	-469.990636	-469.982648	-469.981704	-470.023838	28.641	
C	 0.0068570126	 1.420343128	 0.096460808	-0.337992
N	 0.1183803131	-0.0241230954	 0.041931835	-0.310528
C	 0.6287487687	-0.5738119073	-0.9898868491	 0.349791
C	 0.7222413619	-2.0380264851	-1.001948537	 0.034886
N	 1.2019956684	-2.7578213318	-1.9416067386	-0.0876
O	 1.6811190765	-2.0180564324	-3.068107585	-0.286637
C	 1.5866922004	-0.6688226641	-3.0437835513	 0.527151
O	 2.0746319845	-0.1470766251	-4.1655285493	-0.377122
N	 1.1158047826	 0.0770844422	-2.1271576163	-0.397992
H	 0.5445379669	 1.7785085971	 0.9826128047	 0.130456
H	 0.3856466828	 1.9373086689	-0.7906603139	 0.13888
H	-1.0469614804	 1.6833439702	 0.2478244021	 0.130444
H	 0.35598522	-2.5905055236	-0.1420199806	 0.163927
H	 2.3813151719	-0.8679863915	-4.7328324487	 0.322335
