19
gdb 108437	2.26638	1.72203	1.23513	3.6303	77.6	-0.233	0.021	0.254	1086.1069	0.159516	-419.179427	-419.17086	-419.169916	-419.212529	32.503	
C	-0.1190315002	 1.5798186409	 0.0702099138	-0.38814
C	-0.0210544379	 0.0477239011	 0.1027166233	-0.28494
C	-1.3665037013	-0.59848849	-0.0851200129	 0.385856
O	-2.3223404532	-0.2919127111	 0.969170457	-0.319797
C	-2.6703869918	-1.6816568667	 1.1434997533	-0.096429
C	-1.7531254409	-2.1139492233	-0.0140256954	-0.108841
N	-2.3102878507	-1.9751220261	-1.360643735	-0.340698
C	-2.0797449294	-0.5952165308	-1.447491452	 0.351041
N	-2.3413502085	 0.326294722	-2.2710866874	-0.552739
H	 0.8665219504	 2.0310482149	 0.2165359248	 0.106094
H	-0.5237551501	 1.9194643447	-0.8863350443	 0.156018
H	-0.7807323663	 1.9359213073	 0.8644970907	 0.134278
H	 0.6475583961	-0.3081778122	-0.6904254586	 0.1083
H	 0.4001801138	-0.2864592322	 1.0584903684	 0.099358
H	-2.354222335	-2.047950394	 2.1283864655	 0.108342
H	-3.7421577962	-1.871639327	 1.0105289292	 0.10132
H	-1.0629251566	-2.9455695943	 0.1264234342	 0.095437
H	-3.1161754737	-2.4670712988	-1.7245724665	 0.236544
H	-2.9009367186	-0.0091128045	-3.0579060981	 0.208994
