19
gdb 43379	2.58468	1.75864	1.26266	3.8131	81.63	-0.2346	-0.046	0.1887	1030.8245	0.162247	-385.914265	-385.90702	-385.906076	-385.945808	29.292	
O	-0.0162610958	 0.3264638116	-1.106861126	-0.341455
C	 0.0122238782	 1.1964488379	-0.2554610187	 0.378584
C	-1.2335104795	 1.5245580909	 0.484794489	-0.151289
C	-1.4342371157	 2.4315591236	 1.4507333257	-0.037763
C	-0.4835233658	 3.401518726	 2.0957508943	-0.270463
C	 0.9684143166	 3.4124207224	 1.6232945057	-0.006779
C	 1.1318539772	 3.4879571295	 0.0797968254	-0.245811
C	 1.29801242	 1.936186047	 0.0500581151	-0.107694
C	 1.6290406597	 2.006746298	 1.5738818347	-0.245798
H	-2.0704265438	 0.9133721379	 0.1576891759	 0.103348
H	-2.4456625698	 2.4962384665	 1.8515873105	 0.10494
H	-0.9110114837	 4.4091221963	 1.9769175308	 0.11832
H	-0.5103109163	 3.2158424022	 3.180621072	 0.118326
H	 1.5117359973	 4.1705911224	 2.19412183	 0.069721
H	 0.3129006641	 3.9212316547	-0.5000256563	 0.106433
H	 2.0642409319	 3.9812774985	-0.2047181957	 0.107766
H	 2.0684519383	 1.5320939978	-0.6068978784	 0.085371
H	 2.7087067523	 2.0612780458	 1.7320149786	 0.107786
H	 1.2175744549	 1.225971671	 2.2186239676	 0.106458
