23
gdb 110541	3.2616	1.29744	1.24884	0.0625	87.44	-0.258	0.087	0.345	1160.8435	0.209348	-351.17626	-351.168518	-351.167574	-351.208452	32.022	
C	-0.153634813	 1.5952524648	 0.0143362107	-0.384178
C	-0.0654540515	 0.0653589514	 0.0174247408	-0.20404
C	 0.7697508855	-0.5010827152	 1.1705174641	 0.05383
C	 0.8932691035	-2.0252414564	 1.1908370476	-0.06917
C	 2.1717828356	-2.3905280271	 0.455430439	-0.051493
C	 2.8181196655	-1.0857926292	 0.0021860005	-0.224075
C	 2.2995747562	-0.2085473222	 1.1667402702	-0.058491
C	 2.7649990472	-1.0283677478	 2.3957336363	-0.224486
C	 2.1481993903	-2.3594306344	 1.9732112434	-0.068745
H	 0.8299355396	 2.0556840359	-0.1252539856	 0.116445
H	-0.8026229676	 1.9533534063	-0.7910422636	 0.109249
H	-0.5610145246	 1.9695684558	 0.9604774092	 0.111987
H	-1.0778332974	-0.3531336191	 0.0922948101	 0.090799
H	 0.3280894225	-0.2860475627	-0.9434299091	 0.097727
H	 0.336584892	-0.1388024716	 2.1138566166	 0.058857
H	 0.0278422521	-2.6760737472	 1.1894440017	 0.073283
H	 2.2686898579	-3.31773592	-0.0938717681	 0.075544
H	 3.9123228786	-1.1379089794	-0.0164174968	 0.090151
H	 2.4786648324	-0.7505701368	-0.9823117959	 0.093211
H	 2.594120947	 0.8402926031	 1.1525838629	 0.058436
H	 3.8559364543	-1.0705371788	 2.4868015254	 0.08846
H	 2.3538414835	-0.6451215463	 3.3358636981	 0.090147
H	 2.2321879703	-3.261124923	 2.5656999426	 0.076552
