13
gdb 12156	3.5771	1.57417	1.21956	3.9422	59.21	-0.2974	-0.0194	0.278	948.23	0.094979	-398.635094	-398.627659	-398.626715	-398.667217	26.012	
C	-0.196453373	 1.4625709373	-0.057530622	-0.416991
C	 0.028837908	-0.0390567202	 0.0485612647	-0.206883
C	 0.9117846035	-0.7419251704	-1.0213581841	-0.014529
O	 1.8471771436	-1.1699066558	 0.0161117407	-0.24229
C	 1.129654229	-0.5164463463	 1.0014444227	 0.467081
O	 1.4050472385	-0.418022435	 2.1489287543	-0.300077
C	 0.3252886709	-1.8646718393	-1.7419995891	 0.287419
N	-0.1660117365	-2.7333321787	-2.3236294529	-0.303049
H	 0.7386955698	 1.9944648485	-0.2569846036	 0.137675
H	-0.9052011434	 1.694184088	-0.8573678405	 0.14219
H	-0.606099001	 1.8413605714	 0.882590306	 0.15621
H	-0.9080903015	-0.572753377	 0.228092434	 0.145589
H	 1.4069775222	-0.0618371824	-1.7196479502	 0.147655
