19
gdb 72523	2.22113	1.79889	1.64441	2.5865	73.28	-0.2419	-0.0182	0.2238	962.7255	0.161478	-423.063175	-423.055475	-423.054531	-423.095011	30.796	
O	 0.0344273933	 1.3885988574	 0.0646253124	-0.50842
C	 0.0115019122	-0.0054070961	 0.0789727327	 0.338582
C	 0.828367794	-0.6858998482	 1.2035255823	-0.259589
C	 1.1179574305	-2.1233581339	 0.6362040452	-0.227753
C	 0.4408766804	-2.124572811	-0.7607555816	-0.128404
C	-1.0974871631	-2.1005089225	-0.5537500539	-0.227752
C	-1.3878053436	-0.6623575291	 0.0119533709	-0.259679
C	 0.6606293932	-0.6667592264	-1.1417715483	 0.363354
O	 1.1685398425	-0.1069070547	-2.0765595162	-0.346114
H	 0.478412206	 1.6408927988	-0.7592126081	 0.285758
H	 1.7522053305	-0.1256517033	 1.3685091845	 0.113511
H	 0.2768274225	-0.7062895406	 2.1469718761	 0.107596
H	 2.1933086898	-2.2990479459	 0.5468597715	 0.113498
H	 0.7081533569	-2.9136702376	 1.2706636717	 0.10758
H	 0.8077537465	-2.8748375018	-1.4586487755	 0.085697
H	-1.6197295212	-2.2608489129	-1.5006931336	 0.113507
H	-1.4125104221	-2.8910046639	 0.1325334044	 0.107583
H	-1.8719083922	-0.6825814454	 0.9917071791	 0.107606
H	-2.025367806	-0.0866702629	-0.6639050238	 0.113439
