24
gdb 22038	2.7933	0.9308	0.84919	0.5406	88.74	-0.238	0.0127	0.2507	1518.5343	0.213419	-405.527293	-405.515875	-405.514931	-405.563753	42.52	
C	-0.7481958454	 1.4098537635	 0.0365669508	-0.46726
C	-0.1904010582	 0.0096875045	 0.0341866816	 0.344892
C	 0.142188985	-0.7056778329	 1.3217247185	-0.283819
C	 1.5254018756	-0.3871066753	 1.9677932729	 0.266937
C	 1.6568997061	 1.1035794341	 2.3276303443	-0.405375
C	 1.6309148158	-1.2209881538	 3.2583625918	-0.402727
C	 2.6607105765	-0.7883256557	 1.0107720828	-0.394383
N	-0.0033909208	-0.6617835677	-1.039991924	-0.163263
O	-0.3406593205	 0.084989307	-2.1835930105	-0.401755
H	-0.069294531	 2.1021209266	-0.4727758906	 0.144974
H	-1.6870867563	 1.435433943	-0.5260350039	 0.143235
H	-0.9259567444	 1.771748305	 1.0497251799	 0.118165
H	-0.6425191817	-0.4828047101	 2.0568219094	 0.094138
H	 0.105267632	-1.7811297452	 1.1221141163	 0.111393
H	 0.8452609867	 1.4300111247	 2.9878636134	 0.105333
H	 2.6013572856	 1.2865754234	 2.851759693	 0.109584
H	 1.6479132951	 1.7419280483	 1.4392656444	 0.115401
H	 1.5435675565	-2.2921899295	 3.0467545975	 0.110337
H	 2.5951433951	-1.0553979999	 3.7510396935	 0.108294
H	 0.8422422834	-0.9542702555	 3.9710046283	 0.106587
H	 2.6090183461	-0.2321011687	 0.0708566812	 0.120254
H	 3.6363509413	-0.5930389536	 1.4691745842	 0.103291
H	 2.6111724348	-1.8540756808	 0.7639234239	 0.111569
H	-0.1795330475	-0.5487746815	-2.8901592986	 0.304197
