17
gdb 7635	4.35623	1.34534	1.30817	2.631	65.89	-0.2647	0.0255	0.2903	1005.4292	0.141494	-401.003328	-400.995219	-400.994275	-401.035963	30.11	
C	-0.1072988343	 1.6448245942	-0.0329763546	-0.409104
C	 0.0193203506	 0.1231362462	-0.129464291	 0.111695
O	 1.0451378362	-0.3748550068	 0.715420466	-0.43412
C	-1.3044806152	-0.5747737671	 0.1628460264	 0.119895
C	-1.2967786835	-2.1071041295	 0.3400569882	-0.377852
C	-1.7084713179	-1.7935559014	 1.7608484723	 0.436711
N	-2.0015921234	-2.4689295526	 2.7737411204	-0.535721
O	-1.6702891432	-0.4185287832	 1.5830058523	-0.284351
H	 0.8654140815	 2.1110442906	-0.2067599714	 0.129854
H	-0.8173140974	 2.03195688	-0.7711907548	 0.11711
H	-0.4620266356	 1.9360229753	 0.9615955956	 0.130148
H	 0.3208075715	-0.1571680204	-1.1470139701	 0.097677
H	 0.7854044039	-0.1682168778	 1.6214797148	 0.289777
H	-2.1081037852	-0.1847819082	-0.469186002	 0.092727
H	-2.0271782401	-2.670819588	-0.2410873163	 0.134714
H	-0.3095151133	-2.5630621079	 0.2589803244	 0.153363
H	-2.2425106546	-1.8693008833	 3.5647738897	 0.227478
