17
gdb 82712	2.44132	1.93812	1.52669	3.3871	71.29	-0.2313	-0.0306	0.2007	928.3434	0.136251	-421.789855	-421.782618	-421.781674	-421.821506	28.299	
C	-0.1442132167	 1.5750396214	 0.0038014266	-0.41557
C	 0.0673421449	 0.0713876824	 0.0253946509	 0.010933
C	 1.1627511832	-0.555516613	-0.872941305	 0.084258
O	 2.4213941101	 0.1541749275	-0.7581366331	-0.296962
C	 2.7835856449	-0.5822782662	 0.435231822	-0.029808
C	 1.5555558422	-1.5307266896	 0.2683268152	-0.097709
C	 0.7287831839	-0.6214385032	 1.2687295776	-0.217987
C	 2.0634086638	 0.0330495606	 1.6609628906	 0.43896
O	 2.4357714548	 0.6330656129	 2.6267649788	-0.310327
H	 0.8099926534	 2.1003316107	 0.0994593138	 0.140357
H	-0.6091922702	 1.888444896	-0.9371777153	 0.118918
H	-0.7961133239	 1.8942897312	 0.8232955501	 0.123564
H	-0.871085965	-0.4610476516	-0.1746723982	 0.085944
H	 0.934949813	-0.800597843	-1.912058221	 0.08406
H	 3.8430580182	-0.8411059585	 0.4774359916	 0.096172
H	 1.5747166038	-2.6152792877	 0.2567604907	 0.09331
H	 0.0825057696	-0.9657493298	 2.0756642248	 0.091887
