20
gdb 89897	4.7268	1.06591	1.0279	0.9273	80.06	-0.2154	0.0803	0.2957	1246.6992	0.170503	-403.075872	-403.067755	-403.066811	-403.108466	31.779	
C	-0.0362482596	 1.5051660202	 0.1159661095	-0.316094
N	-0.0319669707	 0.0598918928	 0.1319756525	-0.075676
C	-1.2823847838	-0.6435731785	 0.4852148235	-0.237929
C	-0.4322876483	-1.6804952645	 1.2424852475	 0.434163
C	 0.6937984388	-0.6269508417	 1.2193896017	-0.242497
O	-0.8778764482	-2.1670941292	 2.5275453579	-0.324862
C	-0.5486388137	-3.5092425572	 2.1461093834	 0.094416
C	-1.3937648854	-3.949382719	 0.9952081765	-0.304103
C	-0.1640450804	-3.0946827126	 0.7482699117	-0.192897
H	 0.976077699	 1.8778695281	-0.0737059822	 0.119808
H	-0.6826281535	 1.8659616527	-0.691227401	 0.12025
H	-0.3925904685	 1.9489266393	 1.065601976	 0.090847
H	-1.9198594689	-0.0845133396	 1.1903616527	 0.094556
H	-1.8874000704	-0.9829870599	-0.3624822258	 0.101798
H	 1.7110626062	-0.9513075467	 0.9733940457	 0.100691
H	 0.7071787701	-0.0681055009	 2.169642912	 0.094311
H	-0.0816874968	-4.1481988371	 2.8856214984	 0.105587
H	-1.2855344895	-4.9884772479	 0.6990191376	 0.115271
H	-2.3920201276	-3.5365173627	 0.8773002841	 0.117542
H	 0.6585027112	-3.3957141157	 0.1142842584	 0.104819
