18
gdb 81513	3.25877	1.43569	1.13172	1.8079	80.27	-0.2069	0.0287	0.2356	1095.7631	0.144831	-401.819642	-401.810754	-401.80981	-401.852746	34.275	
C	-0.0231316011	 1.5642355181	-0.0263913194	-0.33792
N	 0.038456291	 0.1018175788	 0.0062251011	-0.11723
C	-1.0191119803	-0.7413273342	 0.6807452497	-0.097283
C	-0.0009805712	-1.9052630649	 0.5496086559	-0.227519
C	 0.7725582691	-0.6671910694	 1.0818850161	-0.075195
C	-0.3928263958	-0.4580288407	 2.1134475206	 0.284731
O	-0.479606375	 0.8337128521	 2.6707192084	-0.472328
C	-0.6132039863	-1.448211779	 3.1649618046	 0.246176
C	-0.8438546555	-2.2005311918	 4.0755294578	-0.447034
H	 0.9697273355	 1.9300987834	-0.3108347075	 0.115349
H	-0.7097601031	 1.8436581143	-0.8337383042	 0.112008
H	-0.3320167303	 2.0652194703	 0.8928871888	 0.13055
H	-2.0707421977	-0.7135286117	 0.3894075698	 0.083493
H	-0.1122047836	-2.7627633016	 1.2105543324	 0.116055
H	 0.2407048771	-2.16427645	-0.478552831	 0.111554
H	 1.8421837302	-0.5506304862	 1.264022951	 0.087359
H	-1.1441475131	 0.8076684486	 3.3667996865	 0.287622
H	-1.03189684	-2.880220046	 4.8700630095	 0.199614
