17
gdb 31502	3.2269	1.09369	0.84818	2.1422	73.11	-0.1928	0.031	0.2238	1335.8725	0.135513	-455.181676	-455.172169	-455.171225	-455.216726	33.712	
C	-0.2153150447	 1.4491944143	 0.040721353	-0.498827
C	-0.0222098056	-0.0309511994	-0.0207770447	 0.136907
C	 0.1047504015	-0.8385471548	-1.1232910942	 0.304788
O	 0.0930923945	-0.6345477604	-2.4638738845	-0.436533
N	 0.265147655	-2.1186879273	-0.6614867148	-0.320006
C	 0.2199933118	-2.052292597	 0.7104291725	 0.276095
C	 0.3790898589	-3.271556876	 1.5587233902	-0.174825
O	-0.3594335621	-4.3819933805	 1.0528115205	-0.420128
N	 0.0468060979	-0.818953748	 1.1176959886	-0.343965
H	 0.6116500528	 1.9426274874	 0.5636025843	 0.136853
H	-0.2773276181	 1.891300852	-0.9609005188	 0.091114
H	-1.1373113631	 1.71127896	 0.5713391509	 0.136105
H	-0.0552112193	 0.3024856283	-2.6257540805	 0.307913
H	 0.3316243343	-2.9533823568	-1.2201763142	 0.274295
H	 1.4212136766	-3.613430328	 1.571590833	 0.121987
H	 0.1050568972	-3.0071285986	 2.587685878	 0.122467
H	-1.2919544277	-4.1410524153	 1.0785803108	 0.285759
