18
gdb 8732	2.39919	1.84081	1.10127	0.9389	79.06	-0.2555	0.0461	0.3015	1091.0545	0.150025	-310.605935	-310.596367	-310.595423	-310.639812	35.266	
C	 0.0508371526	 1.5510394935	-0.004462322	-0.405021
C	 0.0152544491	 0.0096635971	 0.0341495148	-0.147479
C	 0.7230125221	-0.4754216241	 1.2178460075	 0.331382
C	 1.2976618755	-0.8326437408	 2.2112301248	-0.462965
C	-1.4412882398	-0.5614678707	-0.010718691	-0.147479
C	-2.2469459569	-0.0410290718	-1.2184673904	-0.405021
C	-1.421887896	-2.0232971896	-0.017512023	 0.33138
C	-1.4146190779	-3.2241008801	-0.0690791043	-0.462964
H	 1.0796960878	 1.9032858393	 0.1007769148	 0.130313
H	-0.3455603502	 1.9347400197	-0.9473674187	 0.120651
H	-0.534195374	 1.9730231349	 0.8189690009	 0.125739
H	 0.5335505984	-0.3711919251	-0.856284689	 0.113556
H	 1.8086519267	-1.1697522288	 3.0787122563	 0.193825
H	-1.9416294866	-0.2286829925	 0.908774431	 0.113556
H	-1.7327587876	-0.2733303407	-2.156561293	 0.125739
H	-3.2283307917	-0.5203832688	-1.2468701568	 0.130313
H	-2.3974125271	 1.039454644	-1.1606577065	 0.120651
H	-1.4032199444	-4.2855435056	-0.0911639353	 0.193825
