18
gdb 102036	2.14756	1.40146	0.91312	1.6273	71.28	-0.2642	-0.0166	0.2476	1296.2932	0.145622	-476.282744	-476.272645	-476.271701	-476.318691	34.3	
C	 0.0539750473	 1.5299353356	-0.0038438577	-0.378098
C	-0.0105729628	 0.0056854981	 0.0834075468	-0.160634
N	 0.7054612133	-0.5382877358	 1.2508986241	-0.186441
C	-0.036812145	-0.8493769567	 2.3936568911	 0.158009
O	 0.3671379508	-1.2534702293	 3.4495835074	-0.280461
C	 2.0974435927	-0.6547105797	 1.1067044269	 0.541293
O	 2.6670274857	-0.3206609536	 0.0932304019	-0.408476
O	 2.6902384532	-1.1680392608	 2.1827951861	-0.216698
C	 4.1143989548	-1.3013540197	 2.0765098647	-0.236336
H	 1.0903417114	 1.8614992533	-0.0960563046	 0.150085
H	-0.49738931	 1.8772170194	-0.8830550051	 0.12286
H	-0.3883253628	 1.9960427362	 0.882328476	 0.1213
H	-1.0478930316	-0.332324559	 0.1567522906	 0.115814
H	 0.4251994678	-0.4439719036	-0.809629897	 0.143694
H	-1.111424004	-0.6674930281	 2.1956553706	 0.084501
H	 4.3789750323	-1.9658413974	 1.25062664	 0.14306
H	 4.5813929046	-0.3274204146	 1.9119851683	 0.142815
H	 4.4338286223	-1.7247658844	 3.0280983499	 0.143715
