14
gdb 31940	4.45835	1.0172	0.83262	5.9056	72.91	-0.2335	-0.0668	0.1667	1292.038	0.100066	-473.847811	-473.839666	-473.838722	-473.881378	28.122	
C	 0.0737105353	 1.4607980886	 0.1694515814	-0.254275
O	 0.0321891295	 0.033415357	 0.0447235329	-0.259893
C	 0.6049369896	-0.6824284717	 0.9971421415	 0.415821
C	 0.7257340431	-2.0413671446	 1.1545971167	-0.21345
N	 1.4105134212	-2.2802502082	 2.3151532904	-0.258233
C	 1.6808841029	-1.1113446837	 2.818730682	 0.280963
O	 1.2001938165	-0.0699862384	 2.0354452043	-0.20858
C	 2.3857272637	-0.7233706556	 4.03622784	 0.083881
O	 2.8675018969	-1.4974557771	 4.8285266142	-0.256277
H	 1.1069229171	 1.8195650281	 0.1805505874	 0.148022
H	-0.4473354985	 1.8445316531	-0.706847843	 0.153581
H	-0.4342578176	 1.7855995507	 1.0820590295	 0.148
H	 0.3637843933	-2.8232208661	 0.5085980776	 0.138785
H	 2.4408692369	 0.3788472079	 4.1676618452	 0.081653
