17
gdb 90058	3.85465	1.32722	1.2182	3.7382	74.29	-0.2372	0.0145	0.2517	1034.291	0.135905	-421.720933	-421.713475	-421.712531	-421.752592	29.632	
O	 0.120094692	 1.4315620187	-0.1855014523	-0.408678
C	 0.0483311219	 0.040787356	 0.0112671567	 0.054801
C	 0.2373120881	-0.4972864317	 1.4941478336	-0.368744
C	-1.2939612367	-0.6428324896	 1.541293519	 0.11673
C	-2.1551081971	 0.6726045269	 1.5394353907	-0.258401
C	-2.8149886888	-0.1651263897	 0.4261354832	-0.196608
C	-1.4022766881	-0.6015864912	-0.0390364119	-0.016758
C	-2.6268870754	-1.4066619747	 1.4235466335	 0.354911
O	-3.1690004126	-2.4150643498	 1.735346166	-0.312386
H	 1.0404500271	 1.6997022875	-0.0900964358	 0.290237
H	 0.6918902145	-0.4845727037	-0.7057438945	 0.087396
H	 0.7793328055	-1.446189566	 1.5100807024	 0.118822
H	 0.6807457093	 0.1940323709	 2.2153105219	 0.110267
H	-2.7371606924	 0.8672322066	 2.4422302783	 0.102687
H	-1.6297313849	 1.5580176972	 1.1918053612	 0.141752
H	-3.6981791274	 0.0705714614	-0.1670721329	 0.0883
H	-1.353967635	-1.5546389889	-0.570071149	 0.095673
