17
gdb 45470	3.08551	1.50428	1.21321	4.2938	75.1	-0.2385	-0.0532	0.1853	1033.9709	0.137792	-421.841317	-421.834094	-421.83315	-421.873322	27.872	
O	 0.0234302841	-0.0620089897	-0.0968642976	-0.332456
C	-0.0038386999	 1.1487334744	-0.0148071278	 0.386321
C	-1.3185864109	 1.9138652425	 0.0895808106	-0.351222
C	-1.2160112377	 3.2459938498	 0.8058702945	 0.119353
O	-1.0235280934	 3.1066332529	 2.2341424536	-0.283355
C	 0.0122356023	 4.1039390481	 2.2312255652	-0.07276
C	 0.1004809638	 4.053254502	 0.6778924714	-0.138613
C	 1.2695179874	 3.2677328622	 0.1834493773	-0.048923
C	 1.2319762085	 1.9574537613	-0.0902855162	-0.154975
H	-1.6694932977	 2.0845034869	-0.9377890945	 0.128121
H	-2.0614272625	 1.2763471198	 0.5776906674	 0.141044
H	-2.1052145458	 3.8589096977	 0.6024333031	 0.077317
H	-0.3402807879	 5.0685272047	 2.6209035553	 0.102642
H	 0.8977311333	 3.7830348642	 2.7894035847	 0.114382
H	 0.030833454	 5.0226835572	 0.178359399	 0.091628
H	 2.2137294121	 3.8048876165	 0.1086285646	 0.110362
H	 2.1256953803	 1.4111286596	-0.3754991107	 0.111135
