20
gdb 40303	6.15354	0.59572	0.57325	1.4726	92.42	-0.2307	0.0417	0.2725	1977.899	0.171815	-365.943731	-365.934674	-365.933729	-365.979607	32.944	
C	 0.598704114	 1.5413402645	-0.0955738946	-0.221985
N	 1.5012282983	 0.3946505682	-0.2287005635	-0.296007
C	 0.0451661573	 0.1534956417	-0.0626491049	-0.225987
C	-0.3971630437	-0.46670309	 1.1553202222	 0.162018
C	-0.7912965714	-0.9877435619	 2.1692983628	 0.062901
C	-1.2799042996	-1.6051881131	 3.3841018391	-0.147119
C	-2.2353079618	-0.8016319085	 4.3278984583	-0.21349
C	-3.0234329303	-2.1131845557	 4.5820583852	-0.217205
C	-2.3920625654	-2.7023435388	 3.2935584109	-0.213122
H	 0.6952227487	 2.0885455477	 0.8368412732	 0.128692
H	 0.377819261	 2.1520745503	-0.9674479819	 0.113637
H	 1.7486810952	 0.2589053797	-1.2058922946	 0.233866
H	-0.5013870851	-0.1524661562	-0.9529158355	 0.10558
H	-0.4368534834	-1.9925415347	 3.9677203561	 0.100902
H	-1.7800118199	-0.2944802255	 5.1812589465	 0.101806
H	-2.8219703887	-0.0777144314	 3.7567906067	 0.110209
H	-2.671693301	-2.6303259978	 5.4795820696	 0.103604
H	-4.1124057145	-2.0472063762	 4.6253653232	 0.099474
H	-3.0253202409	-2.5377128735	 2.4181917759	 0.110052
H	-2.0646898086	-3.744132119	 3.3032874852	 0.102175
