20
gdb 12195	3.90461	1.3962	1.19213	0.8372	81.04	-0.2522	0.0518	0.3039	1082.5795	0.175569	-311.834821	-311.825929	-311.824985	-311.867786	33.794	
C	-0.0568692739	 1.5839092834	-0.1055485319	-0.415876
C	 0.0721044088	 0.0725291627	 0.0078821143	 0.043853
C	 1.0917163602	-0.6677783517	-0.8968796798	-0.24563
C	 1.3764375004	-1.646574311	 0.2847502038	-0.172858
C	 2.7287753466	-2.116529956	 0.4996421906	 0.323856
C	 3.8590457869	-2.4890990454	 0.6784761955	-0.462443
C	 0.7564806247	-0.5749829096	 1.2601257991	-0.014176
C	 1.780789322	 0.2907625114	 1.9848238814	-0.395669
H	 0.9088778671	 2.0827007918	 0.0226660658	 0.116457
H	-0.4465238636	 1.8657022058	-1.0902155023	 0.114258
H	-0.7435466396	 1.9859573219	 0.6478899552	 0.114005
H	-0.9163893754	-0.3836649589	-0.120947197	 0.071135
H	 0.7326948746	-1.1070962905	-1.8303746496	 0.100578
H	 1.9677661247	-0.0504872749	-1.1137924264	 0.108906
H	 0.6985409757	-2.5044917146	 0.2188980178	 0.09943
H	 4.8544504868	-2.8242622521	 0.8331067874	 0.190479
H	 0.0607106691	-0.997791305	 1.9911729317	 0.068266
H	 2.5180991462	 0.7215605894	 1.3001010902	 0.120284
H	 1.2900366401	 1.1147809241	 2.5130360159	 0.111034
H	 2.3323833286	-0.3032955008	 2.7194955782	 0.124111
