19
gdb 117420	3.17051	0.72592	0.61099	3.2313	78.73	-0.2763	0.0095	0.2857	1792.9832	0.158154	-419.239136	-419.228928	-419.227984	-419.275998	35.092	
C	-0.3346921521	 1.1464371114	 1.0104663466	-0.391975
C	-0.0231746732	-0.1137409583	 0.2262078342	-0.032869
O	 0.7278518549	-0.9868143606	 1.0897973619	-0.243192
C	 1.1063045697	-2.1736440168	 0.5793247893	 0.395014
N	 0.8151039561	-2.5111536747	-0.6088219108	-0.529869
C	 1.8976576506	-2.9564217258	 1.6071748021	-0.28042
C	 1.1361698982	-3.0957271997	 2.9451210078	-0.336138
C	 1.9091995355	-3.8309797889	 3.9420883518	 0.257643
N	 2.5350723268	-4.4155225937	 4.7178782974	-0.30222
H	 0.5842295735	 1.6474153261	 1.3278183952	 0.129685
H	-0.9063197543	 1.8390690306	 0.3858513115	 0.125527
H	-0.9276382228	 0.918093986	 1.9008786405	 0.126557
H	-0.9297602398	-0.632928673	-0.1007691932	 0.123015
H	 0.5711798094	 0.0929732214	-0.6693833903	 0.124612
H	 1.1779808364	-3.4375443751	-0.8216506702	 0.22467
H	 2.1365727277	-3.9433838999	 1.2053064503	 0.130239
H	 2.8446093916	-2.4381020833	 1.7927869069	 0.147945
H	 0.8973656038	-2.1024742732	 3.3346029175	 0.173156
H	 0.1842224978	-3.6145766726	 2.7864907815	 0.15862
