21
gdb 74982	2.89161	1.37467	1.15448	1.5706	84.52	-0.2315	0.0256	0.2571	1175.2551	0.182368	-387.102584	-387.093943	-387.092999	-387.135481	33.682	
C	 0.179394104	 1.5770723745	 0.0973436702	-0.489057
C	-0.0016757368	 0.0947755649	 0.0070040971	 0.329241
C	 0.1170686892	-0.6654648993	-1.0868939717	-0.188869
C	-0.1079628603	-2.1233858888	-0.8181023353	-0.154813
C	 1.1580450111	-2.9515589475	-0.4949548689	-0.083781
O	 0.945083807	-2.8007883687	 0.9222724663	-0.326746
C	-0.3601370802	-2.1827529119	 0.7204054567	 0.439576
C	-1.472418128	-3.0632650722	 1.2557498132	-0.458151
C	-0.3724812626	-0.7271408337	 1.2249806128	-0.355526
H	 0.983502778	 1.8345355306	 0.7984227287	 0.128211
H	 0.4214908629	 2.0162633199	-0.8742893452	 0.122343
H	-0.7285852955	 2.0641585003	 0.4760917968	 0.123813
H	 0.3747038729	-0.2852317844	-2.0706514927	 0.084458
H	-0.8324116336	-2.6025286724	-1.4824915694	 0.072982
H	 1.1101350023	-4.0046544465	-0.8047629249	 0.090883
H	 2.1148858669	-2.5247282256	-0.8172274409	 0.097453
H	-1.3987159297	-3.1483126034	 2.3453133094	 0.124651
H	-2.4534573602	-2.6418629373	 1.0114974243	 0.11455
H	-1.4121120719	-4.0705305254	 0.8328986119	 0.117319
H	 0.3527853361	-0.6167272087	 2.0409542978	 0.116791
H	-1.3503878115	-0.4277809642	 1.6285098837	 0.094672
