22
gdb 58784	2.48199	1.42764	1.07008	1.2968	82.73	-0.2139	0.0636	0.2774	1223.7376	0.193033	-404.314691	-404.304894	-404.30395	-404.348911	37.347	
C	 0.0112922653	 1.5047619909	 0.1829690541	-0.420361
C	 0.0253421981	-0.0005244373	-0.0873753633	-0.010807
O	 0.7856120425	-0.7019195118	 0.9009251654	-0.42819
C	-1.3692525891	-0.5671301764	-0.1992192483	 0.326425
C	-2.4259464514	-0.1876316734	-1.2466010745	-0.282877
C	-2.9843011826	-1.6494339286	-1.1524320527	-0.254922
C	-1.8920103112	-1.9632197593	-0.1179280365	 0.277125
C	-1.2191863112	-3.2810127175	 0.1154465235	-0.511206
N	-2.1344663093	-1.001864762	 1.0002249597	-0.426533
H	 1.0328843251	 1.8907177175	 0.2483370394	 0.121789
H	-0.5106760399	 2.0412926707	-0.6147095927	 0.131671
H	-0.5114753162	 1.7213504846	 1.1226272229	 0.122694
H	 0.5471148481	-0.1834443463	-1.0366447224	 0.090286
H	 0.7135878598	-0.2148694234	 1.7281106275	 0.284718
H	-3.1056926545	 0.6173698886	-0.9557316384	 0.101361
H	-1.9969597966	 0.032748254	-2.2280138418	 0.095683
H	-4.0109252094	-1.75592154	-0.7930969084	 0.101808
H	-2.8634465632	-2.204825942	-2.0859563297	 0.095674
H	-0.9343508974	-3.7471786575	-0.8343508412	 0.117101
H	-0.3130022597	-3.1512412168	 0.713204076	 0.137499
H	-1.8866307665	-3.9775570518	 0.6378069157	 0.120278
H	-1.4279966508	-1.233950062	 1.7014647558	 0.210783
