14
gdb 10046	3.26629	1.37504	1.01151	1.3483	62.82	-0.3058	-0.0099	0.2959	1089.939	0.10568	-378.731347	-378.722701	-378.721756	-378.765237	28.926	
C	-0.1832500024	 1.4246868833	-0.0811454807	-0.253894
O	 0.1383807831	 0.0486663354	 0.0713183098	-0.223516
C	 0.6965966966	-0.5432392785	-1.0673200987	-0.019104
C	 1.2373309111	-1.9261153868	-0.6495136801	-0.355186
C	 2.3411394713	-1.8009040955	 0.2983819067	 0.27119
N	 3.2267901405	-1.7022521096	 1.0326730407	-0.292818
C	-0.3003636748	-0.6999194617	-2.1535218558	 0.272833
N	-1.0844193218	-0.8116767662	-2.9944174257	-0.307965
H	 0.7079820688	 2.0126306997	-0.3404795819	 0.125022
H	-0.9512822544	 1.5746456176	-0.8508525422	 0.138841
H	-0.5679170735	 1.7595966829	 0.8828684055	 0.150894
H	 1.5247306725	 0.0646735466	-1.4649944882	 0.135761
H	 0.4226279312	-2.4959052146	-0.1926088823	 0.182738
H	 1.5759801517	-2.4746731926	-1.5335881672	 0.175203
