19
gdb 97226	3.12696	1.36045	1.03339	3.0474	79.67	-0.2386	0.0161	0.2546	1186.7717	0.161047	-419.191683	-419.18336	-419.182416	-419.225004	31.204	
C	 0.0752737034	 1.4098504135	 0.1104004287	-0.326313
N	 0.1034692231	-0.0409576417	 0.0383484248	-0.312178
C	 0.5403801866	-0.6101537639	-1.0019009756	 0.448374
O	 1.0417175117	 0.0714077055	-2.0788482539	-0.261109
C	 0.8137009543	-0.5135672526	-3.3692253221	-0.086793
C	 1.4421686169	-1.8977372732	-3.503424294	-0.214339
C	 1.0425221778	-2.7744081638	-2.323992318	-0.046852
N	 1.9396181271	-2.6927426053	-1.1666588471	-0.325882
C	 0.5826377378	-2.0985097638	-1.0762428283	-0.127862
H	 0.9183553708	 1.7601702179	 0.7189554462	 0.127897
H	 0.1307186057	 1.9074654977	-0.8641178639	 0.117115
H	-0.8395492016	 1.7194282196	 0.6259754207	 0.117825
H	-0.2690548765	-0.5678375254	-3.5489003517	 0.105693
H	 1.2403267231	 0.1939354511	-4.084005283	 0.118537
H	 1.1137415394	-2.3433480708	-4.4484502604	 0.10306
H	 2.5324316562	-1.8136097117	-3.5319361956	 0.126962
H	 0.5980739417	-3.7389898276	-2.5554054821	 0.091191
H	 1.9458168633	-3.5721124422	-0.6560726974	 0.23687
H	-0.1439840508	-2.5843126135	-0.4349232573	 0.107805
