18
gdb 12930	3.50968	1.73574	1.42976	1.5508	68.42	-0.2232	0.0697	0.2929	947.1302	0.152244	-384.881235	-384.87296	-384.872016	-384.913872	30.093	
C	 0.2752819287	 0.9481817218	 0.4447042112	-0.234949
O	-0.4381876302	 0.0819653122	-0.4211185841	-0.238636
C	 0.3697318771	-0.5282978812	-1.3690858136	 0.054108
C	 1.4004352052	-1.5640981204	-1.0089875003	 0.00074
O	 1.0226167717	-2.2654637967	 0.1719600179	-0.288635
C	-0.1871070196	-2.7381515312	-0.479211858	-0.117851
C	 0.1264248849	-1.9605788422	-1.7607795842	 0.196618
C	-0.1517540644	-2.4378161606	-3.1560700976	-0.499504
H	 1.0387842273	 0.3999077997	 1.0102485636	 0.128468
H	 0.7580943102	 1.7672305145	-0.1091505764	 0.101384
H	-0.4528978295	 1.3744873683	 1.1386854049	 0.12549
H	 0.6652542243	 0.1124735318	-2.2051734296	 0.08166
H	 2.4522673024	-1.5441018651	-1.276011127	 0.09927
H	-0.1443184517	-3.8247928036	-0.6166633137	 0.10228
H	-1.0914833562	-2.4559914876	 0.0679981413	 0.117222
H	-1.2248278334	-2.3997293758	-3.3794213039	 0.127917
H	 0.3591838424	-1.8143417414	-3.8962594769	 0.122596
H	 0.183901891	-3.4708688125	-3.2996339636	 0.121822
