16
gdb 115096	2.57094	1.45791	0.96215	1.5068	65.83	-0.2451	-0.043	0.2022	1158.964	0.123964	-475.036919	-475.028417	-475.027473	-475.071807	30.119	
O	 0.122883675	 1.3537788781	-0.1807978744	-0.419656
C	 0.098154344	-0.0552425565	-0.1829265744	-0.063448
C	-1.3164810941	-0.5888421151	 0.0414302886	-0.01836
O	-2.1351972843	-0.0460836333	-1.0163946231	-0.253438
C	-3.1899532528	-0.7714357075	-1.4603751468	 0.132923
N	-3.5021812863	-1.9700900564	-1.2242988027	-0.263028
C	-2.6265453722	-2.7797054245	-0.3947650449	-0.260945
C	-1.3730192633	-2.1100421663	 0.1415630517	 0.335726
O	-0.4759479883	-2.7255389313	 0.6660159619	-0.302248
H	-0.4801698708	 1.6476487918	-0.872780065	 0.293415
H	 0.4907438743	-0.4748475166	-1.1218715223	 0.101496
H	 0.7361880908	-0.4011321803	 0.6319979934	 0.141487
H	-1.7023558632	-0.1818593705	 0.9884255216	 0.132668
H	-3.8015056838	-0.1581688166	-2.1192769951	 0.134881
H	-3.1937886121	-3.1612772329	 0.4661714859	 0.153347
H	-2.3189343631	-3.672439522	-0.9525991644	 0.15518
