18
gdb 95539	2.96418	1.36593	1.10317	2.3585	72.04	-0.2472	-0.0288	0.2185	1112.141	0.147699	-439.107701	-439.099217	-439.098273	-439.14098	31.137	
C	 0.2475485987	 1.7940857969	-0.0030641547	-0.406197
C	 0.1144679474	 0.265757639	 0.071899647	-0.036519
C	 0.655525563	-0.4121528778	-1.1875380808	-0.084019
O	 2.0882770627	-0.2860815677	-1.2873194664	-0.225224
C	 2.7706467148	-0.3123540669	-0.1232555816	 0.136036
N	 2.3333900531	-0.3640686128	 1.0635655133	-0.289738
C	 0.8858055132	-0.3629210667	 1.2504492431	-0.060357
C	 0.5678195584	 0.2353246555	 2.6156972198	 0.148575
O	-0.4859470481	 0.7390629023	 2.9073648926	-0.254501
H	 1.2944285968	 2.10733587	-0.0559057931	 0.130413
H	-0.2591264355	 2.1744784216	-0.8956545531	 0.113351
H	-0.2076780837	 2.2626620394	 0.8707359003	 0.14732
H	-0.9455995065	 0.0094514053	 0.1675740213	 0.09871
H	 0.4081789145	-1.4807022531	-1.1995788613	 0.113789
H	 0.2607111584	 0.044309442	-2.0984087742	 0.121851
H	 3.8406279935	-0.2716693753	-0.3190043809	 0.13164
H	 0.5611902003	-1.4138289371	 1.3568569458	 0.116488
H	 1.4020261391	 0.1333075755	 3.3431507126	 0.098383
