18
gdb 116983	3.76909	0.51777	0.48201	2.7598	79.89	-0.2616	0.0182	0.2798	2229.7988	0.145175	-439.040476	-439.029785	-439.028841	-439.079574	35.35	
O	-0.57095853	 1.046287968	 0.6293838359	-0.414435
C	-0.3520068047	-0.3501913273	 0.5407836855	-0.064664
C	-1.3674707401	-0.8918066786	-0.4724806838	-0.325943
C	-1.2525486098	-2.3298924979	-0.6691981673	 0.018272
C	-1.1318765783	-3.5194030403	-0.8142614042	 0.10878
C	-1.0078032465	-4.9627480766	-0.9834337257	-0.240241
O	-1.3875266768	-5.7090688056	 0.1797721165	-0.171386
C	-2.7095276505	-5.7401648286	 0.4533840428	 0.136724
N	-3.1221211122	-6.3493204678	 1.4776803838	-0.437299
H	 0.0407130745	 1.4084845135	 1.2766974305	 0.29144
H	 0.6666391348	-0.5843584239	 0.1974679393	 0.100311
H	-0.5000337819	-0.8509263741	 1.5087708437	 0.105158
H	-2.3756780157	-0.6327296762	-0.1274427058	 0.1422
H	-1.222624493	-0.3672146453	-1.4247505109	 0.142959
H	-1.5930135617	-5.2981252282	-1.8512296354	 0.134719
H	 0.0331307771	-5.2441907681	-1.1649716146	 0.152012
H	-3.3245817144	-5.2083122374	-0.2847285611	 0.092035
H	-4.1370569308	-6.2913735156	 1.529832491	 0.229359
