17
gdb 37920	3.27133	1.75935	1.32496	1.604	73.02	-0.2372	0.0259	0.2631	947.8253	0.139834	-417.934453	-417.928009	-417.927065	-417.965337	26.098	
C	 0.1014975891	 1.5364572805	-0.2946063601	-0.20339
N	 1.037186375	 2.3839131834	 0.4040284729	-0.264217
C	 1.8372531104	 2.0207908115	 1.30288032	 0.127214
O	 2.0990998986	 0.8272396448	 1.8950378024	-0.243527
C	 1.4602356412	-0.3856739192	 1.595742748	 0.195479
C	 1.2032333252	-0.9214288961	 0.1585611502	-0.10907
N	 0.3008824773	-1.9223654105	 0.8673480284	-0.321448
C	-0.0770505413	-0.5639476242	 1.4421104311	-0.109092
C	-0.0092305073	 0.048639584	 0.0090870001	-0.000354
H	-0.8957836742	 1.9807686632	-0.1616888574	 0.118664
H	 0.3100419019	 1.6446884585	-1.3690638029	 0.118674
H	 2.4978602729	 2.7587371889	 1.7571684664	 0.122099
H	 1.9159656657	-1.1219692165	 2.2553762497	 0.113009
H	 1.9345933045	-1.2364991828	-0.5879230135	 0.087494
H	-0.4337655638	-2.2074549883	 0.2139810403	 0.214465
H	-0.850883748	-0.4587477021	 2.2046788758	 0.087501
H	-0.784781177	-0.369017235	-0.6482241713	 0.066499
