13
gdb 3442	4.56583	3.17644	2.26965	2.0982	53.15	-0.2539	-0.014	0.2399	586.5234	0.102843	-344.428649	-344.423034	-344.42209	-344.457855	21.81	
O	 0.0760350836	 1.3942188649	-0.1027603297	-0.432972
C	 0.0535794864	-0.0217089084	-0.0490267765	 0.086362
C	 0.7011305688	-0.5732092283	 1.2179485967	-0.118286
C	-0.1456763681	-1.3024967806	 1.9463551949	-0.082074
C	-1.486550673	-1.3479146867	 1.2796157832	 0.002686
O	-2.0918961586	-0.0320075423	 1.1435710131	-0.267291
C	-1.3711939829	-0.5864851637	 0.0340216807	-0.001767
H	-0.5191010569	 1.6866583318	 0.6006253004	 0.289725
H	 0.5661861754	-0.3652997009	-0.954598064	 0.094274
H	 1.713982544	-0.3018630447	 1.4924415553	 0.11205
H	 0.0610562921	-1.7681774531	 2.9022078461	 0.109289
H	-2.1907423188	-2.1597337288	 1.4292848192	 0.104615
H	-1.955697542	-0.7788509293	-0.8605674394	 0.103389
