21
gdb 2798	4.19264	1.83646	1.45534	0.1133	74.26	-0.2795	0.084	0.3635	935.4759	0.19505	-274.984793	-274.976627	-274.975682	-275.016901	30.649	
C	-0.080244852	 1.6007785209	 0.0625815656	-0.379489
C	 0.078985197	 0.0819810347	-0.0721607558	-0.19888
C	 0.7205950832	-0.5534289127	 1.1553939318	 0.069491
C	-0.055736154	-0.5775136874	 2.5029602838	-0.224873
C	 0.5367502814	-1.9851275041	 2.7777773686	-0.221026
C	 0.8859976212	-2.1091216429	 1.2643035291	-0.003946
C	-0.1166267281	-2.9464914774	 0.4728587948	-0.391036
H	 0.8902652764	 2.0893119457	 0.2054094528	 0.111731
H	-0.5437339173	 2.034803678	-0.8289348198	 0.109009
H	-0.7081120249	 1.8583796577	 0.9224547902	 0.117566
H	-0.9039808222	-0.3702097137	-0.2536079162	 0.091812
H	 0.6870187917	-0.1437085369	-0.9587894022	 0.090841
H	 1.7017710829	-0.0895913173	 1.3193133095	 0.063083
H	 0.1564641008	 0.2122698278	 3.2277981341	 0.091688
H	-1.1388337688	-0.6130930916	 2.3446971723	 0.095353
H	 1.4304559938	-1.9390731482	 3.4064028313	 0.095488
H	-0.1362960139	-2.742359998	 3.1903348411	 0.089585
H	 1.8975284218	-2.4693466495	 1.0501695939	 0.059402
H	-1.1511801797	-2.652699653	 0.6826096021	 0.112418
H	 0.0414585222	-2.8565284445	-0.607149522	 0.112183
H	-0.0190365917	-4.0055357876	 0.7362083152	 0.109599
