17
gdb 98704	3.04213	1.08159	0.90552	5.3365	74.8	-0.2658	-0.0113	0.2546	1316.6057	0.134298	-418.019546	-418.01015	-418.009206	-418.054843	32.684	
C	-0.1291432716	 1.3893967735	 0.4538278297	-0.374143
C	-0.1586231849	-0.0821154008	 0.0466322076	-0.290711
C	-1.553690029	-0.6803872164	 0.1201324125	 0.400218
O	-2.5172079907	-0.1214761844	 0.5821708002	-0.318887
N	-1.6643755208	-1.9433402647	-0.4910702702	-0.091245
C	-0.9437717661	-3.1481505082	-0.1689609488	-0.248412
C	-2.4437994012	-3.0481228545	 0.0177772653	-0.15437
C	-2.9667063804	-3.0288933653	 1.3660795068	 0.306461
N	-3.3896549815	-3.0685694825	 2.4408068571	-0.322027
H	 0.8933500217	 1.7749074577	 0.4193111658	 0.113184
H	-0.7489334127	 1.9918728817	-0.2150693378	 0.134608
H	-0.518507817	 1.5195276872	 1.4658877815	 0.142226
H	 0.227042456	-0.2306848495	-0.9687794798	 0.130991
H	 0.4949274792	-0.6776603207	 0.6990873551	 0.126403
H	-0.5533436154	-3.7217850687	-1.0052194776	 0.143452
H	-0.3427052474	-3.1694284966	 0.7370517728	 0.151593
H	-3.0991192482	-3.528879178	-0.7033837901	 0.150659
