17
gdb 14408	3.34912	2.6056	2.07578	2.1838	66.87	-0.2215	0.0718	0.2933	723.6644	0.144712	-363.798188	-363.792114	-363.79117	-363.827849	25.593	
O	-0.0182831939	 1.4256474174	-0.0399557112	-0.483074
C	 0.0330282912	 0.0386980814	-0.0702578726	 0.395323
C	 0.4270589503	-0.8295996617	-1.2622085279	-0.248401
N	-0.3239070825	-1.9424300011	-0.5559461313	-0.154792
C	 0.5901854955	-2.1451365218	 0.6197386227	-0.154071
C	 0.4035789051	-0.769769493	 1.2716691788	-0.129173
C	-1.1170311507	-0.8239485918	 1.5791383701	-0.244647
C	-1.2399674878	-0.8330163784	 0.0562967884	-0.018477
H	 0.8566785228	 1.7626492964	 0.1808062431	 0.283059
H	-0.1053230289	-0.5339302997	-2.1705864455	 0.110115
H	 1.4735758297	-1.0520589366	-1.4954586121	 0.091388
H	 0.2466487302	-2.9727478222	 1.2471001132	 0.100352
H	 1.6026326108	-2.3684900974	 0.2744673957	 0.097459
H	 1.1309420221	-0.395898873	 1.9928994788	 0.061387
H	-1.4978658638	-1.6623787243	 2.1691654244	 0.096152
H	-1.4979532292	 0.1224721373	 1.9698517985	 0.114919
H	-2.1578053908	-0.6858195515	-0.5092790531	 0.082482
