21
gdb 35959	2.97318	1.17775	0.908	1.6528	84.98	-0.2482	0.0421	0.2903	1320.5601	0.183088	-387.058073	-387.049124	-387.04818	-387.091828	34.393	
C	 0.1418051941	-1.2527040449	 0.0256517571	-0.408376
C	 0.0961275887	-0.0523969262	 0.0142597466	 0.30972
C	 0.0024310612	 1.4089428321	 0.0146734781	-0.087391
C	-0.8476758662	 1.9046033376	 1.2064097674	-0.197528
C	-1.452447518	 3.3217818644	 1.073299602	-0.209593
C	-0.7085803549	 4.3282054762	 0.174063199	-0.192885
C	 0.8214791248	 4.3484112124	 0.3077306294	-0.197467
C	 1.5218628546	 3.2161645931	-0.4509857519	-0.06286
O	 1.3319558346	 1.9201360397	 0.084007466	-0.251402
H	 0.1927369825	-2.313376671	 0.027864111	 0.193359
H	-0.4615556691	 1.720460529	-0.9363033681	 0.093114
H	-1.6551719943	 1.1879252285	 1.3842390259	 0.109795
H	-0.1854808353	 1.846534086	 2.0761704881	 0.118242
H	-2.4802422062	 3.240895307	 0.7003917112	 0.100279
H	-1.5386089768	 3.7422172979	 2.0822174794	 0.102356
H	-0.9570418723	 4.136025079	-0.8784524673	 0.095182
H	-1.1075225275	 5.3259431894	 0.3896346029	 0.09392
H	 1.2045011362	 5.291754583	-0.1025842436	 0.095869
H	 1.1231840505	 4.3207409324	 1.3622928279	 0.103756
H	 1.2030274321	 3.2393954344	-1.5078875737	 0.085175
H	 2.6056459412	 3.3688887201	-0.4314827775	 0.106735
