19
gdb 95973	2.20019	1.62799	1.12318	2.2058	71.	-0.2405	-0.0328	0.2077	1133.5913	0.158524	-460.184096	-460.175009	-460.174065	-460.218898	33.12	
C	 0.7787433018	 0.5308759716	 0.5961405808	-0.471741
C	-0.4824840198	 0.0327067319	-0.068580879	 0.38703
O	-1.5141859112	-0.1359184763	 0.5527377464	-0.32431
C	-0.3647860852	-0.2676734548	-1.5776401886	-0.02944
O	 0.7180059416	-1.1804864884	-1.757062651	-0.280349
C	 0.2085996913	-2.4986636044	-2.0583598875	-0.07349
C	-1.3067865968	-2.4364130203	-1.8758089323	-0.27444
C	-1.6032450536	-0.958745217	-2.1990049344	 0.125189
O	-2.8497446975	-0.4597706433	-1.8036557707	-0.443887
H	 1.6187237472	-0.115589316	 0.3306235512	 0.164269
H	 1.0149293841	 1.5328692694	 0.2172308581	 0.145903
H	 0.6419612041	 0.5750007845	 1.6769906595	 0.141263
H	-0.1149878666	 0.6692287274	-2.0936278665	 0.097318
H	 0.4804659361	-2.7435289483	-3.0933415251	 0.107189
H	 0.7013215461	-3.2195021398	-1.3982449184	 0.110817
H	-1.8439683124	-3.1269553812	-2.5286082629	 0.111758
H	-1.5939214876	-2.6448771413	-0.8401521822	 0.117542
H	-1.5471511889	-0.8190038693	-3.2853803193	 0.093938
H	-2.8209931327	-0.4071226844	-0.8358064481	 0.29544
