18
gdb 32233	2.54136	1.55551	0.97814	4.1954	83.5	-0.2127	-0.0233	0.1894	1195.1321	0.149366	-398.185511	-398.176968	-398.176024	-398.218547	31.782	
C	-0.0208397671	 1.4561822287	-0.0310017876	-0.328806
N	-0.1125352883	 0.0140535239	 0.091298023	-0.379481
C	 0.5875998964	-0.6731772375	 1.0666176117	 0.243597
C	 1.2183346007	-0.04380663	 2.145842107	-0.05799
N	 1.852289315	-0.7179838867	 3.1079305364	-0.251885
C	 1.866260486	-2.0409906991	 2.9875742896	 0.041255
N	 1.3097389996	-2.7522014859	 2.0031477922	-0.29475
C	 0.6711062386	-2.0852951407	 1.0450052839	 0.276736
C	 0.0339880661	-2.8820948916	-0.0599293796	-0.507205
H	 1.0116913612	 1.81909186	-0.1495619996	 0.123462
H	-0.6008066499	 1.7717467535	-0.9005605266	 0.130023
H	-0.451259655	 1.9451683686	 0.8495594726	 0.14139
H	-0.215603441	-0.477977652	-0.7812230237	 0.242037
H	 1.2100862945	 1.038244315	 2.240945726	 0.102823
H	 2.3803971884	-2.6024819374	 3.7628576173	 0.107897
H	-1.0378061789	-2.6633177664	-0.1411752514	 0.135352
H	 0.4855298529	-2.6549830859	-1.0356338736	 0.125867
H	 0.1675602307	-3.9456603965	 0.1386819825	 0.149679
