20
gdb 58940	3.36943	1.28181	1.17896	2.1312	77.98	-0.2367	0.0718	0.3084	1134.8741	0.170914	-403.07989	-403.07151	-403.070566	-403.112892	32.677	
C	 0.0735858236	 1.4084019257	-0.2474087441	-0.413706
C	-0.0235115806	-0.0644392489	 0.1524367448	 0.002721
O	 0.6027282765	-0.3155986028	 1.4098038592	-0.426882
C	-1.4472410997	-0.552707799	 0.1537678166	 0.371953
C	-2.5642239157	-0.2299229408	 1.1532793606	-0.313351
C	-3.3711585243	-1.3448697287	 0.43437349	-0.087882
C	-3.5393825547	-0.7611709475	-0.9765845526	-0.146725
N	-2.0577120987	-0.873679548	-1.1894301383	-0.191355
C	-1.9980909105	-1.9025769232	-0.1072071293	-0.111393
H	 1.1171509999	 1.7341984865	-0.2423204511	 0.121714
H	-0.3432151534	 1.5603451006	-1.24684419	 0.137339
H	-0.4872053989	 2.041166823	 0.4523723565	 0.103719
H	 0.5354177651	-0.6688951466	-0.5700558414	 0.097999
H	 0.2440957795	 0.3141629408	 2.0443482648	 0.277742
H	-2.2661997482	-0.5306894651	 2.1611389409	 0.107648
H	-2.9998500438	 0.7759761402	 1.1739836857	 0.09169
H	-4.1590044551	-1.8903029037	 0.9502399773	 0.075376
H	-4.0374720946	-1.4376517309	-1.675931583	 0.109507
H	-3.9550354546	 0.249196164	-1.0758033737	 0.094003
H	-1.5501896318	-2.8818499357	-0.2142923828	 0.099883
