18
gdb 103114	2.20284	1.31282	1.26728	5.1473	73.6	-0.2519	0.0255	0.2775	1143.2361	0.144825	-439.068851	-439.058963	-439.058019	-439.103396	35.573	
C	 0.2181729784	 1.2421953808	 0.2292081673	-0.265104
O	-0.0851125265	-0.0986837311	-0.148857394	-0.283692
C	 0.645281413	-0.5716183068	-1.241710037	 0.365788
C	 0.4161501529	 0.113317461	-2.568101314	-0.471125
C	 1.9712270788	-1.1816553078	-0.8796101418	 0.086228
O	 2.442739126	-1.1172393615	 0.4173020628	-0.419831
C	 0.7822108219	-2.1006238946	-1.2348212409	-0.345592
C	 0.1748163666	-2.8605685917	-0.184959144	 0.317501
N	-0.2925502949	-3.4765074056	 0.6760487484	-0.345757
H	 1.2944568788	 1.3818459949	 0.3867091032	 0.131439
H	-0.1344210453	 1.9635510019	-0.5180041033	 0.122828
H	-0.3124290375	 1.4215194614	 1.1662592199	 0.142369
H	 0.7423239048	 1.1575551693	-2.5421692368	 0.132121
H	 0.981166518	-0.3865039947	-3.3597138422	 0.128739
H	-0.6455674809	 0.0865928388	-2.8333493247	 0.1407
H	 2.7879151704	-1.1532229652	-1.5930644931	 0.123345
H	 1.6791103327	-1.0727619406	 1.0080014164	 0.30602
H	 0.7995563228	-2.5911526686	-2.2022129061	 0.134021
