20
gdb 63707	3.38607	1.20345	1.0628	1.6024	87.31	-0.2308	0.0236	0.2544	1214.4844	0.168659	-365.94446	-365.935313	-365.934368	-365.977573	36.009	
C	-0.224451663	 1.5670789735	 0.0608226996	-0.444846
C	 0.0557541237	 0.0713972864	-0.0125509092	 0.354668
C	-1.2374592752	-0.7173831272	-0.1885231769	-0.42378
C	 1.1815779287	-0.418846044	-0.9738182147	-0.36538
C	 1.8725498845	-1.0139724915	 0.2576153181	 0.185604
C	 2.1205990842	 0.0497611717	 1.260120635	-0.275704
N	 0.766207086	-0.5117465115	 1.2056120941	-0.190616
C	 2.441289216	-2.3188468404	 0.3274524075	 0.189373
C	 2.9316184509	-3.4177201117	 0.3454218278	-0.397631
H	 0.685143847	 2.1652348734	 0.1585624517	 0.113454
H	-0.737972721	 1.8988742152	-0.847930067	 0.120146
H	-0.8721465145	 1.7906440184	 0.9152576873	 0.12702
H	-1.7284765996	-0.4516756752	-1.1308285837	 0.109429
H	-1.0365056835	-1.792382156	-0.1911824168	 0.125494
H	-1.9267173165	-0.5073108428	 0.6353810021	 0.121371
H	 0.8384203372	-1.1695930027	-1.6867363954	 0.118102
H	 1.7593254729	 0.3415326992	-1.507348699	 0.10192
H	 2.6518305799	-0.2375384514	 2.161888759	 0.131032
H	 2.3165646486	 1.0647359947	 0.9232385226	 0.111402
H	 3.3608427237	-4.3883983982	 0.3739557878	 0.188943
