18
gdb 129882	5.17743	0.77668	0.72142	1.3637	76.15	-0.1934	0.0259	0.2193	1557.9239	0.149036	-435.269207	-435.259974	-435.25903	-435.304171	33.153	
N	-0.0485704149	 1.4067492421	 0.0034097642	-0.607356
C	-0.028261703	 0.0010625268	 0.0016673728	 0.160785
C	-1.1000901068	-0.8725718111	-0.0300918283	-0.114807
N	-0.5848222593	-2.1322944674	 0.0904767873	 0.06472
C	-1.294997469	-3.3909124557	 0.0141820084	-0.178758
C	-1.2303559445	-4.0146011445	-1.388530363	-0.066833
O	-1.9427037262	-5.2367333387	-1.4457400774	-0.408794
N	 0.7526210667	-2.1287605173	 0.1840395039	-0.271783
C	 1.0982305405	-0.8417068107	 0.1373442946	-0.051302
H	 0.8041148554	 1.800273238	-0.3735246717	 0.243652
H	-0.8342577476	 1.7877364238	-0.5078839872	 0.241541
H	-2.1617105936	-0.7010716073	-0.1105088017	 0.119415
H	-0.8472976265	-4.0721762497	 0.7448148941	 0.120888
H	-2.3377484331	-3.2244328561	 0.2971453824	 0.125071
H	-1.7077688606	-3.343864432	-2.1102788204	 0.116832
H	-0.1783514344	-4.1269210912	-1.6832032123	 0.117491
H	-1.43544265	-5.8998033593	-0.9668584411	 0.288371
H	 2.1381259869	-0.5574915697	 0.2136163652	 0.100866
