12
gdb 130870	3.25326	1.48665	1.02037	2.5694	66.57	-0.2608	-0.1189	0.1418	1038.6256	0.078152	-468.809816	-468.802691	-468.801747	-468.841976	25.401	
O	-0.2112322341	 0.0141609435	 0.0012073524	-0.228896
C	-0.0420649688	 1.2056271564	 0.0088390748	 0.094656
C	 1.2722995033	 1.8917470612	 0.0000517836	 0.011848
C	 1.3111728317	 3.2558470192	 0.0104833278	 0.005416
N	 2.4416365173	 4.033080034	 0.0046563447	-0.228036
N	 3.5810561926	 3.4438805737	-0.0118151772	-0.009549
N	 3.6159060971	 2.1180415417	-0.0227011764	-0.258714
C	 2.5448324913	 1.1788620877	-0.0195513638	 0.413552
O	 2.7856025006	-0.0025543758	-0.0303243076	-0.327562
H	-0.8986730436	 1.917663903	 0.0243118779	 0.084819
H	 0.3870932244	 3.8284621557	 0.0249562983	 0.149862
H	 4.5522230681	 1.7276092697	-0.0353147246	 0.292606
