16
gdb 44694	3.16527	1.45075	1.20687	3.8797	71.84	-0.2447	0.0181	0.2628	1035.1476	0.126366	-434.074933	-434.067474	-434.066529	-434.107417	28.448	
N	-0.0044811947	 1.054186868	 0.6000232075	-0.541689
C	 0.0218707231	-0.0983350982	 0.0876966484	 0.376936
N	 0.958131748	-0.9366076879	-0.5071078492	-0.336897
C	 0.0540733685	-2.0796449325	-0.6806328148	-0.007602
C	 0.1596146289	-3.2241891387	 0.3249016176	-0.316222
C	-0.7253208497	-2.8052504641	 1.4874261063	 0.400399
N	-0.7629125901	-3.3651882755	 2.6145865512	-0.526855
O	-1.5192825107	-1.7470790744	 1.1170550321	-0.230683
C	-1.073907299	-1.1640135931	-0.0975527316	 0.000905
H	 0.9188590915	 1.4910360616	 0.6129807415	 0.213166
H	 1.9651607823	-0.9275728796	-0.4386562694	 0.245847
H	-0.0408331836	-2.4075616772	-1.7177500089	 0.096633
H	-0.2294816159	-4.1557404926	-0.0986457372	 0.141355
H	 1.1781593737	-3.4201974827	 0.6645498925	 0.138964
H	-1.4429132377	-2.9073760378	 3.2237081365	 0.230242
H	-1.9343673146	-0.8993418352	-0.7104983026	 0.115501
