18
gdb 63023	2.30656	1.79453	1.38477	2.9083	71.4	-0.2393	0.0201	0.2594	999.9396	0.147797	-439.116132	-439.107808	-439.106864	-439.148571	32.686	
C	-0.1335078898	 1.5944357974	 0.0216964331	-0.427125
C	 0.016808808	 0.0765598323	-0.0374461977	 0.269258
O	-1.2639610524	-0.5550688164	-0.0636597553	-0.475833
C	 0.8003662968	-0.477964045	-1.2170612021	-0.052987
C	 2.261885651	-0.1230157888	-1.3861623041	-0.318816
C	 1.8658726206	-1.3916040589	-0.6693838689	-0.014204
N	 1.7569234202	-1.3087027332	 0.7592918576	-0.311284
C	 0.7819992283	-0.4614885017	 1.2024008207	 0.35372
O	 0.5229306516	-0.1831242695	 2.3552026735	-0.395987
H	 0.831390799	 2.1025432493	-0.0641778517	 0.115636
H	-0.783740897	 1.931083565	-0.7901068189	 0.121699
H	-0.5778354352	 1.877962013	 0.9807741901	 0.13158
H	-1.6558223433	-0.4194676317	 0.8081341995	 0.289526
H	 0.2240786838	-0.759622861	-2.0890200261	 0.109518
H	 2.6683986548	-0.208554975	-2.3883297609	 0.121127
H	 2.6906976013	 0.6757571546	-0.7895907776	 0.120375
H	 2.0728349113	-2.3708928454	-1.0840631738	 0.10869
H	 2.4429053312	-1.6847617049	 1.3951149924	 0.255109
