17
gdb 79021	3.78992	1.73509	1.58645	1.1552	68.28	-0.2452	0.0814	0.3266	862.4578	0.139395	-421.798538	-421.7926	-421.791656	-421.828531	25.858	
O	 0.1838784937	 1.4048443863	-0.1915622661	-0.441524
C	 0.0325833412	 0.0262825187	-0.0174543969	 0.162827
C	 0.2030454464	-0.62280433	 1.3882865846	-0.134598
C	-0.8869656131	 0.0364656605	 2.2427252773	-0.138031
C	-2.0069279509	-0.9740234775	 2.3644299059	 0.071229
O	-1.5853367795	-2.2149962213	 1.869173329	-0.236917
C	-0.7166589111	-1.7827471616	 0.854679479	 0.084021
C	-1.3838789197	-0.6201104344	 0.0305823184	-0.134599
C	-2.0580819943	 0.03841973	 1.240799346	-0.138016
H	-0.3751275037	 1.8395115161	 0.4628535572	 0.285488
H	 0.672216909	-0.4499050051	-0.7660105558	 0.090159
H	 1.1764111827	-0.7971795009	 1.8435914251	 0.069111
H	-0.7002851143	 0.8083181038	 2.9764109963	 0.094959
H	-2.7092404249	-1.0237853284	 3.1852501204	 0.109372
H	-0.2675006904	-2.6197107171	 0.3280268403	 0.092448
H	-1.9846618366	-0.791809003	-0.8608933788	 0.06911
H	-2.8103342847	 0.8118352239	 1.1711945783	 0.094959
