14
gdb 31684	3.27592	1.09891	0.82742	4.4921	67.11	-0.2637	-0.0626	0.2011	1289.	0.100253	-473.855315	-473.847037	-473.846093	-473.88938	28.435	
O	 0.259504771	 0.9956401791	-0.7616239089	-0.414713
C	-0.0657163709	 0.1650967697	 0.3203648889	-0.140498
C	-1.4155947476	-0.4507425891	 0.1379887254	 0.372073
N	-2.1546726908	-0.3680666271	-0.91396129	-0.358207
C	-3.2902364006	-1.1205499767	-0.6085019497	 0.14896
C	-4.4280046218	-1.3204027447	-1.5122203862	 0.079321
O	-4.5183228009	-0.8618855272	-2.6241896203	-0.254495
C	-3.1461801274	-1.6198150127	 0.6501088647	-0.079519
O	-1.9514964029	-1.2010946329	 1.1425220884	-0.168648
H	-0.3804608956	 0.8189569256	-1.464384665	 0.309375
H	 0.6747134679	-0.6427419338	 0.4467181456	 0.125248
H	-0.055305054	 0.7464261953	 1.2533116067	 0.133043
H	-5.2317032427	-1.9533472635	-1.0739842394	 0.07542
H	-3.7495595437	-2.2374938721	 1.2939847098	 0.17264
