21
gdb 81713	2.06102	1.77301	1.63933	2.0759	77.03	-0.2392	0.0596	0.2989	1007.9044	0.185376	-424.223465	-424.215569	-424.214625	-424.255291	31.986	
O	 0.1191516382	 1.5034245921	 0.0124425387	-0.415694
C	 0.0667150629	 0.0991376426	 0.0389510342	 0.071973
C	 0.1076034995	-0.6848541493	 1.3796595695	 0.059382
C	-0.2826969873	 0.1020007577	 2.6355547901	-0.213533
C	-1.7929326051	 0.3729294749	 2.7597137522	-0.183334
C	-2.4192558927	 1.10804982	 1.5634828879	-0.198556
C	-2.5456695177	 0.2689400039	 0.2760126224	-0.198976
C	-1.3215787564	-0.5489339704	-0.1270261747	 0.080681
O	-0.9652516524	-1.5297205429	 0.8880878503	-0.294282
H	 1.0387174503	 1.7765507971	-0.0539575801	 0.29038
H	 0.777874173	-0.3349338672	-0.6742072189	 0.079058
H	 1.0170461034	-1.2722903385	 1.5511623212	 0.067981
H	 0.0513720314	-0.4467266733	 3.5234896436	 0.093897
H	 0.2706020396	 1.0504153565	 2.6237980663	 0.093811
H	-2.3083003354	-0.5815864907	 2.912448557	 0.106131
H	-1.9558836036	 0.9676708509	 3.6661568483	 0.084506
H	-3.425668166	 1.4418512835	 1.8432634425	 0.08525
H	-1.8379003518	 2.0100164414	 1.3527420397	 0.116546
H	-3.3658488567	-0.452482203	 0.387928176	 0.103373
H	-2.8189926528	 0.92271458	-0.561604588	 0.098052
H	-1.5033924606	-1.0396074555	-1.090427298	 0.073355
