18
gdb 96528	2.41823	1.61066	1.12156	2.3729	67.95	-0.2487	0.0063	0.2549	1095.5034	0.149167	-476.240068	-476.231438	-476.230493	-476.273695	31.551	
N	-0.0151805944	 1.4190148022	 0.2192671857	-0.50721
C	-0.0229459718	-0.0109778219	-0.0476965586	-0.110708
C	-1.4718310922	-0.5446213947	 0.0033354569	-0.199598
C	-1.5454711928	-2.0589173133	-0.2618240257	-0.103299
O	-0.3251914608	-2.6746267814	 0.1550354228	-0.229774
C	 0.62220733	-2.8023990464	-0.8515032457	 0.010395
O	 0.7801621427	-1.6799624093	-1.7302108577	-0.238989
C	 0.6414127435	-0.3687760683	-1.3893909451	 0.389694
O	 0.9850935049	 0.4637485157	-2.1841817138	-0.31769
H	 0.9438514488	 1.7271477032	 0.3543849883	 0.233752
H	-0.3201262671	 1.9039239321	-0.6218978889	 0.236296
H	 0.5343872686	-0.5123348633	 0.749444169	 0.116694
H	-1.8583050836	-0.3035344046	 0.9967330934	 0.125967
H	-2.0922064041	-0.0036691839	-0.7208059543	 0.111492
H	-2.3447982877	-2.5222081259	 0.3218629585	 0.121271
H	-1.732491868	-2.2740838398	-1.3209268232	 0.116793
H	 1.5760162243	-3.0116198823	-0.355325405	 0.126674
H	 0.3703493897	-3.6171256782	-1.5442526064	 0.118241
