20
gdb 46777	2.71667	1.67905	1.33633	2.6573	79.11	-0.2568	0.0148	0.2716	1024.4249	0.174057	-403.151244	-403.143756	-403.142812	-403.183136	30.17	
N	-0.1719212033	 1.3451081195	-0.1100075142	-0.474622
C	-0.0367997428	 0.088483176	-0.0551718559	 0.35548
C	-1.2288897489	-0.8268345186	 0.1243488653	-0.260778
C	-1.2329038214	-2.0816459445	-0.7581525012	-0.008095
C	-0.0268560298	-3.0369710798	-0.5204328439	-0.227965
C	 0.7093623569	-2.31903828	-1.685967199	-0.013877
C	-0.6763622315	-1.8170021183	-2.1868191162	-0.242214
C	 1.6470886124	-1.2180869719	-1.2005874392	-0.103762
O	 1.2036812751	-0.5184673405	-0.0284923019	-0.260098
H	 0.7500918357	 1.7832632046	-0.1803667035	 0.218499
H	-1.2564305591	-1.1312006382	 1.1798807838	 0.120944
H	-2.1209196608	-0.223840795	-0.0612140581	 0.127727
H	-2.2203498166	-2.5463092911	-0.7007673471	 0.071032
H	 0.4489554226	-3.0125721267	 0.4630618438	 0.1047
H	-0.2757999672	-4.0701760979	-0.7748046026	 0.097786
H	 1.2686014402	-2.950041358	-2.3838519896	 0.070301
H	-1.1035549137	-2.4972720682	-2.9278213562	 0.099106
H	-0.7411447788	-0.794513215	-2.5722332283	 0.107011
H	 2.6089936886	-1.6469828704	-0.904814786	 0.116569
H	 1.8310906221	-0.4922222662	-2.0066689699	 0.102256
