15
gdb 7102	8.29654	0.84739	0.78534	6.4782	63.71	-0.2737	-0.0371	0.2366	1386.9658	0.115613	-399.807207	-399.798105	-399.797161	-399.842502	29.867	
C	-0.1220568054	 1.4343435035	 0.0341699689	-0.230907
O	 0.0065134247	 0.0359958481	-0.1086917667	-0.210219
C	-1.1983216889	-0.6385455812	 0.0443446345	-0.151958
C	-0.9772498353	-2.1413949868	-0.0769938296	 0.361781
O	 0.1021212367	-2.6566350284	-0.1395349331	-0.241436
C	-2.2935368134	-2.9491248213	-0.1264824501	-0.462268
C	-2.1115434546	-4.3691980468	 0.1407636624	 0.287991
N	-1.989587208	-5.4960076794	 0.3596342847	-0.290887
H	 0.8732006389	 1.861833932	-0.1009156997	 0.142673
H	-0.8007822783	 1.8607138513	-0.7206887428	 0.109815
H	-0.4976453865	 1.7081709842	 1.0321580123	 0.111373
H	-1.6601345063	-0.4494125606	 1.0332970221	 0.115912
H	-1.9519730768	-0.3281748044	-0.7047981933	 0.10792
H	-3.0236773596	-2.5298372665	 0.5756408665	 0.167535
H	-2.7253108173	-2.8205620637	-1.1278263662	 0.182675
