17
gdb 1336	5.01227	1.58609	1.45072	1.9707	61.14	-0.249	0.0726	0.3217	887.373	0.146199	-346.831139	-346.822854	-346.82191	-346.863303	30.342	
C	-0.0080721305	 1.5724594023	-0.1561011281	-0.44919
C	 0.0166689848	 0.0702693128	 0.02115875	 0.384886
O	-1.1670594153	-0.5590021172	-0.4105565822	-0.465346
C	 1.2999385719	-0.7113942431	-0.1338826766	-0.340888
C	 0.6193444813	-0.605996843	 1.2197099398	-0.006676
C	 1.2620027006	 0.1356183017	 2.3603982109	-0.108802
O	 2.1850077111	-0.7479232838	 2.9865325555	-0.41738
H	 0.9107477844	 2.0458495341	 0.198740671	 0.117964
H	-0.1158136314	 1.8259019993	-1.2183462017	 0.107288
H	-0.8566482561	 2.0103074125	 0.379490452	 0.125383
H	-1.2169336856	-0.4599931001	-1.3682119802	 0.277717
H	 1.2487765083	-1.6645268736	-0.6477709882	 0.1115
H	 2.225415433	-0.1616886448	-0.2765697673	 0.107367
H	 0.0790867568	-1.4953030008	 1.5296331099	 0.103759
H	 1.7732263668	 1.038774645	 1.9926491956	 0.078933
H	 0.4892612557	 0.4658540314	 3.0733869658	 0.089341
H	 2.5382231041	-0.3053879926	 3.7640892539	 0.284143
