18
gdb 121719	2.95573	0.73181	0.63967	3.8784	71.67	-0.2447	-0.024	0.2207	1730.4897	0.145202	-476.257013	-476.246682	-476.245738	-476.294957	34.936	
O	 0.2315707768	 0.9624074545	-0.8209667486	-0.424699
C	-0.1234656924	-0.3278352212	-0.3352999298	-0.081172
C	-1.4974230149	-0.1941615222	 0.3043968633	-0.147294
N	-2.4604055997	 0.3096167927	-0.6574157538	-0.315041
C	-3.6596059899	-0.2846335283	-0.8865165822	 0.402495
O	-4.0531316857	-1.2746114583	-0.2920977968	-0.381186
C	-4.510373314	 0.3675298288	-1.975942959	-0.390198
C	-4.9441544583	-0.6659808581	-3.0042058952	 0.165841
O	-4.9525530282	-0.4669743949	-4.190540795	-0.240519
H	 1.0331289134	 0.8845213925	-1.3458593753	 0.295598
H	-0.1657208965	-1.0624554147	-1.1526074648	 0.103105
H	 0.5962268538	-0.6882738071	 0.4147541114	 0.098776
H	-1.8617852104	-1.1603584181	 0.6584634481	 0.149035
H	-1.4276728014	 0.4847271429	 1.1640926574	 0.119498
H	-2.1685920113	 1.098238888	-1.2121121822	 0.258322
H	-5.4225973771	 0.7293475338	-1.4829458272	 0.157228
H	-4.0323133558	 1.2080552853	-2.4841900547	 0.118793
H	-5.2602214185	-1.6317357055	-2.5605377255	 0.11142
