19
gdb 64713	3.74045	1.08563	1.01856	4.6687	79.17	-0.2423	0.033	0.2753	1215.2121	0.159435	-382.044061	-382.035493	-382.034549	-382.07722	32.802	
C	 0.0000767573	 1.6091249978	 0.1744970519	-0.462771
C	 0.0200624493	 0.090573664	 0.0544790308	 0.3374
C	-1.3885443271	-0.4941971361	-0.1722706681	-0.407829
C	-1.9864036929	-0.0728043028	-1.4383325624	 0.272697
N	-2.4415288719	 0.2628698448	-2.4462486171	-0.314365
C	 1.0742468023	-0.5398401108	-0.9418113005	-0.275995
C	 1.6834247393	-1.2999626055	 0.2389092738	-0.039355
N	 2.1368920592	-0.2624961099	 1.1975270432	-0.337854
C	 0.7202500893	-0.6874120613	 1.1924793105	-0.102056
H	 1.0030392056	 1.9743678231	 0.4037883943	 0.144446
H	-0.3381661649	 2.073692492	-0.7573961635	 0.136322
H	-0.6756326085	 1.9322549947	 0.9754071362	 0.108814
H	-1.3475898764	-1.5900126957	-0.1585386242	 0.14597
H	-2.0551578827	-0.1912443191	 0.6447156217	 0.146694
H	 0.610857862	-1.1798956845	-1.6958755997	 0.114217
H	 1.7480350804	 0.1673714846	-1.429955133	 0.115817
H	 2.1314407416	-2.2856302106	 0.2385870804	 0.09756
H	 2.5893010331	-0.7419687356	 1.9754834929	 0.231606
H	 0.2561783451	-1.0901875192	 2.0863169328	 0.088683
