20
gdb 115614	2.97133	1.04936	0.9419	1.9389	75.47	-0.2446	0.0517	0.2963	1333.948	0.17013	-440.233462	-440.224138	-440.223194	-440.267912	34.335	
C	-0.0641741815	 1.5405925787	-0.0341239294	-0.394432
C	 0.0571198137	 0.0364681831	-0.0444871439	-0.073184
N	 1.42695617	-0.5203703046	-0.1066247749	-0.381172
C	 0.6254139953	-0.7259770791	 1.0892795293	 0.262121
C	 1.0437526437	-0.3031496822	 2.4926904723	-0.131849
O	 0.580490708	-1.5692721828	 3.0270002787	-0.312468
C	 0.1642638087	-2.0415038933	 1.7165982721	 0.030272
C	-1.3214357007	-2.3649439549	 1.7380053556	-0.067018
O	-1.5954784412	-3.3402039835	 2.7236951889	-0.419461
H	 0.7352079849	 1.9879061099	 0.5628608716	 0.12814
H	 0.0101026159	 1.943412727	-1.0495249145	 0.125942
H	-1.0274147183	 1.8519569516	 0.3842650702	 0.119813
H	-0.7058552774	-0.4802119522	-0.6269344492	 0.088928
H	 1.4539319766	-1.3657184591	-0.6727411908	 0.232408
H	 2.1227600961	-0.1692130088	 2.6296280688	 0.116002
H	 0.5079378459	 0.5473432241	 2.9311971715	 0.107695
H	 0.7429801311	-2.929231966	 1.4237866593	 0.084621
H	-1.8917054071	-1.4384006338	 1.9122271541	 0.084891
H	-1.63954563	-2.7809731078	 0.7750962159	 0.103883
H	-1.1992212637	-3.0074397862	 3.5388018743	 0.294866
