22
gdb 101873	5.75642	0.51453	0.49099	5.1281	84.12	-0.2763	0.0377	0.314	2223.574	0.192282	-404.375656	-404.364641	-404.363697	-404.412864	38.743	
C	 0.0555100676	 1.5743304896	-0.0865358717	-0.381772
C	 0.0096371257	 0.0465247308	-0.0068445447	-0.191151
C	-1.4172277465	-0.5141697222	 0.0294074852	 0.131638
O	-2.1723269859	-0.1027933531	-1.1098497765	-0.426229
C	-1.4397116366	-2.0410322354	 0.1889267791	-0.20966
C	-2.858269497	-2.6080931862	 0.2889530133	-0.177882
C	-2.8612958578	-4.1468256461	 0.3752341221	-0.343967
C	-4.2082102715	-4.7051859744	 0.4768597796	 0.257437
N	-5.2790204255	-5.1320857501	 0.5578125678	-0.304857
H	 1.0846697554	 1.9359726758	-0.1680025149	 0.111776
H	-0.5070951298	 1.9332460802	-0.9521776646	 0.127986
H	-0.3888081551	 2.0269905083	 0.806623437	 0.117137
H	 0.5342518969	-0.390904207	-0.8697256595	 0.085691
H	 0.549240835	-0.3018157436	 0.8827375171	 0.098453
H	-1.9509738367	-0.0651003852	 0.8781941815	 0.089384
H	-1.7012234339	-0.4023570914	-1.8962199043	 0.277355
H	-0.9173936552	-2.4936112984	-0.6677882554	 0.087334
H	-0.8607604921	-2.3155284096	 1.0805328699	 0.099538
H	-3.3619226156	-2.1994183255	 1.1723279784	 0.119331
H	-3.4406006438	-2.2852401499	-0.5781069131	 0.134456
H	-2.3747635861	-4.5780959189	-0.5079096347	 0.148745
H	-2.2825469414	-4.4824244976	 1.2441833381	 0.149257
