18
gdb 92731	3.00423	1.32748	0.95495	3.989	75.43	-0.2235	-0.0098	0.2137	1214.3196	0.148349	-439.145294	-439.136798	-439.135854	-439.178191	32.611	
C	 0.109335202	 1.4492572948	 0.711242022	-0.489982
C	-0.0675741583	 0.0983806016	 0.0866769355	 0.384853
C	-1.2227865624	-0.5674254918	-0.0128108102	-0.197727
C	-1.2913445651	-1.9095336304	-0.695287048	-0.280836
C	 0.0317633883	-2.6571222214	-0.5070661542	 0.036247
O	 0.0877687163	-3.8297594969	-1.2701608421	-0.441912
C	 1.2235925795	-1.7621833733	-0.8570879746	 0.38801
O	 2.2003099387	-2.2052529167	-1.436009532	-0.389491
N	 1.1175258434	-0.4672405494	-0.4359445225	-0.393577
H	 0.8070391228	 1.4088760729	 1.5563545108	 0.137352
H	 0.5162547453	 2.1692453441	-0.010566676	 0.132203
H	-0.8463350951	 1.8349998492	 1.0694733962	 0.14123
H	-2.1238325279	-0.1217018162	 0.3906646711	 0.094225
H	-2.1080468225	-2.5187085423	-0.297715403	 0.11939
H	-1.4840499008	-1.7968310039	-1.7726313879	 0.120991
H	 0.1412911635	-2.8815536374	 0.5713548326	 0.092937
H	 0.9897871962	-3.8544086015	-1.628433272	 0.292671
H	 1.9235821763	 0.1203554887	-0.5947045357	 0.253417
