18
gdb 65688	3.754	0.91386	0.85828	1.4432	73.59	-0.2566	-0.0367	0.2199	1359.5197	0.145052	-439.121013	-439.111639	-439.110695	-439.156124	33.815	
C	 0.0275091658	 1.599727931	-0.1040986311	-0.440254
C	-0.0244871356	 0.0732001463	-0.0655640534	 0.317246
C	-1.4551309864	-0.4531389342	 0.1707949897	-0.309298
C	-2.0073448506	-0.0477996794	 1.5195495828	 0.155551
O	-2.9901446689	 0.6264389946	 1.6892989938	-0.235124
C	 0.7339058937	-0.6396197287	-1.2332091523	-0.449438
C	 1.7288303153	-1.1256490405	-0.1536663339	 0.438879
O	 2.7534919493	-1.7497680929	-0.1368846411	-0.353117
N	 0.9776876154	-0.536732188	 0.8392965673	-0.358766
H	 1.0476915934	 1.944767372	-0.2938061533	 0.127996
H	-0.6236654497	 1.9881374628	-0.8933951013	 0.134599
H	-0.3106888252	 2.0345056107	 0.8425411196	 0.132595
H	-2.1304880506	-0.0877370508	-0.6080557134	 0.125836
H	-1.4288673065	-1.5498393387	 0.1360563616	 0.122513
H	-1.4184575863	-0.4262524545	 2.3878250935	 0.074302
H	 0.1845764753	-1.4359306849	-1.7386811001	 0.131697
H	 1.1754107343	 0.030115018	-1.9733371842	 0.135364
H	 1.2117078872	-0.3429161127	 1.8030274857	 0.249419
