19
gdb 41926	2.24004	2.16161	1.88568	1.4582	73.18	-0.2311	0.0735	0.3047	879.8068	0.16325	-423.014469	-423.007698	-423.006754	-423.045533	27.668	
C	 0.0087021279	 1.5359898278	-0.1312087442	-0.082466
O	 1.2829704942	 2.1542608551	 0.0522499573	-0.277927
C	 2.2307600504	 1.4473018986	 0.8392741894	 0.065771
C	 1.7871727485	 1.2364132548	 2.2908782759	-0.075555
O	 0.6229095513	 0.4293630529	 2.4299778324	-0.265619
C	 0.3516201747	-0.4993181386	 1.4147563903	 0.103619
C	-0.0254730225	 0.0254657507	 0.0510261687	-0.10885
C	 1.2789335293	-0.7306004186	 0.2495486196	-0.098215
C	 2.5463394387	 0.0933341479	 0.1968000203	-0.234795
H	-0.7148123187	 1.9918034532	 0.5614392081	 0.104565
H	-0.3024777672	 1.7928052614	-1.1498177104	 0.106003
H	 3.1188123405	 2.0877553139	 0.8515989207	 0.086752
H	 2.6277830587	 0.7857019256	 2.8427647135	 0.091153
H	 1.5494724256	 2.1969808581	 2.7583913498	 0.112867
H	-0.1950439335	-1.342931042	 1.8231191076	 0.095962
H	-0.8327374287	-0.4690720542	-0.480742135	 0.087107
H	 1.3355971605	-1.7424316583	-0.1409203938	 0.085117
H	 2.8773245328	 0.2454612861	-0.8359512709	 0.105788
H	 3.3587077974	-0.4031799845	 0.7410339005	 0.098722
