16
gdb 110166	2.4185	1.24749	0.87762	2.0826	71.4	-0.25	-0.0501	0.1999	1277.6009	0.122217	-437.889208	-437.88018	-437.879236	-437.923757	31.561	
C	-0.3331028994	 1.3629177344	-0.0331994951	-0.254377
O	 0.1871030382	 0.0534401626	 0.1643047896	-0.24072
C	 0.6964823787	-0.5196561949	-0.9904033702	 0.040267
C	 1.3250301143	-1.9394211803	-0.7869164426	-0.19284
C	 0.5862670568	-2.458172233	-2.067892264	-0.364647
C	-0.2777746068	-1.1862649929	-2.0004649312	 0.365191
O	-1.3449378013	-0.8781616563	-2.4390958954	-0.281592
C	 2.7725886831	-2.0298452018	-0.7595990441	 0.272118
N	 3.926900601	-2.0942142231	-0.7593769992	-0.320283
H	 0.4463340472	 2.043835491	-0.4053721968	 0.117303
H	-1.1718794764	 1.3570984186	-0.7381468206	 0.144341
H	-0.6779226287	 1.7121922067	 0.9415131314	 0.139942
H	 1.3951092861	 0.1488981653	-1.5221890902	 0.111293
H	 0.9016778045	-2.3821897406	 0.1178693589	 0.149746
H	 1.2282936997	-2.4752831881	-2.9529372473	 0.159279
H	 0.0626152131	-3.4115749276	-1.986463813	 0.154979
