20
gdb 112443	2.62156	1.23562	0.9256	3.3298	76.11	-0.2374	0.0348	0.2722	1295.295	0.170819	-440.327388	-440.318012	-440.317068	-440.361821	34.426	
C	 0.1750534099	 1.6508244555	-0.393542381	-0.23939
O	-0.3260067691	 0.3400280295	-0.5387849455	-0.241755
C	 0.5958626112	-0.5640053178	-1.096252346	 0.127249
C	 1.7660108468	-0.9825291269	-0.1866007373	-0.370288
C	 2.0575346618	-2.4282784685	-0.6026559849	 0.406856
O	 3.0297445068	-3.093677003	-0.3249787125	-0.3786
N	 0.9910835786	-2.8363199895	-1.3609906328	-0.304966
C	-0.1228462582	-1.9002647949	-1.4355914152	-0.021498
C	-1.2704302834	-2.2538973493	-0.4843515903	-0.376673
H	 1.0160672374	 1.697322859	 0.3130318989	 0.114146
H	 0.5096844813	 2.0646830572	-1.3575064939	 0.108246
H	-0.6412180584	 2.2662576936	-0.0086983702	 0.13111
H	 1.0051558937	-0.1468171672	-2.0304259162	 0.077786
H	 2.663604701	-0.3696409442	-0.2796625634	 0.12758
H	 1.4577017041	-0.9758462346	 0.8651889765	 0.135537
H	 0.9120913294	-3.8039407783	-1.6340828242	 0.24853
H	-0.5099157824	-1.8621380859	-2.4601998115	 0.088694
H	-0.9289494316	-2.2897698948	 0.5542530876	 0.122746
H	-2.0681052172	-1.511745139	-0.5571861581	 0.136096
H	-1.6815228817	-3.2355181111	-0.7416252299	 0.108594
