22
gdb 103543	2.24851	1.41239	1.21738	1.5848	81.96	-0.2436	0.0254	0.269	1192.0835	0.193555	-404.379327	-404.369633	-404.368689	-404.41379	36.487	
C	 0.1590175622	 1.6436173104	 0.0436719902	-0.395874
C	 0.2339408499	 0.1129720767	 0.0246572156	-0.191971
C	 0.7211102258	-0.4935405343	-1.3113892723	 0.261292
C	-0.2005092263	-0.1153328459	-2.4755646314	-0.430288
N	 2.0945308042	 0.0124688983	-1.574248432	-0.290357
C	 2.8709364156	-0.9796834958	-1.452749477	 0.105041
O	 2.3717007703	-2.2063103932	-1.1837443197	-0.236881
C	 0.9240677115	-2.0523379979	-1.2525385975	 0.080231
C	 0.2880263752	-2.8514582443	-0.1293321718	-0.41173
H	 1.1121214067	 2.0788841956	-0.2660841786	 0.142287
H	-0.6209980446	 2.0242275363	-0.6222947438	 0.113812
H	-0.071782517	 1.9992301766	 1.052616492	 0.107153
H	 0.9181440206	-0.2137843578	 0.8162290717	 0.09912
H	-0.7491955248	-0.3086359889	 0.2678194895	 0.090954
H	-0.2455352166	 0.9677750673	-2.6045408658	 0.13142
H	 0.1688572065	-0.5460195272	-3.4108117279	 0.116559
H	-1.2177687041	-0.4863321424	-2.3038177034	 0.108831
H	 3.9522833146	-0.9458752742	-1.5390777067	 0.135026
H	 0.6197314349	-2.4850217548	-2.2143804062	 0.084309
H	 0.6045306872	-2.4958397525	 0.8536365256	 0.129603
H	-0.8029837937	-2.7884866401	-0.188710201	 0.123643
H	 0.5697676321	-3.9043515417	-0.2182065995	 0.12782
