20
gdb 126186	2.87074	1.21067	0.92361	2.0713	83.07	-0.1935	0.0384	0.2318	1320.626	0.171627	-399.366725	-399.356714	-399.35577	-399.402128	36.131	
C	 0.0398659307	 1.5792787172	 0.2572662994	-0.364986
C	-0.008265851	 0.0593170566	 0.0141678577	-0.303271
C	-1.3990298746	-0.4820294621	-0.1076828972	 0.301586
C	-2.200530281	-0.7233048574	-1.2116818104	 0.075153
C	-1.8880997698	-0.5333898914	-2.6628043577	-0.523939
C	-3.4250497094	-1.187563086	-0.6576714692	 0.29435
N	-4.5876271995	-1.4999240099	-1.368754851	-0.589068
N	-3.3955344505	-1.2384740031	 0.6685209935	-0.314875
N	-2.1513061992	-0.7895487153	 0.9794494885	-0.273725
H	 1.0737722444	 1.9273773172	 0.3461159359	 0.1134
H	-0.4349432877	 2.1201657607	-0.566440445	 0.128053
H	-0.4894872582	 1.8474788725	 1.1767880107	 0.118785
H	 0.545174719	-0.1820313544	-0.8991197491	 0.115789
H	 0.5148681145	-0.4571332402	 0.8292433331	 0.1046
H	-1.921438369	-1.4782964934	-3.2219785951	 0.116155
H	-2.6033121063	 0.1449604674	-3.143559305	 0.132827
H	-0.8886672133	-0.1128658795	-2.8072014196	 0.119578
H	-4.4067000106	-2.0447913792	-2.2022641608	 0.241037
H	-5.2574973473	-1.9792737221	-0.7797286745	 0.246567
H	-1.8775624512	-0.7511095474	 1.9453017558	 0.261983
