17
gdb 42375	2.80103	1.03122	0.79297	1.2911	74.16	-0.2624	0.0098	0.2722	1407.6659	0.135387	-418.03856	-418.029301	-418.028356	-418.074625	32.498	
O	-0.6160102931	 1.3117670735	-1.9908972867	-0.361949
C	-0.2342446872	 1.4281323346	-0.8461713372	 0.430175
C	 1.2543916164	 1.770881717	-0.5809157581	-0.458516
C	 1.6416843032	 1.8971514616	 0.8171627963	 0.265074
N	 1.8930324926	 1.9824526613	 1.9427390034	-0.313181
N	-1.0198233305	 1.2907704274	 0.2513399632	-0.339501
C	-2.4007807228	 0.9142063306	 0.1543141015	 0.057771
C	-3.3587071579	 1.4997755979	 1.1552483653	-0.295759
C	-3.410037027	 1.9387583543	-0.2867536373	-0.240621
H	 1.8535628879	 0.9928182731	-1.0638199203	 0.185553
H	 1.4666012139	 2.7038781788	-1.1119810048	 0.185625
H	-0.5919665536	 1.3210220827	 1.1646974459	 0.272447
H	-2.565618408	-0.1105435099	-0.1668162611	 0.11199
H	-4.1429111044	 0.8578272358	 1.5390610314	 0.125107
H	-2.9582887262	 2.2016880755	 1.8789726121	 0.12307
H	-3.0364979295	 2.9267118879	-0.5266762759	 0.126817
H	-4.2291706736	 1.5995800779	-0.9095901077	 0.125897
