17
gdb 44389	3.61535	1.55757	1.39249	3.7839	71.24	-0.2376	-0.0197	0.2179	948.259	0.13743	-421.807828	-421.801233	-421.800289	-421.838891	26.94	
O	 0.0221337144	 0.0194400919	-0.449961576	-0.302372
C	 0.0006521806	 1.1597518108	-0.0923629693	 0.431405
C	-1.1275813598	 2.1495877225	 0.2558714871	-0.363672
C	-0.0512965426	 3.2536869504	 0.4601344335	-0.040469
C	 0.3671757736	 3.5169757349	 1.9202238161	 0.064945
C	 1.8963108219	 3.7306344758	 1.8271587103	-0.228084
C	 1.7758310559	 2.2213654634	 1.5013790864	 0.063375
O	 0.6357747695	 2.1651926868	 2.4168901133	-0.297591
C	 1.0967474716	 2.2251057516	 0.1130219599	-0.173261
H	-1.8110319606	 2.3186072031	-0.5817096066	 0.126149
H	-1.7059824808	 1.8740888869	 1.1414456901	 0.138261
H	-0.1505257625	 4.1512609391	-0.1491510611	 0.081623
H	-0.287910876	 4.1021671354	 2.5655106272	 0.086406
H	 2.2969229885	 4.4118487289	 1.0717895544	 0.099814
H	 2.34843904	 3.8995206913	 2.8051535943	 0.11829
H	 2.5503948032	 1.4850405906	 1.7100854484	 0.097946
H	 1.778684203	 2.3958781167	-0.721783298	 0.097236
