16
gdb 129777	3.33441	1.52871	1.06942	4.4099	72.62	-0.2055	0.0298	0.2353	1072.7668	0.127712	-434.059702	-434.052332	-434.051388	-434.091291	28.841	
N	 0.0843397485	 1.3961319085	 0.0260730927	-0.598609
C	-0.0782110209	 0.0292948854	 0.0113628964	 0.299646
C	-1.1512936098	-0.8019070968	 0.0798208624	 0.097716
C	-2.6403837579	-0.949019909	 0.1793052647	-0.374177
C	-2.8040982174	-2.4760720875	-0.128138057	-0.160609
N	-1.4980270878	-3.0840413685	 0.2201710984	-0.395833
C	-0.5513066465	-2.0836078828	 0.0972536291	 0.445966
N	 0.7542729889	-2.0968876169	 0.0299906676	-0.305407
O	 1.0638709137	-0.6891169953	-0.0267118923	-0.232108
H	 0.965586649	 1.7020556971	-0.3631946507	 0.264823
H	-0.6997852511	 1.9148731965	-0.34049456	 0.260263
H	-3.0129372765	-0.717707643	 1.1851330843	 0.121943
H	-3.218177752	-0.3458279677	-0.527588969	 0.109318
H	-3.6076805772	-2.9339122414	 0.4547006941	 0.113652
H	-3.0339175318	-2.6151387645	-1.1941998101	 0.105952
H	-1.2882149011	-3.9817912141	-0.1916040409	 0.247463
