17
gdb 70119	2.39405	1.75726	1.31943	1.0096	72.23	-0.2452	-0.0354	0.2098	1003.2779	0.135403	-417.999456	-417.991331	-417.990387	-418.03239	30.156	
C	-0.2045611001	 1.3394859069	 0.2113775402	-0.49151
C	 0.0076221632	-0.1415926601	 0.047257055	 0.343819
C	 0.4225664815	-0.9931414015	 1.1860824808	-0.280053
N	 1.3968224144	-0.6785224487	 0.0951249155	-0.165579
C	 1.3664922447	-1.7028412568	-0.8930609107	 0.036803
N	 0.3233486655	-1.856740385	-1.6076619012	-0.223229
C	-0.6558438614	-0.8613264828	-1.1324419946	-0.140133
C	-1.9994514486	-1.5191915393	-0.8494084451	 0.150103
O	-2.6981345427	-1.2390595878	 0.0894325022	-0.241937
H	 0.4371403715	 1.74304495	 0.9986015757	 0.131267
H	 0.0188595095	 1.873171865	-0.7187174438	 0.124368
H	-1.2479012502	 1.5356510131	 0.4790395328	 0.142829
H	 0.6560655548	-0.528671792	 2.1388814145	 0.129291
H	 0.0581914826	-2.0144662246	 1.2459614782	 0.132762
H	 2.2557348696	-2.3148870935	-1.0157425178	 0.133289
H	-0.8483737458	-0.1484806669	-1.9523967066	 0.115151
H	-2.2954629084	-2.2816110956	-1.600670825	 0.10276
