13
gdb 29113	3.11887	1.47809	1.00295	4.6787	65.8	-0.2077	-0.0441	0.1636	1069.0523	0.089018	-489.918718	-489.910651	-489.909707	-489.952254	29.057	
O	 0.0276629276	 1.3831194471	-0.0077447626	-0.41454
C	-0.0703896225	 0.0439711976	 0.0683413628	 0.415696
C	-1.1758089907	-0.6576743595	-0.1758259118	-0.184872
N	-1.1339226031	-2.0528422642	-0.0251315503	-0.361199
C	-0.0293730955	-2.7729100774	 0.3362129387	 0.37598
O	-0.0232059373	-3.9777236274	 0.4555380577	-0.339548
C	 1.2115771279	-1.9297763926	 0.5810776425	 0.275098
N	 2.3042799481	-2.4637830708	 0.9032140348	-0.453503
O	 1.1012764205	-0.5486095784	 0.4440693858	-0.273471
H	 0.9575013049	 1.6191189225	 0.0919608378	 0.311856
H	-2.1025924684	-0.2009845396	-0.4809124848	 0.146164
H	-1.9659341459	-2.5978899376	-0.192373933	 0.269214
H	 3.0316494245	-1.7582987897	 1.0312155223	 0.233126
