20
gdb 11040	3.80861	1.65717	1.38656	1.1813	74.16	-0.2494	0.0835	0.3329	969.9154	0.177865	-349.010298	-349.002456	-349.001511	-349.041776	31.398	
C	-0.0197349061	 1.5634453697	 0.0168353758	-0.396493
C	 0.0456014159	 0.0353559339	 0.0264918286	 0.036396
C	 0.7860385051	-0.5670663516	-1.1967298557	-0.23566
C	 1.300378503	-1.9457838878	-0.7319921518	-0.280402
C	 1.5280707757	-1.7852077827	 0.7665334343	 0.41014
O	 1.5281340744	-2.936602527	 1.5582444658	-0.475476
C	 2.2862069056	-0.566416042	 1.2318271872	-0.358092
C	 0.7638302706	-0.57656276	 1.2246826854	-0.073205
H	 0.9855047546	 1.9981107359	 0.0527788432	 0.11238
H	-0.5124848889	 1.9328047439	-0.8893750024	 0.108811
H	-0.5778841838	 1.94495312	 0.878297652	 0.110998
H	-0.9817689049	-0.3550858979	 0.0338285341	 0.072694
H	 0.1418248433	-0.6330302605	-2.0778576433	 0.097146
H	 1.6269228238	 0.0794518433	-1.4732534512	 0.099186
H	 0.5347221342	-2.7183821754	-0.8693377911	 0.105847
H	 2.1942635047	-2.269112237	-1.2787331161	 0.08587
H	 2.3826513341	-3.3686685735	 1.4528332337	 0.279172
H	 2.7483232879	-0.6478993458	 2.2095937432	 0.109354
H	 2.8359685121	 0.0450057458	 0.5228515901	 0.104683
H	 0.2673627788	-0.5865881811	 2.1888809883	 0.086652
