19
gdb 38032	3.5673	1.50563	1.21716	1.6051	80.06	-0.2261	0.0093	0.2354	1041.6878	0.162508	-385.880529	-385.873594	-385.87265	-385.911787	28.31	
C	 0.0545014204	 1.5268755312	 0.0615680876	-0.283073
C	 1.3685116234	 0.7719593431	-0.0245144303	-0.063255
C	 1.9759565962	 0.4874916853	 1.3143864674	-0.248286
C	 1.2104054965	-0.3537332193	 2.0098045297	 0.288239
C	 1.0058780902	-0.7378935707	 3.4439041924	-0.166818
O	-0.3821548762	-1.1049161839	 3.5259136562	-0.27214
C	-1.0622356336	-0.708575671	 2.3269180581	-0.097337
C	 0.0020469195	-0.8291125786	 1.2278685271	-0.07091
C	 0.0346386174	 0.0217438047	-0.0327951065	-0.080163
H	-0.187257523	 2.0133545623	 1.0005888744	 0.113103
H	-0.2748551828	 2.0645279726	-0.821807108	 0.110837
H	 1.9822873805	 0.8806776441	-0.9121413848	 0.086874
H	 2.8535551357	 1.0078392793	 1.6820931096	 0.095556
H	 1.6012760996	-1.6065588077	 3.7554121612	 0.112447
H	 1.2280722646	 0.086535327	 4.136207052	 0.107136
H	-1.9184885628	-1.3777621056	 2.2086270621	 0.106317
H	-1.4312643107	 0.3258087212	 2.4041538122	 0.090879
H	 0.1023927504	-1.8922391147	 0.9667903869	 0.08455
H	-0.3349086153	-0.4098288795	-0.9549709272	 0.086043
