23
gdb 58248	2.66971	0.96599	0.90448	0.8903	82.21	-0.257	0.0646	0.3216	1474.4865	0.202596	-425.412466	-425.40147	-425.400526	-425.448936	39.993	
C	 0.0599043794	 1.3856038496	 0.4369831301	-0.418536
C	 0.0253730959	-0.0365996284	-0.1433552656	 0.036751
C	-1.380502667	-0.6395739949	-0.0315597331	-0.397439
C	 0.5193805875	-0.1004188128	-1.6064539515	 0.086209
O	-0.2694826601	 0.6842044189	-2.4980546378	-0.436247
C	 1.9811037921	 0.2880965928	-1.7478209438	 0.03177
O	 2.9472582777	-0.5100658566	-1.057917391	-0.267654
C	 2.9928949331	-0.478724384	-2.4931185958	 0.079338
C	 2.7419608678	-1.7700602417	-3.2266686283	-0.421326
H	 1.0640556953	 1.8199588055	 0.4157274684	 0.121898
H	-0.6188182612	 2.0573642081	-0.1035471233	 0.106103
H	-0.2707574747	 1.378349873	 1.479861094	 0.120952
H	 0.7248343422	-0.6562845173	 0.4317645655	 0.09544
H	-2.0859086378	-0.0880758706	-0.6609529618	 0.124673
H	-1.3916371465	-1.6853537596	-0.3566264236	 0.109914
H	-1.7429000454	-0.6054452811	 1.0007677039	 0.10696
H	 0.3860079224	-1.1292629613	-1.9530922863	 0.084327
H	-0.185027873	 1.6073321212	-2.2358196204	 0.282293
H	 2.1558026949	 1.364769925	-1.6563094576	 0.077862
H	 3.8378071402	 0.0957475056	-2.8799459395	 0.087856
H	 1.9176188696	-2.3353700683	-2.7881166077	 0.131601
H	 2.5104915106	-1.5712674431	-4.2784952428	 0.128404
H	 3.6368057271	-2.4001821597	-3.192214952	 0.128851
