19
gdb 90567	2.73674	1.35905	1.13039	3.5325	76.77	-0.205	0.0247	0.2297	1138.5155	0.159218	-419.174085	-419.165208	-419.164264	-419.209072	32.385	
C	-0.3607167486	 1.8205901397	 1.3369794376	-0.322957
N	-0.162391917	 0.4175107486	 1.0213683799	-0.067354
C	 0.2868670398	-0.0164163005	-0.3204353535	-0.177575
C	 1.3205349542	-0.9481995996	 0.328113795	-0.180131
C	 2.2788091691	-0.1663512089	 1.1794293793	 0.046347
N	 2.8200129603	 1.0871954333	 0.7440501227	-0.288923
C	 3.2833162267	 2.0276225025	 1.6159337495	 0.149081
O	 3.181038288	 1.9675667696	 2.8207807828	-0.316676
C	 0.8653640812	-0.372375136	 1.6729937034	-0.014924
H	 0.4693666424	 2.4771709081	 1.0379850859	 0.103789
H	-1.2740303453	 2.1762417526	 0.8465823636	 0.114371
H	-0.4996229246	 1.9234260909	 2.4172946057	 0.131971
H	-0.4989005348	-0.5405107994	-0.8749342994	 0.1112
H	 0.6951819918	 0.7806806095	-0.9581334728	 0.083549
H	 1.5013063491	-1.9753859698	 0.0412739171	 0.100179
H	 2.9877881472	-0.7947531934	 1.7175112398	 0.11029
H	 3.0637059438	 1.189335238	-0.2300999092	 0.246557
H	 3.7618273816	 2.8769524495	 1.0861705042	 0.071119
H	 0.674377355	-0.8552493145	 2.6259741486	 0.100087
