16
gdb 49984	3.80662	0.93795	0.85899	3.4549	73.11	-0.2499	-0.0304	0.2195	1322.0997	0.122623	-437.897886	-437.889503	-437.888558	-437.931512	30.827	
O	-0.0711012172	-0.0152643662	-0.3019795315	-0.260453
C	 0.0162340345	 1.141064752	 0.0278025316	 0.167341
C	 1.2741102167	 1.9193420758	 0.0563468125	-0.177845
C	 1.2089902681	 3.4389793366	-0.1804564517	-0.363756
C	 1.5004265681	 2.9255316177	 1.174090117	 0.403652
C	 0.7307337071	 3.101499784	 2.4970272498	-0.483575
C	 2.1387064941	 3.2311551473	 3.141009897	 0.443594
O	 2.5789369139	 3.4065680127	 4.2412385371	-0.346984
N	 2.7366476624	 3.0636999121	 1.9072359916	-0.381119
H	-0.8832991486	 1.7202264474	 0.3466160816	 0.067843
H	 2.1454752406	 1.3893830843	-0.3145535461	 0.112798
H	 2.0125141391	 3.8719697799	-0.7659806261	 0.134986
H	 0.2293883622	 3.8687143201	-0.3686144868	 0.135524
H	 0.1212595215	 4.0037092379	 2.56996281	 0.142286
H	 0.1640117148	 2.2353506097	 2.8416823237	 0.147644
H	 3.7045694027	 3.0410940187	 1.6212851504	 0.258063
