20
gdb 56176	3.66128	0.81297	0.78714	3.4806	76.81	-0.2394	0.0604	0.2998	1534.6008	0.171239	-436.48527	-436.475343	-436.474399	-436.521143	36.467	
C	-1.3262833823	 1.0660296917	-1.1136530995	-0.462155
C	-0.4268595987	 0.1148030179	-0.3538163607	 0.327767
C	-1.1082601059	-0.7290143189	 0.7089951266	-0.194603
N	-1.5315633379	 0.0967188615	 1.825834842	-0.336713
C	-2.7342377	-0.1150034197	 2.4591835908	 0.451618
N	-2.8884334859	 0.6201124262	 3.6316792441	-0.565325
O	-3.5865769234	-0.8846810047	 2.0541980946	-0.393984
C	 0.7941245245	-0.4144077363	-1.008814833	-0.284879
N	 0.9097187234	 0.5859353512	 0.0735514536	-0.358727
H	-0.7537923642	 1.6656893498	-1.8288159322	 0.107971
H	-2.0948486793	 0.5194538592	-1.6707989118	 0.130632
H	-1.8377531154	 1.7449329542	-0.4237718016	 0.128096
H	-2.0044348959	-1.2171412983	 0.3194577423	 0.143265
H	-0.4168251297	-1.5128202404	 1.0446436526	 0.102152
H	-0.7887373673	 0.5515036354	 2.3339033998	 0.246009
H	-2.4280099355	 1.5166927056	 3.6844640225	 0.244266
H	-3.8471288829	 0.6365450611	 3.9454361004	 0.258585
H	 1.1670696424	-1.4040368835	-0.7584825258	 0.118109
H	 1.0013825344	-0.1006064228	-2.0285451314	 0.111609
H	 1.0976959194	 1.4997530909	-0.3323749034	 0.226307
