21
gdb 76794	1.99909	1.7687	1.16752	1.0736	78.37	-0.2442	0.0554	0.2996	1138.1617	0.181463	-424.199664	-424.190205	-424.189261	-424.2336	36.238	
C	-0.7684034321	 1.1602805706	-0.1154152634	-0.406939
C	-0.0247042485	-0.1671438331	-0.1282766338	-0.067861
C	 1.2988082314	-0.2673880867	-0.9418309081	 0.044361
O	 1.8982414082	 1.0126520032	-1.0810167	-0.432111
C	 1.9479310113	-1.0573939565	 0.246835833	 0.055212
O	 3.2419433394	-0.659188772	 0.6162776332	-0.438906
C	 0.7593720469	-0.6195669247	 1.1193806842	 0.317315
C	 0.9141210861	 0.1306093189	 2.4118860494	-0.318823
C	 0.2690497104	-1.2353164754	 2.3925682552	-0.342303
H	-0.0990268278	 1.9839163883	 0.1416689251	 0.131867
H	-1.2038052241	 1.3753694393	-1.0967085347	 0.114603
H	-1.5870968244	 1.1387128357	 0.6124356734	 0.109716
H	-0.6997668718	-0.9668250741	-0.4565001096	 0.073083
H	 1.2396363138	-0.7778903496	-1.9107514779	 0.059855
H	 2.7209456197	 0.8911308641	-1.5666323249	 0.290642
H	 1.984555629	-2.137912559	 0.0769668603	 0.083619
H	 3.2185555069	 0.3070410748	 0.6241829987	 0.277544
H	 1.9172879029	 0.2114748755	 2.818484677	 0.116349
H	 0.282600212	 0.9946537973	 2.5905166423	 0.112043
H	-0.8035645244	-1.2927715087	 2.5535298089	 0.107711
H	 0.8272214652	-2.0712888979	 2.8033324716	 0.113024
