20
gdb 9404	5.86379	0.78835	0.72296	2.8999	73.	-0.2529	-0.0261	0.2267	1585.7926	0.1732	-386.148934	-386.138739	-386.137795	-386.185145	34.625	
C	 0.115432279	 1.5007929504	-0.139905338	-0.383836
C	 0.0011301067	-0.0105660548	 0.0725282452	-0.18142
C	-1.422470868	-0.5174153636	-0.1144939606	-0.04006
O	-1.4317518216	-1.9176524047	 0.0970252436	-0.263932
C	-2.7094307794	-2.5176299539	 0.126750196	 0.045354
C	-3.3743985081	-2.6689680351	-1.2418719584	-0.404435
C	-2.5153252973	-3.8656987509	 0.8163561508	 0.148076
O	-3.2836873239	-4.7869990437	 0.733582013	-0.246015
H	 1.1460304899	 1.8389481345	-0.0004602397	 0.120201
H	-0.1934050221	 1.787289102	-1.1512760351	 0.117808
H	-0.5131956894	 2.0531282366	 0.56732676	 0.117249
H	 0.6538679334	-0.5436369418	-0.6281487242	 0.109731
H	 0.3371213493	-0.2813170156	 1.0799438308	 0.106839
H	-2.1038306506	-0.025000147	 0.6009476092	 0.085105
H	-1.7818389946	-0.2704641204	-1.1258487857	 0.092438
H	-3.3775946325	-1.9367491039	 0.7925302075	 0.09228
H	-4.2593319933	-3.3017445594	-1.140629263	 0.144031
H	-3.6774712675	-1.7025526716	-1.6517145688	 0.118232
H	-2.6836016865	-3.147150586	-1.9424153118	 0.130034
H	-1.5880515136	-3.9126385113	 1.428259659	 0.092319
