15
gdb 125716	3.11697	1.47974	1.00991	6.2461	74.77	-0.2305	-0.0658	0.1647	1116.3409	0.11241	-450.121996	-450.11366	-450.112716	-450.155026	31.074	
C	-0.0271173285	 1.4636914248	-0.0312891397	-0.502119
C	-0.0074242798	-0.0363016975	 0.0195064303	 0.317597
N	-0.0569358681	-0.6604834953	-1.1030266825	-0.10719
O	-0.0345686826	-2.03210422	-1.0789689229	-0.279798
C	 0.0413079597	-2.7687342678	 0.1323276518	 0.44242
N	 0.0609779027	-4.0313725998	 0.0617661512	-0.526391
N	 0.0845487175	-2.0792646858	 1.3167015707	-0.350011
C	 0.0682190989	-0.7867320413	 1.2815596491	 0.343578
N	 0.1514094635	-0.0895738761	 2.4414625691	-0.558948
H	 0.8702686764	 1.8876945792	 0.4337770702	 0.144678
H	-0.0687022011	 1.7888707916	-1.071689314	 0.164361
H	-0.9014294008	 1.8700376997	 0.4920059954	 0.13846
H	 0.0178719087	-4.3293995059	-0.9122971809	 0.226166
H	 0.1072636998	-0.6181400736	 3.2985321014	 0.277387
H	-0.0455435364	 0.8939044878	 2.4758442009	 0.26981
