21
gdb 122203	3.65256	0.75634	0.71637	1.5864	75.73	-0.2508	0.058	0.3088	1661.1869	0.179969	-461.323008	-461.312799	-461.311854	-461.359168	36.118	
C	 0.0294430627	 1.3363444068	 0.125095145	-0.227663
O	 0.0266532944	-0.0662187478	 0.022880786	-0.231019
C	 0.6454080055	-0.5296730406	-1.1583369408	-0.061121
C	 0.5434667279	-2.0505699367	-1.1760550652	-0.230437
C	 1.2574903663	-2.6897562793	-2.3587978518	 0.328511
O	 0.7002715829	-2.1485155749	-3.5334707831	-0.473874
C	 2.8083539111	-2.7360144085	-2.2505519922	-0.127478
O	 2.7753120604	-4.1386535112	-1.9272964811	-0.269119
C	 1.3786540721	-4.2338239796	-2.2672998972	-0.13034
H	 1.0532213028	 1.7441116129	 0.1458931542	 0.100978
H	-0.5079505988	 1.8093703968	-0.7124370495	 0.103391
H	-0.4725553711	 1.598851158	 1.0596774073	 0.125584
H	 0.1572991207	-0.1052541335	-2.0480513599	 0.106964
H	 1.7026460597	-0.209830873	-1.1860553521	 0.079815
H	 0.9662548652	-2.4494922589	-0.2478973068	 0.117786
H	-0.5142241933	-2.335940903	-1.2015580147	 0.114001
H	 1.1477026623	-2.5368309513	-4.2928767025	 0.281206
H	 3.3139910034	-2.5406301167	-3.2087959657	 0.087032
H	 3.2881879053	-2.1406715055	-1.465863754	 0.109396
H	 0.7942105128	-4.7451193996	-1.4941303698	 0.109637
H	 1.2178901476	-4.7358961144	-3.233590446	 0.086751
