20
gdb 38273	3.03835	1.70619	1.3707	1.7989	78.2	-0.2349	0.0771	0.3119	996.1404	0.174664	-403.070003	-403.063233	-403.062289	-403.100774	28.897	
C	-0.0088468723	 1.5874509152	 0.1511886575	-0.248625
N	 1.4820588982	 1.2384695234	 0.0634525782	-0.176748
C	 1.1163543113	 0.0485385266	 0.9912566952	-0.242749
C	-0.0127899995	 0.0427797149	-0.0507656823	 0.387431
O	-1.0727166689	-0.8133483182	-0.2822086361	-0.299405
C	-1.6071699494	-0.534490235	-1.5877749367	-0.092001
C	-0.5467822058	-0.4667895493	-2.7078284354	-0.205374
C	 0.544043303	 0.6098977993	-2.4588058928	-0.285613
C	 1.0886053313	 0.2592577519	-1.0819447483	 0.041074
H	-0.3036240242	 1.9696073164	 1.1312988751	 0.101249
H	-0.3598787747	 2.2469271605	-0.6415253563	 0.102425
H	 1.8437016211	-0.7665188251	 0.9636523681	 0.105797
H	 0.890062729	 0.3618656167	 2.0128538183	 0.104685
H	-2.320531129	-1.3365253256	-1.7916243377	 0.112304
H	-2.166782318	 0.4134096899	-1.5537534877	 0.096578
H	-0.0693741892	-1.4507683482	-2.7960302489	 0.110413
H	-1.0664008822	-0.2787863538	-3.6538980102	 0.102846
H	 1.3136001117	 0.5707458968	-3.2355657365	 0.10289
H	 0.0992549231	 1.6077593326	-2.5023857371	 0.109919
H	 1.8247858645	-0.5481494591	-1.1572266466	 0.072905
