22
gdb 88442	2.17387	1.40789	1.12215	2.6972	82.57	-0.2449	0.068	0.3129	1236.73	0.191903	-404.314613	-404.304472	-404.303528	-404.35049	37.614	
C	 0.9329644209	 3.6415217401	 0.5983979869	-0.385301
C	 0.5907502534	 2.2948645038	 0.0087341781	 0.017604
N	 1.7107550283	 1.4597706642	-0.4496023776	-0.343165
C	 0.8610106009	 0.9756398764	 0.6538682724	-0.129189
C	 1.5229576307	 0.7579013846	 1.9934695042	 0.395417
C	 2.8243043107	-0.012780032	 1.9400640001	-0.455738
O	 1.5136284163	 1.8553984396	 2.9254246354	-0.292791
C	 0.6991577752	 0.714845153	 3.2182097463	 0.029288
C	-0.7947485192	 0.9192179182	 3.2532627209	-0.427239
H	 1.840410947	 3.5894542182	 1.1989854736	 0.145471
H	 1.0842277937	 4.3683983998	-0.2075506037	 0.107426
H	 0.123443205	 4.0055802547	 1.2384243067	 0.114722
H	-0.2942092605	 2.3045170056	-0.6291874861	 0.07769
H	 1.4815967355	 0.9783627794	-1.3143546129	 0.228334
H	 0.1560335739	 0.1816495693	 0.403525629	 0.083844
H	 3.5434889179	 0.5172387692	 1.3103832057	 0.145415
H	 3.2417760118	-0.1314151253	 2.9428981623	 0.119622
H	 2.6680562216	-1.006307456	 1.5046007028	 0.112133
H	 1.0877319942	 0.1080143376	 4.0398748858	 0.079659
H	-1.1453554463	 1.478628277	 2.3838302398	 0.130165
H	-1.3100981763	-0.0475725264	 3.2780760226	 0.118526
H	-1.0804602948	 1.4712054691	 4.1549432476	 0.12811
