15
gdb 20833	4.89532	1.59355	1.31432	2.247	69.02	-0.2336	-0.0703	0.1633	934.5426	0.120226	-358.861156	-358.854052	-358.853108	-358.893431	25.458	
C	-0.0169261145	 1.5306981533	 0.0894061127	-0.380568
C	-0.0293890947	 0.0021728054	-0.0830555506	-0.247742
C	-1.4245011542	-0.5554278344	-0.0294352309	 0.388447
N	-2.0423708713	-0.5742851398	 1.1657215027	-0.260141
C	-3.2731465026	-1.0587571298	 1.1581828018	-0.00865
C	-3.8560195953	-1.5061966561	-0.0276700531	 0.014819
N	-3.1973698736	-1.4589479697	-1.1807904586	-0.166742
N	-1.95837418	-0.9759152989	-1.1839774219	-0.229148
H	 1.009496556	 1.9077951628	 0.0822299466	 0.120811
H	-0.5646425466	 2.0202184913	-0.7217498554	 0.12834
H	-0.4814070087	 1.8151895078	 1.0378125631	 0.134562
H	 0.4151892669	-0.279230235	-1.040260403	 0.126354
H	 0.5558493629	-0.4581133881	 0.7201680825	 0.120659
H	-3.8082237262	-1.0962025876	 2.1048736533	 0.129278
H	-4.8628990981	-1.909595371	-0.0625271091	 0.129719
