25
gdb 112612	3.39196	0.81017	0.76919	1.2621	89.38	-0.2605	0.0763	0.3368	1643.8045	0.227497	-389.486563	-389.475862	-389.474918	-389.522276	40.22	
C	-0.3230777662	 1.4183689598	-0.0399797947	-0.38818
C	 0.0683838015	-0.0634770896	-0.0044764126	-0.236239
C	 0.8429880605	-0.500083987	 1.2441295562	 0.369141
C	 2.1921948238	 0.2137883023	 1.3684597159	-0.447044
C	 0.0428862169	-0.4756384366	 2.5902854047	-0.295031
C	 0.5614114927	-1.9042484297	 2.9058483015	 0.058577
C	-0.4324508758	-2.9040322252	 3.4573935012	-0.097436
O	 0.2138220115	-4.1664912827	 3.5443935895	-0.422961
C	 0.9958214562	-2.0455787844	 1.4226917132	-0.276342
H	 0.5524432604	 2.0727141561	-0.0899436914	 0.117352
H	-0.9443574	 1.6360757973	-0.9143755958	 0.110591
H	-0.896533415	 1.6985300091	 0.8507361445	 0.116092
H	-0.8423393485	-0.6725131785	-0.074180015	 0.084675
H	 0.6637518478	-0.3073172143	-0.8955463128	 0.089961
H	 2.0706815134	 1.2959110746	 1.4830754618	 0.112237
H	 2.75156446	-0.1459993945	 2.2385909	 0.112088
H	 2.811451569	 0.0358220752	 0.4812533849	 0.109122
H	 0.2877796049	 0.3161333943	 3.3037570155	 0.091717
H	-1.039786958	-0.4629025524	 2.4201024033	 0.087934
H	 1.4308338407	-1.8769561538	 3.5696768414	 0.077348
H	-0.7897312178	-2.5680639248	 4.4457220645	 0.081401
H	-1.3113570669	-2.9518707475	 2.7920071612	 0.075731
H	-0.4244750683	-4.8109532955	 3.8634786431	 0.285226
H	 0.2589622459	-2.6042379185	 0.835676762	 0.088947
H	 1.9835557312	-2.4711829737	 1.228226758	 0.095093
