15
gdb 23097	2.2957	1.65063	0.96797	2.9974	83.63	-0.185	-0.0245	0.1605	1145.2164	0.112035	-416.742988	-416.734512	-416.733568	-416.775926	31.846	
O	 0.0494969005	 1.2833892201	-0.0676972323	-0.388104
N	 0.071793512	-0.1174953325	-0.0459562895	-0.27892
C	-1.102027192	-0.6207156687	 0.0084190815	 0.298323
C	-1.2567502994	-2.137769827	 0.0382345424	-0.235848
N	-2.7010652432	-2.3265865909	-0.1481550826	-0.297049
C	-3.3199817744	-1.1116461509	-0.0194643628	-0.093951
C	-2.4587906777	-0.0525536238	 0.0328934033	 0.064716
C	-2.8603666163	 1.3001081084	 0.0699447474	 0.221045
C	-3.2641429614	 2.4346878361	 0.1133191995	-0.442455
H	 0.9865261502	 1.4978593102	-0.1206921847	 0.303677
H	-0.6824239214	-2.6275579101	-0.752627315	 0.14217
H	-0.9293375613	-2.5475119169	 1.002462168	 0.133963
H	-3.1403870291	-3.1473089391	 0.2382244244	 0.253874
H	-4.4008671637	-1.0581900248	-0.0101738767	 0.139703
H	-3.5931448628	 3.4429756299	 0.1460917969	 0.178855
