24
gdb 123036	5.26401	0.52849	0.50384	1.9811	88.34	-0.2219	0.0873	0.3092	2265.7331	0.215237	-405.507207	-405.496154	-405.495209	-405.544707	38.776	
C	 0.1761124415	 1.3476380275	 0.1696869389	-0.226435
O	 0.0633820952	-0.0509860687	 0.2529488041	-0.229102
C	-1.2209416594	-0.5201831524	-0.0960124552	-0.050617
C	-1.2312271317	-2.0378532187	 0.0194525209	-0.19167
C	-2.5939403901	-2.6446727579	-0.3188987911	-0.144465
N	-2.5227755014	-4.0989682746	-0.2371171318	-0.079168
C	-2.866989363	-4.7277068171	 1.0348911886	-0.25413
C	-3.7490025392	-4.8952941356	-0.1560560392	 0.030443
C	-5.1393663769	-4.2981839326	-0.2008153516	-0.411927
H	 1.1966124094	 1.6130909422	 0.4570611261	 0.125399
H	-0.0112642198	 1.7149142143	-0.852487345	 0.100977
H	-0.5273184964	 1.857749203	 0.8479263709	 0.100056
H	-1.9833410248	-0.0743626979	 0.5681079519	 0.079448
H	-1.4754215089	-0.208369815	-1.1249881379	 0.081525
H	-0.4713914167	-2.4588510772	-0.6464105621	 0.116933
H	-0.947658395	-2.3158087883	 1.0412128224	 0.107499
H	-3.3611331669	-2.2098266788	 0.344826956	 0.079333
H	-2.8746771683	-2.3797471025	-1.346486617	 0.099934
H	-2.2116926821	-5.5269101184	 1.372065955	 0.111882
H	-3.2415817426	-4.0846056731	 1.8322428267	 0.101315
H	-3.6643856676	-5.8302335261	-0.7097126264	 0.088308
H	-5.2403679692	-3.4174804574	 0.4377065175	 0.12027
H	-5.4152066155	-4.0117789454	-1.2220258088	 0.121912
H	-5.8703938106	-5.0385553592	 0.1411655072	 0.12228
