15
gdb 133688	3.07405	0.99933	0.9044	3.0353	56.21	-0.2596	0.015	0.2746	1252.7508	0.107996	-585.477865	-585.468682	-585.467738	-585.513305	31.411	
C	-0.0998718496	 1.4523229624	 0.0064523146	-0.35351
N	 0.0270199929	 0.0006240714	-0.0232112167	-0.034352
C	 0.0059223799	-0.7413513534	 1.2103551093	-0.329453
C	-1.4031929123	-0.9840234698	 1.7505810833	 0.286459
F	-2.1547030687	-1.6438462558	 0.8622455358	-0.070582
F	-1.3455787696	-1.714380631	 2.8726820525	-0.069738
F	-2.0331471813	 0.1642928022	 2.042504801	-0.075686
C	 0.11202789	-0.655183503	-1.2241822113	 0.160486
O	 0.0965610096	-0.126008391	-2.3115373041	-0.32868
H	 0.6690779991	 1.885388459	 0.6560650687	 0.127184
H	 0.0376911796	 1.8109049347	-1.0133150219	 0.172888
H	-1.0831133826	 1.7614580326	 0.3713669217	 0.144229
H	 0.4602188045	-1.7252630395	 1.0617397592	 0.14928
H	 0.5757542702	-0.2201796307	 1.9867595815	 0.140905
H	 0.2118005083	-1.7492625781	-1.0860552735	 0.080569
