19
gdb 98973	3.24011	0.87303	0.72435	2.1203	73.92	-0.2514	-0.0208	0.2306	1587.3072	0.157541	-456.382314	-456.371761	-456.370817	-456.419653	36.08	
C	 0.5979728607	-0.0068861633	 0.8790213264	-0.381778
C	-0.1199144185	 0.4008894508	-0.4175465532	-0.237541
C	 0.7087895101	 0.1579360521	-1.6480213623	 0.397097
N	 1.1444347346	 1.0669654625	-2.3971860511	-0.488912
O	 0.8991487745	-1.2386065263	-1.7857310804	-0.269276
C	 1.6285962767	-1.8128337039	-2.7786405356	 0.421292
O	 2.1953456194	-1.22763171	-3.6652433686	-0.340776
C	 1.6277836874	-3.3304594965	-2.6089189376	-0.271765
N	 2.3716010164	-4.067170386	-3.6104931221	-0.485085
H	 0.8485268352	-1.0707921266	 0.8722830218	 0.127286
H	 1.5233130218	 0.5625918492	 1.0078959011	 0.130838
H	-0.0420054554	 0.1864565793	 1.7442720226	 0.122392
H	-1.055523074	-0.1633750907	-0.5107458872	 0.118128
H	-0.3652921893	 1.4644027805	-0.407268821	 0.133504
H	 1.690331189	 0.6921980462	-3.1711141441	 0.258441
H	 2.0195578426	-3.5526510265	-1.6090582561	 0.143931
H	 0.5829095852	-3.6627009449	-2.5940239282	 0.144356
H	 2.0059150074	-3.8462259557	-4.5323984701	 0.238926
H	 3.3337717963	-3.7408326803	-3.6234758442	 0.238942
