14
gdb 48314	2.19558	1.9797	1.1852	3.3417	66.9	-0.2709	-0.0688	0.2021	988.6776	0.099304	-436.619129	-436.611469	-436.610525	-436.651653	28.053	
O	-0.2721907873	 0.0874831252	-0.3047470601	-0.238002
C	-0.0344379095	 1.1419755999	 0.2211857048	 0.08575
C	 1.2656706115	 1.9210949216	 0.0417462474	 0.070274
C	 1.6170875501	 2.5857959163	 1.288820178	 0.238823
N	 1.815706917	 3.074047957	 2.3174043072	-0.317049
C	 2.4561489178	 1.3572918932	-0.8015871374	 0.026224
C	 1.6441391	 1.5196241389	-2.1074508441	-0.243085
C	 1.5050958246	 2.8021978578	-1.2621658974	 0.018903
O	 2.9433481906	 2.7483119075	-0.9751293807	-0.289962
H	-0.7642751858	 1.6389395051	 0.8933402235	 0.117436
H	 3.1739659735	 0.5977372151	-0.498056013	 0.129339
H	 2.2640785131	 1.6546965535	-2.9926225587	 0.128799
H	 0.7802433524	 0.8787654771	-2.2674087482	 0.14481
H	 1.059509282	 3.7710921918	-1.4831403315	 0.127739
