21
gdb 92346	2.46222	1.68982	1.62742	1.4754	76.03	-0.2468	0.0765	0.3233	990.1638	0.185879	-424.247665	-424.24012	-424.239176	-424.279221	30.79	
C	-0.1368428043	 1.5527915315	 0.017352398	-0.401412
C	-0.0462204156	 0.0168134039	 0.0057835638	 0.023842
C	 0.5300777133	-0.5602967468	-1.3194068224	-0.228069
C	 2.0500820259	-0.7724477741	-1.2862412752	 0.060294
C	 2.8714759366	 0.4796717169	-0.9492705578	-0.093488
O	 2.8217881747	 0.5281434105	 0.478864506	-0.275464
C	 2.2274700922	-0.6984355456	 0.9137221959	 0.198116
C	 0.7412259452	-0.5192247665	 1.2309250588	-0.234489
O	 2.3749646286	-1.6012585324	-0.1620599293	-0.254923
H	 0.8477421221	 2.0220802775	 0.0690206386	 0.140427
H	-0.6570383937	 1.9239360263	-0.8724242617	 0.104126
H	-0.7012512513	 1.8896878685	 0.8937405366	 0.110005
H	-1.0745079403	-0.3536766902	 0.0878618912	 0.075101
H	 0.082948908	-1.5419209799	-1.5118168476	 0.105158
H	 0.2563499387	 0.0831581589	-2.1641878868	 0.093661
H	 2.4002214931	-1.2787834557	-2.1885817135	 0.082989
H	 3.912138855	 0.3726143871	-1.279676794	 0.104832
H	 2.4564446087	 1.4010975832	-1.368630287	 0.103401
H	 2.7942882357	-1.0829858019	 1.7673496083	 0.084445
H	 0.6216673313	 0.1545532221	 2.0860977212	 0.100332
H	 0.362906336	-1.5016496233	 1.5359874172	 0.101116
