16
gdb 25484	5.03835	0.98166	0.83664	3.1294	82.68	-0.2394	-0.0128	0.2266	1324.2069	0.12636	-400.81179	-400.804304	-400.80336	-400.84437	28.261	
N	-2.453531031	 1.1781401903	-0.149790282	-0.427795
C	-2.2572978575	-0.0007772849	 0.248123185	 0.105333
O	-1.2254508411	-0.7149209844	-0.2689255411	-0.220044
C	-1.1752078775	-2.0734150324	-0.0340037174	 0.394138
C	 0.0775042071	-2.619640617	 0.2359592818	-0.201296
C	 0.1964904539	-3.9900716028	 0.4373186142	-0.08684
C	-0.9277055128	-4.8130197571	 0.3765844336	-0.119534
C	-2.1729531338	-4.2571109844	 0.099000079	-0.084625
C	-2.3046316347	-2.8861454487	-0.1163481756	-0.230683
H	-3.2284067973	 1.5925636089	 0.3643521909	 0.234269
H	-2.8185283827	-0.5489362925	 1.0135843499	 0.103877
H	 0.9358505312	-1.9599444281	 0.2840361189	 0.114583
H	 1.1721245772	-4.4153309615	 0.6473713453	 0.104535
H	-0.8310278745	-5.8809423764	 0.5371660486	 0.100524
H	-3.0508963382	-4.8911689135	 0.0349571041	 0.103746
H	-3.2676620582	-2.4585047753	-0.3706680354	 0.10981
