17
gdb 51596	4.11797	0.74651	0.68997	3.5766	75.92	-0.266	-0.0026	0.2634	1598.2915	0.133012	-421.793782	-421.784361	-421.783417	-421.829381	33.205	
O	 0.2834797272	 0.0216593378	 0.3879135958	-0.267512
C	 0.3982528474	 1.2012807641	 0.5230845101	 0.174975
O	 0.8054973704	 2.0089464723	-0.4830755539	-0.186959
C	 0.8602456865	 3.3940543698	-0.1986026913	 0.07313
C	 2.0064944487	 3.9330092311	 0.6182060718	-0.31243
C	 1.9493751729	 4.1707776638	-0.8739712348	-0.0251
C	 2.9338566042	 3.4695555159	-1.8007117369	-0.377047
C	 4.211492765	 4.1698875098	-1.8846984192	 0.305105
C	 5.2550605044	 4.7625054328	-1.9458925391	-0.443596
H	 0.1921617343	 1.7550787773	 1.4578156144	 0.086754
H	-0.1223187834	 3.8480113688	-0.1067532984	 0.116266
H	 1.8172262349	 4.7560845706	 1.2977230981	 0.126627
H	 2.7379441494	 3.2128392471	 0.9700548628	 0.134935
H	 1.6778241337	 5.1722205555	-1.1926849575	 0.109163
H	 3.0915217758	 2.4412589131	-1.4587557398	 0.147871
H	 2.4934902762	 3.386871679	-2.8025662908	 0.140399
H	 6.1829843224	 5.2750302212	-2.0053241513	 0.197421
