15
gdb 49278	2.07853	1.70871	1.05792	3.3442	75.41	-0.259	-0.0695	0.1895	1110.6108	0.110658	-420.5965	-420.588118	-420.587174	-420.630079	30.062	
O	-0.2082948765	 0.0351525559	-0.2962132124	-0.259124
C	-0.0896175627	 1.2188037451	-0.0763180525	 0.076131
C	 1.1992280688	 1.9083423668	 0.0131295586	 0.235318
C	 1.3956983395	 3.2170464228	 0.1883746336	-0.196122
C	 2.863006576	 3.5164070527	 0.182689857	-0.114188
O	 3.4927905829	 2.2913319628	-0.1739698515	-0.261953
C	 2.5472991837	 1.2122568847	-0.1007337599	-0.159301
C	 2.8208111206	 0.3322837978	 1.0395014517	 0.355992
C	 3.0549777623	-0.3788950392	 1.9786884014	-0.472408
H	-0.9753745324	 1.8773259445	 0.0599218247	 0.077806
H	 0.6265495836	 3.9678921151	 0.3258069809	 0.129774
H	 3.136517457	 4.286419819	-0.5517369843	 0.127193
H	 3.2043598096	 3.8704577423	 1.1699065631	 0.124393
H	 2.6233194298	 0.6300459023	-1.0277352442	 0.132625
H	 3.2588217679	-1.0169978525	 2.8029852437	 0.203866
