23
gdb 77675	1.79029	1.57356	1.55034	1.2877	85.21	-0.2407	0.0788	0.3195	1135.6314	0.205273	-388.299258	-388.289417	-388.288473	-388.333245	37.645	
C	-0.2358934719	 1.5069681555	 0.1757682426	-0.430473
C	 0.0694682004	 0.0304849064	 0.0251756453	-0.121079
C	 0.598907744	-0.6752693714	-1.2234918782	 0.280026
C	-0.0897860644	-1.9412146336	-1.6784331199	-0.475191
C	 1.304914908	 0.1707184373	-2.2813620963	-0.271023
C	 2.4582245754	 0.9265446732	-1.5668360174	-0.226727
C	 2.6883744134	 0.1978753864	-0.2199713981	-0.279599
C	 1.4328472431	-0.6261575345	 0.0388181455	 0.347069
O	 1.5961381886	-1.800086557	 0.7881430386	-0.472065
H	 0.4955085321	 2.1526091399	-0.3121460538	 0.121271
H	-1.2167457864	 1.7435938267	-0.252361445	 0.118365
H	-0.2671222604	 1.7912481087	 1.2341603358	 0.112893
H	-0.6601505078	-0.5949763146	 0.5381333209	 0.079747
H	-0.9915714309	-1.7192890412	-2.2612625605	 0.108481
H	 0.5728104968	-2.5438709407	-2.3108026019	 0.110954
H	-0.3781062123	-2.5561911144	-0.821993174	 0.125067
H	 1.7065991591	-0.5038048286	-3.0468114733	 0.097898
H	 0.6268548422	 0.8584537584	-2.7997841811	 0.094056
H	 3.3664187097	 0.9360886848	-2.1758625826	 0.098598
H	 2.1945639354	 1.9739415322	-1.4018942085	 0.106709
H	 3.5223362795	-0.5089323533	-0.2890581162	 0.108204
H	 2.9262429649	 0.8955481675	 0.5920156366	 0.087603
H	 1.5581808613	-1.5662208179	 1.7213705216	 0.279217
