22
gdb 120267	3.03404	1.06467	0.93245	1.9976	83.16	-0.224	0.0778	0.3019	1381.3888	0.193231	-404.296379	-404.286755	-404.285811	-404.331314	35.594	
C	-0.1103781663	 1.5183790978	-0.0570773099	-0.384143
C	 0.1353186203	 0.0211815571	 0.0193973427	-0.04033
O	 0.4794395236	-0.4408563497	-1.2749908673	-0.248258
C	 0.7081651695	-1.8177395974	-1.3525456374	 0.161051
C	 0.7621390228	-2.3922125861	-2.7609222404	-0.105714
N	 1.970415521	-1.847388556	-3.427415422	-0.322075
C	 2.1013583878	-2.9950825473	-2.5025603433	-0.053065
C	 2.1692948183	-2.3986645918	-1.0876647975	-0.042048
C	 3.2966041179	-1.4183922084	-0.7968998556	-0.400732
H	 0.7906239473	 2.0365677722	-0.3968713288	 0.12978
H	-0.9168792219	 1.7377813118	-0.7624873171	 0.125873
H	-0.3891704583	 1.91098308	 0.925538792	 0.111118
H	 0.9397018488	-0.1991417126	 0.7383966251	 0.09066
H	-0.76801263	-0.5024096129	 0.3766782182	 0.0833
H	-0.026457968	-2.3660517597	-0.7439239674	 0.062515
H	-0.0709310107	-2.7610185292	-3.3470417942	 0.088851
H	 1.969305754	-2.2226035136	-4.3754750998	 0.22736
H	 2.4985683131	-3.9442573883	-2.8407581292	 0.088494
H	 2.1242794007	-3.1838604879	-0.3267427558	 0.06611
H	 3.3107190316	-0.623971773	-1.5448136185	 0.148937
H	 3.182592171	-0.9631708512	 0.1923251861	 0.1073
H	 4.2658921175	-1.9294298535	-0.8152217997	 0.105017
