15
gdb 48767	3.17609	1.322	1.06048	3.823	66.52	-0.2695	-0.0395	0.23	1090.8274	0.112156	-457.803998	-457.796541	-457.795597	-457.836291	27.986	
O	-0.2758622209	 0.0997377581	 0.2394565521	-0.256614
C	-0.0701501468	 1.2753900435	 0.065659028	 0.085496
C	 1.2757894273	 1.8800306586	-0.0293628258	 0.203041
C	 1.4491635911	 3.3769922308	 0.2350370796	-0.363339
C	 1.5872861272	 2.8761685178	-1.1542236842	 0.07082
O	 2.8795614553	 2.6253741249	-1.6394000441	-0.216118
C	 3.4804407892	 1.582987892	-0.9637855465	 0.42999
O	 4.6003457786	 1.250212268	-1.1946845838	-0.311339
C	 2.503845026	 1.009364278	 0.0645300923	-0.457702
H	-0.9085403568	 2.0006843453	-0.0464575212	 0.07627
H	 0.547752764	 3.9315989124	 0.4765042079	 0.138538
H	 2.341695832	 3.6938152113	 0.7641082854	 0.144694
H	 0.8820002803	 3.1274844672	-1.9365760514	 0.132577
H	 2.9839102142	 1.0009224548	 1.0464749889	 0.152712
H	 2.2623239592	-0.0270739228	-0.1891252673	 0.170973
