19
gdb 106782	2.17401	1.56669	1.14186	2.6561	72.42	-0.2298	0.0717	0.3016	1138.8037	0.15605	-460.108146	-460.098206	-460.097262	-460.14317	35.743	
C	 0.1092201343	 1.3061983018	 0.1585253106	-0.263144
O	-0.2299143056	-0.0468849263	-0.1298300057	-0.283345
C	 0.467758634	-0.574270134	-1.192192237	 0.305716
C	 1.8879092488	-1.1097122808	-1.0879093756	-0.429469
C	 0.782743437	-2.0324000253	-1.5339480032	 0.329019
O	 0.4734257405	-3.2434766591	-0.947961089	-0.457829
C	 0.4320422074	-1.7812560636	-2.9974134929	-0.295167
C	 0.1157497394	-0.2798805572	-2.6560800869	 0.085002
O	-1.2231822274	 0.1154890209	-2.840647923	-0.444772
H	 1.175554378	 1.4026176404	 0.4025872709	 0.114702
H	-0.1259772885	 1.9631801057	-0.6880229151	 0.130033
H	-0.4879170956	 1.6052220645	 1.0225476086	 0.130231
H	 2.690197221	-0.7904471284	-1.7529734219	 0.105928
H	 2.1951084866	-1.2592621684	-0.0542489822	 0.109199
H	 0.9809978448	-3.3404659961	-0.1366016568	 0.288249
H	 1.2158422316	-1.9856538076	-3.7343832708	 0.093185
H	-0.4915214544	-2.2865188433	-3.2884808421	 0.117542
H	 0.7411765098	 0.4554987089	-3.174807673	 0.075881
H	-1.7188068615	-0.1794809121	-2.0674205151	 0.289039
