22
gdb 76497	2.83274	1.26837	1.11967	1.556	86.9	-0.2198	0.0862	0.306	1222.5863	0.193935	-367.154342	-367.145249	-367.144305	-367.187801	35.186	
C	-0.1961772261	 0.8425201401	-1.9668588944	-0.410235
C	-0.0152386209	-0.3026346896	-0.9937631954	-0.072879
C	 1.3191252303	-0.628380735	-0.3381893005	-0.109459
C	 2.5860010772	 0.1558869724	-0.6040272201	-0.410748
C	 0.1859784987	-0.0600258775	 0.4746498067	 0.392564
C	 0.1964275567	 1.2793993117	 1.2606975868	-0.31557
C	-0.512466644	 0.5383191818	 2.40512141	-0.036562
N	-1.7846480972	 0.0116645209	 1.8496141602	-0.336744
C	-0.5126327397	-0.7355358152	 1.6370091444	-0.159737
H	 0.3905514605	 1.7209586544	-1.6846945651	 0.114768
H	 0.1035705439	 0.5559152448	-2.981387444	 0.112011
H	-1.2463913123	 1.151331049	-2.0036134946	 0.12436
H	-0.6260463774	-1.1714118052	-1.231044194	 0.078103
H	 1.4964769183	-1.6921090777	-0.1869406724	 0.075831
H	 2.3943772227	 1.2258937642	-0.7200669872	 0.118671
H	 3.2983598966	 0.0397451242	 0.2209771162	 0.114257
H	 3.0807367962	-0.1914507047	-1.5178796004	 0.116369
H	 1.2052686488	 1.6079268791	 1.5257101216	 0.10144
H	-0.3633930559	 2.1150538251	 0.8319535451	 0.105036
H	-0.4006224039	 0.7107824546	 3.4683450379	 0.090061
H	-2.2683554247	-0.4503493953	 2.6209970121	 0.222543
H	-0.4056980278	-1.760490482	 1.9733868273	 0.08592
