19
gdb 102865	3.07611	0.85187	0.70655	4.9485	73.38	-0.2558	-0.0479	0.2079	1547.3282	0.155746	-460.175471	-460.165336	-460.164392	-460.211972	35.015	
O	 0.4544795554	 1.213730942	 0.1018405213	-0.426745
C	 0.1224305365	-0.1082020899	-0.2356807237	-0.065973
C	-1.3815648111	-0.4455285043	-0.0780570912	-0.033403
C	-2.2354286803	-0.1186021995	-1.3169153574	-0.308292
C	-2.3149147379	 1.3077157365	-1.7994495196	 0.157517
O	-1.6394838354	 2.2393457377	-1.4297247248	-0.244559
C	-1.5669008683	-1.9387987391	 0.2699141887	-0.289619
C	-1.0410904052	-2.28731957	 1.6469923059	 0.160634
O	-0.3030557917	-3.2057589685	 1.8901389137	-0.236787
H	-0.1332095735	 1.7970604952	-0.4016349787	 0.299559
H	 0.4421973333	-0.3732234796	-1.2605614906	 0.077696
H	 0.7030846602	-0.745768295	 0.4406022306	 0.119786
H	-1.7460638759	 0.1560871812	 0.7653032491	 0.099494
H	-1.8930431815	-0.7057295935	-2.1853489855	 0.141884
H	-3.2753588416	-0.4448355508	-1.1670102411	 0.12719
H	-3.0866513999	 1.4673811506	-2.5838143736	 0.100645
H	-2.6392801626	-2.1838542144	 0.2718810559	 0.117285
H	-1.0803523793	-2.5901510123	-0.4640290933	 0.124175
H	-1.4076959513	-1.6147106364	 2.4579985842	 0.079514
