16
gdb 87671	3.30104	1.33251	1.09254	4.0604	76.74	-0.2335	-0.0413	0.1922	1102.8173	0.124231	-437.882277	-437.874554	-437.87361	-437.914452	30.049	
O	-0.0907671436	 1.374671948	-0.0733352505	-0.426172
C	 0.017050736	-0.0035855949	 0.0261023422	 0.081708
C	-0.4035556143	-0.7291296955	 1.2802559726	-0.382448
C	-1.2633950589	-0.8234231422	 0.0354870972	 0.35625
O	-2.4401065482	-0.0387137527	 0.0271794446	-0.26977
C	-3.3952668414	-0.6637132141	-0.7502535204	 0.371445
N	-4.5190281262	-0.104161495	-0.912585681	-0.525642
C	-2.8051340543	-1.9244524675	-1.2290679335	-0.208075
C	-1.5535136586	-2.0177153564	-0.76494817	-0.165469
H	-1.0315341473	 1.5880662264	-0.137117455	 0.306556
H	 0.8647871095	-0.394883811	-0.5296729651	 0.110765
H	 0.1436196711	-1.613279845	 1.5900560281	 0.124767
H	-0.8150977159	-0.1261036587	 2.082260126	 0.144047
H	-5.1144129469	-0.6826227022	-1.5020207697	 0.224627
H	-3.3361557678	-2.622995296	-1.8595606586	 0.124229
H	-0.8388702832	-2.8127738932	-0.9295914471	 0.133183
