13
gdb 129854	7.33893	0.83721	0.75984	5.8393	64.12	-0.2354	-0.0171	0.2183	1376.6367	0.088705	-489.894023	-489.886071	-489.885127	-489.927076	28.441	
N	 0.0246631919	 1.3356864749	 0.2609399677	-0.59164
C	-0.0726352744	-0.0081375221	 0.0305336106	 0.528862
C	-1.1215823359	-0.887308976	 0.0213358505	-0.486023
C	-0.4699258973	-2.1210949998	-0.2080059849	 0.519349
O	-1.1178159537	-3.3101656472	-0.31629659	-0.229358
C	-0.4522294265	-4.453401992	 0.0673998276	 0.163399
O	-0.9317954477	-5.5254020417	-0.1126937145	-0.249393
N	 0.8317740062	-2.0295228779	-0.3413973753	-0.248809
O	 1.0867536158	-0.6516293494	-0.1740505638	-0.217763
H	 0.8716860449	 1.7648815176	-0.0825507549	 0.274
H	-0.8071933528	 1.8725274412	 0.071712858	 0.272977
H	-2.1710142033	-0.702152917	 0.1638688208	 0.128206
H	 0.5128190428	-4.2324161606	 0.5450736083	 0.136193
