16
gdb 33718	6.28138	0.93828	0.93748	1.536	86.29	-0.2462	0.0116	0.2578	1255.2456	0.122893	-363.473034	-363.464949	-363.464004	-363.505375	31.833	
C	-0.0084025483	-1.110538807	-0.0859179986	-0.349881
C	-0.0149839398	 0.0903126824	-0.0240076889	 0.060713
C	-0.0027880586	 1.5200083588	 0.0555572275	 0.238581
C	-0.6547141195	 2.4395353165	 1.1309805049	-0.260325
C	-0.0468917677	 3.3656401754	 0.0355515104	 0.238571
C	 1.2315514904	 2.4730182908	 0.0610506057	-0.296457
N	-0.6899068742	 2.4157851938	-0.9825377419	-0.366375
C	-0.1273274622	 4.7910609426	-0.0749464284	 0.060728
C	-0.1777546633	 5.9892412229	-0.1629589928	-0.349897
H	-0.0097555327	-2.1710814073	-0.1421274547	 0.182403
H	-1.7431160241	 2.4138936397	 1.1650480301	 0.124844
H	-0.1838484774	 2.4614421751	 2.1138896387	 0.108766
H	 1.8545983106	 2.4976536621	 0.9597111242	 0.107711
H	 1.8305022192	 2.4774207594	-0.8534048345	 0.107186
H	-0.121419779	 2.4201035368	-1.8370740936	 0.211024
H	-0.2296960135	 7.047030178	-0.2423126682	 0.182409
