19
gdb 94879	2.94367	1.6236	1.36696	1.3277	73.99	-0.2336	0.0521	0.2857	1007.3889	0.15998	-422.972383	-422.96479	-422.963846	-423.004028	30.416	
C	 0.1024125427	 1.6121164294	-0.1065990624	-0.39691
C	 0.0440880592	 0.099086166	 0.0292519629	 0.069754
O	 0.7541822329	-0.4710959778	-1.0982983477	-0.276629
C	 1.1848818081	-1.7964466615	-0.770039713	-0.156201
C	 1.4666265857	-1.7247781239	 0.7110854027	 0.351793
C	 2.2211029612	-0.5874529435	 1.3098320888	-0.376622
C	 0.7050202448	-0.529339771	 1.2397770865	 0.116298
C	 0.1011215215	-1.5564371393	 2.2072101533	-0.143594
O	 0.9357994477	-2.6326081315	 1.68537548	-0.322361
H	 1.1340759298	 1.9672728473	-0.0335337252	 0.122205
H	-0.3032384287	 1.9254502137	-1.0723223814	 0.126362
H	-0.4844083286	 2.0847368072	 0.68670098	 0.117229
H	-1.0078534286	-0.2323783296	 0.0049552556	 0.070046
H	 0.3990492439	-2.5470818455	-0.9453534179	 0.104612
H	 2.0404581993	-2.0188408066	-1.4140871432	 0.114092
H	 2.7006916765	-0.7273795061	 2.2726877483	 0.123295
H	 2.7459313345	 0.0566163252	 0.6130913372	 0.135705
H	 0.2616723902	-1.3991727398	 3.279610292	 0.110298
H	-0.959325622	-1.7579116526	 2.0164921335	 0.110628
