17
gdb 43178	2.26163	1.86388	1.76597	1.5027	67.34	-0.2375	-0.0268	0.2107	899.8255	0.138364	-458.975061	-458.968111	-458.967167	-459.006331	27.354	
O	-0.0056252832	 0.0510035163	-0.0403219744	-0.326492
C	-0.0210303697	 1.2498216853	 0.0338285409	 0.412363
C	-1.2004242483	 2.2119312784	 0.0617240281	-0.180852
C	-0.6860840369	 3.2779451522	 1.0371842609	-0.071741
O	 0.7584992899	 3.2223567125	 0.9670379603	-0.273635
C	 1.1363114825	 2.2411726882	 0.0125637083	-0.019232
C	 1.1451252115	 2.8519517787	-1.4130883589	-0.106224
O	-0.0717269535	 3.534727292	-1.6637286217	-0.237359
C	-1.2351368867	 2.7784021286	-1.3903911354	-0.100196
H	-2.1493156668	 1.7488199002	 0.3325523166	 0.100723
H	-1.0135458959	 4.2884023637	 0.7716709931	 0.116151
H	-0.9948864511	 3.0623952149	 2.0666328559	 0.111203
H	 2.1047847814	 1.8133234482	 0.2778144829	 0.105121
H	 1.9362972592	 3.6011052765	-1.4990783609	 0.127793
H	 1.3242282003	 2.054414501	-2.1527454095	 0.106203
H	-1.3552263614	 1.9494477344	-2.1057276634	 0.11241
H	-2.0779138613	 3.465306819	-1.5111099529	 0.123766
