18
gdb 45287	2.84784	1.67484	1.28587	3.7339	76.37	-0.2378	0.0247	0.2625	1010.0583	0.149686	-401.939254	-401.932	-401.931055	-401.97086	28.97	
O	-0.1439793974	 0.0427805249	 0.1640067896	-0.363365
C	-0.0465541796	 1.2298866719	 0.0027231723	 0.341374
N	-0.9962342598	 2.2438521418	-0.0866022794	-0.340027
C	-0.0441109117	 3.3461381894	-0.2151427818	-0.02252
C	 0.4227015852	 4.0242700989	 1.1099007258	-0.257648
C	 1.5716661436	 2.9954496789	 1.2077256667	-0.055796
C	 2.8784179903	 3.3281542526	 0.4165572942	-0.230792
C	 2.4683459833	 2.3303818988	-0.7133203281	-0.341681
C	 1.0770484776	 2.2543173872	-0.0983677762	 0.206404
H	-1.9497672944	 2.2501965788	 0.2496997666	 0.244051
H	-0.1881995345	 3.9652960501	-1.1028911821	 0.085436
H	 0.7480939352	 5.0627710173	 0.9998186746	 0.104736
H	-0.3196863858	 3.9751199262	 1.9106708062	 0.103406
H	 1.7165512813	 2.4551095628	 2.1431967504	 0.081692
H	 2.9258385858	 4.3703941739	 0.0883310035	 0.103398
H	 3.8085013522	 3.091289227	 0.9367204937	 0.110734
H	 2.5416872251	 2.6690864352	-1.7501340032	 0.105041
H	 2.9911259534	 1.3738468243	-0.622787303	 0.125558
