16
gdb 19653	4.53388	2.06089	1.90686	3.1689	67.71	-0.233	-0.0042	0.2288	745.1245	0.133517	-346.587659	-346.582018	-346.581074	-346.617206	23.454	
O	-0.059026566	-0.0146640487	-0.1102766055	-0.333387
C	-0.0285624703	 1.173015904	 0.0339950163	 0.440983
C	-1.0629019489	 2.3115430535	 0.0151553108	-0.166586
C	-0.789297936	 2.9278099317	 1.410130813	-0.219872
C	 0.670644418	 3.3422468095	 1.1024910969	-0.039423
C	 0.4646175367	 4.3562360626	-0.0530758711	-0.23621
C	 0.0241279508	 3.1099390667	-0.8342954602	-0.032663
C	 1.0480031836	 2.2433281479	 0.018615115	-0.1631
H	-2.0876587791	 2.1632830643	-0.3162003203	 0.084593
H	-1.4209130079	 3.7896853255	 1.6427492867	 0.103116
H	-0.8885283656	 2.1946901423	 2.2161880016	 0.110501
H	 1.3311602557	 3.5534271897	 1.9421937908	 0.074361
H	-0.2418138512	 5.1784233565	 0.1006013432	 0.095349
H	 1.408926604	 4.7477929598	-0.4402267016	 0.106139
H	-0.0408562645	 3.0420581476	-1.9179559398	 0.087395
H	 2.0906910105	 2.085106137	-0.2451243858	 0.088802
