22
gdb 6584	3.73806	1.75908	1.51566	0.0346	82.	-0.2797	0.0844	0.3641	963.9624	0.201483	-313.081152	-313.073331	-313.072387	-313.112332	32.167	
C	-0.0304471803	 1.5248312798	 0.033434125	-0.497739
C	 0.0247082384	 0.0146603451	 0.0296947304	 0.355682
C	 0.9920861958	-0.7857328429	-0.8960493251	-0.289438
C	 0.7308450025	-1.9340932995	 0.1269193221	 0.355682
C	 1.6536285551	-3.1227891008	 0.2652845778	-0.49774
C	 0.6556574499	-0.8031275059	 1.1986982738	-0.289431
C	-0.7690134439	-2.2157922448	-0.1163039	-0.245736
C	-1.3000679933	-0.7502200526	-0.1894184554	-0.245736
H	 0.9602168722	 1.9629572697	 0.1955297594	 0.10932
H	-0.4132335883	 1.9085198765	-0.9198031379	 0.111963
H	-0.6924185739	 1.8939571923	 0.8258630272	 0.11197
H	 0.6987588842	-0.9440968092	-1.9397619241	 0.079151
H	 2.0188878158	-0.411278601	-0.8482059688	 0.085783
H	 2.6896790155	-2.8100362927	 0.4338977798	 0.10932
H	 1.3554960721	-3.7583493328	 1.1076524859	 0.111968
H	 1.6353433214	-3.7443225083	-0.6379127589	 0.111964
H	 1.6448270599	-0.4306235474	 1.4808527336	 0.085784
H	 0.0506762697	-0.9776041252	 2.0953661191	 0.07915
H	-0.9359128733	-2.7749877481	-1.0428769394	 0.089521
H	-1.2161911978	-2.7894898306	 0.7022289676	 0.089521
H	-2.0364784461	-0.5257173722	 0.5892929832	 0.089521
H	-1.7561956854	-0.5112159395	-1.1558122651	 0.089521
