13
gdb 46021	5.32496	1.02665	0.87665	2.5621	70.06	-0.254	-0.0586	0.1954	1200.9521	0.091333	-452.809992	-452.802523	-452.801578	-452.842502	26.899	
O	 0.0240218154	-0.0250722319	 0.2166866228	-0.358349
C	 0.0039513768	 1.1574999255	 0.02220534	 0.490304
N	-1.1881979988	 1.8809816264	-0.0692775362	-0.380312
C	-1.2415857763	 3.2560183085	-0.0240024432	-0.027573
C	-0.1341304013	 3.9757506234	-0.2742951314	 0.06493
C	 1.1048037482	 3.2042774231	-0.6633891754	-0.1735
O	 1.1279887679	 1.8942269805	-0.064355807	-0.235934
C	-0.1076643044	 5.3886883603	-0.2220507446	 0.20947
N	-0.0486429811	 6.5466876195	-0.1968818963	-0.330587
H	-2.0122294924	 1.3329228108	 0.1211310748	 0.282421
H	-2.1981559434	 3.6978427076	 0.2247276288	 0.156632
H	 1.1724783719	 3.0892715385	-1.7538576691	 0.143106
H	 2.0139307075	 3.6971949779	-0.3159947033	 0.159391
