23
gdb 121894	3.67576	0.64043	0.60354	3.419	83.86	-0.2398	-0.0098	0.23	1955.4014	0.201687	-425.441254	-425.429529	-425.428585	-425.479955	39.978	
C	 0.0411666678	 1.393368505	 0.0762236461	-0.226707
O	 0.0078079646	-0.0109612371	 0.1331078858	-0.227981
C	-1.2843776983	-0.5401201713	-0.0712465131	-0.067492
C	-1.1870815413	-2.0595316948	-0.0078276106	-0.190379
C	-2.544960232	-2.7762245928	-0.0502876988	-0.089844
C	-3.3129456021	-2.5420038577	-1.3703598387	-0.396795
C	-2.3576852671	-4.2890145382	 0.1182478933	 0.388525
C	-3.4552181213	-5.0295857937	 0.8618482821	-0.481504
O	-1.3926554824	-4.8625468946	-0.3317853004	-0.307457
H	 1.0752887699	 1.704271725	 0.24413525	 0.12699
H	-0.2886346564	 1.7729237581	-0.904494033	 0.101378
H	-0.5968218801	 1.8510718289	 0.8498004995	 0.100343
H	-1.9779939428	-0.1634494144	 0.7030935049	 0.077515
H	-1.6796435124	-0.204049084	-1.044407307	 0.085118
H	-0.5582806726	-2.425050922	-0.8247299248	 0.126156
H	-0.6665102826	-2.3216892664	 0.9200526595	 0.108761
H	-3.1749256243	-2.4187375276	 0.7756632067	 0.074708
H	-4.2477074707	-3.1112835349	-1.399022258	 0.11716
H	-3.5697972668	-1.487091391	-1.4965447394	 0.125055
H	-2.7029928886	-2.8531250859	-2.2242861337	 0.137027
H	-4.4473611448	-4.7401944649	 0.499835086	 0.134616
H	-3.3172259111	-6.1067993273	 0.7614964977	 0.141737
H	-3.4160551645	-4.7584434084	 1.9240773558	 0.14307
