17
gdb 31193	2.01418	1.6334	0.95437	4.3399	84.5	-0.2095	0.0084	0.2179	1225.2074	0.136246	-380.889113	-380.880332	-380.879388	-380.923318	32.376	
C	-0.4314620688	 1.5572157014	-0.1360705943	-0.3711
C	 0.101880274	 0.1243169289	 0.044082831	-0.318261
C	 0.8123657102	-0.4104196957	-1.154423546	 0.225118
C	 2.1401447602	-0.7318894783	-1.3704802554	 0.078407
N	 2.3291357546	-1.1860106419	-2.6686283541	-0.313469
C	 1.1465561931	-1.139565367	-3.2224118383	-0.009504
N	 0.1947224274	-0.6784517451	-2.354712257	-0.292162
C	 3.1924170291	-0.6299739495	-0.4287020201	 0.25001
C	 4.0731706943	-0.536928739	 0.3877916427	-0.439278
H	 0.3847471852	 2.2500579023	-0.3590977897	 0.135159
H	-1.1540282412	 1.6185696054	-0.9570842976	 0.106809
H	-0.9337423771	 1.898537717	 0.7739767911	 0.120594
H	 0.8086287437	 0.0964032047	 0.8785263622	 0.136204
H	-0.7277658099	-0.541914231	 0.3173959914	 0.109443
H	 0.9103236693	-1.4231380676	-4.2373486046	 0.131093
H	-0.7855946679	-0.5610136147	-2.5511610424	 0.266805
H	 4.8579645239	-0.4594410802	 1.0982614312	 0.184132
