21
gdb 63940	2.32688	1.62139	1.43909	1.8798	77.96	-0.2399	0.0728	0.3127	1057.3558	0.180446	-424.203391	-424.194129	-424.193185	-424.236709	35.987	
C	 0.2502293602	 1.5178575231	-0.0154488545	-0.453295
C	 0.0478391806	 0.0122272543	 0.006778347	 0.344623
O	-1.3299754257	-0.3293313965	-0.0882150944	-0.475953
C	 0.9320628403	-0.8572145195	-0.9552677731	-0.291763
C	 1.4542862249	-1.6906606661	 0.2441645812	-0.128268
C	 2.6913507398	-1.0908174956	 0.9197158531	-0.0873
O	 1.8849494836	-0.1580317962	 1.6765656882	-0.326666
C	 0.6497082249	-0.7728498772	 1.2201763129	 0.423287
C	-0.2423686215	-1.1981159789	 2.3543022025	-0.476904
H	 1.2908050608	 1.7741770619	 0.1918201935	 0.134803
H	-0.0192496635	 1.9261164047	-0.9979439781	 0.099103
H	-0.3820421572	 1.9969311409	 0.7386663709	 0.122626
H	-1.6740917158	 0.0630007667	-0.8980592815	 0.275475
H	 0.3166110215	-1.4289004113	-1.6531498665	 0.099712
H	 1.7039360567	-0.3203225338	-1.5149572777	 0.092884
H	 1.3573467527	-2.7742797822	 0.1988583461	 0.075683
H	 3.2312892676	-1.7765270849	 1.5858648683	 0.099329
H	 3.4151434724	-0.5848891386	 0.2678016287	 0.095926
H	-0.5364810562	-0.325201856	 2.947697112	 0.125687
H	-1.1487932332	-1.6731561362	 1.9744813082	 0.137709
H	 0.2848728871	-1.8938055286	 3.0141609532	 0.113302
