15
gdb 50256	2.3775	1.75363	1.33274	3.6371	65.46	-0.2547	-0.0461	0.2086	968.7226	0.110398	-457.742459	-457.734651	-457.733707	-457.775821	28.181	
O	 0.3428209883	-0.1533967519	-0.5891500945	-0.235987
C	 0.1412318352	 0.9728857157	-0.2225565155	 0.152112
C	 1.2223627304	 2.0208910252	-0.0531254342	 0.030896
O	 2.5602885228	 1.5335379294	-0.1908345023	-0.277429
C	 2.8425519215	 2.4380129634	-1.2745516012	 0.116015
C	 2.585629818	 1.80774155	-2.6664802861	-0.365983
C	 1.1660165118	 2.4115070626	-2.6266179492	 0.422247
O	 0.2599207561	 2.4655625557	-3.4027369273	-0.290096
C	 1.3978292577	 3.033662296	-1.2340657597	-0.256672
H	-0.8817626905	 1.3477022359	 0.0104459109	 0.085681
H	 1.0737595251	 2.5348221176	 0.9078924659	 0.10944
H	 3.7547618808	 3.0146107123	-1.1200487145	 0.100083
H	 3.1903863502	 2.2210216511	-3.4803636908	 0.137969
H	 2.6332811189	 0.7166113348	-2.6905773192	 0.162224
H	 1.1158405837	 4.0710824021	-1.0642851524	 0.1095
