17
gdb 133742	2.41124	1.22208	1.18552	1.7357	56.86	-0.2656	0.0643	0.3299	1113.3485	0.131408	-586.653385	-586.643896	-586.642952	-586.687427	35.306	
C	-0.0533317272	 1.5477148936	 0.0173109382	-0.425357
C	-0.0633940178	 0.0159897867	 0.0115313369	 0.058233
N	 0.5441409335	-0.4834587118	 1.2501678698	-0.551422
C	-1.5169706408	-0.5221666506	-0.0139147685	-0.064301
O	-2.2025153709	-0.1431594195	 1.1553808314	-0.426556
C	 0.6944229979	-0.5011910111	-1.2196879656	 0.270978
F	 1.9507920925	-0.0279487678	-1.2624737735	-0.082862
F	 0.7827860182	-1.8460176159	-1.2079579541	-0.088348
F	 0.0913578641	-0.1525410901	-2.3665763669	-0.07823
H	 0.9591709211	 1.9360157646	 0.1584787074	 0.121867
H	-0.4386430749	 1.936581243	-0.9281000856	 0.135963
H	-0.6922489167	 1.9024203851	 0.8271166073	 0.144694
H	 0.7457338189	-1.4762144487	 1.1682160184	 0.242177
H	 1.4232898288	-0.0123179839	 1.4364414451	 0.242378
H	-2.0586168149	-0.107805865	-0.8682298401	 0.120099
H	-1.4889388215	-1.617085816	-0.133004357	 0.09282
H	-1.5756978003	-0.3035631528	 1.8763607867	 0.287867
