20
gdb 105392	1.98345	1.26163	0.94721	3.397	77.8	-0.2556	0.0228	0.2784	1335.1221	0.168246	-440.263496	-440.253396	-440.252452	-440.298772	36.698	
C	-0.1890548015	 1.405300618	-1.0050899645	-0.382621
C	-0.0446422085	 0.1893018651	-0.0838002879	-0.237288
C	-1.37163108	-0.4678980426	 0.2316353443	 0.392596
C	-2.036557741	-1.3675071021	-0.7777313529	-0.374035
C	-1.478016811	-1.9436705021	 0.5070296244	 0.025831
O	-0.2971202379	-2.6882814548	 0.4968593489	-0.418607
O	-2.2866102973	 0.3643665894	 0.9257477635	-0.229585
C	-2.0667976931	 0.5212281293	 2.2507222824	 0.10761
N	-2.7731250449	 1.3319048089	 2.9115487342	-0.445551
H	 0.7829250139	 1.8742663658	-1.1837031508	 0.112089
H	-0.6084047638	 1.1167433784	-1.9744750814	 0.116518
H	-0.8537470673	 2.1531497671	-0.5640045187	 0.139088
H	 0.6109290295	-0.5642418773	-0.5285691354	 0.118393
H	 0.4334827574	 0.4906782116	 0.8573000213	 0.099011
H	-3.1135424304	-1.3011653944	-0.8787310582	 0.132343
H	-1.4880450647	-1.5606669053	-1.6934733806	 0.119558
H	-2.2077525021	-2.2384773698	 1.2611152369	 0.102384
H	-0.4773578266	-3.5277667929	 0.0606373929	 0.29332
H	-1.263369054	-0.117719862	 2.6386388855	 0.1006
H	-2.4931062268	 1.3135387996	 3.8902042963	 0.228346
