19
gdb 109879	2.36412	1.50605	1.0987	1.7701	71.46	-0.2466	0.0727	0.3193	1148.3515	0.157416	-460.112525	-460.103236	-460.102292	-460.146458	34.726	
C	-0.0131271363	 1.3826089126	-0.2315293754	-0.250772
O	-0.0030210413	 0.0180805392	 0.1584610477	-0.260017
C	-1.273288716	-0.5930635986	 0.0877731266	-0.010611
C	-1.6274501374	-1.2529025069	-1.3011234828	 0.107755
O	-0.6588576457	-1.087814658	-2.306319681	-0.442399
C	-1.7481322915	-2.6098486021	-0.5944303539	-0.131082
C	-0.4448556305	-2.9495859138	 0.0888180327	-0.357442
C	-1.3673254872	-1.9623672847	 0.7422391629	 0.375898
O	-1.949139456	-2.1821432002	 1.9774926021	-0.464882
H	 1.0106867428	 1.7521626077	-0.136125753	 0.128669
H	-0.3447348837	 1.5059293349	-1.2706536185	 0.126248
H	-0.6688673728	 1.9762094447	 0.4219387222	 0.113229
H	-2.0573951377	 0.0836304558	 0.4499283605	 0.075315
H	-2.5829428979	-0.9087099786	-1.7048096775	 0.086584
H	 0.176008238	-0.9134554194	-1.8530282252	 0.289147
H	-2.501293835	-3.3624581388	-0.7901393736	 0.095289
H	-0.4407397285	-3.9204035876	 0.5740067055	 0.117138
H	 0.5101898166	-2.653675045	-0.3344155287	 0.111509
H	-1.25130303	-2.1976726412	 2.6414661196	 0.290425
