19
gdb 80289	2.36761	1.47441	1.24232	2.5721	74.73	-0.2398	-0.0176	0.2222	1096.6105	0.15817	-423.04612	-423.037434	-423.03649	-423.079148	33.583	
C	-0.3982451846	 1.4335220379	-0.1019185895	-0.433433
C	-0.044286116	-0.0326043934	 0.0370441099	-0.07784
C	 1.3190726301	-0.6267826553	-0.3007846786	-0.112675
C	 2.5167769889	 0.2939335253	-0.4141554757	-0.336411
C	 2.6157889816	 1.0130508842	 0.9419124957	 0.390465
O	 3.2943224477	 1.9785571588	 1.1735128928	-0.31161
C	 1.699895658	 0.301637217	 1.9504675331	-0.402531
C	 0.8185003997	-0.6218643623	 1.12895765	 0.369042
O	 0.4496078997	-1.8442356172	 1.698947562	-0.466508
H	 0.4195972206	 2.1024026884	 0.1793109207	 0.136058
H	-0.6675197025	 1.6697689724	-1.137188879	 0.125048
H	-1.2572563305	 1.6900417284	 0.5280298082	 0.12003
H	-0.8542395585	-0.7051731298	-0.2355200668	 0.091831
H	 1.3246972562	-1.5628343013	-0.8463654859	 0.09829
H	 3.4403431301	-0.2800706756	-0.561756604	 0.1348
H	 2.4711935544	 1.0307237679	-1.2222889517	 0.130624
H	 2.3246403749	-0.3059919389	 2.6174026839	 0.13942
H	 1.1776922375	 1.0366600863	 2.5708139921	 0.123269
H	-0.2887637575	-1.6854868729	 2.2971133929	 0.282133
