19
gdb 84796	2.61507	1.50534	1.03237	3.7618	77.81	-0.2269	0.0117	0.2386	1164.5899	0.160229	-419.261306	-419.252419	-419.251474	-419.294828	33.528	
C	-0.0505321616	 1.6125271459	-0.0161381171	-0.392772
C	 0.0121485159	 0.0786079545	 0.0409395815	 0.007826
C	 0.7321965972	-0.5300267853	-1.1337920513	-0.072212
C	 1.8074644472	-1.2172499001	-0.7637652142	-0.093184
C	 1.9653996268	-1.2168232386	 0.7328175354	-0.222006
N	 0.8141844534	-0.4309001799	 1.1666437577	-0.11011
C	 0.3664172114	-0.3023213247	 2.4541515192	 0.448149
N	 1.1942931964	-0.8443882813	 3.4309981987	-0.5705
O	-0.6627056294	 0.2919678331	 2.7393306969	-0.41775
H	 0.9546006195	 2.0367275917	-0.1031099753	 0.110009
H	-0.6372534152	 1.9327977925	-0.8837880542	 0.107149
H	-0.5252925488	 1.9913151081	 0.8899274467	 0.157329
H	-1.0164070626	-0.2993694329	 0.1276491773	 0.102303
H	 0.3928513677	-0.3733431803	-2.1501532431	 0.107089
H	 2.5030341603	-1.7312660792	-1.4147438756	 0.107308
H	 1.9396057593	-2.2439794423	 1.1359864979	 0.105402
H	 2.9200268898	-0.7731159422	 1.0559631881	 0.121115
H	 1.7758673657	-1.6346086979	 3.2010414356	 0.246942
H	 0.729760697	-0.912391461	 4.3234480559	 0.257913
