14
gdb 44832	2.60728	1.88831	1.44606	3.1959	61.97	-0.2568	-0.0498	0.2069	896.6322	0.102426	-473.848237	-473.841722	-473.840778	-473.879328	25.55	
N	-0.0667094881	 1.2805165779	-0.0440413217	-0.538694
C	-0.0258365595	 0.0255924142	-0.0215088255	 0.439945
O	 1.0911255628	-0.779044692	 0.0220014771	-0.256706
C	 0.5707678902	-2.1294084857	 0.0642548633	 0.179563
C	 0.0431659746	-2.4052650336	 1.4796131762	-0.366315
C	-1.224478165	-1.5260823339	 1.4373773304	 0.435833
O	-2.0399299675	-1.338822543	 2.290821891	-0.29364
C	-1.1912771014	-0.952527387	-0.0059947462	-0.157342
O	-0.6074156163	-2.0643770519	-0.7137008861	-0.241696
H	 0.8718256964	 1.6831571581	-0.0293079581	 0.235941
H	 1.2998307136	-2.8117927005	-0.3656316635	 0.121276
H	-0.2221390535	-3.4583970427	 1.6060370947	 0.15133
H	 0.7173990828	-2.1046648149	 2.2833874803	 0.152681
H	-2.1294952193	-0.6157925149	-0.4321948916	 0.137825
