18
gdb 8496	2.70811	2.07927	1.98495	1.8846	67.76	-0.2481	0.0683	0.3165	827.449	0.15289	-384.890758	-384.882921	-384.881976	-384.922071	31.27	
C	-0.1566345356	 1.5403792092	-0.0111612973	-0.486585
C	 0.0264825364	 0.0289896541	 0.0112081188	 0.397666
O	-1.2475906107	-0.5896939161	-0.09296379	-0.494098
C	 1.219018811	-0.6516259921	-0.7513081415	-0.128767
C	 2.1634665433	-0.127047888	 0.3754376852	-0.276987
C	 0.9087728627	-0.6678118402	 1.0959129062	 0.370051
O	 0.7286867362	-0.638018748	 2.4645763324	-0.476233
C	 0.9949931756	-1.9095304086	 0.1394392947	-0.297776
H	 0.7759113177	 2.1001826987	 0.0620702303	 0.127591
H	-0.6441597863	 1.8451108434	-0.9465373878	 0.105183
H	-0.8059376873	 1.8445487283	 0.8156361946	 0.129485
H	-1.725909465	-0.1735090561	-0.8167398493	 0.277362
H	 1.4118785908	-0.6356151766	-1.8221582756	 0.073156
H	 3.0732485502	-0.7113303365	 0.5256730877	 0.099113
H	 2.3713267572	 0.9410696057	 0.4298708966	 0.093911
H	-0.1490150915	-0.9907012094	 2.6513655327	 0.288849
H	 0.0822690569	-2.4766963468	-0.0274755865	 0.110055
H	 1.8680591584	-2.550069261	 0.2818505088	 0.088023
