19
gdb 63859	2.3452	1.57487	1.26345	0.8656	82.53	-0.2304	0.0336	0.264	1091.7642	0.156081	-385.827696	-385.818587	-385.817643	-385.860748	35.527	
C	-0.0479771857	 1.5648306347	 0.0313705925	-0.439136
C	 0.0250357718	 0.0474588455	 0.0527363722	 0.363634
C	-1.2967773861	-0.6007709668	-0.3308734053	-0.431483
O	 1.0868997948	-0.4675023115	-0.827012083	-0.327838
C	 1.6598179261	-1.2073584198	 0.2388938364	 0.054117
C	 2.1804630922	-0.3107871272	 1.3055467494	-0.351673
C	 0.6888171493	-0.6423127899	 1.274587281	 0.062756
C	 0.0001457703	-1.2438194298	 2.360418056	 0.191578
C	-0.5970833866	-1.7393813596	 3.2813205311	-0.41986
H	 0.9018968348	 2.0224167915	 0.3154683361	 0.120857
H	-0.3037783788	 1.9120815008	-0.9748591398	 0.127343
H	-0.8227315175	 1.9150049366	 0.7208039427	 0.125944
H	-1.594542056	-0.2697450725	-1.330243223	 0.121836
H	-1.2063981084	-1.6894975294	-0.3356673789	 0.127351
H	-2.082643795	-0.3235916693	 0.3784954724	 0.124652
H	 1.9849568122	-2.2234369048	 0.0471354678	 0.115239
H	 2.7088684384	-0.7981961721	 2.1182483252	 0.130323
H	 2.5339971283	 0.6830101354	 1.0494252855	 0.119199
H	-1.1216847042	-2.1807650017	 4.0919092118	 0.185161
