18
gdb 10981	2.95352	2.45845	1.7667	1.6941	71.42	-0.2314	0.0051	0.2365	823.2794	0.153105	-347.766873	-347.75952	-347.758576	-347.797763	29.441	
C	-0.1198124607	 1.5324489283	-0.0342470756	-0.426732
C	-0.0234690522	 0.0159775644	-0.0253298806	-0.00137
C	 1.2736454097	-0.6052354189	-0.6464831897	 0.002544
O	 1.9766783643	-0.2479560542	 0.5855228297	-0.319207
C	 0.7035690854	-0.6378410531	 1.2177727359	 0.366733
C	 0.5315696404	-0.202497654	 2.645309491	-0.515897
C	 0.6309479945	-2.131475219	 0.8338594827	-0.121971
C	 1.0228004296	-2.1081531432	-0.4409227867	-0.086254
H	 0.8341763425	 1.9842465413	 0.2470762955	 0.134358
H	-0.3961597889	 1.8966947624	-1.0298929824	 0.113303
H	-0.8896691417	 1.8804530823	 0.6638255673	 0.11401
H	-0.9643921061	-0.4557023366	-0.3222177579	 0.066805
H	 1.7444176127	-0.2405978067	-1.5591103689	 0.074311
H	 0.5816938938	 0.8856771124	 2.7362483322	 0.129836
H	-0.4358663383	-0.5388563815	 3.0323371224	 0.12151
H	 1.3189961154	-0.6345200972	 3.2710113371	 0.134455
H	 0.3184530581	-2.9478700991	 1.4692007391	 0.10545
H	 1.1250124616	-2.8991870778	-1.1691701812	 0.108116
