14
gdb 21919	3.33432	1.84219	1.20935	2.4625	60.1	-0.206	0.0248	0.2308	929.6563	0.108251	-415.861201	-415.853448	-415.852504	-415.89369	27.602	
O	-0.1232908877	 1.4222017666	 0.3683260024	-0.426971
C	 0.0184864506	 0.0737812232	-0.0700849129	-0.198825
C	-1.3281292356	-0.562336353	-0.0091290792	 0.311765
C	-1.7328115074	-1.8768586069	 0.122185688	 0.137259
O	-0.8786601127	-2.9347484108	 0.2489121145	-0.450874
C	-3.142794057	-1.8404086992	 0.077488483	-0.116034
N	-3.589682659	-0.5908833156	-0.0639078499	-0.225599
N	-2.4786771127	 0.1533539867	-0.1323012764	-0.235805
H	 0.6913829152	 1.889997184	 0.1638441479	 0.294925
H	 0.4158842222	 0.0428259129	-1.0979117096	 0.109799
H	 0.7157664047	-0.4959429236	 0.5616914618	 0.119531
H	-1.3942094389	-3.7272993411	 0.423772948	 0.299973
H	-3.8402818706	-2.6631798462	 0.1472059588	 0.101874
H	-2.5375029911	 1.1571099329	-0.1641584864	 0.278983
