19
gdb 90143	3.3278	1.49821	1.33547	1.3662	79.77	-0.2164	0.0177	0.2341	1016.9243	0.160672	-385.855219	-385.847766	-385.846822	-385.88665	30.672	
O	-0.1121212264	 1.4453976848	-0.1189732712	-0.433767
C	 0.0070788452	 0.0487722765	 0.0500837364	 0.053578
C	 0.2936474632	-0.5168080911	 1.4921268775	-0.335921
C	-1.0286187256	-1.3003286346	 1.3935021517	 0.230339
C	-2.1832181968	-0.3543631185	 1.1878190807	-0.356228
C	-1.3275800295	-0.6946595783	 0.0034443808	 0.26588
C	-1.7292523772	-1.826770799	-0.9300991816	-0.365965
C	-1.6909972348	-3.0441320583	-0.0063917852	-0.060128
C	-1.2747980857	-2.7566999585	 1.236080818	-0.179543
H	 0.7580488185	 1.8378186187	 0.0078581911	 0.281435
H	 0.7108739359	-0.3791315627	-0.6781129457	 0.068133
H	 1.1845156043	-1.147145852	 1.5318262463	 0.10117
H	 0.3434775119	 0.2306332477	 2.2906889742	 0.094916
H	-3.1703082815	-0.8023367263	 1.2034531147	 0.115351
H	-2.129138343	 0.649272797	 1.5990220107	 0.120678
H	-2.7186898325	-1.6918317711	-1.3851719192	 0.110955
H	-1.0220165734	-1.9370372323	-1.7639894883	 0.106079
H	-2.0079882602	-4.0283037347	-0.3388446903	 0.090772
H	-1.1644993527	-3.4844084171	 2.0332626493	 0.092265
