18
gdb 15989	3.73741	1.49123	1.2043	1.7318	68.11	-0.2518	0.0721	0.3239	1041.9654	0.152536	-384.899776	-384.89166	-384.890716	-384.932579	29.62	
C	 0.0980226757	 1.570136411	 0.0364988183	-0.382101
C	-0.2634971055	 0.1020516795	-0.2104585037	-0.195953
C	 0.6684621333	-0.5597057947	-1.2094484751	 0.072509
O	 2.0460228506	-0.6185490246	-0.741755438	-0.300401
C	 2.1400196013	-2.0417534469	-0.9684372123	-0.150188
C	 0.6651596835	-2.0830409331	-1.3474235461	 0.355685
C	-0.3760506521	-3.0788445113	-1.1082909774	-0.257035
O	 0.1219692037	-2.8020030973	-2.4295873119	-0.260659
H	 1.1262164971	 1.6530823808	 0.3992202232	 0.139607
H	 0.017553407	 2.1575668275	-0.8846596934	 0.116301
H	-0.565572889	 2.0199654393	 0.7806218781	 0.112532
H	-0.2263871178	-0.4589948711	 0.731052044	 0.097878
H	-1.2896904026	 0.0218970566	-0.5929996046	 0.100193
H	 0.6136609895	-0.0563647141	-2.1863569166	 0.085625
H	 2.8184199231	-2.2922042868	-1.7941603013	 0.114314
H	 2.4426822362	-2.5872833511	-0.0668431684	 0.109809
H	-0.1088819937	-4.0546992487	-0.7047056708	 0.120093
H	-1.4013481504	-2.762789745	-0.922185694	 0.121791
