18
gdb 46350	3.47871	1.12859	0.89819	1.023	72.95	-0.2526	0.0223	0.2749	1272.8296	0.148333	-439.059841	-439.051538	-439.050594	-439.094212	29.775	
N	 0.0128340184	 1.1703544389	-0.3521195769	-0.543725
C	 0.0203374026	-0.0429502694	-0.0361444501	 0.425055
O	 1.0485820814	-0.863493369	 0.3748452927	-0.253401
C	 0.1368092685	-2.001221817	 0.5210569004	-0.103894
C	-1.04634649	-1.1185238673	 0.0681857193	-0.146427
C	-2.1470605162	-0.8493645007	 1.076789448	 0.150435
C	-3.2990941464	 0.0833667627	 0.6453338845	-0.289627
C	-4.1951683185	-1.1458788894	 0.8988741108	-0.069019
O	-3.0480555377	-1.9728323028	 1.2052435949	-0.299227
H	 0.9461457782	 1.5802787936	-0.2839725852	 0.229333
H	 0.4199795997	-2.8166662569	-0.1473355085	 0.12551
H	 0.1070166524	-2.3475789449	 1.5569628307	 0.129181
H	-1.480211887	-1.4042890715	-0.8931592926	 0.106909
H	-1.7027976144	-0.5914916878	 2.0489372073	 0.079442
H	-3.4714616672	 0.9481385181	 1.2857232205	 0.119819
H	-3.2425029489	 0.4144689931	-0.3924162468	 0.126292
H	-4.8738506584	-1.0626222142	 1.7564764764	 0.105738
H	-4.7563153664	-1.5297975055	 0.0393496546	 0.107606
