18
gdb 22344	3.03242	1.09627	0.85561	1.0005	82.21	-0.222	-0.0302	0.1918	1337.2714	0.146437	-439.066551	-439.057302	-439.056358	-439.101318	34.164	
C	-0.0955862001	 1.5024021513	 0.0741792338	-0.490576
C	-0.0412191764	 0.0146669778	-0.0268461042	 0.280839
C	-0.0074502415	-0.7413675962	-1.1371934259	-0.258748
C	 0.0441969568	-2.1618998979	-0.8056883646	 0.374708
C	 0.0373057432	-2.2999602445	 0.706044923	-0.3373
C	 0.0303365926	-0.8393300032	 1.2300791225	 0.034518
O	 1.154561538	-0.4992672107	 2.0395273435	-0.426203
N	 0.0781018646	-3.1851599838	-1.5719459043	-0.236941
O	 0.0534439792	-2.8121296053	-2.9300618263	-0.397694
H	 0.7070218927	 1.8674143798	 0.7243821448	 0.142739
H	-0.0116640127	 1.9845342998	-0.9026396456	 0.127675
H	-1.0374055464	 1.8252894776	 0.5372963845	 0.135035
H	-0.0214299141	-0.379630839	-2.1562850914	 0.119137
H	-0.8382613513	-2.8612510671	 1.0438024111	 0.128768
H	 0.9184665789	-2.8312757528	 1.0772460356	 0.125336
H	-0.8286946214	-0.6503658418	 1.8838617649	 0.094884
H	 1.9451913454	-0.6245721966	 1.5015311018	 0.278585
H	 0.0787455825	-3.6666619974	-3.3722739733	 0.305237
