18
gdb 54687	3.50496	1.11989	0.87745	2.9042	75.86	-0.2437	-0.0253	0.2183	1284.994	0.149027	-439.127616	-439.119192	-439.118248	-439.160856	31.845	
N	 0.0065915708	 1.32648101	 0.1340440093	-0.5439
C	 0.0742783281	-0.0426437494	 0.0715629038	 0.34018
O	 1.1420560298	-0.6265303562	 0.0094703881	-0.365016
C	-1.2469992104	-0.7546382712	 0.0592948497	 0.181582
C	-1.2368825656	-2.0897163456	 0.108262983	-0.119686
C	-2.4880840243	-2.9110266529	 0.1422284382	-0.132058
O	-3.6636440173	-2.1496206001	 0.3353449232	-0.243516
C	-3.6762518171	-0.9709817879	-0.4483964431	-0.087922
C	-2.5615460722	-0.0091179008	-0.0228012064	-0.340291
H	 0.87939403	 1.8095116828	 0.2754747278	 0.259662
H	-0.8363690292	 1.7995807349	 0.4098844721	 0.257199
H	-0.2823762231	-2.6076504192	 0.1217213882	 0.127493
H	-2.5568915588	-3.5086184143	-0.7866389567	 0.106527
H	-2.4474308403	-3.6287642563	 0.9706054351	 0.127556
H	-3.5600050799	-1.2178157137	-1.5165124249	 0.094975
H	-4.6627621498	-0.5205322408	-0.3102862421	 0.110401
H	-2.816792485	 0.4445361489	 0.945401463	 0.115879
H	-2.4987591755	 0.8079173519	-0.7527406582	 0.110935
