12
gdb 131120	3.32383	1.20902	0.97811	2.1413	59.6	-0.3265	-0.0723	0.2542	1118.5913	0.077186	-468.755719	-468.748037	-468.747093	-468.789125	26.673	
O	 0.1222526265	 1.48912033	-0.0723126912	-0.387636
C	 0.0135036189	 0.0953170048	-0.0014758423	-0.10805
C	 0.5777325889	-0.5733639779	-1.2023042305	 0.258674
N	 1.0148445598	-1.096182277	-2.1347499737	-0.303361
C	 0.6547917419	-0.4855337874	 1.2384762393	 0.323912
N	 1.3919089856	 0.2587280825	 2.0141984757	-0.146757
O	 1.8228757914	-0.5569290859	 3.0166084081	-0.142099
N	 1.3462776002	-1.8264516849	 2.8618924147	-0.043452
C	 0.628993405	-1.8043817056	 1.7736484352	-0.103178
H	 1.0040970969	 1.7429543533	 0.2298085507	 0.314764
H	-1.059984932	-0.1316422104	 0.0156719916	 0.166537
H	 0.1352819569	-2.6923454715	 1.4108653424	 0.170645
