10
gdb 248	8.85115	2.58309	2.01992	6.1119	41.58	-0.2548	-0.0128	0.242	566.0758	0.073232	-338.542975	-338.536767	-338.535823	-338.573022	20.96	
N	-0.129779191	 1.4037291626	 0.1052885032	-0.562622
C	 0.1384630557	 0.0439490492	 0.1015292807	 0.471379
O	 1.2450747098	-0.4243297446	 0.1571271472	-0.325809
N	-1.0524984975	-0.7178278417	 0.0928848221	-0.358932
C	-1.1635888109	-2.0939635759	-0.0583736217	 0.170198
O	-0.2798163111	-2.8656519175	-0.3056596605	-0.254105
H	 0.6987006908	 1.9653291316	-0.0229545225	 0.270654
H	-0.9429286322	 1.7402730718	-0.3878579827	 0.253904
H	-1.9123378264	-0.2309595446	 0.2982550017	 0.253979
H	-2.2230108572	-2.3996960009	 0.0693936925	 0.081354
