15
gdb 74565	2.61403	1.67533	1.33266	2.014	71.49	-0.2173	0.0403	0.2576	979.0242	0.113012	-416.773787	-416.766092	-416.765147	-416.805815	30.036	
N	 0.0458644815	 1.319099613	 0.1468619275	-0.577567
C	-0.0580656483	-0.0325843084	 0.016085217	 0.467085
N	-1.1318565666	-0.7296183473	-0.0435695252	-0.339093
C	-0.6992030853	-2.0970732184	-0.03911061	-0.040539
C	 0.8091023902	-2.0627635393	-0.0256881388	 0.038613
O	 1.1432325792	-0.6898009877	-0.0067296343	-0.237323
C	 0.0777865847	-2.6049232854	 1.1947962691	-0.297436
C	 0.0725613314	-1.9172741967	 2.4472149353	 0.350943
C	 0.072754306	-1.3407278428	 3.5027144543	-0.435961
H	 0.8940116973	 1.73176238	-0.2087281642	 0.266247
H	-0.8023098579	 1.822601922	-0.0590639259	 0.272457
H	-1.2990858474	-2.8108774126	-0.5906541001	 0.105173
H	 1.5091645988	-2.6634436311	-0.5915426818	 0.116656
H	 0.119959805	-3.6897178409	 1.2555437163	 0.117218
H	 0.0661939914	-0.8301731144	 4.4333375709	 0.193527
