18
gdb 10963	5.26806	1.31275	1.19287	1.3026	68.48	-0.2421	0.0799	0.322	1043.0844	0.152621	-384.893629	-384.885503	-384.884559	-384.925941	30.545	
C	 0.1353374984	 1.2700508761	 0.144063387	-0.234973
O	-0.2931668907	-0.022793376	-0.2169427403	-0.241116
C	 0.4799557581	-0.5975401073	-1.2397943879	 0.149578
C	 1.9035587681	-1.1609003778	-0.8671380971	-0.342055
C	 1.4029528408	-2.5477952441	-1.2866529074	 0.397752
O	 2.1435206751	-3.4481053156	-2.031688916	-0.46173
C	 0.2065653597	-2.9467486941	-0.4747624351	-0.334422
C	 0.0284249217	-1.9944874656	-1.640938002	-0.141669
H	 1.164871777	 1.2716079703	 0.5333540081	 0.106216
H	 0.0912032034	 1.9659616848	-0.7088856484	 0.103323
H	-0.5364198079	 1.6298752144	 0.9271948861	 0.126163
H	 0.5396907516	 0.0859685567	-2.0992196909	 0.069052
H	 2.6869950245	-0.7816799924	-1.5269496019	 0.106984
H	 2.2136088815	-1.0466989997	 0.1769905443	 0.092399
H	 2.614908427	-4.0276335037	-1.4232644104	 0.285707
H	-0.15110635	-3.9515318007	-0.6756801702	 0.111103
H	 0.0632417132	-2.5979953769	 0.5439000566	 0.116062
H	-0.6223024116	-2.2318209283	-2.4728097246	 0.091626
