16
gdb 86855	3.32	1.10586	0.90929	2.7196	69.52	-0.2586	-0.0481	0.2105	1229.9264	0.124462	-437.926225	-437.917894	-437.91695	-437.959736	30.59	
O	-0.1472199236	 1.4307860478	-0.2232970672	-0.432891
C	-0.03298733	 0.0341564008	 0.0396988362	 0.012109
C	-1.4310724893	-0.5680998999	 0.0073515613	-0.229678
C	-1.7110648094	-0.769945144	-1.5109380904	-0.155633
C	-0.3561954299	-1.2603837239	-2.0743553716	-0.336148
C	 0.6857583222	-0.586439857	-1.1807851888	 0.383875
O	 1.8619092677	-0.4757419195	-1.4068474794	-0.312237
C	-2.8232794035	-1.672349248	-1.7819455299	 0.266334
N	-3.6990921221	-2.3976796214	-1.9888771941	-0.318928
H	 0.7437484843	 1.7695821266	-0.3740486275	 0.300189
H	 0.509506582	-0.1591279175	 0.9729528023	 0.096193
H	-1.4334575344	-1.5372921874	 0.5156450516	 0.128762
H	-2.1689512599	 0.0769914091	 0.4865938153	 0.140485
H	-1.9468282357	 0.2056912371	-1.9480893089	 0.148662
H	-0.2580892608	-2.3459432675	-1.9500315852	 0.156737
H	-0.1929816076	-1.0354511052	-3.1295764436	 0.152168
