17
gdb 67133	2.10271	1.87253	1.48916	4.2148	72.78	-0.2324	0.0078	0.2402	979.4912	0.134978	-421.793156	-421.785016	-421.784072	-421.825567	31.186	
C	-0.1382336896	 1.4506851686	 0.0055458809	-0.511436
C	 0.0342141114	-0.0369023208	 0.0189060934	 0.155867
C	-0.0798027459	-0.9232411237	-1.2540622225	-0.196781
C	 0.6452663499	-2.2398563473	-0.9626736989	-0.237742
C	 0.0250645565	-2.1667373423	 0.4602747347	-0.261615
C	 0.6716316023	-0.9020436417	 1.0654267807	 0.392691
O	 1.2277529016	-0.6680642692	 2.102485394	-0.341672
C	-1.0425323682	-1.1285919227	-0.123544872	 0.337007
O	-2.377858201	-0.9343059069	 0.0732422339	-0.443353
H	 0.7527019833	 1.9532058922	-0.3847206214	 0.130608
H	-0.9907277618	 1.7411820827	-0.616415891	 0.128582
H	-0.3163375045	 1.82185089	 1.0191551271	 0.143472
H	-0.2427677534	-0.4323992261	-2.2060073947	 0.100443
H	 0.2407086308	-3.0660338548	-1.5538505649	 0.104735
H	 1.7397155197	-2.2453517671	-1.0147913888	 0.107235
H	-0.1631706445	-3.0469301664	 1.068710443	 0.093152
H	-2.8652646667	-1.6226565143	-0.3945118936	 0.298806
