19
gdb 91624	2.30182	1.92233	1.41258	2.1574	74.88	-0.2337	0.0072	0.2409	1002.9683	0.1597	-423.027642	-423.019749	-423.018804	-423.059677	31.154	
C	-0.1897437445	 1.5330210409	-0.0376064312	-0.41431
C	 0.037371178	 0.0325397353	 0.0259410339	 0.148884
O	 0.8500997885	-0.4161790692	-1.0733093683	-0.300198
C	 1.8808096933	-1.2125629245	-0.4381381296	 0.141885
O	 1.2115171909	-1.8053288636	 0.6555034315	-0.23378
C	 0.8376609085	-0.5464901546	 1.2475496239	-0.096988
C	 2.1737772943	 0.1919712534	 1.3194323566	 0.340592
C	 2.5220597699	 1.2290105002	 2.3324610801	-0.511655
C	 2.8395765969	-0.2452304953	 0.2455164564	-0.205125
H	 0.7581259902	 2.0763160013	-0.0201601336	 0.125732
H	-0.7089995539	 1.7919210147	-0.9646776634	 0.130319
H	-0.8110726471	 1.8677928166	 0.8006491858	 0.110362
H	-0.9218144396	-0.4988428416	-0.0168064401	 0.085481
H	 2.2583901523	-1.9493120489	-1.1440430497	 0.091723
H	 0.2699998003	-0.6883638049	 2.1661582519	 0.084775
H	 2.4998589546	 0.813444835	 3.347865267	 0.132019
H	 3.5191499753	 1.6405957771	 2.1544835135	 0.131511
H	 1.8065147816	 2.0603251977	 2.3199716857	 0.132926
H	 3.7906219507	 0.0880583103	-0.1468918203	 0.105846
