24
gdb 59063	2.11924	1.23916	1.01785	0.3626	86.33	-0.2142	0.072	0.2862	1358.489	0.213622	-405.523056	-405.511604	-405.51066	-405.559241	42.048	
C	-5.6729247677	-4.2511517275	 0.0194360752	-0.403862
C	-4.3863084939	-4.0733565994	-0.7894038197	 0.121256
O	-4.644280117	-4.1422829213	-2.1928176217	-0.43598
C	-3.686405353	-2.7674157133	-0.4487317439	-0.070131
N	-2.7422069943	-2.5865083627	 0.659989921	-0.13698
C	-2.3930440876	-3.6873957857	 1.544027282	-0.317687
C	-2.2357050246	-2.5084904828	-0.7187670022	 0.301412
C	-1.3499521909	-3.5917887359	-1.3086302953	-0.453024
C	-1.8205117957	-1.1073688559	-1.1313828177	-0.436503
H	-6.1826445848	-5.1718475094	-0.2771717855	 0.122273
H	-5.4620259571	-4.2950996641	 1.0928056645	 0.122322
H	-6.3554132726	-3.4091008817	-0.1503493439	 0.107759
H	-3.7303451402	-4.9255220044	-0.5974043049	 0.084704
H	-5.2087475551	-3.395054552	-2.4211205524	 0.276607
H	-4.3649060445	-1.9146466894	-0.5590661575	 0.06557
H	-2.2855772433	-4.6753853812	 1.0742269455	 0.101342
H	-1.443568617	-3.4504913186	 2.0355282921	 0.122199
H	-3.1569446133	-3.7688324617	 2.3247530259	 0.122268
H	-1.3924273715	-3.5504971767	-2.4015042036	 0.130238
H	-0.3069890061	-3.4344494628	-1.0099087858	 0.113499
H	-1.6330177489	-4.6020382056	-1.012098999	 0.11826
H	-0.7879998461	-0.9016247833	-0.8256216384	 0.11245
H	-1.8774676036	-0.9862354459	-2.2192664696	 0.110857
H	-2.4651209513	-0.3611821587	-0.6606193951	 0.12115
