14
gdb 24988	4.89306	1.24327	1.00391	3.4202	64.13	-0.2149	0.0269	0.2418	1087.9756	0.102642	-473.855179	-473.847857	-473.846913	-473.887874	26.289	
O	 0.0377181223	 0.0049168139	 0.0534828982	-0.382203
C	-0.0293486787	 1.1989763109	 0.0306613112	 0.458164
N	-1.1450159065	 2.0253857712	 0.0314103877	-0.499334
C	-0.722394076	 3.3498857766	-0.0014873883	 0.247297
C	 0.6028851253	 3.3271763919	-0.021404431	 0.266192
C	 1.1853154528	 4.6950879833	-0.057448048	-0.167939
O	 0.0006489279	 5.517773814	-0.0555916618	-0.279927
C	-1.2211587009	 4.7531921862	-0.0216073377	-0.162605
O	 1.0878625411	 2.0489045917	-0.0033672845	-0.252149
H	-2.077171787	 1.6516754235	 0.0531770848	 0.28021
H	 1.8033531459	 4.9414674958	 0.8172474297	 0.125178
H	 1.7761077826	 4.906263976	-0.9597417664	 0.12518
H	-1.8274556443	 4.9978713821	-0.9056994679	 0.120969
H	-1.8000983545	 5.0330443028	 0.870355994	 0.120968
