19
gdb 87633	2.83074	1.20864	1.03938	3.7796	76.5	-0.2362	-0.017	0.2192	1210.1068	0.156615	-423.016233	-423.006977	-423.006033	-423.050599	34.587	
C	-0.4861176169	 1.2785942491	-0.0178099735	-0.410596
C	 0.064203028	-0.1411659268	-0.0739425937	-0.160392
C	 1.3746690615	-0.3573840793	-0.857305313	 0.399223
O	 1.7497535142	-0.0160467476	-1.9411030018	-0.297237
C	 2.0460534103	-1.0943657677	 0.3206917841	-0.444328
C	 0.7946568574	-0.7498932728	 1.1458929466	 0.322554
C	 0.7533699764	-0.2252136563	 2.5591712936	-0.390705
C	 0.1455007308	-1.5656915819	 2.209129239	 0.038436
O	-1.2440921737	-1.6866401341	 2.1110604408	-0.419908
H	 0.2623866384	 1.9819468179	 0.3604944678	 0.118851
H	-0.7835188667	 1.6075592255	-1.0177585932	 0.134223
H	-1.3638375206	 1.3276848979	 0.633860682	 0.124463
H	-0.7102545068	-0.8273219129	-0.4405425722	 0.116376
H	 2.2050333865	-2.1618973687	 0.1323529013	 0.13072
H	 2.9931040684	-0.6529529001	 0.6466548582	 0.129912
H	 1.6734572153	-0.2075137495	 3.135503818	 0.113575
H	 0.0642422247	 0.5864394149	 2.7716097273	 0.118016
H	 0.6636476799	-2.4629016752	 2.5512236225	 0.086258
H	-1.6106498672	-1.6827634024	 3.0015537261	 0.29056
