21
gdb 101626	2.45348	1.00507	0.84249	2.1907	81.29	-0.2573	0.0334	0.2907	1466.3256	0.17852	-424.183082	-424.172147	-424.171202	-424.219958	39.507	
C	 0.4845114325	 1.5585310966	 0.4418151659	-0.396034
C	-0.0047713196	 0.1829527146	-0.0097666724	 0.111028
C	 0.5876496806	-0.2334292319	-1.3588263563	-0.059484
O	 1.9953040191	-0.3557764903	-1.2973047853	-0.421771
O	 0.3856719358	-0.8725168197	 0.8757375939	-0.27343
C	-0.2858358929	-0.9594331924	 2.1267562993	-0.050559
C	-0.3884437833	-2.4456481699	 2.4856023278	-0.386266
C	 0.4046263867	-0.2119454647	 3.1877042393	 0.359165
C	 0.9711869988	 0.3627380239	 4.0786526489	-0.488558
H	 1.576571877	 1.5781517793	 0.4614242067	 0.135737
H	 0.1362676435	 2.3221920929	-0.2617803418	 0.110754
H	 0.1112587206	 1.8144720666	 1.4354496442	 0.124926
H	-1.104282326	 0.1871966436	-0.096081035	 0.064844
H	 0.1170373961	-1.1774952199	-1.6741245208	 0.087316
H	 0.3641738697	 0.5270162054	-2.1142493852	 0.104722
H	 2.1743937411	-0.9299178487	-0.5429443172	 0.290829
H	-1.3022410674	-0.5499442107	 2.0165323594	 0.099153
H	 0.6117745103	-2.8797614318	 2.5583697127	 0.136229
H	-0.8953028955	-2.573425416	 3.4453621045	 0.127911
H	-0.9468401335	-2.972770056	 1.7080693582	 0.121847
H	 1.4724799064	 0.8845250592	 4.8562587532	 0.20164
