14
gdb 28854	3.24061	1.44607	1.09106	2.2672	77.65	-0.2369	-0.0783	0.1586	1052.1223	0.102833	-432.886968	-432.879789	-432.878845	-432.91885	27.358	
O	 0.0866209343	 1.185353393	-0.552895782	-0.390107
C	-0.0087706054	-0.0853631116	-0.1263493014	 0.419128
C	-1.241326255	-0.674273273	-0.0877195259	-0.190287
C	-1.4836019196	-2.0209002246	 0.3206933941	 0.005112
N	-0.6829028135	-3.0375003228	 0.3788187787	-0.281941
C	 0.6427548855	-2.9732690701	-0.0345935326	 0.286482
N	 1.2510658378	-3.871938766	-0.7033250107	-0.496409
C	 1.4609081962	-1.8284085684	 0.4520794477	 0.015964
N	 1.1768335496	-0.5833572817	 0.3576413358	-0.288254
H	 0.9987352478	 1.4646283915	-0.3908625095	 0.307325
H	-2.0982317421	-0.0397856151	-0.2850423631	 0.115646
H	-2.511632852	-2.2317772586	 0.6245261704	 0.121213
H	 0.5894939981	-4.6089459524	-0.9649411447	 0.225833
H	 2.4134423281	-2.0869516002	 0.9157569332	 0.150295
