19
gdb 40476	3.67176	1.39028	1.25911	1.8937	80.21	-0.2296	0.0827	0.3123	1059.5883	0.160323	-381.93609	-381.928827	-381.927882	-381.968026	29.05	
C	-0.1149990377	 1.3461022448	-0.2196200138	-0.236451
C	 1.2863018757	 0.9075759951	 0.0192843965	-0.236462
N	 0.1816442305	-0.0465893092	 0.1155511013	-0.179681
C	-0.1811527246	-0.4957758818	 1.4195788706	 0.361899
C	-0.2127371376	 0.1648617616	 2.8102284183	-0.24265
N	-0.7057339855	-1.2393376821	 3.1333685268	-0.157979
C	-1.4703067185	-1.294238554	 1.7849293817	-0.049099
C	-0.8570657827	-2.6540151058	 1.4370673026	-0.261432
C	 0.2658399665	-1.8355480891	 2.0814815393	-0.049086
H	-0.5780385189	 1.9677800858	 0.5439349952	 0.116447
H	-0.4756263682	 1.5167850333	-1.2296061808	 0.120446
H	 1.965997006	 0.7526654615	-0.8133456533	 0.120444
H	 1.7592405323	 1.2363888685	 0.942387229	 0.116433
H	 0.7368537671	 0.4114148428	 3.2970018805	 0.098745
H	-0.9604167353	 0.9405599758	 3.007016514	 0.09875
H	-2.5039617773	-0.9482121539	 1.7268111308	 0.080065
H	-1.2217195273	-3.5082994039	 2.0125415547	 0.105926
H	-0.7474147015	-2.8835246369	 0.3761431414	 0.113628
H	 1.2767201771	-2.1269823625	 2.3725926452	 0.080056
