20
gdb 102315	2.46127	0.92981	0.78547	3.0935	76.91	-0.2794	0.0197	0.2991	1535.0955	0.167992	-440.288852	-440.278093	-440.277149	-440.325261	37.764	
C	 0.0016082557	 1.4294529779	 0.2275950759	-0.24965
O	 0.0171275503	 0.0599461762	-0.1382088077	-0.234234
C	-1.2380705279	-0.5752033035	-0.0475389719	-0.023678
C	-1.1292904873	-1.9364288857	-0.7438422037	-0.223002
C	-0.9391278207	-1.7773629664	-2.2596955733	 0.129603
C	-0.7548485573	-3.1230473796	-2.9568869368	-0.414024
O	-2.0143770666	-1.0326890415	-2.8306936088	-0.431572
C	-1.6585487722	-0.7286309493	 1.3644629078	 0.270244
N	-1.9831303371	-0.8409613881	 2.4680013706	-0.327757
H	 1.015618081	 1.8052145915	 0.0790287049	 0.137296
H	-0.6925642047	 2.0032318846	-0.4030495666	 0.118459
H	-0.2808230584	 1.5633190567	 1.2804822776	 0.13322
H	-2.0082727735	 0.0175893223	-0.5645712385	 0.125294
H	-0.2884404915	-2.4855173909	-0.3076433062	 0.126092
H	-2.0394640596	-2.5146350881	-0.5421787152	 0.107784
H	-0.0561403049	-1.1530465477	-2.4281231516	 0.112553
H	-1.6240290091	-3.7721977828	-2.7896041124	 0.10935
H	-0.6384603637	-2.9769906707	-4.0339602556	 0.129841
H	 0.1283106976	-3.6477481104	-2.579441816	 0.125066
H	-2.7941870302	-1.5996985044	-2.8391774825	 0.279115
