21
gdb 119685	4.37247	1.00096	0.96811	0.7765	82.98	-0.233	0.1002	0.3331	1338.4625	0.182481	-387.031981	-387.02357	-387.022626	-387.065491	32.598	
C	 0.0174693229	 1.4842000202	-0.1373527642	-0.387253
C	-0.1546723384	-0.0238399179	-0.1737153231	-0.060816
O	 0.8623752142	-0.567508935	-1.0109132541	-0.296369
C	 0.8222176485	-1.9349926357	-1.1214524269	 0.457453
C	 1.2950927291	-2.9712589007	-0.1021298732	-0.302203
C	 1.2541718685	-3.9684676984	-1.2967927844	-0.064861
C	-0.2570660655	-4.1022008764	-1.6410653274	-0.226808
C	-0.1721827104	-2.6419247927	-2.0739949695	-0.130988
C	 1.3308766318	-2.7306542111	-2.2841831967	-0.162439
H	 1.0019731586	 1.7487809549	 0.2588295641	 0.127299
H	-0.0708164079	 1.905615878	-1.1428129543	 0.126267
H	-0.7471809605	 1.9394340471	 0.4992097714	 0.114322
H	-0.0742409499	-0.4474409046	 0.8388501155	 0.0944
H	-1.145093307	-0.2995624273	-0.5658285235	 0.092382
H	 2.3207277796	-2.7615888263	 0.214701207	 0.101232
H	 0.6724111918	-3.2035030436	 0.7699783899	 0.08503
H	 1.9135568347	-4.8330627949	-1.3103284501	 0.072371
H	-0.4214770009	-4.7656725498	-2.495493582	 0.097907
H	-0.9368834306	-4.3792415767	-0.8260606813	 0.084421
H	-0.8758626752	-2.0541139208	-2.6499947013	 0.08444
H	 1.9644719765	-2.4729714984	-3.119742306	 0.094215
