17
gdb 17207	4.48073	1.82626	1.59012	2.2543	68.22	-0.2192	0.0708	0.2901	846.4987	0.143204	-363.789515	-363.782782	-363.781838	-363.820449	26.505	
C	-0.2773910985	 1.3644730803	 0.0626659439	-0.299758
C	 1.1635857111	 0.8985586208	-0.044707031	-0.342824
C	 0.0401804163	-0.0922631607	-0.0004218995	 0.366978
N	-0.20990807	-1.0703780189	 1.0863609808	-0.376399
C	-0.5014242391	-2.1229945894	 0.0723333827	-0.051976
C	-1.9859586314	-2.1519550204	-0.333979849	-0.063991
O	-1.7681222313	-1.1485237862	-1.3608940312	-0.29059
C	-0.3569156113	-1.0982681488	-1.0794566702	 0.000848
H	-0.6080279883	 1.7534503438	 1.0197144163	 0.120287
H	-0.7443157372	 1.8244409292	-0.8016500907	 0.123773
H	 1.6908171534	 1.0395147395	-0.9835434252	 0.115879
H	 1.7910887905	 0.9915401562	 0.8369496892	 0.111731
H	 0.6378868252	-1.2796179491	 1.6046589677	 0.218548
H	 0.0399999	-3.063407765	 0.1712666395	 0.080308
H	-2.3335216383	-3.0944544871	-0.7753852567	 0.098194
H	-2.6816556899	-1.8180904608	 0.4427739331	 0.111835
H	 0.2574393189	-1.1774741633	-1.9801892697	 0.077157
