17
gdb 26355	2.51876	1.41081	0.96392	1.2447	69.93	-0.2137	0.021	0.2347	1190.2513	0.134942	-458.977819	-458.968893	-458.967949	-459.011479	33.222	
C	 0.0973560256	 1.4428833903	-0.3017747662	-0.402581
C	 0.0149885208	-0.0348690239	 0.1024977499	-0.00415
O	 0.5839632808	-0.247419105	 1.3888286713	-0.419123
C	-1.3921991808	-0.570092107	 0.0321744555	 0.109643
C	-2.0884724301	-1.163888308	 1.039648305	-0.094743
O	-3.3414364039	-1.4976273414	 0.644393039	-0.148311
C	-3.4604046334	-1.132044756	-0.6640138881	-0.078848
C	-2.301334718	-0.5614451202	-1.0877432417	 0.160185
O	-2.0947168083	-0.0406592873	-2.3347972937	-0.440988
H	 1.1359752042	 1.7828304724	-0.273986149	 0.124474
H	-0.307870733	 1.6077235121	-1.3044196654	 0.120707
H	-0.4938121871	 2.0554252391	 0.3889131235	 0.116922
H	 0.6596055329	-0.6170969847	-0.5717096562	 0.094864
H	 0.125329942	 0.3371396984	 2.0033721897	 0.279614
H	-1.8232316454	-1.4232892599	 2.0502391915	 0.141112
H	-4.4040525675	-1.327508128	-1.1424513511	 0.13954
H	-1.175902809	-0.178889321	-2.5843514342	 0.301684
