12
gdb 28410	3.23486	1.47333	1.01228	2.5293	63.36	-0.2202	-0.0631	0.1571	1047.5537	0.077323	-509.814604	-509.807313	-509.806368	-509.8464	27.472	
O	 0.0580266812	 1.3241696426	 0.0079064931	-0.397995
C	-0.0577049021	-0.0081886422	 0.0012200331	 0.444476
C	-1.2234387117	-0.6894615471	 0.0039958103	-0.19459
N	-1.2160953507	-2.064447964	-0.0036289795	-0.316573
C	-0.0960868105	-2.6953502888	-0.0133782711	 0.273244
O	-0.0403966652	-4.0386387542	-0.0210955188	-0.388306
C	 1.2268557893	-2.0467682554	-0.0172173303	 0.375967
O	 2.3081687865	-2.5537412341	-0.0260445023	-0.306247
O	 1.1290166398	-0.6488310662	-0.008954552	-0.248107
H	 0.9977696705	 1.5482431482	 0.0039905865	 0.317726
H	-2.1744042373	-0.1773521773	 0.0121514236	 0.133562
H	-0.95700199	-4.3492919813	-0.0176642825	 0.306842
