20
gdb 81828	2.19592	1.64897	1.17348	0.7943	85.49	-0.2066	0.0335	0.2401	1142.4368	0.168653	-365.933323	-365.923953	-365.923009	-365.966897	35.715	
C	-0.2790128808	 1.4845521891	-0.1058732621	-0.323107
N	 0.0705183997	 0.0747203307	-0.0970101193	-0.086988
C	 0.7522062726	-0.4912936388	-1.2558794388	-0.051463
C	 2.1829965142	-0.0284637673	-1.401009599	-0.355906
C	 1.8438801397	-1.1019786948	-0.3962691229	 0.327374
C	 2.44406869	-2.4756936619	-0.3709671751	-0.502401
C	 1.1519958724	-0.4385277754	 0.8183861412	-0.215819
C	 1.9223387934	 0.5265694097	 1.5863016086	 0.354564
C	 2.5504856787	 1.3333392344	 2.2205711115	-0.484054
H	 0.5603325571	 2.1651753989	-0.3198871752	 0.104081
H	-1.0504531016	 1.642414301	-0.86699165	 0.117904
H	-0.6998815925	 1.7627407865	 0.8648940461	 0.124185
H	 0.1811831535	-0.9209713554	-2.0728623339	 0.091656
H	 2.6949101975	-0.3891003022	-2.2885909041	 0.109252
H	 2.4913230046	 0.9609652128	-1.0758934706	 0.118916
H	 2.6502487994	-2.8319316769	-1.385267863	 0.121346
H	 3.392231608	-2.4834657263	 0.1797320727	 0.127652
H	 1.7729181181	-3.1977600718	 0.1077839829	 0.120766
H	 0.7244064134	-1.1849588498	 1.4999966093	 0.10367
H	 3.1089923227	 2.0382880275	 2.7853904716	 0.198371
