18
gdb 26209	3.80447	1.11665	0.87643	3.5783	76.64	-0.1678	0.0585	0.2263	1302.1824	0.147852	-435.296717	-435.287315	-435.286371	-435.330894	34.214	
C	 1.3634016058	 0.2148912451	 0.4836484922	-0.330297
N	 0.0639945093	 0.1742545528	-0.1698491198	-0.161795
C	-1.0946998523	 0.3325325137	 0.6840081787	-0.344662
C	-0.04590658	-0.6648252164	-1.2609058739	 0.514198
N	 0.9714357771	-1.1294119315	-1.968170071	-0.452927
C	 0.3999799383	-1.8544662217	-2.9823873053	 0.352705
O	 1.1731358969	-2.473458547	-3.903797071	-0.442562
C	-0.9607158081	-1.853497395	-2.9103208117	-0.231421
N	-1.2365352921	-1.0768448972	-1.7726070092	-0.340103
H	 1.5330111827	-0.6479006987	 1.1472733299	 0.110701
H	 2.1418031709	 0.2155983597	-0.2786333613	 0.163297
H	 1.4359156225	 1.1313934889	 1.0762347639	 0.116625
H	-0.8782907035	 1.0960401372	 1.4346538498	 0.13488
H	-1.9555480771	 0.6877461581	 0.1060076137	 0.122429
H	-1.3844087465	-0.5931094151	 1.2098988108	 0.114734
H	 2.0842209255	-2.2662694213	-3.6647806697	 0.295812
H	-1.7331901053	-2.3053532646	-3.5045585155	 0.120928
H	-2.1510660041	-0.8687181172	-1.4161472705	 0.25746
