19
gdb 62810	2.28082	1.52988	1.35344	1.9465	82.86	-0.2393	0.015	0.2543	1083.5144	0.156322	-385.791016	-385.782048	-385.781104	-385.824109	34.962	
C	-0.1416792812	 1.5894067644	-0.0616426116	-0.481507
C	-0.0188015768	 0.0694780983	-0.0073317464	 0.301942
C	-1.3822244465	-0.5832195797	-0.2132274657	-0.460559
C	 1.1994259275	-0.6579751678	-0.6705076687	-0.016655
C	 2.1691094047	-0.0854649783	 0.3866711864	-0.279235
C	 0.8895956817	-0.604264391	 1.1023980672	 0.306513
O	 0.9787133741	-1.8135743362	 0.2320487608	-0.340324
C	 0.622351319	-0.7558683496	 2.4999317673	 0.083795
C	 0.3776930231	-0.8422498556	 3.6741736604	-0.358533
H	 0.8018353345	 2.1232541906	 0.0571841352	 0.118395
H	-0.5761204852	 1.893280278	-1.0205045001	 0.122259
H	-0.8213973224	 1.9361759886	 0.7244293442	 0.128947
H	-1.804458213	-0.283871187	-1.1791815977	 0.110238
H	-1.3089814725	-1.6695615186	-0.1815778464	 0.143047
H	-2.0819490645	-0.2553779015	 0.5634310598	 0.118246
H	 1.3803685736	-0.8814526024	-1.7219199615	 0.094989
H	 3.0458687526	-0.706788799	 0.5666422314	 0.116652
H	 2.3973529055	 0.9791263952	 0.4059846287	 0.10344
H	 0.1655446959	-0.9275306884	 4.7114806465	 0.188348
