15
gdb 125657	3.3298	1.5858	1.09279	1.9116	67.63	-0.1942	0.032	0.2262	1047.0968	0.114236	-453.928674	-453.921051	-453.920107	-453.960916	27.992	
C	-0.0006514703	 1.5088494251	-0.0686190766	-0.499953
C	-0.0044984138	 0.0207261773	 0.0544950589	 0.214106
N	-0.0136962835	-0.756148579	-1.0443842867	-0.301148
N	 0.0100911846	-2.056401769	-0.6041307819	-0.341133
C	 0.0051287958	-2.082800239	 0.736034053	 0.411122
C	-0.0012103237	-0.8061057198	 1.1906643314	 0.152402
O	 0.1110112628	-0.8149640491	 2.5765496224	-0.290059
C	-0.165150234	-2.1794289137	 2.8974684733	 0.000303
O	 0.0954434379	-3.0110273045	 1.7228416555	-0.28928
H	 0.8964969472	 1.9449929616	 0.3840842821	 0.132892
H	-0.0268335575	 1.7880601686	-1.1237371236	 0.143409
H	-0.8666483241	 1.954198861	 0.4326673371	 0.131308
H	-0.0344015841	-2.8052423274	-1.2717709853	 0.281186
H	 0.4872339365	-2.5085798856	 3.7075330831	 0.139335
H	-1.2284508336	-2.2956785365	 3.1555609574	 0.115509
