18
gdb 34040	3.02162	1.36184	1.16944	4.439	76.89	-0.2295	0.0308	0.2604	1095.6637	0.150554	-398.110996	-398.103085	-398.10214	-398.143415	30.825	
N	 0.0080979928	-1.0977179814	 0.091293295	-0.351421
C	-0.0053431308	 0.0580318039	 0.0408320013	 0.268568
C	-0.0224081392	 1.5022925937	-0.0567778277	 0.154625
C	 0.5714050401	 2.0877011687	-1.346464629	-0.320415
C	 1.3346713759	 2.1949867069	-0.0514276536	-0.019803
N	 1.4250869597	 3.4714719839	 0.6135459673	-0.3132
C	 0.4583782843	 3.6477161831	 1.6986364371	-0.151482
C	-0.9408264361	 3.4735692365	 1.1250695178	-0.149447
N	-1.114550615	 2.0925432827	 0.6718070437	-0.366359
H	 0.9109475338	 1.3952156951	-2.1080499857	 0.130668
H	 0.1152688844	 3.0032590429	-1.7058102542	 0.125582
H	 2.190439826	 1.5353950328	 0.0657128292	 0.114777
H	 2.3699343415	 3.6282980238	 0.9374689887	 0.230854
H	 0.5938111029	 2.9341722643	 2.5290947081	 0.100987
H	 0.569589772	 4.6605698052	 2.0966312923	 0.107852
H	-1.6923393361	 3.668920547	 1.8971768595	 0.110189
H	-1.0789224708	 4.2182295638	 0.3233546137	 0.095456
H	-1.9856718753	 1.9743026671	 0.1679184965	 0.232567
