15
gdb 39866	3.24223	1.90739	1.5441	1.6391	63.25	-0.2402	0.042	0.2822	851.6509	0.113314	-457.66516	-457.659084	-457.65814	-457.695501	24.978	
C	 0.0117777998	 1.4510598454	-0.0111859908	-0.28241
O	 1.1650511258	 0.5867075327	 0.0320345327	-0.286131
C	-0.115779706	 0.0009428609	 0.0060915709	 0.570961
C	-0.5804467292	-0.9363414817	 1.1157520165	-0.101771
O	 0.2506349422	-2.1063163558	 0.8404306366	-0.286267
C	-0.5602281154	-2.2796151385	-0.3220428466	 0.065101
C	-1.7850054994	-1.608929929	 0.3045396122	 0.062507
O	-2.0687597416	-0.816918111	-0.8536519901	-0.291745
C	-0.6322733309	-0.8925868827	-1.1195093087	-0.102427
H	-0.169606384	 2.0234002236	 0.8970430051	 0.122171
H	-0.1319501966	 1.9954933263	-0.9427444723	 0.125063
H	-0.592066495	-0.6248651945	 2.1570954706	 0.095468
H	-0.4808650035	-3.2358675797	-0.8339557412	 0.105497
H	-2.6375600728	-2.0601692691	 0.8075968968	 0.105375
H	-0.3433653833	-0.7237674069	-2.1537149218	 0.098608
