18
gdb 113162	3.10294	0.99924	0.88056	2.0022	68.85	-0.248	0.0156	0.2635	1345.9451	0.145454	-476.236382	-476.226421	-476.225477	-476.271644	35.881	
C	-0.2803809619	 1.7446120282	 0.2256467262	-0.471082
C	-0.1405175969	 0.2443282408	 0.1348888818	 0.265198
O	 1.1689984421	-0.2979225524	-0.1279257422	-0.312733
C	 0.5519376625	-0.5935407377	 1.140120666	 0.001518
C	 1.2734981109	-0.0781176657	 2.3607429326	-0.092606
O	 2.4088694091	-0.8784212281	 2.646665686	-0.414252
C	-1.270617015	-0.4270103473	-0.6389439359	 0.339165
N	-0.8792914315	-1.5080496935	-1.3619356616	-0.52554
O	-2.4133675453	-0.0159385261	-0.5717703044	-0.368412
H	 0.4843654542	 2.1917638637	 0.8605348916	 0.123648
H	-0.1988838527	 2.1850794301	-0.773091451	 0.134902
H	-1.2713909381	 1.9869243187	 0.6145052522	 0.158301
H	 0.2290072203	-1.6317183257	 1.2300008899	 0.10731
H	 1.5480351407	 0.9762480208	 2.2333796701	 0.099587
H	 0.6158156088	-0.1547321276	 3.2331339412	 0.123692
H	 2.9976692117	-0.8143320245	 1.886435387	 0.292971
H	 0.1034503956	-1.6899447014	-1.4822764706	 0.274106
H	-1.5586013546	-1.9689175822	-1.9437484989	 0.264227
