17
gdb 47829	2.51828	1.76632	1.19479	3.9884	68.88	-0.2624	-0.003	0.2594	1023.661	0.13789	-458.978709	-458.971263	-458.970319	-459.011033	28.444	
O	-0.0838675771	 0.3310729592	 1.0974581624	-0.315499
C	-0.108631287	 1.2373689393	 0.3104360498	 0.385204
O	-1.3223692376	 1.7548615759	-0.0658442716	-0.231904
C	-1.6091888064	 2.0926382186	-1.4166204241	 0.011412
O	-1.0003076807	 3.2529815138	-1.8801666733	-0.218387
C	 0.2994648279	 3.0627087617	-2.4133080162	-0.124601
C	 1.3560998481	 2.7930603318	-1.3664342715	-0.045437
C	 1.2867308593	 3.4213199117	-0.015931748	-0.288733
C	 1.1439084911	 1.9036875578	-0.1521895735	-0.132758
H	-1.3631607127	 1.2378547332	-2.0649755157	 0.101206
H	-2.684921962	 2.2732971885	-1.4201995142	 0.133393
H	 0.2835826823	 2.2475480582	-3.153999039	 0.1034
H	 0.5406900758	 3.9898159606	-2.9434786974	 0.122955
H	 2.3461516317	 2.6856679069	-1.8031156775	 0.10321
H	 2.188513963	 3.7952991161	 0.4537990174	 0.128066
H	 0.3781476019	 3.9619906013	 0.2221037764	 0.148226
H	 2.0034248222	 1.3213418255	 0.157106136	 0.120246
