17
gdb 110819	2.29284	1.47549	1.0808	2.7728	72.32	-0.2532	0.0049	0.2582	1129.6292	0.136262	-417.955101	-417.94664	-417.945696	-417.988553	31.079	
O	 0.0039392691	 0.6147140922	-1.5288263262	-0.421771
C	 0.0129500804	 0.1326651308	-0.1915693722	-0.130622
C	-1.3267755695	-0.54081085	 0.0027611518	 0.031351
C	-1.6301804236	-1.9687394036	-0.191774905	-0.028243
C	-0.4985049607	-2.8824287358	 0.2719972265	-0.286026
C	-0.6544994962	-2.207983703	 1.6656850532	-0.098119
C	 0.4933727159	-1.5702749859	 2.3011949623	 0.300449
N	 1.4050988829	-1.0738415801	 2.8108133382	-0.335263
N	-1.7742614135	-1.3065459946	 1.1887527585	-0.174294
H	 0.8065975775	 1.1269361906	-1.6644171701	 0.292968
H	 0.8540874383	-0.5508375315	-0.0231969281	 0.104352
H	 0.1118365024	 0.9520211484	 0.5358079756	 0.114712
H	-2.1349760189	 0.1208579438	-0.3024921482	 0.117998
H	-2.5026514985	-2.3073883048	-0.739606423	 0.109525
H	-0.7657953018	-3.9386993444	 0.3005754717	 0.129348
H	 0.4604414966	-2.7723432057	-0.2385097116	 0.132204
H	-1.0919803004	-2.8988659165	 2.3906860664	 0.141431
