20
gdb 85836	2.04064	1.44584	1.32206	4.1088	78.79	-0.2713	0.0134	0.2846	1147.6056	0.168669	-403.160537	-403.150672	-403.149728	-403.195095	36.273	
C	-0.4437866348	 1.3978351745	-0.1301779455	-0.404762
C	 0.014998404	-0.0414129555	 0.0114547034	 0.136886
O	 1.1838645592	-0.3227341368	-0.8124380176	-0.321963
C	 2.0195826127	-0.5683449476	 0.3376008028	 0.25927
C	 2.7424750217	-1.9068399321	 0.2516285189	-0.442511
C	 2.9942218126	 0.5274476285	 0.5108393464	 0.273171
N	 3.7518010768	 1.3878108288	 0.6606062433	-0.351219
C	 0.7846764558	-0.4702827868	 1.2921278244	-0.095119
C	 0.8270084415	 0.4293074883	 2.5162593672	-0.427411
H	 0.355565759	 2.1034314045	 0.1104315158	 0.138369
H	-0.7569753049	 1.5808593255	-1.1624456173	 0.13286
H	-1.2987267467	 1.5973126189	 0.5249747064	 0.118641
H	-0.801197239	-0.7213861643	-0.2599612243	 0.084009
H	 3.4313659767	-1.9138231782	-0.5973054616	 0.147292
H	 3.3153024716	-2.0956320396	 1.1647815447	 0.136088
H	 2.0091037835	-2.7054348632	 0.115169349	 0.12896
H	 0.4964868001	-1.4821696422	 1.5896665498	 0.091327
H	 1.1504997245	 1.4443723773	 2.2749469275	 0.144762
H	-0.1620597513	 0.4860217442	 2.9821639308	 0.122474
H	 1.5210060169	 0.0306983356	 3.2632779259	 0.128876
