19
gdb 40152	2.61516	1.57752	1.27992	2.9367	75.24	-0.2373	0.0548	0.2921	1062.7302	0.158607	-422.971427	-422.963258	-422.962314	-423.004739	30.967	
C	 0.0929369652	 1.4530118856	-0.1603183905	-0.268436
O	 1.2150823232	 0.5621126603	-0.2225505195	-0.264661
C	-0.0638445872	 0.0015065955	-0.0341813976	 0.423025
C	-0.5444069586	-0.804637741	 1.1744453584	-0.333121
C	-1.5645239546	-1.4923860434	 0.2152266452	-0.293977
C	-0.7545426996	-0.9729897629	-1.0012063039	 0.371207
C	-1.3101398619	-0.6134701893	-2.3889852435	-0.378051
C	-0.2637841313	-1.6137109463	-2.9140784685	-0.063255
O	 0.1386376378	-1.9565688161	-1.5715530347	-0.313059
H	 0.0366953347	 2.0754990899	 0.7323133679	 0.115355
H	-0.1542849949	 1.9573099428	-1.093691558	 0.112745
H	 0.2242594451	-1.4991378697	 1.5227245292	 0.12858
H	-0.9401594066	-0.2479755129	 2.0264249009	 0.104505
H	-1.6436486617	-2.5790209535	 0.2712770665	 0.116094
H	-2.5618709994	-1.0469792521	 0.2664065027	 0.105846
H	-2.3507245753	-0.9058494912	-2.5440259552	 0.113774
H	-1.1806194729	 0.4256325859	-2.6975040324	 0.111455
H	-0.6513863454	-2.4829138832	-3.4576532348	 0.102855
H	 0.5614126733	-1.1723586785	-3.4853236022	 0.10912
