14
gdb 129184	3.29435	1.69335	1.12723	5.8371	71.56	-0.2405	-0.0429	0.1976	992.603	0.104146	-432.859571	-432.852863	-432.851919	-432.890696	25.734	
N	-0.1063238784	 1.3213449748	 0.0744661786	-0.546413
C	-0.0343466099	 0.0520522297	 0.0037256931	 0.287698
N	 1.0691512057	-0.804222076	-0.0980415446	-0.368412
C	 0.7505325147	-2.2384609139	-0.0077750108	-0.297378
C	-0.7462621345	-2.1878559093	-0.0045913505	 0.157701
C	-1.1553242436	-0.8966685413	 0.0002265458	 0.373315
O	-2.4795386308	-0.7909543887	-0.0004294638	-0.218815
N	-2.9979499618	-2.0961580144	-0.0062420761	-0.126486
C	-1.9618442011	-2.9105859191	-0.0119360076	-0.127906
H	 0.8199646578	 1.7510912208	 0.0641286962	 0.210306
H	 1.9834788367	-0.4709740607	 0.1598646355	 0.247631
H	 1.1634788396	-2.7897232715	-0.8622533483	 0.135071
H	 1.1608667561	-2.6889478033	 0.9065053615	 0.131673
H	-2.1490438505	-3.9749190171	-0.0176040488	 0.142014
