18
gdb 65738	3.51424	1.05138	1.00159	1.1162	72.14	-0.2509	-0.0299	0.221	1230.5499	0.146269	-439.11368	-439.104738	-439.103794	-439.148514	31.945	
C	-0.009818627	 1.7073200331	-0.1693333834	-0.435474
C	 0.0564819093	 0.1859983504	-0.0913623364	 0.334416
C	-1.3366584096	-0.4664893788	-0.0552828255	-0.31454
C	-2.1909969214	-0.0107832617	 1.1109360132	 0.152308
O	-3.3033225649	 0.4383514498	 1.0009984376	-0.241292
C	 0.9800074794	-0.4509427436	-1.1757233505	-0.229555
N	 2.043944895	-1.1445406556	-0.4353720953	-0.258822
C	 1.8114461138	-0.9222981284	 0.7889543996	 0.112062
O	 0.741892016	-0.1759308206	 1.1543100652	-0.254618
H	 0.997992119	 2.1311461084	-0.1617809281	 0.13216
H	-0.5076496745	 2.0146486062	-1.0945319962	 0.131697
H	-0.5676126144	 2.1281904605	 0.6720653082	 0.138449
H	-1.8751293105	-0.2614258363	-0.9853697417	 0.126011
H	-1.2013085389	-1.5530626251	 0.032763682	 0.129207
H	-1.7113855276	-0.1281123103	 2.1063517887	 0.096416
H	 0.4418164748	-1.1614439374	-1.8119443753	 0.119347
H	 1.4194634	 0.307244482	-1.833422123	 0.119107
H	 2.4103099715	-1.2819160427	 1.618685791	 0.143121
