22
gdb 123173	2.53897	0.97966	0.77678	3.1443	79.85	-0.2311	0.0825	0.3136	1543.2883	0.193155	-441.428082	-441.417705	-441.416761	-441.465292	36.019	
C	-0.7737308835	 0.4344748535	 0.6051781	-0.22877
O	-0.4760261152	-0.8825968549	 0.2062473756	-0.219525
C	 0.4204921234	-0.9450577344	-0.8801130776	-0.060555
C	 0.5848632251	-2.3927391071	-1.2955419688	-0.076158
O	-0.5957675189	-2.8167975571	-1.9497115752	-0.249014
C	-0.7821807705	-4.2203504454	-2.0217603233	-0.11879
C	-1.8654806212	-4.6953491373	-1.071874712	 0.023685
C	-2.1409145999	-4.0084419463	 0.2126350018	-0.255632
N	-3.0908952985	-3.9020996442	-0.9165051777	-0.323369
H	 0.1288631858	 0.9757695403	 0.9306222372	 0.104363
H	-1.2446386398	 1.0092733222	-0.2073763837	 0.10907
H	-1.470099898	 0.3721093811	 1.4444459795	 0.131946
H	 0.0424768609	-0.3601170113	-1.7341597712	 0.100147
H	 1.4038144283	-0.5310242168	-0.5987022366	 0.086487
H	 1.4521238673	-2.4823933274	-1.969449663	 0.09263
H	 0.7834583667	-2.9993553417	-0.4009863669	 0.107028
H	-1.0777765839	-4.4567102074	-3.0533158766	 0.109278
H	 0.1575985973	-4.755943642	-1.8249856823	 0.097322
H	-2.0425895298	-5.7688938977	-1.1328193978	 0.083692
H	-2.5020820208	-4.5853234191	 1.059866134	 0.107783
H	-1.5654607542	-3.1235493907	 0.4634037208	 0.142383
H	-2.9287523803	-2.9981756964	-1.3593669364	 0.235999
