17
gdb 14767	8.12955	0.6805	0.6519	2.5829	66.49	-0.2742	0.0272	0.3014	1639.3467	0.140966	-400.999494	-400.990275	-400.989331	-401.034744	31.123	
O	-0.0537773003	 1.4439960844	-0.1189287214	-0.417686
C	 0.0026297649	 0.0355457479	-0.0238771777	-0.060568
C	-1.3874496816	-0.5761345127	 0.0436305437	-0.076124
O	-2.0531389304	-0.215092342	-1.1582869929	-0.260955
C	-3.4049412488	-0.602308169	-1.1971781656	-0.048928
C	-3.9644128833	-0.1340970264	-2.5464755913	-0.341295
C	-5.3701472876	-0.4902567222	-2.7088832318	 0.248613
N	-6.4826611112	-0.7811410633	-2.8196351663	-0.29809
H	-0.6508509498	 1.636771691	-0.8507710657	 0.287723
H	 0.5471937239	-0.4070598631	-0.8731080235	 0.096599
H	 0.5532242451	-0.206009643	 0.8908744369	 0.114381
H	-1.3308748694	-1.6718682385	 0.142705958	 0.095539
H	-1.9336075319	-0.176301566	 0.9119192822	 0.103797
H	-3.5061880264	-1.694496532	-1.105680938	 0.114931
H	-3.9728608495	-0.1464165893	-0.3717585124	 0.116346
H	-3.8535183063	 0.9521637987	-2.6297133127	 0.161225
H	-3.3796028675	-0.5820230747	-3.3565837415	 0.164492
