21
gdb 71583	2.6279	1.68526	1.58899	0.2844	87.42	-0.2273	0.0203	0.2475	1000.3266	0.184953	-349.931918	-349.924528	-349.923584	-349.963172	30.958	
C	-0.0255906533	 1.4863641948	-0.0361545195	-0.519899
C	 0.0231821434	-0.0176248786	-0.0483491587	 0.334853
C	 0.6993749092	-0.9521579195	-1.0881533217	-0.280494
C	 0.060584485	-1.9035395294	-0.0471132126	-0.06428
C	 0.6150375083	-0.9576397309	 1.0652738733	-0.01568
C	-0.0381006149	-0.9672489803	 2.4455573907	-0.310244
C	-1.5387059497	-0.9953827347	 2.3412131868	-0.0711
C	-2.0944181156	-1.0089280564	 1.1307948308	-0.089164
C	-1.2129353814	-0.9960791633	-0.0807443686	-0.054233
H	 0.9794756232	 1.9142513095	 0.0529975967	 0.115358
H	-0.475144767	 1.8755509208	-0.9566048279	 0.116236
H	-0.6231678872	 1.8490351973	 0.8075896927	 0.122975
H	 0.2631414801	-0.9603765913	-2.0919087066	 0.082661
H	 1.7929268617	-0.9295499743	-1.1270023628	 0.083219
H	 0.0715105523	-2.9947665804	-0.0457441022	 0.06457
H	 1.7083761285	-0.9339688909	 1.1380099818	 0.053644
H	 0.3214436022	-1.8315035959	 3.0233224431	 0.106214
H	 0.2876522979	-0.0853965113	 3.0172929538	 0.105422
H	-2.1305359856	-1.0039729923	 3.2519127072	 0.084976
H	-3.1719947794	-1.0271130512	 0.9962574138	 0.082552
H	-1.7660866576	-1.0067947918	-1.0241987701	 0.052413
