16
gdb 124244	2.67635	1.5581	0.99179	1.2359	76.63	-0.2059	-0.0436	0.1623	1136.1655	0.125341	-434.112774	-434.104229	-434.103285	-434.145989	31.627	
C	-0.0128739726	 1.5052574385	 0.0034304949	-0.506493
C	 0.0531098463	-0.0127009274	 0.0330202637	 0.325722
O	 1.1293308345	-0.6028327454	 0.0275935213	-0.358276
C	-1.1893751443	-0.7537833459	 0.0570377166	 0.216911
C	-1.3603894537	-2.1447568057	 0.0566442621	 0.169123
N	-0.3577273826	-3.0782387516	 0.1410708208	-0.610503
C	-2.7618722561	-2.3311943518	 0.0202164257	-0.074566
N	-3.4108230347	-1.1646398756	 0.0051213524	-0.202706
N	-2.465415163	-0.2315480812	 0.0304055082	-0.292786
H	 1.0011976223	 1.9054995652	-0.0126428035	 0.149721
H	-0.5520156789	 1.855800736	-0.8843952695	 0.13688
H	-0.5380994227	 1.8906282494	 0.8851436588	 0.137405
H	 0.5621070351	-2.6979043235	-0.042400374	 0.273146
H	-0.5430046899	-3.9804300849	-0.2676055575	 0.250455
H	-3.3160357901	-3.2577569639	 0.0068933508	 0.112464
H	-2.7345984396	 0.7370184379	 0.0320321092	 0.273503
