21
gdb 110630	2.4063	1.35302	1.04866	1.1864	82.3	-0.2047	0.0788	0.2835	1248.0216	0.181443	-387.006195	-386.997249	-386.996304	-387.039952	35.059	
C	-0.6097640715	 1.51583931	-0.4100369487	-0.401891
C	 0.0007931774	 0.2029135713	 0.0974578699	-0.211212
C	 0.7510565211	-0.5361554161	-1.0164564911	-0.071638
C	 2.1019232485	-1.2459105209	-1.0218591361	-0.158425
C	 2.36693018	-2.2696123134	 0.1177268999	-0.045441
C	 1.2604119173	-2.437191179	 1.1252188812	-0.308618
C	 1.0986576849	-3.022193765	-0.2511047968	-0.123955
C	 0.8414867011	-1.992843177	-1.3962264135	 0.345035
O	 0.5016324853	-2.4516412686	-2.6597223109	-0.452835
H	 0.1655154289	 2.1877365224	-0.7939640012	 0.119537
H	-1.3216693034	 1.3331121696	-1.2226140248	 0.114374
H	-1.1423130184	 2.0410326965	 0.388947128	 0.110636
H	 0.677737871	 0.426287863	 0.9289084355	 0.112319
H	-0.7995667223	-0.4255703207	 0.5042298164	 0.105251
H	 0.6919655795	 0.0138168024	-1.9575921802	 0.091248
H	 2.8994723058	-0.9075408042	-1.6715270073	 0.091947
H	 3.3531440574	-2.6829679851	 0.284814858	 0.089234
H	 1.4786067414	-3.1812487469	 1.8877163052	 0.109074
H	 0.6646830526	-1.6142220936	 1.4910743304	 0.11255
H	 0.9855691319	-4.0833226702	-0.4323937813	 0.090836
H	-0.4595874084	-2.5130466245	-2.7069785728	 0.281975
