18
gdb 29994	3.14209	1.61721	1.13228	2.0886	84.99	-0.1799	0.0101	0.19	1075.6861	0.150571	-364.855862	-364.848427	-364.847483	-364.88747	29.913	
C	-0.094701612	 1.581506712	 0.019638088	-0.388063
C	 0.0071605438	 0.0457290643	 0.0275424546	-0.193143
C	 0.8161305278	-0.5171495718	-1.1426509001	-0.092117
C	 1.8503366334	-1.2689152006	-0.7159115335	-0.216705
C	 1.8512025069	-1.2983108402	 0.7476076153	 0.293366
C	 0.7827972966	-0.5360675345	 1.1726382048	 0.297073
N	 0.7603123272	-0.5409102922	 2.5357012914	-0.380428
C	 1.8185221195	-1.3094553774	 2.9902482827	-0.072575
C	 2.5155902099	-1.7958503931	 1.9026235276	-0.338326
H	 0.9012865347	 2.0324520913	 0.0423920995	 0.129632
H	-0.6106367221	 1.9321789795	-0.8797566883	 0.116374
H	-0.6554876471	 1.9449139165	 0.8877515845	 0.104734
H	-1.0118552511	-0.3691299551	-0.010142776	 0.095885
H	 0.55586442	-0.3048761703	-2.1717997017	 0.088477
H	 2.5663890738	-1.7741705689	-1.3524880289	 0.092633
H	 0.0988096112	-0.0700878304	 3.12788633	 0.258009
H	 1.9820530305	-1.4437315729	 4.0476113181	 0.11379
H	 3.3890391368	-2.4279872163	 1.9526453217	 0.091384
