19
gdb 38893	3.4875	1.45142	1.14424	2.173	81.02	-0.2372	0.0057	0.243	1086.3648	0.161539	-385.868431	-385.861284	-385.86034	-385.899959	29.062	
C	 0.0419063382	 1.5852875455	 0.1596631052	-0.242224
C	 1.5835740785	 1.5146965951	-0.107709256	-0.323654
C	 1.4814044762	 0.0321105982	 0.1795219902	 0.373864
C	 2.2048401444	-0.9347898394	 0.7302753666	-0.287294
C	 1.499328478	-2.1992791744	 1.0787670018	 0.024109
O	 0.868985091	-2.2608939163	 2.3779091483	-0.258184
C	 0.0308056328	-2.1777034929	 1.2200147789	 0.034742
C	-0.745002649	-0.8700074279	 1.0236787511	-0.264334
C	-0.024414906	 0.0278105636	 0.0119210956	-0.060156
H	-0.1758422417	 1.9000428864	 1.1835243407	 0.11085
H	-0.5573521283	 2.1794636295	-0.5331694787	 0.100965
H	 1.825298365	 1.728466011	-1.1548965802	 0.114043
H	 2.2444556904	 2.1093939853	 0.5279396476	 0.114804
H	 3.2579282263	-0.8274051926	 0.9750636949	 0.09098
H	 1.983654463	-3.1338447343	 0.794378221	 0.088927
H	-0.5154061272	-3.0977706637	 1.0117544513	 0.087805
H	-1.774052739	-1.0835470428	 0.7168653551	 0.096641
H	-0.791111067	-0.3671256987	 1.9954675696	 0.116698
H	-0.3100154756	-0.2381935018	-1.0139507128	 0.081416
