10
gdb 132263	3.77609	1.28263	0.95742	3.0131	60.83	-0.3192	-0.1133	0.2059	1061.0655	0.055706	-471.807821	-471.801359	-471.800415	-471.839232	22.867	
F	-0.0053304457	 0.0864618926	 0.0031284845	-0.022602
C	-0.0159456918	 1.3923074017	 0.0110447705	 0.371006
N	-1.208804837	 1.9629172661	 0.0300304576	-0.316769
C	-1.1488608385	 3.2963712945	 0.0360255988	 0.260028
N	-0.0395499389	 4.0375666697	 0.0247706856	-0.266745
C	 1.0846428737	 3.3206583964	 0.0055096291	 0.086362
N	 1.1641074179	 1.9901323036	-0.0024140851	-0.282959
C	-2.4098369201	 4.0027339805	 0.0571384952	 0.309281
N	-3.4156481723	 4.5703015137	 0.0739964324	-0.300085
H	 2.0217046026	 3.8702395112	-0.0044468085	 0.162484
