17
gdb 49977	3.86366	1.14077	1.02802	2.9914	74.82	-0.2584	-0.038	0.2203	1174.0579	0.1352	-421.756154	-421.748635	-421.747691	-421.788508	28.884	
O	-0.6172105528	 0.6515099904	 0.7516752406	-0.251728
C	 0.1902929697	 0.9461417024	-0.0924678221	 0.15788
C	 1.2110520277	 2.019531575	 0.0739981925	-0.226544
O	 2.3907558767	 1.8710014514	-0.7708277165	-0.308409
C	 1.5133443212	 2.9169688455	-1.050105137	 0.559022
C	 0.860798494	 3.2871041207	-2.3914819073	-0.153065
C	 0.3385743377	 4.5578189516	-1.6501574569	-0.220707
C	 1.8201003018	 4.4146806396	-1.1804801117	-0.148614
C	 2.1726358833	 4.0922014998	-2.6709903675	-0.226975
H	 0.2359046583	 0.4395097666	-1.0817945193	 0.08862
H	 1.4021242354	 2.3443790829	 1.0949821101	 0.121446
H	 0.3144548199	 2.643078631	-3.0788605908	 0.089916
H	 0.1324264471	 5.4188214586	-2.2888961	 0.104826
H	-0.4408066683	 4.4132232979	-0.8982671816	 0.106943
H	 2.3667041933	 5.0497711782	-0.4849802117	 0.089661
H	 3.0797446902	 3.5121062759	-2.848986997	 0.117329
H	 2.0760269949	 4.9259076523	-3.3706196637	 0.1004
