14
gdb 24017	4.36106	1.24683	1.04005	2.5445	72.75	-0.2381	-0.0108	0.2273	1083.5661	0.103468	-395.735938	-395.728939	-395.727994	-395.768075	25.785	
N	-0.8470695574	-1.1881462755	-0.160101101	-0.304948
C	-0.450609417	-0.1062692764	-0.0790087058	 0.301201
C	 0.028722476	 1.2691340859	 0.0248423098	-0.13249
C	-0.1590817138	 2.0053478686	 1.4257807861	-0.383506
C	 1.3519385946	 2.1425642784	 1.3747786201	 0.378354
N	 2.4564134648	 2.7130898851	 1.7734806893	-0.357249
C	 3.3642737437	 2.3172967552	 0.7955236023	-0.080596
C	 2.7864671254	 1.5507984804	-0.1969875547	-0.171738
N	 1.482073245	 1.4256387876	 0.2347943567	 0.020672
H	-0.3475189667	 1.854472951	-0.818866452	 0.156149
H	-0.7343689965	 2.9304381901	 1.3578366669	 0.150996
H	-0.5683627272	 1.370156086	 2.2131647028	 0.157216
H	 4.4040001745	 2.5997361796	 0.8683080648	 0.119563
H	 3.1868839445	 1.0700981739	-1.0723673552	 0.146378
