18
gdb 76157	2.14461	1.48392	1.2022	6.5864	73.99	-0.2396	0.0306	0.2702	1120.675	0.146474	-435.248817	-435.238991	-435.238047	-435.282675	36.885	
C	-0.001021957	 1.5339458897	 0.0978912372	-0.458522
C	-0.0042699477	 0.0221962224	-0.0190544545	 0.189483
N	-1.1652474365	-0.6976955287	 0.4409977012	-0.54099
C	 0.6695909202	-0.6718509375	-1.186938741	-0.133675
N	 1.4352461046	 0.0916464587	-2.1368243478	-0.528427
C	 1.3202687262	-0.716280314	 0.2084657265	 0.249173
O	 2.4784258914	 0.0338958731	 0.3500257089	-0.460997
C	 1.3280411645	-1.9479961667	 0.9592126505	 0.290494
N	 1.351410234	-2.925896897	 1.5762150379	-0.359831
H	 0.9541138865	 1.972769302	-0.1934036756	 0.133315
H	-0.7920861669	 1.9676713548	-0.5258291656	 0.109165
H	-0.1979718282	 1.8250002845	 1.1350273675	 0.12828
H	-1.309896931	-0.5478084229	 1.4354073337	 0.240611
H	-2.0003313197	-0.3766479474	-0.0406499166	 0.229434
H	 0.1762621423	-1.5806894092	-1.518550269	 0.115336
H	 1.8343284442	-0.510335617	-2.8478793634	 0.25358
H	 0.8765948258	 0.7984742858	-2.6019853892	 0.250409
H	 2.6945114373	 0.3209950593	-0.5574976706	 0.293161
