20
gdb 57052	2.36764	1.31962	0.92826	2.9203	78.63	-0.2556	0.0294	0.2851	1282.1691	0.169997	-403.151367	-403.141679	-403.140735	-403.186688	34.753	
C	-0.0369190797	 1.5790211166	-0.0525503568	-0.399926
C	 0.0285306932	 0.0386329317	 0.0008453618	-0.166995
C	 0.8296381091	-0.3906262592	 1.1534706436	 0.280156
N	 1.4457087332	-0.7224207613	 2.0736692223	-0.330227
C	-1.3756177025	-0.5859633101	 0.0577871488	-0.044467
C	-2.2244466457	-0.4631378971	-1.2259362287	-0.097083
O	-2.3089295573	-1.8899279559	-1.370142006	-0.287398
C	-1.5535747249	-2.1202705098	-0.1535114675	 0.141121
C	-0.3573170091	-3.0222468237	-0.3842730604	-0.415868
H	 0.9648893379	 2.0107551332	-0.1118606314	 0.14109
H	-0.6022114231	 1.8982065396	-0.9323396555	 0.131383
H	-0.5291175464	 1.9770420322	 0.8391956137	 0.139799
H	 0.5421997951	-0.3183368226	-0.9002217701	 0.130039
H	-1.8817361042	-0.2229756471	 0.9554850559	 0.095546
H	-3.2091565997	 0.0025922224	-1.0973393647	 0.106184
H	-1.7244207022	 0.0063270276	-2.0844691181	 0.099331
H	-2.2011838327	-2.5624345333	 0.6155508837	 0.084148
H	 0.3082072725	-2.6246485241	-1.1559291632	 0.117511
H	 0.2132591658	-3.1590484497	 0.538957022	 0.14446
H	-0.7078606792	-4.0026675396	-0.7211755495	 0.131199
