19
gdb 1977	7.02721	1.42119	1.31443	1.0893	68.5	-0.2433	0.0869	0.3303	983.4652	0.170887	-310.904876	-310.896892	-310.895948	-310.937038	29.118	
C	 0.1549910569	 1.3387706462	 0.1301088953	-0.239356
O	-0.3071574616	 0.0665823578	-0.2612836681	-0.239452
C	 0.5024931319	-0.541435223	-1.2316330526	 0.171796
C	 1.868416065	-1.1539373467	-0.8064878959	-0.268193
C	 1.5321396063	-2.3810048013	-1.7035940225	 0.052207
C	 1.9073712109	-3.7722289096	-1.2175940153	-0.402963
C	 0.038631155	-1.9451501343	-1.6598100488	-0.270792
H	 1.1548953117	 1.2923420903	 0.5876919612	 0.106311
H	 0.2006451336	 2.0355776423	-0.7223174665	 0.101496
H	-0.5501093072	 1.7304401035	 0.8674247169	 0.124665
H	 0.6272802884	 0.1285539272	-2.097886794	 0.059102
H	 2.7851090742	-0.5961172898	-1.012963488	 0.090984
H	 1.8399212694	-1.4239115122	 0.2547440402	 0.102103
H	 1.933904995	-2.22091068	-2.7105336663	 0.070378
H	 1.5153519754	-3.9546957211	-0.2106277964	 0.112358
H	 1.5027772997	-4.5475239378	-1.878179225	 0.113525
H	 2.9949778565	-3.9016986643	-1.1805123004	 0.11278
H	-0.4876821573	-2.4246590337	-0.8282958192	 0.108133
H	-0.5638669138	-2.0368301535	-2.5662895646	 0.094917
