20
gdb 26151	2.52023	1.2473	1.0189	0.8245	81.78	-0.1776	0.0557	0.2333	1267.955	0.170325	-403.190139	-403.180411	-403.179467	-403.224903	36.269	
C	 0.0528100281	 1.5249366226	-0.0379320032	-0.369578
C	 0.0006752211	-0.0115506031	 0.0558641869	-0.106615
C	 0.7935120508	-0.5114427913	 1.2780469892	-0.369661
C	-1.414411811	-0.5284478859	 0.0524825106	 0.169408
C	-1.9904707403	-1.3460839822	-0.8946174456	 0.270637
O	-1.5247592483	-1.9127529147	-2.0402583284	-0.4386
N	-3.287236943	-1.5980048141	-0.5530435789	-0.292273
C	-3.5782649511	-0.9439556668	 0.6300200768	-0.094075
C	-2.4462413272	-0.2809639243	 1.021368885	-0.241553
H	 1.087415376	 1.8840493071	-0.0721691463	 0.102968
H	-0.4678852676	 1.8834767338	-0.9306066263	 0.112581
H	-0.4310629507	 1.9805699416	 0.8327130175	 0.116854
H	 0.5094041533	-0.4052794465	-0.8395628119	 0.037431
H	 1.8304051941	-0.1586392631	 1.24786094	 0.102984
H	 0.3421434598	-0.1448045301	 2.2062657335	 0.116844
H	 0.8007771255	-1.6043418085	 1.3233587034	 0.112628
H	-0.6054528062	-1.6504672148	-2.1506664663	 0.304294
H	-3.9109012016	-2.171524609	-1.0928631293	 0.263382
H	-4.5569670003	-1.0145149492	 1.0741282082	 0.11416
H	-2.3508314516	 0.3246642985	 1.9101060151	 0.088185
