17
gdb 47321	2.969	1.31573	0.99087	3.0042	69.34	-0.2259	-0.0337	0.1921	1158.1212	0.137613	-455.175802	-455.167512	-455.166567	-455.209303	30.699	
O	-0.0736685373	-0.0400777526	-0.4581415968	-0.284908
C	-0.0527477509	 1.1144780198	-0.1070874577	 0.421899
C	-1.3367986645	 1.9292950078	 0.0312875053	-0.265783
N	-1.4100437312	 2.7101808657	 1.2585184615	-0.291754
C	-0.4746208084	 3.8283934199	 1.3668304442	-0.286476
C	 0.8369459596	 3.4003270895	 2.0328879118	 0.415812
O	 1.2380942884	 3.9052301165	 3.0626869357	-0.359617
N	 1.5145891306	 2.3852056447	 1.4141598986	-0.295493
C	 1.2838645887	 1.8492187043	 0.0818813051	-0.277755
H	-1.3945076596	 2.5568218435	-0.8845597617	 0.098791
H	-2.1683366804	 1.2223865064	 0.0009007215	 0.132733
H	-2.3567595172	 3.044311259	 1.3816069573	 0.237145
H	-0.2626799621	 4.3071619672	 0.3914158958	 0.095959
H	-0.8950510834	 4.5894073152	 2.024637162	 0.136155
H	 2.3544492323	 2.0977775304	 1.8933570328	 0.256483
H	 2.0684510466	 1.1234402415	-0.1333165078	 0.141827
H	 1.344842249	 2.6416937112	-0.6807825274	 0.124983
