20
gdb 111070	2.29847	1.37545	1.01618	3.9383	75.54	-0.2338	0.061	0.2948	1222.228	0.171248	-440.186356	-440.17736	-440.176415	-440.220615	33.67	
O	 0.2933164117	 1.0868883105	-0.2453845267	-0.423248
C	 0.1856294954	-0.2807836278	 0.1214979828	-0.112802
C	-1.2754201681	-0.6881177475	 0.132860094	 0.025708
N	-2.0185648179	-0.589159837	-1.2280012535	-0.176783
C	-1.4017741664	-1.9663511652	-1.5406793869	-0.215836
C	-1.8165504342	-2.130938587	-0.0595064312	 0.309222
C	-1.6413189818	-3.3160573565	 0.850789814	-0.229651
O	-0.2433841663	-3.5370042879	 0.9825279024	-0.419326
C	-3.1082932635	-1.4109803637	-0.5132497043	-0.222737
H	-0.267202287	 1.2030077464	-1.0224076833	 0.293502
H	 0.7991641644	-0.9200946063	-0.5263049489	 0.096182
H	 0.5934367918	-0.372923127	 1.1335033377	 0.112293
H	-1.7952626897	-0.0919878201	 0.8920269495	 0.075476
H	-1.9700986063	-2.5258786902	-2.2891189683	 0.098052
H	-0.3443383773	-1.9449772561	-1.7988252901	 0.113202
H	-2.110624236	-3.1031581326	 1.8251896994	 0.090508
H	-2.1523048293	-4.1944607598	 0.4239001876	 0.090333
H	-0.1069892253	-4.2781705065	 1.5798036265	 0.292505
H	-3.6705910802	-0.8390168209	 0.2302984191	 0.102763
H	-3.7743301143	-1.9362404645	-1.2033813998	 0.100637
