17
gdb 69181	2.20718	1.86168	1.26817	2.4518	74.3	-0.2379	-0.0093	0.2286	1020.3788	0.134976	-421.797969	-421.789931	-421.788987	-421.830306	31.267	
O	-0.0357133931	 1.4154139992	 0.0697958365	-0.442167
C	 0.0378778915	 0.0471468391	 0.0123068133	 0.348424
C	-0.8687969277	-0.7965517704	 0.8088572152	-0.316964
C	 0.6418499317	-0.9774239289	 1.0445924855	-0.303808
C	 1.2611423016	-1.7022624436	-0.1127957063	 0.396334
O	 2.0631654232	-2.5911187552	-0.2165130117	-0.336872
C	 0.6446837086	-0.7546955602	-1.1311662455	 0.141432
C	 0.1488534474	-1.0364204477	-2.5204874856	-0.326259
C	 1.3936442806	-0.2124650497	-2.3191956935	-0.339701
H	 0.8282776475	 1.7742600145	-0.1658527304	 0.293199
H	-1.3569802112	-0.2869998416	 1.6342827219	 0.13251
H	-1.4571636327	-1.5862255524	 0.3500638147	 0.126353
H	 1.0659163823	-0.8385933669	 2.0309623365	 0.114361
H	 0.2634730779	-2.0506625086	-2.8885966275	 0.132944
H	-0.751085951	-0.52655902	-2.8481143787	 0.125029
H	 1.3271542747	 0.8544240826	-2.5118233795	 0.115815
H	 2.3557912188	-0.66150386	-2.5417683648	 0.13937
