17
gdb 70971	3.97578	1.2423	1.1148	1.4169	79.47	-0.2473	0.0389	0.2862	1102.7142	0.134907	-384.600636	-384.592851	-384.591907	-384.632392	31.608	
O	-0.1190179938	 1.3385931275	-0.0676344769	-0.463153
C	 0.049190663	-0.0286029747	-0.0323724219	 0.392761
C	 0.9792683063	-0.8686397329	-0.9005780688	-0.341734
C	 0.0935801319	-2.0829455548	-0.4566908593	 0.229193
C	 0.3889404309	-2.2124750875	 1.0755838026	-0.276694
C	-0.3060066483	-0.8647987271	 1.2158728213	-0.150753
C	-1.0575101396	-1.0370587757	-0.0908362472	-0.177877
C	-0.0457436491	-3.2375518563	-1.2929091107	 0.049576
C	-0.1640999501	-4.2111085597	-1.9902300668	-0.337442
H	 0.5426804323	 1.7430838918	 0.504512172	 0.2871
H	 0.8369958314	-0.6451691619	-1.9603294233	 0.116724
H	 2.0477032957	-0.9236747686	-0.6621729896	 0.089686
H	-0.1952047541	-3.0216186321	 1.5208441438	 0.112459
H	 1.4411691984	-2.3089871609	 1.3660206945	 0.093094
H	-0.6677564398	-0.3742612126	 2.1103366165	 0.091941
H	-2.1022140203	-0.974497065	-0.3553328417	 0.105727
H	-0.2673167849	-5.0691567095	-2.6068436446	 0.179393
