18
gdb 83566	3.11942	1.29856	1.18131	3.2675	73.82	-0.2388	0.0219	0.2607	1096.2291	0.148963	-439.083928	-439.076075	-439.075131	-439.116402	30.202	
O	 0.0795193646	 1.3140797255	-0.124102993	-0.42821
C	-0.0003798468	-0.0681808341	 0.0699607145	 0.142817
C	 0.0051486538	-0.6796027444	 1.5169955251	-0.075576
C	-1.0405425236	 0.1898871366	 2.2423473255	-0.208094
C	-2.1536673159	 0.1911842231	 1.1380788231	-0.207947
C	-1.4296281741	-0.670589176	 0.0824467118	-0.065065
N	-0.8568741152	-1.7467163934	 0.9421023385	-0.044326
C	-0.4521381378	-2.9918287717	 0.5683373055	 0.124532
O	 0.4740733562	-3.6033817469	 1.058682324	-0.331639
H	 1.0061688919	 1.5729240109	-0.138884108	 0.293206
H	 0.6618577602	-0.6350661823	-0.5946889913	 0.091443
H	 0.9087617036	-0.9986207566	 2.0306122596	 0.102912
H	-1.3683665076	-0.2690363456	 3.1763315173	 0.111767
H	-0.6570476543	 1.1909268323	 2.4469944437	 0.109316
H	-3.0798235507	-0.2813403565	 1.470011392	 0.107978
H	-2.373105685	 1.1908525552	 0.760464032	 0.120838
H	-1.9577125618	-0.9637407836	-0.8241093918	 0.086847
H	-1.1205531875	-3.4215828124	-0.2062005486	 0.0692
