17
gdb 69636	3.83516	1.15157	1.12477	4.1263	74.47	-0.2383	-0.0428	0.1955	1145.2511	0.13326	-421.757455	-421.749251	-421.748307	-421.790159	31.103	
C	 0.0539869318	 1.511115396	-0.0938644335	-0.495608
C	 0.0305281414	 0.0150731527	 0.0085670314	 0.308274
C	-0.9300568743	-0.7940660364	 0.8398871017	-0.333311
C	 0.5486256966	-0.9074406169	 1.1068471008	-0.198763
C	 1.2532878965	-1.7905542479	 0.0294874273	 0.317425
O	 0.2925480137	-2.2432178299	-0.932365555	-0.249574
C	 0.7349982642	-0.9051963674	-1.0421156174	-0.083831
C	 2.5728195863	-2.4478514404	 0.1159176305	 0.054211
O	 3.0218921405	-3.2050554862	-0.7076061811	-0.257221
H	 1.0581690727	 1.8827761726	-0.3294017796	 0.122464
H	-0.6248663141	 1.8674258637	-0.8779728425	 0.128527
H	-0.2571039373	 1.9713020564	 0.8490117928	 0.12646
H	-1.4740068169	-0.2140700621	 1.5790530842	 0.117124
H	-1.4748819239	-1.6275992213	 0.4146594888	 0.140668
H	 1.0157835179	-0.6382379475	 2.0455615759	 0.100813
H	 1.2090072535	-0.6004027841	-1.9689762361	 0.125329
H	 3.1490017813	-2.1584352611	 1.0239168518	 0.077012
