14
gdb 49905	3.76531	1.04764	0.9024	5.3122	71.99	-0.2587	-0.0458	0.2129	1242.3618	0.099082	-436.68528	-436.676777	-436.675832	-436.71913	29.835	
O	-0.1835989946	-0.0295343808	-0.1568593004	-0.260371
C	-0.0733551169	 1.1648539576	-0.0928661573	 0.156397
N	 1.1286730462	 1.8503972436	-0.0113320483	-0.129998
C	 1.4066173937	 3.2964909708	 0.0767400707	-0.192111
C	 2.933718584	 2.9546638036	 0.0762095019	-0.333319
C	 3.7205976911	 3.3741762984	 1.2120405409	 0.32882
C	 4.3635907656	 3.7125360813	 2.1687951093	-0.440057
C	 2.4816349977	 1.4567955393	 0.0370470216	 0.438525
O	 3.0215869971	 0.3987194538	 0.0375638297	-0.298435
H	-0.931106765	 1.8675362596	-0.0930530784	 0.09247
H	 1.0608280165	 3.866566721	-0.7882553976	 0.135897
H	 1.0549575635	 3.7534224998	 1.003429538	 0.144702
H	 3.4180175677	 3.2261342462	-0.8671101969	 0.146319
H	 4.9405103334	 4.0073529059	 3.0105806769	 0.211161
