12
gdb 43321	2.79127	1.71975	1.21315	5.7273	65.05	-0.2753	-0.1005	0.1748	954.1409	0.077383	-435.485423	-435.4784	-435.477455	-435.517067	25.959	
O	 0.006476864	-0.0083969222	-0.0717783949	-0.279941
C	-0.038867253	 1.1893293423	-0.0122809869	 0.350428
C	-1.2360806872	 2.0686043715	 0.12526438	-0.18609
C	-0.8908248855	 3.3594486382	 0.0480037336	-0.068691
C	 0.598891149	 3.512500533	-0.0692487873	-0.067533
O	 1.3042700309	 2.9755590966	 1.062564932	-0.263167
C	 1.1676045	 2.1534967241	-0.1107839098	 0.166794
C	 2.3647368977	 1.7717101553	-0.8063174293	 0.234976
N	 3.312613116	 1.443307662	-1.3793168021	-0.321781
H	-2.2264275253	 1.6598851203	 0.2748490543	 0.146994
H	-1.560726343	 4.2081318371	 0.103876034	 0.145817
H	 1.0653602565	 4.3602042217	-0.5590524036	 0.142194
