13
gdb 123528	4.19223	1.80284	1.26069	0.6813	73.27	-0.242	-0.0639	0.1781	891.9734	0.094451	-411.841692	-411.836058	-411.835114	-411.871667	22.305	
C	 0.0592192692	 1.368762351	 0.0093929006	 0.038137
N	 1.3122139041	 1.8377169369	-0.0001856573	-0.286512
N	 2.0617385494	 0.7170865182	-0.013873644	-0.017277
C	 3.4112525731	 0.634008202	-0.0275595021	 0.117918
N	 4.0198493068	-0.5162508406	-0.0400141125	-0.270055
C	 3.2187933425	-1.6270159107	-0.0384447767	 0.04776
N	 1.909989902	-1.6610752725	-0.0258242213	-0.317472
C	 1.292800839	-0.4606631607	-0.0130004803	 0.492849
C	-0.0242733248	-0.0346384436	 0.0023033991	-0.361681
H	-0.7575875186	 2.0764585031	 0.0213803521	 0.132676
H	 3.9530882705	 1.5750751636	-0.0275449692	 0.162613
H	 3.7430423978	-2.5779490055	-0.0489488368	 0.132612
H	-0.9034361909	-0.6555191213	 0.0074057982	 0.128432
