18
gdb 49283	2.9623	1.38726	1.00838	3.6659	80.41	-0.2405	-0.0517	0.1888	1165.6179	0.149517	-401.951823	-401.944037	-401.943093	-401.984442	29.703	
O	-0.0674816347	-0.0598943633	-0.1092198895	-0.274614
C	-0.0056093434	 1.1463047945	-0.0266505368	 0.085767
C	 1.2464130177	 1.9114448188	 0.0865267512	 0.266135
C	 1.2111857424	 3.2527726487	 0.0854323817	-0.132173
C	 2.4417103379	 4.1126795084	 0.1306946876	-0.265716
C	 3.6475996349	 3.4273406646	 0.8079497914	-0.215622
C	 3.7646504521	 1.941038685	 0.4796123236	-0.043612
N	 3.1649164208	 1.0286131673	 1.4742324182	-0.332404
C	 2.5373377455	 1.1769848797	 0.1406008889	-0.147799
H	-0.9258724021	 1.7741652603	-0.0481970647	 0.063785
H	 0.2468419177	 3.7540856053	 0.0150332389	 0.102648
H	 2.6929331245	 4.3899386461	-0.9049070654	 0.126441
H	 2.2180579604	 5.0590980201	 0.6349555148	 0.116281
H	 4.566752383	 3.9500202561	 0.5256633606	 0.100234
H	 3.5442577195	 3.5204418694	 1.8931936352	 0.12451
H	 4.6908283986	 1.6229491723	 0.0080595818	 0.087905
H	 3.6801978636	 0.1515251005	 1.5019586623	 0.233238
H	 2.6093354816	 0.3308440362	-0.5363660897	 0.104998
