15
gdb 3435	4.91142	2.66825	1.94781	1.797	62.	-0.2344	0.011	0.2454	682.0174	0.125526	-308.512137	-308.505941	-308.504997	-308.541884	23.717	
C	-0.0260056913	 1.5023683981	 0.0647323259	-0.502822
C	-0.0208406167	 0.0087167729	-0.0027349355	 0.339087
C	 0.003735586	-0.7723293896	-1.0893173436	-0.173561
C	-0.0075894288	-2.250587651	-0.756380249	-0.286531
C	 0.0301161799	-2.2557124418	 0.7676493329	 0.047688
O	 1.2004487625	-1.6595865891	 1.3304181407	-0.257097
C	 0.0009301082	-0.8565169216	 1.2233494802	-0.060852
H	 0.8682904023	 1.8794606729	 0.576365732	 0.135389
H	-0.0614848338	 1.948660862	-0.9326593451	 0.125236
H	-0.8899589626	 1.8722675897	 0.631439973	 0.125516
H	 0.0651070698	-0.4088127787	-2.1098360747	 0.092095
H	-0.911305246	-2.7501301661	-1.129859257	 0.10918
H	 0.8503204398	-2.7838832581	-1.1840287088	 0.123078
H	-0.3921917534	-3.080349177	 1.335707333	 0.09334
H	-0.4179317061	-0.529066173	 2.1712621061	 0.090254
