17
gdb 99366	5.90726	0.61838	0.58596	4.4601	70.67	-0.2713	0.0001	0.2714	1806.6376	0.134906	-455.187548	-455.177575	-455.176631	-455.224063	33.99	
O	 0.3436536345	 0.8346544551	-0.8264398259	-0.415747
C	 0.097347013	-0.1130468249	 0.1669761393	-0.141688
C	-1.2655291129	-0.7704864843	-0.0638547503	 0.385126
O	-1.9761073634	-0.4020270995	-0.9885251822	-0.387482
N	-1.6304967568	-1.7519663011	 0.7979640258	-0.31694
C	-2.9209185287	-2.4114400544	 0.7049180246	-0.164971
C	-2.9769973328	-3.4119508346	-0.473676126	-0.330983
C	-4.2553828722	-4.1141029747	-0.5230653115	 0.258127
N	-5.2732212647	-4.6608980494	-0.5329452337	-0.297999
H	-0.4627411415	 0.8402122502	-1.3690726648	 0.297425
H	 0.8760895772	-0.8926152581	 0.1711005889	 0.111353
H	 0.0997132194	 0.345582365	 1.1697537515	 0.114279
H	-0.9918359254	-2.0285564392	 1.5258184034	 0.26053
H	-3.1139179406	-2.927162968	 1.6478320344	 0.133965
H	-3.6973346416	-1.6551680848	 0.5640570566	 0.159643
H	-2.8253142986	-2.8620323774	-1.4070325428	 0.185554
H	-2.169281625	-4.14627049	-0.3836284573	 0.149808
