15
gdb 128239	2.17475	1.60003	0.92993	4.2142	77.39	-0.2126	-0.0321	0.1804	1197.9816	0.111911	-416.755702	-416.747253	-416.746308	-416.788988	30.979	
C	 0.0204455881	 1.3494711255	 0.1050628316	-0.333723
N	-0.1668170292	-0.0728431269	-0.1142557955	-0.405004
C	 0.556169345	-0.6831805834	-1.1178140409	 0.115458
C	 1.2121902153	-0.1636881838	-2.1938223116	-0.033105
O	 1.7312105631	-1.1672189507	-2.945032528	-0.162794
N	 1.4412456233	-2.3752772946	-2.3708084454	-0.208254
C	 0.7411578834	-2.0989799918	-1.2831824552	 0.206255
C	 0.2635894261	-3.102213257	-0.407121485	 0.250736
C	-0.1669786251	-3.8974574615	 0.3871879497	-0.411628
H	 1.0701712392	 1.6274963678	 0.2901675327	 0.117969
H	-0.3283824585	 1.9082179637	-0.770768951	 0.136039
H	-0.5821760771	 1.6632249662	 0.9596985368	 0.132919
H	-0.2255802912	-0.6295788847	 0.7261235975	 0.246361
H	 1.3859511862	 0.8355246645	-2.5550644218	 0.145787
H	-0.5413766586	-4.6216131132	 1.0682975361	 0.202983
