21
gdb 110367	4.44831	1.06952	1.04251	1.0709	82.73	-0.2349	0.0949	0.3297	1252.6654	0.184387	-387.034526	-387.026827	-387.025883	-387.066702	31.092	
C	 0.0958069616	 1.1289312946	-0.3875112608	-0.236722
O	-0.1421764586	 0.0388596612	 0.4787271866	-0.25256
C	-1.4228050475	-0.4945887938	 0.3369985647	 0.073542
C	-1.5860118334	-1.5643476568	-0.7263418789	-0.076809
C	-1.5235515049	-1.9301030794	 0.7566768754	-0.067796
C	-2.8984572878	-2.6038237855	 0.9205137549	-0.04967
C	-2.9135587114	-3.5141966853	-0.3589880414	-0.203815
C	-2.9793020306	-2.1196207704	-1.0770382905	-0.04488
C	-3.8753289675	-1.6951800144	 0.1213192785	-0.234534
H	 1.1135518042	 1.4771731535	-0.1958938716	 0.12555
H	 0.0067541571	 0.8373353951	-1.4440265462	 0.107466
H	-0.604295725	 1.9574158714	-0.1986482983	 0.104331
H	-2.2133386012	 0.2257084925	 0.5436147219	 0.08255
H	-0.7479141539	-1.7532898914	-1.3874046987	 0.089216
H	-0.6433591108	-2.3870070395	 1.1933255142	 0.095019
H	-3.1552172895	-2.9873759339	 1.9080142179	 0.061628
H	-2.0361300343	-4.1392876273	-0.5461142442	 0.088891
H	-3.8330141066	-4.0975513641	-0.4624549222	 0.089865
H	-3.3185669805	-2.0143374208	-2.10773585	 0.059133
H	-4.8672893147	-2.1466539902	 0.0530454737	 0.095044
H	-3.9814772147	-0.6415870556	 0.3815006849	 0.094553
