21
gdb 63043	2.56674	1.97334	1.52884	1.2841	81.31	-0.2524	0.0784	0.3308	964.0565	0.184186	-387.056547	-387.049037	-387.048093	-387.087713	31.996	
C	-0.0556320956	 1.5122446142	 0.0147848388	-0.474607
C	 0.0628117891	-0.0127805706	-0.0034004433	 0.465378
O	-1.2495634398	-0.5655681304	-0.118712433	-0.491902
C	 1.0492300068	-0.6340491255	-1.0308983489	-0.106339
C	 2.398805666	 0.0371099023	-0.6712696336	-0.255465
C	 2.2452716369	-0.7758937665	 0.6238103893	-0.023633
C	 1.5240542647	-1.9000704839	-0.1850234851	-0.022199
C	 0.5790001885	-2.1415852112	 1.000600278	-0.24155
C	 0.7753396207	-0.619897742	 1.2289306032	-0.085065
H	 0.8641700562	 2.0121790078	 0.3242552163	 0.123582
H	-0.329725142	 1.8999689767	-0.9748487061	 0.102563
H	-0.8447924829	 1.7921844782	 0.7187002816	 0.123658
H	-1.6440743358	-0.2042509501	-0.9192160456	 0.271885
H	 0.6973393413	-0.7162956986	-2.0610326259	 0.047981
H	 3.2240731672	-0.3674791162	-1.2659802175	 0.095045
H	 2.4709724457	 1.1268831136	-0.6589894762	 0.087872
H	 3.0550224079	-0.9701055416	 1.3268819482	 0.06416
H	 2.0586205458	-2.6846144827	-0.720615758	 0.061433
H	-0.4332172071	-2.5099834967	 0.839695	 0.114148
H	 1.0867036528	-2.7324249415	 1.7694195261	 0.086025
H	 0.5911446937	-0.1490465351	 2.1950068416	 0.057027
