15
gdb 54747	3.16285	1.41218	1.21635	6.0694	66.93	-0.242	-0.0155	0.2265	1026.1386	0.112261	-453.952603	-453.944529	-453.943585	-453.985584	29.962	
N	 0.0711848678	 1.1873619546	 0.6578255285	-0.537659
C	 0.0073315806	 0.1472990366	-0.2183809787	 0.441777
O	 0.9408481343	-0.1776582802	-0.9279720382	-0.360008
C	-1.3317182623	-0.5478099883	-0.2518336907	-0.127751
C	-2.0138856351	-0.9404042829	-1.5057585634	-0.047277
C	-1.0744881765	-1.3360495918	-2.643800738	-0.368357
C	-0.4845258097	-2.3320966872	-1.6348044555	 0.434294
O	 0.2793208841	-3.2380974379	-1.6656186768	-0.289684
N	-1.4450604622	-1.9983975606	-0.5584251468	-0.193629
H	 0.950626317	 1.6685751117	 0.755054779	 0.270922
H	-0.6616001791	 1.3874717434	 1.3151845082	 0.266767
H	-2.0006154165	-0.2852044693	 0.5654221646	 0.102741
H	-3.0880113603	-0.8335597425	-1.6047268347	 0.116597
H	-1.5942836111	-1.8531287391	-3.4548992706	 0.136321
H	-0.396701951	-0.5860881565	-3.0474976871	 0.154945
