17
gdb 34572	4.44569	1.10053	0.99931	4.0368	81.45	-0.2348	-0.0472	0.1876	1187.251	0.138664	-380.873014	-380.865677	-380.864733	-380.905052	28.135	
N	 0.0628317027	-1.1870770509	-0.1799776942	-0.332521
C	-0.0109619093	-0.0338097201	-0.0933825362	 0.200443
C	-0.0450706586	 1.3804631613	 0.0203120179	 0.194952
C	-1.1366565836	 2.1557249774	-0.0288340559	-0.183367
C	-0.7579966568	 3.6050985516	 0.0890499568	-0.019748
C	-1.0394700844	 4.309779806	 1.444296035	-0.244598
C	 0.4194212144	 3.9480897361	 1.8159037278	-0.166903
N	 0.7052902056	 3.5858073596	 0.3986134545	-0.091088
C	 1.2168023019	 2.2328652763	 0.1711638772	-0.281392
H	-2.1511205316	 1.8025868899	-0.1681991473	 0.126397
H	-1.0418913459	 4.16754132	-0.8101024956	 0.095591
H	-1.213934644	 5.3811524507	 1.3342133757	 0.119223
H	-1.8250051572	 3.8780436535	 2.0656708621	 0.113445
H	 1.0494576104	 4.7569847057	 2.1967018483	 0.112452
H	 0.4881987601	 3.0953336639	 2.5045561041	 0.102712
H	 1.847117894	 1.9083036563	 1.0073331409	 0.126517
H	 1.8306726423	 2.1732027729	-0.7374417611	 0.127885
