18
gdb 90189	4.15328	1.56931	1.418	1.2008	75.03	-0.2377	0.0775	0.3152	955.1337	0.148535	-401.823628	-401.816915	-401.815971	-401.854383	27.96	
C	-0.0614225799	 1.5153754901	-0.0844029075	-0.396163
C	 0.0094938773	 0.0066168444	 0.0683978272	 0.096701
O	 0.8050993903	-0.5702116646	-1.0379591531	-0.35936
C	 1.7535931156	-1.2487242324	-0.2642363554	 0.398243
C	 2.9906605187	-2.146548345	-0.1785291668	-0.252534
N	 2.6551642368	-1.8841808965	 1.3120521525	-0.19028
C	 2.2372445365	-0.4386488977	 0.949274885	-0.044432
C	 0.7573030349	-0.5049991136	 1.3561897305	-0.139204
C	 1.1480869158	-1.9380840227	 0.9683237784	-0.050047
H	 0.9351588248	 1.9631430665	-0.0269623128	 0.123713
H	-0.5005337236	 1.7821317932	-1.0494139238	 0.131857
H	-0.6824721273	 1.9487468971	 0.7069146353	 0.117278
H	-0.9932307005	-0.4339037355	 0.0085273888	 0.088652
H	 2.8919682653	-3.1963195403	-0.4681727861	 0.114038
H	 3.9556124292	-1.7344393447	-0.4861287338	 0.113915
H	 2.9558742153	 0.3790594866	 0.9737007761	 0.085299
H	 0.3482535567	-0.1974274677	 2.3197150615	 0.077638
H	 0.5865227542	-2.8705160572	 1.0122921139	 0.084685
