11
gdb 25399	4.02323	1.24418	0.9503	1.2802	60.73	-0.2953	-0.1341	0.1612	1094.7414	0.065295	-488.730393	-488.723181	-488.722237	-488.763032	24.792	
O	-0.1310962543	 0.0308788897	-0.0030732264	-0.195339
C	-0.0055423637	 1.2215338601	 0.0058803386	 0.111428
C	 1.3512742341	 1.9017237418	-0.0029461323	 0.340013
N	 2.4549216227	 1.2369918966	-0.0204930448	-0.285163
C	 3.5783989009	 2.0320472009	-0.0261352838	 0.089411
N	 3.6324020651	 3.326781608	-0.0158595702	-0.290041
C	 2.4509976389	 4.034330194	 0.0028115522	 0.463605
O	 2.2962615797	 5.2096248622	 0.0142381341	-0.296413
O	 1.2455472264	 3.2236083191	 0.0090821474	-0.224775
H	-0.8521332353	 1.9349536913	 0.0212633156	 0.128407
H	 4.5239409355	 1.4939338565	-0.0405494903	 0.158866
