18
gdb 52181	4.89017	0.72742	0.70201	3.2978	74.06	-0.2468	-0.0247	0.222	1580.1331	0.146294	-439.118481	-439.109219	-439.108275	-439.154752	32.654	
O	 0.3663997332	 1.1877967755	-1.3105767667	-0.323633
C	 0.2045574715	 1.5101167582	-0.1522383902	 0.153887
N	 1.1418596611	 1.379739769	 0.8239106304	-0.267057
C	 2.4740039762	 0.859887738	 0.5490143394	-0.192063
C	 3.4344228554	 1.913427749	 0.0040390023	 0.030279
C	 3.8763082577	 3.0560841738	 0.9735181059	-0.365776
C	 5.3353158186	 2.7287052357	 0.610458687	 0.410142
O	 6.379475903	 3.2778382698	 0.8036590632	-0.284075
C	 4.9213820015	 1.4671707026	-0.1650185735	-0.369598
H	-0.7415385273	 1.9395679655	 0.2331062974	 0.078405
H	 0.9287965871	 1.7319679347	 1.7428575066	 0.250789
H	 2.8697342111	 0.4273405422	 1.4751929167	 0.103129
H	 2.3657911721	 0.0522710346	-0.1808489417	 0.144633
H	 3.0264351277	 2.3122730551	-0.9267677618	 0.112088
H	 3.5487382381	 4.0751560892	 0.753721271	 0.134563
H	 3.6678378007	 2.8474638711	 2.0303148463	 0.118142
H	 5.1705385031	 0.5519376858	 0.3860168354	 0.128605
H	 5.3184356193	 1.3751888804	-1.1787767978	 0.137541
