23
gdb 70247	2.66719	1.41112	1.24619	1.244	85.08	-0.2264	0.079	0.3054	1170.8197	0.204346	-388.301625	-388.292236	-388.291291	-388.335041	37.289	
C	-0.147739726	 1.5008550066	 0.0233031445	-0.464485
C	 0.0118087538	 0.0047611894	 0.0351492713	 0.439052
C	-0.8761239419	-0.9003338696	 0.8500747149	-0.338575
C	 0.6117127838	-0.8089071502	 1.1495054064	-0.104639
C	 1.5109997683	-1.8466076063	 0.4885371337	-0.287074
C	 1.6136927821	-1.3636079583	-0.9866977566	 0.387987
C	 2.8607261416	-0.4944573608	-1.1989654481	-0.413348
C	 1.5513228419	-2.4989052392	-2.0035637207	-0.429125
O	 0.4376655424	-0.5448142239	-1.1922683061	-0.334006
H	 0.7961847167	 1.9961702032	-0.2272055752	 0.118317
H	-0.8935918123	 1.8026678991	-0.7198188074	 0.126298
H	-0.4797638056	 1.862578825	 1.0010375066	 0.112849
H	-1.5579488442	-0.4445121878	 1.5612084188	 0.104463
H	-1.2466112012	-1.8014316234	 0.3720248961	 0.109294
H	 0.9254640511	-0.3467698208	 2.0786398253	 0.085338
H	 2.4966178616	-1.8887322001	 0.9603413566	 0.100462
H	 1.0797566181	-2.8522830265	 0.542193096	 0.0978
H	 3.7756913421	-1.0907616581	-1.115482703	 0.108078
H	 2.8348627288	-0.0342501274	-2.1907832085	 0.119049
H	 2.9068086646	 0.3038386298	-0.451426773	 0.114495
H	 0.6315511307	-3.0763363447	-1.8748929446	 0.115898
H	 1.5673977685	-2.1042362328	-3.02388605	 0.120516
H	 2.405608745	-3.1728821532	-1.8834504769	 0.111356
