14
gdb 24905	4.99889	1.32685	1.05719	1.079	69.37	-0.2062	-0.0128	0.1934	1044.3391	0.103995	-432.892091	-432.885392	-432.884448	-432.923268	25.855	
N	-0.0838477222	 1.2334256857	-0.0572469388	-0.526795
C	 0.0000904209	-0.0277987521	 0.0318808626	 0.376816
C	-1.2554217435	-0.9505935146	 0.0033610268	-0.420129
C	-0.5812589312	-2.2738162573	-0.0710325748	 0.261837
C	 0.7551605554	-2.1665521806	 0.018368253	 0.320939
N	 1.1561391051	-0.8330761109	 0.1676311683	-0.444812
N	 1.3567102067	-3.3997195953	 0.0495599829	-0.35269
C	 0.3310502854	-4.2037606701	-0.0227740674	 0.041501
O	-0.8902985582	-3.6022661652	-0.0822249917	-0.189118
H	 0.8337105481	 1.680498973	-0.0191383941	 0.212191
H	-1.8446695039	-0.7971183211	 0.9150453918	 0.153633
H	-1.8911837074	-0.6826562979	-0.8455509019	 0.153951
H	 2.0493823789	-0.492359401	-0.1532108679	 0.257928
H	 0.3358285759	-5.2811433927	-0.0516631889	 0.154748
