12
gdb 129230	3.2689	1.37771	0.96922	2.1019	66.7	-0.2685	-0.1287	0.1397	1093.8128	0.078151	-464.957511	-464.950191	-464.949247	-464.990146	25.776	
N	-0.1592541146	 1.3450732505	 0.0084580372	-0.541914
C	 0.015156349	 0.0902799839	 0.0013497073	 0.443381
N	-1.1237331945	-0.7443345954	 0.0029490975	-0.203426
N	-1.1324357248	-2.0637410666	-0.0035316296	-0.01323
N	-0.0138179276	-2.6810744928	-0.0122206771	-0.24907
C	 1.1419052784	-1.89756348	-0.0141036353	 0.272675
C	 2.4082976161	-2.7301043301	-0.0248166267	 0.128271
O	 3.5101448532	-2.2560970602	-0.0283215068	-0.215886
N	 1.2205545814	-0.6106439815	-0.008197386	-0.285266
H	 0.7453663652	 1.8140823375	 0.0062162005	 0.244463
H	-2.0378724669	-0.3092734279	 0.0097195301	 0.301317
H	 2.2114641952	-3.8198728973	-0.0293986811	 0.118683
