22
gdb 116382	2.71134	1.27034	0.93734	2.9325	83.84	-0.2554	0.0196	0.2751	1319.2601	0.195873	-404.378988	-404.369941	-404.368997	-404.412882	34.487	
C	 0.0860377763	 1.5617222978	-0.2454560974	-0.389734
C	 0.0319952881	 0.0590792478	 0.0461288635	-0.175559
C	-1.3880439577	-0.5184529946	 0.1651458664	-0.040724
C	-1.4264634878	-2.0396575202	-0.082591351	-0.224128
C	-2.8573090105	-2.5619538659	 0.0515064412	-0.222451
C	-3.4015167247	-2.1975346202	 1.4243622801	-0.069986
O	-3.2742990142	-0.7990180093	 1.7216798116	-0.256234
C	-2.0744610446	-0.1789024354	 1.4787012835	 0.37768
N	-1.6301370955	 0.6983261014	 2.2764928508	-0.495437
H	 1.1224067291	 1.8968344099	-0.355569298	 0.104635
H	-0.4383710339	 1.8004616423	-1.1784545048	 0.100339
H	-0.3746549694	 2.1273965762	 0.5659454928	 0.149712
H	 0.5432393187	-0.4819021109	-0.7607160336	 0.082341
H	 0.5806473909	-0.1578506376	 0.9688489443	 0.109874
H	-2.0168104214	-0.0592954722	-0.6146852789	 0.095669
H	-1.0226201413	-2.2544639125	-1.0772599322	 0.101981
H	-0.7730864841	-2.5474737491	 0.6402212914	 0.103392
H	-3.4909540223	-2.1169223135	-0.7254095831	 0.108001
H	-2.9019180049	-3.649504599	-0.0740651269	 0.102557
H	-4.4691273793	-2.4134843223	 1.5128579072	 0.116392
H	-2.8751840185	-2.7686605949	 2.2033727788	 0.104326
H	-2.2563923532	 0.7775180422	 3.0808250043	 0.217354
