15
gdb 52364	5.89191	0.59409	0.54919	1.8111	70.4	-0.2695	-0.0628	0.2067	1855.9836	0.110296	-453.958063	-453.948593	-453.947648	-453.994381	31.391	
N	 0.0546687089	 1.4155139811	 0.020514756	-0.515266
C	 0.0108732626	 0.1490420412	 0.0376261513	 0.328485
O	-1.1218340117	-0.5593704579	-0.0237219823	-0.230541
C	-2.338328762	 0.2043878604	-0.1229861236	-0.074472
C	-3.4866819285	-0.794782014	-0.1898269676	-0.289987
C	-4.8319182441	-0.1088339216	-0.0538546345	 0.15374
O	-5.7460183668	-0.2418476901	-0.8228089997	-0.22308
C	 1.168418466	-0.7244402657	 0.1276828226	 0.257423
N	 2.1302362298	-1.3605516834	 0.2024899278	-0.311283
H	 1.0098860769	 1.7606852077	 0.0762761159	 0.256974
H	-2.4159210741	 0.8637677737	 0.7486186566	 0.136271
H	-2.2899115963	 0.8393229973	-1.0127743807	 0.147016
H	-3.4679959127	-1.3700136796	-1.1179756787	 0.141095
H	-3.3855104281	-1.4918781083	 0.6536715951	 0.141647
H	-4.9280849598	 0.5414551093	 0.8468510918	 0.081978
