18
gdb 23444	3.41942	1.20799	1.0655	1.8423	75.35	-0.2479	-0.0057	0.2421	1162.6222	0.148511	-439.03504	-439.027182	-439.026238	-439.067875	30.215	
O	-0.2742840027	 1.1597087022	-0.5588241624	-0.389495
N	-0.1299787115	-0.2227558674	-0.3572376909	-0.23193
C	-1.2065978704	-0.7372564753	 0.06478005	 0.404158
C	-2.5936739787	-0.2447647169	 0.4237341904	-0.345917
C	-2.9776352316	-1.7175862533	 0.7803296648	-0.043565
C	-3.8375314355	-2.4695484379	-0.2446160777	-0.229852
C	-2.8201677943	-2.8519483584	-1.3350369709	-0.091145
O	-1.6033247124	-3.1129210133	-0.6401266254	-0.245978
C	-1.5175393699	-2.1903599209	 0.4253466654	 0.012504
H	 0.6003148362	 1.4118886198	-0.8748898969	 0.308223
H	-2.6114023091	 0.4570891198	 1.2628333565	 0.128293
H	-3.1512083333	 0.2070419804	-0.4037316686	 0.122409
H	-3.3036161095	-1.8676351699	 1.8091083157	 0.079311
H	-4.2542671077	-3.3740747599	 0.2087272392	 0.109913
H	-4.6662079005	-1.8711423207	-0.6334824954	 0.104516
H	-3.0845906762	-3.7541494399	-1.8914910937	 0.112821
H	-2.6860371334	-2.0296645917	-2.0544832763	 0.101029
H	-0.8889787795	-2.6282724268	 1.2038772561	 0.094704
