18
gdb 99547	2.14821	1.1759	0.93497	3.372	78.89	-0.2432	0.0254	0.2686	1320.7835	0.146591	-398.082079	-398.071746	-398.070801	-398.117718	36.649	
C	 0.7401930845	-0.740485013	 1.1327127769	-0.323345
N	-0.0445096113	-0.0215317708	 0.1302970734	-0.285543
C	-1.3900422153	-0.5603895344	-0.0679249202	-0.150953
C	-2.3227352244	-0.2498698114	 1.0241457855	 0.341793
C	-3.055662464	 0.0192050741	 1.9384758124	-0.453917
C	-1.9453329704	-0.0474949866	-1.4304461993	-0.14032
N	-1.7754163499	 1.4000744291	-1.5298077391	-0.503893
C	-1.3094007197	-0.7879245111	-2.5421333524	 0.266089
N	-0.8229085583	-1.3389406294	-3.4344507301	-0.324389
H	 1.7037683634	-0.2390217714	 1.2554811158	 0.12622
H	 0.2524891725	-0.805661631	 2.1179984274	 0.114896
H	 0.9365068073	-1.7578202008	 0.778705367	 0.132465
H	-0.1388701279	 0.9491331905	 0.4123176515	 0.233632
H	-1.2965529411	-1.6502102378	-0.1469187758	 0.127493
H	-3.7073583884	 0.2535628235	 2.743893685	 0.201792
H	-3.0168046225	-0.26895513	-1.4574919581	 0.140021
H	-0.7983819237	 1.6053482284	-1.7176888587	 0.250108
H	-2.3084765207	 1.7622750123	-2.313383571	 0.247852
