21
gdb 89952	2.53697	1.40478	1.0687	2.7956	83.55	-0.2428	-0.0232	0.2196	1202.3849	0.182103	-387.082064	-387.073233	-387.072289	-387.115779	33.603	
C	 0.1387830286	 1.6683906203	-0.0120870312	-0.414543
C	 0.0622211862	 0.1490989032	-0.0085551978	 0.053466
C	 0.9615028991	-0.662725264	-0.990436653	-0.323085
C	 1.3395074021	-1.6492708154	 0.1451771701	 0.282465
C	 2.6918739483	-1.3892205855	 0.8523604913	-0.296372
C	 2.0454203918	-0.270499599	 1.7166761672	-0.230464
C	 0.6361632426	-0.6592568382	 1.1853411781	-0.089255
C	 0.8546141814	-3.0526802446	 0.0225227941	 0.063789
O	 0.1416517384	-3.4716188576	-0.8578073818	-0.259344
H	 1.1679880067	 2.0268024383	 0.0958135608	 0.11469
H	-0.2482473098	 2.0705354391	-0.9548035344	 0.120225
H	-0.453646256	 2.1011118762	 0.8018948393	 0.115445
H	-0.9799852828	-0.1569440546	-0.1501601025	 0.085175
H	 0.4392176288	-1.1347786886	-1.8238919614	 0.127454
H	 1.8201972623	-0.1045465883	-1.3761493631	 0.093601
H	 3.0068332693	-2.2478747035	 1.4548468222	 0.104299
H	 3.5214152574	-1.1064342886	 0.1983782514	 0.104259
H	 2.1726520617	-0.3962391971	 2.7938981093	 0.106879
H	 2.3590975527	 0.7442630088	 1.4611313847	 0.106457
H	-0.0712518567	-1.0142584183	 1.9369397424	 0.071875
H	 1.178459458	-3.7204652226	 0.8568135445	 0.062983
