19
gdb 51432	4.4625	0.93831	0.92848	4.059	77.09	-0.2753	0.009	0.2843	1319.7284	0.160818	-423.038193	-423.030373	-423.029429	-423.071884	29.653	
O	-0.0702476702	 0.0125603485	 0.0307978576	-0.277755
C	-0.044956994	 1.2067402267	 0.0236085484	 0.157297
O	 1.100373725	 1.9105848983	 0.0091530394	-0.207184
C	 1.0202879242	 3.3349549903	 0.0456640929	 0.170792
C	 1.6617791282	 3.9616566925	 1.3163918642	-0.051909
C	 3.0349196796	 3.6813587906	 0.631044563	-0.23435
C	 2.2277735709	 4.0007884874	-0.6652385266	-0.047096
C	 1.8888424736	 5.4912086905	-0.4768778686	-0.221504
C	 1.4556507155	 5.460807465	 1.0322961725	-0.220577
H	-0.946336211	 1.8504739581	 0.0189476135	 0.075954
H	 0.0109343424	 3.6583596649	-0.2361951974	 0.076491
H	 1.4190551251	 3.5889770281	 2.3114600393	 0.072014
H	 3.8710145374	 4.3390433788	 0.8833783329	 0.0916
H	 3.333373107	 2.6360658155	 0.6949630897	 0.12729
H	 2.5493198441	 3.6662916508	-1.6510319105	 0.074323
H	 2.7569197366	 6.1310956162	-0.6537867423	 0.10652
H	 1.0848342806	 5.8270144152	-1.1383065231	 0.101011
H	 0.4186172317	 5.7777413067	 1.1775826993	 0.100321
H	 2.0881573833	 6.0872719158	 1.6662815455	 0.106761
