16
gdb 42298	3.35314	1.25551	0.92399	1.0272	81.38	-0.2313	-0.0345	0.1968	1207.6576	0.125154	-396.907044	-396.898694	-396.89775	-396.940649	30.249	
N	-0.0812853297	 1.348954614	 0.0130312647	-0.525369
C	 0.0250952603	 0.0719315104	 0.003659667	 0.217809
C	-1.177873416	-0.7224270489	 0.0087596614	 0.316131
C	-2.1806365277	-1.3846651723	 0.0130074714	-0.408046
N	 1.207238103	-0.6522562861	-0.0112868222	-0.130735
C	 2.53954313	-0.0409639203	-0.0188297112	-0.213715
C	 3.4563701046	-1.3001820267	-0.0351392174	-0.177989
N	 2.5668007014	-2.4746460082	-0.0354403294	-0.265411
C	 1.3732085763	-2.0363490695	-0.0221228259	 0.084735
H	 0.8339266515	 1.7996116495	 0.0081404398	 0.221112
H	-3.0792261287	-1.9519796883	 0.0169858584	 0.213809
H	 2.6667084036	 0.5937401347	-0.9028642336	 0.129599
H	 2.6821527642	 0.5820188902	 0.871160344	 0.129604
H	 4.0983515483	-1.3277458466	-0.9210308978	 0.126398
H	 4.1133574185	-1.3396009904	 0.8392318792	 0.126398
H	 0.4893068305	-2.6620306413	-0.0187035583	 0.15567
