10
gdb 3830	5.80569	2.85177	1.91239	1.6423	54.9	-0.2522	-0.086	0.1662	596.6744	0.066223	-355.442748	-355.436965	-355.436021	-355.472523	20.605	
N	-0.0716787856	 1.3275493852	 0.1401477187	-0.496565
C	-0.0809818693	 0.0652436874	-0.0164329646	 0.389079
C	-1.2390269494	-0.7796077964	-0.0798612345	-0.213882
C	-1.0796801648	-2.1063334211	-0.2509871117	 0.122999
O	 0.0915835422	-2.7230935466	-0.3702895397	-0.260374
N	 1.344962757	-1.8293622177	-0.3040201289	 0.048779
N	 1.1832220391	-0.6464211291	-0.1507401075	-0.113266
H	 0.8891398694	 1.6740172036	 0.1485638806	 0.236214
H	-2.2224333689	-0.34142718	 0.0103395393	 0.136012
H	-1.9123272696	-2.8036040752	-0.3077375517	 0.151004
