19
gdb 98831	2.93547	1.09129	0.96355	3.4147	71.8	-0.2511	-0.0369	0.2142	1290.0496	0.157152	-460.1519	-460.14236	-460.141415	-460.187306	33.882	
C	-0.3548812307	 1.5311172395	-0.0474537218	-0.429607
C	 0.0267450844	 0.0595044105	-0.0778011872	-0.036557
C	 1.4267646891	-0.3282920757	-0.603900116	-0.075909
O	 1.7013576469	-1.1196237813	 0.5722751739	-0.270585
C	 0.509837842	-0.6716187694	 1.2242035734	 0.014786
C	 0.7854935101	 0.242005783	 2.4053498233	 0.346867
O	 1.7844495729	 0.9233268141	 2.4896639396	-0.32234
C	-0.2654147725	 0.3128573021	 3.5034940987	-0.139043
O	 0.0464813342	 1.2943161667	 4.4430198567	-0.418718
H	 0.4126494067	 2.1356706015	 0.4440368833	 0.14493
H	-0.4769282858	 1.9076807614	-1.068533432	 0.1255
H	-1.3044783676	 1.6910424449	 0.4743386372	 0.124645
H	-0.7610296016	-0.5257530269	-0.5584284459	 0.095128
H	 1.4624490244	-0.928674811	-1.5193201811	 0.107656
H	 2.1238041301	 0.5142627963	-0.6917787026	 0.114898
H	-0.1228858706	-1.5096442136	 1.5460075538	 0.08799
H	-1.25037991	 0.5000277041	 3.0434927062	 0.11616
H	-0.3314486469	-0.6899737242	 3.9628137269	 0.119337
H	 0.9274264048	 1.6136251879	 4.1871732337	 0.294862
