18
gdb 63101	2.63107	1.41928	1.23033	3.703	72.15	-0.2137	-0.0177	0.196	1080.5771	0.14678	-439.08028	-439.071607	-439.070662	-439.113376	33.032	
C	 0.0585847175	 1.6110036808	-0.0870611295	-0.458179
C	 0.0540028737	 0.1045541419	 0.0087752976	 0.379789
O	-1.1635625317	-0.4900726161	-0.3700677398	-0.458422
C	 1.2627735032	-0.7473015359	-0.2064861619	-0.094701
N	 2.5662124765	-0.0878330362	-0.2049117045	-0.317203
C	 2.8683015536	 0.3608707916	 1.1626158492	-0.292909
C	 1.6646749478	-0.013836914	 2.0506708501	 0.398131
O	 1.616391006	 0.152478815	 3.2439000828	-0.324578
C	 0.643197709	-0.6769124183	 1.1886450534	-0.224583
H	 1.0237254513	 2.042647015	 0.1810425039	 0.138344
H	-0.1544284859	 1.9166646806	-1.1189336672	 0.11225
H	-0.7134691675	 2.0362561384	 0.5604745893	 0.136235
H	-1.3011948713	-0.2986961611	-1.3052551501	 0.283489
H	 1.1645869953	-1.6288528595	-0.8297047663	 0.100419
H	 3.267498653	-0.7426644845	-0.5230551578	 0.231944
H	 3.7614026249	-0.1218084995	 1.5755729942	 0.132418
H	 3.0393285389	 1.4431626399	 1.2194927332	 0.135997
H	 0.0065648959	-1.435739498	 1.6246162334	 0.121558
