19
gdb 124633	4.29101	0.93476	0.87144	4.2654	77.92	-0.2119	0.0369	0.2489	1390.8227	0.160935	-415.419751	-415.410707	-415.409762	-415.4541	33.22	
C	 0.0365969695	 1.5372867961	 0.0315731756	-0.39694
C	 0.0050766242	 0.0082088535	 0.0198739442	 0.039377
C	 0.5369520858	-0.5859463036	 1.3338913773	-0.384708
N	-1.3562124553	-0.4262839645	-0.2988103223	-0.389133
C	-1.6602333082	-1.7307132802	-0.5877513025	 0.480486
N	-2.8532503667	-2.2875351739	-0.437395711	-0.360291
C	-2.6581279932	-3.545500802	-0.9276752935	 0.036402
N	-1.4449231793	-3.8186672534	-1.3592865251	-0.231842
N	-0.801412368	-2.6269549158	-1.1294148524	-0.268311
H	 1.0514783501	 1.8997549728	 0.2153969719	 0.124885
H	-0.3152289451	 1.9421935647	-0.9205985213	 0.13188
H	-0.6050248131	 1.930141363	 0.8294643265	 0.120505
H	 0.6470199872	-0.3303018666	-0.8051222154	 0.084506
H	 0.4936411	-1.6786953034	 1.3212270703	 0.129522
H	 1.5765980411	-0.2873527246	 1.5025988687	 0.119043
H	-0.0596482447	-0.2339168738	 2.1825463953	 0.121531
H	-2.0866869455	 0.0075095417	 0.2493313816	 0.250892
H	-3.4453827474	-4.2844917528	-0.959133224	 0.119244
H	 0.1617564186	-2.5221818369	-1.3947755339	 0.272954
