23
gdb 112765	2.2597	1.20808	0.89934	0.6272	91.91	-0.2518	0.0505	0.3023	1417.5893	0.203904	-351.124623	-351.114324	-351.11338	-351.15982	38.672	
C	 0.0701979668	 1.6201186015	 0.0183117813	-0.382509
C	-0.1043544381	 0.0978210457	-0.0155867272	-0.201056
C	 0.6508671446	-0.5516935359	-1.1654536757	 0.050419
C	 2.202763815	-0.5478583194	-1.1692032022	-0.241494
C	 2.1815744943	-1.9649377524	-1.7977372966	 0.041448
C	 3.2338049306	-2.9816276996	-1.3918273886	-0.414097
C	 0.6929050401	-2.1221547557	-1.2987391591	-0.243953
C	 0.5416395048	-2.8468349006	-0.0510360961	 0.371325
C	 0.4198217813	-3.4520483228	 0.9824223209	-0.502752
H	 1.1244857596	 1.8966023108	 0.1278432632	 0.117946
H	-0.29845853	 2.0845653003	-0.9034001247	 0.111057
H	-0.4773494378	 2.0632035314	 0.8558632783	 0.111853
H	 0.2359443111	-0.3380485858	 0.9306885037	 0.106448
H	-1.1708414441	-0.1496675965	-0.097797572	 0.094834
H	 0.2838090677	-0.1514848805	-2.1181439388	 0.071108
H	 2.7158742327	 0.2452665165	-1.7185196453	 0.093638
H	 2.5966241205	-0.5787381478	-0.1469493296	 0.102474
H	 2.1497638139	-1.8772036291	-2.8892288235	 0.074946
H	 3.2466441638	-3.1237041021	-0.3073689385	 0.126778
H	 3.0468188709	-3.9574475901	-1.8534091195	 0.114602
H	 4.2296309445	-2.6488889378	-1.7053566457	 0.110644
H	 0.0025467343	-2.5379444712	-2.0396315335	 0.092576
H	 0.3035417033	-3.9895204687	 1.8906736493	 0.193766
