15
gdb 51844	3.24405	1.05239	0.84282	3.3239	62.19	-0.2618	-0.0377	0.2242	1285.562	0.11119	-494.938056	-494.929558	-494.928613	-494.973074	28.653	
O	-0.0911735542	-0.0151899943	 0.0807875491	-0.227045
C	-0.027727262	 1.1698553941	-0.1154698223	 0.149697
C	 1.2680706427	 1.9599010191	-0.1287971675	-0.29404
C	 1.3851983674	 2.8565990024	-1.3740617433	-0.071776
O	 0.3712478568	 3.8483624665	-1.4454726048	-0.257307
C	 0.9476808448	 5.0827103479	-1.0773644932	 0.025546
O	 2.3553578006	 4.9662969275	-1.2424340866	-0.213899
C	 2.6889618804	 3.653733399	-1.367700164	 0.434897
O	 3.8096953364	 3.2532311382	-1.4425860907	-0.326532
H	-0.9398211691	 1.777851255	-0.2992459178	 0.097583
H	 1.2875006952	 2.5933789137	 0.7690435142	 0.130281
H	 2.1156112825	 1.2714105088	-0.0830169908	 0.153175
H	 1.3392021223	 2.2474954013	-2.2829007194	 0.138858
H	 0.5718085404	 5.8678950817	-1.7389557292	 0.141252
H	 0.7372444059	 5.3336034192	-0.0275920638	 0.119311
