19
gdb 53513	5.35676	0.58832	0.55896	1.5937	87.5	-0.242	0.0367	0.2787	1989.1204	0.154706	-385.830731	-385.8195	-385.818555	-385.868805	38.618	
C	 0.0809869196	 1.5171083134	-0.0647157	-0.498519
C	 0.0516194496	 0.0625482914	-0.0126405321	 0.128098
C	 0.0240493542	-1.1400866563	 0.0266995088	 0.028034
C	-0.0233842639	-2.5948814428	 0.0851079822	-0.392737
C	-1.458073428	-3.1658679186	 0.0104607509	 0.139512
O	-2.1345384073	-2.7570997826	-1.1589132791	-0.410969
C	-1.4261848092	-4.7061995292	 0.1503862147	-0.387999
C	-2.7500755664	-5.3121654204	 0.1566468126	 0.307104
C	-3.8438946455	-5.8088498957	 0.1748873457	-0.429117
H	 0.9187930783	 1.8777702701	-0.6719003356	 0.145592
H	-0.8405657483	 1.9160950325	-0.5028206684	 0.15071
H	 0.1869847443	 1.9513330025	 0.9356502871	 0.145802
H	 0.5662204829	-3.0256682321	-0.7387968716	 0.113466
H	 0.4510726879	-2.9496197037	 1.0098688776	 0.126273
H	-2.0458704306	-2.7502248792	 0.8349896845	 0.112166
H	-1.6359931582	-3.0681258061	-1.9231202398	 0.279195
H	-0.8299716482	-5.1223330004	-0.6751507794	 0.118623
H	-0.893601395	-4.9721705491	 1.072777109	 0.130613
H	-4.8120872862	-6.2442066836	 0.184888213	 0.194152
