16
gdb 87618	2.76204	1.58905	1.1787	4.4794	73.4	-0.2224	-0.0155	0.2069	1034.4416	0.125357	-434.072327	-434.064441	-434.063497	-434.104598	30.328	
O	 0.0130075771	 1.3714972693	-0.0487316762	-0.429502
C	 0.047643001	-0.0122307737	 0.0209425153	 0.109216
C	-0.3694671588	-0.7448057891	 1.250496724	-0.357827
C	-1.2829830211	-0.7657844348	 0.0279875579	 0.245339
N	-2.4698954148	 0.0490464719	 0.0129605476	-0.323622
C	-3.3121276279	-0.5991739994	-0.7033563707	 0.046891
N	-2.8561995596	-1.8107323948	-1.1936173022	-0.360863
C	-1.5329494383	-2.0015796093	-0.7656270505	 0.322478
N	-0.7196147578	-2.9583131406	-0.9664034727	-0.563422
H	-0.9120679437	 1.6338375299	 0.0578985211	 0.298736
H	 0.8337771318	-0.4464446653	-0.5891550963	 0.128849
H	 0.1149156523	-1.6886502606	 1.4775763911	 0.142963
H	-0.7251818513	-0.1624752865	 2.092953501	 0.129289
H	-4.3142666113	-0.2579010895	-0.936774433	 0.141276
H	-3.3776415552	-2.4456219717	-1.7743388174	 0.260679
H	-1.1206919324	-3.6978854657	-1.5426146789	 0.209522
