21
gdb 102367	1.77684	1.50394	1.04013	1.9004	79.2	-0.2512	-0.0504	0.2009	1272.6016	0.178173	-424.24766	-424.236693	-424.235748	-424.284121	38.348	
C	-0.0717856307	 1.735126673	 0.0999434236	-0.416745
C	 0.0232718594	 0.2101291928	-0.0376426334	-0.201659
C	 0.749543254	-0.3581995652	-1.3150387106	 0.047548
C	 0.7294453314	-1.8979186671	-1.248606856	-0.192888
C	 1.4029425493	-2.6058416044	-2.4292761643	-0.418763
C	-0.0093070097	 0.176299709	-2.5233605808	 0.144295
O	-0.9167279914	-0.4020980172	-3.0636229541	-0.258553
C	 2.1668878974	 0.2007672958	-1.2968156141	 0.144297
O	 3.1085258671	-0.3567088834	-0.7944443299	-0.258557
H	 0.912700133	 2.210538396	 0.1455629499	 0.128971
H	-0.6291660174	 2.1927746806	-0.7229757418	 0.12898
H	-0.5965490401	 1.98594908	 1.026391287	 0.131116
H	 0.5517740595	-0.204618211	 0.8275848161	 0.124654
H	-0.9832018374	-0.2222537686	-0.0372899268	 0.124639
H	 1.2207026957	-2.1937921229	-0.3167265032	 0.113304
H	-0.3169495486	-2.211117697	-1.1834726493	 0.113301
H	 0.9125397241	-2.3594340483	-3.3749246365	 0.131016
H	 2.461519445	-2.3419799234	-2.5017959406	 0.131007
H	 1.3420942305	-3.6904429181	-2.2996337248	 0.117958
H	 0.30759145	 1.1844232244	-2.8782048704	 0.083037
H	 2.2892969687	 1.206536005	-1.76167035	 0.08304
