19
gdb 8683	2.68104	1.6205	1.29257	4.6927	71.45	-0.2897	0.0227	0.3124	1054.5359	0.16264	-365.084306	-365.074437	-365.073493	-365.11845	35.29	
C	 0.0076217228	 1.5581612641	 0.1389346615	-0.396624
C	-0.0225352579	 0.0380313927	-0.0261208834	-0.210624
C	 0.7245888747	-0.4780701549	-1.279466574	 0.199241
O	 2.0771950532	-0.0221207698	-1.2934011026	-0.446208
C	 0.658095312	-2.0220097216	-1.364534971	-0.210602
C	 1.3862063079	-2.6143818782	-2.5719691817	-0.396631
C	 0.1012857786	 0.1021112296	-2.489476497	 0.317533
N	-0.4349167578	 0.5293887678	-3.4190041805	-0.350297
H	 1.0361603099	 1.9273124935	 0.1481650716	 0.129843
H	-0.5196327288	 2.0540772635	-0.6812030724	 0.144491
H	-0.4738015218	 1.8504848932	 1.0762140827	 0.11665
H	 0.4461119772	-0.447690937	 0.8406518203	 0.094732
H	-1.0557663715	-0.3249018773	-0.0626542939	 0.117706
H	 2.5054317149	-0.3886601967	-0.5109370466	 0.28739
H	 1.0933723865	-2.4065680355	-0.4320700479	 0.094723
H	-0.3946753662	-2.325808553	-1.3626018531	 0.117698
H	 0.9181668787	-2.297790208	-3.508591707	 0.144474
H	 2.4299782221	-2.2913388331	-2.592726853	 0.129856
H	 1.3623786554	-3.7069662894	-2.534447292	 0.116651
