21
gdb 73979	3.30329	1.44914	1.23265	0.8947	91.33	-0.1948	-0.0225	0.1723	1114.3478	0.181853	-349.868816	-349.860461	-349.859517	-349.901104	33.376	
C	-0.2577538849	 1.3408831666	-0.0747802535	-0.470093
C	-0.056175702	-0.0736146809	 0.3644025428	 0.262358
C	-1.0411853091	-1.0012323817	 0.4508939742	-0.047423
C	-1.7430886212	-1.3138521398	-0.8844644766	-0.310568
C	-0.6484383843	-2.4428936152	-0.9678741701	 0.32372
C	-0.7974531529	-3.6394963834	-1.8740625816	-0.486044
C	 0.7597322363	-2.1662803882	-0.2734348038	-0.087257
C	 1.280980843	-0.7831933461	 0.1517621428	-0.313918
C	-0.4664918346	-2.4269289593	 0.5247791531	-0.145548
H	 0.2360029105	 1.5434312183	-1.0354165164	 0.119516
H	-1.3204674815	 1.5831598867	-0.1646969789	 0.125195
H	 0.1790738217	 2.0437301222	 0.6474330045	 0.128141
H	-2.7293202931	-1.7922083625	-0.8278455758	 0.096672
H	-1.7666846602	-0.5163198566	-1.634959366	 0.0931
H	-0.5858558852	-3.3824703502	-2.9186155795	 0.118435
H	-0.1175391582	-4.4480987679	-1.5867223225	 0.118445
H	-1.8194417512	-4.034573651	-1.8308387727	 0.116198
H	 1.4706019405	-2.9693718576	-0.4614372934	 0.071186
H	 1.8437795902	-0.2424223919	-0.6201093474	 0.102885
H	 1.9521682354	-0.8785221119	 1.0184349949	 0.104835
H	-0.6648926592	-3.1920869798	 1.2654376658	 0.080166
