23
gdb 76336	2.06697	1.45039	1.28512	2.4426	81.51	-0.2408	0.0583	0.2991	1186.3749	0.202797	-425.418485	-425.407753	-425.406809	-425.453401	40.604	
C	-0.9015594241	 0.9494548952	-0.445143258	-0.438332
C	 0.0649291732	-0.1991153303	-0.1980037181	-0.022365
C	 1.3607682567	-0.2637435405	-1.0713292927	 0.059806
O	 1.7291421423	 0.9509705391	-1.6939307776	-0.423671
C	 2.205273632	-0.5161174916	 0.2206577449	 0.298623
C	 2.55264727	-2.0001776657	 0.3714103465	-0.445726
C	 3.4410889248	 0.3589647839	 0.4012181783	-0.431818
C	 0.957456841	-0.1391298126	 1.0849155732	 0.05979
O	 1.1019716654	 1.14473916	 1.6590701248	-0.423657
H	-0.3815903925	 1.9089637464	-0.4032680515	 0.140051
H	-1.3815362521	 0.8601446089	-1.4268056295	 0.105609
H	-1.7047451359	 0.9599323673	 0.3010450205	 0.105612
H	-0.4672362641	-1.1555351369	-0.2422728255	 0.064559
H	 1.3868686969	-1.0898637798	-1.7971944104	 0.048505
H	 1.1137892112	 1.1149557266	-2.4153675264	 0.283143
H	 3.2956346793	-2.3023014331	-0.3749638635	 0.11502
H	 2.9701970088	-2.2018158323	 1.3640721425	 0.115018
H	 1.674056495	-2.643163835	 0.2441449675	 0.107363
H	 3.1984616988	 1.4152926145	 0.2949529907	 0.14103
H	 3.8751479397	 0.2033726556	 1.3946029577	 0.104887
H	 4.2003936064	 0.1030465327	-0.345367042	 0.1049
H	 0.7030803795	-0.8786038846	 1.8585454835	 0.04851
H	 0.2718168275	 1.3748420221	 2.0879243053	 0.283145
