13
gdb 29101	3.13206	1.47765	1.00559	7.0343	66.19	-0.2071	-0.0522	0.1548	1074.0773	0.08976	-489.940922	-489.933106	-489.932162	-489.973427	29.	
N	 0.1320429377	 1.4051666202	-0.1772325884	-0.565147
C	-0.0648323276	 0.0471325317	 0.0271606099	 0.388853
C	-1.1975157034	-0.6534692457	-0.1135357813	-0.165113
N	-1.1593044403	-2.0494136678	 0.009628339	-0.349777
C	-0.0458823297	-2.7781935286	 0.3128923219	 0.295206
O	-0.0237994697	-3.9847610957	 0.4170039538	-0.342472
C	 1.2190972442	-1.9381200394	 0.5246209129	 0.328853
O	 2.2715952432	-2.4007331484	 0.833847875	-0.278256
O	 1.1149275247	-0.5721464394	 0.3379783653	-0.235283
H	 0.7987756362	 1.8041073868	 0.4723038048	 0.265483
H	-0.7242721696	 1.9407832595	-0.2017696979	 0.258958
H	-2.1506673234	-0.2017931478	-0.3383853546	 0.129429
H	-2.0044694223	-2.5857961355	-0.1223477905	 0.269264
