25
gdb 103942	3.36931	0.97692	0.91814	0.179	93.47	-0.2585	0.0826	0.3411	1455.9406	0.227977	-352.3431	-352.333165	-352.33222	-352.377724	38.837	
C	 0.1414200255	 1.4521747756	 0.2998442243	-0.389136
C	 0.0113934199	-0.0361318555	-0.0435397146	-0.239942
C	 0.6563292918	-0.4551136506	-1.3693728907	 0.383337
C	 0.0202860992	 0.2379500546	-2.5763191859	-0.450068
C	 2.2240283588	-0.3886111367	-1.4073592307	-0.348607
C	 2.2425838272	-1.8403401771	-1.8988578833	 0.40137
C	 2.9410878144	-2.3431136266	-3.1299673459	-0.316455
C	 3.3384854364	-2.8528540759	-1.7620165799	-0.332611
C	 0.7521275334	-2.0060271191	-1.5815501756	-0.359342
H	 1.1901132844	 1.7696853744	 0.3013951586	 0.117212
H	-0.3961086758	 2.0854249032	-0.4123209135	 0.117262
H	-0.2670636073	 1.6584042505	 1.2940956028	 0.110911
H	 0.4659377361	-0.6270960431	 0.7623044123	 0.088439
H	-1.0512855338	-0.3161977874	-0.0615310428	 0.089767
H	 0.1538942596	 1.3239921073	-2.5382939392	 0.112436
H	 0.4698906645	-0.1158963231	-3.5099490588	 0.115409
H	-1.0555941682	 0.0313157963	-2.6249869528	 0.107567
H	 2.6611639084	 0.3622874672	-2.0730187834	 0.090932
H	 2.6643439031	-0.268120903	-0.4114230419	 0.090688
H	 2.4000878701	-3.0160565122	-3.788434572	 0.107754
H	 3.6239210241	-1.6721224582	-3.6424045358	 0.107683
H	 4.2896355208	-2.5269627987	-1.3519227438	 0.107579
H	 3.0658374506	-3.8698574401	-1.4967295411	 0.107732
H	 0.5676287294	-2.5699456177	-0.6604775402	 0.089745
H	 0.1227952176	-2.4220236242	-2.3748443662	 0.090339
