13
gdb 14586	19.05494	0.58415	0.57076	1.8795	70.7	-0.2784	-0.0746	0.2038	1760.8843	0.093576	-361.454917	-361.446212	-361.445268	-361.490074	27.927	
O	-0.0948334574	-0.056249743	 0.0026827055	-0.220581
C	-0.0211619483	 1.1501090928	 0.0073378641	 0.020617
C	 1.2178764652	 1.888886156	 0.0013315215	 0.075675
C	 2.2457220675	 2.5226128589	-0.0056417837	 0.060745
C	 3.4775066759	 3.2941273624	-0.0132569148	-0.358054
C	 3.2114624428	 4.8220496901	-0.0027062772	-0.328536
C	 4.4547764204	 5.5885897346	-0.0107552033	 0.258049
N	 5.4494814651	 6.1759921993	-0.0170687789	-0.292104
H	-0.9285484514	 1.7871083128	 0.0166089383	 0.103821
H	 4.0873727963	 3.0224938132	 0.8561058179	 0.170192
H	 4.0706286757	 3.0317587083	-0.8969332774	 0.170183
H	 2.6131262054	 5.1013291319	-0.8755460099	 0.169988
H	 2.6299955329	 5.0921153228	 0.884337338	 0.170005
