18
gdb 3019	4.08934	2.01464	1.57298	2.5209	64.15	-0.2359	0.0788	0.3146	847.01	0.159514	-326.940196	-326.932053	-326.931108	-326.97263	28.947	
C	 0.0564464657	 1.5138986421	-0.3502814393	-0.236556
O	-0.2439892994	 0.1748141107	-0.6703890443	-0.250783
C	 0.8123383054	-0.5483322841	-1.2886187542	 0.103966
C	 1.8878493553	-0.9769517736	-0.2862149793	-0.397048
C	 0.1958318457	-1.7510745224	-1.9832692492	 0.010479
C	-0.9726329939	-2.4527245256	-1.4017052985	-0.233313
N	-1.1152098138	-1.6434164961	-2.6304623879	-0.33359
H	 0.8200098313	 1.5973111316	 0.4357876779	 0.111624
H	 0.4053428757	 2.0724984845	-1.2324249903	 0.108587
H	-0.8664928523	 1.9714408656	 0.0144890885	 0.129894
H	 1.2746012197	 0.0940935059	-2.0588911508	 0.069595
H	 1.4439520659	-1.5907012024	 0.5028765734	 0.12819
H	 2.6610972508	-1.5660544952	-0.7897279361	 0.120005
H	 2.3782637169	-0.115006451	 0.1751647236	 0.115268
H	 0.9221516844	-2.3317688335	-2.5489790247	 0.08738
H	-1.0881779171	-3.5239448406	-1.5402240213	 0.110705
H	-1.388938445	-2.0553150222	-0.4815281328	 0.122006
H	-1.5137387153	-0.7455174436	-2.3603446548	 0.233591
