22
gdb 7771	3.1989	1.61764	1.15574	0.2287	83.97	-0.2349	0.0303	0.2652	1115.5621	0.2015	-313.101561	-313.0932	-313.092256	-313.133821	32.799	
C	-0.0131160417	 1.5701285832	 0.0007275717	-0.404304
C	 0.0227146426	 0.039878005	-0.0034038594	 0.024525
C	 0.7088494171	-0.5092678246	-1.2667622252	-0.237818
C	 1.0041688319	-1.9830018788	-1.1691266513	-0.083422
C	 0.9519013911	-2.6710744468	-0.0295800915	-0.030176
C	 0.6309935484	-2.0595894705	 1.3140906614	-0.023759
C	 1.5393448439	-2.6279029159	 2.4152796381	-0.40012
C	 0.7111242412	-0.5254725908	 1.2474153529	-0.185014
H	 1.0010471892	 1.9859726146	 0.0357577065	 0.110915
H	-0.50015747	 1.960196393	-0.8997570288	 0.108411
H	-0.5593333765	 1.9529421025	 0.8694345814	 0.108523
H	-1.0138852635	-0.3276815996	-0.0058780845	 0.071309
H	 0.0829275214	-0.313307309	-2.1476605403	 0.097912
H	 1.6444483373	 0.0430620423	-1.4496466597	 0.100891
H	 1.266476591	-2.4934903933	-2.0934455125	 0.080161
H	 1.1583136883	-3.7401171119	-0.0374773599	 0.07602
H	-0.4038230901	-2.3366442487	 1.5738283558	 0.077947
H	 2.5914880483	-2.4016099905	 2.2095539424	 0.115793
H	 1.2867967323	-2.201078267	 3.3917654813	 0.109157
H	 1.4404423501	-3.7162108932	 2.4888588037	 0.109304
H	 1.7684741194	-0.22274265	 1.2394303748	 0.0891
H	 0.2705721684	-0.09108515	 2.1533928832	 0.084646
