14
gdb 85112	2.05837	1.62385	1.24525	3.4951	62.83	-0.2907	-0.041	0.2496	1042.8201	0.098811	-473.849613	-473.840824	-473.83988	-473.883255	30.933	
C	-0.2827272083	 1.4887115249	 0.0721551531	-0.406518
C	 0.1023766538	 0.0333550664	-0.0161515662	 0.115417
O	 1.3556190141	-0.1734957875	-0.7724733119	-0.247094
C	 1.9965632686	-0.7327487039	 0.285301347	 0.427397
O	 3.1197278171	-1.0989341583	 0.3842927829	-0.313842
C	 0.7628797892	-0.6198896214	 1.2343365993	 0.055151
O	 0.9264900908	 0.2657735334	 2.3058131095	-0.437262
C	 0.1897747413	-1.904493034	 1.6464057678	 0.240149
N	-0.2496042737	-2.9200051478	 1.9795464261	-0.316853
H	 0.5110506734	 2.0779825796	 0.5333783668	 0.149743
H	-0.4831280566	 1.8749023279	-0.930789386	 0.144496
H	-1.1901665298	 1.5956325068	 0.6734844054	 0.146126
H	-0.6809245492	-0.5839333499	-0.4596771566	 0.129144
H	 1.6132260194	-0.0831416861	 2.8878761628	 0.313946
