21
gdb 72533	2.56673	1.64571	1.6221	1.412	80.96	-0.2412	0.0221	0.2633	988.1151	0.1858	-387.116528	-387.108955	-387.108011	-387.147842	31.947	
O	-0.0771474452	 1.4281849368	-0.0083556829	-0.509411
C	 0.0225876559	 0.0134680962	-0.0219680398	 0.368693
C	 0.7616796585	-0.5315368923	 1.2301992229	-0.241112
C	 0.8180092238	-2.082025048	 1.1676952192	-0.20732
C	 0.1204514459	-2.5647578829	-0.1332156963	-0.056308
C	-1.3618225125	-2.1022755266	-0.0725297158	-0.209782
C	-1.4162059444	-0.5526106155	 0.0036737676	-0.206643
C	 0.774745741	-1.8698544466	-1.303815726	-0.082844
C	 0.7186741621	-0.5378822428	-1.2462195656	-0.122167
H	 0.8132146594	 1.7860174664	 0.0752269333	 0.270695
H	 1.7707857546	-0.105182022	 1.2618556505	 0.082716
H	 0.2341778908	-0.1801965855	 2.1229776319	 0.09932
H	 1.8526818377	-2.4353346387	 1.1851094935	 0.09677
H	 0.3144939959	-2.5241295163	 2.0343235961	 0.094217
H	 0.1770117866	-3.6533161515	-0.2138006764	 0.057909
H	-1.8951304349	-2.4657927365	-0.9552061287	 0.097952
H	-1.8459231523	-2.5525439945	 0.8009478924	 0.092357
H	-1.9054008165	-0.2106057038	 0.9214046108	 0.097755
H	-1.9714951015	-0.1271568204	-0.8358898055	 0.104281
H	 1.2341662015	-2.4248064685	-2.114998883	 0.08767
H	 1.1107797837	 0.140145433	-1.9975253381	 0.085251
