15
gdb 4761	4.54135	1.55405	1.17009	3.9597	66.96	-0.1716	0.0535	0.2251	991.8745	0.119046	-395.99154	-395.983339	-395.982395	-396.024428	29.344	
C	-0.0700360559	 1.4283166931	 0.0379932474	-0.319062
N	-0.0118061124	-0.0214103549	 0.0513848479	-0.377428
C	-1.0921713463	-0.6707957143	 0.0955298063	 0.502787
N	-1.2448934127	-2.0431926873	 0.1253914238	-0.367143
C	-2.6180228934	-2.3483377025	-0.039061951	-0.203562
C	-3.2746924707	-1.1822701203	 0.0130610322	 0.351674
N	-4.6081821853	-0.8145455819	 0.1060932541	-0.590923
O	-2.3796509332	-0.1370044874	 0.1188253409	-0.236435
H	 0.8541618022	 1.8185426892	-0.3987281174	 0.113775
H	-0.9174612195	 1.8277701797	-0.5365895596	 0.105988
H	-0.1455548055	 1.8363131023	 1.0561045917	 0.114411
H	-0.4992649833	-2.619113004	-0.2270037346	 0.264921
H	-2.9837536833	-3.3588756281	-0.0743508691	 0.128666
H	-5.2333732	-1.580946944	-0.1056035254	 0.254753
H	-4.8271350007	-0.0133121595	-0.4759902171	 0.257579
