17
gdb 110919	2.42623	1.5124	1.19757	3.4508	68.72	-0.2417	-0.0214	0.2203	1081.6613	0.133401	-458.901177	-458.89252	-458.891575	-458.935313	30.825	
C	 0.240349995	 1.0945178645	 0.1129918209	-0.240405
O	-0.4581973608	-0.0063493788	-0.4500219127	-0.235308
C	 0.2654910402	-0.6724034672	-1.4266039575	 0.104513
C	 1.4460435495	-1.5401911447	-1.0972641568	 0.036429
O	 1.3329324544	-2.0781419964	 0.2200990905	-0.296291
C	 0.1151278124	-2.772595651	-0.1495292027	 0.039381
C	-1.0624500376	-2.482667853	 0.7645994308	 0.146021
O	-2.1469418277	-2.9758464305	 0.5960576781	-0.253734
C	 0.1248376315	-2.1586903541	-1.5563445896	-0.211417
H	 1.167217217	 0.7668529222	 0.5996436365	 0.128771
H	 0.4815723961	 1.8475691696	-0.6505829222	 0.11003
H	-0.4222722832	 1.5432045603	 0.8557420997	 0.134745
H	 0.3530004955	-0.1497236713	-2.3819760815	 0.099414
H	 2.4341071411	-1.4864904377	-1.5398569991	 0.11101
H	 0.2909511435	-3.8548759617	-0.1763704038	 0.117552
H	-0.830290123	-1.8027924205	 1.6100666153	 0.093989
H	-0.1707678037	-2.6688161497	-2.4619891759	 0.1153
