19
gdb 110875	2.47685	1.53008	1.25374	2.3805	70.46	-0.2465	0.0775	0.324	1080.882	0.1592	-460.137178	-460.128758	-460.127814	-460.170457	32.061	
C	 0.374071191	 1.4989154276	 0.2433483095	-0.41421
C	 0.2123924561	-0.0006553391	 0.2098480579	 0.226021
O	 0.6825103112	-0.5381934523	-1.0219418807	-0.262254
C	 1.0957592229	-1.8546826411	-0.7373333015	 0.026193
C	 2.4991423678	-2.0111848296	-0.1660051963	-0.099427
C	 3.5094425152	-0.8742873065	-0.2030448747	-0.096026
O	 3.957501911	-0.4923153569	 1.0868835863	-0.428917
C	 1.2914323431	-1.9184244155	 0.7426084031	 0.024423
O	 1.0008402513	-0.6201222317	 1.2284154379	-0.279176
H	 1.4260253957	 1.768152895	 0.1222419882	 0.140126
H	-0.2064903873	 1.9507199016	-0.5645958165	 0.136393
H	 0.0111133266	 1.8894413025	 1.197353911	 0.133824
H	-0.8406199807	-0.2995652844	 0.3521476517	 0.077573
H	 0.6267333974	-2.6257460228	-1.3385125809	 0.107306
H	 2.9057255396	-3.016201256	-0.2470880922	 0.096483
H	 4.3984016422	-1.1969822389	-0.7529330458	 0.108392
H	 3.0793623385	-0.0252453949	-0.7492107269	 0.104458
H	 3.1672437628	-0.2129199376	 1.5649825979	 0.29015
H	 0.9760870556	-2.7318228893	 1.3862523819	 0.108669
