24
gdb 118492	1.95439	1.12309	0.78981	2.4822	86.34	-0.2439	0.0825	0.3264	1556.3749	0.216456	-405.517811	-405.507293	-405.506348	-405.553786	38.651	
C	-0.0024679029	 1.518739248	-0.0748253074	-0.379764
C	-0.0429139554	-0.0101296973	 0.0140651709	-0.180531
C	 0.7479908456	-0.5427531095	 1.2135024912	-0.149744
C	 0.8666992591	-2.0698078999	 1.3262873976	-0.006041
C	 1.6746722243	-2.4629488697	 2.5735281458	-0.05507
O	 1.0260717027	-2.0618938097	 3.7649989791	-0.424418
N	-0.4525195657	-2.6994740011	 1.4745371377	-0.077952
C	-1.1932379587	-3.0544817243	 0.2698118524	-0.219783
C	-0.5532466485	-4.1093951746	 1.0982827493	-0.228323
H	 1.0257050062	 1.8829688783	-0.1795007132	 0.112957
H	-0.57489808	 1.8846374446	-0.9329890803	 0.109054
H	-0.4233955035	 1.9772227037	 0.8267970738	 0.117151
H	-1.0853090414	-0.3395443537	 0.0809352923	 0.107826
H	 0.3588501406	-0.4386442361	-0.9145631263	 0.086182
H	 1.7697260109	-0.141702395	 1.1692824723	 0.090093
H	 0.3123557696	-0.1647873993	 2.1447267846	 0.110904
H	 1.3932281705	-2.4615291162	 0.4347278349	 0.050533
H	 1.8481244006	-3.5518389092	 2.5626099986	 0.079431
H	 2.6542414434	-1.9733671721	 2.557046293	 0.101428
H	 0.0962466985	-2.2938707988	 3.6392728281	 0.287441
H	-2.2672152717	-2.8945454465	 0.3068415113	 0.119221
H	-0.7342920839	-2.8367421837	-0.6922254268	 0.116595
H	 0.3332569889	-4.5915489465	 0.6893419355	 0.114176
H	-1.1486324691	-4.7362811112	 1.7554881656	 0.118635
