21
gdb 119996	3.21381	0.81716	0.79208	2.5673	76.17	-0.2472	0.0549	0.3022	1564.285	0.181037	-461.318946	-461.308712	-461.307768	-461.354828	36.781	
C	-0.395059851	 1.3244957192	-0.0171085862	-0.225269
O	-0.2103144283	-0.0685181329	-0.0628667927	-0.233671
C	 0.7298922414	-0.4600644604	-1.0441263309	-0.076821
C	 0.8014497434	-1.9660360453	-1.0251962103	-0.066874
C	 0.0741872102	-2.7907801941	-2.0537026267	 0.10026
O	-0.5834956359	-2.1221074939	-3.0864427676	-0.427121
C	 1.5887997368	-2.7666613935	-2.0541992378	-0.135365
C	 2.2757218367	-2.1260238851	-3.2437938539	-0.109135
O	 1.8411599957	-2.6995612376	-4.488057177	-0.417959
H	 0.5404643515	 1.8553018571	 0.2251984964	 0.098107
H	-0.7729256309	 1.719951708	-0.9733835654	 0.105822
H	-1.1295552161	 1.532339342	 0.7649730163	 0.124892
H	 0.4153979884	-0.1027047941	-2.0351820552	 0.104519
H	 1.716030937	-0.0157726882	-0.8191584585	 0.077134
H	 0.8199244082	-2.3675306663	-0.0163499738	 0.09665
H	-0.4244411734	-3.6979666949	-1.7141328552	 0.085759
H	-0.121866073	-2.357632385	-3.904381752	 0.295572
H	 2.0867903272	-3.6558114855	-1.6745136959	 0.084559
H	 2.0338162998	-1.0658521282	-3.3304386419	 0.127658
H	 3.3670650147	-2.2047369865	-3.1483534347	 0.1034
H	 2.0315299674	-3.6432803949	-4.456709417	 0.287883
