19
gdb 131809	5.45892	0.65265	0.62628	1.3794	78.18	-0.24	0.0276	0.2676	1772.8707	0.160688	-419.225721	-419.216567	-419.215623	-419.261283	32.709	
O	 0.0153394879	 1.3569273399	-0.4358468975	-0.4226
C	 0.0100673779	 0.0318028277	 0.0744529412	-0.072145
C	-1.3778355234	-0.5531934122	-0.1480657794	-0.159944
C	-1.492486703	-2.0044924172	 0.3487800982	-0.314682
C	-2.8541319325	-2.5938837242	 0.1324598962	 0.347538
N	-3.6672999426	-2.8158759296	 1.164957447	-0.290751
N	-4.7898702831	-3.3192738083	 0.6139215103	-0.181388
C	-4.7178516771	-3.4267171999	-0.7340317358	-0.017626
C	-3.4707272976	-2.9634592129	-1.0895815183	-0.277599
H	 0.8850800196	 1.7355098479	-0.2787982302	 0.284016
H	 0.7630238075	-0.5937249138	-0.4341698516	 0.080531
H	 0.2513151417	 0.0172308265	 1.1502091055	 0.084948
H	-2.1146920394	 0.0736319862	 0.3660654897	 0.114461
H	-1.6118689303	-0.4997580409	-1.2176494768	 0.105814
H	-0.7404004491	-2.6211490805	-0.1608198456	 0.101657
H	-1.2700001248	-2.0501508989	 1.4200405289	 0.115277
H	-5.5555006524	-3.5725117462	 1.2142314589	 0.273006
H	-5.5367196689	-3.8173567242	-1.3175084341	 0.129912
H	-3.0607851604	-2.9018111394	-2.0848510465	 0.099576
