20
gdb 115535	2.59178	1.06387	1.0405	4.5313	79.41	-0.2737	0.0104	0.2841	1314.3321	0.169253	-403.151831	-403.141947	-403.141003	-403.187559	35.433	
C	 0.0468849011	 1.6381340993	-0.0382932911	-0.387602
C	-0.1897598291	 0.1306843697	-0.1891675069	-0.207694
C	 0.7429721316	-0.4894910435	-1.2230895204	-0.071724
C	 2.2168069884	-0.7007706312	-0.8132913704	-0.08567
O	 2.101872503	-2.1365254161	-0.9453038085	-0.300493
C	 0.7361937248	-2.0499855517	-1.4080002806	 0.238926
C	-0.2013150084	-2.9115698039	-0.5703386048	-0.43689
C	 0.6448629784	-2.4415458372	-2.8283698193	 0.262264
N	 0.561304949	-2.729517831	-3.9447225207	-0.340146
H	 1.0757734365	 1.8516924253	 0.2712077215	 0.122706
H	-0.1316029642	 2.1631049344	-0.9827449386	 0.124321
H	-0.6207628949	 2.0661927405	 0.7147618727	 0.122368
H	-0.0499839251	-0.3580987325	 0.7821822426	 0.106173
H	-1.2311230261	-0.0489740514	-0.4828668083	 0.109723
H	 0.6329055851	 0.0322175281	-2.1765147884	 0.101723
H	 2.967262158	-0.2891428079	-1.4968039352	 0.117491
H	 2.4689981414	-0.4132833227	 0.214500784	 0.10822
H	-0.1311297693	-2.6305677888	 0.4817835688	 0.130927
H	-1.236958274	-2.8046981068	-0.9054783892	 0.137519
H	 0.0866712639	-3.9616121824	-0.6687409873	 0.147858
