16
gdb 4347	3.61887	1.92683	1.2772	0.7892	74.63	-0.2389	-0.0432	0.1957	949.4839	0.131177	-342.850759	-342.842997	-342.842053	-342.88381	27.475	
C	 0.0420581185	 1.4953601749	 0.0408137327	-0.472054
C	 0.0444516243	-0.0082108708	-0.0059781048	 0.308389
C	 0.1198091189	-0.711457856	-1.2124235656	-0.060488
N	 0.1226255393	-2.0424983931	-1.2643038594	-0.234896
C	 0.0492148111	-2.6784973251	-0.0962918745	-0.060451
C	-0.0270193286	-1.9993189901	 1.1239098388	 0.308382
C	-0.1095244714	-2.7281226428	 2.4372962408	-0.472064
N	-0.0287150859	-0.6625115298	 1.1580632167	-0.349394
H	 0.1050869341	 1.928381628	-0.9604822418	 0.123753
H	-0.8697609081	 1.8611356604	 0.5234919775	 0.142805
H	 0.8865530496	 1.8604992208	 0.6338350155	 0.142806
H	 0.1793943164	-0.1811033095	-2.1598749367	 0.106923
H	 0.050761535	-3.765524281	-0.1258776095	 0.106919
H	 0.7320743523	-2.4525841696	 3.0807014808	 0.142807
H	-1.0242598813	-2.4513799867	 2.971014071	 0.142807
H	-0.1014610242	-3.8117082095	 2.2964235585	 0.123756
