21
gdb 84145	2.55596	1.21255	0.9338	3.0168	85.59	-0.2314	-0.0178	0.2136	1328.266	0.181115	-387.123875	-387.11429	-387.113346	-387.158665	35.3	
C	-0.6881298057	 1.3530527935	 0.1036515584	-0.407009
C	-0.0438007391	-0.0349646351	-0.0175091572	-0.032902
C	 1.0097177375	-0.1641017303	-1.0945985796	-0.165354
C	 2.0616129762	-0.8948214758	-0.722308972	 0.325184
C	 3.2531578896	-1.2695401082	-1.5451287325	-0.492987
C	 1.8982734903	-1.3856315173	 0.7023518133	-0.334507
C	 0.7152478942	-0.5467997142	 1.2594646294	-0.09513
C	 1.263251786	 0.6029467905	 2.0787857228	 0.165507
O	 0.8527592046	 0.9355156992	 3.1612749372	-0.260685
H	 0.0588750471	 2.1402533059	 0.2471172908	 0.121305
H	-1.2485091603	 1.5923483433	-0.8057951149	 0.113179
H	-1.3838476355	 1.3934102959	 0.9474316758	 0.129677
H	-0.8555673775	-0.7483102862	-0.2269669445	 0.088549
H	 0.8741981052	 0.2649739665	-2.0828165144	 0.086332
H	 3.2005141006	-0.8438651027	-2.5506425035	 0.125308
H	 4.1834468439	-0.9249984939	-1.0756428773	 0.126925
H	 3.3408474296	-2.3595133357	-1.6410413279	 0.127171
H	 1.6685954834	-2.4595616547	 0.7247650313	 0.113339
H	 2.8152549674	-1.262854206	 1.2956082841	 0.104348
H	 0.0524052413	-1.1160566588	 1.9148934576	 0.087212
H	 2.1176230514	 1.139782074	 1.6025533032	 0.074538
