19
gdb 35125	5.20718	0.84227	0.82075	1.4298	81.77	-0.256	0.0514	0.3074	1428.9828	0.158358	-385.820882	-385.812167	-385.811223	-385.8548	32.801	
C	-0.3062695398	-1.1691212174	-0.1242378925	-0.489567
C	-0.0655188335	 0.0092152581	-0.0929103169	 0.340842
C	 0.2343705945	 1.4278978542	-0.0381851917	-0.182198
C	-0.1144005276	 2.1045087786	 1.3310984084	-0.244535
C	 1.3821018178	 1.9835312622	 1.741618857	 0.010296
C	 1.7396162972	 1.7551944138	 0.2492239558	-0.252197
C	 1.9970478301	 3.1477180261	 2.4675969639	 0.064762
C	 3.3345336987	 3.6677735176	 2.1584400193	-0.182316
O	 2.1612600435	 4.3599294072	 1.722661726	-0.234515
H	-0.5248984888	-2.2072989597	-0.1627112199	 0.194966
H	-0.1835514623	 1.9275958749	-0.916512031	 0.103397
H	-0.401864637	 3.1486685903	 1.1840524606	 0.118378
H	-0.8575578105	 1.6031123141	 1.9524370367	 0.110905
H	 1.5439201941	 1.0726516969	 2.3276348645	 0.086733
H	 2.4657503001	 0.9773904136	 0.0097991673	 0.108691
H	 2.0252417348	 2.6948201711	-0.2293101059	 0.122175
H	 1.6195122721	 3.3092857763	 3.4797930304	 0.091669
H	 3.9146614225	 4.1708303127	 2.9306105133	 0.116576
H	 3.9203528043	 3.2037539193	 1.3661859145	 0.115939
