13
gdb 132465	3.18079	1.3995	0.97189	3.4199	68.13	-0.2047	-0.0392	0.1656	1085.1485	0.088586	-497.878489	-497.871128	-497.870184	-497.910355	28.114	
O	 0.0783697095	 1.3210287784	 0.0075809106	-0.40037
C	-0.0487418095	-0.0111308822	 0.0011265418	 0.486642
C	-1.2251313212	-0.6687235253	 0.0040944251	-0.308987
C	-1.175623117	-2.1011922433	-0.0038865107	-0.188141
C	 0.0081705638	-2.7464237333	-0.0138983402	 0.181818
F	 0.0880882808	-4.0737275993	-0.0214864372	-0.056379
C	 1.2756097808	-2.043372244	-0.017107094	 0.301743
N	 2.4161085611	-2.590441988	-0.0263697811	-0.526046
O	 1.1447411042	-0.6403731475	-0.008850557	-0.283754
H	 1.0199978996	 1.5350957775	 0.0035478408	 0.313579
H	-2.1542966378	-0.1198840429	 0.0121828457	 0.124785
H	-2.0917236806	-2.6800326046	-0.0019408997	 0.129399
H	 3.1621122462	-1.8962601853	-0.0267627841	 0.22571
