19
gdb 92058	2.86409	1.53221	1.08764	3.7236	76.41	-0.2172	0.0332	0.2504	1122.4644	0.161313	-419.227032	-419.218873	-419.217929	-419.259632	32.028	
C	-0.0143842357	 1.541986274	-0.0275173722	-0.400321
C	 0.0077880193	 0.018909579	 0.0077707274	-0.081493
N	 0.738257601	-0.5188184357	-1.1469620513	-0.313411
C	 0.7035117894	-1.954020066	-1.2211212099	-0.003552
C	 2.0048731842	-2.7068916071	-1.0417202509	-0.307068
C	 0.9929501538	-2.6332306872	 0.0854291084	 0.014568
N	 1.1916951121	-1.7590332079	 1.1968036508	-0.323989
C	 0.6966874894	-0.4859189871	 1.2878343676	 0.445504
O	 0.8067931064	 0.1835852967	 2.2966478649	-0.381864
H	 1.0026308551	 1.9343368759	-0.1109071413	 0.131221
H	-0.5989310189	 1.8979800802	-0.882535028	 0.100369
H	-0.4572513236	 1.9301448006	 0.8903035174	 0.144049
H	-1.0345324767	-0.3529764044	 0.0489855514	 0.078807
H	 0.4239748908	-0.0911881266	-2.0090697435	 0.224257
H	-0.0646854774	-2.4121996394	-1.8443732448	 0.085787
H	 2.132668709	-3.6605563255	-1.5419720897	 0.111712
H	 2.8929596358	-2.0944045562	-0.9444480205	 0.126837
H	 0.437699824	-3.5397502392	 0.3130974756	 0.102348
H	 1.6933245919	-2.0864573941	 2.0099948988	 0.246239
