21
gdb 110148	1.66079	1.6597	1.03732	1.174	77.11	-0.2333	0.0657	0.299	1281.8225	0.17913	-461.293494	-461.282862	-461.281917	-461.329337	36.919	
C	 0.0332615014	 0.941262394	 0.2401556182	-0.233152
O	-0.4462380593	-0.1702737029	-0.5012494391	-0.2301
C	 0.4577896351	-0.6337375169	-1.4403793324	 0.022043
C	 1.6331820012	-1.4834354752	-0.9893735479	 0.022432
O	 1.7814164015	-1.6513774167	 0.3758877946	-0.230227
C	 2.3048167587	-2.921751905	 0.7327769976	-0.233182
C	 0.455701729	-2.1306841944	-1.6975628845	 0.022356
O	-0.348000725	-2.9522939962	-0.9274878275	-0.23021
C	-1.7155278336	-2.9171992541	-1.3067093735	-0.233074
H	 0.9309077339	 0.6772576607	 0.8093514443	 0.135399
H	 0.2587011176	 1.7936276412	-0.41854387	 0.099826
H	-0.7653719793	 1.2290990885	 0.9278608618	 0.124269
H	 0.6243014948	 0.0329720577	-2.2899749829	 0.081543
H	 2.5680473419	-1.4059507578	-1.5497559558	 0.081537
H	 3.3005549201	-3.0817641419	 0.2921720468	 0.099819
H	 2.3958734766	-2.9301183875	 1.821465703	 0.124277
H	 1.6349565421	-3.7273736839	 0.4138725571	 0.13541
H	 0.5943997581	-2.4568721843	-2.7311949402	 0.081548
H	-2.2424555288	-3.6125899795	-0.649158894	 0.124271
H	-2.1317652451	-1.9112853434	-1.1869570102	 0.135384
H	-1.8495933809	-3.2437785423	-2.3491130956	 0.099832
