13
gdb 129036	5.10733	1.12937	0.92486	4.0817	76.93	-0.2523	-0.0895	0.1628	1155.969	0.089684	-448.908481	-448.901207	-448.900262	-448.940787	26.557	
N	-0.0482746334	 1.2968612019	 0.3416304775	-0.494161
C	-0.0732366702	 0.0598655001	 0.0311830603	 0.388712
C	-1.2915192517	-0.7197596926	-0.0513772691	-0.209379
C	-1.2000710881	-2.0124223908	-0.3869734772	 0.070421
N	 0.0375604395	-2.5760672291	-0.6460295967	-0.105108
C	 0.1709782599	-3.9353091541	-1.0024588006	 0.190356
O	 1.202578648	-4.4877758026	-1.2394909974	-0.246413
N	 1.2159132766	-1.838083572	-0.5701790813	-0.014918
N	 1.158283726	-0.6313052251	-0.2594862767	-0.220123
H	 0.9214821596	 1.6235892072	 0.3330198964	 0.235045
H	-2.241022157	-0.2463053573	 0.1577486691	 0.14183
H	-2.046579138	-2.6838046681	-0.4771346909	 0.156114
H	-0.8233003813	-4.4195474375	-1.0314850834	 0.107624
