23
gdb 120742	3.01592	0.86513	0.78566	2.093	83.14	-0.2383	0.078	0.3163	1593.6379	0.202989	-425.403405	-425.392601	-425.391657	-425.44009	39.349	
C	 0.1036964953	 0.8173043612	 0.4570292672	-0.383182
C	 0.0399394182	-0.1146580037	-0.7506582099	-0.045335
O	-1.2249322286	-0.7349619991	-0.9416624983	-0.248612
C	-1.5096812169	-1.7692980644	-0.0505152173	 0.126418
C	-2.3277077988	-1.514167845	 1.1935573845	-0.331993
C	-2.9354907817	-2.2326963176	 0.0071014081	-0.074323
C	-3.9999400606	-1.5450938722	-0.8282335072	 0.133484
C	-4.0744536084	-2.129729222	-2.2392610905	-0.403523
O	-5.2710415388	-1.5711233158	-0.1799448033	-0.435016
H	 1.0758278044	 1.3208842189	 0.4860709443	 0.113717
H	-0.6774422182	 1.5807983817	 0.3940254993	 0.124679
H	-0.0228812071	 0.2707909372	 1.3950522696	 0.129747
H	 0.2211373756	 0.449517339	-1.6711800244	 0.107054
H	 0.823505823	-0.8857811538	-0.6773532442	 0.088333
H	-0.7247973928	-2.5259766985	 0.0046071001	 0.081218
H	-2.1013827839	-2.0729350504	 2.095628495	 0.106129
H	-2.6661104999	-0.4974521205	 1.3603901827	 0.124072
H	-3.0772657353	-3.3084780834	 0.1028071386	 0.073514
H	-3.7495940411	-0.4830168804	-0.900885154	 0.095704
H	-4.2860226604	-3.2064428725	-2.2069354635	 0.0972
H	-4.8700041788	-1.6428733055	-2.8100596429	 0.118124
H	-3.1233019569	-1.9866530617	-2.7603581349	 0.131254
H	-5.5410846382	-2.4929438917	-0.1044730792	 0.271339
