14
gdb 11167	3.97153	1.61513	1.41317	3.3138	64.61	-0.2366	0.0221	0.2587	891.3132	0.108362	-378.702343	-378.695205	-378.69426	-378.733917	26.648	
N	-0.2890742311	 1.0759330818	 0.4775699931	-0.588546
C	-0.0933919004	-0.105228455	 0.0765930243	 0.464868
N	-0.9709921873	-0.8372423814	-0.7150118239	-0.318627
C	-0.6423116271	-2.2575697362	-0.6296101912	-0.18225
C	 0.8762941439	-2.1299437745	-0.3460620504	-0.091189
O	 1.0117088745	-0.875382631	 0.3233591968	-0.240214
C	-1.3762576971	-2.9783546744	 0.413820376	 0.342908
C	-1.9953655401	-3.5603172868	 1.263711619	-0.469373
H	 0.5172475902	 1.4126644383	 0.9985142042	 0.225938
H	-1.9386578099	-0.5585312076	-0.6515118216	 0.264515
H	-0.8076422681	-2.7498204423	-1.5938686302	 0.122745
H	 1.2587222472	-2.9205447461	 0.2997094857	 0.136963
H	 1.4396895082	-2.1075162544	-1.2855853603	 0.122322
H	-2.5398496931	-4.0727006305	 2.0185044385	 0.209939
