23
gdb 87987	2.47811	1.26435	1.19676	1.3396	86.16	-0.243	0.0742	0.3171	1232.2111	0.203798	-388.276508	-388.266579	-388.265635	-388.310583	38.461	
C	-0.0126936952	 1.3560958084	-0.3418893939	-0.408918
C	 0.2573356242	-0.1163259165	-0.1224789338	-0.073519
C	 1.6604999284	-0.620580614	 0.1296806197	-0.345424
C	 0.6417408255	-0.6363891927	 1.2329808881	 0.350694
C	 0.772641194	 0.0935716454	 2.576362726	-0.316082
C	 0.6771721223	-1.2920643615	 3.2793456507	-0.275638
C	 0.1630603666	-1.9155410247	 1.9410008325	 0.337831
C	-1.3495361861	-2.1178587068	 1.9029694386	-0.448464
O	 0.8398065206	-3.0704700773	 1.4792650676	-0.475757
H	 0.6357472358	 1.9757044773	 0.2863274315	 0.114551
H	 0.1671533384	 1.6412389188	-1.3845271977	 0.115765
H	-1.0502869784	 1.6151491637	-0.1013479076	 0.112317
H	-0.3708602691	-0.7810861306	-0.7126630837	 0.078624
H	 1.9524367988	-1.574621429	-0.2945127872	 0.124977
H	 2.459383756	 0.1132301546	 0.1956112722	 0.100168
H	 1.6915409515	 0.6606017167	 2.7425817069	 0.099791
H	-0.0797733569	 0.743022061	 2.8011255116	 0.098317
H	 1.6627873269	-1.6950073638	 3.5216275139	 0.107746
H	 0.0252529454	-1.3716005723	 4.1536984642	 0.086031
H	-1.8797829765	-1.2163324581	 2.2246008865	 0.120313
H	-1.6797371612	-2.3675799639	 0.8898847612	 0.121382
H	-1.6483432017	-2.9332045644	 2.5748679113	 0.102169
H	 0.4179683908	-3.8434794004	 1.8688794215	 0.273129
