15
gdb 2783	4.29545	2.36511	1.63571	2.7918	58.7	-0.232	0.0234	0.2554	758.7174	0.125952	-341.814212	-341.807175	-341.806231	-341.845411	25.105	
C	-0.2177758822	 1.4291371154	-0.1611670316	-0.326004
N	 0.1848626502	 0.0399158543	 0.0625514061	-0.29386
C	 0.7964491106	-0.5671772253	-1.1027478647	-0.105876
C	 1.047673468	-2.0861169129	-0.9958256804	-0.104847
O	 0.0999626564	-2.3301426046	-2.0820642576	-0.25029
C	-0.1847854205	-0.9865612307	-2.1905157791	 0.470066
N	-0.9852110091	-0.3771500885	-2.9381486737	-0.545029
H	 0.6142672034	 2.0910532753	-0.4591031179	 0.094671
H	-0.9689105947	 1.4585958452	-0.9540142538	 0.165727
H	-0.663428894	 1.8248442071	 0.7555048068	 0.117801
H	 0.8445579154	-0.0009125286	 0.8336470852	 0.220465
H	 1.6528407346	-0.0053147573	-1.5139850873	 0.084583
H	 2.045475503	-2.4432534777	-1.2599473091	 0.119004
H	 0.6981480803	-2.5369318899	-0.0643324593	 0.124885
H	-1.5022660214	-1.0231843517	-3.5375949936	 0.228703
