21
gdb 80977	2.27851	1.71578	1.58049	1.5629	82.47	-0.2361	0.0106	0.2467	1016.6533	0.184	-387.096485	-387.088463	-387.087519	-387.128173	33.248	
C	 0.0080118415	 1.5335680135	 0.0607881387	-0.503009
C	-0.0100256817	 0.018533124	-0.0187382656	 0.25514
C	 0.2992014776	-0.7074399647	-1.3679202561	-0.258579
C	-0.6435922478	-1.8459391288	-0.8861637981	-0.086424
C	 0.0935473844	-2.7943876976	 0.0743146556	-0.261022
C	 0.8670590447	-1.9967621409	 1.0997415996	-0.1024
C	 0.8194413005	-0.6622642635	 1.0572870408	-0.100028
C	-1.3845916718	-0.7371790356	-0.0748358151	 0.141194
O	-2.0822870795	-1.0400334065	 1.0989924109	-0.444769
H	 1.028333222	 1.9268244328	-0.0188372467	 0.114084
H	-0.5864223641	 1.9770978865	-0.7444344918	 0.111693
H	-0.4082761082	 1.8796720678	 1.013966895	 0.121478
H	-0.1206540568	-0.1687504629	-2.2225481742	 0.094522
H	 1.3438087652	-0.9581166635	-1.5658417656	 0.095481
H	-1.2143991924	-2.3980526025	-1.6361369943	 0.061454
H	-0.6284916924	-3.455071348	 0.5743625551	 0.112966
H	 0.7701821037	-3.4573244061	-0.4817903348	 0.109065
H	 1.4521242758	-2.5267126155	 1.8463899679	 0.091622
H	 1.3538358046	-0.0459290662	 1.7755519947	 0.087038
H	-2.083759672	-0.196216785	-0.7196497509	 0.082287
H	-1.4289988134	-1.3345629673	 1.746902695	 0.278207
