19
gdb 126241	2.32476	1.31484	0.89973	3.9427	80.07	-0.1998	-0.0014	0.1984	1334.5335	0.159244	-419.198268	-419.188866	-419.187922	-419.233655	33.509	
C	 0.09274278	 1.6074415941	 0.2539189844	-0.37157
C	-0.0038785431	 0.0993692735	-0.0422954898	-0.304491
C	-1.4028345804	-0.402304829	-0.143244181	 0.357195
C	-2.1813403967	-0.8113066487	-1.1929070829	 0.086334
N	-1.8332644791	-0.9252274104	-2.5418057238	-0.397482
C	-2.905312309	-1.1571866265	-3.4968011791	-0.328926
C	-3.4167589609	-1.1525657014	-0.5691873242	-0.022587
N	-3.3866286826	-0.9660651384	 0.7294243809	-0.150437
O	-2.120555571	-0.4852033002	 1.0028300037	-0.217358
H	 1.1384418244	 1.9189908454	 0.3344429405	 0.116484
H	-0.3801335084	 2.1968099591	-0.5378155852	 0.116939
H	-0.4100061262	 1.8470729861	 1.1946843976	 0.140128
H	 0.5117551716	-0.1375866776	-0.9797700425	 0.110371
H	 0.5171009976	-0.4587992863	 0.7451352296	 0.129718
H	-1.2064738469	-0.1923993583	-2.8423005203	 0.236348
H	-2.4824365235	-1.1823993316	-4.503802205	 0.126801
H	-3.3657173124	-2.1327041394	-3.3083958401	 0.136596
H	-3.7011255881	-0.3949573172	-3.471669997	 0.112721
H	-4.3214408553	-1.5298924234	-1.0232117058	 0.123219
