18
gdb 100364	2.31146	1.28767	1.11221	2.0768	74.62	-0.2505	0.0211	0.2716	1180.4691	0.144084	-439.066154	-439.055617	-439.054673	-439.101577	37.48	
C	 0.0715872914	 1.5577505396	 0.0316109126	-0.424753
C	 0.0474834045	 0.0133227167	 0.0253123686	 0.057615
C	 0.8276654993	-0.518941586	 1.250784184	-0.090181
O	 0.7610298028	-1.9323240174	 1.2440838532	-0.427822
N	-1.3440945999	-0.4828320807	 0.0477771566	-0.285396
C	-2.2207958874	-0.2790355712	 1.0628854812	 0.16528
O	-2.0440588665	 0.4360645338	 2.0300917115	-0.339499
C	 0.6591427302	-0.4853814337	-1.2114160372	 0.335476
C	 1.1561342986	-0.8688774876	-2.2353580161	-0.463315
H	 1.1046186682	 1.9142845003	 0.0096339869	 0.124029
H	-0.4453604359	 1.9399469096	-0.8510075817	 0.128739
H	-0.4270654255	 1.9280856789	 0.9280143553	 0.158492
H	 1.8649103384	-0.1604212611	 1.1749049029	 0.094936
H	 0.3668212108	-0.0932144935	 2.148465364	 0.129637
H	 0.999875367	-2.247178691	 2.1199007167	 0.293584
H	-1.5641916443	-1.2119988609	-0.6117473776	 0.259404
H	-3.1617060532	-0.8423007621	 0.9005875834	 0.082283
H	 1.6052255615	-1.2167313838	-3.1328765342	 0.201491
