23
gdb 63986	2.82825	1.32028	1.18861	1.2264	84.54	-0.2477	0.0763	0.324	1180.9057	0.20685	-388.299788	-388.291062	-388.290118	-388.332819	35.293	
C	 0.4464393015	 1.435890066	-0.3027467175	-0.455815
C	 0.042134194	-0.0104131406	-0.0438384377	 0.405921
O	-1.3736361204	-0.1141358305	 0.0416060486	-0.477985
C	 0.716208757	-1.0629083417	-0.9872591282	-0.308256
C	 1.5020781956	-1.6397469776	 0.2206176818	 0.008408
C	 2.9603357147	-1.1891025873	 0.427708129	-0.224932
C	 3.0079396168	-0.7617723945	 1.9074885347	-0.18954
C	 1.6603493185	-0.03716483	 2.1427300779	-0.242474
C	 0.6709157016	-0.7428300911	 1.1905845666	-0.018197
H	 1.5317784239	 1.5632301404	-0.3522218537	 0.119065
H	 0.0399725737	 1.766331012	-1.2676290026	 0.101403
H	 0.0529121297	 2.0958727808	 0.4767130584	 0.12375
H	-1.7486723959	 0.2676217188	-0.7599722683	 0.269962
H	-0.0279188866	-1.7563210055	-1.3861404853	 0.097317
H	 1.3157527544	-0.6684933395	-1.8140400129	 0.085239
H	 1.4021519352	-2.7181763525	 0.3647983309	 0.064
H	 3.6883579008	-1.9685508362	 0.1837363893	 0.09285
H	 3.1902047289	-0.3285305984	-0.2136267251	 0.092423
H	 3.0641642618	-1.6535423333	 2.5439080085	 0.097012
H	 3.8759520312	-0.1404898126	 2.1490828792	 0.090463
H	 1.3423508279	-0.0894139854	 3.1876502065	 0.095443
H	 1.7574238714	 1.0257342862	 1.9002731132	 0.097142
H	-0.1231363658	-1.2710374175	 1.7202797466	 0.076802
