17
gdb 20005	3.93582	1.24902	1.03551	3.2174	70.56	-0.2456	-0.0245	0.2211	1133.099	0.14164	-363.827535	-363.819624	-363.81868	-363.860684	28.829	
O	-0.3662767498	 0.4406142651	 0.7744105584	-0.261319
C	 0.2632188173	 0.7476879237	-0.207155652	 0.17904
C	 1.3830919887	 1.7269256181	-0.1963141522	-0.133672
N	 2.3409002191	 1.6203997761	-1.3189779406	-0.34078
C	 1.5058671808	 2.8094443609	-1.2407100982	-0.016474
C	 0.5126608555	 3.0471810456	-2.331362654	 0.02887
C	-0.4337779978	 4.2188267352	-2.2329613452	-0.266574
C	 0.6850839554	 4.2401436399	-3.2414465227	-0.272835
H	 0.051215819	 0.3064688836	-1.2052882358	 0.083192
H	 1.7480315194	 1.9682148338	 0.7992829293	 0.102696
H	 3.2860715205	 1.7979632741	-0.9916644718	 0.243613
H	 1.9655440939	 3.7234521007	-0.8612764491	 0.090979
H	 0.129390541	 2.1438113173	-2.7927988862	 0.095741
H	-1.4501971463	 4.0853193174	-2.585133333	 0.120312
H	-0.3478325138	 4.8663839137	-1.3663539296	 0.11561
H	 1.5245990254	 4.9022341395	-3.0547583402	 0.112363
H	 0.4415779218	 4.1191951453	-4.2907714473	 0.119237
