13
gdb 130698	3.39022	1.81811	1.19232	4.4149	64.14	-0.2793	-0.033	0.2463	930.3686	0.093307	-448.986518	-448.979936	-448.978992	-449.018004	24.061	
O	 0.0026493104	-0.0829538691	 0.0302405443	-0.355447
C	-0.0010611835	 1.1139479847	 0.0320610722	 0.49984
N	-1.0631196469	 1.9889559596	 0.0597739224	-0.373841
C	-0.7138801286	 3.4088699707	 0.0526976435	-0.295353
C	 0.7794770639	 3.3038661746	 0.0157010456	 0.404152
N	 1.8422601524	 4.0699453597	-0.0091292548	-0.361982
C	 2.8494605874	 3.129810509	-0.0351568474	 0.031638
N	 2.4690937329	 1.8598893498	-0.0276451633	-0.241181
N	 1.1244088374	 1.9997461962	 0.0052939822	-0.04168
H	-2.0046018091	 1.6382068952	 0.0817945155	 0.277177
H	-1.1137620882	 3.9295904129	-0.8252343153	 0.158451
H	-1.0698548147	 3.9276277186	 0.9504630657	 0.15847
H	 3.8941340367	 3.4018525783	-0.0602404607	 0.139756
