17
gdb 47948	2.25538	1.90733	1.30092	4.7065	64.9	-0.2668	0.0283	0.2951	995.0529	0.137375	-496.123244	-496.115641	-496.114697	-496.155411	28.936	
O	 0.1840362529	-0.0305817512	 0.1688329657	-0.363664
C	 0.0029459521	 1.1350143082	-0.0134111064	 0.5008
O	-1.2236512181	 1.6878272929	-0.0466172722	-0.240682
C	-1.3602184437	 2.9324955867	-0.7455718569	-0.099825
C	-1.2119718417	 2.7309229361	-2.2613990848	-0.081008
O	-0.0827834279	 1.9752125368	-2.6579363498	-0.239738
C	 1.1987397717	 2.5505628573	-2.4565548241	-0.081324
C	 1.863701286	 1.8980960182	-1.245383335	-0.09482
O	 0.9952041083	 2.0711139428	-0.1226853965	-0.266907
H	-2.3737805608	 3.280034905	-0.5289843919	 0.124201
H	-0.6468494778	 3.6612878949	-0.3581559399	 0.129626
H	-2.0679452453	 2.1618036274	-2.6351404594	 0.13096
H	-1.2199168942	 3.7212926258	-2.7444052585	 0.10067
H	 1.7979714391	 2.3663079141	-3.356770322	 0.116475
H	 1.1262146156	 3.6368414784	-2.3109824161	 0.103161
H	 2.0336884866	 0.8300786616	-1.4140868719	 0.142906
H	 2.8124857873	 2.382483155	-1.0001043903	 0.119168
