19
gdb 63497	2.96746	1.10033	0.93805	5.32	73.62	-0.2589	0.0094	0.2684	1300.331	0.154877	-460.167501	-460.157402	-460.156458	-460.202185	36.888	
C	-0.0883247502	 1.5239462678	-0.033152411	-0.455417
C	 0.0358400816	 0.0173795703	 0.0305561916	 0.350414
O	-1.1115756305	-0.6591790137	-0.3961283851	-0.447517
C	 1.3651386849	-0.6730806166	-0.2313049733	-0.417645
C	 0.7566331082	-0.6744451251	 1.1614727917	 0.364972
C	 1.3939415928	 0.0813411026	 2.3040595314	-0.448165
O	 0.128053923	-1.865188659	 1.6103156857	-0.207976
C	 0.8929797123	-2.9703258204	 1.7177191054	 0.16046
O	 0.4777826687	-3.9988876566	 2.1606006948	-0.277409
H	 0.8191746125	 2.0344625794	 0.2963754298	 0.120572
H	-0.2783882379	 1.8352728399	-1.0675010894	 0.11513
H	-0.9271832589	 1.8662418567	 0.5805123039	 0.136613
H	-1.2115825933	-0.5004908777	-1.3414127235	 0.285304
H	 1.3129332667	-1.5960642989	-0.797660612	 0.128426
H	 2.2577577212	-0.0785374184	-0.3975150482	 0.117549
H	 1.8499926111	 1.014905257	 1.9695297239	 0.124524
H	 0.6482517387	 0.3125852873	 3.07072418	 0.141655
H	 2.1796457856	-0.5247838092	 2.7680817914	 0.126824
H	 1.9242034637	-2.8171085753	 1.348730273	 0.081687
