16
gdb 50304	3.34076	1.48284	1.12186	6.1963	71.99	-0.2491	-0.0136	0.2355	1057.239	0.126099	-434.073493	-434.065816	-434.064872	-434.106214	28.204	
N	 0.0459163259	 1.2851250093	 0.0549554576	-0.410608
C	-0.0541422979	 0.0223115915	 0.0635782917	 0.084
N	-1.258621444	-0.6729870663	-0.0139816402	-0.112524
C	-1.2687164072	-2.1323450437	-0.0256028208	-0.203688
C	-2.7536863074	-2.4504786053	 0.0216739753	-0.033114
C	-3.561218151	-1.9136879507	 1.1383117481	-0.251353
N	-3.5085996542	-1.1997991531	-0.1635323652	-0.153122
C	-2.551418543	-0.1198398656	-0.1217304253	 0.425115
O	-2.8395666831	 1.0377699618	-0.174944879	-0.318087
H	 1.0274662006	 1.5495585754	 0.124111693	 0.230556
H	 0.7881514882	-0.6785215178	 0.1345198844	 0.093196
H	-0.8223295163	-2.5242883154	-0.947861943	 0.128841
H	-0.7120856327	-2.5459278255	 0.8234653606	 0.12806
H	-3.1056086821	-3.3086756558	-0.5402097182	 0.115853
H	-4.5267033317	-2.351787903	 1.3680011187	 0.138698
H	-3.047348144	-1.4580219457	 1.9811495324	 0.138178
