19
gdb 109058	3.45764	1.13399	0.93818	1.0818	77.03	-0.2338	0.0034	0.2373	1260.7262	0.160314	-423.019336	-423.011183	-423.010238	-423.052082	31.571	
O	 0.1711573637	 1.4221371523	-0.0775391616	-0.40613
C	 0.0347661533	 0.0285291096	 0.1069040419	-0.147534
C	-1.3861083671	-0.4768734942	 0.1349740039	 0.238741
C	-2.4447966852	 0.3390326858	 0.1201262293	-0.150455
C	-3.8276110619	-0.1942559103	 0.1225364166	 0.005546
O	-4.1527456308	-1.2095959694	-0.8632048057	-0.263443
C	-4.0435423693	-1.6010923795	 0.5025436084	 0.057398
C	-2.836390884	-2.4250290759	 0.8908270718	-0.250239
C	-1.5648070884	-1.9777889581	 0.1432848231	-0.308072
H	-0.2166966654	 1.6386821109	-0.9322803283	 0.284931
H	 0.6002080544	-0.5371329156	-0.655082687	 0.097567
H	 0.5204241559	-0.1962407885	 1.0664893517	 0.124607
H	-2.3083287513	 1.4153113322	 0.1257097534	 0.090446
H	-4.6314392613	 0.5221374885	 0.2784364473	 0.089423
H	-4.987676883	-1.8787947508	 0.9734253659	 0.087337
H	-2.6951316064	-2.3154868807	 1.9742106655	 0.108699
H	-3.0227821471	-3.4881533	 0.7026350349	 0.108727
H	-1.61897281	-2.3330491497	-0.892924021	 0.132979
H	-0.6869246961	-2.4622570166	 0.5876237298	 0.099472
