16
gdb 85994	2.27513	1.38253	1.21873	2.8644	68.02	-0.253	-0.0435	0.2095	1109.3529	0.121476	-475.042574	-475.032996	-475.032052	-475.077444	32.759	
C	 0.0197390968	 1.3914034898	-0.0034465976	-0.346872
N	 0.0587474726	-0.0489958754	-0.023951964	-0.076444
C	-1.0044363183	-1.0606378588	-0.127444609	-0.211603
C	 0.1039312907	-2.1477240618	 0.008096489	 0.166072
O	 0.0303007764	-3.0275200535	 1.0978891173	-0.477057
C	 0.3765696276	-2.9150552891	-1.2770042955	 0.122445
O	 0.0825373966	-2.5245317981	-2.3764668977	-0.245839
C	 1.0669333459	-0.9265108593	 0.2177906327	 0.340866
O	 2.2200535026	-0.819862342	 0.5487676766	-0.375713
H	 1.0390785564	 1.7534225033	 0.1472802134	 0.165793
H	-0.3636301836	 1.7876618084	-0.9501960403	 0.142581
H	-0.6121697723	 1.7612793219	 0.8129536638	 0.135459
H	-1.6999936271	-1.0590839688	 0.7169286968	 0.123262
H	-1.5321799429	-1.0565984049	-1.0839144033	 0.137
H	 0.8073837956	-2.8816177168	 1.6504899678	 0.305503
H	 0.8883046229	-3.8854204549	-1.09982211	 0.094549
