20
gdb 12376	2.86462	1.98627	1.28715	2.8632	74.66	-0.2332	-0.0091	0.2242	994.0905	0.178537	-349.05524	-349.047299	-349.046355	-349.087361	30.524	
C	-0.0929556234	 1.5498054024	 0.0133990381	-0.398467
C	 0.0612912798	 0.0303564016	 0.0224971652	-0.070593
C	 0.7534526621	-0.5122476014	-1.2511892607	-0.193486
C	 0.92540758	-2.0357674773	-1.2208050439	-0.201325
C	 1.7104587665	-2.4796993159	 0.0192837468	-0.197998
C	 1.0440315777	-1.9712284598	 1.3134023374	-0.288819
C	 0.8063019987	-0.4674889727	 1.2628359621	 0.386554
O	 1.1886942776	 0.2773059416	 2.1364821449	-0.310701
H	 0.8848262496	 2.0391858905	-0.02735103	 0.124637
H	-0.6759252461	 1.8728447233	-0.8547698142	 0.104245
H	-0.5920889207	 1.9002832424	 0.9196823424	 0.127008
H	-0.9360745187	-0.4362817961	 0.0665529237	 0.088291
H	 0.1742470556	-0.2071915416	-2.1300380978	 0.098994
H	 1.7383138743	-0.0345490539	-1.3483474303	 0.103118
H	-0.0631461842	-2.515442194	-1.2189169058	 0.095218
H	 1.4339942873	-2.3740538528	-2.1303220523	 0.097586
H	 1.7998653829	-3.5706572854	 0.0530728211	 0.100635
H	 2.7328567823	-2.0837116908	-0.0364587739	 0.107521
H	 0.06772992	-2.4632121272	 1.4289381577	 0.111775
H	 1.6405419385	-2.1978481831	 2.2002469594	 0.115807
