17
gdb 10162	3.77881	1.1168	0.92558	5.9101	67.4	-0.2513	-0.0358	0.2155	1255.4629	0.140096	-401.042931	-401.033769	-401.032825	-401.077786	30.907	
C	-0.0001935024	 1.5396999872	 0.0102403966	-0.381961
C	 0.0079150383	 0.0094455428	 0.0019349683	-0.168609
C	-1.4075334085	-0.5775800226	 0.0124495737	-0.194151
N	-1.4294506715	-2.0446572452	 0.0047732425	-0.083696
C	-1.4113736887	-2.7147782763	 1.2356404604	 0.164934
O	-1.3771911726	-3.9006231205	 1.4062906473	-0.261376
C	-1.4349424372	-2.7014873846	-1.2333573985	 0.164939
O	-1.4043270406	-3.8854282748	-1.4173826878	-0.261379
H	 1.0180913594	 1.9374663202	 0.00253085	 0.127992
H	-0.5205439209	 1.9400166805	-0.866769126	 0.122297
H	-0.5034439579	 1.9305118099	 0.901401692	 0.122297
H	 0.539161189	-0.3625192337	-0.8826343175	 0.113624
H	 0.5561052588	-0.3719568772	 0.8720280821	 0.113625
H	-1.9543269316	-0.2326226239	 0.8960835155	 0.127269
H	-1.9712670361	-0.2231875073	-0.8566878128	 0.127268
H	-1.4417697276	-1.9838111777	 2.0693527614	 0.083461
H	-1.4814445399	-1.9615986468	-2.0584120772	 0.083461
