21
gdb 63809	3.32574	1.47746	1.40847	1.3126	81.67	-0.2333	0.0903	0.3236	1044.0865	0.183072	-387.059424	-387.051619	-387.050675	-387.091072	32.156	
C	-0.0436572822	 1.5312562871	-0.0479517437	-0.423789
C	-0.0111403278	 0.0051967264	 0.035063237	 0.367526
C	-1.4102663286	-0.5919456215	-0.1154986153	-0.423793
O	 0.8412278788	-0.5096572279	-1.0278860322	-0.322311
C	 1.8549836438	-1.1846601743	-0.3190226104	 0.141116
C	 1.2618778436	-1.9691367307	 0.8900369536	-0.091478
C	 2.5608170706	-1.7024925968	 1.6801841518	-0.265222
C	 2.2876829752	-0.3753970236	 0.9406711313	-0.091477
C	 0.7588312722	-0.5290137253	 1.2503062635	-0.063709
H	 0.9613886816	 1.9510863876	 0.0425076217	 0.117149
H	-0.4591595744	 1.8497843711	-1.0088422208	 0.121932
H	-0.6669765544	 1.950681621	 0.7489000039	 0.1097
H	-1.8441865446	-0.3027845389	-1.0775334183	 0.121943
H	-1.3781795388	-1.6835944366	-0.0726662189	 0.117143
H	-2.0733740025	-0.2337283646	 0.6790965467	 0.109698
H	 2.5821351916	-1.6311315276	-0.9974798318	 0.081251
H	 0.6687590817	-2.8839160938	 0.8587450578	 0.071313
H	 2.4699664465	-1.6786136287	 2.7691477187	 0.095264
H	 3.44934587	-2.264741661	 1.3764378971	 0.091383
H	 2.8747155788	 0.5434365699	 0.9676395574	 0.071313
H	 0.377334349	-0.3152289219	 2.2501703008	 0.065047
