18
gdb 52427	3.20134	0.62855	0.54383	5.5189	76.67	-0.2544	0.0108	0.2652	1947.9931	0.146938	-435.256692	-435.246622	-435.245678	-435.294066	33.663	
N	-0.2814023463	 1.2983092339	-0.2471813684	-0.432294
C	-0.2020264796	 0.043157207	-0.3320005933	 0.13306
O	-1.2597279689	-0.7206067585	 0.01453067	-0.193889
C	-1.070649405	-2.1375289121	-0.0090676613	-0.091245
C	-2.4477655897	-2.7743415992	 0.0298485127	-0.137857
N	-3.193603912	-2.4192114387	-1.1707604382	-0.300394
C	-4.5549802563	-2.9372409402	-1.1606619337	-0.262184
C	-5.2744891057	-2.5561591754	-2.3795683215	 0.260877
N	-5.8523614472	-2.2449341034	-3.329675687	-0.295141
H	 0.5877553374	 1.7253255346	-0.5602698502	 0.233488
H	 0.6632650916	-0.5385134869	-0.6785996722	 0.089802
H	-0.5464550737	-2.4343477077	-0.9257937889	 0.122887
H	-0.4812976405	-2.4523902601	 0.8613153372	 0.115284
H	-2.3261010216	-3.8643372874	 0.06557106	 0.11397
H	-2.954774046	-2.4717718716	 0.9638256984	 0.103861
H	-3.2114955976	-1.4073593246	-1.2559522739	 0.249027
H	-4.517090736	-4.0332297042	-1.1153720581	 0.154894
H	-5.1575636931	-2.6106453854	-0.2930593314	 0.135853
