13
gdb 20529	5.04452	1.68033	1.27046	4.6246	59.77	-0.2713	-0.0617	0.2097	883.7574	0.096292	-394.819561	-394.812677	-394.811732	-394.851063	24.364	
C	-0.0020736637	 1.5218411505	 0.0084788859	-0.50575
C	 0.0847135866	 0.0153035467	 0.00151792	 0.428679
O	 1.1104673393	-0.61221361	-0.009191718	-0.295938
N	-1.1602896743	-0.669413889	 0.0086757327	-0.108222
C	-2.4561630301	-0.1889549108	 0.0210925826	 0.040416
N	-3.3134958625	-1.1641738919	 0.0240548844	-0.215861
N	-2.5865129001	-2.3555478141	 0.0131736988	-0.220043
C	-1.3265323573	-2.0414400352	 0.0043621466	 0.055063
H	 1.0103674649	 1.9232636235	 0.0017023832	 0.166534
H	-0.5453249408	 1.8839515461	-0.8699631922	 0.161878
H	-0.5305080762	 1.8765546315	 0.8989047532	 0.161902
H	-2.6998585208	 0.8609750796	 0.0274113153	 0.15427
H	-0.487944335	-2.7176003469	-0.0052024026	 0.177072
