16
gdb 19462	5.05126	1.64966	1.60614	2.4093	69.11	-0.2302	-0.0297	0.2006	834.6455	0.131362	-346.572621	-346.566162	-346.565218	-346.603286	25.34	
O	-0.6686516678	 0.8065528448	 0.6270672069	-0.245667
C	 0.1373375689	 1.0254956815	-0.2441145603	 0.119803
C	 1.3123412658	 1.9584446381	-0.1451060216	-0.056597
C	 1.1197997757	 3.4029490641	-0.7853576292	-0.090443
C	 0.3725756511	 3.7653113023	 0.5410318112	-0.215296
C	 1.4764289047	 2.8289555494	 1.1489223178	-0.070533
C	 2.7378589504	 3.6202625493	 0.7724313654	-0.089716
C	 2.5079114362	 3.9907456102	-0.4906631153	-0.087722
H	 0.0588196398	 0.5107276641	-1.2312295546	 0.074474
H	 2.2049924397	 1.4329641395	-0.5032510469	 0.087094
H	 0.6814629242	 3.5446944925	-1.7729201482	 0.069263
H	 0.3928254888	 4.8140742757	 0.8429381094	 0.097121
H	-0.6336195853	 3.3487831127	 0.6166239977	 0.122193
H	 1.3876159748	 2.3948329373	 2.1426155852	 0.076978
H	 3.5901494636	 3.8069485568	 1.4098420651	 0.104488
H	 3.1150384194	 4.5649827218	-1.1756924427	 0.10456
