16
gdb 43188	2.3692	2.13771	1.3009	4.5243	68.82	-0.2399	-0.0224	0.2175	953.8293	0.125275	-437.835039	-437.828001	-437.827057	-437.866594	27.048	
O	 0.0002532451	 0.0384415497	 0.3648150646	-0.307772
C	-0.0769573141	 1.1959543138	 0.0811745213	 0.369403
C	-1.2178141912	 2.2604448452	-0.0085629223	-0.090349
O	-1.5594770198	 2.7166893583	-1.3335740804	-0.285252
C	-0.6412077929	 3.8418628577	-1.2555533661	-0.146917
C	-0.0653688369	 3.2979617633	 0.0459349007	 0.31562
C	 0.7284736179	 3.88742701	 1.2230508309	-0.360884
C	 1.6991095308	 2.6720132515	 1.0982178879	-0.182263
N	 0.9337751082	 2.1843886274	-0.1020507719	-0.164518
H	-2.0802534259	 2.1472602854	 0.6528649534	 0.105698
H	 0.0457003631	 3.8856075142	-2.1067664712	 0.12307
H	-1.1908130897	 4.7866514358	-1.1594840313	 0.110436
H	 1.1925224348	 4.8499104483	 0.9960515251	 0.125918
H	 0.1831510374	 3.9760626645	 2.1648134536	 0.125595
H	 2.7344706985	 2.9208823384	 0.8580723245	 0.12762
H	 1.6843853245	 1.9582510766	 1.9257457711	 0.134594
