15
gdb 127359	3.51605	1.67566	1.14302	5.5761	73.92	-0.2126	-0.0026	0.21	1003.1946	0.116794	-413.01057	-413.003545	-413.002601	-413.042123	26.588	
C	-0.0008817561	 1.4841309778	-0.0298590583	-0.348594
N	-0.0091373325	 0.0410611842	 0.0296116907	-0.175768
C	-0.0588036761	-0.8384689651	-1.0424717521	-0.000858
N	-0.0544497464	-2.1097212891	-0.7351499336	-0.349794
C	 0.002789112	-2.0955976388	 0.6457075803	 0.367819
N	 0.0366844441	-3.0088698038	 1.6161208146	-0.337936
N	 0.0873404248	-2.2394792896	 2.7264098907	-0.177911
C	 0.0875200575	-0.8831270357	 2.5156026906	-0.205221
C	 0.032207106	-0.7700214308	 1.1447241484	 0.263569
H	 0.9117316142	 1.892522697	 0.4182703218	 0.141607
H	-0.0427379754	 1.796708177	-1.0754680336	 0.144933
H	-0.8663048272	 1.9056693156	 0.4933795804	 0.141615
H	-0.097921122	-0.4476970535	-2.0510878079	 0.128873
H	 0.1217145283	-2.6993282685	 3.6202112121	 0.275934
H	 0.1258840189	-0.1845346368	 3.3341582358	 0.131732
