16
gdb 126337	1.96148	1.74162	0.9861	3.2993	78.65	-0.2607	-0.0349	0.2258	1177.5656	0.123374	-400.716891	-400.708395	-400.70745	-400.75052	31.118	
C	 0.1070062947	 1.5385436656	 0.1293060302	-0.374466
C	-0.0332756178	 0.0156680752	-0.0389928458	-0.318167
C	 0.6644286364	-0.5093582486	-1.2558360589	 0.067369
C	 0.1515584115	-0.9339951649	-2.4379030075	-0.022518
O	 1.1273763058	-1.3146576265	-3.2807192772	-0.159436
N	 2.3513208592	-1.1500734099	-2.6644853162	-0.206519
C	 2.0771852169	-0.671792032	-1.4630395143	 0.196123
C	 3.1108280652	-0.3860206752	-0.5352595695	 0.265637
C	 3.9521542219	-0.1324117043	 0.2862053721	-0.410719
H	 1.1592162542	 1.8261567499	 0.20821861	 0.135408
H	-0.3244125467	 2.0685647524	-0.7252593639	 0.121501
H	-0.4062004477	 1.8743780926	 1.0353470615	 0.117084
H	 0.3733568263	-0.4828634278	 0.8486471086	 0.122284
H	-1.0933430709	-0.2549717822	-0.0888840002	 0.109565
H	-0.8559034402	-1.0253334756	-2.8141499353	 0.153735
H	 4.7089575412	 0.0862513411	 0.9988917264	 0.20312
