17
gdb 37862	2.4876	2.20443	2.17208	1.219	68.43	-0.1773	0.0561	0.2334	797.4454	0.141387	-417.940603	-417.934703	-417.933758	-417.970501	25.509	
N	 0.0204075933	 1.4299837546	 0.011780872	-0.309256
C	 1.3683223597	 1.9627558842	 0.002300632	-0.06898
C	 2.4800543676	 1.2324254563	 0.7404704529	-0.082868
N	 2.1121698899	 0.0165786783	 1.4571935743	-0.314033
C	 1.1196976479	-0.7784092614	 0.7428356059	-0.082868
C	 0.0273680557	-0.0193989404	 0.0046320297	-0.06898
C	 1.1074850058	-0.7269652752	-0.7725198149	 0.078744
O	 2.1020792602	 0.0200100085	-1.4295253743	-0.262664
C	 2.4261053111	 1.2221762195	-0.7748123557	 0.078745
H	-0.4378427419	 1.7410012597	 0.8663179501	 0.227424
H	 1.3961358743	 3.0473088339	-0.0241296206	 0.096588
H	 3.2465104636	 1.8079174801	 1.2503876041	 0.090663
H	 2.9521093736	-0.5515448272	 1.5480135566	 0.226261
H	 0.8712383568	-1.7031315499	 1.254517349	 0.090663
H	-0.9690065817	-0.4487673693	-0.020017708	 0.096588
H	 0.8581797984	-1.6025566934	-1.3615227163	 0.101985
H	 3.145441116	 1.7783981618	-1.3654992669	 0.101985
