18
gdb 89356	2.63717	1.53973	1.25952	3.7318	71.87	-0.2429	-0.012	0.2309	1050.746	0.147575	-439.073815	-439.065501	-439.064556	-439.106382	32.	
C	 0.0493660199	 1.5428394188	 0.0623395829	-0.497248
C	 0.0295932901	 0.0392951672	 0.029559112	 0.19516
C	 0.5286403834	-0.7180758944	-1.2359493022	-0.313207
C	 0.4248983963	-2.1932583753	-0.7132508062	 0.118868
O	 1.6854201498	-2.8148689085	-0.5225829876	-0.43958
C	-0.1703762459	-1.90559151	 0.6816594733	-0.141351
N	 0.6284761822	-0.7368193975	 1.1770814205	-0.351729
C	-1.2182461887	-0.8253503645	 0.3350624527	 0.449855
O	-2.3997116389	-0.6868186472	 0.3706899261	-0.317537
H	 1.0645792817	 1.9291129156	-0.0806122988	 0.119844
H	-0.5796671682	 1.9485454236	-0.7363390979	 0.130961
H	-0.3276531017	 1.9111055322	 1.0196650054	 0.140052
H	-0.0843185061	-0.5281367453	-2.1224480338	 0.113344
H	 1.5672601772	-0.4579428935	-1.4672126764	 0.101776
H	-0.2312743457	-2.8190660868	-1.3323415273	 0.081909
H	 2.1281464178	-2.8664072324	-1.3761563279	 0.285868
H	-0.3465281155	-2.744029002	 1.3518864038	 0.096552
H	 1.6263778524	-0.9118825801	 1.0484508012	 0.226462
