17
gdb 76569	3.08443	1.29242	1.2525	3.0028	71.9	-0.21	0.0052	0.2152	1074.5935	0.135276	-458.92866	-458.92055	-458.919606	-458.961283	31.163	
O	-0.2261723752	 1.3612838849	 0.1316149579	-0.433874
C	-0.0157830652	-0.0181566763	 0.0202805602	-0.044638
C	-0.27829311	-0.7904964129	 1.2986146097	 0.030745
O	-0.5800948781	-0.064711092	 2.4379327374	-0.426654
C	-1.2759480997	-0.8649845038	 0.1419045789	 0.354016
O	-2.460923012	-0.0969361935	 0.2403502195	-0.322418
C	-3.5291129368	-0.7941044467	-0.4185472478	-0.131395
C	-2.8945442024	-2.0403566839	-0.9719365496	-0.111317
C	-1.6043260342	-2.0658821526	-0.6443571699	-0.168196
H	-1.1583602891	 1.5094057492	-0.0890605657	 0.302317
H	 0.7873616095	-0.2931354903	-0.6590276181	 0.098083
H	 0.3066648528	-1.6846358688	 1.5006554552	 0.101696
H	-0.5314938003	 0.8666871779	 2.1733607629	 0.290453
H	-4.3250977953	-1.0087211163	 0.3099253057	 0.119724
H	-3.9605686091	-0.1480893062	-1.197358743	 0.112728
H	-3.440196624	-2.7828225309	-1.5387859811	 0.112612
H	-0.8809260406	-2.8325385779	-0.8874229021	 0.116119
