17
gdb 121777	2.74718	0.82609	0.66075	4.712	74.77	-0.3125	-0.0362	0.2762	1667.8923	0.133641	-418.009925	-417.999858	-417.998914	-418.046283	33.972	
C	 0.0232414636	 1.4743009798	 0.1471951787	-0.387945
C	-0.0595432206	-0.0342430867	-0.1019788662	-0.18943
C	-1.4717246757	-0.5639136677	 0.0854092078	-0.059327
O	-1.4521061712	-1.9732920509	-0.175186024	-0.234908
C	-2.7062472748	-2.5841296549	-0.075561082	-0.135182
C	-2.6100698329	-3.9413081969	-0.6421487408	 0.30607
N	-2.5589234933	-4.9957455659	-1.106880274	-0.29175
C	-3.1998813398	-2.6468196976	 1.3247554964	 0.28952
N	-3.5745370315	-2.6419665722	 2.4166922257	-0.303577
H	 1.0465942104	 1.8326811596	 0.0087325159	 0.128312
H	-0.6198699845	 2.0305765583	-0.5432935945	 0.121494
H	-0.2831427576	 1.7289111215	 1.1673526892	 0.125832
H	 0.2718899466	-0.2731981924	-1.1184193287	 0.118045
H	 0.6063402483	-0.5711457556	 0.5822301479	 0.122505
H	-1.8277478259	-0.3793243227	 1.1090197371	 0.124334
H	-2.172848556	-0.0751670035	-0.6099005023	 0.10261
H	-3.4664632849	-2.0350394021	-0.6582963363	 0.163395
