21
gdb 109541	2.03252	1.37364	1.16252	2.5346	75.99	-0.2249	0.0698	0.2948	1224.4197	0.17781	-461.332065	-461.321092	-461.320147	-461.367367	40.15	
C	 0.4249693018	 1.1995590211	 0.2212009338	-0.244696
O	-0.2150403759	 0.0069288453	-0.2138097455	-0.257899
C	 0.444577011	-0.5888336567	-1.2955019644	-0.056718
C	 1.4410231495	-1.6931247334	-0.9646036878	 0.363769
C	 2.739258644	-1.8489172253	-1.7107213683	-0.439218
O	 1.5827454121	-1.9830741559	 0.3998794268	-0.475799
C	 0.1093818682	-2.0344020646	-1.6178248556	 0.25186
C	-0.9656636301	-2.7781939508	-0.8619393828	-0.439233
O	 0.2102244117	-2.3818775767	-2.9774110348	-0.460018
H	 1.4616303347	 1.0131430991	 0.5314053248	 0.123776
H	 0.4279626217	 1.9577283473	-0.5745820226	 0.116724
H	-0.1471463801	 1.5779437475	 1.0713725001	 0.131489
H	 0.6491711386	 0.0749390895	-2.1366652081	 0.085784
H	 3.4881926307	-1.1542182447	-1.317312574	 0.112696
H	 3.1239845908	-2.8668862689	-1.5890503708	 0.127683
H	 2.5978928154	-1.6650412575	-2.776420236	 0.131986
H	 0.9356913974	-1.4389249228	 0.8679884827	 0.289649
H	-0.9977630324	-2.4971753784	 0.1906617628	 0.123535
H	-1.9517564064	-2.5650395456	-1.2921209281	 0.106491
H	-0.7873006783	-3.8554088317	-0.9303928942	 0.129024
H	-0.5912594545	-2.077122447	-3.419057748	 0.279115
