24
gdb 7394	3.2894	1.14056	0.90671	0.8998	82.72	-0.2455	0.0845	0.33	1392.2559	0.220442	-351.415955	-351.40513	-351.404186	-351.452005	38.894	
C	-0.0029846575	 1.5258117069	 0.1099072926	-0.383727
C	 0.0880376749	 0.0144532589	-0.0273774651	-0.03734
O	 0.6573290395	-0.5056375478	 1.1560255644	-0.259878
C	 0.7572203526	-1.9266982791	 1.2152547903	 0.160819
C	 1.9896320697	-2.4079015925	 0.4422897747	-0.410307
C	 0.7766929536	-2.3057193293	 2.70821444	 0.037097
C	-0.4913113525	-1.807254441	 3.4149360371	-0.393559
C	 0.9576678344	-3.8148018641	 2.9235563177	-0.399844
H	 0.9912536347	 1.9574303833	 0.2565456027	 0.125405
H	-0.4433720291	 1.9654079023	-0.7902032588	 0.111969
H	-0.6228649959	 1.7969606629	 0.9693315901	 0.124644
H	-0.9134156431	-0.4195275795	-0.1883408904	 0.083694
H	 0.6948797628	-0.2460176938	-0.9093485246	 0.08533
H	-0.1475287885	-2.3673765912	 0.759217575	 0.056481
H	 2.0219191645	-3.4986778535	 0.3770857013	 0.116913
H	 1.9834314124	-2.0208873382	-0.5805948993	 0.114276
H	 2.9062174639	-2.0603114175	 0.9304085912	 0.119341
H	 1.6394442605	-1.7855018288	 3.1476619839	 0.077864
H	-1.3809441142	-2.3202527506	 3.0282486287	 0.102817
H	-0.4396128085	-2.0034538911	 4.4908052121	 0.104273
H	-0.6247842484	-0.7348758038	 3.2631858034	 0.127141
H	 0.1663778759	-4.3832100914	 2.4191884548	 0.110066
H	 1.9200411175	-4.1779324593	 2.5536915027	 0.114615
H	 0.9029063008	-4.055393872	 3.9900122757	 0.111909
