18
gdb 57936	3.2779	0.97231	0.7958	3.8323	70.5	-0.2623	-0.0314	0.2309	1436.4551	0.144149	-476.268754	-476.258514	-476.25757	-476.305063	35.708	
C	 0.4487462983	 0.1940373735	-1.0295131539	-0.392694
C	-0.078484527	 0.0545682577	 0.4059996252	 0.090497
O	 0.1945172205	 1.2155480307	 1.145756573	-0.43918
C	-1.5691536653	-0.2310249375	 0.4273284881	 0.389964
N	-2.3748085008	 0.5749155651	 0.9585239828	-0.529363
O	-1.8245682312	-1.4492538957	-0.1962964279	-0.260872
C	-3.0839887109	-1.9757863346	-0.3344161252	 0.4369
C	-2.9994904939	-3.2998479112	-1.0459669825	-0.480214
O	-4.0910432236	-1.4509146497	 0.0564084573	-0.322661
H	 1.5167259755	 0.4217413538	-0.9933928184	 0.132472
H	 0.3031675499	-0.7274743587	-1.5992762486	 0.115534
H	-0.0607795666	 1.0172396054	-1.5391307096	 0.12552
H	 0.4182634327	-0.8100238953	 0.8764875997	 0.092369
H	-0.6693350891	 1.5600767022	 1.4242277804	 0.296004
H	-3.3432496427	 0.2696458132	 0.9064022752	 0.265697
H	-2.3522405895	-3.982611258	-0.4884353666	 0.16114
H	-3.9986190854	-3.7223123206	-1.1421000988	 0.157792
H	-2.5523455809	-3.1628526302	-2.0347487701	 0.161094
