21
gdb 84565	2.99157	1.66514	1.28999	0.1945	87.66	-0.2295	0.0181	0.2476	1055.8362	0.185565	-349.9245	-349.917315	-349.916371	-349.95571	30.251	
C	-0.1634436636	 1.5708666996	-0.027530647	-0.391395
C	 0.0112146882	 0.0408340413	-0.0366565301	-0.074746
C	 0.7034276307	-0.4341762988	-1.2883713835	-0.070543
C	 1.8190828672	-1.1530764395	-1.1838568879	-0.105439
C	 2.3507553278	-1.4854647422	 0.1770796539	-0.014557
C	 1.3010814664	-1.9111589179	 1.2612348796	-0.072863
C	 2.3071249878	-1.4366582297	 2.3406233524	-0.245096
C	 2.3295741073	-0.339574414	 1.2461210933	-0.057811
C	 0.7658271507	-0.4423184441	 1.2045941975	 0.032759
H	 0.8087987209	 2.0743495317	-0.0342585463	 0.118587
H	-0.7215325342	 1.9094618175	-0.9067052142	 0.110516
H	-0.7097828574	 1.8977747471	 0.8638083365	 0.110416
H	-0.9982295754	-0.39988394	-0.0082453346	 0.078701
H	 0.2752634754	-0.1643165668	-2.2504069145	 0.083018
H	 2.3536151897	-1.5112986969	-2.0587335023	 0.084247
H	 3.2652220965	-2.0840798579	 0.1563457994	 0.055916
H	 0.7067480099	-2.827283553	 1.2566652885	 0.06477
H	 1.8880442133	-1.153419426	 3.3103238916	 0.086772
H	 3.2181817076	-2.0311430554	 2.4544085986	 0.08629
H	 2.9325332073	 0.5704148349	 1.2255362988	 0.065898
H	 0.268942494	-0.1071047399	 2.1224981005	 0.05456
