20
gdb 11081	2.51897	2.10136	2.00763	1.7137	74.24	-0.2354	0.0775	0.3129	872.3359	0.175943	-348.987352	-348.979044	-348.9781	-349.019708	31.673	
C	-0.2560753613	 1.5606239963	-0.0008106236	-0.499495
C	 0.0098814196	 0.0729667785	 0.0026333569	 0.254825
C	 1.0718327769	-0.4987087513	-0.9814097114	-0.281705
C	 1.7507493393	-1.2854551341	 0.1821413945	-0.263406
C	 0.6836743856	-0.742039056	 1.1662503489	 0.418935
C	 1.0935243477	-0.2253320414	 2.520234378	-0.47521
O	-0.4598979433	-1.6321990303	 1.2361586526	-0.3339
C	-1.1722142314	-0.8889097734	 0.2232583238	-0.119951
H	 0.6760627134	 2.1342195376	 0.0489330106	 0.115503
H	-0.7759009189	 1.8621907554	-0.918811483	 0.119922
H	-0.8820308851	 1.8609936901	 0.8466956748	 0.118077
H	 0.6718898287	-1.1008214001	-1.8020372361	 0.09774
H	 1.7134461343	 0.2758876895	-1.4098700975	 0.098269
H	 1.7452456644	-2.3742896202	 0.1000572837	 0.107632
H	 2.7689322035	-0.9510009538	 0.4003291202	 0.095707
H	 1.912171798	 0.4965801959	 2.4347676502	 0.113533
H	 0.2527338318	 0.255813363	 3.0290790013	 0.120101
H	 1.4377230612	-1.0547666578	 3.1489949891	 0.128546
H	-2.0736409126	-0.4152108015	 0.6367271942	 0.091775
H	-1.4630228419	-1.5155990765	-0.6303346973	 0.093104
