18
gdb 33180	5.90789	0.73622	0.67571	3.0109	77.02	-0.2155	0.0162	0.2316	1672.6353	0.146841	-439.098573	-439.08963	-439.088686	-439.134597	31.768	
C	 0.0887162211	 1.5961347168	 0.0791711673	-0.381545
C	-0.2457913512	 0.1032668834	 0.0531252452	-0.150987
C	 0.388539388	-0.6200530754	-1.1382568243	-0.14656
N	 0.1005308921	-2.0455154329	-1.080202928	-0.366324
C	-0.1858394773	-2.66673227	-2.1245161951	 0.526887
O	-0.2696216871	-2.1867944363	-3.41814201	-0.227282
C	-0.6322442827	-3.2561883362	-4.2152716987	-0.057014
C	-0.7558447814	-4.3370239278	-3.454826474	-0.04593
O	-0.4811010031	-4.0062004204	-2.144822174	-0.220029
H	 1.1703640796	 1.7604945277	 0.1444660616	 0.11304
H	-0.2667065013	 2.1017836427	-0.8259430954	 0.11194
H	-0.3739494933	 2.0912919048	 0.9381795804	 0.112718
H	 0.0950705544	-0.3812380369	 0.9749890552	 0.107023
H	-1.3324943633	-0.0394581018	 0.0147543367	 0.09648
H	 0.0490866077	-0.1592016749	-2.0771832126	 0.100503
H	 1.479065788	-0.4842137096	-1.0969632299	 0.103246
H	-0.7513263486	-3.0705924881	-5.2676997063	 0.16092
H	-1.0138672416	-5.3606388552	-3.6587691682	 0.162915
