15
gdb 8931	3.82733	1.26924	1.0048	5.2351	57.96	-0.2836	0.0072	0.2908	1098.9152	0.116716	-436.927471	-436.918366	-436.917422	-436.961373	31.771	
O	-0.099090536	 1.4045143625	-0.2175386727	-0.43347
C	 0.025184882	 0.0136004905	 0.0601407439	-0.104637
C	-1.3995892297	-0.5342570228	 0.0063233516	 0.118508
O	-1.9981666412	-0.2318997625	-1.2324241246	-0.436549
C	-1.4146093979	-2.0668826552	 0.1494586777	-0.024066
O	-0.7502813904	-2.5069547607	 1.31965738	-0.413469
C	-2.795531441	-2.583782866	 0.0939912406	 0.271126
N	-3.8726142202	-3.0004756179	 0.1181718813	-0.31646
H	 0.7748716446	 1.7667117911	-0.3866164281	 0.299598
H	 0.636139379	-0.49200527	-0.7026069466	 0.09975
H	 0.4717142152	-0.17020713	 1.0446860104	 0.10972
H	-1.9730984854	-0.0952154688	 0.8411375538	 0.082556
H	-1.7644080444	 0.6865442201	-1.4194948056	 0.299875
H	-0.8597884626	-2.4900584784	-0.6949915717	 0.147338
H	-1.3048635821	-2.2998629019	 2.0808819599	 0.30018
