21
gdb 119325	4.67489	0.95365	0.92507	0.1965	85.77	-0.2167	0.0859	0.3026	1379.6	0.18186	-349.849429	-349.84109	-349.840145	-349.882769	32.579	
C	-0.0741795748	 1.5831780525	 0.0743758221	-0.380219
C	-0.1174085869	 0.0534157809	 0.0959385538	-0.155724
C	 0.8465078514	-0.5596644448	 1.1239652822	-0.347097
C	 0.8238836907	-2.0541154059	 1.1512886782	 0.402739
C	 1.1721985647	-3.1275881941	 0.0635529023	-0.159499
C	 0.1605793631	-4.0823940531	 0.6793549835	-0.083326
C	 1.6056191945	-4.0943777248	 1.1552430661	-0.085424
C	 1.2592026622	-3.0298457806	 2.2377171685	-0.172775
C	-0.1901551171	-3.0190072445	 1.7614931409	-0.147712
H	 0.9293418582	 1.9486302091	-0.1713063487	 0.112856
H	-0.7676676674	 1.992670394	-0.666811861	 0.110168
H	-0.3458280472	 2.0006482064	 1.0505979751	 0.11227
H	-1.1364583991	-0.288306798	 0.3150374477	 0.098518
H	 0.1255986167	-0.3359987772	-0.9010022729	 0.097949
H	 1.8683915298	-0.2094190214	 0.9165155801	 0.096333
H	 0.597388429	-0.185719789	 2.1272276626	 0.09516
H	 1.5099619582	-3.0482242404	-0.961696656	 0.080593
H	-0.4181175451	-4.8673934501	 0.2112121705	 0.082945
H	 2.3372208949	-4.8905212605	 1.1200112118	 0.08304
H	 1.6624791389	-2.8234141129	 3.2207991198	 0.079973
H	-1.0951689845	-2.8073285455	 2.3162634234	 0.079234
