19
gdb 81414	3.37375	1.16977	1.04743	3.6131	84.65	-0.2449	-0.0565	0.1884	1211.2265	0.160037	-385.876822	-385.868933	-385.867989	-385.909236	30.82	
C	-0.1763006361	 1.5273359548	 0.0105327507	-0.437134
C	 0.0218543892	 0.0183878621	 0.0422311132	 0.057959
C	 1.1766887086	-0.6111880582	-0.8475472897	-0.08403
C	 2.1504165424	-0.2194581681	 0.3213515967	-0.225628
C	 0.9079720411	-0.6112815503	 1.188254141	-0.140631
C	 0.7873239302	-2.0897479429	 0.8128037631	 0.270726
C	 0.5219570697	-3.219393563	 1.686924639	 0.028601
O	 0.3525167819	-3.143669854	 2.886270331	-0.28272
C	 0.9640007309	-2.0824320414	-0.5248162102	-0.168418
H	 0.7494703362	 2.0938029603	 0.1380738835	 0.121046
H	-0.6253340676	 1.8328818017	-0.9410271145	 0.120242
H	-0.8629568272	 1.8315830882	 0.8081351273	 0.125798
H	-0.9455640657	-0.4770601649	-0.0855676022	 0.073949
H	 1.346530805	-0.3165488366	-1.882841628	 0.066922
H	 3.0523477217	-0.823920591	 0.4401577226	 0.100842
H	 2.4010989328	 0.8421543059	 0.3473721926	 0.104329
H	 0.8011556212	-0.3418212808	 2.237006529	 0.085221
H	 0.4825209391	-4.200606163	 1.1613303133	 0.063436
H	 0.9464070366	-2.9109141887	-1.2208829784	 0.11949
