21
gdb 118322	2.04697	1.20222	0.80966	2.1088	82.84	-0.2462	-0.0127	0.2336	1463.5395	0.181703	-420.453101	-420.442749	-420.441805	-420.488891	37.042	
C	 0.347506238	 1.1853964376	 0.2162769667	-0.380304
C	 0.1957473516	-0.3132893829	-0.0544557522	-0.17633
C	-1.2681821985	-0.7625748135	 0.0261025115	-0.159766
N	-1.447760341	-2.201566759	-0.1960933402	-0.102816
C	-1.28745453	-3.0556485905	 0.8934231946	 0.086883
N	-0.9919839327	-2.606295078	 2.0470097561	-0.479479
C	-1.7453120251	-2.7714939435	-1.4384302563	 0.41369
C	-1.9311509875	-1.8202756559	-2.606368226	-0.511386
O	-1.8605476268	-3.9728292501	-1.5770299288	-0.348925
H	 1.3963091062	 1.4905953669	 0.1600191709	 0.119072
H	-0.2120086591	 1.7846185634	-0.5112161195	 0.112104
H	-0.0214426486	 1.4450099599	 1.2142537713	 0.12584
H	 0.6029057228	-0.5591474373	-1.043345963	 0.095211
H	 0.7713161829	-0.8875792431	 0.677794696	 0.130072
H	-1.6566004717	-0.5498248703	 1.0248808767	 0.144258
H	-1.8801975973	-0.2147567742	-0.6928236729	 0.107944
H	-1.4473941449	-4.0967547768	 0.6155006745	 0.146302
H	-0.9309369597	-3.3752696461	 2.7116022052	 0.229958
H	-1.078024223	-1.148789264	-2.7354564888	 0.145814
H	-2.0558758935	-2.4276673102	-3.5019977237	 0.151742
H	-2.8241538518	-1.2010749522	-2.4713269921	 0.150118
