17
gdb 84467	4.05889	1.18067	1.04417	1.3899	80.84	-0.2284	0.0012	0.2296	1151.6337	0.135173	-384.644287	-384.636062	-384.635118	-384.676737	32.233	
O	-0.0723605173	 1.4712147372	-0.0441835849	-0.431379
C	 0.0155433259	 0.0475043855	 0.0154936569	 0.057637
C	 0.6490486204	-0.4649250682	 1.3008508162	-0.119197
C	-0.1585508416	-1.2812327255	 1.9739383288	-0.157338
C	-1.4851294357	-1.4429990732	 1.2871251134	 0.153499
C	-2.2834955687	-0.1410844844	 1.1828936791	-0.297818
C	-1.3890464042	-0.5474700386	 0.0500080083	-0.087269
C	-2.1561231041	-2.7069817903	 1.2907340392	 0.182459
C	-2.7143133707	-3.7727166612	 1.3135326616	-0.408131
H	 0.8239049551	 1.8213933996	-0.0704410211	 0.282876
H	 0.5620403843	-0.3235091902	-0.8662718745	 0.074917
H	 1.6338447637	-0.1440053335	 1.6236916516	 0.095706
H	 0.0568297318	-1.7675857822	 2.9181128113	 0.109747
H	-3.3513905198	-0.2393773118	 1.0242432565	 0.124419
H	-1.9765357563	 0.6807566124	 1.8185142329	 0.131463
H	-1.8469737044	-0.8635198012	-0.8780047736	 0.102727
H	-3.2063782685	-4.7133060945	 1.3274808384	 0.185682
