23
gdb 81336	2.92708	1.38394	1.24086	1.4997	85.23	-0.2308	0.0903	0.3211	1163.6258	0.205463	-388.279621	-388.270575	-388.269631	-388.312545	36.169	
C	-0.1565956343	 1.5571820684	-0.0226052554	-0.44047
C	 0.0194782314	 0.0433495242	-0.0045605615	 0.038076
C	 1.1481966439	-0.6101372477	-0.8493262444	 0.102563
C	 2.1346978873	-0.2134020993	 0.2703328677	-0.261821
C	 0.8922377095	-0.5894195003	 1.14447807	-0.102297
C	 0.7533639255	-2.0989333973	 0.8163876599	 0.41126
C	 1.8368202436	-2.9968750568	 1.4230120777	-0.436103
C	-0.6145784056	-2.7115780603	 1.1342427186	-0.435794
O	 0.9388979399	-2.0175651938	-0.6354410153	-0.330449
H	 0.7697427409	 2.1117578173	 0.1464062901	 0.117853
H	-0.5646247236	 1.8827521883	-0.9860807681	 0.118513
H	-0.8676561701	 1.8652903919	 0.7519647966	 0.117991
H	-0.954213464	-0.4232629891	-0.1672462847	 0.0703
H	 1.3091678401	-0.4213900371	-1.9107950721	 0.071013
H	 3.0502021601	-0.7972525723	 0.3627570877	 0.098676
H	 2.3707230571	 0.8489057854	 0.2972659551	 0.101369
H	 0.7932201827	-0.2939083853	 2.1897615353	 0.062853
H	 1.7027886244	-3.0797919446	 2.5069797976	 0.108878
H	 1.7614808824	-4.0017362681	 0.9960692966	 0.122503
H	 2.8450090734	-2.6297512575	 1.2292471595	 0.115763
H	-1.4459799193	-2.1102845663	 0.7647691416	 0.1164
H	-0.6883093183	-3.7010348264	 0.6728027253	 0.12371
H	-0.734378587	-2.8342505332	 2.2160284021	 0.109215
