17
gdb 55299	2.60709	1.46103	1.06139	2.2955	68.54	-0.2441	-0.0242	0.2199	1134.306	0.132899	-458.932302	-458.923422	-458.922477	-458.967023	31.604	
C	 0.6834362633	 0.3359847589	-0.8504992865	-0.472226
C	-0.395724389	 0.7132932265	 0.1350142103	 0.34096
O	-0.3542408659	 1.7004148839	 0.8342907453	-0.301253
C	-1.6019491582	-0.2147065734	 0.2380248512	-0.046656
O	-1.4302889717	-1.5118373294	-0.3757295823	-0.295451
C	-1.7429188127	-2.2132880733	 0.8534049362	-0.151037
C	-1.8597331243	-0.8842748988	 1.5932937518	 0.358491
C	-1.5343690522	-0.4637542386	 2.9521316429	-0.256155
O	-2.8936960823	-0.5393815956	 2.473840381	-0.254663
H	 1.467573163	 1.0935921374	-0.8476761435	 0.139676
H	 1.0950215492	-0.6455088937	-0.5949574811	 0.151245
H	 0.2572466482	 0.2307955004	-1.8544599487	 0.15148
H	-2.4836819719	 0.3154127802	-0.1491978996	 0.124082
H	-2.6855662272	-2.7686070192	 0.7850428176	 0.123919
H	-0.935222142	-2.8877468114	 1.1598843807	 0.116206
H	-1.2648577779	-1.2102660677	 3.6975459993	 0.120506
H	-1.1576325484	 0.5424012138	 3.1166463054	 0.150875
