17
gdb 79983	2.29591	1.75226	1.47287	2.2474	73.33	-0.2315	-0.0017	0.2298	979.2639	0.134531	-421.81172	-421.803415	-421.802471	-421.844202	31.867	
C	-0.1482609477	 1.6108651278	 0.0311174229	-0.438521
C	 0.0269807219	 0.1012198745	 0.0377103226	 0.016715
C	 1.1850742975	-0.5818719308	-0.7786505078	-0.216665
C	 2.4311881625	-0.0601268041	-0.0915362801	-0.085128
C	 2.1181922261	-0.0624838347	 1.2179096479	-0.177629
C	 0.6959398696	-0.6017117383	 1.2609700298	 0.261458
O	-0.0124362792	-0.7090435243	 2.4428487347	-0.483165
C	 0.9403916703	-1.7933260592	 0.2184739034	 0.357507
O	 0.9050185466	-2.9769890998	 0.1928108284	-0.303873
H	 0.7934734279	 2.1275386312	 0.2285233878	 0.126268
H	-0.5308647209	 1.9487152105	-0.9370800537	 0.118385
H	-0.8709519048	 1.9068343892	 0.7978790459	 0.130925
H	-0.9251762406	-0.3966468903	-0.1853029178	 0.094093
H	 1.1565660885	-0.6877453724	-1.8591752035	 0.086721
H	 3.382811603	 0.1327233282	-0.5659294557	 0.113907
H	 2.7401984041	 0.1378533186	 2.0795441166	 0.107012
H	 0.5194894852	-1.189899616	 3.0860355886	 0.291992
