14
gdb 8259	6.89136	1.01656	0.93505	2.8303	58.93	-0.2641	-0.0389	0.2252	1158.1171	0.105639	-419.711031	-419.703418	-419.702474	-419.744256	26.218	
O	-0.9038009861	 0.7237210324	 0.4778956104	-0.229219
C	 0.0590132416	 0.8983815412	-0.2222507319	 0.153418
C	 1.1724260678	 1.882273156	 0.0948249259	-0.296679
C	 1.419250659	 2.8610178273	-1.0436742317	 0.124031
C	 2.7206793649	 3.6837025212	-1.0232540365	-0.435917
C	 3.053912551	 2.8854486342	-2.2849999885	 0.452813
O	 3.9344569095	 2.8065911755	-3.0756522002	-0.304519
O	 1.8771177328	 2.1718636608	-2.2628299683	-0.252517
H	 0.1991197147	 0.3359463948	-1.1700656168	 0.1059
H	 0.9137128374	 2.4217800955	 1.0107702751	 0.134179
H	 2.0938006732	 1.3100585099	 0.2706357511	 0.13084
H	 0.5218786285	 3.4400622869	-1.2771549688	 0.116063
H	 2.6218325545	 4.7582587826	-1.182828955	 0.152813
H	 3.3925880112	 3.4963007716	-0.1834843748	 0.148795
