16
gdb 93618	2.70043	1.34526	1.04736	4.4541	68.91	-0.2752	-0.0558	0.2194	1132.9067	0.124379	-437.924176	-437.915854	-437.91491	-437.957778	30.532	
O	 0.3675609886	 1.1525081053	 0.6820563844	-0.436135
C	 0.0655733526	-0.0996571272	 0.1450142165	 0.07129
C	-1.4243880943	-0.4521833705	 0.0735957603	-0.246322
C	-1.4555272138	-1.6390006137	-0.9142038882	-0.243147
C	-0.3906663078	-1.295030309	-2.0007831727	-0.269182
C	-0.9650999743	-0.7680260891	-3.2330708368	 0.293396
N	-1.4433048695	-0.349580769	-4.1983153491	-0.3137
C	 0.5058066553	-0.228455189	-1.3097846041	 0.370866
O	 1.3540039803	 0.4470147718	-1.8235004441	-0.305306
H	 1.0592297335	 1.5339601467	 0.1217366377	 0.298011
H	 0.5854659968	-0.9076136445	 0.6982441529	 0.098515
H	-1.8504525013	-0.7025349751	 1.0465071113	 0.124658
H	-1.9729604008	 0.4072372488	-0.3275949583	 0.134546
H	-1.1582411467	-2.5621165294	-0.4080817984	 0.12306
H	-2.442514178	-1.8035866262	-1.3467030472	 0.141487
H	 0.2316990093	-2.1586954802	-2.2594699343	 0.157963
