19
gdb 115163	2.47853	1.3405	1.06159	0.9361	71.17	-0.259	-0.0387	0.2203	1196.6087	0.157966	-460.182956	-460.173862	-460.172918	-460.216973	33.61	
C	-0.0515987831	 1.4058706324	-0.3858393512	-0.389587
C	-0.1451909121	-0.1207326443	-0.3438059144	-0.180845
C	-1.405537983	-0.6088176977	 0.3687774904	 0.062373
O	-2.6239477997	-0.1612660521	-0.2697411542	-0.270868
C	-2.9636661625	-1.0531414684	-1.3192110057	-0.180908
C	-2.2359142692	-2.3482545713	-0.9945130056	 0.332434
O	-2.0944310044	-3.3316670413	-1.6757691899	-0.320528
C	-1.5689799593	-2.1411777554	 0.3610928961	 0.034455
O	-0.4028307381	-2.8989396442	 0.4993217351	-0.433984
H	 0.8401703125	 1.7313458593	-0.9290122517	 0.114284
H	-0.9293754788	 1.8357465959	-0.8763671933	 0.129833
H	 0.0017569427	 1.8250275223	 0.625180651	 0.116442
H	-0.118419636	-0.5288776965	-1.3632831521	 0.095834
H	 0.7178123266	-0.5534636879	 0.1726997931	 0.122808
H	-1.4436620204	-0.1966409942	 1.3810314143	 0.092763
H	-4.0506804735	-1.1898059422	-1.3468630394	 0.141691
H	-2.6434276034	-0.6908222165	-2.3072025157	 0.1326
H	-2.3155226122	-2.4046764123	 1.1316681079	 0.105593
H	-0.457860026	-3.5988363656	-0.1691073649	 0.29561
