19
gdb 38840	2.64498	1.98199	1.70107	1.3697	72.44	-0.2489	0.0775	0.3264	895.8714	0.163464	-423.024708	-423.018204	-423.01726	-423.055255	27.543	
C	 0.0652856868	 1.5733019278	-0.1837119536	-0.297399
C	 1.3290040001	 0.7706229672	-0.0382581027	-0.015047
C	 2.1477448337	 0.8044516358	 1.247121939	-0.246823
C	 1.389598234	 0.1608153804	 2.4192123486	 0.191754
O	 0.3208447854	 1.0102216287	 2.8621463353	-0.284106
C	-0.8954650557	 0.413158615	 2.4098909934	-0.099253
C	-0.3988013628	-0.5656199219	 1.3436564627	 0.048025
O	 0.7890185108	-1.0431155075	 2.0058374888	-0.251855
C	-0.0206711529	 0.0737413143	 0.0078861335	-0.047679
H	-0.2123541132	 2.2235083562	 0.637827888	 0.130567
H	-0.18319938	 1.9638812886	-1.1648108898	 0.106873
H	 1.9129893554	 0.6255217643	-0.9410895481	 0.085444
H	 3.0684032195	 0.2280200795	 1.1026259561	 0.104157
H	 2.4409032362	 1.823705449	 1.5215882098	 0.108482
H	 2.0507310883	-0.0539499553	 3.2646407055	 0.086311
H	-1.3895572714	-0.1222742994	 3.2307384889	 0.101581
H	-1.5639299851	 1.1891555712	 2.0296237185	 0.10977
H	-1.0588569251	-1.4224223824	 1.2033323298	 0.084078
H	-0.301899994	-0.5071793515	-0.8638580936	 0.085121
