20
gdb 81593	3.61024	1.18313	1.03554	2.1591	79.6	-0.2241	0.0793	0.3034	1206.4946	0.171641	-403.050037	-403.041953	-403.041009	-403.08303	31.794	
O	-0.0071351295	 1.5024473111	 0.0356485843	-0.442557
C	 0.0507889232	 0.0972887097	 0.0871715076	 0.159123
C	-0.1128054749	-0.6294039244	 1.4703472925	-0.142786
C	-1.5874848013	-0.1294730783	 1.4563372861	-0.239397
C	-1.3168430325	-0.6200224931	 0.0017647789	-0.092207
C	-0.6312989645	-1.859487394	 0.6503634795	 0.075171
N	 0.2269682563	-2.7044722234	-0.1647022792	-0.100015
C	 1.6694859971	-2.7231954124	 0.0690998098	-0.218606
C	 0.8192175536	-3.8680730158	 0.4851315208	-0.226096
H	 0.8798742116	 1.8439901311	 0.1819005933	 0.282856
H	 0.8336746261	-0.287194542	-0.5727004299	 0.077492
H	 0.5757058538	-0.6244228029	 2.3181119306	 0.063459
H	-2.3050792738	-0.7091995818	 2.0431251486	 0.085147
H	-1.7254105751	 0.9422575472	 1.5788330156	 0.117288
H	-2.0049111204	-0.6209466207	-0.8438461534	 0.073891
H	-1.3328580724	-2.4959352032	 1.1977562123	 0.074959
H	 2.2901400735	-2.7851209038	-0.8211839859	 0.115924
H	 2.0721146935	-2.0953094539	 0.861108932	 0.113454
H	 0.6523860707	-3.9963163483	 1.5541552382	 0.108212
H	 0.8053042448	-4.7901031313	-0.0901382417	 0.114688
