19
gdb 91374	3.26797	1.2384	1.05663	1.7392	79.24	-0.2281	0.0054	0.2336	1191.9915	0.15871	-422.995888	-422.987481	-422.986537	-423.02885	32.412	
C	 0.1503250775	 1.5160252846	-0.0079592324	-0.388017
C	 0.0131980406	 0.0018001681	 0.107762572	 0.106584
O	 0.5100492982	-0.6143557803	-1.1075271846	-0.292527
C	 1.2757456664	-1.7456967423	-0.7492936182	 0.084649
C	 2.842198121	-1.8003798511	-0.8659095959	-0.301217
C	 2.881740574	-2.2437183167	 0.6577552683	 0.044761
O	 3.8188882507	-1.6707159084	 1.5285610415	-0.422209
C	 1.5002103739	-1.652115086	 0.7272076892	 0.195157
C	 0.861282088	-0.6012298298	 1.2235655024	-0.240323
H	 1.2040066988	 1.8031400748	-0.0717489603	 0.121593
H	-0.3612298084	 1.8684421584	-0.9080245684	 0.126433
H	-0.2981484176	 2.0105597064	 0.8599344906	 0.11203
H	-1.054985246	-0.2524582163	 0.21156237	 0.080753
H	 0.8102150863	-2.6623640156	-1.1353035841	 0.075536
H	 3.2768159916	-2.4844175361	-1.5994095403	 0.095269
H	 3.2593608333	-0.7969940063	-0.9659096926	 0.121878
H	 2.8806640505	-3.3408830354	 0.7297775774	 0.080663
H	 4.632485121	-2.1818069446	 1.4784995106	 0.287614
H	 1.0122157701	-0.1112898436	 2.1766702249	 0.111374
