16
gdb 5781	5.83824	1.38532	1.20201	0.8292	70.05	-0.2178	0.0232	0.241	993.8162	0.132204	-346.615959	-346.609148	-346.608204	-346.647718	25.875	
C	 0.1719949761	 1.5852273687	 0.0671317982	-0.268554
C	 1.3040796448	 0.6176368132	-0.1590421416	-0.249975
C	-0.10878655	 0.1032584898	 0.039511887	-0.122091
C	-0.4810209029	-0.6349750499	 1.2682687952	 0.247002
C	-1.0166172286	-0.1394850957	 2.4179429342	-0.101436
O	-1.2231667875	-1.1288131312	 3.3293342825	-0.144879
C	-0.8174585212	-2.2872651937	 2.7464380086	 0.007817
C	-0.3558791339	-2.0532551109	 1.4929018852	-0.288716
H	 0.1324894108	 2.0943479236	 1.0234302688	 0.113505
H	-0.1731282145	 2.1838182673	-0.7682435934	 0.11233
H	 1.7377737182	 0.548843908	-1.1505671531	 0.110966
H	 2.006364702	 0.4667004721	 0.6530400266	 0.117445
H	-0.5883387159	-0.2646269398	-0.8643306537	 0.092767
H	-1.3059344768	 0.8503424149	 2.7292088466	 0.132546
H	-0.9200539171	-3.1747443643	 3.3489977977	 0.133523
H	 0.0334361865	-2.7852901123	 0.8021601012	 0.10775
