21
gdb 108788	2.96999	1.03415	0.92963	2.2662	82.03	-0.2252	0.0259	0.2511	1377.1034	0.179992	-424.234087	-424.224002	-424.223057	-424.269187	36.946	
C	 0.0972002048	 1.4692246325	-0.1114955191	-0.401756
C	-0.0970546479	-0.0460027868	 0.046106608	 0.343773
C	-1.5890920938	-0.4094962567	 0.0337130067	-0.401766
O	 0.5424287614	-0.7063883394	-1.0701216922	-0.308965
C	 1.5614190207	-1.585618208	-0.6203756131	-0.170361
C	 1.5598438833	-1.4681202196	 0.8826262547	 0.283028
C	 2.4984963868	-2.2440273301	 1.7440348531	-0.181262
O	 2.2649127203	-1.9295333516	 3.1042845424	-0.41213
C	 0.6244843168	-0.6004359639	 1.2502776605	-0.230077
H	 1.1615610417	 1.7180679815	-0.1236482212	 0.11498
H	-0.350422107	 1.8098102284	-1.0502050869	 0.118942
H	-0.3767502958	 2.0120950028	 0.7129893443	 0.109093
H	-2.0476494013	-0.0821994746	-0.904444176	 0.118962
H	-1.7189920211	-1.4910141641	 0.1252381327	 0.114988
H	-2.116511332	 0.074765633	 0.8622235907	 0.109087
H	 1.3521265301	-2.614382465	-0.958781946	 0.097399
H	 2.5316201227	-1.2994260436	-1.0602652417	 0.09737
H	 2.3607111489	-3.3230939415	 1.550297942	 0.097984
H	 3.5376787813	-2.0117282453	 1.4491127901	 0.097982
H	 2.8817727754	-2.4374716034	 3.6386014875	 0.290756
H	 0.3912259448	-0.3125732444	 2.2662608234	 0.111971
