25
gdb 120033	2.03055	1.23683	0.87455	0.9583	90.12	-0.2384	0.0784	0.3168	1478.7761	0.227129	-389.486473	-389.475677	-389.474733	-389.522596	39.694	
C	 0.0118837734	 1.5340248594	-0.0119797284	-0.38648
C	-0.1252040588	 0.0229562323	-0.0958080966	-0.036701
O	 0.7571015809	-0.4493013354	-1.098129396	-0.256194
C	 0.7826131301	-1.852634798	-1.2515508501	 0.106174
C	-0.116303374	-2.386688948	-2.4214171841	 0.024952
C	-1.3507932636	-1.6029539976	-2.8381493742	-0.413939
C	 1.1358214569	-2.3405485802	-3.3413901618	-0.248162
C	 2.0328164239	-2.2836191877	-2.0745786182	 0.017933
C	 3.2619060531	-1.3890496587	-2.0664542752	-0.405093
H	 1.043542626	 1.8123450382	 0.2214634751	 0.125941
H	-0.2600743977	 1.9989588599	-0.9640706459	 0.125205
H	-0.6427329613	 1.9340061099	 0.7682697226	 0.113099
H	 0.1278310923	-0.4427850873	 0.8712673405	 0.086962
H	-1.1648627074	-0.2549984133	-0.3255422953	 0.090113
H	 0.6499830388	-2.3346959368	-0.2723567956	 0.049562
H	-0.3825879266	-3.4286676471	-2.2093385377	 0.065617
H	-1.1127495002	-0.5402436598	-2.9437873146	 0.123723
H	-1.7280183712	-1.9611941659	-3.8026164242	 0.110351
H	-2.1640187589	-1.7005443799	-2.1102635424	 0.108208
H	 1.2868809165	-3.170306982	-4.0369972877	 0.088281
H	 1.1808738755	-1.4012440992	-3.9027396368	 0.099905
H	 2.3062156799	-3.3014501779	-1.7742779781	 0.068403
H	 2.9904098754	-0.3551600788	-2.2927237769	 0.127601
H	 3.7564724812	-1.3968941333	-1.0888434624	 0.108216
H	 3.989821276	-1.7279193627	-2.811956356	 0.106321
