19
gdb 32725	2.96013	1.01084	0.79623	1.3348	79.06	-0.2098	0.0247	0.2345	1440.3095	0.158649	-423.058096	-423.04865	-423.047706	-423.093324	33.798	
C	-0.2589441254	 1.5899497861	 0.2656009179	-0.508816
C	-0.0472580375	 0.116742596	 0.0960026787	 0.15752
C	 0.0976617604	-0.5818921385	-1.0679811769	 0.261715
C	 0.1171751523	-0.2020213084	-2.5071466147	-0.297399
C	 1.4952385953	-0.3681299381	-3.1548503974	-0.06515
O	 1.3721128314	 0.0154128246	-4.5152119105	-0.419726
O	 0.2719294051	-1.9143878831	-0.7962535774	-0.186767
C	 0.2341690226	-2.0583545869	 0.5538158415	-0.021155
C	 0.0414982576	-0.8580323474	 1.1521246671	-0.258754
H	 0.5569379658	 2.0499904132	 0.8352374183	 0.128556
H	-0.317297995	 2.1029522208	-0.6978990106	 0.126285
H	-1.1868828968	 1.8006250945	 0.8096239146	 0.129313
H	-0.600456285	-0.8087674071	-3.0725779016	 0.123959
H	-0.1957391125	 0.8407569521	-2.6117886013	 0.119644
H	 2.2279732135	 0.2581027716	-2.6220085771	 0.088832
H	 1.820172854	-1.4143903338	-3.0563396714	 0.100466
H	 2.2235694775	-0.1138862568	-4.9425979828	 0.28674
H	 0.3552069255	-3.0640009863	 0.9217482442	 0.129341
H	-0.0334061288	-0.6722846024	 2.2128765297	 0.105398
