19
gdb 95262	2.77611	1.79606	1.4214	2.4209	74.23	-0.2275	0.0774	0.3048	978.0468	0.160635	-422.984467	-422.977187	-422.976243	-423.01597	29.433	
C	-0.0279065562	 1.52541832	-0.0641035636	-0.392127
C	 0.0177223832	 0.0039274851	 0.007411577	 0.118523
O	 0.5035967595	-0.4379549412	-1.2562648164	-0.25722
C	 0.936032307	-1.778849571	-1.3383707031	-0.091662
C	 1.9309625246	-2.1105758714	-0.2336749318	 0.086552
O	 2.8822760896	-1.0180573594	-0.0570957445	-0.291722
C	 2.3229848281	-0.7414864252	 1.2254096497	 0.092896
C	 1.3778250832	-1.9135819317	 1.1859521938	-0.190178
C	 0.8297602366	-0.5069734947	 1.1902760703	-0.075931
H	 0.9833242979	 1.9271795439	-0.1724840377	 0.132213
H	-0.6220627294	 1.8436191641	-0.9248926606	 0.122839
H	-0.4780381278	 1.9411034473	 0.8428346491	 0.107429
H	-1.0097768742	-0.38185793	 0.1455710218	 0.062418
H	 0.0943912919	-2.4923152825	-1.2832369894	 0.085992
H	 1.3996464546	-1.8747056733	-2.325273382	 0.114345
H	 2.4472855085	-3.0589705763	-0.4090717357	 0.084248
H	 2.9884671014	-0.3649899545	 1.9936416432	 0.105054
H	 1.1454316502	-2.6869198189	 1.9053593538	 0.0948
H	 0.4295304714	-0.1969436303	 2.1535439862	 0.091531
