21
gdb 42144	1.91863	1.91698	1.08807	2.8958	76.1	-0.2376	0.0752	0.3127	1154.4896	0.183669	-461.327327	-461.318866	-461.317922	-461.360154	32.637	
C	-0.0374118304	 1.4517672159	 0.0179282649	-0.062427
C	 1.3176876603	 2.1663053796	 0.074183585	-0.094425
O	 2.0902326584	 1.6546924137	 1.1388905366	-0.227037
C	 3.3999951864	 1.2269705833	 0.8348949979	-0.062205
C	 3.4875556057	 0.0713889074	-0.1679524886	-0.094555
O	 2.680634739	-1.0039201895	 0.261386296	-0.226861
C	 1.7546234792	-1.5220033858	-0.6689566278	-0.062409
C	 0.6872256239	-0.5288768327	-1.1420002478	-0.094192
O	 0.032821878	 0.0430154635	-0.0301190842	-0.226937
H	-0.5906713026	 1.6723606592	 0.9359214954	 0.119926
H	-0.6132826855	 1.8629641641	-0.8294303265	 0.080099
H	 1.8455289653	 2.0821037892	-0.8840049358	 0.088145
H	 1.127070909	 3.2400141533	 0.2299133431	 0.095731
H	 4.0275987905	 2.057011653	 0.4663865683	 0.080066
H	 3.813681996	 0.8951115291	 1.7921454186	 0.119817
H	 3.2105321736	 0.4048295232	-1.175956823	 0.087975
H	 4.5404391133	-0.2474357742	-0.2248476632	 0.095725
H	 2.257263154	-1.9432063654	-1.5569346445	 0.080116
H	 1.2613945812	-2.3448391957	-0.1424824245	 0.119868
H	 1.125858043	 0.2405257023	-1.7894986354	 0.087929
H	-0.0369550383	-1.0806914531	-1.7620590346	 0.095651
