20
gdb 11743	4.88699	1.25543	1.1667	1.5295	75.61	-0.2494	0.0727	0.322	1106.5298	0.176694	-348.973512	-348.965018	-348.964073	-349.006301	32.091	
C	-0.1377561123	 1.5699375537	 0.0896919757	-0.403325
C	 0.0679577139	 0.0608403059	 0.0438896164	 0.041533
C	 1.1237769329	-0.5418337274	-0.9490529757	-0.31011
C	 1.7993023216	-1.2642147562	 0.2263131749	 0.408065
C	 2.3251336722	-2.6618954443	 0.1877679642	-0.204925
O	 3.5529937194	-2.6640016852	-0.5353391971	-0.420226
C	 2.2636973958	-0.2479594818	 1.2313049993	-0.317512
C	 0.8071193545	-0.6271287513	 1.2054526003	-0.130553
H	 0.804246993	 2.1012691707	 0.2598224636	 0.114492
H	-0.5591435023	 1.9367558267	-0.852988012	 0.11184
H	-0.827106911	 1.8496214849	 0.894312483	 0.111809
H	-0.8974360777	-0.4295350527	-0.1179459515	 0.070722
H	 0.6776167172	-1.2217716827	-1.6793281034	 0.096719
H	 1.7539740122	 0.1760407999	-1.4840877755	 0.095871
H	 2.4682083085	-3.0282080783	 1.2181574852	 0.080125
H	 1.5886725836	-3.3253515442	-0.295336112	 0.080382
H	 3.8260492151	-3.5787872548	-0.6541390504	 0.284252
H	 2.8275100998	-0.649885315	 2.0675106996	 0.108481
H	 2.5970799904	 0.7349350009	 0.9078777177	 0.104842
H	 0.3288396532	-1.0748336489	 2.0701325778	 0.077518
