19
gdb 101937	1.95489	1.60488	1.03752	1.9385	72.54	-0.2407	0.0268	0.2675	1188.3955	0.159577	-456.34065	-456.331439	-456.330494	-456.374979	34.282	
N	 0.5546993332	 0.6818095184	-0.0979206238	-0.519987
C	-0.2297823001	-0.0639211955	 0.7174861168	 0.407302
O	 0.0091517051	-0.263315316	 1.89601851	-0.377143
C	-1.4790290822	-0.6882931763	 0.0598206272	-0.084447
C	-2.0657296925	 0.0959350925	-1.1214020138	-0.09768
O	-1.1857430797	 0.0747997318	-2.2390840877	-0.418356
N	-1.1207155861	-2.018499381	-0.4557440983	-0.100862
C	-0.7933674668	-3.0464335483	 0.5319441459	-0.219846
C	-2.0814933686	-3.0988459838	-0.2085737607	-0.231913
H	 1.4097004885	 1.058142178	 0.2777693877	 0.255763
H	 0.3463878345	 0.7431713362	-1.0854834726	 0.271406
H	-2.2218749772	-0.7471615559	 0.8690389356	 0.08946
H	-3.0399041072	-0.3399882869	-1.3889381876	 0.101711
H	-2.2270783396	 1.1435236077	-0.8513219603	 0.120313
H	-0.8948245764	-0.8489042039	-2.2965526819	 0.292171
H	 0.0215329933	-3.709543587	 0.2573482652	 0.121528
H	-0.8125972211	-2.7477978394	 1.5756619521	 0.149729
H	-2.9879530545	-2.8511419574	 0.3400084852	 0.119874
H	-2.2207355028	-3.7994120734	-1.026427199	 0.120974
