25
gdb 100097	2.81671	0.91908	0.85251	0.3384	85.7	-0.241	0.0695	0.3105	1539.9846	0.224057	-426.629373	-426.617316	-426.616372	-426.666625	44.027	
C	-0.2021042959	 1.0985578685	 1.118881209	-0.381498
C	 0.0195586059	-0.1081681345	 0.205597648	 0.147216
C	 1.0151649407	-1.104267801	 0.8021768937	-0.381508
O	-1.2317949156	-0.7729758708	 0.0171636888	-0.318578
C	-1.7751806581	-0.8807466108	-1.3029488877	 0.355657
C	-2.0864829362	 0.4950809741	-1.9094502848	-0.41643
C	-0.8708045789	-1.7057894552	-2.2298287428	-0.416419
C	-3.0851210857	-1.642336456	-1.0417444292	-0.101572
O	-3.7587735167	-1.834447171	-2.2766634013	-0.422535
H	 0.741389865	 1.6168880149	 1.319929507	 0.106704
H	-0.8965287021	 1.8095585273	 0.6633684558	 0.115024
H	-0.6268529677	 0.7727661955	 2.0739008528	 0.119941
H	 0.4092481332	 0.2454917807	-0.7570705686	 0.072286
H	 0.6288469165	-1.4999796307	 1.7470489959	 0.119956
H	 1.1786432473	-1.9455002251	 0.1233118374	 0.115023
H	 1.9801629301	-0.6249329728	 0.9978227676	 0.106701
H	-1.1746280605	 1.0564606378	-2.1332081315	 0.107067
H	-2.6466989887	 0.3716069334	-2.839281278	 0.133699
H	-2.6942428414	 1.0841232819	-1.2157998693	 0.113768
H	-0.6238522628	-2.6632461675	-1.7610205375	 0.11377
H	-1.3890124475	-1.9060539539	-3.170589091	 0.133711
H	 0.0617953533	-1.1821452697	-2.459507664	 0.107065
H	-2.8376430424	-2.5994756403	-0.5604086932	 0.090019
H	-3.6902672395	-1.0558228648	-0.3354643276	 0.090014
H	-4.5751654121	-2.30980982	-2.1017599596	 0.290918
