13
gdb 18210	4.44629	1.80531	1.4804	5.5473	57.88	-0.2848	0.01	0.2947	814.7366	0.096187	-398.58109	-398.574625	-398.573681	-398.612036	23.567	
N	 0.112422903	-1.1628017747	-0.0671781287	-0.311535
C	 0.0614326341	-0.0100658245	-0.0329494979	 0.287846
C	 0.0092254582	 1.4581942174	-0.0513159399	-0.029607
O	-0.6472807052	 1.9160550754	 1.1237966599	-0.261261
C	-0.0679514331	 3.1483937534	 1.5579092166	-0.107498
C	 1.3186898685	 3.1824900558	 0.9588004579	 0.027053
O	 2.0548129508	 1.9773541251	 1.1956335157	-0.229265
C	 1.3821475355	 2.1227166848	-0.0484470079	 0.003102
H	-0.5315744621	 1.769018756	-0.9603412953	 0.125194
H	-0.6506780587	 4.0110263866	 1.2011108227	 0.110422
H	-0.0718676327	 3.1443780457	 2.6517188363	 0.138111
H	 1.8914790699	 4.1032443252	 0.9028925605	 0.119731
H	 1.9868362618	 2.145187064	-0.9495677799	 0.127707
