17
gdb 72053	2.52973	1.63943	1.27379	1.2162	81.01	-0.2253	0.0279	0.2532	1042.4144	0.134494	-384.599803	-384.591837	-384.590893	-384.632006	31.273	
C	-0.0558731017	 1.3987170802	-0.067563632	-0.504548
C	-0.001487803	-0.0864980762	 0.0154686358	 0.406571
O	 0.9704882886	-0.7984525724	-0.7526562566	-0.32333
C	 0.2158659781	-2.0070506305	-0.4724902439	 0.010743
C	 0.4539165334	-2.2432968093	 1.0382478242	-0.244503
C	-0.3384841667	-0.9516478901	 1.2349216831	-0.206505
C	-1.0685273966	-1.149110979	-0.1153170094	 0.240987
C	-2.4254538996	-1.157191071	-0.4896421896	-0.021398
C	-3.584511415	-1.1696576226	-0.8190659828	-0.367466
H	 0.8558861331	 1.8418189696	 0.3467227003	 0.136345
H	-0.1588876142	 1.7244081593	-1.1066332155	 0.13975
H	-0.9104739742	 1.7763403004	 0.5008318162	 0.134842
H	 0.3159486268	-2.7752458161	-1.2352130268	 0.099297
H	-0.0975086348	-3.1112239915	 1.4075494519	 0.112587
H	 1.4986622793	-2.2776591288	 1.3616561377	 0.10476
H	-0.7632400107	-0.5413734255	 2.1421390266	 0.104247
H	-4.6050221226	-1.1787089866	-1.1109933791	 0.177622
