20
gdb 83686	2.80419	1.39097	1.08783	4.0679	80.88	-0.2359	0.0267	0.2625	1164.4018	0.171444	-403.150206	-403.141597	-403.140652	-403.184069	32.134	
C	 0.380922733	 1.6890658285	 0.0137251389	-0.411881
C	 0.1866934478	 0.182228541	 0.0395082988	 0.052094
C	 0.6728440466	-0.7218245202	-1.1366810285	-0.071063
C	 2.0026852695	-0.3269270305	-1.8383931304	-0.231954
C	 2.8111614374	-1.2020565504	-0.8296499929	-0.226437
C	 1.4940195433	-1.5531117682	-0.0892248148	-0.001102
N	 1.0854809102	-0.5817759987	 0.9269838185	-0.042503
C	 1.1712465838	-0.5798551001	 2.2750021713	 0.123367
O	 0.6048356509	 0.2111501832	 3.0045848949	-0.339375
H	 1.418850468	 1.9619850954	-0.1956241222	 0.117795
H	-0.2598566774	 2.1408945757	-0.7508896792	 0.115945
H	 0.1126863465	 2.1058362049	 0.9872361609	 0.155706
H	-0.8601032444	-0.0383722589	 0.2880261312	 0.093849
H	-0.1075585832	-1.1569815619	-1.7583931001	 0.079331
H	 2.0636552578	-0.6850275177	-2.8682530093	 0.108675
H	 2.2370946756	 0.7393551558	-1.8418789564	 0.109604
H	 3.2805834228	-2.072266928	-1.295881563	 0.106756
H	 3.5556030748	-0.687050239	-0.2186779696	 0.109461
H	 1.3001230745	-2.5974816027	 0.1668440989	 0.085696
H	 1.8320526325	-1.3899735481	 2.6496441631	 0.066034
