19
gdb 93974	4.28264	0.98369	0.82673	3.6962	81.25	-0.2492	-0.0555	0.1937	1381.541	0.158841	-423.056388	-423.047731	-423.046787	-423.08976	32.355	
C	-0.0076848035	 1.5265644543	 0.0695387272	-0.403737
C	 0.0207067031	 0.0085282209	-0.0082930409	 0.133351
C	 0.7366613424	-0.5166681679	-1.263715028	-0.262969
C	 1.0477931996	-1.9760027678	-1.1254363864	-0.14423
C	 0.9738630555	-2.6084458915	 0.053143712	 0.190551
C	 0.6105499338	-1.8668230126	 1.3147996103	-0.168883
O	 0.6817283349	-0.4630859331	 1.1594970826	-0.259186
C	 1.2443513313	-4.0497955208	 0.140239843	 0.095386
O	 1.1830214876	-4.6937717838	 1.1644496614	-0.278031
H	 1.011768567	 1.9214134494	 0.1215240067	 0.12693
H	-0.5006153866	 1.9490192129	-0.8113721539	 0.115107
H	-0.5470884878	 1.8529922736	 0.9621709145	 0.127675
H	-1.0133281462	-0.3783896242	-0.0163353979	 0.069387
H	 0.1181308164	-0.3437298303	-2.1536977815	 0.11497
H	 1.6675921863	 0.0458320428	-1.4269220533	 0.125118
H	 1.3384696496	-2.5314780362	-2.0157504968	 0.103728
H	-0.3946120672	-2.1756808239	 1.6501484412	 0.110178
H	 1.3037631094	-2.1341933973	 2.1176320425	 0.135959
H	 1.5172022544	-4.5270784045	-0.8284783528	 0.068697
