17
gdb 78634	5.72436	0.94433	0.92148	3.8056	73.84	-0.2415	-0.0232	0.2183	1258.1134	0.135254	-421.749179	-421.74152	-421.740576	-421.781615	29.245	
O	 0.1192831291	 1.4617967382	-0.1060907771	-0.440688
C	 0.0970988183	 0.0577586988	-0.0278836285	 0.107922
C	 0.0088386161	-0.6044362852	 1.3632745633	-0.094016
C	-1.4996671508	-0.2077860389	 1.5245443385	-0.055343
C	-1.9000023253	-1.6642102218	 1.8929960378	-0.1077
C	-3.2925535088	-2.1134864435	 1.5708968692	 0.148896
O	-3.9931846315	-2.7550039637	 2.3148003303	-0.259674
C	-0.8167216696	-1.8035430885	 0.7878794125	-0.074607
C	-1.3115969926	-0.5393404105	-0.0006544468	-0.071297
H	 1.0278448294	 1.7598883991	 0.0013167595	 0.286151
H	 0.8025062566	-0.4042900265	-0.7343446169	 0.066495
H	 0.7457865787	-0.6633238147	 2.1656816999	 0.07674
H	-1.8863890742	 0.719407497	 1.9425048693	 0.094686
H	-1.6155692666	-2.00586442	 2.89270587	 0.083495
H	-3.6619861649	-1.8101182298	 0.5638677709	 0.068056
H	-0.4142808323	-2.7195462971	 0.3545383701	 0.084261
H	-2.0725384615	-0.5055328531	-0.779203842	 0.086625
