17
gdb 34472	1.90768	1.7225	0.92448	0.7526	95.35	-0.2161	-0.0423	0.1738	1238.1621	0.134753	-347.517798	-347.509044	-347.5081	-347.551157	33.147	
C	 0.1507134275	-1.2028582936	 0.0046663039	-0.363146
C	 0.0400014788	-0.0023327333	 0.0260515251	 0.120527
C	-0.0252211847	 1.406311788	 0.0551285426	 0.133849
C	-1.1489275036	 2.1644503726	 0.0754016897	 0.133848
C	-0.813655863	 3.6458749908	 0.0484805422	-0.312608
C	 0.6947049982	 3.676707269	 0.3837381899	-0.221495
C	 1.222065493	 2.2724212079	 0.0117534501	-0.312608
C	-2.4799490906	 1.6978193944	 0.0715120605	 0.120524
C	-3.6348578534	 1.3511789796	 0.0729574307	-0.363143
H	 0.2272979895	-2.2615357756	-0.0159311866	 0.187376
H	-1.02434228	 4.0547360243	-0.9491813916	 0.119065
H	-1.4221651145	 4.2197789246	 0.7538964044	 0.117614
H	 1.2262687772	 4.4784393735	-0.1342302681	 0.103513
H	 0.8241144827	 3.8397856968	 1.4581357257	 0.112629
H	 1.9992319121	 1.9114409863	 0.6921697736	 0.117614
H	 1.6551879464	 2.2469195502	-0.9975235445	 0.119065
H	-4.6454786556	 1.0260137045	 0.0719719025	 0.187375
