21
gdb 86351	2.57617	1.21421	0.9139	1.4183	84.28	-0.2502	0.0517	0.3018	1326.8844	0.180755	-387.048815	-387.039039	-387.038095	-387.083236	37.142	
C	-0.825088299	 1.3394032186	-0.1012305676	-0.408876
C	 0.003492796	 0.0624519918	-0.1265460195	 0.019422
C	 1.4086091027	 0.0936736888	-0.7914656467	-0.253835
C	 1.9345950576	-0.8250733032	 0.328492952	 0.147183
O	 3.2004597609	-0.4458962804	 0.8122593962	-0.434717
C	 0.6672440163	-0.4815947355	 1.1837073621	-0.063242
C	 0.9407284635	 0.5554251105	 2.2862998253	-0.366693
C	 1.6861780767	-0.0291465039	 3.3979625349	 0.28277
C	 2.2972830736	-0.5502466468	 4.2942517672	-0.436526
H	-0.2677334064	 2.1788927926	 0.3272290525	 0.115878
H	-1.1173996078	 1.62694403	-1.1171344981	 0.115277
H	-1.7439962247	 1.2132040282	 0.4825490632	 0.114441
H	-0.5963493329	-0.7409728257	-0.5676102728	 0.07404
H	 1.4985164924	-0.252349937	-1.8234371728	 0.097445
H	 1.875079342	 1.080144834	-0.7074453278	 0.1082
H	 1.9216771809	-1.8827982409	 0.0279709991	 0.064503
H	 3.3317631019	-0.8597117915	 1.673643927	 0.286527
H	 0.1633407875	-1.3418191112	 1.6329845377	 0.0717
H	 1.5084408948	 1.400960821	 1.8825120285	 0.141008
H	-0.008317103	 0.9592513875	 2.6594379862	 0.129122
H	 2.8283164772	-0.9854412471	 5.1043332935	 0.196374
