20
gdb 88634	3.39973	1.06612	0.97167	2.6855	80.99	-0.2622	0.0285	0.2908	1300.5322	0.171017	-403.140649	-403.131874	-403.13093	-403.174591	33.164	
C	 0.3071430956	 1.6298785716	-0.1919316202	-0.42061
C	-0.1051763323	 0.1956685266	 0.0654034897	-0.000861
C	 0.861877036	-0.9492763754	-0.1353743188	-0.301119
C	 0.3822488992	-0.6021913765	 1.2536473482	-0.028669
C	 1.3156455069	-0.0671238767	 2.3065411033	 0.0955
C	 2.2087121853	-1.0888429171	 3.0516042716	-0.372785
C	 3.3502102489	-0.2986503945	 2.4530926816	 0.442094
N	 4.6002442816	-0.3581032139	 2.5138788297	-0.538787
O	 2.5273642794	 0.5817735294	 1.7760322861	-0.259623
H	 1.3461597481	 1.8072568765	 0.0925084672	 0.145485
H	 0.1990771241	 1.8741823313	-1.2544139396	 0.115586
H	-0.3207412979	 2.3294583108	 0.371756741	 0.112472
H	-1.1333388145	-0.020177762	-0.215840601	 0.084335
H	 0.5105283696	-1.8664468351	-0.5948610069	 0.109779
H	 1.8856769492	-0.685491286	-0.3774708728	 0.128383
H	-0.3494580591	-1.2764378159	 1.6948730098	 0.091253
H	 0.8057970669	 0.6370324994	 2.9725214504	 0.096078
H	 2.1598779521	-1.079361824	 4.1412913235	 0.135454
H	 2.1352227374	-2.1149386884	 2.6863079171	 0.138985
H	 5.0342611835	 0.3797977499	 1.9566254601	 0.227051
