21
gdb 55016	2.81714	1.04676	0.9303	2.5	84.96	-0.2389	-0.0095	0.2294	1385.1553	0.181229	-387.090309	-387.080817	-387.079873	-387.125335	35.18	
C	-0.2760731763	 1.4853350111	-0.04696111	-0.483783
C	 0.0912284073	 0.0169082034	 0.0689096834	 0.394898
O	 0.3928869223	-0.4809860201	 1.1358181676	-0.330162
C	 0.0531056482	-0.7660612597	-1.1994251526	-0.136208
C	 0.8622401574	-2.049324948	-1.2873107583	-0.303769
C	-0.6243656906	-2.1508348842	-1.2282201008	-0.007399
C	-1.3381480523	-2.715704926	-0.0435067865	 0.01913
C	-2.8469688611	-2.7593299633	-0.0244499046	-0.271501
C	-2.0583805306	-4.036249824	-0.1772644654	-0.27625
H	 0.4158286079	 1.9957019936	-0.7270937942	 0.137938
H	-1.2790849364	 1.592771519	-0.4756710046	 0.139335
H	-0.2403484521	 1.9572205157	 0.9354078988	 0.139073
H	-0.0548386593	-0.1776809183	-2.1045770593	 0.082997
H	 1.375021276	-2.2567997353	-2.2197736008	 0.11344
H	 1.4101633153	-2.3005071383	-0.3852261543	 0.138712
H	-1.122209669	-2.3520533163	-2.1745842669	 0.085843
H	-0.8500031541	-2.5230232343	 0.9041370815	 0.117984
H	-3.3541935867	-2.5722702394	 0.9155230774	 0.113681
H	-3.3773705152	-2.3874559457	-0.8955831232	 0.10537
H	-2.0602495084	-4.5181454521	-1.1498305882	 0.107662
H	-2.0209503224	-4.726732428	 0.657941591	 0.113008
