16
gdb 92838	2.31882	1.73633	1.60896	1.7074	64.33	-0.2539	-0.0134	0.2405	927.5279	0.124261	-474.976957	-474.969143	-474.968199	-475.008898	30.226	
O	 0.1290344655	 1.4065589055	-0.0173856495	-0.435358
C	 0.045561599	-0.0029873624	-0.0546599575	 0.061381
C	 0.4854275258	-0.6473521642	 1.3127008585	-0.204441
N	-0.7251712073	-0.5564084306	 2.2068863739	-0.316934
C	-1.6667970615	-0.5487130794	 1.3648239379	 0.331956
O	-2.9527705591	-0.0833857819	 1.3273459467	-0.274574
C	-2.7381125049	 0.2686692342	-0.1130807623	-0.180814
C	-1.4064067473	-0.5398183985	-0.1077687555	 0.284539
O	-1.4066467653	-1.7526513434	-0.8213352172	-0.479754
H	-0.1090300291	 1.69999869	 0.869997104	 0.295437
H	 0.6326778496	-0.3399506233	-0.9114742761	 0.104967
H	 0.8179029409	-1.6834651675	 1.1909320802	 0.126375
H	 1.3018828448	-0.0763460922	 1.762882118	 0.12194
H	-3.5346470301	-0.1405979036	-0.7363374009	 0.128247
H	-2.6479774816	 1.350696587	-0.217942084	 0.143171
H	-2.1226114793	-2.3115590397	-0.4985499361	 0.293863
