19
gdb 40051	3.20832	1.57045	1.46143	1.7794	73.64	-0.2465	0.0893	0.3357	979.8263	0.161855	-423.018393	-423.011423	-423.010479	-423.049668	28.589	
C	 0.0145026414	 1.5184570483	-0.0055262737	-0.318941
C	 1.3148387145	 0.7462418303	-0.0258063995	-0.329698
C	 0.0008909329	 0.0203020938	 0.0275122991	 0.401484
C	-0.4585870406	-0.832376148	 1.2259808018	-0.329307
C	-1.181294739	-1.9714969964	 0.4702834092	 0.040016
C	-2.4622215089	-1.4136882804	-0.1849216471	-0.082723
O	-1.924289673	-0.6326299532	-1.2652446209	-0.269594
C	-0.5123464161	-0.8063913946	-1.1497824206	 0.080493
O	-0.3545721242	-2.1381430684	-0.6970652135	-0.247201
H	-0.2498280486	 2.0527478986	 0.9012610309	 0.111434
H	-0.3077446468	 2.0098164074	-0.9179962069	 0.119589
H	 1.8834906699	 0.7203322389	-0.9504137557	 0.113353
H	 1.9271587062	 0.7498054319	 0.8705393156	 0.110998
H	 0.3885710416	-1.2269472043	 1.7938637485	 0.109851
H	-1.1207033213	-0.2982098979	 1.9133188536	 0.104441
H	-1.2891678963	-2.9172302925	 0.9986132623	 0.088966
H	-3.1014668647	-2.2065451701	-0.5892064611	 0.106766
H	-3.0497225471	-0.7818180456	 0.4903249215	 0.101632
H	-0.0422773799	-0.6518730679	-2.1210073736	 0.088442
