16
gdb 77265	2.20794	1.31622	1.0331	5.9581	70.8	-0.2901	-0.0144	0.2757	1192.532	0.122354	-437.903886	-437.894703	-437.893758	-437.938642	31.749	
C	-0.1093090403	 1.5679606064	 0.0781556349	-0.410679
C	-0.0293855604	 0.0595401252	 0.0232724114	-0.066712
C	 0.4210093387	-0.6485940997	-1.2101645416	 0.090456
O	 0.7605184628	 0.1578613799	-2.3033893684	-0.186036
C	 1.7218459432	-0.3142583013	-3.1461312577	 0.184264
O	 2.0130322665	 0.2557253572	-4.1486173673	-0.253351
C	 1.3226332248	-0.6648842094	 0.0275436932	-0.242002
C	 2.5437983118	 0.0852130976	 0.0218023853	 0.304892
N	 3.537187022	 0.6783848023	 0.0127666491	-0.33372
H	 0.6762001829	 2.0350452935	-0.5175014254	 0.161025
H	-1.0746092227	 1.9063979283	-0.3097209751	 0.135599
H	-0.0130343711	 1.9165280196	 1.1102742378	 0.135547
H	-0.794804135	-0.4618918954	 0.5903913655	 0.11591
H	-0.0477669846	-1.5901561163	-1.4827624171	 0.127598
H	 2.1727034081	-1.2589528733	-2.7924728622	 0.094808
H	 1.3830040534	-1.6046088348	 0.5664927775	 0.142402
