18
gdb 33215	5.61689	0.66664	0.63388	3.0248	74.58	-0.2361	0.0063	0.2424	1729.5242	0.148205	-439.113012	-439.104106	-439.103162	-439.148079	31.316	
O	-0.0848828914	 1.4648831606	 0.2775093634	-0.419976
C	 0.005917488	 0.059660845	 0.1113827498	-0.074293
C	-1.4116079667	-0.4951453202	 0.0634367404	-0.163631
C	-1.4362452283	-2.0241334061	-0.1125744426	-0.331765
C	-2.8087834568	-2.5945945538	-0.1447415128	 0.348248
C	-3.5584103601	-3.2506256453	-1.0648053141	-0.197471
N	-4.8085464468	-3.5473882773	-0.5303208889	-0.255804
C	-4.755664383	-3.0642674919	 0.6653685393	 0.070428
O	-3.5818897629	-2.4696131128	 0.9849398299	-0.179635
H	 0.8065269197	 1.8241219056	 0.3074551568	 0.286914
H	 0.5392382066	-0.2001228144	-0.8185048876	 0.084489
H	 0.5595168822	-0.4074186436	 0.9431265342	 0.085639
H	-1.9304851173	-0.2196899154	 0.9873949124	 0.123242
H	-1.9531740455	-0.0166767273	-0.7598259629	 0.115154
H	-0.9385098777	-2.3047633379	-1.0475074927	 0.119327
H	-0.8641423292	-2.4936537064	 0.6993142394	 0.119968
H	-3.290936509	-3.5323624099	-2.0709571236	 0.12127
H	-5.5166838118	-3.075314499	 1.4297190997	 0.147896
