14
gdb 24985	4.75833	1.29458	1.03445	4.5539	63.75	-0.1952	0.0342	0.2294	1068.9148	0.103041	-473.854751	-473.847733	-473.846789	-473.886392	26.312	
O	-0.0004169681	 0.016560032	 0.1597966592	-0.381707
C	-0.0254424822	 1.2108934508	 0.0815522665	 0.460348
N	-1.1345240524	 2.0437310644	-0.1307767645	-0.494799
C	-0.6908835371	 3.3450181514	-0.0458000402	 0.42994
C	 0.6195877442	 3.3446799757	 0.167876619	 0.148225
C	 1.1880779829	 4.68783773	-0.1455070824	-0.350092
C	-0.170816806	 5.4768857244	-0.1627984141	-0.093327
O	-1.2764955105	 4.5171466163	-0.3521073375	-0.280088
O	 1.0811961748	 2.0339353941	 0.2150535562	-0.243937
H	-2.0744114474	 1.6882038794	-0.0993049107	 0.284325
H	 1.861737742	 5.112824377	 0.6052393104	 0.127847
H	 1.7037710327	 4.7230221899	-1.1153794414	 0.124074
H	-0.3383437724	 5.9687426032	 0.7990615875	 0.133684
H	-0.2468489704	 6.2067996715	-0.9683324781	 0.135508
