20
gdb 117989	3.49116	0.73194	0.68952	4.4652	75.96	-0.2741	0.0338	0.3079	1666.9355	0.168521	-440.292819	-440.281921	-440.280977	-440.329517	38.132	
C	 0.115363507	 1.5886122378	 0.0281302924	-0.414879
C	-0.0089579965	 0.0523531994	 0.0312839254	-0.1524
C	 0.7137907662	-0.5090062691	 1.1777550428	 0.274974
N	 1.2937074899	-0.9507588103	 2.074332442	-0.322865
C	-1.479637757	-0.4626947272	 0.0335469551	 0.11845
O	-2.1919721334	 0.0001853843	 1.1694503803	-0.42613
C	-2.2074032961	-0.1492174529	-1.2768512036	-0.212772
C	-3.5763125221	-0.8168847751	-1.3557695108	-0.079686
O	-4.1708550391	-0.4209760347	-2.5815453706	-0.42206
H	 1.1658133343	 1.8874019684	 0.0350957184	 0.145752
H	-0.3525169438	 2.0135217514	-0.8633499498	 0.131963
H	-0.3551778636	 2.0173133261	 0.9172166867	 0.136395
H	 0.4725622372	-0.3430349383	-0.8721475123	 0.127043
H	-1.4369545066	-1.5505501212	 0.1620031598	 0.110065
H	-2.4034467633	 0.9308148786	 1.0369991845	 0.286095
H	-2.3440839139	 0.9340147789	-1.3894235283	 0.106141
H	-1.6031152948	-0.4793004663	-2.1299201521	 0.112364
H	-3.4556528809	-1.9112188507	-1.3022540862	 0.091064
H	-4.1833615071	-0.513350276	-0.4912147221	 0.10137
H	-5.0470255663	-0.813985323	-2.6314552715	 0.289117
