15
gdb 49265	2.82629	1.3522	0.91999	6.2404	76.41	-0.2043	-0.0417	0.1626	1180.6855	0.114124	-454.007647	-453.999508	-453.998563	-454.041718	29.248	
O	-0.0126431034	-0.0658474445	-0.1819318289	-0.330831
C	-0.0183672769	 1.1538767833	-0.1535344642	 0.083773
C	 1.1682105313	 1.9486298829	 0.0288093683	 0.215368
C	 1.1633180448	 3.3036776624	 0.067655702	-0.042225
N	 2.3001805224	 4.0139687553	 0.2511510642	-0.323535
C	 3.6155128869	 3.3896580904	 0.3364772593	-0.27319
C	 3.5972715276	 1.8517020386	 0.3425034823	 0.412358
O	 4.640958202	 1.2469442212	 0.474673054	-0.364534
N	 2.3845952022	 1.2611996495	 0.1833051848	-0.414597
H	-0.9548047497	 1.7396453826	-0.2673471948	 0.067679
H	 0.2408792135	 3.8605388546	-0.0382423531	 0.140988
H	 2.2549809921	 5.0186985278	 0.2502649614	 0.261738
H	 4.2522451757	 3.689977436	-0.5066114006	 0.146212
H	 4.1337334797	 3.6991099112	 1.2517082604	 0.148918
H	 2.3337429219	 0.2499894688	 0.1638082849	 0.271877
