13
gdb 133296	2.5171	1.6356	0.99753	1.1096	68.68	-0.2582	-0.0967	0.1615	1086.0564	0.086314	-493.971083	-493.962953	-493.962009	-494.004856	28.294	
C	 0.0824206664	 1.4191926062	 0.1012466276	-0.325035
N	 0.1350391909	-0.0348109743	 0.1000822071	-0.307602
C	 0.4466659051	-0.6258830147	-0.9717076131	 0.361503
O	 0.7409909366	 0.0311143106	-2.1454585708	-0.312654
N	 1.1032101813	-0.6830559855	-3.3877402546	 0.043286
N	 1.1392495411	-1.906143232	-3.3582689037	-0.089621
C	 0.8605623719	-2.6713020756	-2.2278057272	-0.111391
C	 0.5260541281	-2.077380714	-1.0718503144	 0.196138
F	 0.2584300223	-2.7701059527	 0.0080854087	-0.012941
H	 1.0524475597	 1.859408732	-0.1632974825	 0.135029
H	-0.6491474021	 1.7981560256	-0.6239581016	 0.13503
H	-0.199806439	 1.7627258835	 1.0980105662	 0.128524
H	 0.9320561777	-3.742638079	-2.3493971417	 0.159734
