19
gdb 100511	2.63018	1.07297	0.8414	1.8619	73.56	-0.2541	-0.0956	0.1586	1416.8433	0.154995	-460.198972	-460.188288	-460.187344	-460.235756	37.085	
C	-0.0112975914	 1.5682846774	 0.0384876696	-0.38265
C	-0.0758215165	 0.0569893316	-0.1904585583	-0.199421
C	 0.8333483411	-0.3763599463	-1.3662695512	 0.056601
O	 2.1694871914	 0.0060359039	-1.1516206004	-0.437451
C	 0.7610287188	-1.8817178657	-1.5595558727	 0.246296
O	 1.7080171349	-2.5920506775	-1.2948689078	-0.310544
C	-0.5404737371	-2.5004820797	-2.1145298534	 0.319073
C	-0.5867949611	-4.005686607	-2.1705576307	-0.475048
O	-1.4320736035	-1.7747545819	-2.4888534786	-0.274132
H	 1.0191178973	 1.8848464062	 0.2156852916	 0.140288
H	-0.3895861387	 2.1134824472	-0.8330751729	 0.118274
H	-0.6170718196	 1.8554156332	 0.9030561504	 0.11254
H	 0.2550234912	-0.4732993067	 0.7115228219	 0.099926
H	-1.1031164472	-0.2539689942	-0.4031249	 0.120121
H	 0.4599283105	 0.1044568244	-2.2813411057	 0.109424
H	 2.6535018463	-0.8100862486	-0.9551566124	 0.291293
H	-0.4715923202	-4.4208513897	-1.1635833477	 0.157184
H	-1.5321244041	-4.3281762899	-2.6068753001	 0.146196
H	 0.2570274677	-4.3860074668	-2.7543747415	 0.162027
