19
gdb 87631	2.64443	1.39089	1.17498	1.47	77.98	-0.2259	0.0226	0.2485	1123.3384	0.159087	-423.013424	-423.004854	-423.003909	-423.04649	33.394	
O	-0.1385727438	 1.3947036801	-0.1310169141	-0.426841
C	-0.0705017338	 0.0003407916	-0.0273261364	 0.053675
C	-0.483969529	-0.670767174	 1.2520854708	-0.388591
C	-1.3824920306	-0.7289083352	 0.0171855327	 0.281689
C	-2.6893996017	-0.0226764302	-0.018026833	-0.125521
C	-3.6530724043	-0.8074828881	-0.5042773608	-0.10367
C	-3.1364457772	-2.184574621	-0.848531041	-0.290491
C	-1.5906699911	-2.0272512561	-0.784550616	 0.025739
O	-1.0028265317	-1.960126916	-2.0786442636	-0.427043
H	 0.5949449601	 1.7642247219	 0.3716142446	 0.288623
H	 0.7171438992	-0.4691519204	-0.6154677425	 0.100387
H	 0.0299214104	-1.5772904536	 1.5568545806	 0.113683
H	-0.8123942626	-0.0305996993	 2.0646368501	 0.11317
H	-2.8003326902	 1.0016784819	 0.3137964107	 0.107492
H	-4.692358061	-0.5213880065	-0.6193304871	 0.092982
H	-3.4957383229	-2.9329653544	-0.1290027465	 0.108213
H	-3.4331576345	-2.5380372276	-1.8422123047	 0.109228
H	-1.1118134079	-2.8874885077	-0.3099419381	 0.083836
H	-1.3242525473	-1.1535435253	-2.4981123854	 0.28344
