15
gdb 29161	3.17251	1.39439	0.97084	4.4821	75.34	-0.1892	-0.034	0.1552	1138.7817	0.114069	-454.000199	-453.992237	-453.991293	-454.032262	31.103	
N	 0.0167442637	 1.4461363039	 0.166487039	-0.591094
C	 0.0054517278	 0.0443810417	 0.0350734942	 0.210606
C	-1.1322203944	-0.6845651525	 0.0002688569	-0.03741
O	-1.1152845312	-2.0521255045	-0.0203528688	-0.210047
C	 0.032032459	-2.7783930237	-0.0524115464	 0.417904
O	-0.0156038095	-3.9897428963	-0.0606803487	-0.381811
C	 1.2896338109	-2.0135033286	-0.0574165351	 0.152898
N	 2.4104066784	-2.8023073764	-0.1541447244	-0.575236
C	 1.2582402398	-0.6540025947	 0.0084281098	-0.211271
H	 0.6992756414	 1.8877990536	-0.4375717501	 0.246606
H	-0.8903622472	 1.8651933658	 0.0054038512	 0.244819
H	-2.1400534048	-0.2941634586	 0.008841751	 0.118316
H	 2.231889431	-3.7761732682	 0.0492527706	 0.271403
H	 3.2785366167	-2.432462653	 0.1977990601	 0.253022
H	 2.1796793383	-0.0797434783	 0.0467456806	 0.091295
