19
gdb 104825	1.97204	1.45893	1.21463	2.3484	71.69	-0.2526	-0.0304	0.2221	1161.5795	0.1567	-460.159819	-460.150149	-460.149205	-460.194582	34.901	
C	 0.1621640466	 1.5277568197	 0.2176995195	-0.393239
C	-0.2340447762	 0.0896107266	-0.1381580205	-0.2339
C	 0.5488357823	-0.4923787937	-1.3164725774	 0.254149
C	 0.219774941	 0.1273688003	-2.6754987515	-0.117864
O	 1.1051823035	-0.3355327506	-3.6738550513	-0.422992
O	 2.0011732373	-0.462900041	-1.0955446994	-0.3411
C	 2.1371012169	-1.9021446222	-1.0976362407	-0.202893
C	 0.6309514865	-2.0323202068	-1.3336928216	 0.342393
O	-0.1533586872	-2.9216044228	-1.4511315016	-0.285874
H	 1.238188114	 1.5915952366	 0.4002221494	 0.139876
H	-0.0902164495	 2.2351896202	-0.5772956914	 0.122545
H	-0.3583639835	 1.8505263314	 1.1238182775	 0.119954
H	-0.0758494833	-0.5529348883	 0.7357821742	 0.107473
H	-1.3027785573	 0.0254634143	-0.3764901472	 0.117237
H	-0.7902951152	-0.1776242195	-2.9680950793	 0.131144
H	 0.2350619446	 1.224890744	-2.6018932014	 0.100738
H	 1.9903357116	-0.1299478501	-3.3481252109	 0.290433
H	 2.764387193	-2.2717561126	-1.9174589865	 0.136557
H	 2.5062605148	-2.2968329656	-0.1433431198	 0.135365
