25
gdb 109165	2.66291	1.09418	0.93593	0.2195	94.96	-0.2245	0.0327	0.2572	1440.9192	0.228956	-352.386751	-352.376553	-352.375609	-352.421706	38.852	
C	-0.3821854988	 1.8487589956	 0.366479093	-0.371717
C	-0.0768930618	 0.4280383666	-0.1414317242	-0.295542
C	-1.2662219062	-0.4888023721	-0.1070387747	 0.350974
C	-1.8771105002	-1.0350537745	-1.1616769584	-0.187454
C	-3.0348270383	-1.9176250363	-0.7692521449	-0.262059
C	-3.2814807266	-1.5136739531	 0.7063896783	 0.037552
C	-3.9374598923	-2.592371832	 1.5663801117	-0.413001
C	-1.903529672	-0.9653504662	 1.1947503929	-0.093641
C	-1.0074223169	-1.9974870855	 1.9051779388	-0.394637
H	 0.510349314	 2.4801869905	 0.3152263521	 0.110858
H	-1.1659402251	 2.3178502967	-0.2366628608	 0.118598
H	-0.722900766	 1.8395637737	 1.406604494	 0.11857
H	 0.3037881507	 0.4843886251	-1.1676926829	 0.098846
H	 0.736591669	 0.0062681634	 0.4652024746	 0.100758
H	-1.5682117891	-0.8918634089	-2.1927986725	 0.078568
H	-3.9253140682	-1.7696452603	-1.391845246	 0.095677
H	-2.7727299337	-2.9830338623	-0.8621982929	 0.096737
H	-3.9550147796	-0.6475260452	 0.680111094	 0.073225
H	-3.3289312462	-3.5012161923	 1.6153670339	 0.115142
H	-4.1024454915	-2.2451471734	 2.5924498755	 0.109218
H	-4.9127904946	-2.8728193508	 1.1539171668	 0.109692
H	-2.0629765418	-0.1338527967	 1.893443649	 0.064668
H	-0.8241829926	-2.8714778636	 1.2710922364	 0.116164
H	-0.0342068175	-1.5617850158	 2.153434124	 0.110795
H	-1.4596548748	-2.3434617625	 2.8397460222	 0.112009
