18
gdb 87442	4.38115	1.26098	1.1506	1.806	76.11	-0.2254	0.0812	0.3065	1094.2337	0.146825	-401.807914	-401.800558	-401.799614	-401.839554	29.411	
C	-0.1333532955	 1.4730165569	-0.0857696152	-0.316254
N	 0.0259462224	 0.0262062677	-0.015436447	-0.148653
C	 1.3873461694	-0.4959622288	-0.2510984047	-0.347509
C	 0.7707449546	-0.5166115436	 1.090685827	 0.41914
C	 1.1871288358	 0.0958550139	 2.4300385638	-0.225654
C	-0.037280304	-0.5616534086	 3.1561048793	 0.106759
O	 0.7621607904	-1.1824870787	 4.2033992482	-0.333696
C	 1.5619303378	-1.3165605528	 2.9918569451	 0.107533
C	 0.3430434423	-1.6142729158	 2.0579978308	-0.221675
H	 0.7384669718	 2.0333620305	 0.2906081836	 0.098887
H	-0.3041825603	 1.7666728184	-1.1261924917	 0.124905
H	-1.0100929608	 1.7710187089	 0.4986821938	 0.122465
H	 1.4495032567	-1.3924968163	-0.8628773541	 0.117165
H	 2.1809550187	 0.2304159565	-0.4267750926	 0.106972
H	 1.6656148763	 1.0415657246	 2.6789200513	 0.091076
H	-1.00789796	-0.1397551822	 3.4130847627	 0.104151
H	 2.5335356599	-1.804968928	 3.0503711393	 0.101994
H	-0.1312220555	-2.5770258125	 1.8770611103	 0.092393
