17
gdb 105978	4.32281	1.18238	1.17123	1.3023	72.05	-0.2195	0.0737	0.2932	1103.5501	0.133521	-421.691363	-421.68337	-421.682425	-421.723725	31.113	
C	 0.1515121204	 1.3324565674	-0.1482467008	-0.257253
O	-0.1482802523	-0.0244608475	 0.1522190861	-0.275142
C	 0.567748464	-0.5204201872	 1.1991391794	 0.450391
C	 2.0349024485	-0.9332893599	 1.3213050876	-0.176566
C	 1.9818204485	-0.6724799786	 2.8518484921	-0.131328
C	 0.5134458165	-0.225085569	 2.7426124249	-0.296252
C	 0.8713889504	-1.6844952322	 3.0045615442	 0.397516
O	 0.6185485064	-2.4895703289	 4.0820795972	-0.450519
C	 0.9029044841	-1.9676435327	 1.4588360224	-0.281333
H	 1.2133210086	 1.4576949881	-0.396907522	 0.116332
H	-0.4609537887	 1.6094958338	-1.0085822004	 0.128608
H	-0.0927211694	 1.992547091	 0.6949730875	 0.116532
H	 2.8460187338	-0.9255867918	 0.6051492299	 0.089399
H	 2.727506878	-0.3433675718	 3.5630926701	 0.092603
H	-0.0238951795	 0.4831748182	 3.359213879	 0.092051
H	-0.3346726679	-2.6213464578	 4.1483550213	 0.28884
H	 0.7082138385	-2.8390864812	 0.8483434017	 0.096124
