13
gdb 19215	3.35976	2.00939	1.48803	2.5563	63.61	-0.2697	-0.0214	0.2483	821.3542	0.096492	-357.605813	-357.59917	-357.598226	-357.636864	24.536	
N	-0.1643923061	 1.2497039829	-0.0011762384	-0.489498
C	-0.0337219658	 0.006756393	 0.0107917796	 0.372228
C	 1.1171170395	-1.0398129307	 0.0815952392	-0.276751
C	 2.0237499546	-1.0216301611	 1.2167886301	 0.282965
N	 2.7244369174	-0.9847738531	 2.1356633497	-0.318304
C	-0.0176561959	-2.0718025056	 0.0401237239	-0.034973
C	-1.0253524605	-1.8153296433	 1.0770033473	-0.241252
N	-1.0704118347	-0.9841329582	-0.1642411862	-0.131703
H	 0.7280299317	 1.7275633634	 0.1283625178	 0.244498
H	 1.6860610084	-1.0220484409	-0.8529659191	 0.158857
H	-0.006428233	-2.9564225348	-0.5836179969	 0.129761
H	-1.8657686161	-2.4974151722	 1.1420089585	 0.150036
H	-0.7430553195	-1.3402572195	 2.0124419448	 0.154135
