20
gdb 90123	3.33823	1.45651	1.41693	2.0442	81.1	-0.2048	0.0691	0.2739	1033.7418	0.17181	-403.030151	-403.022813	-403.021868	-403.061438	30.373	
C	-0.0871179744	 1.6418464479	 0.0812033825	-0.320598
N	 0.0009492707	 0.1988135954	 0.0100091839	-0.107757
C	-1.2149470672	-0.5997634463	 0.4604793208	-0.260766
C	-0.1971905958	-1.64308309	 0.9861744517	 0.354808
C	 0.6325862689	-2.3448966404	 2.1031204747	-0.327593
C	 1.81615324	-1.6619871	 1.2391000846	-0.141409
C	 1.6505487297	-2.4066326979	-0.0756590192	-0.071496
O	 0.2178380431	-2.3935916527	-0.1811302147	-0.291726
C	 0.7612525323	-0.4926772433	 1.0851342988	 0.056156
H	 0.88261233	 2.0808080113	-0.1758187409	 0.122599
H	-0.8222340438	 2.0054870176	-0.6444744192	 0.121751
H	-0.3802858582	 2.0165820847	 1.0815235224	 0.08567
H	-1.7745526078	-0.0884268903	 1.2560534607	 0.095451
H	-1.8798812377	-0.9159897205	-0.3459491711	 0.120251
H	 0.5323939922	-1.909469508	 3.0969576119	 0.111063
H	 0.6161320901	-3.4365045382	 2.1384053232	 0.108805
H	 2.819779791	-1.5204091654	 1.6410878137	 0.074415
H	 2.0988730252	-1.881189824	-0.9272238548	 0.105865
H	 2.0249555148	-3.4370754985	-0.0486783613	 0.095758
H	 0.6705098168	 0.0444891686	 2.0399925024	 0.068753
