19
gdb 76249	2.43503	1.41474	0.97518	4.7901	79.25	-0.2526	-0.0238	0.2288	1232.0852	0.158537	-419.239853	-419.230424	-419.22948	-419.274291	33.995	
C	-0.5004046351	 1.3514132736	 0.1835556104	-0.404702
C	-0.0458435895	-0.0831442579	-0.0366795726	 0.020688
C	 0.8344943811	-0.4210334151	-1.3012641086	-0.11619
C	 1.1669999252	 0.6719828374	-2.3093560233	-0.405049
C	 1.9393865597	-0.8044819111	-0.3199831198	 0.402114
N	 3.1208825327	-1.2132624563	-0.4560028981	-0.545073
N	 1.1096245575	-0.51057012	 0.7889890344	-0.104431
C	 1.3099454278	-0.6567125528	 2.1312523784	 0.132884
O	 2.3457948855	-1.0484265441	 2.6244959179	-0.306823
H	 0.3349763691	 2.0530612578	 0.1177136126	 0.133109
H	-1.2481558229	 1.6301249142	-0.5655649092	 0.131479
H	-0.9617146797	 1.4651242148	 1.1696947037	 0.12749
H	-0.8933583592	-0.7680703408	 0.0741500659	 0.097931
H	 0.449907922	-1.3030604878	-1.8220809752	 0.108142
H	 1.5695808057	 1.566284135	-1.826145938	 0.126274
H	 1.9266850892	 0.304179332	-3.0043221818	 0.147181
H	 0.2846681709	 0.9601090436	-2.8892325439	 0.119385
H	 3.5564152007	-1.364712231	 0.4554811369	 0.249246
H	 0.4184998594	-0.3775083614	 2.7267270203	 0.086343
