17
gdb 37160	4.17264	1.84433	1.64147	1.7667	74.66	-0.2312	0.0752	0.3064	841.2789	0.138855	-380.707646	-380.701997	-380.701053	-380.737208	25.007	
C	 0.0763506094	 1.4665397612	 0.1218413388	-0.239757
C	 1.3050897052	 0.638721736	-0.0014994226	-0.186245
N	-0.0558737028	 0.0010032456	-0.0024927463	-0.122266
C	-0.1914789329	-0.5126946424	-1.4169451246	-0.053321
C	 0.517638964	 0.4517849506	-2.372239175	-0.034151
N	 1.3844127409	-0.57642831	-3.1393238772	-0.195063
C	 2.6440333363	 0.1541712557	-2.6398287884	-0.272909
C	 1.724771062	 0.2837943055	-1.4115574994	 0.284406
C	 1.1758412602	-1.1426072761	-1.7180912503	 0.004927
H	-0.2114196927	 1.858342813	 1.093849843	 0.120592
H	-0.208513614	 2.0982240295	-0.7150589578	 0.116299
H	 1.9381882039	 0.4263163102	 0.8539590632	 0.10145
H	-1.1575268419	-0.9836082638	-1.5936359037	 0.081958
H	 0.1822523222	 1.3608986839	-2.8706502149	 0.08684
H	 3.521963639	-0.4939310303	-2.5605421366	 0.110133
H	 2.8753851414	 1.0594048728	-3.2091135072	 0.108805
H	 1.5987270199	-2.1003504112	-1.414457971	 0.088303
