21
gdb 9257	3.51889	1.00026	0.82722	2.8373	80.42	-0.2435	0.0303	0.2738	1466.0799	0.18577	-366.271958	-366.261736	-366.260792	-366.307637	35.703	
C	-0.0063666471	 1.5414758192	-0.0739302007	-0.390902
C	-0.0247609137	 0.0135441613	 0.0050723249	-0.174274
C	-1.4323072602	-0.5777779218	 0.0602940697	 0.127413
C	-1.4394030486	-2.1043903226	 0.0639850109	-0.394217
O	-2.0467364523	-0.0853429048	 1.2655073951	-0.212616
C	-3.3859020462	 0.0486306539	 1.2628483659	 0.132677
N	-4.0111269746	 0.331576564	 2.3172068132	-0.211707
C	-5.4449261818	 0.4989807578	 2.2139352308	-0.313742
H	 1.0197615409	 1.9196139383	-0.0981989869	 0.114293
H	-0.5137316375	 1.8981191557	-0.9775928934	 0.109786
H	-0.5108902544	 1.9791894821	 0.7910494258	 0.14115
H	 0.4873575978	-0.4175137451	-0.8633872306	 0.097756
H	 0.5228327045	-0.3243892789	 0.8931653018	 0.111676
H	-2.0114653854	-0.2081817378	-0.7999301577	 0.078426
H	-2.4612646153	-2.4916848518	 0.1188802146	 0.12006
H	-0.9760474511	-2.4928646562	-0.8483256587	 0.11827
H	-0.884157769	-2.4846171477	 0.9267172467	 0.132979
H	-3.8551893884	-0.0907766893	 0.2746651676	 0.06904
H	-5.7238071707	 1.5091974483	 2.5357895003	 0.125937
H	-5.8450269693	 0.3398607354	 1.1983221158	 0.092529
H	-5.9477165677	-0.1992529298	 2.8931375949	 0.125465
