12
gdb 20524	5.06826	1.59252	1.22085	1.4105	56.88	-0.2797	-0.0847	0.195	902.8514	0.082898	-414.637371	-414.630403	-414.629459	-414.66928	24.023	
C	-0.0339993513	 1.4961861898	 0.0093475851	-0.485616
C	 0.0356966261	-0.0106090205	 0.0029120776	 0.317287
O	 1.0706413586	-0.6392364986	-0.0092643269	-0.287808
C	-1.2549978886	-0.757974696	 0.0097635277	 0.24044
N	-2.4340991344	-0.1882633473	 0.0217742678	-0.139798
O	-3.3372294271	-1.1988261148	 0.0245868945	-0.139605
N	-2.7181504287	-2.4281217213	 0.0139454644	-0.058623
C	-1.4428712093	-2.1709530528	 0.0047655449	-0.090868
H	 0.9764894328	 1.9047043235	 0.0018044332	 0.148396
H	-0.5939432775	 1.8521040884	-0.8615988622	 0.160099
H	-0.5779498227	 1.845139043	 0.8931587227	 0.160035
H	-0.701729948	-2.9536021435	-0.0047682688	 0.17606
