17
gdb 68804	2.91876	1.2962	1.0851	4.2253	73.87	-0.2356	0.0148	0.2504	1142.7024	0.135083	-417.970828	-417.962089	-417.961145	-418.003995	32.862	
C	-0.0320635006	 1.5505646767	 0.0952501024	-0.508115
C	 0.0295342613	 0.0576162469	 0.0901915502	 0.301702
C	 1.2079126842	-0.7774214242	-0.3532577064	-0.378836
C	 0.6327035894	-0.9734482748	 1.0271217126	 0.314153
O	 1.3392216964	-0.8262976314	 2.1972670431	-0.45469
C	-0.7071883617	-1.7325101454	 0.9387028737	-0.197025
N	-1.185139733	-0.7766893459	-0.1217292192	-0.350909
C	-0.6814229236	-3.1415804421	 0.5441538642	 0.29087
N	-0.6215272404	-4.2573011114	 0.2478859497	-0.327393
H	 0.9372527931	 1.9743103531	 0.3711369592	 0.138531
H	-0.2984706706	 1.9324712701	-0.8967250094	 0.138427
H	-0.7762215364	 1.9162857418	 0.8122432748	 0.122777
H	 1.0901285828	-1.5258647055	-1.1323359657	 0.133914
H	 2.1570353552	-0.2498421717	-0.3447866907	 0.120999
H	 2.0815734935	-1.4418996914	 2.1920925986	 0.297019
H	-1.2557732159	-1.6296799917	 1.8799010546	 0.13071
H	-2.0155463736	-0.295175953	 0.2132488683	 0.227866
