23
gdb 120493	2.56673	0.97955	0.90611	0.6629	82.76	-0.2447	0.072	0.3166	1463.1329	0.204108	-425.402231	-425.391811	-425.390867	-425.437772	38.088	
C	 0.526963128	 1.2587343754	-0.2029159363	-0.224903
O	 0.1974716142	-0.0932514384	-0.0054078969	-0.235571
C	 0.8535225186	-0.6593271543	 1.1140557959	-0.070553
C	 0.4420899221	-2.1191261216	 1.2076765624	-0.026189
C	 1.0684317158	-3.0132893923	 0.0990287312	-0.253545
C	 2.1278492226	-3.5075898091	 1.121812298	 0.106179
O	 3.3391617051	-2.7675661126	 1.0888169971	-0.429252
C	 1.219018675	-2.9747367883	 2.2644623751	 0.013539
C	 1.856948223	-2.3417136421	 3.4932944167	-0.413155
H	 1.6067824008	 1.3980007873	-0.374257969	 0.100138
H	-0.0173185152	 1.6058124255	-1.0851584665	 0.122331
H	 0.2382543638	 1.882339029	 0.658913544	 0.100155
H	 1.9450825009	-0.5733231287	 1.0012681736	 0.099686
H	 0.571549105	-0.1171004465	 2.0333413597	 0.079402
H	-0.647989792	-2.164802148	 1.2839276233	 0.069204
H	 0.3994670839	-3.8147429681	-0.225932888	 0.095673
H	 1.4514948055	-2.4932880011	-0.7831534218	 0.09882
H	 2.3390523486	-4.5860039785	 1.1332575894	 0.056337
H	 3.7634925013	-2.9366704712	 0.2415321288	 0.28247
H	 0.5647405542	-3.7955835418	 2.5784723351	 0.073484
H	 2.5754947365	-1.5655126356	 3.2218844812	 0.133783
H	 1.0956412185	-1.8977873671	 4.143944929	 0.109385
H	 2.3941570837	-3.0952819219	 4.0792437782	 0.11258
