20
gdb 122101	1.92183	1.00628	0.74727	5.9382	76.97	-0.2486	0.0245	0.273	1565.1692	0.171389	-436.452785	-436.442424	-436.44148	-436.489069	36.68	
N	 0.1921507535	 1.3031544686	-0.3492964711	-0.516419
C	 0.0201539622	-0.1468660624	-0.2636726824	-0.180359
C	-1.4492896381	-0.459503477	 0.0993282916	-0.096235
N	-2.3261864296	 0.087421563	-0.9266327868	-0.304457
C	-3.7455296752	 0.1541269577	-0.5731403597	-0.164391
C	-4.5359160286	 0.5450330847	-1.8205188981	-0.055044
O	-4.3215141641	-0.3711150125	-2.8710795804	-0.418244
C	-1.6340318554	-1.9140141385	 0.2284712967	 0.300643
N	-1.7605472057	-3.0560878599	 0.3479560243	-0.323634
H	 0.3312101275	 1.7042962889	 0.5728009544	 0.238112
H	 1.0143889585	 1.5316502848	-0.8958164009	 0.245133
H	 0.2210625937	-0.5793424859	-1.2479428856	 0.136087
H	 0.678203376	-0.6447441278	 0.4618321819	 0.113723
H	-1.6509687169	-0.0277613043	 1.0990540596	 0.101368
H	-1.9641181605	 1.0170064779	-1.1312615036	 0.238374
H	-4.0638779026	-0.8434913201	-0.2501526004	 0.132363
H	-3.9540171528	 0.8573137409	 0.2523175948	 0.083121
H	-5.6080336314	 0.5521368074	-1.597097226	 0.108128
H	-4.2580120694	 1.5727968884	-2.1181954649	 0.077668
H	-3.3798225809	-0.5864020739	-2.8300797535	 0.284063
