15
gdb 77919	2.42647	1.47933	1.42454	3.9985	61.37	-0.237	-0.0124	0.2245	982.7395	0.110981	-494.845582	-494.83743	-494.836486	-494.877818	31.419	
O	 0.225145774	 1.3226506626	-0.2778740832	-0.44945
C	 0.0844762423	-0.0426683469	-0.0604271779	 0.104026
C	 0.0179840183	-0.6524479022	 1.395453808	-0.303084
C	-1.4542921585	-0.1213959301	 1.4946756203	 0.050497
O	-1.6856082459	 1.2753462901	 1.569268354	-0.450547
C	-1.3737780769	-0.6855197998	 0.0198024171	 0.202028
O	-2.3524575705	-0.7333761202	-0.9292139249	-0.458943
C	-0.6437210418	-1.8489640937	 0.6826744167	 0.406088
O	-0.5939607168	-3.0389951819	 0.664490198	-0.311519
H	-0.3755392355	 1.7720760112	 0.3347176355	 0.291202
H	 0.7721636757	-0.5475133398	-0.7416539178	 0.110942
H	 0.7832213296	-0.6553203023	 2.1640638083	 0.102056
H	-2.1190234137	-0.6562029008	 2.1807113429	 0.104048
H	-1.5662951881	 1.5540354721	 2.483351486	 0.301627
H	-2.4351700123	 0.1422496716	-1.326299953	 0.301029
