22
gdb 120893	5.6852	0.70904	0.69037	2.424	84.59	-0.2394	0.0785	0.3178	1726.1662	0.193373	-404.305291	-404.295787	-404.294843	-404.34032	35.382	
C	 0.5794382803	 1.2500129095	-0.2482754413	-0.384849
C	 0.0818530673	-0.1123963465	 0.203844972	-0.040535
O	-1.2035157257	-0.3275328479	-0.349271463	-0.251212
C	-1.7599428677	-1.5681972877	-0.0173117421	 0.163895
C	-2.3512663604	-1.7572860265	 1.4193867226	-0.348669
C	-3.5853306359	-2.3685649247	 0.745117829	 0.368785
C	-4.179004508	-3.6901080845	 1.0412112695	-0.305288
N	-4.9520667769	-2.443539596	 1.2412376706	-0.364202
C	-3.1671459976	-1.7998956634	-0.6136872124	-0.326376
H	 1.5750512946	 1.4480944741	 0.159881758	 0.11362
H	 0.6349596767	 1.2946296878	-1.3396296243	 0.127276
H	-0.0987306141	 2.037872044	 0.0916535298	 0.126569
H	 0.7720480685	-0.9072793669	-0.1265350057	 0.085404
H	 0.0387328348	-0.1612773206	 1.3041653422	 0.088699
H	-1.0643446496	-2.3837644784	-0.2668719151	 0.065305
H	-1.7992881622	-2.370723203	 2.1361782456	 0.09815
H	-2.572063513	-0.780345262	 1.8637676145	 0.108293
H	-4.5402271972	-4.3227440931	 0.2340948245	 0.117328
H	-3.8210074446	-4.2305309356	 1.9146918825	 0.108313
H	-4.9787341148	-2.206483069	 2.2306456091	 0.227661
H	-3.6531850413	-0.8410402762	-0.81565183	 0.119136
H	-3.2490716433	-2.4431640834	-1.4921550161	 0.102698
