12
gdb 132707	5.50542	1.0193	0.86006	1.9942	66.58	-0.2651	-0.0908	0.1743	1186.7895	0.077783	-476.822687	-476.815807	-476.814863	-476.854559	24.82	
F	 0.0251647912	 0.0476706329	 0.0029236792	-0.048592
C	-0.0002074246	 1.3681645062	 0.0102945394	 0.329018
C	-1.2448729816	 2.0202746546	 0.0304126136	-0.130916
N	-1.3097700097	 3.3377072821	 0.0383171075	-0.252842
C	-0.1407674208	 4.0058492172	 0.0262659539	 0.206448
C	-0.1588957782	 5.4959560222	 0.034461116	 0.106545
O	-1.1529306323	 6.173378066	 0.0514066218	-0.240667
C	 1.0759603626	 3.3283175872	 0.0063896081	-0.045735
N	 1.1512684208	 1.9915708203	-0.0017591577	-0.289041
H	-2.1682401398	 1.4484043883	 0.0397019168	 0.146
H	 0.8574595979	 5.9502663242	 0.02335999	 0.080628
H	 2.0186704345	 3.8697230488	-0.0033213984	 0.139153
