17
gdb 128179	4.15041	1.21499	0.95893	4.7991	78.05	-0.1943	0.0159	0.2101	1216.152	0.138169	-414.139164	-414.13113	-414.130186	-414.172177	29.313	
C	-0.0758965945	 1.4626826231	-0.1022115697	-0.315876
N	 0.0319971881	 0.0393220898	 0.1941222021	-0.387005
C	-1.1275795795	-0.7187142813	 0.1334189303	 0.19113
C	-1.3340330204	-2.089259828	 0.1663146212	 0.25989
C	-1.1317178278	-3.6013950543	 0.2359848289	-0.389377
C	-2.7092358919	-3.6857915279	 0.214655931	-0.163675
N	-2.6732556033	-2.2083641799	 0.1408479578	 0.098483
N	-3.3309174377	-1.0566374512	 0.1053278521	-0.197717
N	-2.3690683652	-0.1414623837	 0.0886831912	-0.26679
H	 0.9119574011	 1.9162210299	 0.0101388062	 0.112481
H	-0.4571156561	 1.6738467992	-1.1118692559	 0.116928
H	-0.7590415681	 1.9294139939	 0.6102670703	 0.153004
H	 0.8142728073	-0.4051033381	-0.2635336531	 0.234089
H	-0.6454924464	-4.0623229913	-0.6269847644	 0.130791
H	-0.67377309	-3.9794814507	 1.1527493532	 0.135091
H	-3.1531689564	-4.1553025233	-0.6650903671	 0.143205
H	-3.1767892892	-4.0625544262	 1.126102536	 0.14535
