19
gdb 39761	4.71592	1.30408	1.1906	1.896	79.43	-0.2523	0.0976	0.3499	1075.3992	0.161501	-385.830344	-385.823592	-385.822648	-385.861231	28.144	
C	 0.0523240725	 1.523158854	 0.0333884556	-0.316938
O	 1.2136139805	 0.6539488152	 0.0169040944	-0.30581
C	-0.0691309408	 0.0742790237	-0.0011152292	 0.552329
C	-0.6115979572	-1.0074294513	 0.9259375648	-0.182276
C	-1.8459464544	-1.1270971952	-0.0354516458	 0.003655
C	-2.299457132	-2.5877915978	-0.0713684568	-0.243226
C	-0.9159969459	-3.2968300529	-0.0833219358	-0.248511
C	 0.0023578208	-2.075217905	-0.0514434655	 0.005505
C	-0.6050821075	-0.9625463694	-0.9816967347	-0.182275
H	-0.1002179332	 2.0672754082	 0.9647090932	 0.11513
H	-0.0939445554	 2.1104990825	-0.8723304374	 0.11513
H	-0.6181440466	-1.0357373201	 2.0162643092	 0.073027
H	-2.6054437931	-0.3436013027	-0.019611178	 0.063542
H	-2.9030565119	-2.8506810602	 0.8029721182	 0.099102
H	-2.89702423	-2.8091726562	-0.9612104865	 0.099102
H	-0.7656356374	-3.9464579644	 0.7845718815	 0.099813
H	-0.7596061621	-3.9049521991	-0.979755822	 0.099813
H	 1.0821514296	-2.2238404928	-0.0512525591	 0.079863
H	-0.6041752758	-0.9395445766	-2.072167576	 0.073027
