21
gdb 40890	3.55431	1.26987	1.23815	0.1499	87.64	-0.2205	0.0225	0.243	1132.0039	0.184435	-349.942106	-349.934408	-349.933463	-349.974371	31.071	
C	 0.0145410455	 1.5115694598	-0.1574877387	-0.204024
C	 1.5435043451	 1.5428590868	 0.1410763453	-0.292671
C	 1.4233774464	 0.1087829663	 0.6736392045	 0.384657
C	 0.007110648	-0.0251621745	 0.0943460084	-0.305389
C	 2.4512681773	-0.9755048157	 0.7776539123	-0.13763
C	 3.9286733258	-0.5764460905	 0.7758241989	-0.273692
C	 4.0707512168	 0.2789178883	 2.0183523933	-0.0771
C	 2.9338363733	 0.3441946005	 2.7167778224	-0.07013
C	 1.827542376	-0.3946005629	 2.0469856551	-0.158393
H	-0.5663428967	 2.0589599124	 0.5888512207	 0.102438
H	-0.2972991004	 1.8446226157	-1.149685826	 0.095513
H	 2.149672155	 1.6070325196	-0.7693438516	 0.095377
H	 1.8994188809	 2.3006765825	 0.8427599554	 0.100305
H	-0.7653949012	-0.4116980253	 0.7657976273	 0.095855
H	-0.0204163994	-0.6079656342	-0.8327489793	 0.096896
H	 2.1751582715	-1.9642240398	 0.4260993021	 0.078102
H	 4.5859263328	-1.4555346086	 0.8146986262	 0.104564
H	 4.2091189053	-0.0256607701	-0.1328230634	 0.106934
H	 4.9951925806	 0.7847007298	 2.2739859194	 0.090022
H	 2.7986350683	 0.8923528779	 3.6425910383	 0.089849
H	 1.088231369	-0.9324511579	 2.6330753694	 0.078517
