18
gdb 34588	4.36186	0.99466	0.88053	4.5295	84.96	-0.2576	-0.0387	0.2189	1315.605	0.148827	-364.834455	-364.826449	-364.825505	-364.867511	30.647	
N	 0.1362126244	-1.0508923194	-0.6225225083	-0.336594
C	 0.0476600778	 0.0713692123	-0.348213622	 0.201379
C	-0.0178243788	 1.4482010694	-0.0013658168	 0.201424
C	-1.1059101705	 2.2238309132	-0.1035915329	-0.148553
C	-0.8495129615	 3.623142913	 0.3816019085	-0.340588
C	 0.6730405366	 3.651833076	 0.5876690553	 0.36145
C	 1.4998106724	 4.7316022847	-0.0652902882	-0.302508
C	 1.3356085588	 4.7016443788	 1.4353192618	-0.315609
C	 1.168455842	 2.1981005724	 0.578466131	-0.39394
H	-2.0694360206	 1.8854148545	-0.4654444835	 0.121144
H	-1.1947409444	 4.3803999067	-0.332809447	 0.119233
H	-1.4019770176	 3.8076270703	 1.3150998411	 0.122557
H	 2.4645756654	 4.4563741005	-0.479377357	 0.116515
H	 0.9808884375	 5.506282171	-0.6210164567	 0.114105
H	 0.7070786107	 5.456715051	 1.8967953358	 0.113971
H	 2.1894675015	 4.4079863096	 2.0375056666	 0.115919
H	 1.3961354327	 1.8255718637	 1.5862670402	 0.124994
H	 2.0758108435	 2.0624629426	-0.0198518079	 0.125103
