16
gdb 85512	2.80346	1.36655	1.09847	2.1242	66.3	-0.2662	-0.0621	0.2042	1097.4701	0.123911	-475.042862	-475.034738	-475.033794	-475.076196	30.112	
O	 0.3148076412	 1.2245632895	-0.4712471252	-0.440805
C	 0.0568683597	-0.0535414213	 0.0293626952	 0.128583
C	 0.2541863511	-0.2831237708	 1.5406136019	-0.346403
C	-0.5887469146	-1.5070022517	 1.8038639848	 0.416363
N	-0.4814912881	-2.313228916	 2.76315565	-0.526828
O	-1.526444062	-1.6422754179	 0.789308129	-0.250957
C	-1.3975949615	-0.5622524267	-0.1448456429	-0.053809
C	-2.4865278007	 0.4541176015	 0.1890522184	 0.153857
O	-2.3481499182	 1.6540329088	 0.1797429837	-0.249506
H	-0.4189502367	 1.7972958142	-0.2033446697	 0.300011
H	 0.7136586527	-0.7388711167	-0.5180105273	 0.112174
H	 1.2889846435	-0.4363982317	 1.8439108484	 0.146508
H	-0.1424356788	 0.5711967007	 2.1028865044	 0.138371
H	-1.1816613276	-3.0544758971	 2.697032502	 0.227187
H	-1.5945462131	-0.9537201529	-1.1501104571	 0.12589
H	-3.4514680769	-0.0137014719	 0.4766642145	 0.119364
