15
gdb 131711	3.18846	1.06681	0.82914	1.0464	63.24	-0.2864	-0.0337	0.2526	1321.6088	0.112076	-491.071155	-491.062409	-491.061465	-491.105778	30.132	
O	 0.1826490676	 0.7354816182	-0.9600321712	-0.405927
C	-0.1163335618	 0.0602873956	 0.2330297367	-0.160987
C	-1.498293966	-0.516651814	 0.2093971758	 0.404093
N	-2.2335724771	-0.6995197039	-0.8450057942	-0.388773
C	-3.3615394661	-1.2914626773	-0.3114053967	 0.347602
C	-4.5216926468	-1.6837080825	-1.1776900908	-0.168458
O	-4.095933376	-2.3957848996	-2.3199857881	-0.405995
N	-3.3227267443	-1.4662709661	 0.9792348898	-0.169175
O	-2.0651607883	-0.9354655955	 1.3389294869	-0.197746
H	-0.307408791	 0.3014018612	-1.6692036964	 0.302353
H	 0.5912988481	-0.7615062876	 0.437556074	 0.131992
H	-0.0299849335	 0.7660474685	 1.0668297564	 0.148472
H	-5.1944430055	-2.3329168453	-0.6132632056	 0.146573
H	-5.080100809	-0.7733827629	-1.4485149127	 0.117578
H	-3.4141759605	-1.8656389989	-2.748791144	 0.298398
