18
gdb 102438	2.11416	1.1416	0.8893	3.787	73.59	-0.2827	-0.0887	0.194	1352.7399	0.144778	-439.100759	-439.090227	-439.089283	-439.137729	35.79	
C	-1.5354081804	-0.2154900973	-0.0431863763	-0.40217
C	-0.0102455372	-0.1496402328	 0.0687514976	-0.183732
C	 0.7701380113	-0.6510362036	-1.1780680602	-0.097739
C	 2.2543506343	-0.2708190907	-1.0896926757	-0.094725
O	 2.3219485751	 1.1443173304	-1.1223767516	-0.421892
C	 0.6418662806	-2.1516304493	-1.3222271466	 0.291007
O	 1.4094020534	-2.9530749828	-0.8468698294	-0.279296
C	-0.5205403347	-2.6340744293	-2.1029627962	 0.24053
N	-1.4201022237	-3.0057613769	-2.7277821565	-0.30707
H	-1.8939612941	 0.3456410877	-0.9124794862	 0.127464
H	-1.9072454744	-1.2401699295	-0.1352713955	 0.133197
H	-1.9974396719	 0.2212850244	 0.8471012056	 0.123679
H	 0.3071298369	 0.8855350921	 0.2201019977	 0.135815
H	 0.3338796401	-0.7192604832	 0.9408754935	 0.112472
H	 0.3402591978	-0.1742621604	-2.0676101568	 0.113044
H	 2.6820694615	-0.6825121151	-0.1656517955	 0.113131
H	 2.8012174665	-0.7181541889	-1.9330394016	 0.101491
H	 3.2331660687	 1.4071705752	-0.9648169063	 0.294795
