16
gdb 34201	4.16769	1.44559	1.27654	0.6438	75.09	-0.2212	0.0105	0.2317	985.533	0.124409	-400.633943	-400.627003	-400.626059	-400.665056	28.081	
C	 0.1579540062	-1.2255414492	 0.0500389405	-0.34002
C	 0.0651038133	-0.0279730174	-0.0020958019	 0.14857
C	-0.0875317211	 1.4003646638	-0.0594538225	 0.279708
C	-1.2209432976	 2.1225083554	 0.7119198554	-0.21775
N	-1.3695385147	 3.1555435244	-0.3717578065	-0.165649
C	-0.2268998865	 4.1404969875	-0.2937875486	-0.188503
C	 0.7452766736	 3.1203952164	-0.9092213138	 0.090905
O	 1.1612391891	 2.1384530891	 0.070929185	-0.337996
C	-0.4982601083	 2.2836240757	-1.2774484648	-0.110027
H	 0.2500667529	-2.2828138625	 0.0951912644	 0.193922
H	-2.1303243454	 1.5171462325	 0.7692056616	 0.121109
H	-0.9626404072	 2.5058687048	 1.7025604137	 0.11652
H	-0.4336649233	 4.9831564341	-0.9619236023	 0.113241
H	 0.0070853307	 4.5124790185	 0.7075391255	 0.114412
H	 1.566934855	 3.4287599256	-1.558346063	 0.087946
H	-0.8528273268	 1.9559905712	-2.2518457228	 0.093611
