16
gdb 66082	2.22733	1.50323	1.17796	3.1851	71.24	-0.2397	-0.038	0.2017	1090.4948	0.121505	-437.82247	-437.813512	-437.812568	-437.856318	32.947	
O	-0.0456333769	 1.4063736811	-0.1502461421	-0.451212
C	-0.0096785622	 0.0083575964	-0.0042804256	 0.204121
C	 0.3299823506	-0.3642790055	 1.4680312323	-0.19246
N	-1.0932764884	-0.697569061	 1.7336295675	-0.33392
C	-1.4148117467	-0.645105932	 0.2931870932	-0.139515
C	-2.616737648	 0.2100308986	-0.0322288184	 0.173697
O	-2.6994640842	 0.8915379424	-1.0258556414	-0.264852
C	 0.774160459	-0.641642784	-1.0476138697	 0.299465
C	 1.4087036667	-1.1768948311	-1.9172571661	-0.470321
H	-0.6321201518	 1.6015151815	-0.8949006302	 0.299593
H	 1.0217972478	-1.2092781015	 1.5388138346	 0.112472
H	 0.7061854401	 0.4792687121	 2.0530191987	 0.129121
H	-1.2380030577	-1.600126476	 2.1695277369	 0.22855
H	-1.5264474276	-1.6162224524	-0.2092122243	 0.107098
H	-3.4241046287	 0.1844223156	 0.7319207863	 0.095969
H	 1.9761031881	-1.6393480642	-2.6870251116	 0.202194
