17
gdb 37644	3.29029	2.37358	2.10697	0.2218	72.24	-0.2067	0.0611	0.2678	748.9678	0.140666	-380.779944	-380.774758	-380.773813	-380.809101	23.402	
C	-0.0515832791	 1.5670835717	-0.0824874018	-0.252007
C	 1.4922076016	 1.4532351867	 0.0122356941	-0.02973
C	 2.0881015154	 1.181081667	-1.3493210502	-0.039284
C	 2.659546664	-0.1728993011	-1.4367978294	-0.047204
C	 1.8898930841	-0.9194931692	-0.3455509323	-0.039884
C	 0.6030560498	-0.7196698252	-1.1721266017	-0.011822
C	-0.0203771289	 0.036935053	 0.0220814719	 0.011143
N	 1.362137668	 0.0864623592	 0.6666896725	-0.150235
N	 1.3665791313	 0.1582105493	-2.1633745688	-0.170142
H	-0.4963722222	 2.0174885721	 0.8068696303	 0.11309
H	-0.4655579255	 2.0237903076	-0.9837350084	 0.112383
H	 2.0487058195	 2.1990177789	 0.585838267	 0.076564
H	 2.4834470042	 1.9952604169	-1.9488684582	 0.098207
H	 3.565014122	-0.4616650781	-1.9577546976	 0.098612
H	 2.2532088029	-1.8546207919	 0.0768870849	 0.078947
H	 0.0545053719	-1.49937778	-1.7015295502	 0.078528
H	-0.8115119788	-0.4945238168	 0.5579815078	 0.072834
