20
gdb 118363	2.80277	0.88291	0.73068	2.2059	75.93	-0.25	-0.0418	0.2082	1559.5578	0.168899	-440.249908	-440.239736	-440.238791	-440.286379	35.518	
O	-0.1752552948	 1.5230453337	 0.0852710024	-0.416373
C	-0.0059204335	 0.1235232408	-0.0501808015	-0.084499
C	-1.3819052105	-0.5227623147	 0.0626378393	-0.197613
C	-1.3352611724	-2.0545370992	-0.0493008193	-0.092099
C	-0.6166986118	-2.6613301546	 1.1484867256	 0.128128
O	-0.0095398618	-3.7015912018	 1.1303994264	-0.24971
C	-2.7413778331	-2.6460744203	-0.1886052426	 0.003116
C	-3.0129095882	-4.0907327559	-0.0078566062	-0.254604
N	-3.539248726	-3.1104589247	 0.9618263262	-0.322688
H	 0.6858102781	 1.9429344321	 0.001430114	 0.289476
H	 0.4436893658	-0.1374500903	-1.0225613446	 0.092498
H	 0.6663815345	-0.2742895282	 0.729613865	 0.08983
H	-1.835615987	-0.2296786364	 1.0178302085	 0.117207
H	-2.0247586316	-0.1130253946	-0.723180484	 0.116237
H	-0.7676614685	-2.3495073014	-0.9418886848	 0.106149
H	-0.7069637644	-2.0726757401	 2.0924256693	 0.086368
H	-3.3423258997	-2.1074211119	-0.9195142186	 0.098475
H	-3.7678165993	-4.5774647282	-0.6186085791	 0.120288
H	-2.18403048	-4.7256664748	 0.291867876	 0.137887
H	-2.9798408357	-3.1325168895	 1.8113195278	 0.231928
