15
gdb 124188	4.55742	0.81336	0.74602	1.9211	74.48	-0.2606	-0.0256	0.235	1515.1026	0.112091	-416.78679	-416.778055	-416.777111	-416.823227	29.223	
C	 0.177590585	 1.342578267	 0.6950358891	-0.496613
C	 0.0427610401	-0.0085046918	 0.171296257	 0.072515
C	-0.070919849	-1.1244097744	-0.2621980595	 0.06513
C	-0.2096518261	-2.4797310539	-0.7868886873	-0.454729
C	-1.4788140653	-3.1581435125	-0.3654945974	 0.441448
N	-1.6061066893	-4.3061443018	 0.231338791	-0.311169
C	-2.9718011333	-4.4153217362	 0.3334939068	 0.040116
N	-3.6503539068	-3.4169074026	-0.1586791762	-0.110323
O	-2.6460840812	-2.5634993682	-0.6346065336	-0.187055
H	 0.8537175515	 1.3698364716	 1.5562805907	 0.152
H	 0.5762631821	 2.0239913176	-0.0642039379	 0.152144
H	-0.7915847053	 1.736470282	 1.0193174566	 0.156232
H	-0.173484822	-2.4644343853	-1.8848659555	 0.161743
H	 0.6124439321	-3.1197860254	-0.4522589481	 0.169376
H	-3.4688795424	-5.2601975661	 0.7874585744	 0.149184
