23
gdb 120933	3.06276	0.9789	0.88276	0.9059	87.17	-0.2388	0.0869	0.3258	1476.6891	0.204363	-388.2657	-388.255857	-388.254912	-388.300725	36.731	
C	-0.0242660549	 1.5020256112	 0.0673562291	-0.384221
C	 0.2763428315	 0.0159293699	-0.0335497058	-0.03392
O	 0.4034493755	-0.5074508887	 1.2746327005	-0.258416
C	 0.668073508	-1.8871474958	 1.3106026291	 0.084098
C	 2.1183835047	-2.3929633	 0.9797535393	-0.267823
C	 2.1804118856	-2.9947644957	 2.3860400394	-0.097603
C	 1.9913552919	-1.9007383834	 3.3996392292	-0.317711
C	 0.7744441292	-2.4683108177	 2.718698632	 0.340213
C	-0.3679414566	-3.0994968296	 3.462155198	-0.505158
H	 0.784834057	 2.0222526615	 0.5880020432	 0.125196
H	-0.1335172271	 1.9391096194	-0.9297986905	 0.112278
H	-0.9507913186	 1.6683799601	 0.6242553143	 0.12554
H	-0.5324131446	-0.5066936802	-0.5727968434	 0.082814
H	 1.2029863813	-0.1507248046	-0.6067203363	 0.088252
H	-0.0781649261	-2.4296288028	 0.7089895306	 0.059576
H	 2.1362810592	-3.1276725543	 0.171581756	 0.097785
H	 2.8555307046	-1.6109354602	 0.768685975	 0.095979
H	 2.6154104398	-3.952891597	 2.6440178235	 0.082222
H	 2.1040817206	-2.1982230786	 4.4376705774	 0.104676
H	 2.3223571726	-0.8884495147	 3.1840159989	 0.112742
H	-1.0870554706	-2.3424254188	 3.7970046837	 0.126172
H	-0.9091338989	-3.8170360925	 2.8341967478	 0.111885
H	-0.0145478142	-3.6337810774	 4.350313729	 0.115425
