25
gdb 99768	1.793	1.35654	0.91847	1.3768	85.02	-0.246	0.0762	0.3221	1427.1089	0.225666	-426.624381	-426.612686	-426.611742	-426.660942	42.818	
C	-0.435768809	 1.3100533048	 0.1450769698	-0.250263
O	 0.1677469061	 0.0539827431	-0.0978936265	-0.273666
C	 0.8484453805	-0.5204564454	 1.0278097071	 0.10658
C	 0.1561181309	-1.8296944942	 1.4477477877	 0.02447
C	 0.8751724013	-2.4956424927	 2.6312782578	-0.400436
C	-1.3231632968	-1.5914030108	 1.7814148963	-0.398934
C	 2.3340781674	-0.6482046965	 0.6237823785	 0.123569
C	 2.589717644	-1.6795874503	-0.478129594	-0.408156
O	 2.8098662969	 0.6344929324	 0.2299720605	-0.443642
H	 0.2988738554	 2.0550215608	 0.4809135606	 0.116971
H	-0.8739290131	 1.6428507693	-0.800301565	 0.12377
H	-1.234529178	 1.245231938	 0.8968983363	 0.110551
H	 0.8064621868	 0.1868394614	 1.8692819386	 0.070306
H	 0.1957941574	-2.5094090826	 0.5873178806	 0.082998
H	 0.3364086732	-3.3940208081	 2.9489013639	 0.113693
H	 1.8978107478	-2.7961172123	 2.3865044328	 0.12023
H	 0.9227408645	-1.8195214048	 3.493572268	 0.11464
H	-1.8513710063	-1.1501006297	 0.9332045968	 0.126273
H	-1.8179211064	-2.5347612073	 2.0343147834	 0.108977
H	-1.4323067378	-0.9212470303	 2.6430638776	 0.10698
H	 2.9185495088	-0.9068794769	 1.5128183772	 0.08465
H	 1.9442918001	-1.4849622545	-1.3408774033	 0.124685
H	 3.6317679633	-1.6111462375	-0.8007960484	 0.120349
H	 2.4022620525	-2.7022355723	-0.1369705093	 0.114177
H	 2.2470397804	 0.8963906963	-0.5089608571	 0.281228
