16
gdb 8345	4.98151	1.38255	1.30506	3.3787	68.98	-0.2443	0.0273	0.2716	954.8557	0.132089	-342.719145	-342.712214	-342.71127	-342.750834	26.069	
N	-0.0486177527	-1.1568755779	 0.0375092808	-0.30618
C	-0.0470334008	-0.001439713	 0.0183348026	 0.25885
C	-0.0009536651	 1.4590173562	-0.0053829239	-0.477021
C	 1.4292527748	 1.9909016584	 0.0020384305	 0.305809
C	 2.5659991399	 1.766972125	-1.0204884472	-0.198957
N	 3.2334171722	 2.6952012015	 0.0108538722	-0.136343
C	 1.9003794517	 3.4624737539	-0.0175738781	-0.220716
C	 2.5420467399	 1.8023322763	 1.0575152325	-0.198958
H	-0.5282266632	 1.8152237157	-0.8983519007	 0.155936
H	-0.5482256736	 1.8444464132	 0.8630825195	 0.155937
H	 3.0196727998	 0.7746533852	-1.074915621	 0.119286
H	 2.4641604225	 2.2180992159	-2.0112998532	 0.105451
H	 1.7485043308	 4.040635503	-0.9332638205	 0.106089
H	 1.7276695163	 4.0714077266	 0.8741627874	 0.106088
H	 2.4175688672	 2.2868594276	 2.029798899	 0.105448
H	 2.9939690805	 0.8126221523	 1.1561127099	 0.11928
