18
gdb 107568	2.87946	1.43247	1.2647	1.5826	71.68	-0.2353	0.0235	0.2588	1061.5641	0.14797	-439.062901	-439.054726	-439.053782	-439.095841	30.719	
C	-1.2244379677	-0.1861028845	-0.3722583514	-0.260279
O	 0.1437664213	-0.0204903533	-0.0406708257	-0.282802
C	 0.5223987742	-0.5451338253	 1.1970062545	 0.366219
C	 1.8860336211	-1.1822486341	 1.2119445226	-0.361542
C	 0.6455247758	-2.0363647449	 1.3322155282	 0.030007
O	 0.3469205574	-2.6611780836	 2.5610849999	-0.220153
C	 0.0820963553	-1.8423552844	 3.6116414767	 0.127139
N	-0.0392175255	-0.5868047428	 3.6552234204	-0.267511
C	 0.055434798	 0.2064251813	 2.4356416091	-0.237996
H	-1.8886082453	 0.3862920904	 0.2891355746	 0.116501
H	-1.345368549	 0.1855291761	-1.3920181697	 0.132989
H	-1.524928203	-1.2422864113	-0.3366269211	 0.111625
H	 2.4221842414	-1.2229788394	 0.271092017	 0.131042
H	 2.4975467228	-1.0480277861	 2.0981267024	 0.130704
H	 0.3722602812	-2.6792609862	 0.5044862218	 0.117896
H	-0.0228651468	-2.4404965741	 4.5144005359	 0.125785
H	 0.7067963921	 1.0673300889	 2.6329405552	 0.118528
H	-0.9400639432	 0.6232647533	 2.2409210597	 0.121847
