19
gdb 117462	5.46924	0.63725	0.6106	3.5163	76.25	-0.2678	0.0111	0.2789	1853.538	0.157477	-456.34809	-456.33782	-456.336876	-456.385188	35.005	
C	-0.240242028	 1.3466778533	 0.2858079305	-0.390335
C	-0.1365734472	-0.163177403	 0.1888064449	-0.031931
O	-1.4339675144	-0.6644004193	-0.1830463037	-0.248761
C	-1.5422573552	-1.9940354153	-0.3406414602	 0.381244
N	-0.5848631269	-2.7983376955	-0.1517436665	-0.526274
C	-2.961404739	-2.3250195604	-0.777404294	-0.186029
O	-3.173852903	-3.7224128818	-0.8534362132	-0.178593
C	-3.6499013211	-4.3303541245	 0.2591401726	 0.133218
N	-3.7445448493	-5.5855472983	 0.2925419515	-0.434274
H	 0.7295712403	 1.7669024304	 0.5680334239	 0.123942
H	-0.5378924278	 1.7810781624	-0.6728117204	 0.128176
H	-0.9755632489	 1.641288346	 1.0400444225	 0.126916
H	 0.5936192554	-0.4805081609	-0.5625530394	 0.124183
H	 0.1593062021	-0.6187779961	 1.1392880298	 0.122855
H	-0.8865891233	-3.751628387	-0.3492912445	 0.246733
H	-3.673772922	-1.8430800118	-0.0958671514	 0.130026
H	-3.1389361767	-1.9198743728	-1.7777184093	 0.149937
H	-3.931272835	-3.6248102314	 1.053040173	 0.094425
H	-4.1395817	-5.8832099336	 1.181949254	 0.234542
