19
gdb 84113	2.52396	1.66671	1.24781	2.493	76.36	-0.2399	0.0034	0.2434	1064.228	0.160434	-423.01488	-423.007024	-423.00608	-423.046927	31.298	
C	-0.0319310582	 1.5086249435	 0.0446717786	-0.504006
C	-0.0133897731	 0.0131098555	-0.0348381235	 0.360542
C	-0.0887306449	-0.7118566173	-1.1553334814	-0.235403
C	-0.028126725	-2.2257893355	-1.0681698691	 0.123153
O	 1.1463862216	-2.7285715976	-1.6959479522	-0.442618
C	-0.0381276541	-2.6368597588	 0.4120085439	 0.049116
C	-1.0623940354	-1.8560754933	 1.2585997845	-0.257496
C	 0.0763357823	-0.8060511981	 1.243402807	-0.010415
O	 1.044342347	-1.888488782	 1.0484731473	-0.307777
H	 0.883519789	 1.8900128205	 0.5149218697	 0.132143
H	-0.1233071621	 1.9618663997	-0.9458698882	 0.127658
H	-0.8684147261	 1.865321919	 0.6598769422	 0.12748
H	-0.1314834152	-0.2604347051	-2.142641359	 0.092533
H	-0.867845465	-2.6883268692	-1.600700184	 0.086418
H	 1.8792560296	-2.3729724363	-1.1756412294	 0.282473
H	 0.0721960239	-3.7167534076	 0.5362798592	 0.084039
H	-2.019609896	-1.5806313947	 0.8132937337	 0.105387
H	-1.2026632901	-2.3113807725	 2.2409538432	 0.110935
H	 0.2917063717	-0.2184133303	 2.1387739374	 0.075839
