12
gdb 123318	1.98958	1.9732	0.99068	0.0597	77.75	-0.244	-0.0318	0.2121	1086.1638	0.077708	-394.467602	-394.460044	-394.4591	-394.499772	28.142	
C	-0.0154386995	-1.1895919798	-0.0038274084	-0.395483
C	-0.0324475901	 0.0127921736	 0.0032670938	 0.241803
C	-0.0181768958	 1.4243972021	 0.0110961101	 0.113292
N	-1.1324198779	 2.169853971	 0.0291633924	-0.258824
N	-0.6649861934	 3.4065543477	 0.0303992104	-0.100804
N	 0.6476382153	 3.5637256291	 0.014984514	-0.258837
C	 1.1039949234	 2.3031137642	 0.0021049134	 0.11328
C	 2.4776994328	 1.9783495943	-0.0168226254	 0.24183
C	 3.6408478249	 1.6735695477	-0.0329460635	-0.395472
H	-0.004142189	-2.2515313127	-0.0101055296	 0.198299
H	-1.2864344766	 4.2003058181	 0.0426446596	 0.302616
H	 4.6689946859	 1.4078614448	-0.0469019869	 0.198299
