17
gdb 18148	3.1032	2.11077	1.61398	3.1919	68.03	-0.2337	-0.0267	0.207	844.9537	0.141471	-363.81775	-363.810179	-363.809235	-363.849478	28.265	
C	-0.3457162797	 1.4312882824	 0.1009945084	-0.417556
C	 0.0055380495	-0.0374216657	 0.0442769541	 0.032999
C	 0.5790157221	-0.7513354225	-1.1129755329	-0.037507
C	 1.5995273078	 0.0932510851	-1.8790161292	-0.298942
C	 2.3689923073	 0.174311763	-0.5256258508	-0.037755
C	 2.8155944955	 1.4981644238	 0.0359611545	 0.155206
O	 2.5038722544	 1.9568943955	 1.1040107359	-0.243061
N	 1.3502925477	-0.6438651911	 0.2066691805	-0.156458
H	 0.2240641804	 2.0438366591	-0.6004014881	 0.115698
H	-1.4065496808	 1.5511322347	-0.1449575445	 0.115802
H	-0.1732586413	 1.8303267538	 1.1031530657	 0.151027
H	-0.692255807	-0.6492985885	 0.6137860207	 0.101552
H	 0.1991787231	-1.704995866	-1.4657126916	 0.098179
H	 2.1440862555	-0.4599282031	-2.6445627694	 0.119348
H	 1.2298176232	 1.0253582145	-2.3164022828	 0.113289
H	 3.2864857629	-0.4266863351	-0.5966130292	 0.114979
H	 3.5247727795	 2.0359475503	-0.6397135914	 0.0732
