16
gdb 4021	3.26732	1.40667	1.10398	3.6702	68.16	-0.2637	-0.0096	0.2542	1073.4763	0.128017	-379.902336	-379.89309	-379.892146	-379.936783	32.14	
C	 0.0116433608	 1.5916775823	 0.0289025164	-0.387289
C	-0.0621451587	 0.0553320235	 0.0059932642	-0.210014
C	 0.740433724	-0.5208831486	 1.0966395428	 0.269918
N	 1.3708148506	-0.9731950187	 1.9532455099	-0.324803
C	-1.4743335418	-0.5185374722	 0.0548591133	 0.363969
C	-1.6661029974	-2.0075676968	-0.0242801798	-0.474613
N	-2.4236572028	 0.3292261839	 0.1373444185	-0.155608
O	-3.6736596119	-0.2957121757	 0.1430729298	-0.394785
H	 1.0529160541	 1.9150983976	-0.0376060421	 0.129114
H	-0.5476796966	 1.9993034577	-0.8145726925	 0.137264
H	-0.4247689355	 1.9863619793	 0.9475812796	 0.149703
H	 0.3962622081	-0.3052911609	-0.9271165189	 0.13939
H	-2.2459176942	-2.3600059631	 0.8338663532	 0.160533
H	-2.2415082012	-2.2659219507	-0.9193543486	 0.150257
H	-0.7116480312	-2.5359164595	-0.045272134	 0.13596
H	-4.2770747763	 0.4514252018	 0.2191352481	 0.311005
