17
gdb 20190	3.39843	2.60654	1.9969	0.9571	65.83	-0.2353	0.0795	0.3147	732.011	0.145853	-363.811598	-363.805655	-363.804711	-363.841383	24.371	
C	-0.079864394	 1.4079115892	-0.0917127182	-0.199826
C	 1.4609838632	 1.522924695	 0.1011301281	 0.088186
O	 1.9582200361	 2.0138781999	 1.3286945325	-0.262636
C	 1.1699398621	 1.6289310537	 2.4454058743	-0.082396
C	 0.7812089484	 0.1319667106	 2.4605494097	-0.255912
C	 0.7204459085	-0.5396054145	 1.0964234943	-0.005262
C	 1.4879174179	-0.0024864916	-0.0397591116	-0.062366
N	-0.0313802894	-0.0918066638	-0.1027610881	-0.15772
H	-0.7455739601	 1.8449433445	 0.6564033219	 0.106482
H	-0.3894425298	 1.7551678326	-1.0800205924	 0.114455
H	 1.9767283042	 2.0786822223	-0.6826356479	 0.091075
H	 1.7710903258	 1.8677982106	 3.3266893788	 0.111077
H	 0.2678470456	 2.2542187634	 2.4944079271	 0.098793
H	 1.5311304618	-0.4291958372	 3.0308304579	 0.116234
H	-0.1680402291	 0.0103723584	 2.9954273755	 0.110368
H	 0.6747151587	-1.6240839429	 1.1585781457	 0.098829
H	 2.1386637001	-0.5881514201	-0.6799993675	 0.090619
