19
gdb 8889	3.59643	1.28959	1.03601	4.4505	69.37	-0.246	0.0234	0.2694	1173.1138	0.16392	-402.227992	-402.218259	-402.217315	-402.263522	33.603	
C	-0.0327108709	 1.6211901047	-0.0954449135	-0.379105
C	 0.0092837948	 0.0912015885	-0.1014206643	-0.15445
N	 0.7241398042	-0.4598376605	-1.2552010569	-0.079945
C	 2.1582019876	-0.6378869435	-1.1181417519	-0.350493
C	 0.0209504964	-0.7416446588	-2.3806061519	 0.393384
O	-1.1880933292	-0.5470059736	-2.4692265438	-0.41178
C	 0.7447522388	-1.3373716236	-3.6001894653	-0.151867
O	-0.1839335151	-1.5750349247	-4.6140486294	-0.424596
H	 0.972504391	 2.0552492138	-0.0953318949	 0.115398
H	-0.5691222717	 1.9867326079	-0.9747237796	 0.145152
H	-0.5523383264	 1.9808598848	 0.7980827216	 0.121423
H	 0.5020480336	-0.2853145914	 0.8021370499	 0.102199
H	-1.0060939949	-0.3077184677	-0.1269985297	 0.144233
H	 2.6050428862	-0.9690346122	-2.0537800003	 0.151901
H	 2.6401262187	 0.3048378681	-0.8328780255	 0.135248
H	 2.3873920049	-1.3828245689	-0.3455651821	 0.133673
H	 1.5264582959	-0.6382694615	-3.9393395028	 0.10752
H	 1.2538032092	-2.269009407	-3.3064626239	 0.108272
H	-1.0282300929	-1.2702209345	-4.2353434858	 0.293832
