18
gdb 104756	2.28898	1.31674	1.0085	4.5417	73.4	-0.2595	0.0274	0.2869	1217.3111	0.145686	-439.065971	-439.056234	-439.055289	-439.100632	34.879	
C	 0.5384150524	-0.8482344506	 1.804894441	-0.261546
O	 0.2869602941	-0.3430749148	 0.4959284459	-0.275292
C	-1.0055323575	-0.5134368375	 0.0217317771	 0.393852
C	-2.0776953733	 0.2742010247	 0.7720426501	-0.158258
O	-3.3654337449	 0.1534352622	 0.1949471988	-0.40388
C	-1.0927679572	-0.6898788028	-1.4544589589	-0.346689
C	-1.4003702045	-1.8820311325	-0.5474083415	-0.245412
C	-0.4848956352	-2.9820513831	-0.4901867082	 0.305876
N	 0.2453682392	-3.8783394424	-0.4334226765	-0.349398
H	 1.6182206767	-0.7885039645	 1.9514353817	 0.141195
H	 0.0441711413	-0.24734674	 2.5787377712	 0.115829
H	 0.2240898632	-1.8936832956	 1.8989715823	 0.137049
H	-2.1676472577	-0.10614174	 1.7943853611	 0.123471
H	-1.7487609254	 1.3212938109	 0.836760663	 0.113715
H	-3.4270457904	 0.771182385	-0.5394166369	 0.295404
H	-1.9313959817	-0.2728533413	-1.998627004	 0.115892
H	-0.149897189	-0.7132884475	-1.986687287	 0.150863
H	-2.4479583901	-2.1445439304	-0.448347639	 0.147329
