15
gdb 45848	2.31017	1.73755	1.07937	3.2605	68.82	-0.2512	-0.0425	0.2087	1055.7468	0.113732	-454.000432	-453.992826	-453.991882	-454.033052	28.341	
O	 0.0458948178	 0.3771863794	-1.0907288283	-0.278881
C	-0.0062382811	 1.2511201791	-0.2666397552	 0.379827
C	-1.2650452133	 1.5206234381	 0.5573769102	-0.27091
N	-1.5639356673	 2.9048593899	 0.8744396023	-0.206194
C	-0.7938186197	 3.5654541461	 1.6358300698	 0.063728
N	 0.4471446821	 3.1783023429	 2.1470886788	-0.314379
C	 1.4529840221	 2.4658370348	 1.4949540808	 0.371283
O	 2.4844843805	 2.1946782684	 2.0645315431	-0.332234
C	 1.1968903712	 2.1481352654	 0.0321177911	-0.406719
H	-2.1100247375	 1.07453509	 0.0302127602	 0.141787
H	-1.113983608	 0.9491039829	 1.4908681722	 0.141641
H	-1.1102505218	 4.5561714008	 1.9657230322	 0.128951
H	 0.7508507454	 3.588369414	 3.0212324815	 0.263875
H	 2.0932380504	 1.6906832207	-0.3839411327	 0.159565
H	 1.0060229593	 3.0964297875	-0.4898764961	 0.158662
