19
gdb 37762	2.35496	2.27925	1.91745	0.3797	83.26	-0.2206	0.0232	0.2438	863.7268	0.164146	-348.774704	-348.768481	-348.767537	-348.804643	27.643	
C	-0.0019795714	 1.5483686188	 0.0058376971	-0.226635
C	 1.4268911788	 2.0451908879	-0.0041301331	-0.067062
C	 2.4173093791	 1.2226950159	 0.7815478648	-0.088934
C	 1.9183614159	 0.0610758919	 1.5303035441	-0.027855
C	 0.7557827982	-0.5209248746	 1.2043398043	-0.094335
C	-0.0141503305	-0.0022509644	 0.0061930293	-0.131873
C	 0.7391375699	-0.5213436323	-1.202308748	-0.094336
C	 1.8970951308	 0.060540895	-1.5445237312	-0.027855
C	 2.4063502512	 1.2224184129	-0.8031450213	-0.088934
H	-0.5247365018	 1.916775559	 0.8958043596	 0.098418
H	-0.5369947806	 1.9164636898	-0.8769442666	 0.098418
H	 1.5689371715	 3.1212309255	-0.0053000347	 0.082835
H	 3.2694665795	 1.7437421391	 1.2036604874	 0.083474
H	 2.53416127	-0.3296813368	 2.3350323549	 0.082404
H	 0.3961006711	-1.401478112	 1.7267883107	 0.085067
H	-1.0446887523	-0.3660848732	 0.0133840406	 0.066261
H	 0.3722651409	-1.4020765956	-1.7194273426	 0.085067
H	 2.5017052858	-0.3304964152	-2.3575585324	 0.082404
H	 3.2525866941	 1.7433154284	-1.2371857229	 0.083474
