14
gdb 10902	3.33475	2.02085	1.44563	2.5216	58.27	-0.2381	-0.0346	0.2035	852.0818	0.104301	-419.643987	-419.636053	-419.635109	-419.676334	28.06	
C	-0.0511189689	 1.5625864602	 0.0966014537	-0.515055
C	 0.1581608914	 0.0912893077	-0.0197825064	 0.281165
O	-0.7765502768	-0.816991495	 0.6201253009	-0.265686
C	 0.6039170685	-0.9611873518	 0.9384313586	-0.06211
C	 1.227697398	-1.8298076368	-0.1534297007	 0.003129
O	 0.804836215	-3.1606130729	-0.20316068	-0.423952
C	 0.6771970776	-0.7691437041	-1.1717111964	 0.343108
O	 0.7314479159	-0.6639134026	-2.3608794386	-0.304535
H	 0.856382546	 2.1039008377	-0.1873429801	 0.138129
H	-0.8584093853	 1.8860236981	-0.5679158122	 0.150889
H	-0.3193476834	 1.8306680048	 1.1216814516	 0.142424
H	 0.9047903743	-0.8419778551	 1.9721418233	 0.120193
H	 2.3288615018	-1.7351681414	-0.1454777599	 0.092049
H	 0.9144769958	-3.4720232589	-1.1084986739	 0.300251
