16
gdb 55332	1.96181	1.74258	1.16173	4.1527	70.23	-0.241	0.0117	0.2527	1083.9747	0.122614	-437.854263	-437.845132	-437.844188	-437.889291	32.782	
N	 0.0264042114	 1.2447153899	-0.6278681821	-0.525149
C	 0.0604041012	 0.086335715	 0.0962295784	 0.38588
O	 1.0331282882	-0.2924443766	 0.7108388836	-0.345922
C	-1.2551040126	-0.7028223167	 0.07727264	 0.008724
O	-1.0560044961	-2.0855225926	 0.369018227	-0.26234
C	-1.5438749805	-1.9296835635	 1.7164756893	-0.08286
C	-2.1185091341	-0.5265918198	 1.3764406892	-0.240186
C	-1.8845537474	 0.5880179365	 2.2660756239	 0.3457
C	-1.6950047523	 1.5163476438	 3.0060053058	-0.464747
H	 0.7895372561	 1.8913162054	-0.5045922568	 0.26424
H	-0.8363772536	 1.6071890782	-0.9968564029	 0.259607
H	-1.7920640718	-0.5557177337	-0.8678281291	 0.090127
H	-2.2707395933	-2.7014386398	 1.986691616	 0.112361
H	-0.7251846407	-1.9005278016	 2.4417447541	 0.133442
H	-3.1804209671	-0.594463777	 1.1243196902	 0.11815
H	-1.5167313474	 2.3289882623	 3.6660850934	 0.202974
