19
gdb 89828	2.84202	1.38624	1.11638	1.7313	75.57	-0.2423	-0.0244	0.2179	1143.8799	0.157962	-423.040379	-423.031847	-423.030903	-423.073718	32.73	
C	-0.0924883224	 1.5519623052	 0.0132639476	-0.399313
C	 0.0457629403	 0.0279976435	-0.0025404686	 0.013739
O	 0.7670761678	-0.4592226483	-1.1308438569	-0.301065
C	 2.1037273532	-0.7284108063	-0.7412239264	 0.439147
C	 3.0018630128	-1.257927082	-1.8022252331	-0.33821
C	 3.1965407669	 0.1590961707	-1.2825163782	-0.322468
C	 2.0609066185	-1.197073334	 0.6971547948	-0.419999
C	 0.8163527911	-0.4815518468	 1.2252527117	 0.377532
O	 0.4919154801	-0.3215859826	 2.371321683	-0.309434
H	 0.8893656321	 2.0342697802	 0.0254196684	 0.12521
H	-0.6337426435	 1.8892687135	-0.8742089279	 0.127345
H	-0.641747528	 1.8609788121	 0.9070680651	 0.13836
H	-0.9489271001	-0.433643888	-0.019087187	 0.108672
H	 3.7291566791	-2.01670479	-1.5340069379	 0.117963
H	 2.5714654713	-1.3681891234	-2.7913269198	 0.129233
H	 2.8945931819	 0.9683945652	-1.9373569241	 0.123572
H	 4.0590823682	 0.3681343233	-0.6578479325	 0.113726
H	 1.8860819283	-2.279012352	 0.7643106005	 0.139151
H	 2.9421450626	-0.9565676304	 1.2940678913	 0.136839
