17
gdb 47181	2.23652	1.7067	1.01063	2.08	79.75	-0.2518	-0.0468	0.2049	1138.9025	0.138935	-418.061484	-418.053698	-418.052754	-418.094242	29.636	
N	-0.085599434	 0.8614642127	 1.1388816914	-0.501087
C	-0.0152076429	-0.0055090583	 0.1959039569	 0.345289
N	 1.2159349101	-0.4193696516	-0.339752308	-0.392607
C	 1.6379432869	-1.5229439261	-1.0690318438	 0.382742
O	 2.8127689017	-1.6191267974	-1.3591286698	-0.3458
C	 0.621997551	-2.5833066022	-1.4359066308	-0.311874
C	-0.599965472	-2.0746779365	-2.2130310565	-0.272591
C	-1.5647112486	-1.2744370828	-1.3875054621	-0.094173
C	-1.2982047034	-0.4625466264	-0.3609011375	-0.021111
H	 0.841669119	 1.1484140861	 1.459313165	 0.209732
H	 2.0077203391	 0.1486107511	-0.0639891553	 0.249009
H	 1.1717547579	-3.3194409052	-2.0246275634	 0.135401
H	 0.281293105	-3.0738013472	-0.5157113681	 0.13158
H	-0.2743158932	-1.4933199494	-3.0875680382	 0.135002
H	-1.1297263854	-2.9415016214	-2.6223709888	 0.121093
H	-2.6125996679	-1.3888582811	-1.6551867697	 0.108272
H	-2.1215222434	 0.0164452357	 0.1573853388	 0.121121
