16
gdb 50013	2.8213	1.2104	1.04007	3.9	72.27	-0.2495	-0.0277	0.2218	1168.6595	0.12359	-437.875894	-437.867757	-437.866813	-437.9091	29.799	
N	-0.0260903137	 1.2051381184	-0.2274090927	-0.555817
C	-0.0036127805	-0.0185578613	 0.0408562734	 0.408336
O	 1.0035676565	-0.8283229119	 0.533692561	-0.262789
C	 0.1338447414	-2.0066141825	 0.5255347932	-0.14941
C	-0.9951331916	-1.1348226476	-0.0163279208	 0.175862
C	-2.4464858304	-1.0880976819	 0.3035971325	-0.354146
C	-2.0067853737	-1.4476489455	-1.1064082989	-0.171103
C	-2.2288977449	-0.4656294445	-2.2025578284	 0.158013
O	-2.489315922	-0.7857390629	-3.3359700281	-0.265812
H	 0.8704507723	 1.6557644882	-0.0423270836	 0.236027
H	 0.5228634653	-2.7756562986	-0.146157723	 0.133071
H	 0.0019778547	-2.402441875	 1.5358140045	 0.130009
H	-2.8716671646	-1.8813969702	 0.9081169006	 0.137632
H	-2.8790784174	-0.1043781028	 0.4569917007	 0.151474
H	-2.0869726783	-2.4868007354	-1.4093787661	 0.115901
H	-2.1413042529	 0.5970807335	-1.8955974144	 0.112754
