14
gdb 1649	5.11237	1.89815	1.40836	1.2761	55.88	-0.2399	-0.0604	0.1795	841.0664	0.111623	-361.76802	-361.75979	-361.758846	-361.801165	27.253	
C	 0.0547591028	 1.4391492012	-0.0204639675	-0.333947
N	-0.0812329235	-0.0011681147	-0.0363164399	-0.298266
C	-1.2682223304	-0.6346668765	 0.0677633665	 0.301824
O	-2.3624273397	-0.1081952814	 0.1852473027	-0.370078
C	-1.1127205385	-2.1736898193	 0.0223358597	 0.314416
C	-2.3934953338	-2.9541992804	 0.1321775042	-0.470347
O	-0.0152280161	-2.6720725911	-0.0944817955	-0.304511
H	 0.6691294899	 1.770595363	 0.823866197	 0.133161
H	 0.5101874519	 1.8042607336	-0.9474308367	 0.133125
H	-0.9454428275	 1.8638780956	 0.0776351007	 0.168929
H	 0.7258841122	-0.6017733856	-0.1263049677	 0.265516
H	-3.0759120781	-2.657994223	-0.67068796	 0.161112
H	-2.1851896091	-4.023141027	 0.0878385487	 0.137982
H	-2.9027969502	-2.6969254644	 1.0662992377	 0.161081
