10
gdb 44	18.21931	6.63877	5.92459	1.812	35.01	-0.2633	0.1052	0.3685	267.2979	0.085275	-193.039603	-193.035186	-193.034242	-193.065979	14.764	
C	-0.016463427	 1.5183070486	 0.0077144513	-0.409135
C	-0.0274322683	 0.0165769416	-0.1088974085	 0.120723
C	 0.7729655287	-0.7013188571	-1.1086311523	-0.170074
O	 1.1721229292	-0.667029688	 0.2627882891	-0.233116
H	 0.9186598033	 1.9291421734	-0.3828587993	 0.126852
H	-0.8515801425	 1.9545650629	-0.5510945965	 0.121174
H	-0.1148770196	 1.8259647016	 1.0539777655	 0.129656
H	-0.9358259801	-0.4735060008	 0.2468279306	 0.090042
H	 0.4444392202	-1.6720149484	-1.4781062204	 0.11283
H	 1.405382836	-0.1360033938	-1.7927149096	 0.111048
