20
gdb 26415	4.2016	0.89736	0.77322	2.0634	82.06	-0.1972	0.0527	0.2498	1489.6945	0.171425	-403.186967	-403.177746	-403.176802	-403.221495	34.819	
C	 0.0765139068	 1.5392079826	 0.1396033711	-0.40036
C	 0.0329569388	 0.0182851018	 0.2966791179	 0.147674
O	 0.4193368394	-0.3651030347	 1.616690658	-0.423104
C	-1.3423318672	-0.5635529877	-0.0824481255	-0.34137
C	-1.3873850996	-2.0609929345	-0.1836201483	 0.295204
C	-1.8292244689	-2.7773520289	-1.27528728	-0.187474
N	-1.725400498	-4.1143512172	-0.9837000111	-0.235105
C	-1.2203425591	-4.270806295	 0.2822492792	-0.076328
C	-1.0018075857	-3.0189773228	 0.804544242	-0.238648
H	 1.0456068018	 1.924890318	 0.4675789267	 0.121578
H	-0.083418806	 1.8376221748	-0.901611144	 0.113301
H	-0.7044425853	 2.0160655487	 0.7460019959	 0.103293
H	 0.7939286477	-0.4347787189	-0.3490425088	 0.09175
H	-0.2159623996	 0.0275656216	 2.2264289554	 0.27296
H	-2.068952983	-0.1989923083	 0.6616980329	 0.087169
H	-1.6542556594	-0.1293816655	-1.0402564942	 0.092592
H	-2.2117618984	-2.4422956665	-2.2268146064	 0.107576
H	-1.9785091413	-4.8627327813	-1.6035910835	 0.257982
H	-1.0562303235	-5.2523765351	 0.6973101546	 0.112934
H	-0.5862025494	-2.7933128411	 1.7727382183	 0.098376
