15
gdb 123675	4.26173	1.59184	1.38821	2.7427	70.43	-0.2289	0.0188	0.2478	906.9282	0.116759	-416.762569	-416.756579	-416.755634	-416.792768	24.694	
C	-0.0630683614	 1.5806847921	-0.0547998029	-0.21994
C	 1.4792985222	 1.3455911512	 0.0269478107	-0.104284
O	 1.1715964647	 0.1639138346	 0.8638221856	-0.290274
C	-0.0007066249	 0.0206296046	-0.0250889153	-0.06924
C	 0.7037719657	-0.2653418425	-1.3382672158	 0.392352
N	 0.698809489	-1.0271751845	-2.4084139535	-0.364204
N	 1.7818416057	-0.5620743039	-3.0970378682	-0.19621
C	 2.4503647064	 0.4591718334	-2.4627657748	-0.275829
C	 1.7593455255	 0.6775166959	-1.3056405897	 0.311512
H	-0.4640767913	 1.9879636332	 0.8754702189	 0.113198
H	-0.4758845076	 2.0780408802	-0.9353005924	 0.10663
H	 2.1754093512	 2.0466731985	 0.481338557	 0.089582
H	-0.7908218126	-0.6183453853	 0.3608753345	 0.097508
H	 2.0276039187	-1.005047986	-3.9656270961	 0.272371
H	 3.3258005487	 0.9055869584	-2.9072465681	 0.136827
