19
gdb 80699	1.99457	1.5598	1.44413	1.5502	75.33	-0.2409	-0.0251	0.2157	1067.2703	0.157046	-423.001689	-422.992528	-422.991583	-423.035533	34.051	
C	-0.111905751	 1.5330173737	 0.0146021586	-0.415442
C	 0.0545267411	 0.0374497897	 0.1841795007	-0.062765
C	 1.277914735	-0.775456829	-0.1897560885	-0.13551
C	 2.5720098643	-0.0301139062	 0.172553209	-0.271794
C	 2.110750348	-0.0285053898	 1.6767506257	-0.156176
C	 2.0660434441	 1.2421155624	 2.4807487488	 0.135129
O	 1.0880591337	 1.642536886	 3.0636613983	-0.253941
C	 0.8013621899	-0.702597264	 1.2618427011	 0.376048
O	 0.2170042442	-1.7094808711	 2.0083148037	-0.463721
H	 0.8223931335	 2.0829833921	 0.1499089336	 0.114964
H	-0.481211989	 1.7624300477	-0.9910550271	 0.112789
H	-0.8270938373	 1.9329877345	 0.7398501789	 0.130729
H	-0.8486307531	-0.5233072129	-0.0536862763	 0.09309
H	 1.2230502405	-1.6047610612	-0.8839318413	 0.095966
H	 3.4751219427	-0.6210572284	 0.0138135493	 0.113431
H	 2.7111165795	 0.9497616955	-0.2936277951	 0.106336
H	 2.7371298693	-0.7367804235	 2.2345847401	 0.113394
H	 3.0279930478	 1.8054639179	 2.5278993659	 0.07503
H	-0.4131257032	-1.2993021235	 2.6118669747	 0.292442
