20
gdb 80586	2.75142	1.28328	1.16792	3.7203	80.56	-0.225	0.0329	0.2579	1176.9114	0.1698	-403.146577	-403.137217	-403.136273	-403.181459	33.996	
C	 0.2961352521	 1.6084733844	 0.0935485	-0.416544
C	 0.2034313699	 0.1045201809	-0.024902214	-0.005918
C	 0.6330231143	-0.7090077696	-1.2289145014	-0.121029
C	 1.9426827016	-0.1787722294	-1.8364346303	-0.20275
N	 2.5634831576	-0.3048327019	-0.5063789937	-0.062202
C	 1.3645657035	-0.8438422681	 0.1088240887	-0.023186
C	 3.6355961127	 0.2797958331	 0.1029117874	 0.363417
C	 4.611067617	 0.9695011826	-0.8391520133	-0.49154
O	 3.799001372	 0.2156035089	 1.308357485	-0.36759
H	 1.2417561889	 1.991579334	-0.298189982	 0.120816
H	-0.5165568608	 2.096018626	-0.4554444838	 0.117285
H	 0.2301084725	 1.9161484367	 1.1417499367	 0.131648
H	-0.6959172218	-0.318110685	 0.4207543875	 0.095099
H	-0.0155153871	-1.4211816732	-1.7196432715	 0.100119
H	 2.3844609412	-0.8607063032	-2.571337238	 0.118294
H	 1.9244307662	 0.8352807434	-2.2522723896	 0.112497
H	 1.4214562972	-1.6599879308	 0.8174043377	 0.115419
H	 4.1965015549	 1.9216590876	-1.1892724309	 0.137229
H	 5.5334255352	 1.1708943808	-0.2947061448	 0.147877
H	 4.8277216828	 0.3592497829	-1.7210788197	 0.13106
