19
gdb 64405	2.11474	1.55982	1.17524	1.5794	71.6	-0.2459	-0.0284	0.2176	1116.3721	0.157355	-460.171638	-460.162358	-460.161414	-460.206272	34.045	
C	-0.3490935873	 1.4940856994	-0.0042493209	-0.467001
C	 0.0198996556	 0.0126074551	-0.0081630784	 0.347224
O	-1.1364143944	-0.7870393059	-0.2542388448	-0.466624
C	 1.0429336284	-0.3809515159	-1.10404532	-0.093135
O	 2.0584215035	-1.1677155498	-0.4905501058	-0.255455
C	 1.543292803	-1.6667200844	 0.7338423678	-0.111745
C	 0.7194518935	-0.5008911048	 1.2999443124	-0.134751
C	 1.6215522176	 0.5277448622	 1.9441005375	 0.150675
O	 1.3395715815	 1.1482690925	 2.9389199353	-0.266519
H	 0.5340353809	 2.131652586	 0.0967701906	 0.131032
H	-0.8576530628	 1.7501057367	-0.9382542679	 0.129709
H	-1.018106502	 1.7296153389	 0.8310665337	 0.126124
H	-1.8168525366	-0.5287143889	 0.3773879257	 0.280975
H	 0.5153596616	-0.9481776233	-1.8806140202	 0.116755
H	 1.5233289122	 0.4890510982	-1.5617739329	 0.107079
H	 0.8968361491	-2.5424284932	 0.5786621458	 0.112004
H	 2.3935966157	-1.9594879893	 1.3569290398	 0.115202
H	-0.0364023069	-0.7976950423	 2.0310020996	 0.087116
H	 2.5965157174	 0.6780652687	 1.4277067229	 0.091334
