21
gdb 36890	3.81832	1.0112	0.96275	2.3116	82.67	-0.2379	0.0654	0.3032	1321.9992	0.184018	-383.18669	-383.17844	-383.177496	-383.220273	31.908	
C	-0.0413672529	 1.4697806944	 0.410276039	-0.17993
C	 0.0309451033	 0.0161706218	 0.0044925177	 0.043744
C	-1.2090629541	-0.7221338612	-0.3338421609	-0.250497
N	-0.2313607401	-0.3922268993	-1.3863873703	-0.314369
N	 1.2294271029	 2.1327028337	 0.1473729126	-0.070033
C	 1.5636353765	 2.7659685631	-1.1088525677	-0.036363
C	 0.3808128263	 3.5189677542	-1.7507042806	-0.245482
C	 0.2122718427	 4.3358945034	-0.4316050798	-0.243695
C	 1.4064888078	 3.5650547651	 0.1677485206	-0.042063
H	-0.9075040216	 1.9362625872	-0.0880507694	 0.080325
H	-0.2215127011	 1.5399230081	 1.4905900454	 0.10865
H	 0.8533959736	-0.5294946115	 0.4610262577	 0.09951
H	-1.29653592	-1.7799723527	-0.103267797	 0.118466
H	-2.1497272623	-0.1766453299	-0.3049341834	 0.106381
H	-0.5642029095	 0.4069689757	-1.9217147592	 0.227371
H	 2.4604421561	 2.440899553	-1.6249662372	 0.095641
H	 0.7017271318	 4.1471999008	-2.5841345756	 0.110082
H	-0.4689058752	 2.9153807128	-2.0867668751	 0.092139
H	 0.4329383684	 5.3958133115	-0.5738043541	 0.10772
H	-0.7396367648	 4.2498459297	 0.1010322431	 0.100858
H	 2.1602812821	 3.98057946	 0.8285749243	 0.091546
