17
gdb 34807	4.16301	1.32762	1.25983	4.8035	75.87	-0.247	0.0161	0.2632	1019.4373	0.138869	-380.806293	-380.799646	-380.798702	-380.837147	27.395	
N	-0.01979032	-1.1898086178	-0.0451705566	-0.329723
C	 0.0000166824	-0.0345581547	-0.0187664797	 0.284248
C	-0.0412944113	 1.422155554	 0.005229044	-0.120462
C	-0.1609139638	 2.0695703034	 1.4136498257	-0.056587
C	 1.3688959993	 1.7506478373	 1.4709126792	-0.186205
N	 1.3484525493	 2.0502799571	-0.0349131392	-0.138987
C	 1.0231415378	 3.5074647036	 0.0548296074	 0.005056
C	-0.3254165497	 4.0607850428	-0.314589275	-0.316844
C	-0.082974665	 3.576038387	 1.0966007563	-0.058464
H	-0.7156722807	 1.74046266	-0.7882573065	 0.11817
H	-0.8875819792	 1.7262506116	 2.150401385	 0.088327
H	 2.0102587629	 2.4160886778	 2.0513780269	 0.111313
H	 1.6221020568	 0.7045221107	 1.6528901768	 0.139086
H	 1.8989375851	 4.1436159635	 0.046169812	 0.108694
H	-0.3374087431	 5.1413840185	-0.4233985394	 0.121885
H	-1.0091735732	 3.5724340716	-0.9986396634	 0.127282
H	-0.0901632276	 4.2730893136	 1.9258622166	 0.103211
