21
gdb 6929	4.7481	0.93473	0.87519	1.9338	75.96	-0.2385	0.0771	0.3156	1391.1439	0.187016	-366.241601	-366.231783	-366.230839	-366.276288	35.527	
C	 0.0451228414	 1.5338352782	-0.1552885043	-0.437224
C	-0.0268397945	 0.0361068263	 0.066548193	 0.321851
C	-1.1880548925	-0.6364841813	-0.6412620776	-0.455767
N	 1.2759546846	-0.6612072165	 0.0710349245	-0.370475
C	 0.4793117965	-0.6009988818	 1.3168080127	-0.053224
C	 1.0853489013	 0.1263897845	 2.4944297419	-0.191849
C	 2.1324276394	-0.7248581886	 3.2048864269	-0.064478
O	 2.6234910088	 0.0193593003	 4.3102488287	-0.423147
H	 0.9461231626	 1.9623037372	 0.2853423479	 0.130499
H	 0.0631148366	 1.7559303322	-1.2284459362	 0.114313
H	-0.8286203762	 2.0362081481	 0.2749207872	 0.112669
H	-1.1109558104	-0.5033303134	-1.7270781119	 0.119048
H	-1.2162880588	-1.7109866655	-0.4319195396	 0.108981
H	-2.1462498769	-0.2084982827	-0.3254874899	 0.121891
H	 1.1869033306	-1.5774527712	-0.3621096378	 0.220669
H	-0.040599497	-1.5187244483	 1.5976628108	 0.071475
H	 1.5611110923	 1.0567635868	 2.1742084957	 0.111543
H	 0.2995755014	 0.3925465804	 3.2123483609	 0.102757
H	 1.6799848171	-1.6752100781	 3.5360137723	 0.075487
H	 2.9355798679	-0.9722928001	 2.4945426428	 0.100947
H	 3.3318713558	-0.4849679865	 4.720338332	 0.284035
