14
gdb 24104	7.5482	0.79773	0.72472	6.583	69.3	-0.2174	0.013	0.2304	1437.9602	0.102378	-432.900215	-432.892326	-432.891381	-432.933957	27.872	
N	-0.0529050518	-1.1020604604	-0.0036371673	-0.29533
C	-0.0066414691	 0.0513781834	 0.0024522621	 0.271608
C	-0.0034268705	 1.5153979629	 0.0108254367	-0.205267
O	 1.3479168234	 1.9502540077	-0.0023898964	-0.273689
C	 1.5047321885	 3.2966948289	 0.0034626703	 0.387032
C	 2.7082734913	 3.9565370459	-0.0072716345	-0.215681
N	 2.3520256617	 5.2935598532	 0.0047856342	-0.23389
C	 0.999710507	 5.3649231859	 0.0215716506	 0.019939
N	 0.4525512398	 4.1631353856	 0.0212100221	-0.338655
H	-0.5494744662	 1.8911600814	-0.862828601	 0.163012
H	-0.5289694814	 1.8810366983	 0.9011846882	 0.163038
H	 3.7285198489	 3.6187809358	-0.0215711933	 0.142362
H	 2.9900525835	 6.0713340219	 0.0015633778	 0.274269
H	 0.4636057149	 6.3010985994	 0.0334784305	 0.141255
