21
gdb 92279	2.57005	1.56634	1.45735	1.5675	81.64	-0.2384	0.0197	0.2581	1044.5573	0.185062	-387.116494	-387.108592	-387.107648	-387.14916	31.334	
C	 0.7094205265	 1.2495402603	 0.3809945499	-0.396376
C	-0.015287245	-0.0139101109	-0.090996474	 0.129075
C	 0.6200006193	-0.6931608607	-1.3237835779	-0.250721
C	 1.5290955984	-1.8018517849	-0.7466247892	-0.037978
C	 3.0476610371	-1.4787484901	-0.6534869835	-0.274197
C	 3.3259374223	-1.4099134693	 0.8273784479	-0.062087
C	 2.2469949819	-1.6565241423	 1.5664251525	-0.084063
C	 1.0267207141	-1.9490560041	 0.7249791571	 0.073496
O	-0.0473416881	-1.0254577407	 0.9178912499	-0.27569
H	 1.7735775935	 1.0659090688	 0.5502783768	 0.123041
H	 0.6085578562	 2.0467127017	-0.3640171546	 0.10532
H	 0.2726626099	 1.6008219186	 1.3203221783	 0.119879
H	-1.0629786854	 0.2431452012	-0.2871292875	 0.07539
H	-0.1649475033	-1.1382293997	-1.9416970218	 0.102248
H	 1.1670198047	 0.0157713748	-1.951423386	 0.099321
H	 1.3832551831	-2.7296590636	-1.302049287	 0.076781
H	 3.652853341	-2.2556293046	-1.1375543773	 0.107063
H	 3.3091370812	-0.53958418	-1.1585448944	 0.103534
H	 4.3114171261	-1.1758646976	 1.2177467378	 0.093811
H	 2.2030733264	-1.6537838041	 2.6497075701	 0.09646
H	 0.61264033	-2.939764093	 0.9489557931	 0.075692
