25
gdb 115338	3.01696	1.01245	0.8651	1.4984	87.62	-0.2521	0.0684	0.3205	1467.7304	0.22924	-389.512764	-389.50246	-389.501516	-389.547812	39.126	
C	-0.1187497201	 1.6802937332	 0.2918093121	-0.386001
C	 0.020594488	 0.1615077027	 0.1381188889	-0.200313
C	-1.3180074117	-0.5582969234	-0.0524291025	 0.057901
C	-2.0617671801	-0.2115510695	-1.3739582135	-0.220134
C	-2.9248280702	-1.4535189753	-1.7148139376	-0.246249
C	-2.6830561459	-2.4566598204	-0.5627432542	 0.145098
O	-2.9027406326	-3.8128814623	-0.9030364515	-0.444356
C	-1.2704041097	-2.1046436339	-0.0328058178	-0.038026
C	-0.157451748	-2.7234388403	-0.8881644272	-0.419698
H	 0.8560140547	 2.153333303	 0.446675753	 0.110546
H	-0.5692015298	 2.1351537715	-0.5965054022	 0.118023
H	-0.7517264015	 1.9340045677	 1.1497627607	 0.112752
H	 0.678838151	-0.0559254913	-0.7125515633	 0.094357
H	 0.5231830701	-0.2448069023	 1.0258636107	 0.091358
H	-1.9707350508	-0.2589782034	 0.7809417984	 0.066552
H	-2.664182819	 0.6944470682	-1.2691412538	 0.09955
H	-1.338998121	-0.0110409496	-2.1729281019	 0.095784
H	-3.9868078361	-1.2235294463	-1.8312346127	 0.102614
H	-2.6015066262	-1.9070857972	-2.6598356723	 0.087369
H	-3.4012271744	-2.260255693	 0.241950816	 0.085095
H	-2.3854216137	-4.0075313312	-1.6914656116	 0.276348
H	-1.1530680405	-2.4726549907	 0.9929060736	 0.066084
H	-0.1809090794	-2.3718386045	-1.9263956471	 0.10991
H	 0.8311610488	-2.4850735424	-0.4868062975	 0.120276
H	-0.250188622	-3.8142825291	-0.8982112266	 0.115162
