17
gdb 127141	4.08736	1.11826	0.89163	2.3063	73.16	-0.2047	0.0268	0.2315	1281.145	0.136491	-451.332562	-451.323506	-451.322562	-451.366342	32.632	
C	-0.1038743778	 1.4237282058	-0.0237198455	-0.340674
N	 0.1893822948	 0.0017014493	-0.0453341041	-0.162004
C	 0.0541338163	-0.7187109988	 1.2076054618	-0.332747
C	 0.0219885239	-0.6998840996	-1.2025811777	 0.489976
N	-0.1171642463	-2.0134850804	-1.222651553	-0.267641
O	-0.173035584	-2.2874527731	-2.6308606485	-0.220223
C	-0.0894744523	-1.1052990782	-3.2346242452	 0.511539
N	-0.1852581534	-1.0824776004	-4.5907253326	-0.596222
N	 0.032336136	-0.0823265368	-2.4367634524	-0.426538
H	 0.5315930523	 1.9121443253	 0.7223117376	 0.120426
H	 0.1027452107	 1.8502532156	-1.004177373	 0.162825
H	-1.1546485578	 1.6290540318	 0.2345803179	 0.11317
H	-0.9976276925	-0.8735445723	 1.4924083582	 0.118646
H	 0.5293321851	-1.6968779506	 1.1187348003	 0.159815
H	 0.5483718409	-0.1488592734	 1.9998384723	 0.118784
H	 0.0316605039	-1.9437082165	-5.0667110975	 0.273982
H	 0.1585327102	-0.2432645277	-5.0290349389	 0.276884
