18
gdb 51678	4.05355	0.98163	0.89445	2.2999	73.28	-0.228	0.0022	0.2302	1310.2388	0.147858	-439.05453	-439.046373	-439.045429	-439.089076	29.544	
O	 0.2414862599	-0.0325245153	 0.0241468774	-0.27066
C	 0.1547139564	 1.150099048	-0.1053382464	 0.167403
O	 1.1146982837	 2.0012725906	 0.3115635003	-0.187256
C	 0.9397415208	 3.3964147016	 0.0908574929	 0.111537
C	 1.3082173842	 4.2964582725	 1.2928613001	-0.212466
N	 2.2813359444	 5.0769662789	 0.463120225	-0.129684
C	 3.6880038246	 4.5734841274	 0.6097828717	-0.163886
C	 3.497723898	 3.5431352686	-0.537187618	-0.254671
C	 2.0681947361	 4.1064047602	-0.6895924873	-0.008423
H	-0.7065527664	 1.6711074061	-0.5673908305	 0.081455
H	-0.0584714531	 3.5824277256	-0.3195839229	 0.093314
H	 0.494059215	 4.9122114568	 1.6853082917	 0.113536
H	 1.7642662992	 3.7412844203	 2.1196871398	 0.118697
H	 4.413793583	 5.3629123473	 0.3946160305	 0.11087
H	 3.9095265636	 4.1628098169	 1.6004632709	 0.107754
H	 4.1370494325	 3.695036588	-1.4083278859	 0.111632
H	 3.5414849266	 2.4923707677	-0.2462693475	 0.131263
H	 1.7954753715	 4.5237385888	-1.6626822518	 0.079584
