18
gdb 37409	3.60075	1.81626	1.6949	1.5541	72.79	-0.2287	0.0853	0.3141	856.6364	0.151869	-401.882723	-401.876962	-401.876018	-401.912494	25.586	
C	 0.0077630217	 1.4657481712	-0.1508765248	-0.26288
C	 1.2955139304	 0.7463010323	-0.0438337891	-0.036891
C	 1.9587861089	 0.3974786107	 1.2677103849	-0.046054
C	 1.2969313725	 0.621079497	 2.6833149378	 0.038627
C	-0.2179598392	 0.4042028652	 2.4771138969	-0.22836
C	-0.0741301145	-0.6120274612	 1.3193390817	-0.027403
C	 1.4302502704	-1.0086878505	 1.628805469	 0.093333
O	 1.6703066862	-0.7526354931	 3.0276239089	-0.295265
N	 0.0032691266	-0.0055991624	-0.0455411455	-0.118753
H	-0.3278425303	 2.089585547	 0.6677195851	 0.115808
H	-0.3065019043	 1.824449301	-1.1277132503	 0.118189
H	 1.9176727212	 0.6366553498	-0.930273347	 0.093749
H	 3.0413573813	 0.5065565018	 1.3032016166	 0.084927
H	 1.6496176241	 1.3681304194	 3.3942847168	 0.08329
H	-0.6181748265	-0.0677965924	 3.3772856752	 0.112483
H	-0.823657575	 1.2801473215	 2.2533580074	 0.104526
H	-0.8014090648	-1.4225031062	 1.3122624635	 0.08097
H	 1.8246787111	-1.951555481	 1.252376563	 0.089704
