15
gdb 129471	4.44427	1.02839	0.88509	6.0007	67.15	-0.234	-0.0049	0.2291	1243.2204	0.11533	-450.190636	-450.182734	-450.18179	-450.224256	28.743	
N	 0.2792805484	 0.1084600306	 1.0210093178	-0.51147
C	 0.0307719949	 0.1626737795	-0.3130764698	 0.38095
O	 0.5252974009	 0.9826388279	-1.0609096005	-0.360788
C	-1.0049407661	-0.8574392704	-0.8268680918	-0.402314
C	-0.9214335849	-2.2380640405	-0.2601948063	 0.353888
N	-0.8152633546	-3.3143446378	-1.0248115557	-0.256937
N	-0.7853402837	-4.3176616313	-0.1134846075	-0.179655
C	-0.867092622	-3.823063811	 1.1335593354	 0.017317
N	-0.9588216467	-2.5090843626	 1.0841838376	-0.312163
H	 0.9635720522	 0.7436849818	 1.3968461546	 0.254812
H	-0.0838260222	-0.6467969825	 1.5854440554	 0.273708
H	-1.9943552497	-0.4374475976	-0.6038269232	 0.145233
H	-0.9005112557	-0.9011216001	-1.9102772966	 0.153032
H	-0.7066231295	-5.2729847312	-0.4214241301	 0.288412
H	-0.8590409514	-4.4364939851	 2.0218111106	 0.155975
