12
gdb 130519	4.00619	1.80534	1.24451	1.8969	71.47	-0.2554	-0.1193	0.136	888.3723	0.080162	-431.647625	-431.641852	-431.640908	-431.677719	22.664	
O	-0.0967775845	 1.3180672957	 0.010266556	-0.244911
N	 1.0897926752	 2.0546788171	 0.0026255496	-0.081444
C	 2.1955016583	 1.3680521801	-0.0118599795	 0.088292
N	 2.4072076139	 0.0091325767	-0.0212177207	-0.313634
C	 1.307724304	-0.6767019593	-0.0141307021	 0.365652
N	 1.1486940108	-2.0293436026	-0.0199284615	-0.323038
C	-0.1717827753	-2.1862486858	-0.0077196619	 0.012978
C	-0.9671788452	-0.9809216631	 0.0064697487	-0.32626
C	-0.0219043733	-0.003933266	 0.0024614901	 0.393402
H	 3.0795415039	 1.9981078873	-0.0171371319	 0.158225
H	-0.5928583927	-3.1870034409	-0.0090429089	 0.136597
H	-2.0416730551	-0.9033068592	 0.0173722422	 0.134141
