22
gdb 93894	2.65514	1.44635	1.15505	2.7442	80.88	-0.2464	0.0632	0.3095	1159.1872	0.196983	-404.346545	-404.338167	-404.337223	-404.379173	33.855	
C	-0.0521082608	 1.5473319524	 0.0337132877	-0.403158
C	 0.0258750509	 0.0164326598	 0.0000113074	 0.033376
C	 0.6183151296	-0.5057416319	-1.3203673558	-0.212631
C	 0.8341564625	-2.0218832259	-1.2809343693	-0.224796
C	 1.8886765425	-2.4283004883	-0.2373074146	 0.138366
O	 3.2039877677	-2.1637310864	-0.6992218151	-0.446091
C	 1.6537024339	-1.7257680246	 1.1062604924	-0.084599
N	 2.2601052893	-0.378492951	 1.1686120654	-0.349993
C	 0.7924260108	-0.5157008628	 1.1990590338	-0.010721
H	 0.9526918295	 1.9802484785	-0.007569154	 0.126741
H	-0.6231042672	 1.9306588548	-0.8182659161	 0.111258
H	-0.5363324	 1.9055079711	 0.9490487075	 0.104591
H	-0.9948916095	-0.3852979201	 0.0873188677	 0.071247
H	-0.0511784678	-0.2354080893	-2.1441536161	 0.089765
H	 1.5739092258	-0.0063571994	-1.5183555141	 0.107805
H	-0.1149302355	-2.522703812	-1.0436305593	 0.083217
H	 1.1640717515	-2.3946017326	-2.2555837774	 0.101589
H	 1.8293254407	-3.5116691283	-0.0806862671	 0.072735
H	 3.4047496865	-1.2712847385	-0.381268723	 0.288785
H	 1.7474639514	-2.3463976176	 1.9935316231	 0.086407
H	 2.6295868366	-0.1903575011	 2.0950861253	 0.236477
H	 0.3124148718	-0.3309029968	 2.1596975916	 0.079629
