21
gdb 109891	2.70521	1.37022	1.15007	2.3744	77.31	-0.245	0.055	0.3	1167.2509	0.183185	-424.191922	-424.183278	-424.182334	-424.225482	33.215	
C	-0.0253990151	 1.7972728849	-0.2492276842	-0.386717
C	-0.2212267745	 0.279307992	-0.1621566907	-0.189132
C	 0.6192005843	-0.4728631763	-1.1877031132	-0.023558
C	 2.1777622151	-0.5762781975	-0.9369989429	 0.118363
O	 2.6859080806	-0.1206200401	 0.2860920456	-0.43192
C	 2.0698282656	-2.1205577751	-1.044257571	 0.070056
O	 1.8702917478	-2.6890938718	 0.273830782	-0.307786
C	 0.433202188	-2.7771286811	 0.0579330776	-0.087785
C	 0.535433973	-2.0284249359	-1.2794916787	-0.116522
H	 1.0195349185	 2.0580047963	-0.0600700258	 0.140286
H	-0.2986748075	 2.1764683721	-1.2404310141	 0.107645
H	-0.6428732704	 2.3186139077	 0.488812025	 0.108627
H	 0.0422924156	-0.0501439527	 0.8491209877	 0.096302
H	-1.2802198401	 0.0275405297	-0.3075259884	 0.08982
H	 0.438425001	-0.0437941813	-2.1798029415	 0.069044
H	 2.7648076592	-0.1161664532	-1.7373852059	 0.081572
H	 2.5246699622	-0.842375037	 0.9130220271	 0.29009
H	 2.7924027342	-2.6865089587	-1.6369204	 0.075743
H	 0.1255651773	-3.8252369248	-0.0389221297	 0.107694
H	-0.1373429261	-2.3097089188	 0.8667424534	 0.110818
H	 0.0156658415	-2.4578617586	-2.1345123921	 0.07736
