18
gdb 40754	3.94564	1.13809	1.01797	3.3138	71.88	-0.2342	0.061	0.2952	1192.3752	0.148392	-439.000479	-438.992811	-438.991867	-439.033305	29.082	
C	 0.0546405606	 1.3899887142	-0.1054403722	-0.183331
O	 1.1360119607	 0.4641694732	-0.2085482131	-0.237818
C	-0.185849307	-0.0554130509	-0.0221890941	 0.102219
C	-0.4423117411	-0.7321862485	 1.2947459643	-0.025782
N	-1.8882113645	-0.9161451344	 1.6294756075	-0.339507
C	-1.6793117367	-2.3502821714	 1.9531859457	-0.055494
C	-1.9684519041	-3.2459455688	 0.7393504536	-0.060574
O	-0.6439845037	-2.9863523061	 0.1984659606	-0.292337
C	-0.2444444316	-2.2689663812	 1.3813443198	 0.088468
H	 0.0408921246	 1.9936920691	 0.8019930599	 0.106196
H	-0.1946180556	 1.9254056791	-1.0203726015	 0.116524
H	-0.6005861256	-0.568582266	-0.887678372	 0.108297
H	 0.1356838418	-0.2253628384	 2.0798126545	 0.073629
H	-2.2034396574	-0.3533240933	 2.4098942505	 0.222747
H	-1.9593338594	-2.686074629	 2.9520537562	 0.07996
H	-2.0946127879	-4.312457045	 0.9660945056	 0.099378
H	-2.7680207229	-2.8988218859	 0.0776082779	 0.111584
H	 0.6764552097	-2.6562497069	 1.8210406368	 0.085842
