19
gdb 66935	2.1934	1.9702	1.51969	0.7852	74.01	-0.2218	0.0697	0.2916	976.5389	0.157085	-422.961159	-422.952623	-422.951679	-422.993463	33.658	
C	 0.0613831487	 1.5008718729	 0.0870198336	-0.520243
C	 0.0385489918	 0.0064779584	-0.0099086203	 0.276835
C	-0.9091787972	-0.913831441	 0.7793659884	 0.026996
O	-1.0663240878	-2.1442568774	 0.0613902585	-0.294575
C	 0.3611678827	-2.0522545953	-0.2061802432	-0.007609
C	 0.560428069	-1.0413457419	 0.9774296844	-0.19009
C	 0.4801027894	-0.8514146943	-1.2013867574	 0.358811
C	-0.3537379064	-0.8799208016	-2.4703698277	-0.473367
O	 1.8415607658	-0.539154199	-1.4620741801	-0.480294
H	 1.0475425611	 1.8885320526	-0.1879887179	 0.139277
H	-0.680907642	 1.9562466216	-0.5786138385	 0.122192
H	-0.1598756853	 1.8358266937	 1.1061974159	 0.117752
H	-1.7132480553	-0.5681374879	 1.4163614378	 0.108638
H	 0.849178145	-3.0104713618	-0.3803853542	 0.076707
H	 1.2173624716	-0.9870677362	 1.8335628085	 0.099767
H	-1.3790083383	-1.1788749163	-2.2438976234	 0.140789
H	-0.3607481645	 0.1042853445	-2.9492389118	 0.121518
H	 0.0574391277	-1.600355913	-3.1898227803	 0.100429
H	 2.1422731241	-1.1159299582	-2.1724996922	 0.276465
