22
gdb 6370	4.59444	0.94252	0.87496	2.3377	78.93	-0.2409	-0.0068	0.2341	1443.5308	0.197058	-350.244453	-350.234024	-350.23308	-350.280625	36.819	
C	-0.0811731802	 1.5951965145	-0.0768884506	-0.37524
C	-0.131723172	 0.0959727012	 0.2060740575	-0.274821
C	 0.7541226269	-0.3392721759	 1.3678330863	 0.37785
O	 1.320597367	 0.4657953871	 2.0732486968	-0.304441
C	 0.8984773598	-1.8439932933	 1.5726780167	-0.293047
C	 1.5255699714	-2.2576033766	 2.9111860602	 0.054979
C	 0.5790889536	-1.9710126091	 4.0851407309	-0.389069
C	 1.9415188528	-3.7336122782	 2.8825184558	-0.396289
H	 0.929761287	 1.9075424183	-0.3525095755	 0.127521
H	-0.7583583938	 1.8589854703	-0.8940570372	 0.108593
H	-0.3650896051	 2.1663854528	 0.8100857703	 0.134011
H	-1.1561322765	-0.2242340099	 0.4457726988	 0.122929
H	 0.1459656802	-0.4915645098	-0.6794647088	 0.115747
H	-0.0813880976	-2.3213626713	 1.4310428164	 0.106661
H	 1.5150974877	-2.2072436324	 0.7362890617	 0.117611
H	 2.4226597969	-1.6424287093	 3.0474772646	 0.094474
H	-0.3472653427	-2.5521987985	 3.9935719356	 0.102613
H	 1.045119246	-2.2430903161	 5.037848492	 0.110608
H	 0.3174106016	-0.9110245851	 4.131357886	 0.130549
H	 2.6538273408	-3.9353256099	 2.075012216	 0.107456
H	 2.4135525292	-4.0261956135	 3.8261168742	 0.11243
H	 1.073714237	-4.3873062154	 2.7313151826	 0.108874
