19
gdb 33199	5.40968	0.73415	0.68136	1.9766	78.81	-0.227	0.0046	0.2316	1682.6061	0.160278	-419.229996	-419.221029	-419.220085	-419.265092	31.875	
C	-0.0397459998	 1.4938013531	 0.3167419829	-0.3907
C	-0.0336919916	-0.0042276973	 0.0298145851	-0.094048
N	-1.394074545	-0.5310175676	-0.0147543572	-0.299691
C	-1.4392449782	-1.9747808448	-0.2260719829	-0.24769
C	-2.838538826	-2.4866804505	-0.1765462274	 0.398475
N	-3.4765268206	-3.2022131621	-1.0465506264	-0.304036
C	-4.7296725053	-3.4084427583	-0.4797088167	-0.113714
C	-4.7799405138	-2.790804109	 0.7212227761	-0.040701
O	-3.5669536388	-2.1951596349	 0.9354885778	-0.179579
H	 0.9784754983	 1.8935340117	 0.3162293846	 0.116623
H	-0.6264625488	 2.0276271067	-0.4360096277	 0.13035
H	-0.4782727774	 1.7044776871	 1.2991678238	 0.112796
H	 0.4295972568	-0.1924749462	-0.9476049733	 0.105824
H	 0.597899878	-0.5253812215	 0.7752152225	 0.076354
H	-1.8700896061	-0.3113208673	 0.8552007918	 0.222048
H	-1.0464100989	-2.2113027897	-1.219235053	 0.140312
H	-0.8235929542	-2.5355981588	 0.5052855832	 0.098622
H	-5.4939126722	-3.9797513872	-0.9818593459	 0.12452
H	-5.5195775763	-2.6710962435	 1.4936064628	 0.144238
