16
gdb 70229	4.08136	1.1631	1.0062	5.0834	77.47	-0.2438	-0.0463	0.1975	1170.7651	0.124818	-396.940117	-396.932104	-396.93116	-396.972431	30.528	
C	-0.0173700465	 1.5255998592	-0.0041352105	-0.468237
C	 0.0633799642	 0.0217783822	 0.014486172	 0.322177
C	-0.8224153658	-0.8042738162	 0.9274842168	-0.324605
C	 0.6625240294	-0.8653890368	 1.1400478976	-0.068389
N	 1.3246667346	-1.9218500374	 0.4194738785	-0.336632
C	 1.1457785866	-1.6460147795	-0.9266450182	 0.247203
N	 0.4466796326	-0.6066180471	-1.2239831476	-0.315385
C	 1.7133356682	-2.5280823226	-1.9055740609	 0.257074
N	 2.203787215	-3.2507844758	-2.6627890861	-0.321734
H	 0.9231296995	 1.9652725542	-0.3493949737	 0.128431
H	-0.8125674001	 1.85442234	-0.6808151237	 0.138418
H	-0.2363991626	 1.9166100874	 0.9937128643	 0.115373
H	-1.390772777	-0.2458536777	 1.6632499564	 0.122821
H	-1.323404974	-1.6769150566	 0.5214418574	 0.128449
H	 1.1343652057	-0.5093822755	 2.0475419824	 0.111306
H	 2.1952027302	-2.3120884477	 0.7469900152	 0.263731
