22
gdb 52711	4.01389	0.67419	0.60898	1.1078	92.65	-0.2324	0.0647	0.2971	1899.4892	0.192064	-367.160304	-367.149496	-367.148552	-367.198318	37.91	
C	-0.0201102729	 1.4749085682	 0.0779991401	-0.497273
C	-0.0155468501	 0.0192303625	 0.0294641444	 0.056591
C	-0.0101035198	-1.1850837351	 0.0020662725	 0.071272
C	-0.0091052069	-2.6469063087	-0.0638592023	-0.160186
C	-1.4447579268	-3.2030764344	-0.1302176989	-0.385743
C	 0.8693671264	-3.1150910104	-1.245421268	-0.13351
N	 1.0365778456	-4.5642127805	-1.2478983197	-0.064393
C	 0.2106192157	-5.3321474836	-2.1763611607	-0.219187
C	 1.6604373155	-5.1309042249	-2.4385923298	-0.225349
H	 0.9985499917	 1.8784164967	 0.0614813772	 0.145488
H	-0.5579662254	 1.9021997594	-0.7757639792	 0.144681
H	-0.5049251484	 1.8416745417	 0.9897087206	 0.146256
H	 0.4618750778	-3.0405684418	 0.8468716879	 0.109806
H	-1.4334847311	-4.2954380681	-0.1082264115	 0.126497
H	-2.0320866785	-2.8459142793	 0.7196949796	 0.120996
H	-1.9464859006	-2.8746300426	-1.0464179414	 0.114793
H	 0.4409685149	-2.7380459371	-2.1917392095	 0.085422
H	 1.8611181119	-2.6631334374	-1.1382887751	 0.11069
H	-0.1582884815	-6.2850428747	-1.8073064052	 0.116369
H	-0.4885461078	-4.786541954	-2.8081554645	 0.111495
H	 1.9278898396	-4.4507693442	-3.2461780016	 0.109119
H	 2.3729256107	-5.9321856117	-2.2638207349	 0.116165
