15
gdb 27625	3.04805	1.23037	0.88137	5.7252	76.28	-0.205	-0.0006	0.2044	1232.7335	0.113184	-416.871611	-416.863002	-416.862058	-416.904792	31.448	
C	-0.0472524393	 1.5025357079	 0.0677644308	-0.516812
C	 0.0095178987	 0.017271607	-0.0235402991	 0.218428
C	 0.0147502978	-0.8239116798	-1.1221309083	 0.130661
C	 0.0815795337	-2.1861218162	-0.6570396879	-0.4301
C	 0.1145838976	-2.112972471	 0.7074094091	 0.406897
O	 0.1775406637	-3.0336278769	 1.6966170913	-0.431075
N	 0.0714719398	-0.7950439356	 1.0848472485	-0.345378
C	-0.0379139026	-0.3953430476	-2.4690377624	 0.194496
N	-0.0813955468	-0.042037462	-3.5727514033	-0.366323
H	 0.8378056225	 1.9169558355	 0.5658190585	 0.135965
H	-0.0961515323	 1.9275952767	-0.9367308523	 0.165909
H	-0.9293402639	 1.8458388082	 0.6219489359	 0.135744
H	 0.101060196	-3.0742583802	-1.2667724351	 0.114503
H	 0.2018264807	-3.91023205	 1.3005676528	 0.31431
H	 0.0842359045	-0.4859264761	 2.0424314315	 0.272774
