21
gdb 116341	2.93451	1.2337	0.96113	1.9799	78.02	-0.2374	0.0756	0.3129	1254.6439	0.183869	-424.208673	-424.200086	-424.199142	-424.24191	33.26	
O	-0.0354397816	 1.443578755	 0.0174173382	-0.425109
C	 0.0413108129	 0.0251820378	-0.021671347	-0.087154
C	-1.3824922098	-0.5256742255	-0.0342484926	 0.009864
C	-2.1914522081	-0.044227434	-1.2522113566	-0.215583
C	-3.4877805209	-0.8390034733	-1.366573116	-0.077897
O	-3.2275496774	-2.2123232567	-1.6330776864	-0.259402
C	-2.4077519601	-2.8454424173	-0.6929986789	 0.094265
C	-0.9429157481	-2.9708252549	-1.0216637087	-0.311756
C	-1.3990590496	-2.042914753	 0.0904067374	-0.067467
H	 0.8579819615	 1.7958353806	-0.0242012134	 0.287314
H	 0.5770089931	-0.3219832236	-0.9194513631	 0.086412
H	 0.5806665336	-0.3684942945	 0.8552282779	 0.082146
H	-1.8825024399	-0.1270218441	 0.8598451674	 0.081241
H	-2.3980510079	 1.0250196414	-1.155430675	 0.114346
H	-1.6159744223	-0.1786644935	-2.1771456981	 0.098192
H	-4.0845967794	-0.7290820983	-0.4459028389	 0.0852
H	-4.0970958171	-0.4911102096	-2.2054985756	 0.104685
H	-2.9052185911	-3.6774055148	-0.1988283678	 0.088463
H	-0.4123554325	-3.8766702137	-0.7490244683	 0.107666
H	-0.6383051474	-2.5332516457	-1.9661500788	 0.117913
H	-1.1999683477	-2.4046884326	 1.0957730641	 0.086662
