18
gdb 86638	1.90505	1.82071	1.18263	2.3597	73.31	-0.2602	-0.0349	0.2253	1097.8497	0.147531	-439.125329	-439.116682	-439.115738	-439.159244	31.591	
C	 0.7831353104	 1.2365042913	-0.1985984204	-0.397636
C	-0.03429521	-0.0467234814	-0.1355252712	 0.111604
C	 0.3043088726	-1.0784066716	-1.2353393168	-0.267288
C	 1.2144721635	-2.0839026796	-0.5276327258	-0.184008
C	 2.7083591026	-1.8917460409	-0.7814173055	 0.145802
O	 3.173392425	-1.0537891669	-1.5090180512	-0.23592
C	 0.9453683505	-1.8588862602	 0.9535674582	 0.390619
N	 1.3642042042	-2.6161839846	 1.8742662948	-0.540748
O	 0.2256060579	-0.7233898679	 1.1229898452	-0.240352
H	 1.8520367164	 1.0183934252	-0.2735928815	 0.144089
H	 0.4936523374	 1.8174840642	-1.0801396348	 0.123528
H	 0.6057519396	 1.8466194047	 0.6910565236	 0.128604
H	-1.1015103015	 0.1929950656	-0.1271743184	 0.095807
H	-0.6017838902	-1.5702332519	-1.595357086	 0.11445
H	 0.8101488472	-0.6116131668	-2.0825791232	 0.136971
H	 0.9925949325	-3.1295760457	-0.7631311418	 0.129738
H	 3.346365489	-2.5993428308	-0.2142950838	 0.118761
H	 1.0943736226	-2.2567855328	 2.7912808685	 0.225978
