12
gdb 20773	3.38219	2.43111	1.4268	2.135	58.36	-0.2635	-0.0757	0.1878	795.5809	0.083661	-414.66112	-414.654442	-414.653498	-414.692265	23.963	
C	-0.0338896729	 1.4912640608	 0.0270319567	-0.46189
C	-0.0103335539	-0.0028760198	-0.0133771691	 0.259973
N	-0.052356674	-0.5637307495	-1.1710973083	-0.128426
O	-0.028700817	-1.9701991502	-1.1754592964	-0.203886
C	 0.0342405311	-2.6266248107	-0.0125856747	 0.173922
N	 0.0787337331	-2.1471655167	 1.1708960209	-0.310255
C	 0.0598163394	-0.752727003	 1.2779900715	 0.349385
O	 0.0970405401	-0.1698735979	 2.3370354581	-0.31527
H	 0.8605655484	 1.8592123985	 0.5388282721	 0.161829
H	-0.0860703421	 1.9031957784	-0.9812541614	 0.148224
H	-0.8908917529	 1.8294845588	 0.6173823398	 0.161837
H	 0.0441830307	-3.6997661086	-0.1969053292	 0.164559
