11
gdb 24962	5.41324	1.39596	1.11303	4.3141	57.87	-0.2244	-0.0242	0.2003	954.0736	0.068117	-488.718304	-488.712164	-488.71122	-488.748994	23.159	
O	 0.0111308307	 0.024348322	-0.0853321071	-0.352483
C	-0.0323810441	 1.2151637859	-0.0570507081	 0.462502
N	-1.1768676559	 2.0423505887	-0.0801384132	-0.485292
C	-0.721901865	 3.3268866253	 0.1477258156	 0.313543
C	 0.6181989927	 3.3163018147	 0.1502380482	 0.305316
O	 1.0986650785	 2.0392961276	 0.0339978214	-0.236897
N	 1.1241315574	 4.5780454339	 0.031366494	-0.326473
C	 0.0427271008	 5.3019610216	-0.0268794689	 0.049443
O	-1.1527027993	 4.5966713561	-0.0008471481	-0.188149
H	-2.0707966706	 1.6443844077	 0.1601268769	 0.290611
H	-0.0487484052	 6.3748275066	-0.0274002407	 0.16788
