21
gdb 76182	2.06041	1.44414	1.19948	4.9198	84.53	-0.2403	0.029	0.2693	1195.5782	0.179116	-383.266259	-383.255457	-383.254513	-383.301367	39.159	
C	-1.2319498665	-3.1094186091	 2.2093638729	-0.324045
N	-0.7002576503	-2.3472707537	 1.0899479201	-0.143628
C	-1.520423049	-1.9195731238	-0.03956674	 0.263652
C	-0.8434874341	-2.0645569014	-1.3911895774	-0.445423
C	-3.0126276203	-2.2036527582	-0.0978427231	-0.461135
C	-0.9833750226	-0.907876497	 0.9628923159	 0.089066
C	-1.87866665	-0.1450555677	 1.9300172505	-0.468828
C	 0.1832017883	-0.1220427593	 0.5892586693	 0.285718
N	 1.0878324003	 0.5362876284	 0.2962816937	-0.358947
H	-2.2515217343	-2.8528767632	 2.525836727	 0.104181
H	-1.2199182624	-4.1689286706	 1.9360501878	 0.134128
H	-0.56631277	-2.9787129867	 3.0677680776	 0.136333
H	-0.97092487	-3.0873295996	-1.7626041646	 0.118126
H	-1.2871630131	-1.3821920225	-2.1241636354	 0.120825
H	 0.2250519336	-1.8568287167	-1.3231087194	 0.150585
H	-3.5207953254	-2.1345654463	 0.8636303848	 0.121856
H	-3.4999014545	-1.5052756659	-0.7855149692	 0.132741
H	-3.1767294924	-3.214355235	-0.4877537154	 0.130119
H	-2.7822464595	-0.6949618993	 2.1881104539	 0.127045
H	-1.3363636995	 0.07606018	 2.8544444001	 0.142875
H	-2.1782202184	 0.8081654776	 1.484973801	 0.144755
