16
gdb 56842	3.19881	1.13461	0.98022	2.592	69.08	-0.2561	0.0023	0.2583	1194.8576	0.123638	-437.807395	-437.799332	-437.798388	-437.840817	29.885	
O	-0.0521914832	 1.3840118682	-0.0675565566	-0.404637
C	 0.0572606551	-0.025552503	-0.159123265	-0.06768
C	 0.8121403624	-0.4308241287	-1.3653070267	 0.259311
N	 1.4316974843	-0.738007502	-2.2911731287	-0.314204
C	 0.7060150485	-0.6277962413	 1.0873851255	 0.021112
C	-0.0463699748	-0.715698214	 2.4446300654	 0.025936
C	-0.9115364127	-1.8875456597	 1.9212227027	-0.235529
C	 0.5621424328	-2.1189940591	 1.5081682994	 0.033793
O	 0.966225356	-1.708956631	 2.8736362184	-0.304051
H	 0.8356727044	 1.7525488737	 0.011845809	 0.2972
H	-0.9694047477	-0.3815026271	-0.2798398266	 0.140183
H	 1.7329461163	-0.2691525107	 1.2034567374	 0.098676
H	-0.2988027986	 0.0828045613	 3.1410975421	 0.108941
H	-1.270796289	-2.5619577123	 2.6982129389	 0.122233
H	-1.6645876025	-1.7018485126	 1.1528744428	 0.10511
H	 1.0405368285	-3.0002919117	 1.0824888719	 0.113605
