15
gdb 77851	2.18421	1.58827	1.50155	3.442	71.32	-0.2375	-0.0282	0.2093	979.0075	0.110948	-420.571725	-420.563713	-420.562769	-420.604198	30.652	
O	 0.1914028736	 1.393512861	 0.2821927895	-0.420906
C	 0.0535147081	 0.036142657	 0.0148061639	 0.013466
C	-1.3232028215	-0.6592161987	 0.0686426579	-0.113847
C	-2.1848563469	-0.2447857972	-1.089297816	-0.22004
C	-2.1395019207	 1.0588666146	-1.7003803898	 0.309645
C	-2.1135817299	 2.1461163121	-2.2168077876	-0.429278
C	-1.0921402833	-1.3032282642	-1.3109253283	-0.199839
C	 0.2306165673	-0.58365543	-1.4191533129	 0.361908
O	 1.1196397877	-0.5863786391	-2.2171228031	-0.300824
H	-0.3552479734	 1.8778638503	-0.3499077797	 0.293553
H	 0.7596450474	-0.490086715	 0.6690551859	 0.123812
H	-1.7552936594	-1.128348389	 0.9430341446	 0.112724
H	-3.1792008622	-0.6841632458	-1.0718781003	 0.13457
H	-2.0943788344	 3.0989992801	-2.6865579251	 0.212805
H	-1.3465578025	-2.287886166	-1.6807923092	 0.122252
