21
gdb 78313	2.5352	1.67	1.40887	1.3805	81.66	-0.2266	0.0704	0.297	1040.868	0.182818	-387.031837	-387.023643	-387.022699	-387.063765	33.606	
C	 0.0109065928	 1.5285266066	 0.0236054852	-0.483625
C	-0.0458295829	 0.0158834375	 0.0237913229	 0.367227
C	-1.4580346015	-0.657559047	 0.0787348137	-0.283162
C	-1.0183983447	-1.4620046262	 1.347062851	-0.227645
C	 0.3945029431	-0.8053725328	 1.2671852867	-0.062531
C	 1.5415307568	-1.4474984973	 0.4570322916	-0.138586
C	 1.1414736885	-2.1205864574	-0.8216437245	 0.087077
O	 0.0105721671	-2.9235533048	-1.0289965597	-0.419824
C	 1.0893404872	-0.6364819173	-0.8101742458	-0.147095
H	 1.0272324335	 1.8885204507	 0.2224615616	 0.111776
H	-0.3004877917	 1.9347259221	-0.9472463995	 0.114526
H	-0.6516992822	 1.9486313742	 0.788225309	 0.110269
H	-2.2533936185	 0.0662602646	 0.2800923343	 0.083469
H	-1.7352475941	-1.2592478619	-0.784519156	 0.118091
H	-1.5591734754	-1.1715409975	 2.2517875648	 0.089896
H	-1.0564904579	-2.5470606516	 1.2556983704	 0.086361
H	 0.7475635783	-0.285098414	 2.159531301	 0.062084
H	 2.5424630546	-1.5859047054	 0.8533813084	 0.078285
H	 2.0174254231	-2.479806216	-1.368221425	 0.089463
H	 0.1635148117	-3.7628289204	-0.5822230749	 0.284977
H	 1.694001062	-0.062597896	-1.5062777752	 0.078967
