16
gdb 82703	2.86201	1.58445	1.23083	4.2991	69.67	-0.2513	-0.0391	0.2122	1008.9703	0.124024	-437.828321	-437.820646	-437.819701	-437.860585	28.873	
O	-0.0209502231	 1.5090884337	 0.1144781721	-0.434049
C	-0.0346367702	 0.1039171123	 0.0794968851	 0.045996
C	 0.164977324	-0.7121609876	 1.3790680952	-0.067184
C	-0.8531333013	-0.1484646493	 2.3891154021	-0.241979
C	-1.8724122439	-0.7581717224	 1.4435293837	-0.058613
N	-0.9054908082	-1.7311840454	 0.8719190963	-0.176981
C	-1.3986528779	-0.5413866291	 0.0317433258	 0.227589
C	-2.2875775107	-0.7500361074	-1.1321826566	 0.051435
O	-3.3214778615	-1.3711036633	-1.086587671	-0.255198
H	 0.8851840882	 1.813821402	 0.0024675224	 0.29044
H	 0.5994561918	-0.2952070407	-0.723425778	 0.089654
H	 1.1448874913	-1.0781063555	 1.6786096977	 0.087291
H	-0.8236791883	-0.6951663544	 3.3341109	 0.118341
H	-0.8596962171	 0.9298930099	 2.5620104223	 0.119989
H	-2.9059450786	-1.035619078	 1.6128287571	 0.123202
H	-1.9296480946	-0.285215575	-2.077540324	 0.080066
