21
gdb 74920	2.76787	1.49435	1.32576	0.437	88.1	-0.2089	0.0277	0.2366	1105.8106	0.18333	-349.943204	-349.935056	-349.934111	-349.975314	32.84	
C	 0.079631288	 1.4784652723	 0.0219826409	-0.50275
C	-0.0318047428	-0.0106165691	-0.0557772497	 0.340744
C	-0.0887760282	-0.7882906996	-1.1464909523	-0.200609
C	-0.0246075875	-2.2387155922	-0.7341176711	-0.148235
C	 1.4215465173	-2.5061677418	-0.1534446741	-0.224146
C	 0.8928873952	-2.1208327184	 1.2195581952	-0.121514
C	-0.0600457834	-0.8913656684	 1.152744688	-0.186181
C	-0.5394591538	-2.2607717316	 0.7544851755	 0.358694
C	-1.7136039289	-3.0070749428	 1.308809932	-0.520139
H	 1.0177041867	 1.7840497888	 0.5029992862	 0.126189
H	 0.0449564757	 1.9353012249	-0.970930579	 0.121403
H	-0.7315855859	 1.9098965958	 0.6227572608	 0.120908
H	-0.0133947448	-0.4490728289	-2.1734069806	 0.083352
H	-0.4080784652	-2.9752139479	-1.4401462607	 0.061783
H	 1.6614795766	-3.5727044962	-0.1801877515	 0.097927
H	 2.244564448	-1.9319953131	-0.5926927302	 0.086192
H	 1.3301457946	-2.394962955	 2.1734526572	 0.078889
H	-0.34720498	-0.4947119462	 2.1219536283	 0.07074
H	-2.6556815106	-2.6419261061	 0.8825455776	 0.122197
H	-1.6464485047	-4.0805797645	 1.0958887985	 0.116677
H	-1.7717689663	-2.88831948	 2.3962447991	 0.117881
