18
gdb 65593	2.89735	1.34532	1.21477	2.4062	76.56	-0.2419	0.0319	0.2739	1090.7922	0.147384	-401.890663	-401.882323	-401.881379	-401.923402	32.887	
O	-0.1046249004	 1.3680526587	 0.0634037739	-0.462243
C	 0.01237378	-0.0480230155	 0.0059338329	 0.236041
C	 0.6642913868	-0.6731737425	 1.2859706068	-0.272495
C	-0.0332531726	-2.0149940084	 1.4565434432	-0.032697
N	-1.343165337	-1.9027629462	 2.1322793876	-0.329122
C	-1.2907046107	-2.0041119557	 0.6584504822	-0.037707
C	-1.4197489871	-0.6579897792	-0.0380562685	-0.249533
C	 0.7795158903	-0.4483125876	-1.1824055747	 0.318251
C	 1.4357707715	-0.750958612	-2.1439672237	-0.516628
H	 0.7594281635	 1.7460503543	-0.1320152798	 0.282371
H	 1.7468925934	-0.7706685923	 1.1784223559	 0.101638
H	 0.4484146123	-0.0146613166	 2.1318518144	 0.120938
H	 0.5500797766	-2.9194153789	 1.5916769827	 0.087297
H	-1.5973887905	-2.8090444331	 2.5202367598	 0.228442
H	-1.6732460457	-2.9002404902	 0.1819900649	 0.087739
H	-2.0861753038	 0.0067820496	 0.5181005855	 0.12689
H	-1.7835395818	-0.7412769031	-1.0634627266	 0.110578
H	 2.0043788251	-1.0196618912	-2.9999300167	 0.200242
