16
gdb 67929	2.67143	1.34721	1.00275	4.6446	72.63	-0.2469	-0.0306	0.2163	1163.1272	0.121992	-437.877093	-437.86868	-437.867736	-437.910359	30.801	
C	 0.2550742575	 1.4014286257	-0.0570976959	-0.502889
C	-0.0106984075	-0.0703884026	-0.0003156636	 0.304649
C	-1.387009002	-0.7619576063	 0.0806577411	-0.406063
C	-0.7231231421	-1.8043626538	 1.0300579711	 0.447816
O	-1.1547816377	-2.6637902664	 1.7360966746	-0.295213
C	 0.637139689	-1.1404731098	 0.8855186488	-0.225246
N	 0.8856976488	-1.0691144206	-0.5590305783	-0.110573
C	 2.1541469723	-0.828943303	-1.066907129	 0.135902
O	 3.1819257168	-1.2635938157	-0.6092471647	-0.286301
H	 1.312845022	 1.6204345098	 0.1159922554	 0.14632
H	-0.022242347	 1.8137705574	-1.0336935692	 0.142295
H	-0.3347399677	 1.9228556929	 0.7026113082	 0.141655
H	-2.138378913	-0.184293361	 0.6275032011	 0.137656
H	-1.8050898509	-1.1270306698	-0.858940506	 0.137235
H	 1.4755388833	-1.0876009846	 1.569012528	 0.139158
H	 2.1023327381	-0.2507182323	-2.0085924816	 0.093599
