19
gdb 95141	2.23734	1.6626	1.4098	2.4625	74.33	-0.2371	-0.0142	0.2229	1024.7894	0.161174	-423.040881	-423.033117	-423.032173	-423.07298	30.866	
O	 0.376337791	 0.9610207561	-0.8102814609	-0.433049
C	 0.0489253253	-0.1264540562	 0.0333563754	 0.13525
C	 0.5231568065	 0.1171180673	 1.485190028	-0.232355
C	-0.2241097591	-0.7333647643	 2.5393328437	-0.227056
C	-1.6938397733	-0.9614681533	 2.114678715	-0.130501
C	-1.7082961659	-1.7832724328	 0.7889094978	-0.247088
C	-1.469898392	-0.4498146468	 0.017945712	-0.165783
C	-2.1373064075	 0.2216907065	 1.2307594271	 0.410025
O	-2.8211567351	 1.1920278738	 1.3906080561	-0.325648
H	-0.0659729783	 1.7473537936	-0.4696285932	 0.285287
H	 0.5730681081	-0.98271592	-0.4064392964	 0.09648
H	 1.6061831483	-0.0125844185	 1.5594826264	 0.107089
H	 0.3250101361	 1.1753936353	 1.7006388508	 0.108586
H	 0.2548193986	-1.709827902	 2.6744461499	 0.109209
H	-0.1835105134	-0.2239920513	 3.506829835	 0.114296
H	-2.3339335754	-1.2672057179	 2.9434233133	 0.086992
H	-0.9315063839	-2.54594563	 0.6874975371	 0.101865
H	-2.6849488807	-2.2201994743	 0.5723201608	 0.114321
H	-1.8892429091	-0.3041460552	-0.9782208777	 0.092079
