19
gdb 8297	7.38044	0.89003	0.83324	2.6971	73.54	-0.2292	-0.0225	0.2067	1386.4521	0.163792	-365.05611	-365.047435	-365.046491	-365.089817	31.223	
C	-0.0247322014	 1.595116973	-0.0014591334	-0.38092
C	-0.0216494019	 0.0644883174	 0.0109437143	-0.17315
C	-1.4296282505	-0.5268219504	-0.0672370699	-0.126681
N	-1.4158250568	-1.9781158004	-0.0335047311	-0.08274
C	-0.914740355	-2.6968379328	-1.230223585	-0.290176
C	-2.127816042	-3.6304250867	-1.1061488987	 0.392407
O	-2.4588044578	-4.665093995	-1.5989113354	-0.279198
C	-2.7233811955	-2.673398752	-0.0635195917	-0.287012
H	 0.9929146473	 1.9930289323	 0.0495541908	 0.117047
H	-0.4890684406	 1.985698913	-0.913714953	 0.116186
H	-0.5820992813	 1.997989939	 0.8515021043	 0.116645
H	 0.5736403222	-0.3083861115	-0.8327257833	 0.099571
H	 0.4631267089	-0.309978404	 0.9197069794	 0.10897
H	-2.0194442013	-0.1784048064	 0.79000754	 0.104031
H	-1.9401488865	-0.1465845266	-0.977117624	 0.071476
H	-0.9567741634	-2.1122234279	-2.1656439354	 0.114476
H	 0.0796428108	-3.1450054059	-1.1370531792	 0.132907
H	-3.0537690755	-3.1016790469	 0.8888307989	 0.131545
H	-3.5479509398	-2.0797170183	-0.4939082778	 0.114616
