18
gdb 93371	3.20249	1.44583	1.10817	5.5289	71.9	-0.2568	0.011	0.2679	1099.0711	0.14885	-439.099147	-439.091199	-439.090255	-439.131788	30.216	
C	-0.0219686852	 1.5722284737	-0.0407377958	-0.401663
C	 0.0354390218	 0.0420248216	 0.014956756	-0.025118
C	 0.6606810122	-0.5479878616	-1.2460377607	-0.100386
O	 0.8619952336	-1.9634272771	-1.1451089819	-0.233822
C	 1.6097272296	-2.4281377548	-0.1038114101	 0.425955
O	 2.2687898722	-3.4184714061	-0.2279112844	-0.326617
N	 1.4925420492	-1.7495036781	 1.134279671	-0.16389
C	 2.258949071	-0.5084862898	 1.3400693492	-0.264244
C	 0.7731495814	-0.4780436923	 1.2312448951	-0.002757
H	 0.9819853221	 2.0028726974	-0.1179979008	 0.123505
H	-0.6047367477	 1.9136654355	-0.9024101337	 0.124287
H	-0.4912906548	 1.9785120772	 0.8601708101	 0.127918
H	-0.9886596557	-0.347623596	 0.0795903778	 0.099672
H	 0.0071619191	-0.4079039326	-2.1096828494	 0.130479
H	 1.6190889281	-0.0630400411	-1.47724502	 0.112681
H	 2.7393267397	-0.4213398418	 2.3100174928	 0.135555
H	 2.8523983266	-0.1369246214	 0.5088176158	 0.131311
H	 0.2209079669	-0.3898615927	 2.1654961489	 0.107133
