15
gdb 112315	3.04063	1.42206	1.07231	3.9954	61.85	-0.2693	-0.0178	0.2515	1091.8291	0.111825	-494.901836	-494.894016	-494.893072	-494.934717	28.149	
C	 0.0010189786	 1.3086541188	-0.1965144458	-0.246106
O	-0.0421353719	-0.1118189661	-0.1158583446	-0.227502
C	-1.2940930367	-0.6279507262	 0.1006503879	 0.221454
O	-2.1661580134	-0.401311593	-1.0397087844	-0.260728
C	-2.7952885701	-1.5426553356	-1.4451747903	 0.46565
O	-3.6776380064	-1.5538906528	-2.249471262	-0.331145
C	-2.1919033847	-2.7057720509	-0.693400088	-0.130763
O	-0.7747402772	-2.7765674399	-0.9225252227	-0.22118
C	-1.2369938244	-2.1374046417	 0.2589206651	-0.018601
H	 1.0532520394	 1.5830865155	-0.2823858918	 0.140982
H	-0.5464586761	 1.6714545142	-1.0724325888	 0.144804
H	-0.4210974276	 1.7680011665	 0.7087521666	 0.114457
H	-1.7890221053	-0.1482604096	 0.9603358889	 0.087646
H	-2.7304118972	-3.6396847803	-0.5856571176	 0.134141
H	-0.9666028069	-2.5880676789	 1.2078625676	 0.126891
