20
gdb 66924	2.18006	1.97294	1.51958	2.1133	77.9	-0.216	0.0683	0.2843	990.4723	0.169892	-403.07106	-403.062591	-403.061647	-403.103185	34.085	
C	-0.059324535	 1.5813973589	-0.0605124318	-0.474862
C	 0.0214983711	 0.0607741576	 0.0321638221	 0.267565
C	-1.3376984573	-0.5679373674	-0.2634647641	-0.42742
N	 1.067382824	-0.6423892221	-0.8569650907	-0.199917
C	 2.3821780105	 0.0175257153	-0.4749044435	-0.190065
C	 2.2440370676	-0.5926188501	 0.9041896374	-0.170151
C	 1.3098586886	-1.6215852044	 0.3154439199	-0.087193
C	 0.7216904859	-0.598454988	 1.2191666823	 0.356569
O	 0.2380181228	-0.8205852328	 2.4924248407	-0.468171
H	 0.8168155673	 2.0835967409	 0.3558616477	 0.113382
H	-0.1712224974	 1.8927135194	-1.1052792624	 0.128246
H	-0.9365177337	 1.9414789338	 0.486966868	 0.117255
H	-1.7123275741	-0.2208661368	-1.2313663973	 0.115995
H	-1.2697060421	-1.6582741888	-0.295550029	 0.121115
H	-2.0632871562	-0.2948845769	 0.5095558332	 0.113207
H	 3.1831396061	-0.4440980735	-1.0600884383	 0.107725
H	 2.4222148208	 1.1019448402	-0.609934151	 0.096378
H	 2.966387199	-0.7322168858	 1.7003110231	 0.088461
H	 1.3000586825	-2.7001832996	 0.2608710798	 0.103201
H	 0.4441401497	-0.0528837397	 3.0370936937	 0.288681
