18
gdb 107952	3.03094	1.61724	1.37881	1.7429	76.03	-0.2228	-0.0054	0.2175	996.7592	0.148311	-401.857846	-401.8504	-401.849455	-401.889895	29.246	
C	 0.0087019815	 1.4064128115	-0.048952083	-0.264724
O	-0.0206555213	-0.0107912972	-0.0420407711	-0.283797
C	-1.2823427449	-0.549900081	-0.0023532962	 0.39444
C	-2.473644606	-0.3801316181	-0.9625807382	-0.253536
N	-3.0003896012	-1.4130979692	 0.0282166143	-0.141221
C	-1.5865779275	-2.074156617	 0.0151701453	-0.095298
C	-1.39042087	-2.6012551612	 1.4169249269	-0.088273
C	-1.8906056094	-1.6268840022	 2.1807734187	-0.087438
C	-2.3414269277	-0.5973155959	 1.1749409679	-0.114004
H	 1.057550989	 1.7040136952	-0.1027849035	 0.133546
H	-0.5254657264	 1.8174859358	-0.9165182959	 0.116408
H	-0.4341043042	 1.8233179407	 0.8663031976	 0.114199
H	-3.0331822658	 0.5588733763	-0.9466719829	 0.098644
H	-2.3721851057	-0.7647642417	-1.9810694444	 0.10193
H	-1.3704662994	-2.6939090387	-0.8553506862	 0.075333
H	-0.9636303363	-3.5548422306	 1.6908511364	 0.111953
H	-1.9798466407	-1.56001244	 3.255266664	 0.110741
H	-2.8915227939	 0.2912337532	 1.4857290903	 0.071096
