22
gdb 14146	3.85755	1.4788	1.28585	0.14	81.94	-0.2527	0.0902	0.3429	1068.004	0.201884	-313.080525	-313.072365	-313.071421	-313.113322	31.845	
C	 0.0013816275	 1.5096393781	-0.2274515066	-0.4089
C	 0.0608489565	 0.0107724857	-0.0333878888	-0.043936
C	 1.3792242441	-0.7247136273	-0.072186448	-0.344936
C	 0.605683628	-0.626606478	 1.2237614273	 0.389136
C	 1.1615153462	 0.1877641051	 2.4090855616	-0.285249
C	 0.7062601381	-0.5780030194	 3.6721891748	-0.19802
C	 0.5582843463	-2.0327191166	 3.1970185448	-0.200867
C	-0.0744296548	-1.8732775804	 1.8051215522	-0.273897
H	 0.8867054942	 2.0055945403	 0.1827251957	 0.115105
H	-0.0515570475	 1.7633304453	-1.2921803197	 0.11414
H	-0.8782084639	 1.9460941593	 0.2604245277	 0.112417
H	-0.7788040192	-0.520785893	-0.4785292343	 0.074623
H	 1.4299806689	-1.6853753341	-0.5761286052	 0.101552
H	 2.2818548147	-0.1262705231	-0.166066528	 0.100266
H	 2.2559127777	 0.226797541	 2.3647606859	 0.096649
H	 0.8094306057	 1.2236531359	 2.4154150089	 0.095813
H	 1.3999252063	-0.4620688755	 4.5097912608	 0.090932
H	-0.2691599794	-0.2036712735	 4.0060901449	 0.096075
H	 1.5470768781	-2.4997613918	 3.1079365981	 0.096626
H	-0.0378354634	-2.6511808584	 3.8743252813	 0.089531
H	-1.1538325813	-1.6994379174	 1.9120341022	 0.092941
H	 0.0475734871	-2.7555660522	 1.1692913543	 0.089998
