13
gdb 130737	3.13537	1.27482	1.02051	0.2781	65.1	-0.2565	-0.0294	0.2272	1115.3849	0.089116	-448.883358	-448.875422	-448.874478	-448.91695	28.16	
O	-0.0856458797	-0.0338373406	 0.3668601698	-0.413326
C	-0.0720824304	 1.1552961204	 0.1437544324	 0.528447
N	-1.101416796	 2.0755903963	 0.0524223754	-0.31101
N	-0.6516347799	 3.3325585716	-0.2046402432	-0.06377
N	 0.6145541056	 3.2840702598	-0.2885873307	-0.103991
N	 1.0089859135	 1.9988009075	-0.0843813405	-0.063988
C	 2.4017953639	 1.5887589471	-0.1326221078	-0.313072
C	 2.9557406246	 1.5633218623	-1.4827180886	 0.32052
C	 3.4259739	 1.5413135921	-2.5865515925	-0.436243
H	-2.0860641519	 1.8986421034	 0.1566717356	 0.296681
H	 2.9838582733	 2.2576381982	 0.5094460381	 0.165138
H	 2.4214188232	 0.5876858783	 0.3116290197	 0.18205
H	 3.8381711139	 1.5217622536	-3.5654177176	 0.212564
