19
gdb 63713	3.28826	1.22631	1.06426	4.0885	81.68	-0.2345	0.0096	0.2441	1186.0779	0.158722	-382.049175	-382.040397	-382.039453	-382.082122	34.032	
C	-0.1092252361	 1.5622032926	 0.0399713316	-0.426756
C	 0.053918173	 0.047844582	 0.0579943285	 0.320023
C	-1.2642149471	-0.6668427834	-0.2301736279	-0.44345
N	 1.1728913429	-0.4411508044	-0.8473506872	-0.406849
C	 1.7344370032	-1.2232226736	 0.2785174398	 0.274733
C	 2.2291771508	-0.2557621329	 1.3201316178	-0.327296
C	 0.7629295934	-0.5851337357	 1.2750468863	-0.164959
C	 2.1715955816	-2.5722354832	 0.1476156437	 0.17711
N	 2.5134836486	-3.6714084972	 0.0201875379	-0.351168
H	 0.8367834407	 2.0664582071	 0.2488420781	 0.122203
H	-0.4552384644	 1.8962555861	-0.9438432539	 0.122477
H	-0.8460615703	 1.8808729472	 0.7850625317	 0.116855
H	-1.6473499192	-0.384113346	-1.2169638581	 0.123174
H	-1.1376671322	-1.7539758519	-0.2043907639	 0.127024
H	-2.024317982	-0.3974895308	 0.5114715445	 0.123549
H	 0.8055863082	-1.052791486	-1.5710886125	 0.228961
H	 2.7658709706	-0.6948130265	 2.1542493129	 0.13869
H	 2.6076297686	 0.6996021769	 0.9707561711	 0.132771
H	 0.2525518796	-1.0439545205	 2.1125666896	 0.112907
