20
gdb 10208	3.14407	1.08389	0.85582	3.8358	72.38	-0.2429	-0.0151	0.2278	1372.6583	0.174115	-386.150008	-386.139885	-386.13894	-386.185776	34.81	
C	-0.0889356441	 1.5112673659	-0.0129077581	-0.383308
C	 0.0770608103	-0.0098795351	-0.0544088771	-0.172652
C	 0.6871386263	-0.5728268335	 1.234633895	-0.201029
C	 0.8240706423	-2.1126042172	 1.2391055375	-0.059278
C	 1.7130612565	-2.5886084031	 2.3840075036	-0.101675
O	 1.7643845054	-4.0050593901	 2.3215586671	-0.41889
C	-0.5549790224	-2.7345151082	 1.3742544406	 0.18418
O	-1.2210734713	-3.1538193792	 0.4647998173	-0.254868
H	 0.8727562072	 2.0129515135	 0.1436551128	 0.112404
H	-0.5125701146	 1.8889879744	-0.9483358991	 0.116879
H	-0.7563628911	 1.8160693858	 0.8009643442	 0.114619
H	-0.8922954641	-0.4857510755	-0.2409915864	 0.120729
H	 0.7161565437	-0.2887038026	-0.9017168398	 0.101632
H	 1.6815619093	-0.1339176423	 1.3903350313	 0.09933
H	 0.0821786214	-0.259039393	 2.0977906753	 0.098097
H	 1.2478971553	-2.4500401674	 0.287144962	 0.10301
H	 2.7132183885	-2.1397439119	 2.2855327354	 0.094576
H	 1.2926003623	-2.2450729014	 3.3443681592	 0.089048
H	 2.2626608084	-4.3288865964	 3.0776744057	 0.291121
H	-0.9476015894	-2.7319957026	 2.4204654037	 0.066075
