15
gdb 23111	2.75847	1.32974	0.99281	0.8713	73.7	-0.2025	-0.0385	0.164	1147.9658	0.112406	-453.919724	-453.911602	-453.910657	-453.952757	29.844	
O	-0.0678739071	 1.325991061	 0.0277679432	-0.394269
N	 0.0292244286	-0.0789385017	 0.0457507805	-0.266637
C	-1.1347555158	-0.6138017917	 0.019099311	 0.378305
C	-2.4792784903	-0.0723025721	-0.0167963184	-0.238021
C	-3.3378766524	-1.1148494005	 0.0343229978	-0.000141
N	-2.7177420375	-2.348055626	 0.1934927139	-0.302644
C	-1.2825005582	-2.136002662	 0.0184535622	-0.155772
C	-0.7712058633	-2.728667104	-1.2927801714	 0.158537
O	-1.4422112515	-3.4158281518	-2.0176163474	-0.24735
H	 0.855489744	 1.5928531406	 0.0824477156	 0.305498
H	-2.7248483075	 0.9756358687	-0.0435784237	 0.125707
H	-4.4196555077	-1.0816588338	 0.0012246271	 0.133471
H	-3.0850274173	-3.1125986901	-0.3618599971	 0.255773
H	-0.6954408004	-2.587265129	 0.8290346585	 0.132901
H	 0.2824896667	-2.4676265377	-1.5187788719	 0.114643
