21
gdb 96372	2.30278	1.74543	1.15222	1.7574	78.21	-0.2569	0.0856	0.3425	1120.9641	0.183719	-424.217741	-424.209459	-424.208515	-424.250239	32.902	
C	-0.1269179428	 1.5135524651	-0.1262706003	-0.425931
C	 0.0510997065	 0.0119045042	 0.0263840188	 0.044789
O	 0.7759762687	-0.4325928961	-1.1276791732	-0.248609
C	 0.9477348231	-1.8225848334	-1.1416203779	 0.020322
O	 1.6851735437	-2.2935576944	-0.0453321136	-0.233735
C	 1.0229696306	-1.974655277	 1.1712013112	-0.163688
C	 0.7739652684	-0.4804598243	 1.2787645989	 0.354987
C	 1.8094279239	 0.3568495939	 1.980822315	-0.294576
C	 0.4817134977	 0.0760189335	 2.6461335979	-0.328703
H	 0.8420734737	 2.0150776927	-0.1904338237	 0.132896
H	-0.6731500481	 1.7195100226	-1.0502151951	 0.12812
H	-0.6935135304	 1.936203713	 0.7076066523	 0.118481
H	-0.9444694584	-0.4695881162	 0.0109362298	 0.063801
H	-0.041863961	-2.3217414683	-1.1658448768	 0.069436
H	 1.5159774397	-2.067689056	-2.0412598809	 0.115235
H	 0.0626131559	-2.5184174882	 1.2231061667	 0.085825
H	 1.6614020135	-2.3338762302	 1.9833199066	 0.105466
H	 2.6928699219	-0.1463104323	 2.359497817	 0.115281
H	 1.9945493539	 1.3643853998	 1.6278353787	 0.116299
H	-0.2265816966	 0.8920417267	 2.7381559191	 0.113873
H	 0.4589552459	-0.6192648151	 3.4800725693	 0.110433
