16
gdb 64743	2.69625	1.27266	1.10996	5.8584	68.29	-0.2847	-0.0074	0.2773	1127.2674	0.123452	-437.925866	-437.917117	-437.916173	-437.959772	31.067	
C	 0.0160788879	 1.5558811027	-0.0613886016	-0.460251
C	-0.0194160268	 0.0298059026	-0.0212778289	 0.084408
C	-1.4355255468	-0.5326391825	 0.2216658382	-0.400991
C	-2.0656015422	-0.0194382515	 1.4370855498	 0.285948
N	-2.5761076741	 0.3986084969	 2.3850971327	-0.30207
C	 0.7554649626	-0.7057868269	-1.1403648347	-0.125804
O	 1.7045268709	-1.2302748954	-0.1604833164	-0.240134
C	 1.0600085699	-0.6059627143	 0.8787772507	 0.451194
O	 1.3394551413	-0.6258146007	 2.0314572597	-0.31106
H	 1.0292729954	 1.9182453037	-0.2559535133	 0.137372
H	-0.6417463836	 1.9371222976	-0.8497914581	 0.128901
H	-0.316480954	 1.9708158166	 0.8934795485	 0.169726
H	-2.0750681526	-0.2718000415	-0.6304739858	 0.159955
H	-1.407948154	-1.6266474005	 0.2771305713	 0.164094
H	 0.2300857691	-1.5205765556	-1.6445701253	 0.126796
H	 1.259890597	-0.0664670512	-1.8675380368	 0.131916
