20
gdb 73030	2.7617	1.4021	1.244	1.4229	79.39	-0.2094	0.0741	0.2835	1119.2815	0.170249	-403.067039	-403.058448	-403.057503	-403.100825	32.635	
C	 0.1717571127	 1.4765439418	 0.2312818038	-0.48773
C	 0.13253039	-0.0171972334	 0.2000987148	 0.422166
O	-0.2422207175	-0.6313777478	-1.0425227964	-0.3214
C	-1.0043934116	-1.6489734158	-0.3376148594	-0.092961
C	-0.5842086002	-1.0940160296	 1.0159419629	-0.223549
C	 0.9226676768	-0.9830005177	 1.0522843902	-0.026702
N	 1.7904888127	-2.0438151247	 0.5975861478	-0.096552
C	 2.4409519853	-1.9008343769	-0.7111451436	-0.20695
C	 3.2204844535	-1.728080494	 0.5380346935	-0.224189
H	 0.9372782549	 1.8562872186	-0.4553562732	 0.130155
H	-0.7915644191	 1.9009550883	-0.0699345954	 0.127907
H	 0.4127926982	 1.8341453277	 1.2365028347	 0.123576
H	-2.0725523002	-1.5390735694	-0.5525389725	 0.10704
H	-0.6721601383	-2.6631165494	-0.5835157528	 0.116601
H	-1.2082486005	-1.0300287497	 1.8981293052	 0.093753
H	 1.2667600452	-0.5339638982	 1.9824141142	 0.092927
H	 2.5193242685	-2.8193399032	-1.285968295	 0.113971
H	 2.2171500392	-1.0156575962	-1.2957201513	 0.132227
H	 3.528127586	-0.7153559014	 0.7940111488	 0.106452
H	 3.8848366744	-2.5095992791	 0.8963063839	 0.113257
