20
gdb 91099	2.66524	1.66674	1.5134	2.9407	76.86	-0.2177	0.0601	0.2778	981.933	0.173668	-403.110413	-403.103011	-403.102067	-403.141924	30.444	
O	-0.2212584822	 1.3992824344	 0.8150039025	-0.414954
C	-0.0203197314	 0.140075257	 0.2006742565	 0.098848
C	 0.5135739543	-1.0068399894	 1.1123764511	-0.275986
C	-0.8670298582	-1.727571665	 1.011464516	-0.025159
C	-1.8368721782	-1.6309319907	 2.1797307799	-0.038648
C	-1.9776087022	-0.3397516175	 2.9053941592	-0.260459
N	-2.9534827982	-0.7084118379	 1.8725322063	-0.098889
C	-2.6848887127	-0.089774535	 0.5541600128	-0.186256
C	-1.3537962374	-0.641798507	-0.0006075728	-0.035806
H	 0.641907259	 1.7787938976	 1.0091497911	 0.285929
H	 0.5513171254	 0.2624918633	-0.7287958183	 0.068695
H	 1.3378005487	-1.5672646444	 0.6631334715	 0.097267
H	 0.8081996979	-0.6953390898	 2.1173415969	 0.101852
H	-0.8177247179	-2.7525439018	 0.6387920498	 0.068188
H	-2.112641421	-2.5540442844	 2.6826245703	 0.083546
H	-2.3710026336	-0.3345329825	 3.9189744306	 0.105132
H	-1.2787181551	 0.4608712965	 2.6807488925	 0.128256
H	-3.5083710137	-0.3697846075	-0.1101248964	 0.100567
H	-2.6781529666	 0.9999687716	 0.6404827413	 0.124822
H	-1.464829897	-0.9837989474	-1.0314785007	 0.073054
