21
gdb 78615	3.13695	1.46834	1.20932	1.3702	83.68	-0.2054	0.0845	0.29	1120.0928	0.180667	-383.148824	-383.13996	-383.139016	-383.181623	34.489	
C	-0.8357261343	 1.4282550208	-0.4489225073	-0.330205
N	-0.5316358168	 0.0333703025	-0.1541042455	-0.108596
C	-1.2126397875	-0.5935962976	 1.0134263568	-0.090569
C	-0.0604842173	-1.6137730588	 1.1898948774	-0.018551
C	 0.591252633	-0.2484781176	 0.784030322	-0.102508
C	-0.2527267918	-0.0208982366	 2.1303482871	 0.349208
C	-0.3752250008	 1.1406116173	 3.0764189627	-0.536336
N	-0.0121482524	-1.4056685679	 2.6585694964	-0.1445
C	 1.2903321528	-1.6273784534	 3.2792505473	-0.329016
H	-0.1011242848	 1.8078402682	-1.1672700905	 0.119308
H	-1.8209529309	 1.4846948583	-0.9241577764	 0.120214
H	-0.8394178482	 2.1037120089	 0.4205339536	 0.097511
H	-2.2863901156	-0.7765326775	 1.0717960237	 0.083788
H	 0.0529079084	-2.5813520224	 0.7014525353	 0.08574
H	 1.6266897108	-0.001663462	 0.5427651083	 0.079975
H	-0.617511454	 2.0707897894	 2.5588196907	 0.132831
H	-1.1619741709	 0.9378768241	 3.8110958959	 0.134244
H	 0.5624263617	 1.2950559099	 3.6223975867	 0.125692
H	 1.2871970192	-1.2135358545	 4.2929526969	 0.118225
H	 1.4695145959	-2.704371331	 3.3639723391	 0.119855
H	 2.1391631334	-1.1832209602	 2.7303940797	 0.093691
