17
gdb 45262	3.0919	1.71394	1.35809	4.4159	71.13	-0.2341	0.0218	0.2559	950.4724	0.13867	-418.002724	-417.995766	-417.994822	-418.034129	27.715	
O	 0.0732219596	-0.013180965	-0.341728332	-0.350579
C	 0.041404657	 1.1587000726	-0.0875188389	 0.406967
N	-0.9853192873	 2.0152224061	 0.2484022066	-0.326563
C	-0.1745954404	 3.2435626105	 0.2518260296	 0.024094
C	 0.0674905769	 3.9497681357	 1.5964877826	-0.263828
C	 1.3353892191	 3.3140356263	 2.1636088855	-0.006455
C	 1.3467996134	 1.8581970516	 2.4353049946	-0.249104
N	 1.9450592134	 2.372047613	 1.1878630565	-0.104069
C	 1.0699657207	 2.3260373684	 0.0086598496	-0.151471
H	-1.9860826371	 1.8788078346	 0.2185896772	 0.249213
H	-0.440551736	 3.9324594106	-0.5546606115	 0.092049
H	 0.233140452	 5.018016028	 1.4264931344	 0.112929
H	-0.7901913219	 3.8555056113	 2.2698386261	 0.115206
H	 2.0302374659	 3.9621954784	 2.6910406034	 0.094634
H	 2.0698944876	 1.4397502246	 3.1294271482	 0.121349
H	 0.4040635138	 1.3207245334	 2.3893080123	 0.130101
H	 1.6522860634	 2.5004599098	-0.8971498343	 0.105527
