21
gdb 119099	2.43922	1.01808	0.8341	4.0251	74.63	-0.2365	0.0665	0.303	1434.2714	0.180928	-461.321437	-461.311194	-461.31025	-461.35723	36.477	
O	-0.1339678292	 1.4917918781	 0.1030439767	-0.416781
C	 0.0516974768	 0.0856794409	 0.0443425132	-0.087127
C	-1.325961768	-0.5433978408	-0.1473668424	-0.254737
C	-1.3716696947	-2.0707116925	-0.0390805676	 0.271324
C	-0.4984604254	-2.7489783112	-1.0887037806	-0.154679
O	-0.66025517	-4.1550322213	-0.9821799937	-0.417224
C	-1.2332858827	-2.6185403623	 1.4074607896	-0.107811
O	-2.6312380221	-2.95825242	 1.4632436497	-0.275001
C	-2.8189974339	-2.6193874112	 0.0751181872	-0.113442
H	 0.7278446633	 1.9061326817	 0.2043235844	 0.286196
H	 0.7223309922	-0.1858420442	-0.7856344986	 0.085524
H	 0.5115666459	-0.2946179278	 0.9715813688	 0.089603
H	-1.9902562276	-0.1178589802	 0.613423356	 0.120558
H	-1.7248407144	-0.2270147715	-1.1198339482	 0.103681
H	-0.790089827	-2.3892213073	-2.0897481351	 0.089884
H	 0.5553809715	-2.4680098366	-0.9353217035	 0.089417
H	-0.0868896657	-4.5771825927	-1.6278356102	 0.29103
H	-0.5938303348	-3.5042947254	 1.4964085792	 0.106423
H	-0.9578038911	-1.8869958094	 2.1778714145	 0.091492
H	-3.6188782428	-1.8814470783	-0.0649744712	 0.091904
H	-3.0187006802	-3.504707148	-0.5377944486	 0.109767
