20
gdb 7647	4.63467	1.20764	1.1187	2.4837	75.74	-0.239	-0.008	0.231	1159.8183	0.175483	-349.024236	-349.015223	-349.014279	-349.058427	32.602	
C	-0.7761971911	 1.0574939823	-0.0350088844	-0.410213
C	 0.2649754145	-0.0379561999	 0.1259417007	 0.073934
C	 1.4539805042	-0.0979641556	-0.8746387015	-0.244112
C	 2.416935126	-0.3955162789	 0.3025502518	-0.101227
C	 1.2899604221	 0.0829267943	 1.2885905111	-0.244779
C	 2.7294512879	-1.8670587717	 0.5038735049	 0.382331
C	 3.8390605575	-2.1794539235	 1.4934082759	-0.478732
O	 2.1177261842	-2.7436419814	-0.0662490223	-0.306241
H	-0.3045373035	 2.0464036391	-0.0794889315	 0.107734
H	-1.3539955853	 0.922743762	-0.9562399204	 0.117225
H	-1.4835225316	 1.0633282189	 0.8021898487	 0.113627
H	-0.2207444479	-1.0174434028	 0.1660867872	 0.090795
H	 1.4065420399	-0.8631440053	-1.6508306446	 0.116641
H	 1.6598726345	 0.8761623371	-1.3283688949	 0.090352
H	 3.3415962923	 0.1865365697	 0.3518430728	 0.073675
H	 1.44912958	 1.121660203	 1.5932259077	 0.100802
H	 1.1161395149	-0.5193871943	 2.1849823354	 0.101101
H	 3.7081509545	-1.6127094101	 2.4215213449	 0.136079
H	 3.8643755672	-3.248876675	 1.7060546038	 0.139862
H	 4.8024965494	-1.8725833779	 1.0688234745	 0.141145
