16
gdb 37856	2.72595	2.62131	2.03367	0.6383	64.5	-0.2336	0.0386	0.2722	745.1672	0.129533	-437.837056	-437.83205	-437.831106	-437.866197	22.643	
N	-0.0254653817	 1.484162615	 0.0235928598	-0.294569
C	 1.4560097498	 1.4182874603	-0.0054397954	-0.074431
C	 1.9882844987	 0.8425530935	 1.3684779043	 0.035842
O	 0.8443122361	 0.5951019313	 2.2251627775	-0.288201
C	 0.5496082466	-0.5439674407	 1.3769393732	 0.035842
C	-0.0144667225	 0.0011203587	 0.0032086545	-0.074431
C	 1.3189283041	 0.084092223	-0.812912487	 0.099509
O	 2.2377313163	-0.8663994548	-0.3421604948	-0.236291
C	 2.06674298	-0.6805909979	 1.0323775322	 0.056748
H	-0.3689775603	 1.8460296478	 0.9140405961	 0.225676
H	 1.990721562	 2.2874145018	-0.3897733246	 0.074612
H	 2.7859641344	 1.3974650089	 1.861298017	 0.084963
H	-0.0313372577	-1.3177019539	 1.8778673535	 0.084962
H	-0.9050549854	-0.5033833042	-0.372742312	 0.074612
H	 1.2840679	 0.1136414144	-1.898236041	 0.098411
H	 2.7036873096	-1.3379122733	 1.6193377068	 0.096743
