17
gdb 36078	3.73086	1.23539	1.14731	4.2059	75.49	-0.2512	0.0302	0.2814	1098.6527	0.137502	-380.818251	-380.810811	-380.809867	-380.850758	28.398	
N	-0.0693003656	-1.1184594853	-0.489857034	-0.307825
C	-0.0597405157	 0.0127658229	-0.2558145249	 0.265591
C	-0.0216144057	 1.4442106502	 0.0590105631	-0.494151
C	 1.3783996002	 1.9708696597	 0.1622699702	 0.372394
C	 1.9640228719	 3.329628142	 0.0885611292	-0.10118
C	 2.8776177465	 3.0693908488	 1.2844335985	-0.240505
C	 2.685070948	 1.5620663025	 0.9620560741	-0.1272
C	 3.3279366	 1.4410550415	-0.4282055293	-0.152681
N	 2.2429634195	 2.3122413219	-0.9961603557	-0.176019
H	-0.549817975	 1.9947170058	-0.7277591543	 0.168851
H	-0.5699534622	 1.6076613685	 0.9947423988	 0.157503
H	 1.5126552467	 4.2562371994	-0.2415290185	 0.104569
H	 3.8998943204	 3.4611417892	 1.2665970588	 0.102728
H	 2.3855506045	 3.3581201724	 2.2165846498	 0.110134
H	 2.7874470351	 0.8009917288	 1.7325512028	 0.088202
H	 4.3486676595	 1.817171646	-0.5604072928	 0.100572
H	 3.2326882518	 0.4479108959	-0.8720007758	 0.129019
