20
gdb 80806	1.96294	1.62141	1.1927	1.1957	86.71	-0.2349	0.0377	0.2726	1166.0027	0.169718	-365.904828	-365.895689	-365.894745	-365.938349	35.105	
C	-0.1114773014	 1.614677111	 0.1715684391	-0.44686
C	 0.0462157315	 0.1064610719	 0.1506881544	 0.047998
N	 1.1772811292	-0.5192403644	-0.7019213783	-0.194321
C	 2.1036427103	-0.1394956887	 0.4637212078	-0.215734
C	 0.8646994499	-0.6909980408	 1.217015042	 0.230306
C	 0.633223654	-0.8179260479	 2.6319010173	 0.003399
C	 0.4303061593	-0.925576818	 3.8133127185	-0.348418
C	 0.9296722075	-1.8075587981	 0.1229304826	 0.057301
C	-0.2251818994	-2.7218301393	-0.2357613607	-0.450726
H	-0.381639532	 1.9659782591	-0.8299161778	 0.132857
H	-0.9281202703	 1.8829163969	 0.8500646434	 0.127587
H	 0.7771601739	 2.1615367613	 0.491495448	 0.12331
H	-0.9207794878	-0.3320252556	-0.0995077381	 0.074781
H	 3.0189383245	-0.7350977059	 0.5054016874	 0.104804
H	 2.3289688433	 0.9228158331	 0.5357485467	 0.106683
H	 0.2532934567	-1.0199979317	 4.8561699686	 0.181522
H	 1.8488581082	-2.4013208178	 0.1677421412	 0.076613
H	-0.0701847073	-3.1267467932	-1.2412841384	 0.134312
H	-0.2464316647	-3.5637510606	 0.463920718	 0.128661
H	-1.2080458454	-2.2480589513	-0.2115144915	 0.125924
