17
gdb 29453	3.20885	1.57536	1.07062	0.5216	80.95	-0.1947	-0.0028	0.192	1100.8539	0.137449	-384.726722	-384.719295	-384.718351	-384.758461	29.011	
C	-0.0171784278	 1.5277164443	-0.0098225715	-0.503798
C	-0.0071094733	 0.0319264401	 0.0446143207	 0.058295
C	-0.0299884341	-0.8249422083	-1.0197163616	-0.112678
O	-0.0114638739	-2.1454622046	-0.6270732388	-0.203528
C	 0.0235749257	-2.1047903448	 0.7181095872	 0.312265
C	 0.0283142757	-0.8302446338	 1.1955884524	 0.180814
C	 0.0670772498	-0.9131556785	 2.6584220606	-0.20895
C	 0.0845103134	-2.2132843974	 3.0200101649	-0.089548
C	 0.0580848354	-3.1298275119	 1.7991626232	-0.416652
H	 0.876829758	 1.9524677606	 0.4610931712	 0.129808
H	-0.0517706837	 1.8857676066	-1.0425677027	 0.124591
H	-0.8844154214	 1.9424787289	 0.5166881398	 0.129734
H	-0.05922632	-0.6628762944	-2.0849490811	 0.130587
H	 0.0797692432	-0.0706249728	 3.3379596506	 0.097501
H	 0.1133776812	-2.5970276001	 4.0308414647	 0.098348
H	-0.8185719889	-3.7907015042	 1.805313541	 0.136607
H	 0.9418251106	-3.7800038397	 1.7592350794	 0.136604
