15
gdb 31946	4.43236	0.95149	0.78733	5.7476	73.72	-0.2359	-0.0471	0.1888	1358.4815	0.113074	-453.992282	-453.98377	-453.982826	-454.027024	29.489	
O	-0.1821038401	 1.4420921857	 0.0791643647	-0.431273
C	-0.0165681604	 0.0347975881	 0.0022396628	-0.189205
C	-1.3819250133	-0.5754099843	 0.0211736867	 0.364174
N	-1.6571430845	-1.8722003609	 0.0367764823	-0.313716
C	-3.0163839442	-1.9471958884	 0.0408006504	-0.13605
C	-3.5856814888	-0.6843926303	 0.0291582485	 0.200659
N	-2.499867451	 0.1790900245	 0.0150050667	-0.328517
C	-4.9631804932	-0.2350628478	 0.0316421132	 0.064966
O	-5.9296599733	-0.9674090729	 0.0427285142	-0.274791
H	 0.6799507774	 1.8587041219	 0.0005756726	 0.303477
H	 0.5018966701	-0.2674340501	-0.9200467533	 0.129645
H	 0.5658626292	-0.3608764587	 0.8470921922	 0.131751
H	-3.5396342556	-2.8909215351	 0.0529658921	 0.140324
H	-2.502910867	 1.1870174708	 0.0114056122	 0.283685
H	-5.0825380852	 0.8744277677	 0.0220235048	 0.05487
