18
gdb 5961	3.39149	1.16037	1.0544	0.4286	69.99	-0.2625	0.0363	0.2988	1178.3666	0.149754	-384.897124	-384.887192	-384.886248	-384.931537	35.902	
C	 0.137952788	 1.5875083111	 0.0238197874	-0.398776
C	-0.0009977575	 0.0582389116	 0.0016882067	 0.138837
O	 0.6761739655	-0.4003508822	 1.1805419777	-0.446014
C	-1.4775254603	-0.4074712118	 0.0087397782	-0.182972
C	-2.2713948939	 0.0350348529	 1.2335849377	-0.096104
O	-3.5255989963	-0.6325258775	 1.175810673	-0.425161
C	 0.6578120126	-0.4892048841	-1.1956697511	 0.320522
C	 1.187900617	-0.970394387	-2.1615835916	-0.472353
H	 1.1917679983	 1.8631587435	-0.0502346786	 0.133703
H	-0.4048661075	 2.0360109271	-0.8116204769	 0.124293
H	-0.2566059208	 1.9838367175	 0.9623789112	 0.127426
H	 0.7692126995	-1.3568483935	 1.1087045759	 0.283852
H	-1.9737835897	-0.0569087477	-0.9023791065	 0.114032
H	-1.4965732945	-1.5029786722	-0.028535621	 0.106678
H	-1.7131056573	-0.2278851144	 2.1428312865	 0.10126
H	-2.4093341605	 1.126820036	 1.2313624123	 0.087251
H	-4.0357458009	-0.3735729528	 1.9486408747	 0.285155
H	 1.6633008782	-1.3862738566	-3.0155959958	 0.198371
