23
gdb 102410	1.86416	1.35041	0.9796	2.948	77.09	-0.2507	0.0465	0.2972	1325.8518	0.20352	-462.546287	-462.53499	-462.534046	-462.582228	41.348	
C	-0.341912133	 1.5402054096	-0.0276981619	-0.40943
C	 0.0315974613	 0.0542746762	-0.0192068688	-0.201819
C	 0.760872127	-0.4541558457	 1.247906778	 0.231702
C	 0.7401190247	-1.990229631	 1.1902762017	-0.136675
O	 1.6844525167	-2.510985312	 2.1292601195	-0.43689
C	 2.2332852561	 0.0303707988	 1.2714417629	-0.09544
O	 3.0715240937	-0.6790261018	 0.3738644506	-0.434492
C	 0.0904585546	 0.0370488426	 2.5476144386	-0.109506
O	-1.3222874559	-0.1249833661	 2.5727965461	-0.425452
H	 0.525853606	 2.1893053186	 0.1313089251	 0.113992
H	-0.7739317876	 1.8135062769	-0.9954363054	 0.11043
H	-1.0840063914	 1.7642636475	 0.7428771921	 0.13826
H	-0.8863195934	-0.530088788	-0.1570798786	 0.089436
H	 0.6782873308	-0.1709049388	-0.8758943909	 0.109496
H	-0.2738098807	-2.3593907974	 1.4114294964	 0.076279
H	 0.9901156158	-2.3181695935	 0.1727091078	 0.103788
H	 1.624949359	-3.4708395728	 2.1191120236	 0.292916
H	 2.2780617614	 1.0814414002	 0.9701496104	 0.107081
H	 2.6241900409	-0.0304267987	 2.2965830191	 0.093687
H	 3.1955776255	-1.5481993924	 0.7739040288	 0.285914
H	 0.5618208397	-0.4660555545	 3.4034880091	 0.103364
H	 0.2626706562	 1.1119012667	 2.6655733754	 0.109748
H	-1.5160521874	-1.0588731644	 2.6929187903	 0.283611
