15
gdb 18173	4.83851	1.6037	1.30077	1.7502	76.27	-0.2246	-0.0212	0.2034	922.0746	0.119719	-325.477625	-325.470865	-325.469921	-325.508348	26.625	
C	 0.0887206315	-1.1890705336	-0.0185951865	-0.430633
C	 0.003227154	 0.0130153659	 0.0019566237	 0.206112
C	-0.0407523089	 1.4262489053	 0.0059487025	 0.270971
C	-1.1314145528	 2.2099140602	 0.0875466752	-0.192442
C	-0.795077224	 3.682808578	 0.03271844	-0.249136
C	 0.7288828045	 3.6910528254	-0.0240973974	-0.040726
N	 1.36537832	 3.1021749466	 1.1726029278	-0.327703
C	 1.195971629	 2.2794756569	-0.054489162	-0.182823
H	 0.1484509948	-2.2489660531	-0.0264109581	 0.190762
H	-2.1433352538	 1.8414462142	 0.2050593661	 0.102998
H	-1.2355564973	 4.1618890992	-0.8520708646	 0.111688
H	-1.1732021969	 4.2223919518	 0.9095319257	 0.125886
H	 1.2476865074	 4.4775363484	-0.5609896993	 0.090236
H	 2.3306359082	 3.4253837393	 1.2151624374	 0.229568
H	 2.0728218142	 1.9436983054	-0.5961055305	 0.095242
