19
gdb 91276	2.635	1.48937	1.26941	3.1588	74.39	-0.2389	-0.0183	0.2206	1071.4937	0.159542	-423.049481	-423.041475	-423.040531	-423.082485	30.905	
C	 0.2545619646	 1.547775557	-0.2038048692	-0.412514
C	 0.0861473591	 0.0663386323	 0.0606879249	 0.161452
O	 0.7869446919	-0.7538459016	-0.9094141117	-0.313594
C	 1.3478859184	-1.5945029678	 0.1220058574	 0.121455
C	 2.8673293834	-1.5533567775	 0.1215035853	-0.331053
C	 3.2224204872	-0.2703767752	 0.8838513373	 0.392876
O	 4.2398253907	 0.3608997675	 0.7783535316	-0.305152
C	 2.0505116463	 0.0666588315	 1.8203377486	-0.33825
C	 0.8211231864	-0.6334294295	 1.2355522635	-0.115531
H	 1.3083957373	 1.8387893805	-0.2187892393	 0.132846
H	-0.1775886427	 1.7977859246	-1.1777867186	 0.131924
H	-0.264899164	 2.1380888263	 0.5588964743	 0.118062
H	-0.9839230374	-0.1881719586	 0.0606213243	 0.074085
H	 0.925725648	-2.6046296828	 0.093286643	 0.076016
H	 3.2866269985	-2.4056994262	 0.6734096121	 0.123424
H	 3.2967847872	-1.5560271349	-0.882330555	 0.141971
H	 2.2960853845	-0.3496602214	 2.8059756146	 0.12985
H	 1.9578526695	 1.1469528791	 1.9490518126	 0.133107
H	 0.1667859111	-1.0582462932	 1.9965242045	 0.079025
