22
gdb 116599	5.33397	0.76248	0.6912	2.9686	86.98	-0.2402	0.0328	0.273	1720.8821	0.193995	-404.381135	-404.371362	-404.370418	-404.416871	35.624	
C	 0.1442634459	 1.4606650182	 0.4169178403	-0.371914
C	-0.1047404087	 0.3816962882	-0.633226689	-0.116184
N	-1.5133185405	-0.0059486116	-0.6404787521	-0.342343
C	-1.8570156058	-1.0169258845	-1.3063104034	 0.434554
C	-3.2584209319	-1.5678085794	-1.4463501099	-0.326787
C	-3.0193016089	-3.0217586205	-1.8848552217	 0.011213
C	-4.1451556616	-3.6673106175	-2.6868728295	-0.412854
C	-1.6995760416	-2.8735319273	-2.6596281442	-0.08516
O	-0.987697241	-1.8029045275	-2.0243799025	-0.250802
H	 1.1951150709	 1.768331456	 0.419622872	 0.100548
H	-0.4748968336	 2.3407840588	 0.218987705	 0.117408
H	-0.109706104	 1.0929796787	 1.4159425255	 0.114986
H	 0.1804914407	 0.755594293	-1.6273709708	 0.099877
H	 0.5392973553	-0.4892256376	-0.445131875	 0.100037
H	-3.8240831338	-1.455175383	-0.5211300398	 0.131911
H	-3.7892162567	-1.0125121058	-2.2312018327	 0.121206
H	-2.8198183386	-3.6247634579	-0.9902398608	 0.089409
H	-4.3767105331	-3.0797483076	-3.5825714089	 0.119395
H	-3.8756026987	-4.6787652278	-3.009363875	 0.119445
H	-5.060095832	-3.7431321779	-2.0914196805	 0.125175
H	-1.0672203678	-3.7646937318	-2.6316681585	 0.116932
H	-1.8838089945	-2.6091676752	-3.7105355385	 0.103947
