18
gdb 65373	3.50077	0.99147	0.97482	3.3352	81.05	-0.2253	0.041	0.2663	1298.989	0.145155	-401.855953	-401.847007	-401.846063	-401.889662	34.229	
O	-0.0126067664	 1.3446703285	 0.0276435535	-0.462527
C	 0.0458180855	-0.0488959443	-0.0013808715	 0.204083
C	-0.4752458555	-0.8098903342	 1.2114929641	-0.355232
C	-1.2911894377	-0.784201711	-0.0559446123	-0.052091
N	-2.4263931116	 0.0940357012	-0.098797546	-0.08155
C	-3.3657812178	-0.0753348151	-1.2054766619	-0.224813
C	-3.7435885227	-0.4792992629	 0.1768317996	-0.217682
C	 1.1635222166	-0.5786567383	-0.7329829613	 0.30643
C	 2.0941949078	-1.0456597867	-1.3342380497	-0.443369
H	-0.9607298902	 1.555476771	 0.0109159313	 0.287232
H	 0.0041075258	-1.7411614944	 1.4892557857	 0.125537
H	-0.8141011002	-0.1876090461	 2.0323604983	 0.125894
H	-1.3443476687	-1.6992692911	-0.6462973225	 0.095145
H	-3.7557956401	 0.8413349185	-1.6370941759	 0.127129
H	-3.1598508998	-0.8668069514	-1.9227935021	 0.124665
H	-3.790694223	-1.543851438	 0.3929469072	 0.122573
H	-4.4111200371	 0.139457347	 0.7690700698	 0.126047
H	 2.9203582252	-1.4456719226	-1.8677710861	 0.192528
