21
gdb 108628	2.58745	1.31597	0.96537	1.9599	85.25	-0.2242	0.0132	0.2374	1291.2256	0.181788	-387.094306	-387.085125	-387.08418	-387.128501	34.474	
C	-0.3890168264	 1.5315124284	-0.0559860115	-0.372629
C	 0.0569010652	 0.059428174	 0.0147494807	-0.288448
C	 0.8139691862	-0.3991233625	-1.1978214329	 0.215464
C	 2.0838091645	-0.83782467	-1.2642445581	 0.208341
C	 3.10938458	-0.9479204721	-0.1790439751	-0.509874
C	 2.3869350366	-1.300087816	-2.6569400983	-0.04542
O	 1.5641045377	-2.4143446071	-3.0842363262	-0.261802
C	 1.1773074964	-1.0916865208	-3.4632466998	 0.037991
C	 0.1298279454	-0.4599863718	-2.5600404883	-0.335533
H	 0.4743850703	 2.1972851698	-0.1534523	 0.118977
H	-1.0477974496	 1.7120511725	-0.9110887181	 0.119782
H	-0.9356378678	 1.8143185432	 0.8488466528	 0.113967
H	 0.6608702718	-0.0913678055	 0.9150139493	 0.102172
H	-0.8346130805	-0.5718899336	 0.137765403	 0.106557
H	 2.7632393133	-0.5309962895	 0.7693692789	 0.124922
H	 3.3892547195	-1.9949060879	-0.005930262	 0.134739
H	 4.0313859709	-0.4208763683	-0.4562848695	 0.124334
H	 3.3976051049	-1.299556183	-3.0570230491	 0.088479
H	 1.1937782637	-0.8877894982	-4.5305662124	 0.091497
H	-0.7926033633	-1.0537337441	-2.5279709772	 0.118387
H	-0.1482006887	 0.5373618225	-2.9251578063	 0.108096
