17
gdb 35101	2.30543	1.81216	1.15293	2.9766	78.66	-0.2201	0.0207	0.2408	1061.9023	0.136113	-380.823764	-380.815725	-380.81478	-380.856463	31.288	
C	-0.0811394022	-1.1920299086	-0.2844795648	-0.453351
C	-0.050882492	-0.0084641624	-0.0783722015	 0.35482
C	-0.0004054826	 1.4331731904	 0.1347529096	-0.237535
N	-0.4717279767	 1.8296549432	 1.4873851821	-0.249602
C	 0.3793465737	 2.6801821403	 1.9142047021	 0.055869
N	 1.4280632887	 3.0326708676	 1.0809019468	-0.358895
C	 1.4150151431	 2.0631845886	-0.0051904114	 0.361454
C	 2.6539909247	 1.3077050899	-0.38810473	-0.326215
C	 2.0615711369	 2.3475148616	-1.3234755626	-0.314906
H	-0.1248089233	-2.2398507608	-0.45156535	 0.197428
H	-0.6703421678	 1.9093032837	-0.5969257802	 0.11792
H	 0.2903212794	 3.1710738225	 2.879520621	 0.127149
H	 2.3171719703	 3.2494767291	 1.510850224	 0.242463
H	 3.5789939102	 1.5568097364	 0.1238642942	 0.105978
H	 2.5462900233	 0.2595756257	-0.6438536917	 0.1373
H	 1.5586204336	 1.9994180012	-2.2206105691	 0.124411
H	 2.5857521805	 3.2903953417	-1.4391165086	 0.115713
