20
gdb 92266	2.33423	1.64167	1.48626	1.0677	79.77	-0.2144	0.0227	0.2371	1030.4962	0.171236	-403.131583	-403.123173	-403.122229	-403.164131	33.018	
C	-0.2870957384	 1.3703074532	 0.0013491581	-0.453902
C	 0.0689857748	-0.1097766089	-0.0816577849	 0.270451
C	-1.1447930066	-1.0075403836	-0.1680023876	-0.099818
C	-1.2306770637	-1.7924777289	 0.9036288638	-0.083562
C	-0.0558366178	-1.5730003409	 1.8342059827	-0.232575
N	 0.838061312	-0.6686188832	 1.0907743747	-0.130259
C	 1.7778757269	-1.3519130964	 0.159582822	-0.216904
C	 1.2477681681	-0.4922398955	-1.0140840321	 0.071673
O	 0.853788478	-1.1354780945	-2.2022479734	-0.42852
H	 0.6088926879	 1.9719311642	 0.1802284636	 0.116583
H	-0.7510646418	 1.7055540332	-0.9333490197	 0.116894
H	-0.9936004788	 1.5554677573	 0.8164404126	 0.118694
H	-1.8594521936	-0.9505958023	-0.9794960912	 0.102112
H	-2.0371072702	-2.4848371091	 1.1186541298	 0.095184
H	-0.3742995817	-1.1278277752	 2.7883900705	 0.10493
H	 0.4735245096	-2.5015387293	 2.0858843889	 0.104867
H	 2.8328032487	-1.2485164303	 0.434728823	 0.092781
H	 1.5436445996	-2.4127530141	-0.0015114142	 0.098044
H	 1.890940474	 0.372746787	-1.2246480068	 0.067741
H	 1.639084643	-1.3050846526	-2.7317136899	 0.285586
