13
gdb 48147	4.05	0.86265	0.71117	6.6336	71.73	-0.255	-0.0922	0.1628	1451.8659	0.086196	-452.727449	-452.718331	-452.717386	-452.76269	31.178	
N	 0.1895584709	 1.4754158924	 0.0055626462	-0.456695
C	 0.0711306573	 0.2080643738	 0.0011870172	 0.251795
N	-1.1808856658	-0.4273979823	 0.0091161278	-0.378344
C	-2.4448583488	 0.1454560935	 0.0257450666	 0.334548
O	-2.7097372768	 1.3163520564	 0.0362732143	-0.276194
C	-3.5396072604	-0.9465941752	 0.0294298686	 0.078457
O	-4.7041256206	-0.6770900848	 0.0432484253	-0.194238
C	 1.1632529979	-0.7318437446	-0.0127968313	 0.258546
C	 2.0867416023	-1.5026317879	-0.0246222587	-0.427693
H	 1.1765804853	 1.7286347872	-0.0018952545	 0.241526
H	-1.1406705002	-1.4355260695	 0.0027721971	 0.265668
H	-3.1796741243	-2.0039973185	 0.0183949489	 0.080495
H	 2.9126548332	-2.1719867807	-0.0350513875	 0.222129
