23
gdb 112816	2.43938	1.09582	0.86305	2.0979	82.23	-0.2378	0.0683	0.3061	1449.8856	0.204079	-425.413062	-425.402489	-425.401545	-425.449223	38.286	
C	-0.1530714889	 1.5484862715	-0.3184549564	-0.384644
C	 0.021633828	 0.0478111125	-0.0613139182	-0.192918
C	-1.3164918289	-0.6462954847	 0.1406224527	 0.143664
O	-2.1592256953	-0.5760005975	-1.0330845794	-0.317081
C	-2.4902232801	-1.9849524303	-0.9415103894	 0.164904
C	-2.3803194132	-2.6979766668	-2.2738001316	-0.401334
C	-1.4292555872	-2.1937399049	 0.1745741734	-0.082858
C	-0.1937832521	-3.0084032126	-0.1634872606	-0.10083
O	-0.5885087846	-4.3752612229	-0.1797759028	-0.425236
H	 0.8107841378	 2.0358067155	-0.4926741712	 0.108866
H	-0.7846571086	 1.7126451513	-1.1958793959	 0.139411
H	-0.6297908863	 2.0423619427	 0.5355286278	 0.112903
H	 0.5488962817	-0.4099422047	-0.9056846218	 0.096324
H	 0.6391458312	-0.113248637	 0.8322089417	 0.093752
H	-1.8287821633	-0.1862256243	 1.0009134382	 0.06525
H	-3.509898599	-2.1058729739	-0.5472293661	 0.070114
H	-1.3938945877	-2.5546149978	-2.7231483984	 0.112208
H	-2.5536723462	-3.7698693891	-2.144701669	 0.12932
H	-3.1260183018	-2.3000105712	-2.9693416997	 0.119181
H	-1.8450608361	-2.5914777148	 1.1034881012	 0.08023
H	 0.2266436323	-2.7080860248	-1.1337093383	 0.092907
H	 0.5826944122	-2.8290030018	 0.5974186592	 0.089077
H	 0.1672891362	-4.9040122046	-0.4518740654	 0.286789
