18
gdb 92916	2.60208	1.37904	1.09483	2.3967	78.29	-0.2492	0.0183	0.2675	1159.3208	0.147683	-401.932603	-401.924082	-401.923138	-401.965752	32.34	
C	 0.0575232968	 1.5647992859	 0.0874664252	-0.406121
C	 0.0107393592	 0.0524022972	-0.0371026302	 0.144283
C	 0.7377657991	-0.5028775306	-1.2559982329	-0.242796
C	 0.7194475017	-2.0453045513	-1.194173252	-0.170442
N	 1.1496351741	-2.5465812817	 0.1220103341	-0.260643
C	 1.0684434653	-1.7520017101	 1.1050909574	 0.134616
O	 0.6054487972	-0.4861001957	 1.1675389638	-0.238124
C	-0.5987462466	-2.5833549594	-1.5404464471	 0.371624
C	-1.6893251993	-2.9967282394	-1.8309647363	-0.487715
H	 1.0922894989	 1.9203145664	 0.1053826929	 0.126552
H	-0.4557654964	 2.0276478885	-0.7605857426	 0.12281
H	-0.433876667	 1.8878182909	 1.009040229	 0.131189
H	-1.0315151271	-0.2916638927	-0.0588543504	 0.10504
H	 0.2671415936	-0.1422326786	-2.1745787539	 0.116953
H	 1.7787008717	-0.1599716652	-1.2475972179	 0.110488
H	 1.4404004057	-2.4353375992	-1.9233910677	 0.115757
H	 1.4169290524	-2.0652482283	 2.0881682423	 0.127027
H	-2.6462771094	-3.3807878068	-2.0850588134	 0.199503
