23
gdb 58510	2.5934	1.31022	1.20146	1.1355	84.67	-0.2417	0.0691	0.3107	1203.9755	0.204342	-388.2669	-388.257301	-388.256357	-388.300554	37.812	
C	 0.0535705448	 1.535626534	-0.0669849604	-0.420011
C	 0.0569770272	 0.0065144199	 0.0853916652	-0.001489
C	 0.7477859686	-0.4235480064	 1.3859854431	-0.394164
C	-1.3648881347	-0.5732403854	-0.0032232202	 0.424504
O	-2.190921777	-0.0848638166	 1.0479970355	-0.494754
C	-2.10667663	-0.5138910437	-1.3920585531	-0.307429
C	-2.301525082	-2.0339149379	-1.3288693988	-0.042398
C	-0.9680931007	-2.7189027369	-1.2610739303	-0.294845
C	-1.531848283	-2.0998520648	-0.0111932776	-0.072093
H	 1.0760344784	 1.923783084	-0.107068878	 0.116848
H	-0.4580633544	 1.8542259797	-0.981835836	 0.115042
H	-0.4357596341	 2.0224223377	 0.7853750264	 0.108695
H	 0.6236685245	-0.4052063182	-0.7594295255	 0.068381
H	 1.7577856496	-0.0063880421	 1.4519658482	 0.102714
H	 0.1761086766	-0.0812761729	 2.2537656107	 0.123399
H	 0.8297587772	-1.5132145172	 1.4481363469	 0.116898
H	-2.296463516	 0.8644625482	 0.9247859146	 0.275074
H	-3.0391658484	 0.0469448756	-1.299084181	 0.100142
H	-1.5408167433	-0.138884875	-2.2523547156	 0.085138
H	-3.2034429025	-2.5614878944	-1.6128429469	 0.083976
H	-0.9972646956	-3.8038054182	-1.2804744129	 0.111739
H	-0.1014613608	-2.2954993919	-1.7632386739	 0.104866
H	-1.7449516544	-2.6764297176	 0.8802724496	 0.089766
