19
gdb 108190	3.22443	1.39933	1.30262	2.6735	74.92	-0.2347	0.0126	0.2472	1044.0448	0.160896	-423.014587	-423.006936	-423.005991	-423.046509	30.703	
O	-0.0952917247	 1.4185649209	 0.0016751462	-0.426513
C	-0.0161171168	-0.0020271856	 0.0231986651	-0.194908
C	-1.4265993912	-0.5414674963	 0.046100167	 0.267295
C	-2.3065613292	-0.1744720699	-1.1943987801	-0.08825
O	-3.3929857166	-1.1061640157	-1.144816654	-0.279979
C	-3.1542697936	-1.9281021908	 0.0348416156	 0.052306
C	-1.6269521415	-2.0822354502	 0.0027248143	-0.277177
C	-3.3362318725	-1.0316425001	 1.2512458347	-0.094159
C	-2.2964914539	-0.1906000993	 1.2461262901	-0.105371
H	 0.7988916301	 1.7721960813	 0.0033252807	 0.290518
H	 0.5111839983	-0.3845266763	-0.8660911971	 0.086126
H	 0.5317084606	-0.3558815804	 0.9109648463	 0.089835
H	-2.6780504435	 0.8533980807	-1.1508295223	 0.109996
H	-1.7471938117	-0.3124929799	-2.1297409527	 0.091688
H	-3.7767506409	-2.8174160988	-0.0463791289	 0.072262
H	-1.2676310769	-2.5514068805	-0.9182396348	 0.097245
H	-1.2167245277	-2.5874050368	 0.8789111417	 0.10113
H	-4.2105411467	-1.0073738797	 1.8887013835	 0.099895
H	-2.1260125615	 0.6743198474	 1.8739102449	 0.108061
