19
gdb 71010	3.79833	1.47488	1.33152	1.143	75.34	-0.241	0.058	0.299	1012.8117	0.159851	-422.948632	-422.941403	-422.940459	-422.979689	30.214	
C	-0.0470757227	 1.5375238626	-0.0271557118	-0.484498
C	 0.0664794096	 0.0429053854	 0.0460334007	 0.417133
C	 1.0062464351	-0.8083856075	-0.9347600961	-0.363313
C	 0.6010429024	-1.8635884062	 0.1193735494	 0.401812
C	 0.7132221492	-0.7510834664	 1.1995859977	-0.318612
O	 0.6681880333	-3.2565911878	 0.4702516298	-0.358075
C	-0.7597418822	-3.177460791	 0.8368616842	-0.180167
C	-0.8753960406	-1.9438333172	-0.1185034701	 0.0835
O	-1.2701764837	-0.5802000063	 0.0106184218	-0.328304
H	 0.9409594744	 2.000656897	 0.0402470731	 0.122294
H	-0.5128995982	 1.8439848396	-0.9683693721	 0.132007
H	-0.6638238495	 1.91048121	 0.7961484932	 0.133795
H	 0.6814031478	-0.9682432572	-1.9648269367	 0.10768
H	 2.0303526939	-0.4331962124	-0.8912960484	 0.108187
H	 1.7493509832	-0.4758244356	 1.4057608749	 0.102089
H	 0.1295493786	-0.8316095771	 2.1176617736	 0.102527
H	-1.2937450129	-4.0835990921	 0.5430823632	 0.11656
H	-0.8862425601	-2.9789442878	 1.9054046398	 0.116357
H	-1.1446056878	-2.3136059699	-1.1133777161	 0.089026
