19
gdb 79920	2.97405	1.31653	1.21838	2.4628	77.5	-0.2225	0.0217	0.2443	1117.9391	0.15957	-422.99722	-422.989116	-422.988172	-423.02927	32.71	
C	-0.0443092518	 1.4025477861	 0.1010568225	-0.518202
C	 0.0119278287	-0.0852734644	 0.0384389473	 0.333773
C	-0.0297361327	-0.9293791946	-1.0087486971	-0.201542
C	 0.0270873433	-2.3063804665	-0.3772330613	-0.177399
C	-1.0146012365	-2.08832558	 0.8093178567	 0.194521
O	-1.294691328	-3.143936859	 1.6659005643	-0.45178
C	 0.094517923	-1.025800282	 1.2351974219	-0.197797
C	 1.1489767525	-2.0413748287	 0.6942091441	 0.143056
O	 1.4119255744	-3.0880484942	 1.6209536124	-0.45545
H	 0.8490720435	 1.8209114613	 0.5817628849	 0.126963
H	-0.1250486015	 1.8370980506	-0.8997388434	 0.12461
H	-0.9040408721	 1.7462514049	 0.690209515	 0.13002
H	-0.1142895131	-0.702370308	-2.0629606061	 0.095847
H	 0.017402843	-3.1969041967	-1.0069150172	 0.057451
H	-1.9683566521	-1.6545609533	 0.4995787473	 0.082489
H	-0.4420874849	-3.4963188312	 1.9603924548	 0.285053
H	 0.1559353808	-0.615164554	 2.2432942446	 0.066398
H	 2.0853350618	-1.614771914	 0.3141647805	 0.071539
H	 1.9283658519	-3.7647826464	 1.1702751288	 0.29045
