21
gdb 62882	3.11061	1.47237	1.16048	1.8452	82.94	-0.2529	0.0835	0.3365	1123.4227	0.181494	-387.01268	-387.004156	-387.003212	-387.045154	34.122	
C	-0.080187813	 1.5745466523	 0.0073153845	-0.46881
C	-0.0386014953	 0.043640006	 0.0043731243	 0.358568
C	-1.4684261342	-0.4602463761	-0.2197154184	-0.467771
C	 1.1297498104	-0.6709054073	-0.7850374925	-0.188395
C	 2.1154511318	-0.1982313951	 0.3356092427	-0.25372
C	 0.8384500686	-0.6825135051	 1.1008711279	-0.188439
C	 0.9012234844	-1.8792788229	 0.1377099692	 0.553467
C	 0.3410702783	-3.2174052557	 0.0428768106	-0.325473
O	 1.7528580931	-2.9952241219	 0.2623479122	-0.309866
H	 0.8845051233	 2.0582473457	 0.1595035866	 0.117632
H	-0.4838112391	 1.9390100806	-0.9442350458	 0.115699
H	-0.7530915508	 1.9283448229	 0.7967580955	 0.115698
H	-1.8600138546	-0.0785766188	-1.1697294858	 0.114125
H	-1.5528755707	-1.5466119764	-0.2386190018	 0.121525
H	-2.1296430602	-0.0879239209	 0.5712897741	 0.114114
H	 1.2984534903	-0.6744954223	-1.8629741349	 0.072091
H	 3.0048090589	-0.8150190998	 0.4691892572	 0.117332
H	 2.3622580912	 0.8599293819	 0.3802451786	 0.095848
H	 0.674108822	-0.6994038099	 2.1793537522	 0.072095
H	-0.1948144573	-3.6510223007	 0.8868702537	 0.117139
H	 0.085641993	-3.6397262164	-0.9286798201	 0.117142
