18
gdb 50114	3.27145	0.79582	0.69837	3.3118	79.98	-0.2545	-0.0016	0.2529	1595.3083	0.145501	-401.907171	-401.897714	-401.89677	-401.942415	33.748	
O	-0.0852626474	 0.5473751915	-0.5859742862	-0.287198
C	 0.0764908424	 1.6473536259	-0.1164433445	 0.135088
N	 1.2225786966	 2.0710205596	 0.530505023	-0.061608
C	 2.5613004897	 1.7135406962	 0.1279888781	-0.256489
C	 2.1203311756	 3.1509745321	 0.1397881195	-0.011739
C	 1.929907536	 3.9087853682	-1.1552782806	-0.208358
C	 0.952363963	 5.097541751	-1.0185760392	-0.357418
C	 0.8342432056	 5.8688420191	-2.2490728278	 0.29054
C	 0.7577561753	 6.4852398887	-3.2777775356	-0.427375
H	-0.7206395752	 2.4151212211	-0.0866044953	 0.084685
H	 3.2146225576	 1.3412913807	 0.9119957613	 0.130375
H	 2.6666236603	 1.2217462967	-0.8361393168	 0.139485
H	 2.4497082792	 3.7633269584	 0.9794340216	 0.104126
H	 2.903538264	 4.2908657622	-1.4826843046	 0.126064
H	 1.5762796782	 3.229477538	-1.9384430384	 0.127672
H	-0.0370229712	 4.7296210268	-0.7189417719	 0.137877
H	 1.2901903478	 5.7531348393	-0.2051240437	 0.135002
H	 0.6795092128	 7.0382805943	-4.180839399	 0.199271
