18
gdb 87029	2.10645	1.57572	1.07236	3.1489	80.33	-0.2341	-0.0239	0.2102	1177.0861	0.14329	-401.901146	-401.891222	-401.890278	-401.936197	36.045	
C	 0.0312162613	 1.5284075642	-0.27961348	-0.317481
N	 0.0933023353	 0.0752281542	-0.1679776723	-0.108069
C	 1.3974906716	-0.5335561723	-0.1447450729	-0.2627
C	 0.5779505814	-0.5050364091	 1.1232642299	 0.037022
C	 0.9849962907	 0.3654483123	 2.1918278315	 0.239695
C	 1.2982684688	 1.0829087178	 3.1061525106	-0.419922
C	-0.1651818505	-1.7926262909	 1.480950458	 0.344489
C	-0.6911584032	-1.9279914349	 2.8913748384	-0.505807
O	-0.3118759835	-2.6494287951	 0.6436589337	-0.289925
H	 0.8683534846	 2.0523991978	 0.202457278	 0.117582
H	 0.0247663873	 1.7776848988	-1.3449751844	 0.132649
H	-0.9030741317	 1.8847142907	 0.1629632411	 0.131645
H	 1.4784347755	-1.4894776617	-0.6533196787	 0.144942
H	 2.2752980472	 0.1105567963	-0.1623265847	 0.118256
H	 1.5876686371	 1.7133667065	 3.9104583772	 0.197563
H	-1.3339441025	-1.0777475598	 3.1434155199	 0.147433
H	-1.2456367421	-2.862119541	 2.9828048335	 0.141228
H	 0.1374928227	-1.9121242038	 3.6069330311	 0.1514
