19
gdb 92437	2.54022	1.56454	1.46684	2.9088	73.79	-0.2326	-0.0094	0.2232	1002.2115	0.161806	-423.05751	-423.049821	-423.048877	-423.089662	30.411	
O	 0.0154519266	 1.4259327159	-0.0986378066	-0.433629
C	 0.0114134915	 0.0123494237	-0.0049419311	 0.125152
C	 0.6391842726	-0.543357171	 1.3274350422	-0.267267
C	-0.5059397655	-1.3532290351	 1.9792778833	-0.111564
C	-1.5802542522	-0.3622484994	 2.4838342861	-0.224986
C	-2.2055127035	 0.2198694084	 1.1639692363	-0.22339
C	-1.4388292002	-0.5095557675	 0.0342229356	-0.134888
C	-1.2028558608	-1.8701047512	 0.7107128768	 0.414265
O	-1.484190628	-2.981219819	 0.3608276286	-0.32776
H	 0.9312407925	 1.721759664	-0.1095595514	 0.284507
H	 0.5288450661	-0.4217417538	-0.872000298	 0.077513
H	 1.5099104092	-1.1728372768	 1.1225424559	 0.106043
H	 0.9590510986	 0.2872048225	 1.9648018396	 0.102841
H	-0.1970510323	-2.1160340675	 2.6920658132	 0.079597
H	-2.3346286421	-0.879067146	 3.083383498	 0.108628
H	-1.139065582	 0.4185233497	 3.1095545067	 0.105113
H	-3.2734205067	-0.0034594843	 1.1019093743	 0.106085
H	-2.0785070028	 1.2992559109	 1.0850693973	 0.130587
H	-1.9395805008	-0.5400132734	-0.9312921071	 0.083151
