17
gdb 78562	2.67453	1.48922	1.16066	2.9381	68.94	-0.2449	0.0632	0.3081	1073.3635	0.133816	-458.89169	-458.883291	-458.882347	-458.924325	32.361	
O	-0.1839998752	 1.406648415	 0.0426349339	-0.408822
C	-0.1015149924	 0.0178747102	-0.0813324368	 0.030021
C	-1.3519860163	-0.8127977739	-0.0006685887	-0.261406
C	-2.4846288556	-0.1490958996	-0.7460185979	 0.509818
C	-3.9167439586	-0.4112512458	-0.614196663	-0.273076
O	-3.3410660031	 0.842338234	-0.2168906648	-0.267023
C	-1.6614979146	-0.0235220224	-2.0408465565	-0.401786
C	-0.5177036026	-0.7452857295	-1.3039777428	 0.311411
O	 0.2229354305	-1.781044579	-1.8434895127	-0.451186
H	 0.5609317843	 1.7981084364	-0.4259291692	 0.285229
H	 0.7377160231	-0.4481962025	 0.4389038058	 0.093298
H	-1.454278972	-1.6106173591	 0.7251527068	 0.100478
H	-4.5563214393	-0.3763263035	-1.4958346254	 0.112432
H	-4.2836843292	-1.0356176568	 0.2002237325	 0.113901
H	-2.06497384	-0.6192658687	-2.8626583809	 0.11381
H	-1.455409692	 0.9957919694	-2.3765733939	 0.106148
H	 0.9589088131	-1.4066340842	-2.3407719864	 0.286752
