19
gdb 106604	2.48406	1.58558	1.31826	2.3872	75.33	-0.2239	-0.0172	0.2067	1065.4553	0.159103	-423.022359	-423.014066	-423.013122	-423.055215	31.737	
C	 0.0846750062	 1.5555173373	 0.0920481215	-0.388978
C	-0.0987517665	 0.0395174427	-0.0597741565	-0.299618
C	 0.7114333706	-0.5293418777	-1.189558485	 0.33481
C	 0.8922963292	-2.0435858848	-1.5247868892	-0.305288
C	 2.0444752744	-1.518062443	-2.4501635789	-0.195103
C	 1.2318418383	-0.6272686613	-3.4021015968	-0.082627
O	 0.3252275366	 0.019179801	-2.4699314951	-0.317976
C	 2.2602110877	-0.4992905733	-1.3051338046	 0.415376
O	 3.184063205	-0.0550073584	-0.6936675723	-0.323708
H	 1.1307382514	 1.799243263	 0.298789273	 0.139334
H	-0.2106396313	 2.0729916571	-0.8240066736	 0.135477
H	-0.524513636	 1.9378124054	 0.9158716986	 0.110658
H	 0.2005746077	-0.4717814988	 0.8624980642	 0.108335
H	-1.1552741754	-0.2018246684	-0.2291684069	 0.110133
H	 1.2466372396	-2.6433537359	-0.6843988307	 0.121081
H	 0.0426354148	-2.5119467145	-2.0262500859	 0.116714
H	 2.8340197662	-2.1439737126	-2.8577048616	 0.096042
H	 1.8420668658	 0.1229330351	-3.9179507262	 0.116143
H	 0.6562603656	-1.1928440031	-4.1439582941	 0.109195
