15
gdb 130364	3.54687	1.06744	0.82275	5.6726	76.65	-0.1915	-0.0038	0.1878	1311.0067	0.114367	-450.146483	-450.138118	-450.137174	-450.17985	30.984	
N	-0.1736178823	 1.4305916462	-0.0924842675	-0.504683
C	-0.0925911795	 0.0712705197	 0.0633221615	 0.094231
N	-1.1049311893	-0.6923362011	-0.0796988753	-0.367699
C	-0.9847783792	-2.0758551591	-0.0381595652	 0.140201
C	 0.0641090578	-2.9816256177	-0.1189356273	-0.114784
N	-0.4946512358	-4.2115039681	-0.0203461121	-0.194791
N	-1.8479551005	-4.1917004989	 0.1089081298	-0.30216
C	-2.1343829675	-2.9031061059	 0.0939699461	 0.36107
O	-3.3992158232	-2.4535655377	 0.2010094333	-0.42357
H	 0.5073068592	 1.9962049075	 0.3881245798	 0.258399
H	-1.1088641325	 1.8109776166	-0.1183885579	 0.258608
H	 0.9225377336	-0.2879991734	 0.2709819504	 0.099659
H	 1.1259016861	-2.8519082486	-0.2556403555	 0.123679
H	-0.0326449398	-5.1014784874	-0.0684271879	 0.273486
H	-3.3327646171	-1.4902781323	 0.1301747979	 0.298353
