23
gdb 111691	2.26746	1.44125	1.23534	1.0834	85.36	-0.235	0.0771	0.3121	1193.1753	0.206701	-388.284311	-388.275141	-388.274197	-388.318037	35.136	
C	 0.3989158172	 1.2862489979	 0.198199694	-0.236129
O	-0.2903543573	 0.1642508381	-0.3159552741	-0.233916
C	 0.4552194567	-0.5338014059	-1.267803357	 0.125479
C	 1.4221254327	-1.635375147	-0.8971199896	-0.108434
C	 1.3418304728	-2.2455042504	 0.4993987718	-0.221499
C	-0.1511424831	-2.5705994654	 0.7355148153	-0.224453
C	-0.7710908007	-2.7706644216	-0.6702146856	 0.044321
C	-2.2646096708	-2.4390919166	-0.7436119806	-0.402844
C	 0.1096355844	-1.9504920788	-1.6115318494	-0.117262
H	 1.3398309704	 0.9992381503	 0.6882277306	 0.112259
H	 0.6314077402	 2.0124966201	-0.5959904935	 0.105731
H	-0.2576449928	 1.7621983158	 0.9303435901	 0.125572
H	 0.7618233117	 0.093423744	-2.1083442623	 0.07837
H	 2.3751792354	-1.670052756	-1.4156454056	 0.075739
H	 1.9433961701	-3.1622386365	 0.5092431896	 0.097157
H	 1.7496783616	-1.593429912	 1.2796111504	 0.094142
H	-0.2865511552	-3.4526815044	 1.3687215661	 0.085284
H	-0.6418460737	-1.7304516091	 1.2303713689	 0.114007
H	-0.6355518229	-3.821950732	-0.9612909795	 0.066502
H	-2.4352829705	-1.3902573073	-0.4852636499	 0.134978
H	-2.6613704251	-2.6098775856	-1.7503900115	 0.103283
H	-2.8403644886	-3.0632548026	-0.0511800107	 0.104195
H	 0.0851102076	-2.2084678749	-2.6659914576	 0.077515
