20
gdb 87364	2.13415	1.58362	1.07711	3.7507	80.83	-0.241	0.0362	0.2772	1189.1761	0.170055	-403.167329	-403.157943	-403.156999	-403.201378	35.003	
C	-0.6691018761	 1.1373614656	-0.0097406039	-0.409423
C	-0.3886817413	-0.3245898676	 0.2596537531	-0.056578
C	 0.9116669854	-0.9455551506	-0.1787458647	-0.348468
C	 0.6104184988	-0.7864118073	 1.2876279223	 0.157321
C	 1.4085129129	-0.0767479177	 2.4107431436	-0.023189
C	 0.8816322629	 1.223266009	 3.0009110331	-0.393637
N	 1.1176502265	-1.2755965899	 3.222941719	-0.365836
C	 0.4349724106	-1.9557303173	 2.2374880035	 0.412246
O	-0.0668980676	-3.0484675927	 2.1826202891	-0.381869
H	 0.2443586883	 1.7382071666	 0.0402372083	 0.114704
H	-1.0915955377	 1.2642571368	-1.0123090329	 0.123043
H	-1.3836543455	 1.5529928607	 0.7081298832	 0.122658
H	-1.25930359	-0.9729427622	 0.1891069392	 0.107522
H	 0.9097230197	-1.9556115453	-0.575239826	 0.132348
H	 1.6592878414	-0.2854893664	-0.6090149806	 0.11298
H	 2.475761741	 0.0150704573	 2.1719053252	 0.086488
H	-0.1928507928	 1.1566823026	 3.1926782813	 0.126157
H	 1.385921207	 1.4432705245	 3.9482216212	 0.11589
H	 1.0664564685	 2.0645010932	 2.3263761826	 0.121694
H	 1.4883184082	-1.5850076795	 4.1088845936	 0.245949
