17
gdb 97619	2.66794	0.7339	0.5961	4.3395	81.41	-0.2498	-0.0631	0.1867	1834.4455	0.131368	-421.814224	-421.803578	-421.802634	-421.853837	34.765	
C	 0.0462716558	 1.5457179308	 0.108626522	-0.366862
C	-0.0095939587	 0.0144390556	-0.0443691878	-0.316618
C	-1.3710135582	-0.5103250025	-0.0503400672	 0.08652
C	-2.5074727076	-0.9112954552	-0.0747003157	 0.023922
C	-3.865425772	-1.4317882039	-0.0465679883	-0.312066
C	-3.8409057396	-2.9741626049	 0.0426106845	 0.163907
O	-4.5696413619	-3.6824042847	-0.5918364068	-0.224579
C	-4.6196923539	-0.8834105444	 1.1851412904	 0.163043
O	-5.7546983175	-0.5018389951	 1.146982661	-0.22435
H	 1.0849413	 1.8881465405	 0.1061751665	 0.120889
H	-0.4816151244	 2.0376635631	-0.7124314496	 0.133879
H	-0.4188357648	 1.8604901896	 1.0465285375	 0.13082
H	 0.4936837152	-0.2827660784	-0.9730518718	 0.138201
H	 0.5547750935	-0.4588398292	 0.769014959	 0.135158
H	-4.4513444151	-1.1670739793	-0.9309200097	 0.145419
H	-3.0827095315	-3.374045815	 0.7481043447	 0.1017
H	-4.0149290993	-0.8700904569	 2.1161564611	 0.101016
