23
gdb 79958	2.46169	1.52536	1.32157	0.1624	90.48	-0.2233	0.0222	0.2455	1134.2035	0.20574	-351.160866	-351.151784	-351.15084	-351.193622	36.555	
C	 0.2681389257	 1.8114838654	-0.4261047684	-0.417794
C	 0.3167170383	 0.3098192765	-0.2442642617	-0.01602
C	 1.5751762621	-0.5331223258	-0.4074690509	-0.113271
C	 2.8729675535	 0.1664133652	-0.1870844979	-0.092828
C	 3.003476128	 0.5872317082	 1.0730504168	-0.110144
C	 1.8460427037	 0.1509632778	 1.961886239	 0.249784
C	 2.3269501714	-0.96339006	 2.9172960006	-0.411726
C	 1.259082249	 1.3023200462	 2.7996777759	-0.425036
C	 0.8650318685	-0.4562273773	 0.9406683932	-0.086615
H	 1.2029831314	 2.2945024064	-0.1355254305	 0.124363
H	 0.0812194028	 2.0562798493	-1.4781365434	 0.108659
H	-0.5421959593	 2.2554581896	 0.1625405332	 0.114057
H	-0.5615579322	-0.182957192	-0.6584627333	 0.081166
H	 1.5371566482	-1.4084671168	-1.047829009	 0.079502
H	 3.5923837016	 0.3347472937	-0.9813773232	 0.090645
H	 3.8348097025	 1.1661680157	 1.4634164333	 0.08579
H	 3.1195441434	-0.5972979695	 3.5789316303	 0.106646
H	 1.5016091164	-1.3174149779	 3.5466456992	 0.106421
H	 2.7211589774	-1.8155255899	 2.3559853185	 0.116706
H	 0.9297355487	 2.1376642282	 2.1792274828	 0.119317
H	 0.3991142659	 0.9550351307	 3.3824704106	 0.110625
H	 2.0044682025	 1.6827427566	 3.5075832015	 0.106494
H	 0.2667996707	-1.2922750501	 1.2895588634	 0.073259
