15
gdb 124176	3.55937	0.99047	0.77932	4.1991	80.89	-0.2152	-0.0244	0.1908	1413.863	0.112221	-416.774738	-416.765858	-416.764914	-416.809702	31.282	
C	-0.0933279663	 1.4194485943	 0.0065354427	-0.510535
C	-0.038835262	-0.0331451545	-0.008713338	 0.23103
C	 0.0354737956	-1.2371826453	-0.0169238242	-0.103577
C	 0.0445384335	-2.6519971302	-0.0273315385	 0.231503
N	 1.158664384	-3.3611163413	-0.1156155184	-0.21667
O	 0.7657395488	-4.6758714216	-0.1070901057	-0.164944
C	-0.5830744043	-4.7489657535	-0.0101706377	-0.024335
C	-1.1142534015	-3.4982044629	 0.0439831589	 0.058063
N	-2.4267122807	-3.0640283716	 0.2089392477	-0.617659
H	 0.9012701612	 1.8435156154	 0.1807006376	 0.162603
H	-0.4622285137	 1.814981486	-0.9463693751	 0.15432
H	-0.755715381	 1.7838428366	 0.7993339342	 0.155282
H	-1.0043689691	-5.7407547609	 0.0087448599	 0.14074
H	-3.1188410431	-3.6639337792	-0.2178510528	 0.251355
H	-2.5525641214	-2.1063526611	-0.0928158105	 0.252826
