13
gdb 25367	6.05752	0.89792	0.782	0.8325	81.26	-0.2541	-0.08	0.174	1324.4523	0.090801	-415.675917	-415.668418	-415.667474	-415.708284	27.084	
O	-0.1640661951	 0.0463798666	-0.0004544043	-0.260424
C	-0.0064653583	 1.2459282063	 0.0081253034	 0.07259
C	 1.293945907	 1.9025151482	-0.001057826	 0.222019
C	 2.5781597089	 1.365193538	-0.0204287047	-0.18341
C	 3.4876655995	 2.4314973224	-0.0214415831	-0.215092
C	 2.742577472	 3.6105101606	-0.0028550043	 0.220473
N	 1.4167408115	 3.2690904132	 0.0093242105	-0.368659
C	 3.1655354262	 4.95843405	 0.0039665396	 0.211493
N	 3.5005162371	 6.0678163248	 0.009741302	-0.332308
H	-0.8748880625	 1.9450115623	 0.0241061583	 0.066276
H	 2.7988675107	 0.3098537015	-0.032112196	 0.144369
H	 4.5647621148	 2.3813923249	-0.0340942385	 0.136269
H	 0.6537743181	 3.9271801813	 0.0237323631	 0.286404
