14
gdb 15204	2.5049	1.9432	1.50444	6.1156	66.54	-0.3063	-0.0095	0.2968	886.2328	0.107037	-341.602896	-341.595012	-341.594068	-341.63532	27.797	
C	-0.0986854213	 1.5518038988	-0.008548108	-0.418453
C	 0.0347212383	 0.0482333136	 0.0374433994	-0.030554
C	 1.3655077472	-0.6370119563	-0.2100543973	-0.194234
C	 2.5478498414	 0.135883197	-0.4692108942	 0.308907
N	 3.4978401376	 0.7525840743	-0.7018460306	-0.324344
C	 0.7317101001	-0.6504198649	 1.1897879336	-0.194233
C	 1.3114956233	 0.1097239976	 2.2614643081	 0.308902
N	 1.7590496252	 0.7157892643	 3.1385622969	-0.324338
H	 0.7855307002	 2.048893581	 0.3964562812	 0.164511
H	-0.2354549015	 1.8883403699	-1.0403001654	 0.140083
H	-0.9665226099	 1.8728805105	 0.5747558864	 0.140086
H	-0.8160019896	-0.5021332068	-0.3530078521	 0.122119
H	 1.3453504884	-1.5904895413	-0.7270578618	 0.150775
H	 0.3367843906	-1.6118273077	 1.5005099238	 0.150774
