13
gdb 129484	4.91302	1.01677	1.00321	7.8603	59.81	-0.2845	-0.0446	0.2399	1158.8572	0.089079	-482.216984	-482.20875	-482.207806	-482.252171	27.472	
N	-0.0623178514	 1.3344380283	 0.0090066047	-0.524659
C	 0.0911213712	-0.0160529155	 0.0016456042	 0.420893
O	 1.1554692388	-0.5858973542	-0.0102156593	-0.322814
C	-1.2532451411	-0.7788257724	 0.0092371228	-0.280126
N	-1.0351219825	-2.2047899665	-0.0002957031	 0.194557
N	-0.8946138355	-2.9249607823	-1.1026758611	-0.112132
N	-0.6557597625	-4.1291996053	-0.6887314161	-0.080851
N	-0.6448821833	-4.1365507449	 0.6609221454	-0.080865
N	-0.8767659655	-2.9368887249	 1.0917660282	-0.112117
H	 0.7650551507	 1.9084790307	 0.0045659434	 0.278675
H	-0.9607240874	 1.7851703182	 0.0184060715	 0.269349
H	-1.8279025196	-0.5357734435	 0.9057482443	 0.175068
H	-1.8435575818	-0.5261751378	-0.874359205	 0.175021
