20
gdb 46905	3.18398	1.32036	1.02107	3.729	79.15	-0.2339	0.0324	0.2664	1181.7696	0.174204	-403.17995	-403.172007	-403.171062	-403.21255	31.502	
O	 0.035269598	-0.0309652378	 0.6274233668	-0.371949
C	-0.0058951273	 1.1116407493	 0.2030854508	 0.370133
C	-1.3657424121	 1.7024790713	-0.1956324391	-0.272113
C	-1.5219136493	 3.2025567022	-0.485988594	-0.256552
C	-0.7362076654	 3.6353554427	-1.7074982453	 0.017282
C	 0.0304134883	 4.9323559639	-1.7461294974	-0.323963
C	 0.7694926689	 3.6208690846	-1.6171942855	 0.005147
C	 1.3790544109	 3.2268300459	-0.2888075091	-0.202856
N	 1.157149577	 1.8242464815	 0.0524070249	-0.297818
H	-1.6766697401	 1.1274869489	-1.0776926421	 0.130058
H	-2.0459335792	 1.3935517824	 0.6040600212	 0.128626
H	-2.5868996497	 3.4149663077	-0.6366452385	 0.102776
H	-1.2269885442	 3.7909946122	 0.3895874327	 0.101774
H	-1.1564624565	 3.2972703774	-2.6512298431	 0.086861
H	 0.0965487231	 5.4678187859	-2.6864431138	 0.115391
H	-0.0146045991	 5.5761470765	-0.8726271653	 0.111861
H	 1.3127683319	 3.2664247079	-2.4879390777	 0.08935
H	 2.4632685286	 3.37064101	-0.3182423684	 0.113417
H	 1.0092779317	 3.8878378829	 0.5056087132	 0.110297
H	 1.9526763344	 1.2964085546	 0.3811672698	 0.242281
