20
gdb 58097	2.2045	1.35191	1.22933	2.8141	70.81	-0.2391	0.036	0.2751	1154.8736	0.16791	-477.46489	-477.454175	-477.453231	-477.500007	39.998	
C	 0.0945955568	 1.5802243066	-0.0076343166	-0.434316
C	-0.0143601915	 0.0588586088	-0.0596000353	 0.119735
O	-1.3744559577	-0.3529673352	-0.2574496848	-0.461217
C	 0.7434622693	-0.5789910942	-1.2524132879	 0.279683
C	 0.7540546846	-2.1108788635	-1.1344378514	-0.428545
O	 0.1135815611	-0.1734484778	-2.4657227356	-0.496354
C	 2.1971686643	-0.0779944391	-1.2497728073	 0.373413
N	 2.5851508554	 0.5457373488	-2.3864412596	-0.525402
O	 2.9176794085	-0.2553609032	-0.2821300394	-0.397848
H	 1.1186986205	 1.8850160322	 0.221499171	 0.148781
H	-0.2047917481	 2.0207348607	-0.9626660438	 0.125128
H	-0.5520757662	 1.9818818578	 0.781301525	 0.102618
H	 0.3834350609	-0.3738320129	 0.8664735751	 0.095106
H	-1.9363238425	 0.1751217073	 0.3169403285	 0.28937
H	-0.2656647253	-2.4826879679	-1.009487089	 0.127131
H	 1.1806514369	-2.546484225	-2.0419396844	 0.119344
H	 1.3583799772	-2.4172738413	-0.2776028094	 0.13801
H	-0.8355992367	-0.2266553007	-2.290078253	 0.288712
H	 1.9249032192	 0.6786570519	-3.1333967688	 0.277878
H	 3.5273273635	 0.8915222867	-2.4551808933	 0.258774
