17
gdb 69148	2.90769	1.68678	1.31437	3.0241	73.83	-0.2455	-0.0126	0.2329	995.7161	0.136664	-417.972498	-417.965047	-417.964103	-418.004103	29.467	
C	-0.1660795344	 1.4848209498	 0.0429330859	-0.5009
C	 0.0903567687	 0.0066964637	-0.0192911384	 0.417715
O	-0.3905835348	-0.7925938261	 1.0674048624	-0.289853
C	 1.0349730248	-0.7469790952	 0.8271120577	-0.098814
C	 1.5028775013	-1.9327067511	 0.0353843181	 0.373959
N	 2.3547560248	-2.7687036432	 0.4539692348	-0.514807
N	 0.9150800365	-1.9100414963	-1.2780166359	-0.161255
C	-0.5553219224	-2.0969347882	-1.366430515	-0.253826
C	 0.0239105297	-0.7320054822	-1.3496237943	-0.101589
H	 0.5034933135	 2.0223205941	-0.6361240632	 0.132746
H	-1.1971354563	 1.7098890103	-0.2500395136	 0.136612
H	-0.009984332	 1.856814164	 1.0579231947	 0.139935
H	 1.6406787955	-0.3353643184	 1.6281345507	 0.113078
H	 2.542098831	-3.4670166056	-0.2703682876	 0.227023
H	-0.8848393201	-2.5308661286	-2.3057009869	 0.125775
H	-1.0779946153	-2.426008007	-0.4759961031	 0.152997
H	 0.0864584194	-0.1390873499	-2.2574989966	 0.101204
