18
gdb 117120	2.545	1.00062	0.74219	1.5055	74.13	-0.2683	-0.0361	0.2322	1515.3409	0.143981	-439.099906	-439.089462	-439.088517	-439.13677	35.313	
C	-0.4845585678	 1.2954627742	-0.1500016045	-0.231637
O	 0.5457104759	 0.3359817786	-0.0458021083	-0.215577
C	 0.4923242942	-0.6233605449	-1.0525276082	-0.169951
C	 1.5789482963	-1.6633217568	-0.8348704618	 0.368834
O	 2.2674122935	-1.7082844484	 0.1472030984	-0.267388
C	 1.8115280139	-2.6724282214	-1.9986895693	-0.251476
C	 2.5039483631	-3.9546336698	-1.5061861528	-0.388345
C	 0.5876920619	-2.9614985478	-2.7462549558	 0.273821
N	-0.3847085958	-3.1951406092	-3.3265345131	-0.328178
H	-0.4259676832	 1.8563424857	-1.0955544396	 0.110368
H	-1.4804451671	 0.8312136974	-0.0848821277	 0.113543
H	-0.3598732284	 1.9898231503	 0.6832527343	 0.13816
H	-0.4784662075	-1.1514667288	-1.0785038835	 0.137749
H	 0.6171816787	-0.1847062403	-2.0605941868	 0.115939
H	 2.4869776887	-2.144755514	-2.6891791995	 0.158567
H	 3.3873972443	-3.680380979	-0.9289662503	 0.154238
H	 1.8362554413	-4.528896697	-0.8598337298	 0.145411
H	 2.7958577579	-4.5803557386	-2.3518462417	 0.13592
