11
gdb 3042	14.6654	1.00395	0.99531	2.8374	60.29	-0.2735	-0.0725	0.201	1086.4849	0.076472	-343.197784	-343.190762	-343.189818	-343.229868	22.741	
O	-0.0716081069	-0.0367915034	 0.2171449384	-0.225725
C	 0.0047155135	 1.1632043815	 0.0869808506	 0.02106
C	 1.2426343488	 1.8979507548	 0.0344255477	 0.043705
C	 2.2597813232	 2.5484049517	-0.0164100108	 0.132828
C	 3.4899147773	 3.2845182294	-0.0584593244	-0.122115
C	 3.8215078897	 4.1474678539	-1.2146586098	-0.155314
O	 3.4068360403	 4.7156880813	 0.0162057135	-0.203765
H	-0.8996630566	 1.7980007971	-0.0031723788	 0.106488
H	 4.3139488098	 2.8542542215	 0.5081986168	 0.135004
H	 4.8698493136	 4.2845576107	-1.4751951949	 0.132585
H	 3.1109978274	 4.2257425614	-2.0347987385	 0.135249
