21
gdb 58899	3.12618	1.23845	1.04928	2.5269	77.46	-0.2258	0.0678	0.2936	1215.0821	0.182453	-424.214434	-424.205514	-424.204569	-424.247811	34.603	
C	-0.0444602767	 1.5869171704	 0.4033014841	-0.41145
C	 0.0022296467	 0.0961852365	 0.0642500184	 0.020396
O	 0.7569240462	-0.6271942552	 1.0340598421	-0.428766
C	-1.3803709606	-0.5061619146	-0.130647838	 0.322381
C	-2.1717833803	-1.0522831691	 1.0509480346	-0.391741
C	-1.6478043764	-1.9782657781	-0.0227276146	 0.085642
O	-2.5157977895	-2.4098007393	-1.0365745224	-0.258565
C	-3.1552419273	-1.2572679028	-1.5810184326	-0.092407
C	-2.2080224537	-0.0608293541	-1.3316134097	-0.314815
H	 0.9679166442	 1.975626782	 0.5454472558	 0.122732
H	-0.5272487739	 2.1612737771	-0.393164132	 0.123107
H	-0.6162446261	 1.753950404	 1.3247575935	 0.111612
H	 0.5586295219	-0.0364217545	-0.873848458	 0.087525
H	 0.4953858687	-0.3110958326	 1.9053261402	 0.280736
H	-1.6642848284	-1.1024909829	 2.0084344412	 0.098695
H	-3.2365276552	-0.8561491676	 1.1201663456	 0.1117
H	-0.8795985221	-2.7044643766	 0.2098424925	 0.114237
H	-3.3492261804	-1.4466661614	-2.64043436	 0.110502
H	-4.1232896209	-1.0921684045	-1.0874020503	 0.098371
H	-2.767114693	 0.8666296222	-1.1739614817	 0.103983
H	-1.5390958833	 0.0933652011	-2.1870473788	 0.106126
