17
gdb 30053	2.7143	1.54633	0.99731	0.891	77.79	-0.2411	-0.0441	0.1971	1152.6327	0.13664	-418.075018	-418.066315	-418.065371	-418.108851	30.975	
C	 0.0611642336	 1.4551324383	 0.0235537675	-0.323139
N	-0.0306924834	 0.0022432107	 0.0381522436	-0.06783
C	-0.1594177214	-0.7883373703	-1.0513213025	 0.018522
N	-0.2197161048	-2.0768929057	-0.7557950801	-0.275078
C	-0.1237881857	-2.1205927351	 0.5996090395	-0.148122
C	-0.0040673948	-0.8489146425	 1.1384255021	 0.197564
C	 0.1255553339	-0.3921822713	 2.5195217064	 0.295291
C	 0.1348918091	-1.469831419	 3.5915114584	-0.487022
O	 0.2220436318	 0.7904007006	 2.8068681018	-0.349635
H	 1.002477435	 1.7851891004	 0.4646250759	 0.161078
H	 0.0026600609	 1.7862743532	-1.0154414254	 0.130746
H	-0.7525566665	 1.8973895256	 0.5994252894	 0.161376
H	-0.2057935643	-0.3727695004	-2.0479840861	 0.136834
H	-0.1441448455	-3.0585590031	 1.1350550652	 0.120652
H	 0.9657217144	-2.16561803	 3.4352918381	 0.143145
H	 0.2362855447	-0.9933450514	 4.5668509271	 0.142482
H	-0.790506287	-2.0542264003	 3.562997249	 0.143135
