20
gdb 39448	2.37806	2.03262	1.35928	0.337	78.58	-0.225	0.0747	0.2997	1000.5746	0.173306	-403.109036	-403.101721	-403.100777	-403.140519	30.011	
C	-0.0691583647	 1.5095167767	-0.0064280251	-0.339268
N	 1.1906290899	 0.7527084448	 0.0118471955	-0.137075
C	 1.9032546456	 0.6876539892	 1.3013078963	-0.158329
C	 1.791582831	-0.7083986172	 1.9034014535	-0.086882
O	 0.4422761373	-1.0192710216	 2.2217701293	-0.261705
C	-0.4292290989	-0.9604239695	 1.1153622864	 0.075916
C	-0.3958935989	-2.0970004541	 0.0442919491	-0.260336
C	-0.4120151431	-1.0119168752	-1.0752075792	-0.30359
C	-0.0864006747	 0.033691871	-0.0053079439	 0.316324
H	-0.366879422	 2.0260768765	 0.9058126349	 0.109982
H	-0.2683523443	 2.0575231528	-0.9242095908	 0.11451
H	 2.9554611074	 0.9400051932	 1.1275697428	 0.105484
H	 1.5022750032	 1.4096843925	 2.0268280834	 0.100058
H	 2.2194107864	-1.4509489194	 1.2119637192	 0.097235
H	 2.3441358687	-0.7677262339	 2.8449412972	 0.111233
H	-1.4321919729	-0.8201596016	 1.5298915449	 0.086832
H	 0.5436973014	-2.6533832936	 0.0717561318	 0.111616
H	-1.2245639748	-2.806914225	 0.0697449101	 0.101521
H	 0.3258982942	-1.1124235287	-1.8737321014	 0.112242
H	-1.4018287709	-0.8689993771	-1.518287844	 0.104231
