18
gdb 119130	2.55835	1.24956	0.92033	4.6545	69.84	-0.2425	0.0132	0.2557	1280.9608	0.14599	-476.217399	-476.207897	-476.206952	-476.252273	34.164	
C	-0.2654071108	 1.3621102365	 0.1950950118	-0.232097
O	-0.295497931	-0.0502462225	 0.2061544844	-0.241958
C	 0.7772785054	-0.6177604231	 0.9417452504	-0.167339
C	 0.6480730329	-2.1230567764	 0.984736293	 0.294884
C	 1.1513784828	-2.8337665709	 2.171104859	-0.209321
O	-0.2451701371	-2.6276161325	 1.9895750885	-0.25893
C	 0.6067145151	-2.9431112097	-0.3089395481	 0.34963
N	 0.3234132276	-2.2291644738	-1.4314743634	-0.544007
O	 0.8330318462	-4.1370622726	-0.3049685247	-0.358489
H	 0.6578157282	 1.7458264107	-0.2650365729	 0.11279
H	-1.1240353966	 1.7010187504	-0.3882620773	 0.136409
H	-0.3416292198	 1.7688621718	 1.2138299959	 0.119884
H	 1.7410805186	-0.3364399906	 0.4855538842	 0.104438
H	 0.764038078	-0.2380976784	 1.9733664351	 0.109157
H	 1.490013199	-3.8567376739	 2.0347679716	 0.147894
H	 1.6100684587	-2.2630771068	 2.9779445889	 0.108193
H	-0.0878460255	-1.3107159366	-1.3380296803	 0.271293
H	 0.1785668983	-2.7565278314	-2.2781574962	 0.257569
