19
gdb 65708	4.20265	0.75675	0.73955	2.2059	78.93	-0.2515	-0.0385	0.2129	1547.4612	0.155668	-423.035973	-423.02612	-423.025176	-423.071648	34.896	
C	-0.1695437026	 1.6637723329	 0.1257652173	-0.467373
C	-0.0206940732	 0.1537428393	 0.0330209561	 0.313306
C	-1.2398851784	-0.5474203924	-0.556558386	-0.340241
C	-1.4558375187	-0.1861899292	-2.0153542094	 0.165013
O	-2.4964688256	 0.1961172761	-2.4821358253	-0.2348
C	 1.3270323344	-0.437217108	-0.2425810378	-0.335419
C	 0.7092038687	-0.6195216564	 1.1400138904	-0.148346
C	 1.3217173118	 0.0598343548	 2.3041896108	 0.157569
O	 1.3159319319	-0.3874822058	 3.4249720508	-0.265798
H	 0.7458028052	 2.1520320447	 0.4665195609	 0.125929
H	-0.4180538003	 2.0831379813	-0.8554318224	 0.134501
H	-0.9764008105	 1.9381264882	 0.8136838393	 0.135647
H	-1.0944064789	-1.6356491398	-0.5150813169	 0.123197
H	-2.1513699199	-0.3077951318	-0.0003311351	 0.128841
H	-0.5497181055	-0.3084944765	-2.653429202	 0.078439
H	 1.4111534813	-1.324638855	-0.8603099903	 0.127308
H	 2.1725588319	 0.2396183831	-0.3179906483	 0.12718
H	 0.3096391597	-1.5979940849	 1.3856917515	 0.106774
H	 1.8204758986	 1.0301314496	 2.0806394763	 0.068273
