21
gdb 85310	2.30261	1.65579	1.1129	2.9553	81.61	-0.2312	-0.0148	0.2164	1151.6082	0.183578	-387.119237	-387.110899	-387.109954	-387.152265	32.58	
C	-0.0173222373	 1.5846668322	-0.0436548327	-0.404432
C	 0.0515803795	 0.0588315739	-0.0188399087	 0.011518
C	 0.7786670977	-0.5830072382	-1.2157284806	-0.33645
C	 1.221292609	-1.967406011	-0.7244512167	 0.39673
O	 1.4792363641	-2.9143408387	-1.4233071124	-0.321659
C	 1.2766760024	-1.9536239874	 0.803895144	-0.133494
C	 2.6852243097	-1.5909636233	 1.3699054029	-0.225344
C	 2.2274869662	-0.1132105394	 1.5163063412	-0.234086
C	 0.7567754281	-0.5460787045	 1.2154468032	-0.012397
H	 0.9836147466	 2.0300588989	-0.0521658848	 0.116525
H	-0.5445453207	 1.9427269421	-0.933926643	 0.116967
H	-0.5465364002	 1.9699489854	 0.834652021	 0.113873
H	-0.9767215981	-0.3301771564	-0.0129909771	 0.079058
H	 0.182215485	-0.6630087032	-2.1273687368	 0.123181
H	 1.6839875682	-0.0161780635	-1.4771687901	 0.123775
H	 0.8099068111	-2.855403904	 1.2049867825	 0.090189
H	 2.8672226711	-2.0753075036	 2.3317784557	 0.110846
H	 3.5386677515	-1.7927342505	 0.7176260873	 0.111745
H	 2.3993930272	 0.3482796742	 2.4907868338	 0.103173
H	 2.652896531	 0.5463618538	 0.7550291167	 0.102088
H	 0.1206456778	-0.518166587	 2.1028238247	 0.068193
