16
gdb 28911	2.39313	1.85013	1.04728	2.0141	76.54	-0.1972	0.0102	0.2074	1077.6743	0.127705	-434.140682	-434.132813	-434.131869	-434.172525	31.237	
N	-0.0517456724	 1.3946201596	 0.1667649649	-0.598374
C	-0.0047909386	 0.0104402501	 0.0539234217	 0.291232
C	-1.2113046588	-0.6940624173	-0.0417232167	 0.124784
N	-2.4387027309	 0.0076122035	-0.0905001849	-0.622528
C	-1.1294259	-2.0852831468	-0.1406861975	 0.380758
O	-2.2988787926	-2.7701214539	-0.2616706639	-0.441164
N	-0.0056543525	-2.7866010107	-0.1369735536	-0.388782
C	 1.1376580318	-2.097530629	-0.0173713679	-0.015767
C	 1.1939952641	-0.7187468552	 0.0781422868	-0.216962
H	 0.8141608411	 1.8655320472	-0.0525633201	 0.248618
H	-0.8420050458	 1.8036353221	-0.3176443213	 0.256494
H	-2.5717391674	 0.5920919732	 0.7296298973	 0.246559
H	-3.217720524	-0.6351445399	-0.1636988017	 0.258192
H	-2.0471433618	-3.7014702	-0.3207939763	 0.295253
H	 2.05077308	-2.6861172242	-0.0030896064	 0.1016
H	 2.1471415478	-0.2073426487	 0.1596232697	 0.080086
