23
gdb 121728	6.63414	0.50068	0.4737	1.3926	84.31	-0.2444	-0.0098	0.2346	2384.851	0.202016	-425.444655	-425.433014	-425.43207	-425.483609	39.347	
C	 0.0338379866	 1.6279080347	-0.0961662417	-0.386744
C	-0.0012933633	 0.1005126208	-0.0052973778	-0.159193
C	 0.6775648839	-0.5766592397	-1.1957866902	-0.277747
C	 0.6602893492	-2.0984721893	-1.1368772519	 0.36149
O	 0.1481487661	-2.7008115747	-0.2186201671	-0.301879
C	 1.3229815966	-2.8252852724	-2.2971004675	-0.312956
C	 1.2658178822	-4.3399020508	-2.1678525464	-0.051038
O	 1.908594833	-4.8933997722	-3.2964744984	-0.236005
C	 1.9149561402	-6.3003559016	-3.2822150557	-0.228018
H	 1.063080691	 2.0030589341	-0.1293078211	 0.112575
H	-0.4758548924	 1.9867950045	-0.9976042999	 0.112576
H	-0.4581625346	 2.085942857	 0.7672579449	 0.115718
H	 0.482572957	-0.2347087705	 0.9182661341	 0.11188
H	-1.0364970433	-0.2507695566	 0.0611661969	 0.111895
H	 0.2084184051	-0.2700015485	-2.142075846	 0.117931
H	 1.7250873289	-0.2540337021	-1.2863349006	 0.117917
H	 0.8472696915	-2.5109931537	-3.2351825856	 0.128995
H	 2.3668337236	-2.4950792862	-2.3771866281	 0.128993
H	 1.757809352	-4.6623740116	-1.2370295847	 0.099998
H	 0.2198945675	-4.6783811494	-2.1050422486	 0.100002
H	 2.4462318771	-6.6986097071	-2.4030399742	 0.104319
H	 0.8940334703	-6.7144980486	-3.2791490622	 0.10432
H	 2.4288595818	-6.6354540759	-4.1866067481	 0.124971
