16
gdb 31458	6.61163	0.86195	0.77516	2.1749	83.75	-0.1869	0.0033	0.1902	1433.0925	0.123648	-400.738471	-400.729685	-400.728741	-400.772306	32.269	
C	-0.1276171314	 1.4340558193	 0.2125094655	-0.332684
N	-0.0554964506	 0.0659713698	-0.294001287	-0.394408
C	-1.1551892326	-0.7564571658	-0.1594458375	 0.464753
C	-1.3020390429	-2.1002685631	 0.0148549186	-0.45245
C	-2.7256796653	-2.3507060881	-0.0350819073	 0.160613
C	-3.3173551334	-1.1364832263	-0.221712863	-0.141124
O	-2.366682805	-0.1570788942	-0.3007911608	-0.175917
C	-3.3776668286	-3.5984244533	 0.0956588371	 0.227808
C	-3.9148651357	-4.6702840644	 0.2097556967	-0.435047
H	 0.8083710239	 1.94253552	-0.0285952116	 0.127901
H	-0.9410521563	 1.9633357845	-0.2869402135	 0.153377
H	-0.2942806848	 1.4924386053	 1.2984448247	 0.118105
H	 0.7963586847	-0.4134387156	-0.0414878037	 0.246227
H	-0.5244010475	-2.8311635365	 0.1609883405	 0.10651
H	-4.3405887007	-0.8145277673	-0.3009484858	 0.141494
H	-4.3953289638	-5.6115007644	 0.3088614171	 0.184844
