13
gdb 3631	4.59499	4.58277	3.44438	1.3042	54.11	-0.2327	0.0888	0.3214	473.638	0.104154	-307.253245	-307.248943	-307.247999	-307.280943	18.428	
O	 0.0003017864	 1.447204556	-0.1166372682	-0.226078
C	 1.3469625609	 1.7943890524	 0.0352634531	 0.075675
C	 2.2778894604	 0.7210297846	-0.4975641878	-0.126148
C	 2.0681704228	 0.8793838589	 1.0075169466	-0.126125
C	 1.1512745742	-0.3596149491	 1.0105294225	-0.126148
C	 0.0636763525	 0.0582964696	 0.0383615569	 0.075675
C	 1.3620949399	-0.5187823786	-0.4943121223	-0.126125
H	 1.5523000607	 2.8527850065	-0.0473719793	 0.107852
H	 3.1461663325	 0.8981551581	-1.1158802925	 0.090891
H	 2.7416330699	 1.2035811709	 1.7878569556	 0.090895
H	 1.0397679887	-1.0958365	 1.7935600379	 0.090891
H	-0.8880686082	-0.4486592634	-0.0414622622	 0.107852
H	 1.4465982493	-1.402960116	-1.10967797	 0.090895
