17
gdb 63323	2.66355	1.52433	1.25733	3.1471	67.76	-0.244	-0.0299	0.2141	1037.425	0.134084	-458.970487	-458.962158	-458.961214	-459.003168	31.985	
C	 0.0853522593	 1.5394146214	-0.0060479877	-0.452602
C	-0.0053872735	 0.015921023	-0.0133387482	 0.340178
O	-1.3537948197	-0.4293266163	 0.1194767464	-0.474374
C	 0.676551208	-0.6521325446	-1.2376018195	-0.381552
C	 1.2073850168	-1.9968937989	-0.725224284	 0.424748
O	 1.3643597605	-3.0055128408	-1.3609924305	-0.314485
C	 1.4281371179	-1.8380991708	 0.7581948937	-0.088668
O	 2.1207938039	-0.6018554776	 1.0483590239	-0.255977
C	 0.7084521658	-0.624658922	 1.1783774937	 0.046061
H	 1.1292219226	 1.8644524564	 0.0214502639	 0.139364
H	-0.3758369771	 1.9610532232	-0.9069116367	 0.113411
H	-0.4336183871	 1.9453180648	 0.8673799508	 0.127007
H	-1.8795115976	-0.0049058338	-0.5667270846	 0.284136
H	-0.0206191862	-0.8083974276	-2.0631497232	 0.122858
H	 1.5180413439	-0.0572370163	-1.6065337604	 0.13809
H	 1.6485110867	-2.6851106413	 1.3984411634	 0.119222
H	 0.300973156	-0.5029042986	 2.178547479	 0.112582
