18
gdb 41244	2.94958	2.09698	1.68007	1.787	74.26	-0.2251	0.0597	0.2848	858.5709	0.150734	-401.851428	-401.845376	-401.844432	-401.881418	26.566	
C	 0.0078191871	 1.5272429936	-0.2273858084	-0.280163
C	 1.5566109017	 1.5279573748	 0.0896321874	-0.356493
C	 1.2609465594	 0.2677114596	 0.8972379796	 0.423174
O	 1.8749296376	-1.0308166139	 1.0948163052	-0.331599
C	 0.7542654018	-1.2502916073	 1.9656787034	 0.081883
C	-0.6846796927	-0.7743352689	 1.2692761395	-0.117548
N	-0.7922492595	 0.1731686583	 2.404844413	-0.302669
C	 0.6678923841	 0.2078567029	 2.3929241124	-0.106903
C	-0.0149713923	-0.0024119142	 0.1222683579	-0.000125
H	-0.551487592	 2.1569155612	 0.4692678718	 0.102167
H	-0.2811399052	 1.7910675313	-1.2453030127	 0.112401
H	 2.144837318	 1.3268997858	-0.8099766353	 0.121991
H	 1.9821047538	 2.3862304707	 0.6158341997	 0.104372
H	 0.8028585714	-2.135795179	 2.5937068017	 0.098015
H	-1.5222131456	-1.4490004402	 1.0977894313	 0.070317
H	-1.2619396045	 1.0474294428	 2.1751291616	 0.213325
H	 1.2277463201	 0.6697349236	 3.2058073162	 0.083022
H	 0.1744917767	-0.613705701	-0.7621298242	 0.084832
