20
gdb 113445	4.9353	0.80738	0.76404	2.1394	77.03	-0.2191	0.0702	0.2893	1538.8142	0.169213	-440.226983	-440.21761	-440.216666	-440.261576	34.411	
C	-0.1346279963	 1.4007049069	-0.02195445	-0.320662
N	 0.0882377949	-0.025798145	 0.0306930874	-0.072881
C	 1.1020549113	-0.6114523303	-0.8747165563	-0.251246
C	 1.5940308655	-1.4598874872	 0.3006221342	 0.41501
C	 0.7485760023	-0.5892011075	 1.2303926544	-0.252918
O	 1.5481574071	-2.8759155129	 0.3129170977	-0.295933
C	 2.8204870024	-2.2187315427	 0.5255821602	-0.077411
C	 3.837223343	-2.4638221249	-0.560610056	-0.079941
O	 4.3256185392	-3.792795153	-0.5187805646	-0.416809
H	 0.7884443004	 1.994305845	 0.1294973958	 0.088462
H	-0.5576601551	 1.6749013172	-0.9939272917	 0.124124
H	-0.8548904444	 1.6924631886	 0.749397308	 0.124453
H	 0.6924558747	-1.1525658634	-1.7341520026	 0.11701
H	 1.8576844988	 0.1103178798	-1.2273381339	 0.090151
H	 1.3519019335	 0.141517641	 1.7940240434	 0.090621
H	 0.0802010409	-1.1150710004	 1.9203100857	 0.118939
H	 3.196155773	-2.3166234869	 1.5455244758	 0.098933
H	 3.392385887	-2.2260517522	-1.5388527984	 0.093438
H	 4.7051708713	-1.8105875156	-0.4175177647	 0.112657
H	 3.5561211306	-4.3705109864	-0.5800587543	 0.294005
