17
gdb 47451	2.91437	1.35644	1.0043	2.7632	68.29	-0.2688	0.0019	0.2708	1166.7995	0.136441	-458.982624	-458.974543	-458.973599	-459.016349	29.19	
O	 0.0429187076	-0.0088935526	 0.0573680503	-0.329138
C	 0.0301608636	 1.1815423412	-0.0276386732	 0.419951
O	-1.1098020435	 1.9226631796	-0.0821299081	-0.218996
C	-0.7673350846	 3.3048063057	-0.1119711792	 0.025392
O	 0.6025144102	 3.4002120583	-0.4147452116	-0.255615
C	 1.2104290789	 2.1538548657	-0.0862500029	-0.065891
C	 1.9940161077	 2.1823625378	 1.2047988676	 0.011213
C	 3.1017980084	 1.1796657345	 1.4054531922	-0.253612
C	 3.4329293538	 2.6329224767	 1.1903617333	-0.278983
H	-1.3485098459	 3.7993243196	-0.8960001694	 0.132948
H	-1.002995671	 3.7431562825	 0.8693493815	 0.113576
H	 1.8696056038	 1.866187055	-0.9131823078	 0.117032
H	 1.4056263991	 2.4440523105	 2.0800180754	 0.091766
H	 3.2269762841	 0.757059764	 2.3952321672	 0.122171
H	 3.3011478199	 0.4822877917	 0.5993892275	 0.128001
H	 3.860422922	 2.9252091968	 0.2369324983	 0.120353
H	 3.789465016	 3.2135317729	 2.0332826888	 0.119833
