23
gdb 100158	2.97362	0.76501	0.72264	3.6685	83.87	-0.2442	-0.0139	0.2302	1689.3547	0.201219	-425.434823	-425.423417	-425.422473	-425.472136	40.413	
C	-0.0372364074	 1.33804675	 0.1534537718	-0.244013
O	 0.1003540199	-0.0530567138	-0.0288498668	-0.274854
C	 0.6796560031	-0.5199917563	-1.2560121365	 0.355279
C	-0.0939954967	-0.0066094055	-2.4817861428	-0.426517
C	 2.1598574139	-0.1151261619	-1.3466415592	-0.421821
C	 0.5894522489	-2.0557778032	-1.1385877717	-0.209288
C	-0.8395861225	-2.6015008742	-0.9803978044	-0.284716
C	-0.8368386683	-4.0464252798	-0.5451925508	 0.157995
O	-1.4033983124	-4.9456803226	-1.1115280723	-0.242931
H	 0.9236719275	 1.8694350008	 0.1115232444	 0.106968
H	-0.7191909497	 1.7960251251	-0.5760892152	 0.108372
H	-0.4601685949	 1.4769139663	 1.151889839	 0.128273
H	 0.0661538004	 1.0632948235	-2.6420258677	 0.11593
H	 0.2434647106	-0.525019821	-3.3844626975	 0.119743
H	-1.1679456173	-0.1774777857	-2.37022875	 0.126633
H	 2.6991420906	-0.440388109	-0.4521643944	 0.121257
H	 2.6296736783	-0.5764351957	-2.2207277514	 0.117511
H	 2.2789473769	 0.9674257644	-1.4468290374	 0.115354
H	 1.0672724578	-2.5070407367	-2.0152973057	 0.105041
H	 1.1823705403	-2.3506924722	-0.2639493624	 0.104484
H	-1.3367711935	-2.0167373542	-0.1952602232	 0.137045
H	-1.4239529011	-2.5203892497	-1.9002183639	 0.116112
H	-0.2455978044	-4.2394400086	 0.382321988	 0.068142
