20
gdb 8933	2.63222	1.39663	0.97815	1.6748	72.08	-0.2465	-0.02	0.2265	1208.5285	0.173704	-386.149654	-386.139498	-386.138554	-386.18507	35.508	
C	-0.1079057527	 1.555032045	-0.0412362863	-0.412847
C	 0.0376589292	 0.0277187896	-0.0245584262	 0.029753
C	 0.763596015	-0.4531653108	-1.2861161507	-0.089945
O	-0.0215072873	-0.094977221	-2.4129989451	-0.421471
C	 0.7569703618	-0.5015895069	 1.2402170148	-0.058769
C	 0.0995636298	-0.0317850327	 2.5528050576	-0.422753
C	 0.7522455648	-2.0192410443	 1.2498302353	 0.159146
O	 1.7236858538	-2.7235228195	 1.3499148889	-0.257367
H	 0.8645081205	 2.0428949562	 0.0983434331	 0.110125
H	-0.5103632323	 1.8729069942	-1.0052213992	 0.140555
H	-0.7807415738	 1.9127679368	 0.7418629207	 0.114576
H	-0.9692597299	-0.4141086522	-0.0538278485	 0.084826
H	 1.7633034618	 0.0104161139	-1.3303279519	 0.090257
H	 0.9142637684	-1.5431659596	-1.2461387446	 0.098589
H	 0.4561401135	-0.3508809384	-3.2070228473	 0.289492
H	 1.8070490728	-0.1849479801	 1.2291620208	 0.090282
H	-0.9520669377	-0.336825758	 2.6010203079	 0.122139
H	 0.6156093122	-0.4588162874	 3.4179134166	 0.130804
H	 0.1388045523	 1.055700197	 2.6434931912	 0.132749
H	-0.271518522	-2.463054082	 1.1801037228	 0.06986
