15
gdb 131268	3.15696	1.37183	1.00204	1.9839	68.08	-0.2075	-0.0427	0.1648	1116.4751	0.11325	-453.973012	-453.965152	-453.964208	-454.005804	29.137	
O	 0.509480471	 1.3439398209	 0.1595283334	-0.453788
C	 0.2369022028	 0.0213836836	 0.0756180483	 0.182099
C	 0.0076634856	-0.6802282145	-1.0916010678	-0.106722
N	-0.2481459374	-1.9609873313	-0.7114290833	-0.187554
N	-0.1900330945	-2.1448046231	 0.612401945	-0.282816
C	 0.0957232553	-0.9387480131	 1.1134357354	 0.229306
C	 0.169387232	-0.7863570647	 2.6038650393	-0.415752
C	 1.2248603539	 0.1263033423	 3.1705920024	 0.162565
O	 1.7993717062	 1.0098462613	 2.5746617671	-0.255164
H	 1.0394700269	 1.4697418341	 0.9668382443	 0.310402
H	 0.0139980535	-0.3656270793	-2.1217011306	 0.134839
H	-0.450723304	-2.7473201394	-1.303631704	 0.274805
H	-0.7779275697	-0.3924584077	 3.0163364899	 0.153639
H	 0.2786839207	-1.7758422363	 3.0620101153	 0.149768
H	 1.4356864478	-0.0334310727	 4.2490566354	 0.104374
