19
gdb 40901	3.60508	1.27465	1.23639	1.2424	74.68	-0.2224	0.0844	0.3068	1095.1346	0.160193	-422.982812	-422.974954	-422.97401	-423.016028	29.558	
C	 0.1845145176	 1.570465328	-0.1867713706	-0.210002
C	 1.6793646124	 1.4930519408	 0.249465479	-0.297994
C	 1.4252733689	 0.0576629348	 0.7248393321	 0.281509
C	 0.01505964	 0.0498695033	 0.1150406968	-0.31107
C	 2.3652381792	-1.1225161427	 0.8147315644	-0.018646
O	 3.7507926314	-0.8781731176	 0.8579163016	-0.26128
C	 3.9832689013	 0.038010199	 1.9141522289	 0.025967
O	 2.8570832333	 0.0259023312	 2.778118463	-0.260305
C	 1.7865314918	-0.5453729026	 2.0649566352	-0.015704
H	-0.418167906	 2.2053759342	 0.466065672	 0.108364
H	 0.004691103	 1.8716174267	-1.2206051057	 0.103751
H	 2.3881270585	 1.5570415936	-0.5814099198	 0.110295
H	 1.987259078	 2.1974853739	 1.0266501819	 0.111553
H	-0.801795092	-0.2188246675	 0.7912737962	 0.102181
H	-0.0658137924	-0.5683357357	-0.7846403915	 0.104166
H	 2.1232750195	-2.0893713542	 0.3883719273	 0.106327
H	 4.8734730206	-0.2717682172	 2.4740896365	 0.116145
H	 4.1312439217	 1.0496713739	 1.5068703508	 0.098094
H	 1.0555978932	-1.0191453319	 2.710418052	 0.106649
