17
gdb 56007	4.11551	0.96446	0.9264	3.2067	71.84	-0.2537	-0.0009	0.2528	1319.979	0.134657	-459.005822	-458.997034	-458.99609	-459.041053	30.779	
C	-0.2251290316	 1.3913418162	 0.3361526481	-0.479157
C	 0.0690937557	-0.0344387785	-0.063300347	 0.438392
O	 1.0990389508	-0.4235429545	-0.5485481067	-0.345351
O	-1.0038640508	-0.8249284811	 0.2017788323	-0.265369
C	-0.8529492785	-2.2458212899	-0.040522782	 0.188148
O	-0.4825241181	-2.90122355	 1.1412481198	-0.252999
C	-1.5916057144	-3.6321998974	 1.6658486449	-0.12201
C	-2.6352204023	-3.5704808324	 0.5882337408	-0.090936
C	-2.2040262313	-2.7954214421	-0.3994781361	-0.111915
H	 0.5975322461	 2.0340598982	 0.025004251	 0.14691
H	-1.1625982388	 1.726487546	-0.1151861508	 0.14676
H	-0.3484475926	 1.4485870354	 1.4218748167	 0.152914
H	-0.0588071363	-2.36100591	-0.7804877994	 0.122754
H	-1.2589075192	-4.65517708	 1.8850160367	 0.121184
H	-1.9421266965	-3.1876695733	 2.6096971742	 0.117212
H	-3.5863085715	-4.0828211153	 0.6521907318	 0.116544
H	-2.7185193907	-2.5305758113	-1.3126874544	 0.116919
