21
gdb 63215	2.07306	1.86548	1.36711	1.3947	83.17	-0.2417	0.0232	0.2649	1063.5238	0.18181	-387.089069	-387.080212	-387.079267	-387.122057	35.329	
C	 0.358567441	 1.5391728291	-0.2807478795	-0.436352
C	-0.0097634057	 0.0788867396	 0.0244393393	 0.268006
O	-1.4143682697	-0.0139256921	 0.27955236	-0.469536
C	 0.443844577	-0.839228708	-1.0979945268	-0.105214
C	 1.4869439944	-1.5892649127	-0.7554102899	-0.077285
C	 1.9222486283	-1.3360246616	 0.6674476169	-0.343031
C	 0.7675120989	-0.4988385942	 1.230673069	 0.337408
C	 0.8863676608	 0.2335704258	 2.5395368647	-0.32702
C	 0.0183279591	-0.995687329	 2.4401984001	-0.298089
H	 1.4402844222	 1.6575462181	-0.3901730589	 0.123581
H	-0.1066639287	 1.8682566223	-1.218786753	 0.100643
H	 0.0150972494	 2.197815561	 0.5226268356	 0.119958
H	-1.8671110379	 0.5436114319	-0.3612148225	 0.274766
H	-0.0377567461	-0.8196530929	-2.0704041127	 0.083986
H	 2.0011910715	-2.2870048206	-1.4075483566	 0.092915
H	 2.0837683539	-2.2616090734	 1.2331327362	 0.103964
H	 2.8782153913	-0.7916948215	 0.6906704049	 0.104723
H	 1.8275675085	 0.1662653828	 3.0763729462	 0.102817
H	 0.3871652637	 1.1918654677	 2.64089079	 0.108929
H	-1.054610802	-0.8562421307	 2.4527062577	 0.133698
H	 0.3690514	-1.9123966417	 2.903521589	 0.101135
