21
gdb 40313	2.89762	1.30626	1.05702	2.6369	81.48	-0.2319	0.0645	0.2964	1210.2226	0.184022	-383.197529	-383.188905	-383.187961	-383.231173	33.34	
C	-0.3136989084	 1.3571013816	-0.1097985673	-0.259
C	 1.1461830073	 1.0255662344	 0.0818574839	-0.302022
C	 0.1170495708	-0.0735592926	 0.1049670676	-0.050284
C	-0.2614381426	-0.8316360426	 1.3515248425	 0.282061
C	 0.8129137666	-1.4319113258	 2.1895773613	-0.268274
N	 0.0313974328	-0.2817550331	 2.6830079691	-0.362083
C	-1.6037208316	-1.5121764599	 1.2520746237	-0.030537
C	-2.3219808353	-1.9925201426	 2.4534387056	-0.252725
N	-2.8197942339	-0.8163717308	 1.7121253745	-0.327784
H	-0.8225075799	 1.8562595056	 0.7079705977	 0.116807
H	-0.6576921162	 1.6546071675	-1.0936604867	 0.119197
H	 1.809236091	 1.0784559532	-0.7743273088	 0.117994
H	 1.6180667666	 1.3309241072	 1.0112657652	 0.106794
H	 0.0935980957	-0.7017502824	-0.782289681	 0.092172
H	 0.6337973905	-2.3639414997	 2.7176824695	 0.11873
H	 1.8430851646	-1.2596997132	 1.8891882244	 0.11397
H	 0.5806697887	 0.5704962038	 2.6135865145	 0.230737
H	-1.7486189996	-2.0530534126	 0.3183385805	 0.083042
H	-2.95042012	-2.8762794341	 2.387529904	 0.109937
H	-1.855761182	-1.8187061281	 3.4182214314	 0.127585
H	-2.5240978951	 0.0121851842	 2.2268298685	 0.23368
