19
gdb 71161	2.62903	1.85614	1.47404	1.6159	78.57	-0.2249	0.0843	0.3092	971.9615	0.15844	-385.808866	-385.801219	-385.800275	-385.840462	31.194	
C	-0.0797316706	 1.5264793025	 0.0462006315	-0.522882
C	 0.1000068035	 0.0433968045	 0.1017536321	 0.309511
O	-1.1307570663	-0.7196019058	-0.1515166682	-0.325626
C	-0.5603628626	-1.7528386816	 0.6469342071	 0.091618
C	 0.9339030985	-1.8705435808	 0.2833888956	-0.24345
C	 0.4279118954	-0.8900837231	 1.3426623825	-0.189763
C	 1.1457397356	-0.7492591418	-0.7060386606	 0.42072
C	 1.4001761196	-0.7488481151	-2.1756649439	-0.332552
C	 2.45561712	-0.2318137595	-1.2084010148	-0.341929
H	 0.8574078617	 2.0389658315	 0.2826964567	 0.127053
H	-0.3989650207	 1.8305397141	-0.95678993	 0.133949
H	-0.8445783461	 1.8478473954	 0.7582540155	 0.134375
H	-1.1863870422	-2.5701213457	 0.9802019996	 0.106063
H	 1.5133476876	-2.7736182471	 0.4274617265	 0.089064
H	 0.6977628515	-0.7129817654	 2.3745398319	 0.098442
H	 1.5813436299	-1.6992919413	-2.6673108995	 0.112163
H	 0.8743103513	-0.0248049821	-2.7901804617	 0.112762
H	 2.638054574	 0.8384138505	-1.1839463574	 0.109397
H	 3.3449597398	-0.8336459291	-1.0503236728	 0.111084
