17
gdb 26504	3.67858	1.25624	1.04313	3.083	74.29	-0.2202	0.0275	0.2477	1147.7559	0.136944	-418.029325	-418.021317	-418.020373	-418.062226	30.213	
C	-0.3446148403	 1.2981687546	-0.8717839225	-0.467192
C	-0.0672062444	 0.0414759633	-0.0792877236	 0.306577
C	 1.1354705503	-0.7656010026	-0.370016992	-0.212289
O	 1.0828930445	 0.077557437	 0.7825374844	-0.276937
C	-1.2473712447	-0.6195526767	 0.5349775958	 0.238795
C	-1.3151035216	-1.2298871762	 1.7617585254	-0.186808
N	-2.6113112456	-1.6829498017	 1.8675867766	-0.235976
C	-3.2606944978	-1.3279282983	 0.7237813461	 0.008646
N	-2.4689788799	-0.6834890828	-0.1016273718	-0.322081
H	 0.5777614884	 1.6900166288	-1.3071725182	 0.115883
H	-1.0627314049	 1.0852646735	-1.6677686556	 0.14486
H	-0.7806235437	 2.0667267151	-0.2258699983	 0.126083
H	 1.1224273876	-1.8354028001	-0.1679103684	 0.107824
H	 1.8228905929	-0.4440442548	-1.1522910209	 0.109599
H	-0.5857837096	-1.3608987836	 2.5417793095	 0.144437
H	-3.0070702663	-2.1693899694	 2.6543251239	 0.268267
H	-4.3005423447	-1.563251176	 0.5525539497	 0.130313
