15
gdb 26892	3.16295	1.46956	1.00893	5.5772	76.17	-0.2013	-0.0361	0.1652	1107.4526	0.114335	-450.157542	-450.149343	-450.148398	-450.190272	30.904	
N	 0.0969212045	 1.3363015529	 0.025151149	-0.560287
C	-0.0069145243	-0.0046143158	 0.0048337132	 0.486787
C	-1.2051516614	-0.6884940031	 0.0221468284	 0.02338
N	-2.4210142995	 0.0683963562	 0.0151523292	-0.621436
C	-1.0852063689	-2.0956796197	 0.032198015	-0.01503
N	 0.0362413088	-2.766937056	 0.0206419712	-0.342328
C	 1.2163725613	-2.0634764134	 0.0009393285	 0.417192
N	 2.4003915042	-2.5121092364	-0.0149903227	-0.537212
O	 1.1597530657	-0.6397372149	-0.0051422207	-0.233125
H	 0.9840564834	 1.7612984144	-0.1843650271	 0.277415
H	-0.7600681401	 1.8480302763	-0.1131701104	 0.280127
H	-2.9400771466	-0.0332549015	 0.8821315751	 0.244876
H	-3.0384127589	-0.2161856553	-0.7383803052	 0.244124
H	-2.0030712197	-2.6880705939	 0.0444307149	 0.104666
H	 2.3462196015	-3.5291315498	-0.0098967185	 0.230852
