19
gdb 87051	2.38547	1.42702	1.01356	1.6284	82.25	-0.2552	0.0267	0.2819	1227.9742	0.156463	-385.827188	-385.817854	-385.81691	-385.86116	35.16	
C	 0.0934840125	 1.3160876518	-0.2580806576	-0.432258
C	 0.203836693	-0.136365127	 0.1176018048	 0.044367
O	 1.5216994587	-0.6828592011	 0.2356147714	-0.288023
C	 0.7110673033	-0.6200478878	 1.4259835263	 0.148099
C	 1.1395735316	 0.3328355011	 2.4258065369	 0.306302
C	 1.4699023816	 1.0958024302	 3.2943203318	-0.41356
C	 0.2702198361	-1.9502137985	 1.9783798647	-0.088111
C	 0.2923637984	-3.178586041	 1.1089891102	-0.277579
C	 1.2966729031	-3.0270154147	 2.2239042251	-0.255413
H	 0.7699341232	 1.9280306814	 0.3414996133	 0.141232
H	 0.3405450682	 1.4514646051	-1.3161577079	 0.12951
H	-0.9316786263	 1.6692083185	-0.1039033744	 0.124104
H	-0.496435899	-0.8075329722	-0.3829605429	 0.091845
H	 1.7720800691	 1.7738056451	 4.0539707436	 0.196058
H	-0.5313841696	-1.8662918464	 2.7059993548	 0.094804
H	-0.5117912252	-3.8965330574	 1.2238327331	 0.108379
H	 0.6657566716	-3.0626342823	 0.0983994241	 0.129919
H	 2.3199914611	-2.8099840399	 1.9388465075	 0.127881
H	 1.1924870584	-3.640091055	 3.1117122752	 0.112445
