5
gdb 184	5.71326	5.71279	5.71267	0.0003	15.93	-0.4286	0.1935	0.6221	279.3208	0.017147	-437.484875	-437.480956	-437.480011	-437.512059	12.639	
F	 0.0010921821	 0.0735451051	 0.0024996288	-0.063897
C	-0.0168887554	 1.3947684349	 0.009692655	 0.255845
F	 1.2227713731	 1.8522134169	 0.0003138912	-0.063938
F	-0.6559701536	 1.8325027456	-1.0609125843	-0.064034
F	-0.6354026161	 1.8208575876	 1.0969063093	-0.063976
