24
gdb 5990	3.82944	0.98058	0.96087	1.299	81.61	-0.2633	0.0717	0.335	1382.0187	0.220618	-351.415036	-351.40412	-351.403175	-351.450514	39.693	
C	 0.0219848673	 1.6345364228	 0.0825213485	-0.37564
C	-0.0073767446	 0.1055025847	-0.01222867	-0.186276
C	 0.7017953855	-0.5627331909	 1.1728530641	-0.183451
C	 0.7352172332	-2.1106979739	 1.1845720504	 0.256371
C	-0.6870895457	-2.6991111945	 1.2403611128	-0.40966
C	 1.4864114796	-2.6619197019	-0.0418716213	-0.409674
C	 1.494116674	-2.5240664167	 2.4589436197	-0.084548
O	 1.5625165557	-3.9418641576	 2.5338686489	-0.42774
H	 1.0509944983	 2.0110875961	 0.1001390905	 0.112016
H	-0.4870219303	 2.0972641437	-0.7688734361	 0.109438
H	-0.4715689169	 1.984803461	 0.9961266586	 0.112019
H	-1.0492380764	-0.2314790211	-0.0631769469	 0.099042
H	 0.4620539999	-0.2053869079	-0.9527667443	 0.099056
H	 1.7363936344	-0.1919208158	 1.2109034164	 0.084458
H	 0.2241351191	-0.2178033431	 2.1013995468	 0.084464
H	-1.2422327931	-2.5002688744	 0.3190774671	 0.107752
H	-0.6443212339	-3.7813906436	 1.3832340718	 0.130325
H	-1.2565544611	-2.2720854221	 2.0744246772	 0.100019
H	 2.4802743938	-2.2073826164	-0.1309303619	 0.100017
H	 1.6190841356	-3.7425298413	 0.0489992031	 0.130335
H	 0.9429775088	-2.4637824669	-0.9702640346	 0.107758
H	 2.5051365844	-2.0856409687	 2.4359129911	 0.078635
H	 0.9743072049	-2.1117412839	 3.339105677	 0.078637
H	 2.0384201075	-4.1780435274	 3.3345552809	 0.286647
