19
gdb 73076	2.29421	1.87195	1.37449	3.4384	80.98	-0.2313	-0.0433	0.188	1014.0604	0.160186	-385.923134	-385.915119	-385.914175	-385.955687	31.113	
C	-0.2152747484	 1.4823645814	 0.0551345879	-0.473315
C	 0.0478747664	-0.0135896644	 0.0061880368	 0.222272
C	-1.1828757297	-0.9411226523	 0.3197547927	-0.264735
C	-0.440785114	-1.527975131	 1.5491192212	-0.224812
C	 0.8320865218	-0.6987628526	 1.1635935375	-0.113298
C	 1.9120751493	-1.476356032	 0.4696653976	-0.069372
C	 1.888484305	-1.3365389142	-0.8633016089	-0.180751
C	 0.7853392731	-0.4333110348	-1.2720128775	 0.339794
O	 0.4936550062	-0.0940860468	-2.3974513053	-0.351026
H	 0.7213187899	 2.0505576418	 0.0738209007	 0.118493
H	-0.7720951976	 1.7873379102	-0.8363880388	 0.140996
H	-0.7963798132	 1.7568428309	 0.941536133	 0.108531
H	-2.0924437302	-0.3845658435	 0.5568348614	 0.109829
H	-1.4189156084	-1.658585488	-0.4690520933	 0.11433
H	-0.8710173042	-1.2255768805	 2.5062345184	 0.108118
H	-0.30664272	-2.6119232338	 1.5583633271	 0.104545
H	 1.2225373399	-0.0592128124	 1.9607433876	 0.081268
H	 2.6083492341	-2.1054330176	 1.016607241	 0.113679
H	 2.5522294502	-1.8028719504	-1.5805562292	 0.115454
