18
gdb 78622	2.52148	1.73585	1.36621	4.3418	75.29	-0.2441	0.0062	0.2503	1010.8005	0.146636	-401.920741	-401.912566	-401.911621	-401.953109	31.441	
C	 0.1052870566	 1.6047941354	-0.057094441	-0.431646
C	 0.0915368106	 0.084150097	 0.0089323165	-0.031952
C	 1.1098247199	-0.7414967491	-0.8428780145	-0.226982
C	 1.2120348921	-1.7363530036	 0.3731894363	-0.109072
N	 2.1905704694	-0.7659327043	 1.0445425136	-0.243792
C	 2.4361497789	-0.2358861037	-0.2941749129	 0.443136
O	 3.4305110839	 0.2513809948	-0.7316485367	-0.325665
C	 0.6824776363	-0.6639753274	 1.2235299794	 0.330006
C	 0.1730037078	-0.6717187682	 2.6297143052	-0.502834
H	 1.1046180553	 2.0113031308	 0.1269797801	 0.141017
H	-0.2212055451	 1.9546276335	-1.0420174426	 0.126373
H	-0.5748641689	 2.0307167282	 0.6879115108	 0.122695
H	-0.9185550699	-0.3041048925	-0.1640573454	 0.085757
H	 0.9512850846	-0.9572457911	-1.8959799262	 0.096244
H	 1.3393064984	-2.8054560136	 0.4588110722	 0.124446
H	 0.2902797107	 0.3144113681	 3.0906210735	 0.136225
H	-0.8902889519	-0.9337820553	 2.6481968699	 0.123871
H	 0.7228616214	-1.3953788489	 3.2362211018	 0.142173
