18
gdb 6190	3.74565	1.58955	1.48573	4.0797	67.89	-0.2434	0.0621	0.3055	935.0652	0.15512	-381.185268	-381.177325	-381.17638	-381.216989	30.748	
C	 0.1140165972	 1.4438266463	 0.0736466663	-0.416588
C	-0.0778652017	-0.0803840394	-0.0156291415	 0.285547
C	-1.5623881443	-0.4418526733	-0.0874770251	-0.424893
C	 0.7286155798	-0.673507892	-1.2067189303	-0.18872
N	 2.020137842	-0.9383290006	-0.595859743	-0.343111
C	 1.8884249587	-1.1378660998	 0.7738468738	 0.425385
O	 2.7382218567	-1.5486550566	 1.5314345258	-0.411348
N	 0.5874420951	-0.7694582285	 1.0966478269	-0.359251
H	 1.176920219	 1.7009271421	 0.0615798033	 0.135299
H	-0.3751254809	 1.9501586772	-0.7651323172	 0.116367
H	-0.3235269496	 1.8328571366	 0.9993761045	 0.113375
H	-2.0169610689	-0.0311747214	-0.9953750164	 0.118278
H	-1.695667687	-1.5266757783	-0.0879067126	 0.125148
H	-2.1066094506	-0.0311685464	 0.7696616638	 0.116353
H	 0.2444969082	-1.5884292589	-1.5781650694	 0.101774
H	 0.8047753451	 0.0375178598	-2.0349629553	 0.110953
H	 2.7208257113	-1.4857996514	-1.0695430461	 0.251453
H	 0.4308017	-0.4676258056	 2.0465599124	 0.243979
