17
gdb 43011	2.31524	2.0134	1.33734	2.4442	72.18	-0.2406	-0.0165	0.2241	968.2611	0.137312	-421.809686	-421.802556	-421.801612	-421.841192	28.566	
O	-0.0187947426	 0.3568656598	-1.1132174423	-0.341815
C	-0.0180791345	 1.2115172835	-0.2500712915	 0.398763
C	-1.2943325428	 1.7979327195	 0.2529015334	-0.175434
C	-1.643403708	 1.9001370029	 1.7437025306	-0.34006
C	-1.2405270131	 3.1246417094	 0.9884478826	 0.117666
O	-0.0322319099	 3.7887827152	 1.2052192224	-0.256423
C	 1.1869227205	 3.1574583345	 0.9539377386	 0.117666
C	 1.6440507481	 1.9445800567	 1.6969670568	-0.34006
C	 1.2556379361	 1.8324072679	 0.2166507195	-0.175434
H	-2.1216993939	 1.6096997339	-0.4217907487	 0.11634
H	-2.6931243821	 1.7836986636	 1.989969973	 0.13041
H	-0.9714145915	 1.470075068	 2.4726940308	 0.133385
H	-2.0098231386	 3.8558171429	 0.7641986925	 0.117431
H	 1.9294915406	 3.9090728609	 0.7081959392	 0.11743
H	 2.7031095964	 1.8566491455	 1.913256864	 0.13041
H	 1.0049196111	 1.4967941502	 2.4445969151	 0.133385
H	 2.0682787241	 1.6663446156	-0.4813576059	 0.11634
