15
gdb 130129	5.74459	0.99284	0.89596	2.2819	68.52	-0.2128	0.0055	0.2183	1251.5774	0.115067	-450.129425	-450.121726	-450.120781	-450.161947	28.616	
N	-0.6972393019	 1.2350373159	-0.4385826234	-0.585593
C	-0.1369003322	 0.0069343807	-0.1532831461	 0.388183
N	-0.4032227241	-0.6663221347	 0.9601444727	-0.292333
N	 0.3151740387	-1.8107020265	 0.761978222	-0.241584
C	 0.9492463831	-1.7678579474	-0.420520873	 0.376063
N	 0.6912764445	-0.6265830042	-1.0376033979	-0.381208
C	 1.8079234016	-2.8653982983	-0.9044246612	-0.041427
C	 2.9827996934	-3.3170821366	-0.1351790557	-0.168241
O	 1.7615653461	-4.057135724	-0.113380995	-0.23783
H	-0.1362226797	 1.7906722347	-1.0668867454	 0.258209
H	-0.9991328083	 1.7444756673	 0.3787725062	 0.257337
H	 0.261767276	-2.580149143	 1.408253528	 0.283836
H	 1.8052103989	-3.0108330252	-1.9824906963	 0.127388
H	 3.8092759804	-3.7953298156	-0.6577141738	 0.130617
H	 3.2378587834	-2.8057111931	 0.7908518789	 0.126582
