16
gdb 66785	3.446	2.05956	1.77522	1.1918	68.69	-0.2248	0.0658	0.2905	798.7098	0.126486	-400.65705	-400.651279	-400.650335	-400.686727	25.372	
O	 0.2824527325	 1.3035848729	 0.236952398	-0.479924
C	 0.1563638795	-0.0690721646	 0.1005715245	 0.393567
C	-1.191209057	-0.7885784193	 0.2114299332	-0.164084
C	-0.9821093762	-2.152766739	 0.8455799112	-0.099359
C	-1.1132204452	-2.02323058	-0.6509628872	-0.041019
N	 0.3612457912	-2.2189593434	-0.8652639969	-0.157906
C	 1.0254561166	-0.884923661	-0.8366180216	-0.121641
C	 1.2489740206	-0.9545604667	 0.6633788895	-0.138267
C	 0.5392461187	-2.3162305022	 0.6496199721	-0.026409
H	-0.0205812102	 1.7167967553	-0.579055997	 0.287668
H	-2.1127687736	-0.2407810576	 0.3559068205	 0.09151
H	-1.6305006319	-2.617146808	 1.5771122049	 0.091895
H	-1.8575855172	-2.3780677806	-1.3530465392	 0.091537
H	 1.6380220128	-0.499807464	-1.6440466456	 0.091638
H	 2.0724623483	-0.6001673086	 1.2697177334	 0.098466
H	 1.047954911	-3.2068752234	 1.0167748202	 0.082326
