16
gdb 133611	3.02768	1.22054	1.09228	1.3386	56.76	-0.2616	0.0725	0.3341	1097.6875	0.122225	-569.404112	-569.396135	-569.395191	-569.437796	29.028	
F	-0.2477781184	-0.0609525898	 0.2310208798	-0.086778
C	-0.0834503505	 1.2690276812	 0.1008767729	 0.266068
F	 1.2379683068	 1.500312679	 0.024597877	-0.082303
F	-0.6206416784	 1.6202070213	-1.0781961471	-0.079079
C	-0.7105312744	 2.0291261637	 1.2512032811	-0.147362
C	-2.2063196846	 1.6773280992	 1.44662157	-0.244654
C	-2.1805379032	 0.7991337888	 2.7050477424	-0.07958
O	-1.1332009995	 1.3389893119	 3.4961880443	-0.241981
C	-0.0656861968	 1.6477654305	 2.6164081219	-0.103414
H	-0.5733891508	 3.0885454301	 1.0262587854	 0.110923
H	-2.7777892573	 2.5890428119	 1.6338729035	 0.116827
H	-2.6399655668	 1.1770171529	 0.57863201	 0.123595
H	-3.1007344381	 0.8389533114	 3.2923591971	 0.113973
H	-1.9743206394	-0.2498484239	 2.4415094522	 0.102274
H	 0.6038228402	 0.7840909498	 2.4969533028	 0.113448
H	 0.5075143611	 2.4670788718	 3.0557584265	 0.118043
