19
gdb 92314	2.15874	1.89051	1.27507	4.0063	74.44	-0.2288	-0.0115	0.2173	1038.6891	0.160105	-423.044438	-423.036368	-423.035424	-423.077411	31.267	
O	 0.1561549736	 1.1525368689	-0.7587142807	-0.420175
C	 0.0724180304	-0.075680947	-0.0715054125	 0.129967
C	 0.1562217979	-0.0366699484	 1.4820323267	-0.276462
C	-1.247161326	-0.7054090234	 1.5710637166	-0.011038
C	-2.3744387565	 0.1609073826	 2.1732268612	-0.232062
C	-2.7267174851	 1.1842707167	 1.0797746897	-0.322792
C	-2.4605148551	 0.4492786603	-0.2364860509	 0.43
O	-3.029738673	 0.6297037283	-1.2801308302	-0.318783
C	-1.3864442275	-0.6134045287	 0.0183296528	-0.16856
H	 1.0738126301	 1.4433057128	-0.7546289972	 0.286517
H	 0.7483659512	-0.8212245809	-0.5104027183	 0.075319
H	 0.9812086943	-0.599602318	 1.925117182	 0.099703
H	 0.1820049301	 0.9858025743	 1.8712080884	 0.100788
H	-1.2275670733	-1.7119273504	 1.9909955629	 0.072344
H	-3.2482126312	-0.4665322175	 2.3838614738	 0.105863
H	-2.0734351456	 0.6248208424	 3.1176054384	 0.102396
H	-3.7475024623	 1.5682662756	 1.118362248	 0.121549
H	-2.0468946514	 2.0462430833	 1.1030017885	 0.135603
H	-1.5929926406	-1.5082626808	-0.5692269894	 0.089823
