16
gdb 23584	4.4659	1.25355	1.18912	0.644	71.84	-0.2432	0.0061	0.2492	1038.3	0.125643	-437.78875	-437.782025	-437.781081	-437.819866	27.269	
O	-0.1398152173	 1.3877783518	 0.0660711516	-0.396568
N	 0.0509209806	-0.0089228834	-0.0125855929	-0.302024
C	-1.0564060475	-0.6168173981	-0.0697362176	 0.474714
C	-2.5405674476	-0.3083280336	 0.005443378	-0.19635
C	-2.9980077033	-0.8724469536	-1.3664007385	-0.213742
C	-2.6016228569	-2.3234476133	-1.0152824784	 0.065004
O	-3.5004601964	-2.5990854268	 0.0988962769	-0.289524
C	-2.6587196479	-1.702240783	 0.8187267111	 0.10582
C	-1.3939177459	-2.0746250067	-0.0087360848	-0.171921
H	 0.7664700981	 1.7099001192	 0.1196206251	 0.306134
H	-2.9290448231	 0.6403996504	 0.360730997	 0.097114
H	-4.0733659103	-0.8028795594	-1.5406973889	 0.115667
H	-2.4499551195	-0.4362745497	-2.2044101423	 0.115401
H	-2.5948294446	-3.0979673995	-1.7799379613	 0.091744
H	-2.7540551065	-1.7010811893	 1.9018660423	 0.103043
H	-0.7067022219	-2.8826723449	 0.2228690126	 0.09549
