21
gdb 78556	2.51857	1.45633	1.1221	1.257	83.27	-0.2363	0.0807	0.317	1173.1833	0.18127	-387.043717	-387.034706	-387.033762	-387.076822	35.396	
C	-0.0257802339	 1.5565910761	 0.0078015682	-0.418631
C	 0.1272789023	 0.0509130719	-0.0402825963	-0.073415
C	 0.7169418464	-0.7452787187	-1.1954215841	-0.223073
C	 1.9221303842	-0.0418789337	-1.7889948402	 0.406774
C	 2.5624313228	-0.3733276102	-3.1022254358	-0.342506
C	 1.9591953917	 0.9967810188	-2.8740998969	-0.320554
C	 2.6355288357	-0.0322266458	-0.4194456318	-0.39231
C	 1.3967677606	-0.7276642012	 0.17340666	 0.377923
O	 1.4810575476	-1.7812060503	 1.0705542588	-0.461262
H	 0.8260764324	 2.0707042162	-0.4431836363	 0.128379
H	-0.9239869868	 1.8736516727	-0.5336528618	 0.11596
H	-0.1218061696	 1.909746171	 1.0410488106	 0.108583
H	-0.7121983952	-0.4899303568	 0.395643943	 0.084893
H	 0.1635181449	-1.5460173221	-1.6728104203	 0.087638
H	 3.6441577004	-0.4570327072	-3.1390897551	 0.109623
H	 2.0412478359	-1.0559307713	-3.7664392514	 0.111402
H	 1.0345763289	 1.2407969508	-3.3873068107	 0.110785
H	 2.6382489435	 1.8358361112	-2.7578765425	 0.108278
H	 3.50192692	-0.698669591	-0.4012871709	 0.1106
H	 2.9181421237	 0.9385889098	 0.003159889	 0.087735
H	 1.3920790644	-1.4269871902	 1.9620549744	 0.283179
