16
gdb 6598	5.72256	1.35489	1.33545	2.7311	66.6	-0.2474	-0.0393	0.2081	958.6052	0.127922	-383.686205	-383.678417	-383.677473	-383.718889	28.469	
C	-0.110364896	 1.4167045135	-0.1054034816	-0.50898
C	 0.0832265902	-0.0624962487	-0.0063654209	 0.398216
C	 0.7614736227	-1.0475250668	-0.998794225	-0.284938
C	 0.009363635	-1.854881099	 0.0864728494	 0.319112
C	 0.6087892795	-0.920041932	 1.1776048514	-0.283581
O	-1.1354151465	-0.9310342766	-0.036651756	-0.372218
C	-0.2749094069	-3.3185660698	 0.1781579713	 0.034959
O	 0.5648490607	-4.1690983544	 0.0299525229	-0.248982
H	 0.8569145363	 1.9273967029	-0.0695206388	 0.13085
H	-0.6047526272	 1.6753022111	-1.0464664096	 0.138146
H	-0.7261072931	 1.7792976807	 0.7229803506	 0.137129
H	 0.3128595418	-1.089687679	-1.9919360949	 0.11259
H	 1.8516866273	-1.1020934508	-1.0122285208	 0.108689
H	 1.6859932423	-0.9671555117	 1.3508982715	 0.10916
H	 0.0220291275	-0.8539182462	 2.0945903344	 0.112828
H	-1.3357657738	-3.5590051231	 0.4112719161	 0.09702
