15
gdb 42902	2.84593	1.55979	1.23319	2.802	65.07	-0.2505	-0.0418	0.2087	998.1948	0.111548	-457.69918	-457.691699	-457.690755	-457.731755	27.327	
O	-0.1554334952	 0.0237980899	-0.2009587677	-0.297598
C	-0.1235570128	 1.2053112003	-0.0324765008	 0.364726
C	-1.1614862708	 2.3259156205	-0.0204397835	-0.113256
O	-0.8270977583	 3.1238325968	 1.137134914	-0.230796
C	-0.0510325874	 3.3160108843	-0.0394870778	-0.073852
C	 1.0380556354	 2.2407162	 0.0098017287	 0.154241
C	 2.1797909826	 2.2571456734	 1.039157909	-0.125538
O	 3.1790864164	 2.2263014202	-0.0018676584	-0.270692
C	 2.1754735237	 2.124766269	-1.0278024123	-0.1411
H	-2.1783943058	 2.374728197	-0.3898052775	 0.131316
H	-0.0336901317	 4.2980810571	-0.4966397577	 0.130484
H	 2.2415528172	 3.1607547063	 1.6563335446	 0.117051
H	 2.2301413855	 1.3706318035	 1.6825646153	 0.121721
H	 2.211090678	 1.1608885321	-1.5500846538	 0.124012
H	 2.2383880432	 2.9407434498	-1.7587215919	 0.10928
