18
gdb 54324	2.4226	1.33527	0.98001	1.644	75.02	-0.2495	-0.0254	0.2241	1226.7435	0.144621	-439.088605	-439.079062	-439.078118	-439.12365	34.18	
C	-0.6865063702	 1.2777935995	 0.0372979566	-0.488389
C	-0.1591678558	-0.1395347203	 0.0916660776	 0.330911
O	 0.1213599941	-0.6968006595	 1.1311203949	-0.316377
C	-0.0168140077	-0.8751271251	-1.215383268	 0.28339
C	 0.980117404	-2.0173990661	-1.2882366732	-0.305084
C	-0.4850348243	-2.3148909755	-1.2309203989	-0.285477
O	-0.3026016387	-0.1414253781	-2.382871758	-0.229734
C	 0.7082993299	 0.5968293657	-2.9046510644	 0.101648
N	 0.4807841018	 1.3599035865	-3.8814998528	-0.437
H	 0.0235953119	 1.9357332684	-0.4761255329	 0.147122
H	-1.6147284519	 1.32036724	-0.5408629292	 0.158868
H	-0.847033064	 1.6379361788	 1.0535492492	 0.142389
H	 1.4891128281	-2.1562346543	-2.2349294367	 0.130717
H	 1.5704868794	-2.1844755705	-0.3952714329	 0.149074
H	-0.8955004707	-2.6942123947	-0.3031659721	 0.143491
H	-0.9777363411	-2.6305155726	-2.1428597121	 0.140259
H	 1.6686232118	 0.4354706173	-2.3991534059	 0.100416
H	 1.3393074232	 1.8280924105	-4.1644924811	 0.233776
