20
gdb 115993	1.81579	1.61561	0.89239	5.2139	86.28	-0.2068	-0.0276	0.1792	1311.9852	0.171644	-403.181937	-403.172804	-403.17186	-403.216091	33.675	
C	 0.9072561123	-0.3721780697	 1.3051553198	-0.387986
C	 0.1018406625	 0.0766464739	 0.0821889278	-0.191743
C	 0.7051759302	-0.3957526301	-1.2489668784	-0.089167
C	 0.7036086074	-1.9456246589	-1.4271416782	-0.18434
N	 0.3505210907	-2.140520969	-2.8449134303	-0.287793
C	-0.1999497179	-0.9902140701	-3.3284857243	-0.080356
C	-0.0396420785	 0.0689579746	-2.4962962314	 0.16775
C	-0.4167266486	 1.4178816493	-2.8238176176	 0.057373
O	-0.2323077677	 2.4012900968	-2.1251801863	-0.316403
H	 0.9579459233	-1.4643807269	 1.3849922824	 0.108333
H	 1.9356222695	 0.0038837301	 1.259618306	 0.116471
H	 0.4583887165	 0.0024628355	 2.2300685182	 0.115709
H	-0.9289311189	-0.294950082	 0.1557637648	 0.086088
H	 0.0391472296	 1.1674567086	 0.0498978332	 0.139546
H	 1.7396873546	-0.0260128747	-1.2974904898	 0.090288
H	 1.6664640467	-2.4105996072	-1.2018587658	 0.118911
H	-0.0561556144	-2.4053366437	-0.7782103516	 0.107012
H	 0.0183745869	-3.0377394117	-3.161802749	 0.250542
H	-0.6619311685	-0.9869131544	-4.3092421099	 0.133471
H	-0.9198524857	 1.5174288895	-3.8149437697	 0.046295
