17
gdb 47176	2.2424	1.70075	1.01034	2.4292	79.18	-0.2545	-0.0538	0.2007	1139.2005	0.138915	-418.061007	-418.053215	-418.05227	-418.093813	29.625	
N	-0.082447691	 1.3843810299	-0.214591263	-0.499732
C	-0.023816455	 0.1303650123	 0.0147442827	 0.37787
C	-1.3093803264	-0.6503615415	 0.0965262536	-0.260706
C	-1.5406903565	-1.3915190982	 1.4205591109	-0.271629
C	-0.6643726675	-2.5913555527	 1.6197351243	-0.069465
C	 0.5809454026	-2.7864634704	 1.1768316722	-0.114994
C	 1.5273666561	-1.8690438835	 0.5014739386	 0.376523
O	 2.6816129841	-2.2196163478	 0.3251006332	-0.357563
N	 1.1792585157	-0.5693213216	 0.1334726685	-0.392427
H	 0.8488139116	 1.8052006319	-0.2628905471	 0.206647
H	-2.1065531173	 0.0748102113	-0.0696210526	 0.138753
H	-1.3360007775	-1.3782444581	-0.7238699232	 0.124372
H	-1.4248404772	-0.6989700816	 2.2665184857	 0.13816
H	-2.5856762422	-1.7185187271	 1.4544084755	 0.121443
H	-1.1116956534	-3.4070567899	 2.1844802803	 0.112684
H	 1.0738861539	-3.730285362	 1.3854329066	 0.12088
H	 2.00641669	-0.062078121	-0.1570719059	 0.249184
