20
gdb 79883	2.33198	1.71505	1.36157	2.6577	78.55	-0.2056	0.0662	0.2718	1046.6882	0.171044	-403.061837	-403.053506	-403.052561	-403.094192	32.941	
C	-0.3918799	 1.4933360025	-0.0968849557	-0.440793
C	 0.0426153376	 0.0401165931	 0.0148225995	-0.069406
C	 1.3372494611	-0.68439033	-0.3389455029	-0.109051
N	 2.624803789	-0.1346222997	 0.1223181071	-0.113317
C	 2.846245038	 1.3541544421	 0.1474459157	-0.173563
C	 2.4352241856	 1.4154717819	 1.650042751	-0.273959
C	 2.1253789886	-0.1033689643	 1.533991186	-0.023518
C	 0.7744948282	-0.7014943106	 1.0954228502	 0.311033
O	 0.2075757286	-1.7584289035	 1.7905998523	-0.457318
H	 0.3166832111	 2.208553544	 0.3128977271	 0.127372
H	-0.5627038945	 1.756434006	-1.1468897448	 0.121953
H	-1.342198258	 1.6365625492	 0.4310311317	 0.111846
H	-0.758729344	-0.6191122068	-0.3279944482	 0.095681
H	 1.3349589044	-1.4496169299	-1.1088486666	 0.097122
H	 3.8945742036	 1.6005712255	-0.0439782853	 0.104455
H	 2.2291214185	 1.9193529973	-0.5542525615	 0.107141
H	 3.271520333	 1.626749571	 2.3199511218	 0.106863
H	 1.6075309634	 2.0720995931	 1.9217492294	 0.106435
H	 2.6357596554	-0.7711899973	 2.2353108565	 0.084709
H	-0.5924437497	-1.4437252536	 2.2239110767	 0.286314
