16
gdb 9210	7.03765	0.84172	0.80277	2.8593	63.14	-0.2644	-0.0355	0.2289	1404.8554	0.126811	-420.921812	-420.912499	-420.911555	-420.958526	30.485	
C	-0.3825163892	 1.3815100256	 0.0846410737	-0.373511
C	 0.2672309693	 0.0041952316	-0.021848936	-0.303579
C	 0.8925568884	-0.4534901838	 1.2770020511	 0.451761
O	 0.9230548104	 0.1707355613	 2.3048688835	-0.339905
O	 1.4339028552	-1.6939116773	 1.1276045665	-0.24959
C	 2.071172568	-2.2708048834	 2.2683423207	-0.174254
C	 1.3512192313	-3.5473119272	 2.6629447098	 0.145992
O	 1.8543546124	-4.4130831096	 3.3262665894	-0.227502
H	 0.3499898832	 2.1389379477	 0.3741418883	 0.135741
H	-0.8191040378	 1.6710165109	-0.874881382	 0.116634
H	-1.1729663141	 1.3850715578	 0.8392712035	 0.134585
H	-0.4543084666	-0.7615544109	-0.3300946227	 0.136313
H	 1.0517126633	-0.0137991488	-0.7878779415	 0.138377
H	 3.1130386259	-2.4911214556	 2.0209163578	 0.146344
H	 2.0401827459	-1.5640049901	 3.1054725215	 0.172383
H	 0.3024722243	-3.6073411784	 2.2938179165	 0.090211
