18
gdb 72360	2.60724	1.88115	1.45032	1.1269	75.99	-0.2311	0.0058	0.2369	953.343	0.150555	-398.153916	-398.146549	-398.145604	-398.185654	28.783	
C	-0.1152043284	 1.5934864895	-0.1516432361	-0.442064
C	-0.0147295735	 0.0732199313	-0.025643336	 0.297704
C	-1.402078777	-0.5846955107	 0.2377765528	-0.235476
N	-1.3809240212	-1.0897593945	 1.6237187306	-0.227528
C	-0.1982561331	-0.9340215382	 2.0634753258	 0.037326
N	 0.7263353046	-0.2903440734	 1.2219369987	-0.115486
C	 1.9266995422	-0.8973151026	 0.8119470461	 0.037325
N	 2.1192925448	-1.0292835324	-0.4377871034	-0.227528
C	 0.9047871958	-0.5447884966	-1.1208814025	-0.235473
H	 0.8788635111	 2.0487609178	-0.1988525377	 0.126574
H	-0.657850774	 1.8594920345	-1.0656432733	 0.121282
H	-0.6502219489	 2.0223553057	 0.7012930267	 0.126571
H	-2.2138489586	 0.1399195622	 0.1220963668	 0.118551
H	-1.6180384321	-1.4213289459	-0.439054035	 0.1152
H	 0.124881347	-1.2576908636	 3.0485058756	 0.134635
H	 2.6396865118	-1.2142591152	 1.5673682629	 0.134635
H	 0.4391069323	-1.3856976266	-1.650699049	 0.115201
H	 1.1784601272	 0.1986255687	-1.8757705631	 0.118551
