15
gdb 94259	2.20065	1.48474	1.32296	1.5859	68.82	-0.2542	-0.0599	0.1943	1041.918	0.109445	-457.702768	-457.694035	-457.693091	-457.736299	31.808	
O	 0.4428738998	 1.1003706958	-0.4409785033	-0.424217
C	 0.1850470088	-0.1260306214	 0.1436167675	 0.056394
C	-0.0891627739	-0.2596493791	 1.6613853305	-0.125986
O	-1.2051346596	-1.1572032054	 1.4085431898	-0.312308
C	-1.2238933208	-0.8062897087	-0.0095553279	 0.095937
C	-2.3994811043	 0.1710980929	-0.1279009583	 0.143521
O	-2.2874550662	 1.3734088244	-0.1426197431	-0.273686
C	-1.3813891784	-1.9300988493	-0.9037648656	 0.221902
C	-1.5327520815	-2.8335326914	-1.6828073921	-0.376734
H	-0.3494011495	 1.6457500341	-0.3212020197	 0.302918
H	 0.9645184992	-0.8187060821	-0.1805017772	 0.121206
H	 0.6748663817	-0.7401176969	 2.2780921632	 0.122949
H	-0.4150453438	 0.6773140824	 2.1291101157	 0.115566
H	-3.3925860037	-0.3201986698	-0.1124014217	 0.12332
H	-1.6524742578	-3.6398263455	-2.3646096576	 0.209217
