17
gdb 56441	2.27597	1.52515	0.96403	2.0973	74.35	-0.2654	-0.0142	0.2512	1200.1239	0.134792	-418.020251	-418.010961	-418.010017	-418.055621	32.533	
C	-1.1596375242	 1.4366302721	-0.5039235951	-0.38567
C	 0.2647803104	 0.9463462317	-0.1677743915	-0.280196
C	 0.2385927187	-0.2264998346	 0.7060273377	 0.304157
N	 0.2080409171	-1.1400537485	 1.4134705851	-0.337658
C	 1.0837394453	 0.7487883126	-1.4674405659	 0.41512
O	 1.0406215243	 1.5811812683	-2.3438385492	-0.338862
N	 1.7728183621	-0.4397275719	-1.5738599873	-0.083423
C	 2.8933222151	-0.8894371111	-0.7669034069	-0.226548
C	 3.0496564845	-0.5822804515	-2.2292832948	-0.229128
H	-1.0810788713	 2.2902906294	-1.1779023483	 0.156346
H	-1.7309184026	 0.6476500741	-0.9989324955	 0.144778
H	-1.686895554	 1.7309276458	 0.4057346306	 0.135753
H	 0.7818880528	 1.7473529766	 0.3780170279	 0.154078
H	 3.3202986673	-0.1858147171	-0.0569465082	 0.137863
H	 2.8409671643	-1.9165495864	-0.4206695794	 0.152004
H	 3.1256722545	-1.3984735597	-2.9411374438	 0.138237
H	 3.5600344756	 0.3340080202	-2.5129555652	 0.143147
