19
gdb 10184	3.09705	1.1482	0.87847	3.4228	73.14	-0.285	0.0193	0.3043	1337.342	0.163536	-365.072606	-365.062866	-365.061922	-365.107611	33.532	
C	-0.0252363145	 1.6365942941	-0.0178188636	-0.386592
C	 0.0277242619	 0.1074887372	 0.0284779916	-0.177056
C	 0.6673934912	-0.492946765	-1.2274797888	-0.185515
C	 0.7032046209	-2.0260334533	-1.1938468076	-0.026064
O	-0.6220131586	-2.502616776	-1.1780456337	-0.229445
C	-0.7395514214	-3.8937418057	-0.9357698016	-0.248477
C	 1.4491935459	-2.5620588331	-2.3583477624	 0.270409
N	 2.0243088667	-2.9862758542	-3.2665288311	-0.325372
H	 0.9778341189	 2.0684385632	-0.1057142737	 0.116742
H	-0.6121806035	 1.9863534581	-0.874013179	 0.120501
H	-0.4845006553	 2.0425450312	 0.8884011573	 0.117139
H	 0.5950348047	-0.2150396006	 0.9118768934	 0.09496
H	-0.9813999303	-0.3004933589	 0.1418745604	 0.121369
H	 0.1137759592	-0.1870387728	-2.1222947475	 0.125164
H	 1.6941141071	-0.1281237497	-1.3459481232	 0.116759
H	 1.239112492	-2.360232585	-0.2885907037	 0.108832
H	-0.2598995541	-4.4850207	-1.7271564736	 0.135563
H	-0.2951815007	-4.1702329701	 0.0318877773	 0.112451
H	-1.8072069502	-4.1198009692	-0.9168727505	 0.138634
