14
gdb 44044	3.50766	1.7505	1.5207	3.2157	66.57	-0.2474	-0.0385	0.2089	859.4169	0.100657	-436.521648	-436.515327	-436.514383	-436.552192	25.335	
O	-0.1105376315	 0.0815083245	-0.4447549493	-0.289006
C	-0.0028786223	 1.1927928779	-0.0627065475	 0.380041
O	-1.0387213494	 2.0502368252	 0.3849924567	-0.288096
C	-0.0288029276	 3.0123774065	 0.8449890538	 0.273294
C	 0.7274125337	 2.9318823689	 2.1522987182	-0.215835
N	 1.8548614258	 3.2256859981	 1.1549590183	-0.184193
C	 0.920927321	 4.1742522913	 0.329789764	-0.051083
C	 1.2051385266	 3.4574252252	-0.983928028	-0.277959
C	 1.0470811292	 2.3413568825	 0.060303105	 0.041338
H	 0.5867509253	 3.7251330391	 2.8898637577	 0.118864
H	 0.8281893555	 1.9519098401	 2.6270981705	 0.127844
H	 0.9048577466	 5.2373171185	 0.5788431977	 0.105175
H	 0.4289748649	 3.5156619888	-1.7490215374	 0.130478
H	 2.2047946324	 3.5861521934	-1.4026774197	 0.129139
