18
gdb 35639	2.12331	1.60413	1.38326	3.995	83.53	-0.227	-0.0372	0.1897	1054.8678	0.149963	-364.841664	-364.833576	-364.832632	-364.875101	30.423	
N	-0.21203988	-1.1448968438	-0.424225045	-0.328789
C	-0.1223465227	-0.0099439251	-0.2260674417	 0.288222
C	-0.0250137865	 1.437234101	-0.0043627681	-0.176403
C	-0.8401461317	 1.867308743	 1.2371403642	-0.26994
C	-0.4403945026	 1.2694344264	 2.5564073399	-0.068501
C	 0.7702098073	 0.8538761868	 2.9549894338	-0.0554
C	 2.0511053444	 0.8757579641	 2.25513537	-0.055462
C	 2.3583691869	 1.3166873929	 1.0270056968	-0.06842
C	 1.4486562863	 1.9050571873	-0.0141106961	-0.269951
H	-0.5064329083	 1.9078628244	-0.8708560495	 0.129217
H	-0.8014721067	 2.963872508	 1.295883487	 0.123267
H	-1.8915300758	 1.6219373381	 1.048958551	 0.1259
H	-1.2565692959	 1.169133579	 3.2676845045	 0.097309
H	 0.827097528	 0.4444455817	 3.9608886058	 0.091236
H	 2.8775538091	 0.4799411087	 2.8408128732	 0.091231
H	 3.4001254147	 1.2482522826	 0.7233765482	 0.097304
H	 1.8639730776	 1.6830132912	-1.0036887984	 0.125921
H	 1.4493743756	 3.0010722837	 0.0643432946	 0.123258
