21
gdb 62644	2.76446	1.68098	1.22388	1.2866	83.35	-0.2506	0.077	0.3276	1086.9438	0.181094	-387.026282	-387.017679	-387.016735	-387.058532	34.794	
C	-0.1323752493	 1.5870313002	-0.0373579312	-0.469275
C	-0.046384677	 0.0674564125	-0.0217219151	 0.416698
O	-1.3213107167	-0.5026825252	-0.2793094806	-0.481867
C	 1.1741644243	-0.6141969672	-0.6906412837	-0.155908
C	 2.0902719808	-0.2980028961	 0.5413736183	-0.057344
C	 2.5649549678	-1.7534762684	 0.6585630186	-0.316784
C	 1.0782523945	-1.8761815481	 0.2560227029	 0.362567
C	 0.2957310059	-3.1422149719	 0.0351615527	-0.521976
C	 0.680187205	-0.6286464007	 1.1415376434	-0.120276
H	 0.8260583674	 2.0551830944	 0.2013449454	 0.121089
H	-0.4358662343	 1.9465638096	-1.0294197866	 0.103404
H	-0.8786336675	 1.9317420436	 0.6855155609	 0.124199
H	-1.6710543104	-0.1011675969	-1.0817359563	 0.273677
H	 1.4823931393	-0.6151847616	-1.7393237692	 0.057553
H	 2.6552617976	 0.620106533	 0.7022602247	 0.068063
H	 3.3029813666	-2.0934189649	-0.076637423	 0.085246
H	 2.8330478928	-2.1071418919	 1.6605291099	 0.086245
H	 0.2923927344	-3.7574985552	 0.942559628	 0.11173
H	-0.7377206668	-2.918280264	-0.2354785311	 0.140247
H	 0.7469402999	-3.7406991547	-0.7652129241	 0.10905
H	 0.4138281056	-0.6454141966	 2.2005247861	 0.063663
