20
gdb 90507	2.65692	1.2431	1.01116	4.1821	82.7	-0.2672	0.0413	0.3085	1237.2636	0.171461	-365.999911	-365.991125	-365.990181	-366.03375	33.166	
C	 1.0371210712	 2.0923939953	 3.1071782199	-0.418242
C	 0.5164159184	 0.7255168693	 2.6748901226	 0.042544
C	-0.1588470747	 0.5078090184	 1.2761949188	-0.27136
C	 0.7446388546	-0.712084623	 1.0426450287	-0.092155
C	 2.1985746639	-0.343304168	 1.04767944	 0.008278
C	 2.7823027781	 0.8946896934	 0.3724713738	-0.384427
C	 4.0204118889	 1.3499631606	 1.0054629022	 0.272394
N	 4.998081325	 1.6971737818	 1.51470611	-0.315155
C	 1.4810035238	-0.4328055699	 2.3678829958	-0.080763
H	 1.7551707327	 2.5225400504	 2.4045700233	 0.122756
H	 0.2099684569	 2.8031328961	 3.2143452724	 0.115139
H	 1.540581812	 2.0221109535	 4.0773512736	 0.125168
H	-0.186799387	 0.3735689688	 3.4370016088	 0.083788
H	-1.2166815062	 0.2501896696	 1.3551583834	 0.108568
H	-0.0679625973	 1.3236594416	 0.550560294	 0.095902
H	 0.4061960414	-1.6598038259	 0.6409361718	 0.09125
H	 2.8393274459	-1.2105874335	 0.902476937	 0.105946
H	 2.9977938116	 0.6657296958	-0.6783231873	 0.150333
H	 2.0730468474	 1.7257843386	 0.3649941583	 0.150767
H	 1.8229218234	-1.1444887129	 3.1111254729	 0.089271
