21
gdb 91173	2.47977	1.80837	1.7326	0.3511	84.66	-0.2149	0.0191	0.234	960.3538	0.185999	-349.960552	-349.953368	-349.952424	-349.991654	30.36	
C	-0.4561518567	 1.5147060513	 0.0507452474	-0.396872
C	-0.0017737549	 0.0484039364	 0.0127643024	 0.018171
C	 0.7704605957	-0.3769574553	-1.2794999145	-0.216569
C	 2.2537483616	-0.545872636	-0.8489557632	-0.088698
C	 2.8846384128	 0.8340514324	-0.7244183479	-0.082996
C	 2.8405662815	 1.2693321293	 0.5353905106	-0.077483
C	 2.2891340535	 0.2222004974	 1.4458475323	-0.080995
C	 0.9098456545	-0.4002041318	 1.1636994499	-0.052603
C	 2.1560405371	-1.0365894837	 0.6182907534	-0.08517
H	 0.3848320357	 2.2044249292	-0.0445707987	 0.122119
H	-1.1583361969	 1.7233035474	-0.7641455353	 0.105118
H	-0.9697320543	 1.7354322144	 0.992928784	 0.10676
H	-0.9101298887	-0.5624620119	 0.082430641	 0.069722
H	 0.3847879122	-1.3367865528	-1.6416735842	 0.090835
H	 0.6522320639	 0.3461381653	-2.0935036173	 0.090523
H	 2.8022803651	-1.2198447347	-1.5130687139	 0.064091
H	 3.1806101238	 1.4184151338	-1.5887951907	 0.089327
H	 3.1372371348	 2.2537439388	 0.8792572089	 0.090292
H	 2.6224170845	 0.1792186638	 2.477837589	 0.077875
H	 0.426910089	-0.8311243533	 2.0356544398	 0.077486
H	 2.5347407957	-2.0026607701	 0.9289894767	 0.079068
