20
gdb 96285	2.049	1.70003	1.00086	2.2646	77.06	-0.2562	0.0207	0.2769	1204.9916	0.171702	-440.290618	-440.281842	-440.280897	-440.324242	33.097	
C	 0.0422520723	 1.52912836	 0.0420913775	-0.402711
C	-0.0569280258	 0.0112542149	-0.0531455093	 0.100392
C	 0.7491134703	-0.5250433387	-1.2387580073	-0.077562
O	 0.3247950226	-1.7731262263	-1.7474540508	-0.257669
C	-0.015530141	-2.7631104751	-0.7912135784	-0.083105
C	 0.8815724673	-2.7936057893	 0.4501798599	-0.291138
C	 0.5473931248	-1.7933228196	 1.5350379965	 0.365943
N	 0.4775588004	-2.1777573827	 2.7416307436	-0.489771
O	 0.4086299332	-0.4698627979	 1.224736137	-0.266584
H	 1.0899241841	 1.8442553072	 0.0829115784	 0.129881
H	-0.4310198997	 1.9981795884	-0.8247299376	 0.123607
H	-0.4552338525	 1.8819646849	 0.9480698776	 0.133851
H	-1.1084285707	-0.2818812763	-0.175820033	 0.098497
H	 0.653720914	 0.1725740327	-2.0766726539	 0.113557
H	 1.8118369066	-0.5443540032	-0.9483102562	 0.100399
H	-1.0683836814	-2.6590534343	-0.4847880685	 0.099435
H	 0.0701426497	-3.7166810868	-1.3204619806	 0.116909
H	 0.8116367977	-3.7747538164	 0.9227852687	 0.139018
H	 1.9251835746	-2.6624920413	 0.1379958684	 0.131231
H	 0.2636079135	-1.3796245002	 3.344257408	 0.21582
