21
gdb 74621	2.89235	1.42043	1.38112	0.4404	88.02	-0.2072	0.0276	0.2348	1099.12	0.183267	-349.943069	-349.934903	-349.933959	-349.975202	32.841	
C	 0.012884896	 1.5273818979	 0.0670987395	-0.500146
C	-0.0603688231	 0.0362342315	-0.0020169987	 0.319735
C	 0.0027857203	-0.7566479298	-1.0810782954	-0.186661
C	-0.0298115982	-2.1856575097	-0.6640228484	-0.123105
C	 0.9024428909	-2.6569003603	 0.489198195	-0.118174
C	 1.4197000464	-1.483810176	 1.3080221152	-0.227338
C	-0.0258375881	-0.8489321702	 1.2295637072	-0.201754
C	-0.533790409	-2.2591530511	 0.7536765242	 0.354028
C	-1.7169733975	-3.0262111937	 1.2585021398	-0.519881
H	 0.9102133282	 1.8633550172	 0.6037120831	 0.123754
H	 0.0326087379	 1.9752594679	-0.9305457531	 0.121353
H	-0.8453436817	 1.9442436007	 0.610236488	 0.120417
H	 0.1063235531	-0.4279361091	-2.1086941114	 0.084551
H	-0.3116051385	-2.9686041875	-1.3602541242	 0.074445
H	 1.3384382959	-3.6490798425	 0.4478740298	 0.078531
H	 1.6473087856	-1.8039644605	 2.3282934068	 0.098672
H	 2.2484261345	-0.8823083888	 0.9179440232	 0.08728
H	-0.419296985	-0.4214395612	 2.1528834286	 0.058426
H	-2.656021046	-2.5044472191	 1.037910315	 0.121476
H	-1.7674127655	-4.0144252784	 0.7886652986	 0.118453
H	-1.6678994061	-3.1775345674	 2.3435288271	 0.115937
