19
gdb 91484	2.49175	1.68615	1.25973	2.5541	74.92	-0.2552	-0.0388	0.2164	1048.5865	0.158899	-423.018222	-423.010014	-423.00907	-423.051061	31.459	
C	-0.1977485748	 1.4276983649	 0.0973244454	-0.425935
C	 0.0074952138	-0.0842450966	 0.0634462459	-0.003519
C	 0.9799375111	-0.5810652444	-1.0617903946	-0.239632
C	 2.0295499932	-1.2504347444	-0.1543933298	 0.074046
C	 1.1853437952	-2.0827156179	 0.8327376864	-0.271606
C	 0.8377319447	-0.6262308271	 1.259265263	 0.322799
O	 2.2050585274	-0.2504491942	 0.9043971464	-0.333117
C	 0.4449232585	-0.3230925728	 2.6726691894	 0.056264
O	-0.6992090049	-0.2330661767	 3.0421339396	-0.257045
H	 0.7627897673	 1.938822521	 0.2166801963	 0.127376
H	-0.653499689	 1.7777124091	-0.8343334604	 0.113471
H	-0.8534929925	 1.7185101891	 0.9232248412	 0.132154
H	-0.959721822	-0.5920183829	 0.0181508796	 0.087162
H	 0.5185334196	-1.2779708016	-1.7664212009	 0.102245
H	 1.4133754407	 0.2493703194	-1.624254934	 0.110929
H	 2.9649918956	-1.6047271486	-0.5867439569	 0.085024
H	 0.3828455502	-2.7221696951	 0.4585104757	 0.108703
H	 1.7997013358	-2.5917593429	 1.5761922055	 0.116759
H	 1.3041047299	-0.2191146982	 3.3713804821	 0.09392
