16
gdb 8117	3.28098	1.94103	1.52963	1.968	60.02	-0.2301	0.0565	0.2866	847.27	0.129628	-420.831717	-420.824028	-420.823084	-420.863113	29.899	
O	-0.0821604971	 1.4175379701	-0.0376752179	-0.441832
C	-0.1306448911	 0.0233647565	 0.00740939	 0.054124
C	-0.4711615166	-0.7792732801	 1.2378945026	-0.185386
C	-1.5634558282	-0.0736234225	 2.0279202135	 0.101498
O	-1.1291183906	 1.178536793	 2.5582366296	-0.435036
C	-2.496108168	-0.0559606357	 0.7689986488	-0.342636
C	-1.3936255472	-0.7821711915	-0.0081093767	 0.339689
O	-1.6228300912	-1.8394917424	-0.8686992369	-0.457605
H	-0.2832061226	 1.7342987904	 0.8543530077	 0.295536
H	 0.6616830185	-0.4318849035	-0.5846855419	 0.099761
H	 0.1903319683	-1.5405610218	 1.6329516313	 0.093284
H	-1.974010771	-0.6994199452	 2.8283228881	 0.0868
H	-1.892132604	 1.6339731713	 2.9295553936	 0.290984
H	-3.387776095	-0.670745789	 0.905997125	 0.109983
H	-2.7753489299	 0.9329574195	 0.3925024335	 0.100464
H	-1.6251371342	-1.4998331789	-1.7704451602	 0.290372
