21
gdb 70354	2.68059	1.66105	1.35231	1.7739	80.76	-0.2409	0.0734	0.3143	1050.6538	0.184405	-387.075195	-387.067373	-387.066429	-387.107252	31.456	
C	-0.1591124767	 1.4830384043	 0.0495761807	-0.499854
C	 0.0612971407	-0.0108772216	-0.0050657952	 0.364079
C	-0.7748569465	-0.9396516173	 0.8409115988	-0.328559
C	 0.6957425391	-0.8004258721	 1.1332890507	-0.07276
C	 1.6598934572	-1.8480826743	 0.5801086796	-0.259867
C	 1.5473122084	-1.7769660482	-0.9582147296	-0.064983
C	 0.5279247289	-2.6704324674	-1.6949084609	-0.089546
O	-0.3392512153	-1.5502479769	-1.9689808157	-0.290635
C	 0.5663777753	-0.6258166362	-1.3074989326	 0.042256
H	 0.7394680842	 2.0338374975	-0.2534223463	 0.112867
H	-0.9757319585	 1.7896014149	-0.6144573078	 0.124077
H	-0.4192304756	 1.8065491386	 1.0624870127	 0.113497
H	-1.4649168669	-0.4770214132	 1.5393194378	 0.104998
H	-1.1517385945	-1.8476991068	 0.3836297966	 0.123329
H	 0.97683196	-0.2915109106	 2.0501711087	 0.078764
H	 2.6809797129	-1.6070688701	 0.8938950735	 0.100815
H	 1.4459875976	-2.855542451	 0.9573156502	 0.101531
H	 2.5250066025	-1.7378929095	-1.4405312817	 0.078449
H	 0.8936197546	-3.1321745134	-2.6204509042	 0.098543
H	 0.0346849312	-3.4404459608	-1.0865046339	 0.095304
H	 0.9085584016	 0.1449539343	-2.0075436513	 0.067696
