18
gdb 73434	2.96022	1.95742	1.43918	1.5907	73.45	-0.2151	0.0633	0.2784	920.4022	0.149599	-401.873656	-401.866746	-401.865802	-401.904564	28.812	
O	-0.125683455	 1.3228251686	-0.091778467	-0.476926
C	 0.0260654552	-0.0712161326	-0.0405478141	 0.405448
C	 1.2029386637	-0.6169749768	-0.8114628681	-0.295245
C	 1.4281404273	-2.1066713366	-0.4907333917	-0.240194
C	 0.2159235133	-2.7525124027	 0.1380486631	-0.011626
C	-1.1807052284	-2.2670923206	 0.0344703399	-0.071533
C	-1.3187348317	-0.7390397393	-0.0357679732	-0.129042
C	-0.5039532611	-0.687549001	 1.2388853011	-0.10353
N	-0.4383136802	-2.1988684437	 1.3506261631	-0.173477
H	 0.6086080598	 1.7160360932	 0.3936979165	 0.282414
H	 1.0186246262	-0.4618789897	-1.8805201145	 0.11113
H	 2.0992799528	-0.0356227326	-0.5631302996	 0.090948
H	 1.7025856776	-2.6602390942	-1.3947742322	 0.10914
H	 2.2650089776	-2.2260426963	 0.2078904492	 0.112361
H	 0.3015743382	-3.832947468	 0.242203721	 0.095306
H	-2.0275005127	-2.9360219342	-0.0866373326	 0.095497
H	-2.2210277962	-0.2059374154	-0.3010205987	 0.101446
H	-0.6470835964	-0.113500138	 2.1459990979	 0.097883
