15
gdb 11879	4.91648	1.5607	1.34446	4.2727	61.01	-0.265	0.01	0.275	899.5279	0.120303	-399.814812	-399.808075	-399.80713	-399.846026	25.399	
O	-0.1819123466	 0.040137076	 0.5546079127	-0.331722
C	-0.1336075652	 1.2085721477	 0.3086286686	 0.440466
C	-1.2026898944	 2.0825973756	-0.347044798	-0.458043
C	-0.7216349813	 3.4910306401	-0.0680074673	 0.300772
C	-1.3453560474	 4.7206939355	-0.5971995999	-0.298795
N	-1.4355271074	 4.3966324905	 0.8413417926	-0.34034
C	 0.7746861022	 3.3336751925	 0.1671231253	-0.122574
O	 0.9593320717	 1.9707327063	 0.5862397327	-0.21786
H	-1.2175043015	 1.8521725815	-1.4190155705	 0.147475
H	-2.1894274626	 1.8451254794	 0.0559635164	 0.140936
H	-0.7337527253	 5.5885953446	-0.8312637957	 0.125911
H	-2.2321450501	 4.615378759	-1.2173822352	 0.120327
H	-2.3583951475	 4.0270266675	 1.058751175	 0.234581
H	 1.3600985888	 3.4988181607	-0.7453287809	 0.117452
H	 1.1330818866	 3.9948921129	 0.9580052042	 0.141413
