18
gdb 96858	2.37714	1.3054	0.9458	2.0842	81.45	-0.251	0.0228	0.2737	1286.7836	0.144937	-401.913808	-401.904074	-401.90313	-401.948897	34.615	
C	-0.0133988336	 1.4516622203	 0.2501927514	-0.340365
N	-0.0284318212	-0.0039773223	 0.2969980719	-0.324145
C	-1.0605095067	-0.6163035331	-0.0408992171	 0.471423
O	-2.2895635624	-0.1604039832	-0.4816615209	-0.278337
C	-2.7988889963	-1.5229508372	-0.6617945946	 0.139563
C	-3.1772495519	-1.8062428207	-2.0954506241	-0.404243
C	-1.4488441455	-2.0923031406	-0.1086226872	-0.383131
C	-0.6586272174	-2.9702984921	-0.9440536505	 0.356764
C	-0.0133625453	-3.7057837576	-1.641609677	-0.459048
H	 0.8116899235	 1.7778108714	-0.3921029138	 0.130209
H	-0.944668317	 1.8991610255	-0.1161478992	 0.126036
H	 0.1914395099	 1.8388295717	 1.2543164726	 0.128853
H	-3.6404928621	-1.6852919831	 0.0180901384	 0.097694
H	-2.3248446648	-1.6567614769	-2.7625177405	 0.139866
H	-3.5162242217	-2.8418695063	-2.1971339154	 0.130921
H	-3.9905808688	-1.1435626964	-2.405064089	 0.131127
H	-1.5618390644	-2.5174801471	 0.89368687	 0.133572
H	 0.5696979756	-4.3488141823	-2.2534931949	 0.203242
