20
gdb 109620	2.68174	1.04909	0.979	1.1062	83.4	-0.226	0.0399	0.2659	1330.1679	0.167082	-403.071683	-403.061005	-403.060061	-403.107208	38.685	
C	-0.5523267878	 0.6364974049	-2.0901277878	-0.314706
N	-0.1216653381	-0.3281742345	-1.0869075333	-0.113785
C	 1.2817902838	-0.452030306	-0.7244292969	-0.067332
C	 2.3854327718	 0.3691194724	-1.3564328804	-0.092361
O	 2.6364481019	-0.0299332625	-2.6987225592	-0.413928
C	 0.2820574858	 0.1067031083	 0.2649602333	 0.05447
C	 0.2963604097	 1.5722866556	 0.6819009079	-0.465522
C	-0.1743121613	-0.7671765696	 1.32530517	 0.305135
C	-0.5371496533	-1.466550442	 2.2336530632	-0.425084
H	-0.0599930276	 1.6173754808	-2.0588725713	 0.102314
H	-0.3636301445	 0.2044872963	-3.0765159373	 0.138665
H	-1.6295135362	 0.7940383955	-1.9804065593	 0.125297
H	 1.5806149813	-1.4900884698	-0.561107337	 0.087847
H	 2.1360653344	 1.4297436557	-1.4130487703	 0.110156
H	 3.2914761882	 0.2818814127	-0.7361612372	 0.097917
H	 2.8501044454	-0.9690733208	-2.6924105577	 0.285273
H	 0.6513750774	 2.2389778672	-0.1040064017	 0.122474
H	-0.7122790785	 1.8874598221	 0.965960803	 0.135559
H	 0.9417483852	 1.701787996	 1.5554204176	 0.135711
H	-0.8652871676	-2.0963042026	 3.0230031744	 0.191901
