19
gdb 15160	7.34008	0.70286	0.67735	1.5488	81.28	-0.2415	0.0532	0.2947	1712.4732	0.164901	-327.876502	-327.867214	-327.86627	-327.913144	32.284	
C	-0.3997354857	 1.2789181727	-0.056197402	-0.363781
C	 0.6330409222	 0.1518116495	 0.1266112267	-0.31257
C	 1.1734054103	-0.3410814265	-1.1363920936	 0.093293
C	 1.6067999222	-0.7291468728	-2.1911367174	 0.044556
C	 2.1218788829	-1.2295702478	-3.4636667805	-0.387445
C	 1.7100850008	-2.6650068719	-3.7557705077	 0.051798
C	 2.606806718	-3.5439972452	-4.5438560659	-0.249266
N	 2.3972109925	-3.7853076135	-3.1035288207	-0.306246
H	 0.0476545213	 2.1371229428	-0.5650715665	 0.126488
H	-1.2466236512	 0.9355655108	-0.6565390001	 0.127481
H	-0.7778026469	 1.6122599517	 0.9149483361	 0.113341
H	 1.4549802655	 0.5082168191	 0.7609689184	 0.126561
H	 0.1725018316	-0.681076593	 0.6734690606	 0.130098
H	 1.773553437	-0.5844310232	-4.2822158126	 0.131687
H	 3.2192184568	-1.163940533	-3.4754928397	 0.117131
H	 0.6349698291	-2.8094814944	-3.8375341051	 0.100229
H	 2.1949397925	-4.3044335703	-5.2011811118	 0.118992
H	 3.558508825	-3.1324040695	-4.8725623752	 0.107992
H	 3.1933640461	-3.4384691552	-2.5727883431	 0.229662
