17
gdb 5304	4.42948	1.39518	1.38046	2.1004	69.81	-0.2352	0.0077	0.2429	985.0918	0.142912	-363.90563	-363.897853	-363.896909	-363.938086	28.361	
C	 0.0084461823	 1.5541685725	 0.0260471077	-0.38604
C	 0.0449440033	 0.0140769688	-0.0050234857	-0.093284
C	 0.7661346978	-0.5015184841	-1.2652555299	-0.386149
C	 0.6522397468	-0.543655423	 1.2391810999	 0.364324
C	 0.2200660237	-1.3357329455	 2.251322724	-0.215512
N	 1.2478604719	-1.5346149055	 3.1690316852	-0.256726
C	 2.234972535	-0.8651371598	 2.6764963955	 0.068655
O	 1.9649944506	-0.2329801604	 1.5096827872	-0.187221
H	 1.0221488705	 1.963974993	 0.0706486591	 0.129294
H	-0.4756812451	 1.9430838821	-0.8750804633	 0.114451
H	-0.5427173634	 1.9193022286	 0.8973562299	 0.121487
H	-0.9878300862	-0.3547608753	-0.0237206716	 0.093801
H	 1.8120602766	-0.1797388595	-1.2708118895	 0.129392
H	 0.7481716822	-1.5941357304	-1.311996391	 0.12148
H	 0.2855501621	-0.1104143077	-2.1673676778	 0.114429
H	-0.7542582427	-1.7777158829	 2.3879278287	 0.120999
H	 3.2320205645	-0.747857811	 3.0712218116	 0.14662
