17
gdb 74947	3.57024	1.44761	1.22316	1.1544	73.71	-0.2196	0.0133	0.2329	1033.991	0.139432	-418.048906	-418.041745	-418.040801	-418.080519	28.504	
N	-0.0277122864	 1.4052448108	 0.0727350638	-0.575124
C	-0.0746883103	 0.0387914369	-0.001913989	 0.460659
N	-1.1128530485	-0.691936918	 0.1291972924	-0.354078
C	-0.682426106	-2.0719204795	-0.1052992652	-0.010712
C	-1.373124219	-2.7300431938	-1.3297184505	-0.264524
C	-0.302066258	-2.7357176651	-2.3901918451	-0.0527
C	 0.8828215667	-2.3212539242	-1.9442563801	-0.093802
C	 0.8293749621	-1.9443173268	-0.4904766505	 0.041224
O	 1.1264482731	-0.5356366768	-0.2788259208	-0.265152
H	 0.8693371259	 1.7907957822	 0.3234386943	 0.260929
H	-0.8146234197	 1.8156660431	 0.5505156804	 0.266013
H	-0.8447884226	-2.667754455	 0.7991537136	 0.074539
H	-1.7138286753	-3.7496097089	-1.1066822334	 0.10356
H	-2.2583461409	-2.158484668	-1.6268177598	 0.123505
H	-0.4974429419	-3.0636301588	-3.4061393446	 0.098834
H	 1.7934922166	-2.2477558005	-2.5270849133	 0.099358
H	 1.5283383441	-2.5041719779	 0.1372751577	 0.087469
