20
gdb 18239	3.9555	1.50644	1.27202	0.2259	80.85	-0.2168	0.0296	0.2464	1047.7536	0.17843	-311.877202	-311.869478	-311.868534	-311.90931	30.029	
C	-0.2268626431	 1.5221411975	-0.050187537	-0.372778
C	 0.1033280243	 0.0200132868	 0.0128679581	-0.293644
C	 0.7967094009	-0.4885600612	-1.2175428396	 0.354327
C	 2.0362810812	-0.9876558617	-1.2967778517	-0.198586
C	 2.4258300449	-1.3806270461	-2.7059925898	-0.264786
C	 1.1425554636	-1.150075062	-3.5042488335	-0.03128
C	-0.0864611788	-1.9291143056	-3.114875647	-0.27846
C	 0.1258973459	-0.5336928766	-2.5579439484	-0.128945
H	 0.6843172273	 2.1165973622	-0.1691831272	 0.11995
H	-0.887800714	 1.7527106661	-0.8916976557	 0.118409
H	-0.7297871509	 1.8482565487	 0.8654629704	 0.111648
H	 0.7310697521	-0.1763760878	 0.8892036051	 0.099311
H	-0.83062167	-0.5394011716	 0.1630195143	 0.102967
H	 2.6995298063	-1.1269414053	-0.4492693346	 0.080592
H	 3.2482933777	-0.7565767379	-3.0828020068	 0.102299
H	 2.7773607296	-2.4191882266	-2.7686485553	 0.104109
H	 1.2189925788	-0.812044497	-4.53093202	 0.081297
H	-0.848539294	-2.0561004449	-3.8772925106	 0.104767
H	 0.0146506445	-2.7663596684	-2.4309039831	 0.108255
H	-0.5486838164	 0.2589689814	-2.8631594975	 0.080548
