16
gdb 96659	4.32836	0.8537	0.7171	0.7796	80.56	-0.2267	-0.0487	0.178	1519.5672	0.122554	-434.071523	-434.061778	-434.060834	-434.106437	34.749	
C	-0.508386173	 1.6948312797	 0.6966290741	-0.336868
N	-0.7700720959	 0.2766122984	 0.5604236996	-0.33751
C	 0.2383904794	-0.5063648911	 0.559751297	 0.476836
N	 1.56289038	-0.2054232872	 0.693000762	-0.566093
N	-0.0659392742	-1.8832787731	 0.4558303018	-0.388267
C	 0.7846385794	-2.942595624	 0.3019968475	 0.313165
O	 2.0041813005	-2.8663376035	 0.2532336019	-0.37802
C	 0.0906466193	-4.2154955207	 0.1994833888	 0.207531
C	-0.4593067158	-5.2804408089	 0.1098325925	-0.37144
H	 0.0792480342	 2.1029646958	-0.1435339032	 0.104346
H	-1.4571298038	 2.2366934381	 0.7163207391	 0.125827
H	 0.034150902	 1.9391887514	 1.6240798687	 0.113001
H	 1.8352814015	 0.7470617564	 0.5233951187	 0.259745
H	 2.2251895573	-0.9448105074	 0.4930079886	 0.285087
H	-1.0608865207	-2.0554758674	 0.4455026183	 0.275518
H	-0.9347255402	-6.2279605965	 0.0303753245	 0.217142
