22
gdb 104295	2.75484	1.32711	1.16226	1.7701	80.75	-0.2358	0.0673	0.3031	1168.7266	0.195559	-404.336213	-404.327333	-404.326389	-404.369215	35.164	
C	-0.514958299	 1.6321884537	 0.1780178248	-0.463468
C	 0.0125872246	 0.1983919928	 0.0423110918	 0.292358
C	-1.1516470959	-0.7955081392	-0.151055628	-0.096832
O	-1.9032151645	-0.5752265717	-1.3343374766	-0.424076
C	 1.0446177364	 0.0634368048	-1.1162190609	-0.254345
C	 2.0498739851	-1.0326645382	-0.6851547818	-0.220473
C	 2.0240245025	-0.9787082002	 0.8306654765	-0.026163
N	 2.1372957987	 0.4005820141	 1.3604312914	-0.350162
C	 0.8101662709	-0.2469334338	 1.2652162595	-0.07256
H	 0.3060468134	 2.3089373679	 0.4292182165	 0.137694
H	-0.9611618276	 1.9869757877	-0.7583111439	 0.106209
H	-1.2736439943	 1.7102912091	 0.9668101679	 0.101332
H	-0.7616210808	-1.8152972846	-0.23885466	 0.107008
H	-1.8028059603	-0.773428371	 0.7388384778	 0.079892
H	-2.3379196784	 0.2792086882	-1.2534432394	 0.28439
H	 0.5414076742	-0.1672806272	-2.0579130367	 0.108223
H	 1.5710728446	 1.0118930196	-1.2419664527	 0.108043
H	 1.723619484	-2.0266309994	-1.0136808306	 0.099771
H	 3.0486326861	-0.8639095203	-1.0999361972	 0.101339
H	 2.440187944	-1.7935495453	 1.4151745464	 0.080718
H	 2.4562036333	 0.3586854302	 2.3252671208	 0.228018
H	 0.2846339231	-0.4967946371	 2.1833802644	 0.073084
