18
gdb 81281	2.79189	1.62409	1.31384	3.8432	77.92	-0.2156	-0.0511	0.1645	1020.6846	0.148925	-401.935666	-401.928194	-401.92725	-401.967263	29.781	
C	-0.1597739143	 1.4264870495	-0.0098220331	-0.326453
N	 0.036366291	-0.0172352485	-0.000012458	-0.107746
C	 1.2251346986	-0.4937273413	-0.8111253171	-0.045074
C	 2.1389840007	-0.3206990211	 0.4399090296	-0.248847
C	 0.8000785923	-0.5214475229	 1.2030456662	-0.11141
C	 0.4768879504	-2.0186955498	 1.3044980443	 0.428447
O	 0.1565495652	-2.5664789557	 2.3359038809	-0.344829
C	 0.6296908727	-2.7131077038	-0.0021471467	-0.169565
C	 1.0173045463	-1.9722835181	-1.0492107484	-0.036642
H	 0.7425479202	 2.0293653831	 0.193588048	 0.094303
H	-0.5518575665	 1.7246659705	-0.987745448	 0.123952
H	-0.9122018327	 1.683038071	 0.7427667818	 0.13037
H	 1.4371346269	 0.0727927503	-1.7200168002	 0.074083
H	 2.9460620624	-1.0413021316	 0.5886078335	 0.113063
H	 2.5241208595	 0.6945715339	 0.5494266349	 0.114877
H	 0.6186242605	-0.0137835995	 2.1518202705	 0.085048
H	 0.4427564426	-3.7804089486	-0.0420173538	 0.112784
H	 1.1912546041	-2.3947024675	-2.0336581943	 0.113638
