18
gdb 8488	2.92164	1.98265	1.51072	1.963	68.49	-0.2231	0.0742	0.2973	918.4079	0.151345	-384.904936	-384.89647	-384.895526	-384.937146	32.061	
C	-0.0878958339	 1.5374061267	-0.0517449911	-0.417654
C	 0.1085097308	 0.0384671821	 0.0305055328	 0.101012
O	 1.2054826183	-0.4588913921	-0.7984622167	-0.34359
C	 1.7367516514	-1.2131585077	 0.3032251947	 0.42244
C	 2.2659922168	-2.5810618366	 0.0297811755	-0.489376
C	 2.1958647735	-0.2574400135	 1.3800036613	-0.410137
C	 0.7298993777	-0.6293097989	 1.2598736159	 0.242189
O	 0.0072386525	-1.2448680592	 2.2633109201	-0.457736
H	 0.8063356471	 2.0783876641	 0.2698382224	 0.119798
H	-0.3154108539	 1.8356150065	-1.0800234411	 0.130013
H	-0.9288778154	 1.8418239743	 0.5811680977	 0.116314
H	-0.813991471	-0.4899105959	-0.2454940075	 0.086141
H	 3.1727411928	-2.5318442756	-0.5834237897	 0.129983
H	 2.5160258721	-3.0858627507	 0.9671235566	 0.128145
H	 1.5249707051	-3.1834716134	-0.5045251146	 0.130472
H	 2.6868100708	-0.7346162769	 2.2235695908	 0.113271
H	 2.5679817859	 0.7297106877	 1.1199793864	 0.110207
H	-0.0166451205	-0.6573662711	 3.0265622664	 0.288509
