18
gdb 41924	2.36797	2.22025	1.83608	1.3033	69.82	-0.2213	0.0789	0.3001	856.9324	0.151547	-439.060025	-439.053349	-439.052405	-439.091102	26.766	
C	 0.0735789856	 1.4913568344	 0.2952242286	-0.099588
O	 1.1491374816	 2.1767612784	-0.335435003	-0.270848
C	 2.1887372885	 1.3894293168	-0.877006125	 0.183157
C	 2.341576565	 0.0482548856	-0.1613545452	-0.193869
N	 1.1278320644	-0.7742022188	-0.2752600883	-0.127948
C	-0.086260788	 0.0434806168	-0.1151277805	-0.043376
C	 0.3027816469	-0.457764367	-1.4609682657	-0.057203
C	 0.8173929552	 0.4457734282	-2.5727265263	-0.099561
O	 2.0024380841	 1.1645026479	-2.2562676891	-0.253831
H	 0.2067824742	 1.530864706	 1.388115966	 0.105939
H	-0.8406340096	 2.0514451481	 0.063367646	 0.116624
H	 3.0980773617	 1.9937284139	-0.8141760019	 0.095353
H	 3.1822587725	-0.4929287171	-0.6050058983	 0.119263
H	 2.556551464	 0.2000538541	 0.902344622	 0.112434
H	-0.9011582233	-0.4587637095	 0.4055045793	 0.092376
H	-0.2466617016	-1.3189480718	-1.8368255902	 0.096928
H	 1.05906575	-0.166804348	-3.4478657103	 0.116299
H	 0.0237476388	 1.146604912	-2.8732150881	 0.107852
