21
gdb 119796	4.85682	0.84534	0.7741	1.1303	85.77	-0.216	0.0283	0.2443	1542.8766	0.182728	-387.07749	-387.068632	-387.067687	-387.111588	33.185	
C	 0.0280481387	 1.3969713761	 0.0365590991	-0.222762
O	-0.0217951057	-0.0075951957	-0.0044149554	-0.226631
C	 0.6506661579	-0.6111062797	 1.0753525432	-0.153431
C	 0.5621682492	-2.0990344681	 0.980131659	 0.268656
C	-0.0239874485	-2.8137878854	 0.0147670902	-0.16346
C	 0.16606219	-4.2792269755	 0.2135958627	-0.066896
C	 1.6070351427	-4.7523542808	 0.1624397521	-0.274976
C	 0.98408207	-4.4033538283	 1.4892821276	-0.036958
C	 1.1891323162	-2.9917316327	 2.038859074	-0.322531
H	 1.0635146176	 1.7719857303	-0.003937482	 0.102778
H	-0.5156603136	 1.7692896334	-0.8350430948	 0.127142
H	-0.4442833079	 1.7979237576	 0.9478487847	 0.103061
H	 1.7114347223	-0.2942884751	 1.0949428875	 0.090017
H	 0.2213180199	-0.2693148982	 2.0374341181	 0.088754
H	-0.5391909429	-2.3858058418	-0.8353823613	 0.103041
H	-0.6251246274	-4.9752445812	-0.043071901	 0.082223
H	 1.7865286277	-5.8051833027	-0.0315831821	 0.105271
H	 2.3418123758	-4.0796908053	-0.269267005	 0.107805
H	 0.802911206	-5.2104119094	 2.18908384	 0.082179
H	 2.2493601041	-2.7564232196	 2.205116146	 0.104327
H	 0.6918179378	-2.8629192582	 3.0109110074	 0.102391
