23
gdb 102618	1.86906	1.01887	0.75125	1.179	82.54	-0.2424	-0.0075	0.2349	1627.0102	0.202235	-425.452674	-425.441159	-425.440215	-425.490631	40.383	
C	-0.0133493145	 1.6331683642	 0.1440565711	-0.391779
C	 0.0419678496	 0.1068677421	 0.0131634406	-0.185495
C	-1.3301745343	-0.5869420764	-0.0873637468	 0.015768
C	-2.048226984	-0.2642893499	-1.4058900045	-0.081848
O	-3.3348735827	-0.8645109242	-1.5016695331	-0.419321
C	-1.2069523882	-2.1054081564	 0.0847371879	-0.316406
C	-0.9797618172	-2.56610674	 1.5178771161	 0.382088
C	-0.6048348519	-4.0274141263	 1.6961114131	-0.473747
O	-1.1023344734	-1.821758009	 2.4654171581	-0.302465
H	 0.9911804338	 2.0468458999	 0.2770947362	 0.113589
H	-0.4474445936	 2.1137774655	-0.7380985664	 0.11622
H	-0.6103576702	 1.9287552105	 1.0136473167	 0.121845
H	 0.6485228769	-0.1686288943	-0.8615559589	 0.088156
H	 0.5620997231	-0.2972856669	 0.8880811638	 0.11083
H	-1.9517524044	-0.2164286659	 0.7399174787	 0.082659
H	-2.1168777598	 0.8231646526	-1.5470522371	 0.091088
H	-1.4761831423	-0.6644847492	-2.2519657074	 0.10569
H	-3.8908661465	-0.4708029918	-0.8212110669	 0.282639
H	-2.1323297047	-2.5846015412	-0.2640682118	 0.137406
H	-0.4105827248	-2.5146197742	-0.5528097993	 0.105982
H	-1.2915583778	-4.6778689045	 1.143932286	 0.136225
H	 0.3965868015	-4.2035486707	 1.2858027339	 0.14035
H	-0.6109280044	-4.2880110839	 2.75516961	 0.140527
