18
gdb 37297	3.15169	1.78351	1.67875	2.7973	73.9	-0.2133	0.0644	0.2777	887.1604	0.150029	-401.829717	-401.823352	-401.822408	-401.860153	26.951	
C	 0.0157909801	 1.5674854458	 0.1684602785	-0.076485
O	 1.4673383884	 1.5512145918	 0.1292767655	-0.284903
C	 1.4955638347	 0.1248319193	 0.0311168094	 0.105801
C	-0.0570341584	 0.0321091855	 0.007614648	-0.10951
C	 0.0091038229	-0.6612878271	-1.4002654906	-0.031624
C	-0.0027853835	 0.0654665238	-2.7687250626	-0.082467
N	 0.6340213021	 1.3903991076	-2.6218573008	-0.316219
C	 1.4932300817	 0.1927066726	-2.7389612572	-0.059235
C	 1.5627058593	-0.5531260653	-1.3874078643	-0.052158
H	-0.3354342162	 1.9090521288	 1.1507970356	 0.08827
H	-0.4115970752	 2.1824546327	-0.6227382743	 0.120269
H	 2.1344866848	-0.3336099803	 0.7936017585	 0.070521
H	-0.6323425282	-0.5096086824	 0.7585166705	 0.073481
H	-0.4506218768	-1.6496370966	-1.435305436	 0.072448
H	-0.6705287603	-0.1324088627	-3.5988845924	 0.091636
H	 0.6211980257	 1.826300941	-3.5433479797	 0.229384
H	 2.2129930805	 0.1238010271	-3.5457043414	 0.093592
H	 2.1611185484	-1.4648217918	-1.4317901968	 0.0672
