17
gdb 130032	3.08019	1.32513	1.00263	4.4595	70.15	-0.2148	0.0304	0.2451	1159.8284	0.138905	-451.348188	-451.339893	-451.338948	-451.381414	30.851	
N	 0.5983576377	 1.371435272	 0.0739120251	-0.611645
C	 0.2468006757	 0.0396809959	 0.0266466082	 0.403214
N	-0.9737996257	-0.4571904875	 0.1531593631	-0.338969
C	-0.7510575076	-1.8004257223	 0.0915969766	 0.031337
N	 0.5021631705	-2.1707689891	-0.0678449398	-0.269655
N	 1.1551238512	-0.9595390558	-0.1027312051	-0.015813
C	 2.6009786936	-0.9123379803	-0.1762168546	-0.16215
C	 3.1499738926	-0.3928708821	-1.5078077641	-0.085067
O	 2.9745517728	 1.0139746523	-1.680642531	-0.403419
H	 1.2999273086	 1.6191779538	-0.6168158396	 0.262843
H	-0.2193979339	 1.96387196	 0.0349442143	 0.261702
H	-1.5473329399	-2.527209595	 0.1617703312	 0.118191
H	 2.9857026139	-0.2940994302	 0.6458454638	 0.119729
H	 2.9393803459	-1.9384364799	-0.0162517771	 0.145823
H	 4.2128070827	-0.6597135414	-1.5853446287	 0.107872
H	 2.6201858738	-0.8712532271	-2.3361646448	 0.141841
H	 3.6348756981	 1.462367317	-1.1416984273	 0.294166
