16
gdb 44625	4.30309	1.40698	1.34465	3.436	68.17	-0.2407	0.0144	0.2551	954.087	0.127408	-437.890672	-437.884394	-437.88345	-437.921121	25.938	
O	 0.0163493429	 0.0336149491	-0.1245187272	-0.37281
C	 0.0240546311	 1.2308569848	 0.014184365	 0.412823
N	-1.0661715149	 2.0899142787	 0.143232362	-0.331214
C	-0.4698738979	 3.4220489128	 0.0851591058	-0.041818
C	 0.7214871353	 3.3467003823	-0.9406895522	-0.085342
C	 1.588574334	 4.5353781779	-0.5542792866	-0.100843
O	 1.5405000318	 4.4441415623	 0.8881074202	-0.275568
C	 0.7174686113	 3.315592465	 1.0873457324	 0.132437
C	 1.1866759459	 2.2152063291	 0.0646718764	-0.19418
H	-1.9420757618	 1.8703312904	-0.3070761272	 0.252786
H	-1.1761000026	 4.2502664782	 0.1133921155	 0.091358
H	 0.5594249522	 3.1360654818	-1.9979254898	 0.087946
H	 2.6256897377	 4.4600042549	-0.8999802744	 0.115522
H	 1.1740285758	 5.4967901624	-0.8802120411	 0.111242
H	 0.5730609031	 3.1127143581	 2.1471326868	 0.103784
H	 2.194541276	 1.8075908422	 0.0663764044	 0.093878
