16
gdb 75692	2.23216	1.98229	1.17524	1.2271	68.76	-0.2517	-0.0453	0.2064	1020.2027	0.123583	-437.909755	-437.901725	-437.900781	-437.942766	29.601	
C	-0.3513116451	 1.5699129995	-0.000709676	-0.397374
C	 0.0809010343	 0.1085907059	-0.0112301175	-0.219929
C	 0.902657247	-0.3694385294	-1.211471311	 0.384475
O	 0.7446253368	-0.0629661531	-2.3635091748	-0.309387
C	 1.8975916826	-1.3706131936	-0.6751778037	-0.146597
C	 3.0044532506	-0.8453040992	 0.176465288	-0.244671
N	 1.7965656239	-1.4102298577	 0.7977953126	-0.123804
C	 0.8899684379	-0.3605304533	 1.1977769943	 0.363513
O	 0.8246422443	 0.0612680469	 2.3167876532	-0.300995
H	 0.516443587	 2.2345580937	 0.0347155505	 0.12923
H	-0.9191146959	 1.7984045186	-0.9054600746	 0.141295
H	-0.9687961753	 1.7757997049	 0.8760250524	 0.143599
H	-0.8102285887	-0.5418516782	-0.0320965979	 0.154598
H	 2.0210643832	-2.3111268433	-1.2013826011	 0.132708
H	 3.903679654	-1.4416665137	 0.2915004966	 0.149252
H	 3.1573883634	 0.2295378519	 0.2376883591	 0.144088
