21
gdb 58869	2.5786	1.41604	1.08864	1.8612	77.9	-0.2457	0.075	0.3207	1196.2392	0.1808	-424.198407	-424.188962	-424.188017	-424.232516	35.853	
C	-0.1289402434	 1.5596301021	 0.2474521898	-0.396962
C	 0.0094928784	 0.043348872	 0.0160101484	-0.109707
C	 0.7991674206	-0.633025581	 1.1435068976	-0.395822
C	-1.3510712228	-0.5679698771	-0.1687015272	 0.414268
O	-2.2083435109	-0.7149591936	 0.986562971	-0.310859
C	-1.9617100619	-1.8705236365	 0.1590818361	-0.057122
C	-2.9517869644	-1.7916740184	-1.0017248687	-0.291198
C	-2.3449736662	-0.3741038576	-1.3392413462	 0.073603
O	-3.1797475803	 0.7485018005	-1.2603272861	-0.432983
H	 0.8544899346	 2.0386595248	 0.2759512265	 0.10951
H	-0.7218370881	 2.0301646724	-0.5419304773	 0.133298
H	-0.6289549583	 1.7542825785	 1.2021455292	 0.12616
H	 0.5487173405	-0.1087819018	-0.9298135863	 0.079866
H	 0.965936586	-1.6945138064	 0.9346423227	 0.11016
H	 1.7766086193	-0.1568191805	 1.2662829695	 0.111867
H	 0.2572622613	-0.5542047225	 2.0903478295	 0.133832
H	-1.5389616199	-2.738390056	 0.6514573983	 0.10642
H	-2.7724980493	-2.5268470542	-1.7902807424	 0.107583
H	-4.0077643052	-1.8007391896	-0.720326861	 0.108421
H	-1.8624783207	-0.3502588082	-2.3197848409	 0.091854
H	-3.4955127693	 0.7742290531	-0.3473714226	 0.287812
