15
gdb 44538	3.64746	1.58298	1.50806	5.7868	65.2	-0.2411	0.056	0.2971	898.8727	0.114989	-453.907672	-453.901325	-453.900381	-453.938511	25.484	
N	-0.0746560769	 0.954246148	 0.6830483973	-0.574116
C	-0.0085978953	-0.1016353228	 0.0090769055	 0.513759
O	 1.1363095576	-0.7207383424	-0.432799105	-0.255727
C	 0.7978693383	-1.9319619967	-1.0806699114	 0.060511
C	 0.7974476431	-3.2187982041	-0.2342544348	-0.080694
N	 0.0543697887	-2.8932043254	 0.9952942798	-0.32239
C	-0.7051919196	-3.2359861873	-0.2193987443	-0.079809
C	-0.7515240849	-1.9524840652	-1.0697959986	 0.071768
O	-1.1228899885	-0.7512140967	-0.4274587044	-0.230431
H	 0.8609203825	 1.2922681569	 0.8938700136	 0.230444
H	 1.3065977806	-2.0034150223	-2.0424278723	 0.103512
H	 1.5062756778	-4.0354023335	-0.2738583809	 0.106414
H	 0.0682348997	-3.7146132497	 1.5968538921	 0.244031
H	-1.3950297473	-4.0691951058	-0.2438052233	 0.107284
H	-1.2697862058	-2.045686933	-2.0245460034	 0.105443
