17
gdb 70647	2.47405	1.63605	1.18219	5.6393	72.25	-0.2463	0.025	0.2713	1061.7794	0.136236	-418.001718	-417.993496	-417.992551	-418.034467	30.874	
C	-0.3974862567	 1.3422134288	 0.0192780262	-0.495715
C	 0.0772754488	-0.0802584403	 0.0853539289	 0.414768
O	-0.5801111681	-0.9573761726	 1.0005404107	-0.272265
C	 0.822192668	-0.7191377498	 1.1767562478	-0.022576
C	 1.7005640463	-1.8096709383	 0.6054389575	-0.197706
N	 1.1247905267	-2.0419866619	-0.7241180223	-0.306626
C	 0.5102113595	-0.8024402818	-1.2016849919	-0.192415
C	-0.6054831296	-1.0728584029	-2.1211422268	 0.306571
N	-1.4748943641	-1.2451760297	-2.8619460015	-0.326968
H	 0.3574022878	 1.9884302336	-0.4404533	 0.1268
H	-1.3132994523	 1.4128712829	-0.5766402805	 0.153893
H	-0.6136459284	 1.712166879	 1.0238360846	 0.139986
H	 1.1090715937	-0.1960705139	 2.084738352	 0.105213
H	 2.7416964771	-1.4438935279	 0.5935953166	 0.095576
H	 1.6728324068	-2.7328568222	 1.1951264384	 0.126445
H	 1.7754760319	-2.4390943621	-1.3877565574	 0.237546
H	 1.2051828423	-0.1239138709	-1.7286579522	 0.107472
