19
gdb 113364	1.91998	1.30922	0.97683	2.4676	73.79	-0.2476	-0.0236	0.224	1289.1741	0.156078	-460.140435	-460.130314	-460.12937	-460.175882	35.612	
C	 0.3370274428	 1.0616551611	-0.0244760945	-0.243744
O	-0.3153467565	-0.1149143463	 0.4251781089	-0.227775
C	 0.4286310715	-0.8388132726	 1.3353833065	 0.102528
C	 0.0411433396	-2.2407611478	 1.5749919646	-0.365352
C	 1.35763179	-1.9778270895	 0.8327092151	 0.154088
C	 1.4422209275	-2.295829412	-0.6417515715	-0.157746
O	 1.6527689808	-3.6804878521	-0.885786351	-0.420168
C	 2.5979056165	-2.1425423362	 1.6286524046	 0.092593
O	 2.6466972606	-2.069502442	 2.8363405529	-0.280541
H	 1.2618040172	 0.8281437196	-0.5697223392	 0.116261
H	-0.3564164843	 1.573332097	-0.6944432137	 0.13682
H	 0.5831366946	 1.7261278373	 0.8155248203	 0.121008
H	 0.8324318473	-0.2698084507	 2.1731755824	 0.114917
H	 0.1303586632	-2.6273780792	 2.5837180171	 0.146368
H	-0.779635256	-2.6261541833	 0.9786380853	 0.127083
H	 0.5461871236	-1.9199784822	-1.1528525474	 0.106188
H	 2.3096075577	-1.7948202601	-1.0870921583	 0.111345
H	 0.9254221143	-4.1618208281	-0.4771222633	 0.283333
H	 3.5168663596	-2.3147636628	 1.0267316912	 0.082797
