23
gdb 82887	2.37718	1.89091	1.4152	0.2145	88.74	-0.2585	0.0875	0.346	1053.3388	0.207718	-351.136008	-351.127967	-351.127023	-351.167862	33.37	
C	-0.2198162873	 1.6049375442	-0.0313961029	-0.438539
C	 0.0427077513	 0.103904336	-0.0049519966	-0.003749
C	 1.1165366707	-0.5870116579	-0.8988445308	-0.067072
C	 2.4127101305	 0.1438631026	-0.4987625008	-0.213562
C	 2.3764970044	-0.3288669654	 0.9702699808	-0.07859
C	 2.5538381693	-1.8603529964	 0.7820576234	-0.248173
C	 1.1514059799	-1.769465758	 0.1676808458	-0.063743
C	 0.8015220644	-0.5903592734	 1.1427250236	 0.36155
C	 0.2427861596	-0.7450338536	 2.5352097572	-0.513947
H	 0.6688267893	 2.1942201338	 0.2114925614	 0.115569
H	-0.5754193606	 1.9270043421	-1.0170857884	 0.112928
H	-0.9932914838	 1.8715807715	 0.6975408945	 0.113211
H	-0.9094156139	-0.4288408764	-0.1331459973	 0.061072
H	 0.9342080878	-0.7737106011	-1.957510391	 0.052143
H	 3.3014529037	-0.2187141345	-1.0241654489	 0.088139
H	 2.3565716742	 1.2253288597	-0.6381343233	 0.089863
H	 2.9476812738	 0.2275875844	 1.713975912	 0.053698
H	 3.397547479	-2.2041630654	 0.1744762076	 0.084098
H	 2.5355256765	-2.4143273238	 1.724612382	 0.09391
H	 0.4918198546	-2.6217455962	 0.0027325538	 0.057915
H	 0.8574402569	-1.4098680186	 3.1522823009	 0.115566
H	 0.1952997368	 0.222434585	 3.0499285718	 0.115735
H	-0.772688807	-1.1568576786	 2.5119795754	 0.111977
