18
gdb 113342	2.53412	1.04915	0.84539	3.6855	73.96	-0.2528	0.0156	0.2685	1379.1006	0.147852	-435.234004	-435.224208	-435.223263	-435.269313	34.883	
N	-0.1715756306	 1.3952799057	-0.6188813244	-0.501493
C	-0.0002376904	 0.1698012134	 0.1548129219	-0.229189
C	-1.3351158115	-0.5546866367	 0.2276121545	 0.158117
N	-1.7398350746	-1.2807486404	-1.0020661922	-0.372186
C	-1.5015740903	-2.04743464	 0.2284707088	-0.077342
C	-0.3696929398	-3.0504594007	 0.1824005277	-0.079159
O	-0.7743916476	-4.2148191695	-0.5151328918	-0.412807
C	-2.3784148908	 0.1790040974	 0.9180945547	 0.267394
N	-3.2245430953	 0.7359024421	 1.4761345138	-0.340045
H	 0.6734542325	 1.9550734128	-0.5867564805	 0.236349
H	-0.3373544763	 1.1586737959	-1.5925148071	 0.239462
H	 0.749861686	-0.5235874616	-0.2499899876	 0.099734
H	 0.3131233157	 0.4382141318	 1.1696839178	 0.124174
H	-2.7351261622	-1.1622536541	-1.1729238361	 0.25535
H	-2.380696827	-2.4132337753	 0.7551414438	 0.117791
H	 0.5263392915	-2.6054101648	-0.2681735296	 0.098171
H	-0.1150472869	-3.3723332514	 1.19722035	 0.123101
H	-0.9822295623	-3.9420976447	-1.4161540038	 0.292579
