17
gdb 110285	2.25901	1.63324	1.25519	2.9107	69.34	-0.2331	-0.0224	0.2108	1056.9683	0.134648	-458.931553	-458.923082	-458.922138	-458.964798	31.461	
C	 0.1772046626	 1.1988952237	-0.2618626037	-0.253703
O	-0.2721104199	-0.0851411738	 0.1590070973	-0.259083
C	 0.5482378257	-0.6574277914	 1.1565601819	-0.022773
C	 0.1214085756	-2.0553852287	 1.5964938757	-0.164032
C	 0.227409722	-2.9949539681	 0.4584641478	 0.140707
O	-0.0563146156	-2.675293239	-0.859078375	-0.429573
C	 1.5360547807	-2.6283588952	 1.1768265149	-0.244523
C	 1.9407070988	-1.2565428363	 0.7650868217	 0.405872
O	 2.9675822043	-0.7474500572	 0.4102009689	-0.325378
H	 1.1920310949	 1.1544847542	-0.6722366427	 0.149258
H	-0.5180246734	 1.5419558047	-1.0301831581	 0.13564
H	 0.1643729828	 1.9069877439	 0.5787489204	 0.118197
H	 0.6799816097	 0.0388979353	 1.9988860513	 0.103611
H	-0.4262112815	-2.2677602632	 2.5058285995	 0.110673
H	-0.0665142767	-4.0177816441	 0.6820708792	 0.118927
H	-0.2869846633	-1.734399062	-0.8896835521	 0.299011
H	 2.1564031133	-3.3836225428	 1.6424841932	 0.117169
