19
gdb 81293	2.29198	1.7297	1.58999	3.7781	76.29	-0.2373	0.0267	0.2641	983.4975	0.162229	-419.1954	-419.187727	-419.186783	-419.227333	30.323	
C	-0.1732993384	 1.6189355817	-0.0153064693	-0.43692
C	 0.0440213294	 0.1129791182	-0.0191856544	 0.030187
C	 0.8309930091	-0.624181685	-1.1380132499	-0.053992
C	 2.0942675058	 0.1304665905	-1.517662773	-0.05802
O	 2.818684257	 0.5843657148	-0.356688608	-0.27034
C	 2.3789572378	 0.2123669726	 0.8814386853	 0.470353
N	 2.9780858182	 0.5424307311	 1.9446688381	-0.541534
C	 1.1023364189	-0.5843261973	 0.8877810182	-0.117869
N	 1.2762883217	-1.6698320631	-0.1509574874	-0.329867
H	 0.7623086173	 2.1720327099	-0.1325138346	 0.137557
H	-0.8468157599	 1.9151698791	-0.8270645958	 0.116743
H	-0.6315403638	 1.9387940749	 0.9262251709	 0.128659
H	-0.910546277	-0.4058046793	 0.1240878449	 0.077877
H	 0.3104494662	-0.9803527557	-2.0312154458	 0.07624
H	 2.7609893352	-0.5261973393	-2.0860556255	 0.124367
H	 1.8671410084	 1.0163748283	-2.120991802	 0.111949
H	 3.8125106915	 1.0910631294	 1.7238886323	 0.217828
H	 0.8561208478	-0.8951104377	 1.9015756175	 0.094698
H	 0.5085575648	-2.3282237832	-0.0247361915	 0.222082
