22
gdb 6543	2.64262	1.8166	1.57333	1.3504	77.36	-0.2581	0.067	0.3251	983.2897	0.197653	-350.199021	-350.18938	-350.188436	-350.232556	37.396	
C	 0.3532744295	 1.4977119342	 0.1945784544	-0.41439
C	 0.0213092263	 0.0049887665	 0.0164771678	 0.279984
C	 0.3834348838	-0.7582089614	 1.3002800691	-0.436212
O	-1.3881084465	-0.1495279318	-0.2179788188	-0.467396
C	 0.6955827075	-0.5453724071	-1.254183058	 0.397235
C	 0.1362401234	 0.0113620915	-2.5559791435	-0.46296
C	 2.1772568816	-0.8397070184	-1.2365544327	-0.312392
C	 1.1839877413	-1.9744448848	-1.3109411245	-0.315496
H	 1.4283059156	 1.6497456153	 0.3307973149	 0.117111
H	 0.0272351962	 2.0796477785	-0.6698756742	 0.123406
H	-0.1550070313	 1.8974328812	 1.0801542955	 0.097085
H	-0.0909396716	-0.2703102895	 2.1595976095	 0.100961
H	 0.013770032	-1.7846086355	 1.2556934074	 0.127968
H	 1.4597172729	-0.7740516907	 1.494236931	 0.116977
H	-1.8515891723	 0.2468492765	 0.5272022467	 0.272783
H	 0.2784043431	 1.094322512	-2.6349250078	 0.108939
H	 0.6437030466	-0.4449911397	-3.4115342637	 0.102802
H	-0.9330172574	-0.1945846706	-2.6381412669	 0.136611
H	 2.7495002754	-0.5897933564	-2.1239377799	 0.105925
H	 2.7311901607	-0.7143619906	-0.3123722671	 0.106
H	 1.0803846735	-2.6110008804	-0.4411925857	 0.108761
H	 1.0731464497	-2.500971639	-2.2528993734	 0.106297
