18
gdb 58978	3.57578	1.01439	0.83125	3.2344	75.28	-0.2412	-0.0291	0.2121	1359.1899	0.14749	-439.134942	-439.125856	-439.124912	-439.169305	33.339	
C	 0.3834065301	 1.0076272556	-0.7232898089	-0.410455
C	-0.0807395871	 0.1000251925	 0.4134845302	 0.030917
O	-0.0203669043	 0.7630263319	 1.6804987174	-0.422907
C	-1.448182755	-0.4938637358	 0.2041611808	 0.307583
C	-2.2726330735	-0.4179250876	-0.8460482317	-0.359614
C	-3.5322907103	-1.1735253048	-0.5705433389	 0.441248
O	-4.5093007549	-1.3059325294	-1.2771119548	-0.390878
N	-3.3522703035	-1.7009926654	 0.6911294238	-0.350586
C	-2.0964735001	-1.3238853328	 1.2932405727	-0.237666
H	 1.367842924	 1.4171300171	-0.4851000591	 0.129758
H	 0.4527829212	 0.4572973111	-1.6661967451	 0.129601
H	-0.3138167889	 1.8404868295	-0.8682950095	 0.117765
H	 0.6360639946	-0.7256795538	 0.5207032999	 0.104693
H	-0.6011760393	 1.5313617996	 1.630825971	 0.282284
H	-2.1142431438	 0.0935285863	-1.7844991628	 0.118605
H	-4.0832886494	-2.2056390283	 1.1621355987	 0.253628
H	-1.4740453821	-2.1939842807	 1.5499950732	 0.124622
H	-2.2211232577	-0.7381961048	 2.2133163132	 0.131403
