16
gdb 44759	2.69619	1.67287	1.2351	5.9119	73.68	-0.2584	-0.0294	0.2291	1004.7419	0.126044	-400.773	-400.765825	-400.76488	-400.804634	28.084	
O	 0.0058785827	 0.05093448	-0.0375881803	-0.306552
C	-0.003480561	 1.2457762704	-0.0060686259	 0.413372
C	-1.1967957742	 2.2212222955	 0.0199981719	-0.333237
C	-0.4013849812	 3.5382465426	 0.054552824	-0.045023
C	 0.6945164309	 3.2881914382	-1.0204733052	-0.263553
C	 1.1958008228	 2.2189730639	 0.0193116397	 0.08503
C	 0.6950727322	 3.2318402706	 1.1143181632	-0.263552
C	 2.5260161269	 1.668403348	 0.0044325558	 0.176031
N	 3.6009819666	 1.2437230147	-0.0070568695	-0.335344
H	-1.8205264834	 2.097916707	-0.8702904881	 0.136844
H	-1.8200559265	 2.0511108194	 0.9028723313	 0.136845
H	-0.9655964499	 4.4679201457	 0.0792402088	 0.089963
H	 0.3938744539	 2.9273415452	-2.0069272018	 0.12303
H	 1.404896899	 4.1110812989	-1.1117439624	 0.131558
H	 1.4055113451	 4.0487793512	 1.2485042107	 0.131558
H	 0.3949400262	 2.8194469586	 2.0805177177	 0.12303
