16
gdb 1986	6.49401	1.59682	1.38628	3.4271	61.82	-0.2378	0.0338	0.2717	894.1601	0.135915	-325.797299	-325.789334	-325.78839	-325.830694	27.6	
C	 0.0331091599	 1.4484241103	-0.0843359559	-0.488525
C	 0.2659181601	-0.0551500798	-0.1474027073	 0.399596
O	 1.0173424901	-0.635438991	 0.6112008207	-0.361299
N	-0.4468572428	-0.7066322173	-1.1222815389	-0.320727
C	-0.4616962003	-2.1351937524	-1.2230991318	 0.06822
C	-0.6047063261	-2.7410203133	-2.5935059368	-0.298273
C	 0.70930221	-2.8333599695	-1.8583003516	-0.235106
H	-0.3307838777	 1.8687023938	-1.0261101037	 0.114701
H	-0.7012767862	 1.667166775	 0.698110844	 0.147654
H	 0.969077525	 1.9348930875	 0.1941526413	 0.152017
H	-1.1540626355	-0.1926071573	-1.623100681	 0.242253
H	-0.9423483036	-2.6487287072	-0.3938255119	 0.102949
H	-1.2152477621	-3.630995489	-2.6939711354	 0.11871
H	-0.659908221	-2.0611398099	-3.4372362748	 0.11247
H	 1.5245313485	-2.208726153	-2.2019245479	 0.124607
H	 1.0109108418	-3.7879085569	-1.443678169	 0.120755
