15
gdb 37105	3.86655	1.74092	1.65651	3.0596	67.	-0.2084	0.0096	0.2181	831.1078	0.113915	-416.709097	-416.702781	-416.701837	-416.739227	26.411	
C	 0.2161130785	 1.5237601384	 0.0020176108	-0.353102
C	 1.4822340006	 0.6843824114	-0.051147893	 0.11137
N	 2.0827095202	 0.2207213794	 1.1603447639	-0.329076
C	 1.1141330399	-0.4374429029	 1.9077111236	 0.0426
N	-0.0249431688	-0.6392411361	 1.3456341047	-0.299566
C	 0.0470382654	 0.0445525485	 0.0815447138	 0.219158
C	 0.288034903	-0.71136934	-1.2573167326	-0.025104
O	 0.5900925985	 0.2592154499	-2.2668308626	-0.230999
C	 1.6323744159	-0.1398065063	-1.3746918526	-0.011216
H	 0.0542996471	 2.0693241894	 0.9246967959	 0.1239
H	-0.0801136834	 2.0331539675	-0.9049914333	 0.146724
H	 2.8608334894	 0.6857489656	 1.6011120818	 0.249756
H	 1.3516834273	-0.7628765542	 2.9174366814	 0.130449
H	-0.1453209232	-1.6557247217	-1.5636697109	 0.114898
H	 2.5543189497	-0.5178462087	-1.8014939308	 0.110208
