19
gdb 91158	2.27377	1.87837	1.312	0.4223	75.02	-0.2446	-0.0012	0.2434	1019.1091	0.160416	-423.013052	-423.00515	-423.004206	-423.045229	31.357	
C	 0.6128021993	 1.2858803074	-0.523741589	-0.425324
C	 0.0406400291	 0.0202639348	 0.0926952997	 0.153432
O	 0.214843281	-1.1260099346	-0.7824199166	-0.315235
C	 0.9448996341	-1.8442542638	 0.2432664032	 0.088303
C	 2.43614449	-1.8633172444	 0.0252130357	-0.085394
C	 3.0662162646	-1.0485201711	 0.8715654304	-0.125433
C	 2.1257458168	-0.3290030654	 1.8196662786	 0.086482
O	 2.3872056883	 1.0590174961	 1.9703457886	-0.432877
C	 0.7260541086	-0.7244947726	 1.2826577985	-0.149072
H	 1.662179161	 1.1554304954	-0.8060844046	 0.118092
H	 0.0616979471	 1.5159294486	-1.4413808372	 0.128477
H	 0.5119008269	 2.1371508362	 0.1568845699	 0.127221
H	-1.027844785	 0.1747817848	 0.2922510874	 0.081471
H	 0.5096726185	-2.8343805975	 0.4191423767	 0.081042
H	 2.9050697215	-2.4731660919	-0.739126663	 0.105614
H	 4.1383971573	-0.8876123243	 0.9225829209	 0.104869
H	 2.2415436805	-0.7222002706	 2.8378739796	 0.09737
H	 2.4566582551	 1.4459033585	 1.0927492684	 0.281234
H	 0.0245051354	-0.9387789457	 2.0883136426	 0.079729
