15
gdb 104954	2.89801	0.83036	0.7026	3.7828	74.83	-0.272	-0.0706	0.2014	1554.9602	0.109355	-457.702632	-457.693138	-457.692194	-457.738717	32.069	
O	 0.2913189617	 1.2244494956	 0.0137650566	-0.403439
C	 0.0019451172	-0.0805870263	-0.4322042252	-0.130002
C	-1.4154173165	-0.4938949773	-0.067061693	 0.117765
C	-1.6824549073	-1.8578515582	 0.4411600588	-0.201199
O	-1.5790603759	-0.7671872539	 1.3451245427	-0.259165
C	-2.4848138409	 0.2453340371	-0.6848273791	 0.106929
C	-3.353179175	 0.8649818093	-1.2517935232	 0.082494
C	-4.4171847065	 1.6039090963	-1.8829522964	 0.016429
O	-4.4076380222	 1.9624301079	-3.0377023141	-0.225087
H	 0.1798514862	 1.2311309087	 0.9714481686	 0.297552
H	 0.1215229068	-0.0748008668	-1.5196302829	 0.131031
H	 0.693607364	-0.8249447256	-0.0104532784	 0.09913
H	-2.6780868092	-2.2802330531	 0.3238652069	 0.134132
H	-0.8627975872	-2.5748666892	 0.4639027308	 0.127863
H	-5.2714720653	 1.8249829655	-1.2117326822	 0.105566
