16
gdb 83476	3.42247	1.23171	1.05849	2.8541	65.39	-0.2373	0.0118	0.2491	1120.5554	0.123703	-474.985781	-474.977525	-474.976581	-475.019142	30.426	
O	 0.6635889648	 1.0371039009	 0.6114017469	-0.435663
C	 0.1266982401	-0.1893171497	 0.2445604358	 0.052805
C	-0.9421363799	-0.8522931079	 1.0474104632	 0.000551
O	-1.7423495717	 0.1665183015	 1.6531605578	-0.300304
C	-2.2113877995	 0.6213387909	 0.3459993234	-0.142945
C	-1.2604708567	-0.3416599684	-0.361218101	 0.277683
N	-1.4975692954	-1.0145490203	-1.5806252102	-0.406845
C	-2.5455634452	-1.8727453979	-1.7737516184	 0.13698
O	-3.3629154933	-2.1651823366	-0.9310172234	-0.310846
H	 0.1666129707	 1.3198341423	 1.392194997	 0.299909
H	 0.8643722886	-0.8574914203	-0.1932798555	 0.113051
H	-0.9283123739	-1.835350504	 1.5019694752	 0.121354
H	-3.2621138204	 0.355523287	 0.2135687207	 0.146634
H	-2.0498786774	 1.6941531576	 0.1954644016	 0.111537
H	-0.901620202	-0.8095104955	-2.3686530154	 0.254189
H	-2.5573582888	-2.2783387896	-2.8049456377	 0.08191
