16
gdb 67513	2.49062	1.51067	1.13897	2.5751	70.73	-0.2351	-0.0379	0.1972	1070.6098	0.122436	-437.781406	-437.773485	-437.77254	-437.814122	30.22	
O	-0.0200978909	 1.4540663078	-0.2230170861	-0.447555
C	 0.1134277008	 0.0882744292	-0.1003261036	 0.344575
C	-0.2368796878	-0.9037028735	-1.1686688069	-0.196754
C	 0.6759103741	-1.8263709747	-1.9105521327	 0.109447
O	 0.3199556137	-2.4809713975	-2.8600049673	-0.262598
C	-0.9329214642	-0.9189496984	 0.2364803808	-0.086989
N	-0.2170187009	-1.4239529748	 1.4536780435	-0.114922
C	 1.0809472331	-2.0046974841	 1.0886888918	-0.254261
C	 0.9333879851	-0.5276928689	 1.0706658144	-0.11854
H	 0.6485545881	 1.7750168774	-0.8390166115	 0.293192
H	-0.9986647041	-0.5139319723	-1.8432751769	 0.131478
H	 1.7389051663	-1.8241968747	-1.5871003497	 0.088706
H	-2.0130033928	-0.8665092734	 0.2649459076	 0.128241
H	 1.6013869761	-2.4185780711	 1.9493572652	 0.134065
H	 1.1673009084	-2.6093131945	 0.1955333862	 0.134158
H	 1.388350995	 0.1168079436	 1.8156514152	 0.117757
