16
gdb 63455	1.88884	1.78593	1.09738	4.5521	77.34	-0.2537	0.0081	0.2618	1117.1963	0.120744	-400.714333	-400.70488	-400.703936	-400.748034	35.173	
C	-0.0686378473	 1.5318972348	-0.0725387695	-0.460698
C	 0.045155876	 0.027583105	-0.0739926246	 0.374396
O	-1.0185748769	-0.6543041795	-0.6473414282	-0.433721
C	 1.3433156027	-0.6632538212	-0.2524566156	-0.339
C	 0.7170023609	-0.6829920785	 1.1597899896	-0.090692
C	 1.3252954361	 0.0961720362	 2.2009754606	 0.265264
C	 1.8346432969	 0.7574090799	 3.0662798427	-0.41933
C	 0.0895022877	-1.9085904105	 1.5870334298	 0.240089
N	-0.4332126196	-2.8770888428	 1.942452059	-0.345417
H	 0.7945513214	 1.9998215982	 0.4032863145	 0.142559
H	-0.1473494496	 1.8904095887	-1.1032702928	 0.139434
H	-0.9652258108	 1.8501925718	 0.4712885103	 0.126176
H	-1.8198105954	-0.4702456303	-0.142325339	 0.297112
H	 1.3298725298	-1.6033252842	-0.7904327226	 0.156779
H	 2.2452164284	-0.0714267453	-0.3497675882	 0.143357
H	 2.2836325497	 1.3316301476	 3.838866364	 0.203692
