19
gdb 91707	2.59551	1.79528	1.58133	1.2807	75.05	-0.2429	0.0104	0.2533	956.8704	0.161411	-423.045293	-423.038008	-423.037064	-423.076668	29.587	
C	-0.2962956065	 1.5574655781	-0.0625495156	-0.411957
C	 0.020040216	 0.0746093971	 0.0006016007	 0.147062
O	 0.8865588774	-0.2942644088	-1.0850540098	-0.296878
C	 1.829902263	-1.2366965468	-0.5769983206	 0.186997
C	 3.1860397815	-0.54870086	-0.359263355	-0.272325
C	 3.1019789771	 0.3675110849	 0.8368209142	-0.059356
C	 1.9939479848	 0.4341877888	 1.5748518702	-0.0605
C	 0.8216250271	-0.4495333902	 1.2154439974	-0.012758
O	 1.311672425	-1.6788900494	 0.6585964416	-0.254931
H	 0.6145241586	 2.1560326433	 0.0137551045	 0.127573
H	-0.7882581701	 1.7943246767	-1.0098819431	 0.129089
H	-0.974979887	 1.8382722422	 0.7500598805	 0.112552
H	-0.9092471691	-0.5096091566	-0.0703594906	 0.077213
H	 1.8947625487	-2.0947428501	-1.253324974	 0.085518
H	 3.9747817809	-1.3005328923	-0.2182816876	 0.109783
H	 3.4440608776	 0.014013959	-1.2643478273	 0.119051
H	 3.97629235	 0.9640439447	 1.0828094451	 0.094615
H	 1.9067952732	 1.1034263872	 2.4246774982	 0.092335
H	 0.1941998317	-0.6942824179	 2.0743136212	 0.086916
