18
gdb 77885	2.16387	1.67023	1.31966	4.627	73.66	-0.2265	0.0181	0.2445	1068.3425	0.145819	-439.074722	-439.065404	-439.06446	-439.108521	33.807	
C	-0.1604214487	 1.3013477778	-0.366459887	-0.339944
N	-0.0715414099	-0.0197296568	 0.2204374256	-0.086831
C	-1.0842192447	-1.0732556474	 0.1816354325	-0.127914
C	-0.9506218107	-1.9139886842	-1.0615203005	 0.049599
O	-0.4945223709	-1.400178154	-2.2750342107	-0.408895
C	 0.0314089102	-2.1279687854	 0.0706772871	 0.102889
C	 0.2732594554	-3.431642258	 0.7723563491	-0.495884
C	 0.9801393351	-0.9223584013	 0.0548558899	 0.384818
O	 2.1633318396	-0.7586462423	-0.05537925	-0.361922
H	 0.8470513279	 1.7239588862	-0.3844982327	 0.157378
H	-0.5456574544	 1.2700396213	-1.3938878519	 0.112344
H	-0.8011869173	 1.9519879503	 0.2366841775	 0.123536
H	-1.9404828755	-1.0539535546	 0.8456830552	 0.107556
H	-1.685269922	-2.7188923084	-1.1497281964	 0.094117
H	-1.2441813299	-1.0119568441	-2.7398708113	 0.290744
H	-0.61285225	-4.0730706736	 0.7434052739	 0.119805
H	 1.0958090331	-3.9733409449	 0.2937729065	 0.145345
H	 0.5444917028	-3.2730997507	 1.8208747035	 0.133258
