22
gdb 101768	4.18268	0.65754	0.65013	2.9281	80.33	-0.2413	0.0373	0.2786	1816.5827	0.191528	-441.521183	-441.509602	-441.508658	-441.560007	39.808	
C	 0.0978522537	 1.4066590472	 0.2953448955	-0.382639
C	 0.0039706629	-0.0991614015	 0.0288023885	 0.023853
C	 0.6892665827	-0.4769644026	-1.2850757679	-0.074772
O	 0.0049664847	 0.1716779169	-2.3468526548	-0.423209
C	 0.5974211008	-0.9362924941	 1.1757256934	-0.172374
N	-0.0735341424	-0.7334057586	 2.4471905845	-0.313471
C	 0.5404713843	-0.1691949181	 3.5309695753	 0.409278
C	-0.3398317328	-0.0143591598	 4.7626897496	-0.482619
O	 1.7043312412	 0.1897539966	 3.5221925185	-0.37508
H	 1.1402827245	 1.7091547606	 0.4474179093	 0.121506
H	-0.3030359634	 1.9657111596	-0.5526585756	 0.130547
H	-0.4610403143	 1.6851994748	 1.1927128982	 0.108304
H	-1.0562099284	-0.3707392497	-0.0847235681	 0.073259
H	 1.7478996626	-0.1710945499	-1.246547935	 0.090056
H	 0.6683534874	-1.5715954556	-1.4154431155	 0.080664
H	 0.4922448777	 0.0141011328	-3.1603618422	 0.287573
H	 0.5627140866	-2.0021287399	 0.9122266162	 0.097874
H	 1.6438747015	-0.6680422917	 1.3463319024	 0.147379
H	-1.0425585776	-0.9951399453	 2.5225116873	 0.240969
H	-0.4477441326	 1.0508991439	 4.9855278525	 0.152373
H	-1.3344688516	-0.4554231632	 4.6555113927	 0.108094
H	 0.1661971226	-0.4752061123	 5.6144088252	 0.152433
