23
gdb 102087	1.99618	1.2275	0.98731	2.6939	86.04	-0.2392	-0.02	0.2191	1373.4269	0.203046	-388.295279	-388.284634	-388.283689	-388.331612	38.724	
C	-0.0682574314	 1.6081977317	 0.2412114632	-0.392098
C	-0.0347759356	 0.0810637597	 0.1184403845	-0.206756
C	-1.4315670784	-0.5431048979	-0.0589966506	-0.121362
C	-2.0272084942	-0.169672209	-1.4056808111	 0.165936
O	-3.1385982271	 0.2650734268	-1.5696030921	-0.257691
C	-1.4376107339	-2.0735742629	 0.095217266	 0.361652
C	-0.486149185	-2.8628448649	-0.7886811255	-0.476165
C	-1.6939907068	-2.602343066	 1.4886410976	-0.314374
C	-2.7682026223	-2.7046672644	 0.4318923611	-0.307213
H	 0.9399940716	 2.0150612159	 0.3635194513	 0.116129
H	-0.5095005665	 2.0755284298	-0.645934013	 0.125909
H	-0.6638022733	 1.9214805168	 1.1053523399	 0.121816
H	 0.604415891	-0.2034628878	-0.7270310482	 0.103011
H	 0.4284186478	-0.3550886675	 1.0110953509	 0.106355
H	-2.1121689516	-0.129591876	 0.6942312584	 0.08628
H	-1.3517266404	-0.3421547969	-2.2777970457	 0.070257
H	 0.5587584369	-2.5909081909	-0.6062150626	 0.120831
H	-0.5853084818	-3.9343867772	-0.5905788191	 0.117635
H	-0.6911627494	-2.7096539956	-1.8539714241	 0.119639
H	-1.1817320374	-3.5110075147	 1.7876117052	 0.110943
H	-1.8347215776	-1.8891818385	 2.294018524	 0.112159
H	-3.6317543792	-2.0536044111	 0.5132313862	 0.126175
H	-2.9879337053	-3.6829779293	 0.017838214	 0.110933
