14
gdb 124017	3.82669	1.65404	1.16321	6.6336	70.36	-0.2102	-0.0295	0.1807	963.3039	0.105298	-432.875587	-432.869168	-432.868224	-432.906641	24.527	
C	-0.0014938112	 1.523565497	 0.1816079343	-0.2929
N	 1.3375143756	 1.9624230029	-0.2498376105	-0.29312
C	 2.3396219712	 1.1460640296	-0.6620884297	 0.107063
N	 2.3101980475	-0.1463813941	-0.7524318048	-0.360042
C	 1.0931028936	-0.6436356466	-0.3676122288	 0.426407
C	-0.0143431218	 0.0302109346	 0.0700943879	 0.101937
C	-0.9462690262	-1.0009103194	 0.3142735422	-0.092469
N	-0.4490458591	-2.1904789094	 0.0487246548	-0.147795
O	 0.860741126	-1.9610894943	-0.3890937994	-0.214927
H	-0.1884763392	 1.8687123262	 1.210041683	 0.12445
H	-0.7664243375	 1.9978100219	-0.4522331448	 0.124442
H	 1.5252789377	 2.9512215867	-0.238277657	 0.260157
H	 3.2531311891	 1.668807584	-0.9392210559	 0.130522
H	-1.9647110557	-0.9383649789	 0.6735103388	 0.126275
