16
gdb 10326	2.43972	1.76677	1.17562	2.5334	63.39	-0.2494	-0.0558	0.1936	1040.2135	0.125694	-420.88457	-420.875219	-420.874274	-420.91912	31.513	
C	-0.2509641304	 1.3481997032	 0.2367959164	-0.243041
O	-0.3069072543	-0.0515478333	 0.0373497891	-0.220304
C	 0.5195700814	-0.5024017802	-0.9943230879	-0.063164
C	 1.9750259906	-0.6139963986	-0.5213090142	 0.116432
O	 2.9264266976	-0.7585006271	-1.2428677289	-0.231561
C	 0.0449013336	-1.909874042	-1.4501640421	 0.351174
C	 0.5978672518	-2.3672172566	-2.7807324738	-0.49326
O	-0.7064936114	-2.5538949451	-0.7687379456	-0.265297
H	 0.7570985385	 1.6926592891	 0.5124962978	 0.112848
H	-0.5675646795	 1.8951431738	-0.6639834689	 0.115514
H	-0.9372030212	 1.5791280386	 1.0538184149	 0.142907
H	 0.4991595776	 0.1604010511	-1.8750323155	 0.103896
H	 2.0601274217	-0.580020953	 0.5873369903	 0.111262
H	 1.6596090988	-2.119302197	-2.8676874715	 0.16827
H	 0.4346659205	-3.4388226535	-2.9009769998	 0.147135
H	 0.0747898746	-1.8346307994	-3.5845375805	 0.147188
