18
gdb 37302	2.92153	2.14409	1.80492	1.6399	77.28	-0.2071	0.007	0.214	838.8131	0.151736	-364.770185	-364.764226	-364.763282	-364.800071	26.212	
C	-0.0358967189	 1.5361259198	 0.0586696632	-0.30146
C	 1.2886325725	 0.8284585154	-0.0238029875	-0.023534
C	 0.0015329379	 0.0236984544	 0.0014374369	-0.044745
C	-0.0687821477	-0.6873507549	-1.3786866889	-0.0871
C	-0.8283936889	 0.1711956304	-2.3709297262	-0.071251
C	 0.0310379629	 0.9407185743	-3.0388583132	-0.094152
C	 1.4262467198	 0.5289316353	-2.7206442547	-0.078219
C	 1.9823879007	 0.4696926538	-1.3154792164	-0.051187
N	 1.3454451397	-0.7187496109	-1.9231673674	-0.112277
H	-0.2810059214	 1.9754445751	 1.0210664477	 0.108032
H	-0.3970487794	 2.0980270601	-0.7916879912	 0.123212
H	 1.9368065972	 0.8675067044	 0.8452686544	 0.086824
H	-0.300180417	-0.5360525402	 0.8800479139	 0.087343
H	-0.4501089205	-1.7048542632	-1.2706047387	 0.079785
H	-1.9084023703	 0.2606938338	-2.3686081033	 0.10081
H	-0.2113935547	 1.727264579	-3.7424340721	 0.101472
H	 2.1529370671	 0.5297535392	-3.5320817172	 0.088162
H	 3.067160491	 0.4175522541	-1.2467397293	 0.088282
