19
gdb 82618	2.37002	2.04671	1.5311	1.7009	72.93	-0.2319	0.0931	0.325	944.7694	0.161246	-423.028598	-423.021234	-423.02029	-423.059884	30.278	
C	-0.0171952309	 1.4916775479	 0.0430129357	-0.508771
C	-0.0427619283	-0.0099287334	 0.0150115404	 0.264538
C	 0.5674786157	-0.8848437073	-1.0841645419	-0.164145
C	-0.257688773	-2.1660988594	-1.1644989971	-0.238832
C	-0.5990377957	-2.209790722	 0.3352003341	-0.001047
O	 0.6851758388	-2.0746463492	 0.9793622735	-0.278295
C	 1.1406356454	-0.9015195215	 0.3148397973	 0.034435
C	-1.2154499876	-0.8136409096	 0.5920950303	 0.114727
O	-1.4677227386	-0.5437759285	 1.9521844647	-0.452943
H	 0.9633348534	 1.8834183004	-0.2466415516	 0.113916
H	-0.7588948159	 1.9183171219	-0.6422162424	 0.118665
H	-0.2449422414	 1.8546668899	 1.0504821063	 0.133043
H	 1.1049020827	-0.4675438086	-1.9257937403	 0.089611
H	-1.1495060373	-2.0798772998	-1.7916833696	 0.105115
H	 0.3274304324	-3.0329445845	-1.4843842592	 0.109464
H	-1.1259628932	-3.072654427	 0.73627522	 0.085374
H	 2.1291163741	-0.572951981	 0.6037200775	 0.103075
H	-2.1556545116	-0.661120322	 0.0545841474	 0.085466
H	-0.6875012887	-0.8546870863	 2.4301120949	 0.286604
