16
gdb 108741	3.58789	1.21426	0.91547	1.8529	81.92	-0.2123	-0.0559	0.1565	1226.562	0.125678	-434.124536	-434.115869	-434.114925	-434.158365	31.401	
C	-0.1165584967	 1.4685329277	 0.027123871	-0.342505
N	 0.1466069922	 0.0356811456	 0.000719797	-0.391804
C	 0.6774866571	-0.6927303377	 1.0154568398	 0.287858
C	 0.67688138	-2.0381602558	 1.1995849578	-0.303153
C	 1.4329324104	-2.3701869166	 2.3998902166	 0.407974
N	 1.6328456977	-3.5382021721	 2.8708790311	-0.541897
N	 1.8801524451	-1.1366232914	 2.9198660001	-0.403247
C	 1.4781346965	-0.0698650915	 2.1467265856	 0.392807
O	 1.7310670931	 1.0975299682	 2.3532599168	-0.37191
H	 0.6774330241	 1.9733389896	 0.5729652856	 0.188275
H	-0.1430740782	 1.839267212	-1.0009261361	 0.126329
H	-1.0755032041	 1.708613708	 0.5077284799	 0.122848
H	-0.4095543102	-0.4951590118	-0.6523990177	 0.24865
H	 0.21020243	-2.7951134815	 0.5875835672	 0.109548
H	 2.18976991	-3.5065668751	 3.7263663415	 0.210302
H	 2.437370243	-1.0215706976	 3.7501936038	 0.259927
