18
gdb 40135	3.12443	1.46761	1.11164	1.9892	81.41	-0.2343	0.0158	0.2501	1109.0642	0.148349	-401.932233	-401.924354	-401.92341	-401.965309	30.32	
C	 0.1575370224	 1.5269380213	-0.0272128677	-0.313314
C	 1.4254111451	 0.7433727159	 0.1881714659	-0.307665
C	 0.0956319961	 0.0208562464	 0.0241738473	 0.404425
C	-0.4985449169	-0.6279625599	 1.2073546131	-0.111089
C	-0.8862858226	-1.8905726359	 1.3624179386	-0.09483
C	-0.8205724794	-3.0358489818	 0.3960878118	-0.209876
N	-0.3321278836	-2.8969128907	-0.9525766989	-0.262711
C	-0.0631062509	-1.8414486659	-1.5790054764	 0.114582
O	-0.0953937407	-0.5165603041	-1.2687721534	-0.281145
H	-0.2672872075	 2.0815694936	 0.8017749668	 0.1217
H	 0.0037126731	 1.970569475	-1.0034776236	 0.131149
H	 2.1138393899	 0.6636744291	-0.6448022604	 0.129641
H	 1.8858471354	 0.7423398494	 1.1694191772	 0.122913
H	-0.5895191065	 0.0422002542	 2.0593208784	 0.092749
H	-1.2917141068	-2.173734056	 2.3328690294	 0.090985
H	-0.2300730967	-3.8348837953	 0.8713780191	 0.126861
H	-1.8270450953	-3.476363199	 0.3136209549	 0.130163
H	 0.2150746748	-1.9196202265	-2.6308933321	 0.115463
