14
gdb 20362	6.22067	1.50579	1.3399	2.2717	63.92	-0.2686	-0.0217	0.2469	898.9683	0.109039	-378.714664	-378.708237	-378.707293	-378.74585	23.545	
C	-0.1218738583	 1.4572946452	-0.0581526637	-0.261463
C	 1.2637438155	 0.9216814835	 0.1084623155	-0.261473
C	 0.0913157315	-0.044895309	 0.045806291	-0.115582
C	-0.3313051419	-0.7650182027	 1.2450536331	 0.453887
N	-0.8093525394	-1.976103059	 1.3241662564	-0.33322
C	-1.0212414213	-2.1054819739	 2.6732616925	 0.036419
N	-0.7074370375	-1.0680303089	 3.3974904639	-0.118337
O	-0.2385031159	-0.154869743	 2.4371384901	-0.212585
H	-0.5828653094	 1.9467481182	 0.791560963	 0.142414
H	-0.4235334171	 1.8399043557	-1.0261452204	 0.129445
H	 1.9346101501	 0.9283724568	-0.7425917931	 0.129444
H	 1.7444640373	 1.0471296284	 1.0714065772	 0.142417
H	-0.0288454757	-0.6353491786	-0.8532121798	 0.122951
H	-1.4220654279	-3.0002720427	 3.1274944943	 0.145684
