18
gdb 82760	2.36108	2.15457	1.57392	2.1997	70.2	-0.2313	0.0562	0.2876	901.9126	0.149371	-439.023651	-439.01646	-439.015516	-439.054652	29.865	
O	 0.0502077125	 1.3725208368	 0.0733469804	-0.456817
C	-0.0002350643	-0.0347077852	 0.0821539282	 0.125712
C	 0.3316999747	-0.6583527325	 1.4531203446	-0.024363
C	-0.6465648737	 0.0663612229	 2.4006113592	-0.233226
C	-1.6593476744	-0.7699383503	 1.6192961112	-0.077272
N	-0.6252671563	-1.8840124974	 1.4797244085	-0.153585
C	-1.1029533942	-2.1186758819	 0.0699002432	-0.230195
C	-1.4285281207	-0.6160158021	 0.0542543933	 0.318466
O	-2.2454212114	 0.0599140248	-0.8494030021	-0.498474
H	-0.620351732	 1.6623636996	-0.5576329525	 0.292286
H	 0.6131847588	-0.4443696846	-0.7326473151	 0.067345
H	 1.3730861691	-0.848382794	 1.7072764028	 0.077408
H	-0.5603959805	-0.2905753264	 3.4286967188	 0.109228
H	-0.6846498093	 1.1522012331	 2.3500665768	 0.121196
H	-2.6577114085	-1.0370241132	 1.973773077	 0.068485
H	-0.3722995103	-2.5118732907	-0.6438849511	 0.104426
H	-1.9759070189	-2.7777533455	 0.1119706606	 0.100715
H	-3.1517423607	-0.2486366736	-0.7549620741	 0.288664
