23
gdb 92323	2.19076	1.63209	1.02831	0.2538	94.06	-0.2109	0.0311	0.2419	1254.0888	0.206326	-351.157215	-351.148157	-351.147212	-351.190611	35.287	
C	-0.1493875173	 1.4837407223	 0.2384320771	-0.408121
C	-0.0383234182	-0.0209262493	 0.0375605432	-0.059394
C	 1.0798100147	-0.5965485258	-0.9175855977	-0.259558
C	 1.3046004568	-1.7665296413	 0.1030123713	-0.028642
C	 2.6258060773	-2.1300393994	 0.8087152677	-0.240847
C	 2.2816369098	-1.9384372035	 2.3204468691	-0.282854
C	 1.1646729831	-0.8873068209	 2.3123191627	 0.135638
C	 0.8829136581	-0.0215934161	 3.4996352021	-0.49618
C	 0.6037843496	-0.8901208414	 1.1034584452	 0.218423
H	 0.8088558868	 1.9066269519	 0.5575600303	 0.114938
H	-0.4469724181	 1.981210963	-0.691319555	 0.112905
H	-0.897133588	 1.7318543747	 0.9994771443	 0.116702
H	-1.0093101311	-0.4294142162	-0.2724315657	 0.078205
H	 0.7760206919	-0.8578569157	-1.9349637414	 0.092085
H	 1.9420182924	 0.0765160784	-0.9561528941	 0.098119
H	 0.7303010701	-2.6527780841	-0.1964193713	 0.066795
H	 2.9953176244	-3.1341553999	 0.5796624187	 0.089212
H	 3.4101263426	-1.4183829656	 0.5258405299	 0.096462
H	 1.9515081726	-2.8814205662	 2.7808449518	 0.098621
H	 3.1477598371	-1.6027208293	 2.9039475716	 0.094208
H	 0.5470493707	-0.6208656866	 4.3566025212	 0.123125
H	 1.784881293	 0.50983872	 3.8308627231	 0.118794
H	 0.1074246215	 0.7193664008	 3.288755686	 0.121362
