17
gdb 124650	4.35677	1.01883	0.91595	2.7661	70.79	-0.2589	-0.0028	0.2561	1298.2527	0.135406	-455.152604	-455.144054	-455.14311	-455.186478	30.798	
C	 0.1299543819	 1.5004024072	 0.0591051501	-0.400673
C	-0.0033035913	-0.017174374	 0.0300827986	 0.127623
C	-1.4382738325	-0.49941391	-0.1062325629	-0.393526
O	 0.6936994164	-0.5527400878	-1.1411288548	-0.270389
C	 1.9967264293	-0.6907191588	-1.1034608533	 0.533905
N	 2.7397415543	-1.1348316331	-2.0782881784	-0.368577
C	 3.9796701192	-1.0850246076	-1.5023769601	 0.058915
N	 4.0376387249	-0.6491047814	-0.2737110905	-0.136775
O	 2.6722471885	-0.3737067559	 0.009840131	-0.222854
H	 1.1756923656	 1.8035926993	 0.1441709398	 0.145016
H	-0.2958062441	 1.9386358566	-0.848437765	 0.133553
H	-0.4101556233	 1.900318596	 0.9225670874	 0.128477
H	 0.4618232952	-0.4549646355	 0.9182637632	 0.119308
H	-1.8925475459	-0.1010006383	-1.0181656875	 0.136165
H	-1.4796023469	-1.5905541475	-0.1460614951	 0.13509
H	-2.025753832	-0.1593335808	 0.7511007944	 0.12749
H	 4.8801250306	-1.3863730584	-2.0192442368	 0.147253
