23
gdb 101349	2.96284	0.87592	0.81239	1.1823	83.77	-0.2414	0.0905	0.3319	1576.1715	0.202643	-425.390462	-425.37953	-425.378586	-425.427227	38.857	
C	-1.2647486998	 1.1289469491	 0.2214162346	-0.233576
O	-0.7998405478	-0.1979938166	 0.1843513334	-0.250274
C	 0.552717804	-0.3662838836	 0.6002597672	 0.136828
C	 0.7133117426	-0.2479835649	 2.1192858975	-0.409026
C	 0.9822506677	-1.7297647409	 0.1066711309	-0.048137
C	 1.4823948772	-1.9024124644	-1.3132065997	-0.338289
C	 2.4286786981	-2.0254451741	-0.1431398281	 0.11476
O	 3.3398588678	-1.0021425914	 0.1152119488	-0.237
C	 4.5116183106	-1.0952842125	-0.6693632843	-0.230838
H	-0.6174771437	 1.8043059519	-0.361421509	 0.098505
H	-2.2637578039	 1.1326627287	-0.2229211503	 0.122928
H	-1.34070382	 1.5290209364	 1.2434706651	 0.103621
H	 1.1788959762	 0.3993221955	 0.1176769492	 0.06889
H	 0.3964548031	 0.7331438928	 2.4846863966	 0.109777
H	 0.1155160079	-1.0117124657	 2.6275926446	 0.114842
H	 1.7644911371	-0.3845221856	 2.3877751036	 0.133462
H	 0.3924288477	-2.5430768233	 0.5211275932	 0.090235
H	 1.2068928487	-2.7922908046	-1.8682923821	 0.110001
H	 1.5596477662	-0.9992526499	-1.9098148507	 0.117464
H	 2.8010555022	-3.0201143164	 0.1091408501	 0.082641
H	 5.0506322981	-2.0359968085	-0.4797754688	 0.106316
H	 4.2859651894	-1.0371974942	-1.7436839403	 0.110491
H	 5.1544916705	-0.2571890078	-0.3902081916	 0.126377
