16
gdb 74725	2.48284	1.79992	1.23695	4.4632	74.15	-0.25	-0.0157	0.2343	1011.5491	0.124009	-400.716633	-400.708913	-400.707969	-400.748766	29.574	
C	-0.0789221197	 1.4618980996	 0.0318165393	-0.516647
C	-0.0311453433	-0.0213050879	-0.0324992739	 0.327645
C	-0.0074237619	-0.9100956067	-1.0287453218	-0.208537
C	 0.0478182464	-2.2463788228	-0.2735476793	 0.002502
C	-1.057049347	-2.0516373449	 0.8053756651	-0.251956
C	 0.0202557325	-0.9861870207	 1.1933192404	 0.22653
O	 1.0384326897	-1.9504268047	 0.7801482737	-0.303288
C	 0.1632591464	-0.4350311507	 2.5252591852	 0.171167
N	 0.2438248808	 0.0307416876	 3.5794980258	-0.339476
H	 0.792486583	 1.8626445876	 0.5634178304	 0.151967
H	-0.1031431935	 1.8984098462	-0.9697049733	 0.135072
H	-0.9633829039	 1.809307541	 0.5797234952	 0.143387
H	-0.0220293071	-0.7608122243	-2.0980950202	 0.119978
H	 0.2217035949	-3.1804921113	-0.8020769407	 0.098349
H	-2.0423819715	-1.7001411227	 0.497031532	 0.114517
H	-1.1060870557	-2.8698940652	 1.5261889421	 0.12879
