20
gdb 104338	3.08597	1.23565	1.11519	2.844	74.65	-0.2447	0.0281	0.2727	1161.6693	0.17141	-440.293613	-440.284521	-440.283577	-440.327109	34.063	
C	-0.0789402907	 1.6000611403	 0.0177611478	-0.4195
C	-0.0188432041	 0.0628619481	-0.0045741878	 0.195483
C	-1.4327168602	-0.5253059582	-0.0122461284	-0.112408
O	-2.1126815941	-0.0689526494	-1.1735452363	-0.427585
C	 0.7352957761	-0.4270439836	-1.2490168265	-0.080643
O	 2.1207239866	-0.050580453	-1.216935014	-0.227801
C	 2.7174161591	-0.1265003655	-0.0043075519	 0.123556
N	 2.2026461929	-0.3304832332	 1.1318381326	-0.273157
C	 0.7525183774	-0.4782453454	 1.2184507003	-0.186234
H	 0.9210405649	 2.0387067636	-0.0225523847	 0.129187
H	-0.6564074337	 1.9718745978	-0.8317407306	 0.132522
H	-0.5618173179	 1.9506410903	 0.9361446539	 0.109438
H	-1.3721193641	-1.6260881938	-0.0016077682	 0.086032
H	-1.9573999136	-0.2151783292	 0.9058648608	 0.091444
H	-3.0095866147	-0.4143418567	-1.157105083	 0.291699
H	 0.6780552988	-1.521602274	-1.3214405997	 0.102371
H	 0.32734605	 0.0016843593	-2.1647467427	 0.132444
H	 3.7893834479	 0.0327849091	-0.108859342	 0.121464
H	 0.4198880973	 0.0350462757	 2.1286470177	 0.108491
H	 0.5259012719	-1.543189812	 1.3714941828	 0.103195
