21
gdb 87431	4.12075	1.21598	1.10853	0.1025	88.15	-0.249	0.0971	0.3461	1188.8626	0.182855	-349.86211	-349.854343	-349.853399	-349.894113	31.611	
C	-0.0585827822	 1.551280655	-0.0880979733	-0.402605
C	 0.0048357199	 0.0400059833	-0.0299836531	-0.092759
C	 1.3344594697	-0.6777953094	-0.253444271	-0.38808
C	 0.6858504726	-0.6687345423	 1.0943634697	 0.430539
C	 1.1794037272	-0.2062624347	 2.463643708	-0.147985
C	-0.0894372757	-0.7921595532	 3.1847408412	-0.026208
C	 0.7605189239	-1.5741736629	 4.2050775005	-0.27741
C	 1.5529645392	-1.6745197352	 2.8869885365	-0.025208
C	 0.2458291632	-1.7970530494	 2.0217041783	-0.15146
H	 0.8375999734	 1.999320007	 0.3541270283	 0.111952
H	-0.1308903149	 1.9080787011	-1.121796778	 0.114171
H	-0.9253305668	 1.9385069765	 0.4596173941	 0.114041
H	-0.8646382516	-0.4630345658	-0.4494866667	 0.077933
H	 1.3330642296	-1.5963104402	-0.832663182	 0.105158
H	 2.2142649063	-0.0586296493	-0.4069653092	 0.104856
H	 1.7191711187	 0.6994627603	 2.7446234129	 0.067692
H	-1.0390878462	-0.2737066476	 3.3251256191	 0.068786
H	 1.2184784522	-0.9943549939	 5.0131745258	 0.090104
H	 0.3325242841	-2.5034465836	 4.5952025341	 0.090151
H	 2.5013659083	-2.1734674636	 2.6829255986	 0.069594
H	-0.2914346309	-2.7183992722	 1.7899228662	 0.066738
