19
gdb 127150	4.31268	0.94511	0.90725	3.4873	77.41	-0.235	0.0131	0.2481	1358.349	0.16135	-415.401623	-415.392898	-415.391954	-415.435546	31.763	
C	 0.370490159	 1.2899592479	-0.091353286	-0.326908
N	-0.0695813422	-0.0987318381	 0.0023624573	-0.076595
C	 0.5463570399	-0.7714813255	 1.1383482792	-0.316369
C	-1.5272401948	-0.2068361883	 0.0237701513	-0.266421
C	-2.1071323298	 0.0286182185	-1.3367079646	 0.364121
N	-3.301766605	 0.5088924621	-1.6379885979	-0.324313
C	-3.3139398228	 0.4541447186	-3.0002221541	 0.018012
N	-2.2115328352	-0.0178015141	-3.5587688401	-0.21401
N	-1.4515944526	-0.2903533829	-2.4709486949	-0.210489
H	 1.4579752474	 1.3237253664	-0.2060829587	 0.122319
H	-0.0806417164	 1.7692762836	-0.9641099862	 0.134605
H	 0.0999500428	 1.8824298685	 0.8018880705	 0.103276
H	 0.2690393365	-0.3243913195	 2.1107923712	 0.101143
H	 0.254511002	-1.8259281652	 1.1522448051	 0.122337
H	 1.6353243769	-0.7202410253	 1.0448604201	 0.123202
H	-1.7873521466	-1.2225807486	 0.3460630285	 0.126534
H	-2.0115187542	 0.4826038677	 0.7362730028	 0.117541
H	-4.1559330271	 0.7762441731	-3.5946417354	 0.123189
H	-0.5138429278	-0.6481420988	-2.554531528	 0.278826
