21
gdb 115359	3.09034	1.09146	0.96937	2.539	80.92	-0.2471	0.0138	0.261	1313.7293	0.183167	-424.232331	-424.223333	-424.222389	-424.266058	34.416	
C	 0.0135965363	 1.5765826097	-0.035412088	-0.386752
C	 0.0645889592	 0.0383884917	-0.0408756511	-0.03119
C	 0.8296153089	-0.5066027481	-1.2547766705	-0.091122
O	 2.2281096428	-0.319012578	-1.0964768886	-0.283275
C	 2.7807256015	-1.0865857288	-0.0313510136	 0.059745
C	 4.1860226017	-0.5176666635	 0.1836347483	-0.0618
O	 4.9483864418	-0.5729219701	-1.0022432631	-0.426248
C	 1.9334498816	-1.0298041459	 1.2089322289	-0.076641
C	 0.7108126487	-0.5029634795	 1.2120499819	-0.083109
H	 1.0270031407	 1.9838405013	-0.0932274654	 0.130062
H	-0.5603707463	 1.9525932156	-0.8891977253	 0.110771
H	-0.4532652597	 1.9562276641	 0.8788059893	 0.113268
H	-0.9655805335	-0.3413693177	-0.094073507	 0.077511
H	 0.6056182726	-1.5758671829	-1.3939761723	 0.092532
H	 0.5522968405	 0.022435241	-2.1717143636	 0.10323
H	 2.8917691864	-2.1355252448	-0.3639993265	 0.080943
H	 4.0916895875	 0.512121699	 0.5638097077	 0.091401
H	 4.7136744218	-1.1112060397	 0.9375984857	 0.103883
H	 4.3880310943	-0.193688308	-1.6900127459	 0.291518
H	 2.3708752222	-1.4442278318	 2.114003006	 0.093818
H	 0.138718221	-0.4485327636	 2.1352187628	 0.091456
