19
gdb 30205	3.69873	1.33067	1.12619	1.4391	82.44	-0.1694	0.0512	0.2205	1124.6089	0.162719	-382.104099	-382.0963	-382.095355	-382.136088	31.318	
C	 0.2706682002	 1.4722261799	 0.0702626646	-0.392333
C	-0.0676881707	-0.0184360781	-0.0382977898	 0.042371
C	 0.6016480231	-0.6773977466	-1.2921105249	-0.373072
C	 1.8400040684	-1.280197962	-0.695356946	 0.273281
C	 3.0468802041	-1.8537284851	-1.0086847515	-0.24303
N	 3.6347233352	-2.2227912876	 0.1785409585	-0.243717
C	 2.818837392	-1.8948170764	 1.2563940427	-0.24009
C	 1.702061956	-1.3103760515	 0.7139218552	 0.272317
N	 0.4559180968	-0.7973963242	 1.1218844114	-0.417249
H	 1.3559055946	 1.6206098231	 0.0759697455	 0.127161
H	-0.1484775627	 2.0314092824	-0.7733200211	 0.112397
H	-0.1403145431	 1.9035689237	 0.9902371374	 0.105986
H	-1.1558439513	-0.1356524108	-0.0785197394	 0.072574
H	-0.05867761	-1.442825476	-1.7190252273	 0.108297
H	 0.781887075	 0.0655362903	-2.0759313869	 0.101731
H	 3.5425584016	-2.0322085129	-1.9495036991	 0.113076
H	 4.5453988423	-2.6365879099	 0.2612844904	 0.254648
H	 3.1217746575	-2.1044838922	 2.2683213539	 0.10648
H	 0.4735258211	-0.2551636062	 1.9771299465	 0.219172
