15
gdb 52992	3.329	1.00872	0.83855	2.9286	78.52	-0.241	-0.0318	0.2092	1375.1505	0.109621	-420.576559	-420.567742	-420.566798	-420.612157	30.822	
C	 0.0091313629	 1.5104662215	-0.0811156153	-0.513893
C	-0.0448430028	 0.0596028425	-0.0204809982	 0.278337
C	-0.0913966281	-1.1438654502	 0.0189315229	-0.211678
C	-0.0840948948	-2.5551077074	 0.1287791048	 0.212513
O	-0.4047014654	-3.3884953993	-1.0262812523	-0.276867
C	-1.1590341997	-3.5986878	 0.1539759873	-0.064404
C	-0.3455231909	-4.5706369802	 1.0151144181	-0.367992
C	 0.7744430033	-3.48512866	 1.0107956575	 0.336383
O	 1.8051608202	-3.3544717705	 1.5922782952	-0.278268
H	 0.918085294	 1.8881734104	 0.3992165108	 0.16111
H	 0.0098786643	 1.8594161504	-1.1193807688	 0.159797
H	-0.8508818849	 1.9628529925	 0.4245077603	 0.155217
H	-2.2292040685	-3.4360346472	 0.1201662345	 0.13052
H	-0.7199233939	-4.721064255	 2.0323514767	 0.137714
H	-0.1185727556	-5.5317646874	 0.5504579464	 0.141511
