20
gdb 120377	3.06917	0.96121	0.79086	1.9621	75.34	-0.2465	0.02	0.2666	1454.3567	0.171045	-440.297848	-440.288363	-440.287418	-440.333773	34.002	
C	-0.3237560919	 1.5420445199	-0.0896237692	-0.401923
C	 0.0691993595	 0.0743646738	-0.0561752526	 0.092737
O	 1.0983241775	-0.1552973837	-1.0660133487	-0.232262
C	 2.1062269869	-0.7868625648	-0.4282554041	 0.11723
N	 2.0216502263	-1.0407945009	 0.8092181779	-0.2738
C	 0.7176383288	-0.4977818825	 1.252953811	-0.014261
C	 0.9138208098	 0.4821861138	 2.4155286612	-0.202402
C	 1.4655116896	-0.2071294658	 3.6669012121	-0.069011
O	 1.5911870485	 0.6856002798	 4.7646653467	-0.421637
H	 0.5175227926	 2.1890409393	 0.1717861561	 0.128668
H	-0.6639274937	 1.8120250303	-1.0930027814	 0.129372
H	-1.1419134305	 1.7368813432	 0.6098304369	 0.126503
H	-0.7881331855	-0.539770343	-0.351182661	 0.095575
H	 2.9511692275	-1.0337393776	-1.0626012274	 0.139322
H	 0.1105460948	-1.3354596745	 1.6183491478	 0.088307
H	 1.6031942419	 1.2801057531	 2.1102415858	 0.089929
H	-0.0386929138	 0.9580747881	 2.6744082155	 0.103967
H	 0.7682005599	-0.9854837123	 3.9979872651	 0.106484
H	 2.4166767102	-0.7013380598	 3.430747344	 0.117043
H	 2.3025739719	 1.3006082635	 4.5608002141	 0.280159
