23
gdb 83869	1.87548	1.82428	1.23642	1.3586	84.55	-0.2421	0.0697	0.3118	1154.3911	0.207633	-388.28369	-388.274837	-388.273893	-388.31667	34.892	
C	-0.3333753473	 1.5660684004	-0.2021665271	-0.42069
C	-0.0179167076	 0.090655485	-0.0714857641	-0.009428
C	 1.3394041066	-0.5239964014	-0.3685279342	-0.093905
C	 2.5797320512	 0.3353897254	-0.5908375958	-0.100861
O	 3.3688878444	 0.5051872236	 0.5788972605	-0.240473
C	 2.6281403514	 1.086910278	 1.6305694935	-0.096474
C	 1.5307199805	 0.1440526934	 2.1599017179	-0.002215
C	 0.616009994	 0.8523389853	 3.1661457828	-0.400894
C	 0.7737515274	-0.5635630513	 1.0393593815	-0.044634
H	 0.4771735252	 2.2163436763	 0.1299449578	 0.122316
H	-0.5484623384	 1.8210745486	-1.2466136491	 0.115375
H	-1.2202344132	 1.8245149144	 0.3867360749	 0.118881
H	-0.8461918577	-0.527412963	-0.4127445054	 0.081165
H	 1.3334038108	-1.4542474667	-0.92772841	 0.083389
H	 3.2370080065	-0.1474510652	-1.318429037	 0.107153
H	 2.3145461298	 1.3253305939	-0.9971902203	 0.087791
H	 3.3438354624	 1.3013477861	 2.4309022457	 0.104118
H	 2.2011993701	 2.0525750603	 1.3111872932	 0.084652
H	 2.0652446284	-0.6527220715	 2.694751123	 0.081404
H	 0.061576306	 1.6711291369	 2.6968945753	 0.118864
H	-0.1155577545	 0.1560965174	 3.5885280319	 0.113931
H	 1.194207173	 1.272031433	 3.9973854047	 0.10986
H	 0.3759687108	-1.524322489	 1.3568905002	 0.080673
