19
gdb 66797	3.28414	1.92562	1.92542	0.1159	80.83	-0.2515	0.0699	0.3215	853.4822	0.160819	-348.645191	-348.639	-348.638056	-348.675235	27.195	
C	-0.0178700815	 1.5339617721	 0.0118733441	-0.534922
C	 0.0017540623	 0.0334654061	 0.0023011662	 0.399608
C	 0.6455546408	-0.8667632011	-1.1198312702	-0.125479
C	-0.6252223239	-1.7882064595	-1.1149655237	-0.056837
C	 0.0372087793	-2.6929280829	-0.0150144807	-0.056417
C	 1.3078265303	-1.7694540228	-0.0200088905	-0.05666
C	 0.6644367204	-0.8801838923	 1.1024156792	-0.125744
C	-0.6064445479	-1.8014642289	 1.1067100123	-0.056491
C	-1.2691005713	-0.8988022029	 0.0070609899	-0.125741
H	 0.9989143737	 1.9457648532	 0.0058999202	 0.114584
H	-0.5417080168	 1.9313945461	-0.8662524535	 0.114595
H	-0.5264365421	 1.9199088105	 0.9040166864	 0.114588
H	 1.1461803831	-0.4855722286	-2.0099292411	 0.054999
H	-1.1410750573	-2.1527195371	-2.0021002851	 0.057465
H	 0.0515612916	-3.7819177567	-0.0215243149	 0.057562
H	 2.3390725274	-2.119306289	-0.0311638705	 0.057411
H	 1.1798125083	-0.510232064	 1.9888042334	 0.055046
H	-1.1076742014	-2.1770252016	 1.9976345575	 0.057412
H	-2.2994327751	-0.5432121109	 0.0180951609	 0.055021
