18
gdb 24120	5.06872	0.98289	0.85343	2.3395	77.84	-0.216	0.0328	0.2488	1332.166	0.151067	-398.141458	-398.13367	-398.132725	-398.174446	29.451	
C	 0.2139562417	 1.1582800086	 0.7719136313	-0.340501
C	-0.0286936572	-0.0620974299	-0.0866600736	 0.018194
C	-1.38767953	-0.5176033361	-0.4485938936	-0.251623
N	-0.5244621717	 0.1089881682	-1.4736449666	-0.331678
C	 1.4757741645	 1.8776749632	 0.3910779537	 0.351378
N	 2.1787413222	 2.6770290482	 1.1643030459	-0.312349
C	 3.2216659807	 3.1242294891	 0.3852764421	-0.091485
C	 3.1507841974	 2.5863736503	-0.8715420662	-0.113032
N	 2.0263741101	 1.7906507507	-0.8581252293	-0.271731
H	-0.6482265893	 1.8362440772	 0.6883362525	 0.113067
H	 0.2856960949	 0.8845430743	 1.8295976846	 0.139517
H	 0.7486910963	-0.8209688706	-0.0186363105	 0.105162
H	-1.5840630404	-1.5747901312	-0.5991071438	 0.126087
H	-2.2352115536	 0.0523198556	-0.0772025443	 0.118987
H	-0.8312211462	 1.0726365731	-1.5986241683	 0.231598
H	 3.9640947389	 3.8032074965	 0.7763780923	 0.104353
H	 3.7733626285	 2.6803821504	-1.7454881841	 0.1249
H	 1.6804849731	 1.2169062926	-1.6117232023	 0.279156
