18
gdb 13774	3.49945	1.46881	1.2207	4.5207	73.84	-0.2152	0.0292	0.2443	1039.9296	0.15339	-343.963754	-343.955155	-343.95421	-343.996985	31.378	
C	 1.0161224693	-0.2895088757	-1.0012944742	-0.352383
N	 0.0074144087	 0.0924840388	-0.0231564039	-0.059106
C	-0.1108002315	 1.541313597	 0.0831542108	-0.328395
C	-1.2724809412	-0.5434506485	-0.1329332158	 0.080419
C	-1.8011347167	-1.2858300311	-1.3313164208	-0.321582
C	-1.5050715896	-2.0523107919	-0.0386914986	-0.208086
C	-0.4359060761	-3.0056421333	 0.0101650134	 0.302889
N	 0.4155326013	-3.7885333395	 0.0624000858	-0.351485
H	 1.9729628905	 0.1508807743	-0.7066591134	 0.126743
H	 1.1481108489	-1.3721135469	-1.0238510562	 0.156787
H	 0.7832309212	 0.0615149991	-2.0232563385	 0.096078
H	-0.4678011915	 2.0237745394	-0.8452523345	 0.099896
H	-0.7984452012	 1.8041815838	 0.8924926212	 0.122178
H	 0.8689655276	 1.963536479	 0.3253366503	 0.125516
H	-2.0213204029	 0.0049581658	 0.4294009021	 0.107471
H	-2.8406255716	-1.1796813424	-1.6210171955	 0.126522
H	-1.12134914	-1.471193527	-2.1540848114	 0.1424
H	-2.360591495	-2.3491159408	 0.5592268994	 0.134137
