19
gdb 65824	2.44884	1.29704	1.17428	2.7804	80.61	-0.2386	-0.0166	0.222	1165.7442	0.157381	-385.897431	-385.888406	-385.887462	-385.931031	34.694	
C	-0.0970744086	 1.5652264002	-0.0158174986	-0.434919
C	 0.027260724	 0.0324335479	 0.0065178823	 0.072501
C	 0.8507066211	-0.5146156487	-1.2044243514	-0.238012
C	 1.3028990722	-1.9140343294	-0.7718548601	-0.324834
C	 1.4592748355	-1.8203141903	 0.7505187925	 0.411331
O	 1.9865273189	-2.6357353128	 1.4599732959	-0.310609
C	 0.839685324	-0.4976318392	 1.2172104181	-0.343199
C	-1.3069985788	-0.5761325563	 0.0049351099	 0.353878
C	-2.4007343674	-1.0760439663	 0.0026959581	-0.508081
H	 0.8966319489	 2.0249952051	-0.0053690706	 0.113812
H	-0.62245244	 1.8977442649	-0.9158971432	 0.126815
H	-0.6545162325	 1.9266845139	 0.8527317727	 0.128872
H	 0.2673269127	-0.5058624748	-2.12718949	 0.114474
H	 1.719471221	 0.1378990394	-1.3509075756	 0.102597
H	 0.5258926329	-2.6608151491	-0.9751114502	 0.144994
H	 2.2246870923	-2.268116734	-1.2386053107	 0.127653
H	 1.664777074	 0.192225753	 1.4403032448	 0.125882
H	 0.2597001609	-0.626893143	 2.1322767005	 0.136563
H	-3.3676427411	-1.5155198205	 0.0041453358	 0.200282
