19
gdb 36902	4.24517	0.94684	0.89976	2.1963	74.95	-0.2511	0.0915	0.3426	1335.2138	0.158735	-422.958486	-422.950327	-422.949383	-422.992147	30.651	
C	 0.0431299885	 1.5210425737	 0.413596001	-0.241365
C	-0.0753052214	 0.0292114539	 0.2123679342	 0.100327
C	-1.3070111432	-0.6043467028	-0.2733856796	-0.182416
O	-0.1827315425	-0.4350244471	-1.1388283263	-0.231701
C	 1.4302810036	 2.0600774522	 0.0721363152	-0.012138
C	 1.8926360715	 2.0439514181	-1.437055653	-0.264035
C	 2.0286138243	 3.5684805494	-1.3603866821	 0.034724
O	 0.7435948165	 4.0921975455	-0.9956383719	-0.245804
C	 1.5920560219	 3.592461489	 0.0444686271	 0.001562
H	-0.6979737592	 2.0325136017	-0.2088193577	 0.12005
H	-0.1934612781	 1.751552833	 1.4618823255	 0.097249
H	 0.5924081973	-0.580327489	 0.8258563657	 0.087164
H	-1.5359990115	-1.6335783083	-0.0001013163	 0.112613
H	-2.1713099557	 0.0172449167	-0.5044360939	 0.11509
H	 2.1950693795	 1.6010129876	 0.7081225773	 0.074676
H	 2.8450508867	 1.5271306056	-1.5750872027	 0.104267
H	 1.166073924	 1.6711395342	-2.1605652742	 0.129975
H	 2.6919085406	 4.2312020682	-1.9039655841	 0.102765
H	 1.8283038371	 4.2714664984	 0.8565789557	 0.096996
