17
gdb 85367	3.01421	1.3467	1.09529	2.2838	70.97	-0.2426	-0.0533	0.1893	1102.5627	0.136063	-458.991293	-458.983011	-458.982067	-459.024064	31.706	
O	-0.1686415928	 1.413921182	-0.1465111041	-0.443585
C	-0.0252004727	-0.0014931634	-0.0118932709	 0.049294
C	 0.7382015105	-0.3701456445	 1.2616513086	-0.356737
C	 0.0127607376	 0.0723754776	 2.5315444219	 0.398154
O	 0.6181478677	 0.4111806976	 3.5272753277	-0.333305
C	-1.4632769181	 0.0218040359	 2.4825034839	-0.150121
C	-2.1252958673	-0.2620026319	 1.3555493716	-0.073691
C	-1.4612846288	-0.5473355045	 0.0276080135	 0.099713
O	-2.2229126476	-0.0352203323	-1.0480707302	-0.442316
H	 0.6888252506	 1.7936608467	-0.3587717185	 0.296595
H	 0.4801335057	-0.4124107216	-0.896556448	 0.082516
H	 0.8539951421	-1.4624446479	 1.3064911149	 0.128904
H	 1.745515929	 0.0569274845	 1.2697293602	 0.117485
H	-1.9758400266	 0.2429213446	 3.4135352019	 0.110746
H	-3.2119707009	-0.2920317224	 1.3352432218	 0.118707
H	-1.4216973582	-1.6359435754	-0.1185263886	 0.104696
H	-1.9926793702	 0.9024162449	-1.1001143956	 0.292948
