13
gdb 17936	3.3357	2.57709	2.0374	2.9472	58.62	-0.2177	-0.062	0.1557	687.8951	0.093877	-398.444202	-398.43794	-398.436996	-398.474113	24.814	
O	-0.2323243903	 1.5000670064	-0.0443721003	-0.454049
C	-0.1022737129	 0.1394889229	-0.000367798	 0.30082
C	-1.112005186	-0.9026157548	-0.2360807873	-0.142897
C	-0.755481682	-1.5387360878	-1.6040861826	-0.174664
N	 0.749943634	-1.6265558813	-1.5440902206	-0.21689
C	 1.0003783758	-0.852451866	-0.5762894059	 0.170776
O	 1.3829866537	-1.3333963259	 0.6909749069	-0.263268
C	-0.0094354396	-0.9000435337	 1.0149974582	-0.022454
H	 0.5240565459	 1.8998481384	 0.4017242691	 0.299102
H	-2.1405732373	-0.786958069	 0.0997930081	 0.10476
H	-1.0868532978	-2.5762256435	-1.702979496	 0.138891
H	-1.1707116222	-0.9616425852	-2.4433537918	 0.121971
H	-0.3004630012	-1.0091765205	 2.0528076202	 0.137902
