19
gdb 110568	3.67926	1.18923	1.05252	1.9907	76.45	-0.2404	0.0773	0.3177	1195.3892	0.158286	-422.937328	-422.929069	-422.928124	-422.970182	31.837	
C	-0.2543734557	 1.3283742063	 0.0936815303	-0.240136
O	 0.3747843195	 0.0886455441	-0.1377390792	-0.259393
C	 0.8645720648	-0.509645556	 1.0325442592	 0.145039
C	-0.1039843638	-1.3451289983	 1.9035491239	-0.167145
C	-0.0839599376	-2.5400975309	 0.8903251465	-0.041541
C	 0.2892349555	-3.5746805685	 1.9744684272	-0.329196
C	 1.077513003	-2.2999838125	 2.3364645759	 0.389523
O	 2.0025163764	-2.0930351881	 3.342215033	-0.473795
C	 1.3683345129	-1.9441789135	 0.8478321484	-0.125977
H	 0.4289950783	 2.0477529127	 0.5720904544	 0.103739
H	-0.5603927239	 1.7261360088	-0.8770014739	 0.125328
H	-1.1458132051	 1.226594332	 0.7311591229	 0.103917
H	 1.5273812624	 0.1785308315	 1.5778554421	 0.069662
H	-0.948617569	-1.0391885001	 2.523281194	 0.065051
H	-0.7439339861	-2.6573418458	 0.0368334644	 0.090811
H	-0.5097758983	-3.8784846251	 2.6599187885	 0.086267
H	 0.8764007868	-4.4402905682	 1.6514065411	 0.097277
H	 1.5625523851	-2.2149306742	 4.1905687512	 0.283873
H	 2.2014238048	-2.3135534441	 0.2495956301	 0.076696
