13
gdb 129570	3.31219	1.23407	0.93928	2.1088	62.74	-0.2868	-0.0657	0.2212	1145.8947	0.089941	-448.878819	-448.870958	-448.870014	-448.912479	27.504	
N	-0.2805152905	 1.5801488338	-0.1197504648	-0.487823
C	 0.006251517	 0.1528706004	-0.0462938357	-0.249088
C	-1.2194303361	-0.5943615963	 0.290383044	 0.303249
N	-2.1650912177	-1.2092187457	 0.5366287998	-0.308021
C	 0.6484578328	-0.4652902533	-1.2781895831	 0.335658
N	 1.2256861535	 0.2772906815	-2.1826347156	-0.153935
O	 1.7250303144	-0.5857109424	-3.1129815834	-0.141657
N	 1.45225002	-1.8828694177	-2.7857461048	-0.051453
C	 0.7929485967	-1.8298579418	-1.6628082013	-0.100193
H	 0.5856394733	 2.0772341434	-0.3062582212	 0.259862
H	-0.8906931269	 1.7665764923	-0.9109323156	 0.254053
H	 0.6979412551	 0.0027418354	 0.7947662439	 0.166465
H	 0.4376721485	-2.7250176396	-1.1766556123	 0.172884
