21
gdb 94202	2.75258	1.20419	1.09019	1.557	78.14	-0.2466	0.0836	0.3302	1228.7626	0.180891	-424.186839	-424.177406	-424.176461	-424.221597	34.921	
C	-0.5130841937	 1.3599407976	 0.1171613659	-0.414715
C	 0.1815069855	 0.0216710286	-0.0184804788	 0.130293
O	 1.4083818662	 0.0969822634	-0.7829165835	-0.294521
C	 2.1046262443	-0.7245501827	 0.1696158571	-0.115345
C	 0.9336893099	-0.6486621571	 1.1837914151	 0.240311
C	 1.2130433583	 0.2580773293	 2.3778928808	-0.481266
C	 0.3536493283	-1.9907568373	 1.5699955191	 0.02843
C	 0.545809965	-2.6572805725	 2.8656684994	-0.195059
O	-0.6881321309	-2.0078546623	 2.5515207903	-0.239634
H	 0.13631052	 2.114390133	 0.5672585771	 0.120824
H	-0.8097039476	 1.7180728363	-0.8739108223	 0.128714
H	-1.4172500238	 1.260443387	 0.7268481761	 0.126207
H	-0.5102224847	-0.6942062891	-0.4893374789	 0.068826
H	 2.3070923211	-1.7314366166	-0.223442992	 0.092632
H	 3.0504865659	-0.2735817746	 0.4925387977	 0.10121
H	 1.5593149459	 1.2406299375	 2.0492217616	 0.125355
H	 0.3173604747	 0.3877578843	 2.9911410243	 0.137887
H	 2.0008273929	-0.1660011994	 3.0091674555	 0.115045
H	 0.1493704055	-2.640184709	 0.7151647771	 0.092184
H	 0.5012261704	-3.7445804167	 2.9155606177	 0.116637
H	 1.1343665166	-2.1841061396	 3.6481876406	 0.115984
