15
gdb 18780	4.13153	2.4377	2.1466	1.2069	62.76	-0.2124	0.068	0.2804	680.8541	0.12019	-362.552944	-362.54726	-362.546316	-362.58227	23.845	
O	-0.0108459795	 1.3274423968	 0.0910567163	-0.462081
C	 0.0875520903	-0.0425312762	 0.0592620348	 0.390488
C	-1.0454307173	-1.0403696502	 0.1637195211	-0.164368
C	-0.2807355013	-0.9324986861	-1.13401307	-0.111635
N	 0.5446865079	-2.1615413534	-0.9296672155	-0.155625
C	 1.882938304	-1.6357669459	-0.4577676867	-0.185439
C	 1.1400893134	-0.9768992917	 0.720023247	-0.149745
C	 0.0392115488	-2.0767354275	 0.5298566502	 0.000141
H	 0.5699603043	 1.6967075866	-0.5840924351	 0.287728
H	-2.0980680134	-0.9408576863	 0.3873424658	 0.101864
H	-0.5908443389	-0.5641445026	-2.1041448241	 0.092118
H	 2.5144962326	-2.4778069077	-0.1602815599	 0.108133
H	 2.416972571	-1.0042097886	-1.1761174711	 0.092766
H	 1.5850550313	-0.6867371499	 1.6712021646	 0.074538
H	-0.064676603	-2.9927387673	 1.1078428226	 0.081117
