16
gdb 71538	2.58652	1.5782	1.44988	4.1071	75.28	-0.2515	0.0027	0.2542	975.0042	0.125291	-396.841634	-396.834114	-396.83317	-396.873406	29.44	
N	 0.2198116477	 1.4230185276	-0.110614319	-0.616169
C	 0.0840865229	 0.0192473861	-0.0934749888	 0.275536
C	 0.508638318	-0.9794762786	-1.1598020934	-0.216694
N	 0.0024783945	-1.9342334552	-0.0823091717	-0.163241
C	 0.5497541078	-0.9733730652	 1.011825628	-0.043029
C	-0.7861908177	-1.0027414047	 1.7591759866	-0.31157
C	-1.1501393622	-0.9657831615	 0.2703522296	 0.198346
C	-2.4330673539	-1.0345495606	-0.3684461042	 0.159947
N	-3.4645226985	-1.0317810869	-0.8939350095	-0.347754
H	-0.0845351164	 1.8567750776	 0.7549273575	 0.241011
H	-0.2903868512	 1.846164004	-0.8791777741	 0.247162
H	-0.065516671	-1.0280713669	-2.0897615545	 0.120756
H	 1.5805387968	-1.0802866876	-1.3540379108	 0.114902
H	 1.564160262	-1.1057169918	 1.3873102173	 0.100752
H	-1.0252723851	-1.9340910368	 2.2768658926	 0.129819
H	-1.0520282436	-0.1268360394	 2.3546269342	 0.110226
