18
gdb 8446	4.13178	1.77327	1.55827	3.1833	71.75	-0.2318	-0.0032	0.2286	876.2447	0.154909	-347.823449	-347.816499	-347.815555	-347.854176	27.992	
C	-0.0157352915	 1.5205112878	 0.0228538048	-0.49278
C	 0.0125197898	 0.0100802854	 0.0265715023	 0.337223
C	 0.9604910901	-0.8063778434	-0.9094718743	-0.267649
C	 0.7099735556	-1.9505705283	 0.1279445191	-0.126207
C	 0.6532258533	-0.8069139652	 1.1942399087	-0.267651
C	-0.7765096256	-2.1868337859	-0.0891982174	 0.437713
O	-1.3790805683	-3.2222554171	-0.1776191638	-0.336442
C	-1.3219490961	-0.7432414758	-0.1685506825	-0.369943
H	 0.9874363499	 1.935153706	 0.1692018366	 0.11421
H	-0.4032296649	 1.9065492115	-0.9268229749	 0.119314
H	-0.6582396112	 1.9060647757	 0.8226046039	 0.119317
H	 0.6554683182	-0.97057229	-1.9473813177	 0.101678
H	 1.9918457572	-0.4468728767	-0.8713741635	 0.10468
H	 1.3457544138	-2.8280138246	 0.2205786393	 0.080687
H	 1.6523673022	-0.4474706238	 1.4528991361	 0.104678
H	 0.0640935413	-0.9715950144	 2.1014656744	 0.101675
H	-2.057296996	-0.5519624194	 0.6201647661	 0.119746
H	-1.8009421978	-0.5515468918	-1.1345811472	 0.119753
