17
gdb 54318	2.69081	1.45087	1.05338	4.3579	68.77	-0.2517	0.0125	0.2642	1118.6599	0.13581	-455.12461	-455.115824	-455.11488	-455.15835	32.293	
N	 0.6456695409	 0.6088207893	-0.9619039849	-0.543989
C	-0.2326986334	 0.5195337001	 0.0731645022	 0.365928
O	-0.3114048657	 1.3672678556	 0.9461389493	-0.380898
C	-1.1386054632	-0.6939077106	 0.0776664946	 0.197012
C	-1.2777633246	-1.3686733643	 1.4052262439	-0.25843
N	-2.3589960534	-0.5363294979	 0.8838652908	-0.342553
C	-1.2984707012	-1.4769111306	-1.193357176	-0.038051
C	-0.3798391816	-2.5755875819	-1.5538951188	-0.187022
O	-1.6936279204	-2.8376121726	-1.0701251776	-0.216627
H	 1.3002722357	 1.3739004899	-0.9602592606	 0.266566
H	 0.7711375512	-0.1402176223	-1.6194611147	 0.2652
H	-1.4810911859	-2.4343129488	 1.4112086411	 0.139414
H	-0.6723176715	-0.9797514085	 2.2184617878	 0.129523
H	-2.2945178972	 0.383247106	 1.3236114879	 0.249457
H	-1.8032884911	-0.94565093	-2.0016591357	 0.112393
H	-0.2086761597	-2.8197356309	-2.601468694	 0.122073
H	 0.4269005813	-2.8415313525	-0.8716970253	 0.120004
