18
gdb 58748	2.58941	1.46769	1.13959	2.2633	72.25	-0.2477	-0.0042	0.2436	1108.1063	0.146441	-439.024221	-439.015488	-439.014544	-439.057911	32.702	
C	-0.2186014288	 1.4725480519	 0.0329580619	-0.42714
C	-0.0326043763	-0.04317654	-0.020695498	-0.022545
O	 0.6951595036	-0.4602710275	-1.1753813185	-0.429056
C	 0.6285232766	-0.5630646328	 1.2307634279	 0.196505
C	 0.8724310017	-2.0352955906	 1.7020741076	-0.292731
C	 1.64885619	-1.1467694321	 2.7232294403	-0.161808
N	 2.0961830212	-0.2422339436	 1.5711072058	-0.369216
C	 0.3868923199	-0.2660220768	 2.7308657157	 0.489232
O	-0.3709298445	 0.290026784	 3.4566596411	-0.325642
H	 0.7484759592	 1.9705479436	 0.1663285001	 0.129473
H	-0.6775808046	 1.8279756051	-0.8930950427	 0.123597
H	-0.8549425926	 1.7532843708	 0.8774622144	 0.145863
H	-1.0110905826	-0.530413336	-0.1109846292	 0.103183
H	 1.4596948114	 0.1211532448	-1.2557121593	 0.284315
H	 0.0232781896	-2.6334263033	 2.0477172667	 0.114578
H	 1.5235751469	-2.5981324749	 1.0280178641	 0.119996
H	 2.3245780801	-1.4430007279	 3.5223836763	 0.105601
H	 2.6693276592	-0.8249784045	 0.9505979058	 0.215796
