23
gdb 106517	3.01921	1.33411	1.17849	1.5065	84.47	-0.2318	0.0835	0.3153	1188.441	0.207875	-388.299648	-388.291224	-388.29028	-388.332316	33.959	
C	 0.1706066055	 1.5376077301	 0.177977559	-0.387837
C	-0.0733540142	 0.0388461016	-0.0346829838	-0.258957
C	 0.5737706836	-0.5211841037	-1.288949124	 0.427888
C	 0.7261024031	-2.0571886216	-1.4294451879	-0.309503
C	 2.1077384233	-1.6641894405	-1.9877405181	 0.101364
C	 2.0623471323	-1.3324534202	-3.4798121024	-0.197465
C	 0.7013236137	-0.6763093811	-3.81693007	-0.2221
C	 0.1247397748	 0.1146846597	-2.615505905	-0.232141
O	 2.0381430888	-0.4067019196	-1.258280308	-0.333124
H	 1.2425157189	 1.755075403	 0.162581698	 0.137642
H	-0.3088865367	 2.1445516324	-0.5959617779	 0.115595
H	-0.2280862109	 1.8600620441	 1.1444385896	 0.10967
H	 0.3244791078	-0.5170092975	 0.8222592605	 0.097014
H	-1.1504132788	-0.1709175918	-0.0763219844	 0.093274
H	 0.8018734434	-2.5400831167	-0.4532755521	 0.10088
H	 0.0305625242	-2.6064100311	-2.0674164044	 0.094736
H	 2.9818092606	-2.2559530324	-1.7012541972	 0.069473
H	 2.8939802561	-0.6507635444	-3.6890660492	 0.107497
H	 2.2154469375	-2.2309029949	-4.089334505	 0.089911
H	 0.7878447541	-0.0302882749	-4.6955676272	 0.096349
H	-0.0088754314	-1.4626968168	-4.0937789277	 0.101844
H	-0.9693553179	 0.1546845927	-2.6806844947	 0.088646
H	 0.4887925022	 1.1468154038	-2.6248260982	 0.109344
