24
gdb 118037	2.00406	0.98872	0.79566	3.8652	87.32	-0.2381	0.0341	0.2722	1602.7706	0.215331	-405.586879	-405.575481	-405.574537	-405.624315	40.243	
C	-0.079878761	 1.5966189924	 0.0339481587	-0.380414
C	 0.0573693331	 0.0716707577	 0.047583491	-0.176366
C	 0.6890562923	-0.4798474715	-1.2340053519	-0.168918
C	 0.8076529672	-2.015087389	-1.2770080101	 0.004795
C	 1.3422850029	-2.5026313659	-2.6319663486	-0.399438
N	 1.5869942824	-2.5513054168	-0.1584048399	-0.024544
C	 2.9876094838	-2.1923473658	-0.002127774	-0.352792
C	 1.027299302	-3.4192822383	 0.7346423302	 0.152841
O	 1.5916012702	-3.9313258828	 1.6796054987	-0.349916
H	 0.896860227	 2.0817507656	-0.0725858837	 0.114525
H	-0.706868258	 1.9328479677	-0.799391634	 0.114117
H	-0.5328169284	 1.9629680846	 0.9601701097	 0.116422
H	 0.6556190558	-0.236233494	 0.9130776426	 0.112076
H	-0.9319513586	-0.3843622569	 0.1875352901	 0.095515
H	 0.0888909192	-0.1712633383	-2.0995093297	 0.098265
H	 1.6790579895	-0.0292436217	-1.3848788868	 0.097432
H	-0.2010142233	-2.4273924776	-1.1477426439	 0.090028
H	 1.4222324293	-3.5933455735	-2.6484309249	 0.123461
H	 0.6668849726	-2.1947917446	-3.4358355824	 0.120879
H	 2.3288056519	-2.0834261402	-2.8533765615	 0.122512
H	 3.1097349264	-1.1145427673	 0.1514394703	 0.12464
H	 3.3603059104	-2.7217753987	 0.8747831092	 0.169633
H	 3.5764684776	-2.4875472493	-0.8769726201	 0.12525
H	-0.0373155346	-3.6151711657	 0.4993229809	 0.069996
