17
gdb 11705	5.90105	1.34119	1.22882	1.3078	77.1	-0.222	0.0323	0.2543	1014.1136	0.141521	-326.65347	-326.645694	-326.64475	-326.685133	30.058	
C	-0.065045249	 1.5805601044	 0.101039033	-0.407204
C	 0.0462432613	 0.0654818834	 0.011659113	 0.037183
C	 1.111885528	-0.5592200407	-0.9647679869	-0.305842
C	 1.7280885037	-1.3031602061	 0.232764633	 0.240669
N	 2.1420174252	-0.231864786	 1.1909459254	-0.366824
C	 0.7361754785	-0.6742215932	 1.1695763983	-0.12583
C	 2.3214842076	-2.5929236629	 0.250012789	 0.144351
C	 2.8256133461	-3.6864569102	 0.240270116	-0.401548
H	 0.9060210403	 2.0192676547	 0.3447894171	 0.138842
H	-0.4070082859	 2.0045576792	-0.849183438	 0.112649
H	-0.7809065455	 1.8790512344	 0.8750608961	 0.110549
H	-0.9322465321	-0.3840819045	-0.1822386583	 0.078292
H	 0.6702644356	-1.2285016247	-1.704556848	 0.11345
H	 1.7916121414	 0.142023935	-1.4542982187	 0.109087
H	 2.5957407351	-0.699465439	 1.9757374937	 0.236191
H	 0.276113201	-1.098100895	 2.0546598377	 0.099457
H	 3.2700343186	-4.6506020788	 0.2349046176	 0.18653
