16
gdb 11310	4.51693	1.41385	1.26191	1.147	60.22	-0.2506	-0.0374	0.2133	960.2733	0.130049	-420.882142	-420.874465	-420.873521	-420.914892	27.751	
O	-0.1943278272	 1.3769399828	 0.4782691864	-0.437915
C	 0.1500691071	 0.0817978577	 0.0147752057	 0.145042
C	 0.7217555287	-0.7785955516	 1.1437652331	-0.129179
O	-0.4437705846	-1.2070770242	 1.8568557467	-0.2733
C	-1.4083225353	-1.5696423443	 0.8616448877	 0.014227
C	-1.0880353207	-0.7450076602	-0.4047261905	-0.28672
C	-1.350781453	-3.0828225857	 0.6476633715	 0.132641
O	-1.5127741874	-3.6347235927	-0.4086156707	-0.229538
H	-0.6932872082	 1.2616095029	 1.2958592992	 0.285477
H	 0.8528971667	 0.2313182178	-0.8077106686	 0.095651
H	 1.286345612	-1.6386433856	 0.7509284465	 0.099538
H	 1.3527658589	-0.2150505267	 1.8335934592	 0.123587
H	-2.399249766	-1.3513762751	 1.2818948702	 0.110637
H	-1.9011377208	-0.0797315039	-0.6973217553	 0.121335
H	-0.8769259123	-1.4169025836	-1.2404247077	 0.133081
H	-1.1398546479	-3.6455707074	 1.5840318365	 0.095435
