18
gdb 67483	2.40197	1.64941	1.2311	4.5585	80.38	-0.2296	0.0233	0.2529	1067.0238	0.147559	-364.756349	-364.748354	-364.74741	-364.788533	31.402	
C	 0.0115529068	 1.4882537838	-0.0054922496	-0.494393
C	-0.0271949771	-0.0121237606	 0.0142219989	 0.31288
C	-1.383897801	-0.7750054637	 0.0982157765	-0.109935
C	-1.336781228	-2.2485951688	-0.1985924764	-0.326568
C	-0.7746760278	-1.7457924426	 1.1003593812	-0.050042
C	 0.5806575007	-1.0015170227	 0.9916739102	-0.129804
C	 1.1720391616	-0.8493632115	-0.4026734378	-0.224086
C	 1.3005912923	-1.8224786593	-1.4576558762	 0.285372
N	 1.4739217448	-2.5691322344	-2.3251929492	-0.358202
H	 1.0204556535	 1.8655013865	 0.1884727627	 0.122814
H	-0.3133926157	 1.8788255243	-0.9771163965	 0.133744
H	-0.6554922057	 1.9026233728	 0.7589694428	 0.127624
H	-2.3158503004	-0.2297760798	 0.1742682729	 0.09556
H	-2.3024978838	-2.7343505318	-0.0871896393	 0.118206
H	-0.7288053685	-2.6788154198	-0.9816771894	 0.161113
H	-1.1687852477	-2.0508560664	 2.0604285873	 0.098625
H	 1.2085555063	-0.8037613628	 1.852077579	 0.101257
H	 2.0771703499	-0.245013873	-0.3540596972	 0.135836
