16
gdb 62454	3.73922	1.21102	1.17004	3.6541	69.7	-0.268	0.0193	0.2873	1080.3413	0.124012	-437.872866	-437.86467	-437.863726	-437.905992	29.65	
C	-0.0612497217	 1.5581744197	 0.0324259051	-0.461047
C	 0.0100252876	 0.0437129227	 0.056797909	 0.057505
C	-1.1582945151	-0.6486569085	-0.4218950292	 0.241774
N	-2.0893288258	-1.2208983494	-0.8033533639	-0.336563
C	 1.332589813	-0.7048154529	-0.2098120945	 0.024188
O	 2.4915817364	 0.0809090659	-0.162160077	-0.252209
C	 2.8422154659	 0.1612475894	 1.212438861	 0.012752
O	 1.6303355983	 0.074279341	 1.949133034	-0.252206
C	 0.7704639087	-0.7091737933	 1.1682973918	 0.024218
H	 0.8647865243	 1.9892292718	 0.4105255965	 0.144607
H	-0.2192893242	 1.9157400818	-0.9884435071	 0.141437
H	-0.8879680373	 1.9107649822	 0.6546913269	 0.141435
H	 1.3604767877	-1.554248303	-0.8822749774	 0.134931
H	 3.5159627756	-0.6667912732	 1.4846741659	 0.109995
H	 3.3128452561	 1.1276972174	 1.4074440628	 0.134254
H	 0.3219478204	-1.5622975317	 1.6638095761	 0.134929
