20
gdb 120293	3.24297	1.17459	1.09614	2.0509	79.6	-0.2275	0.005	0.2324	1197.9504	0.171849	-403.117058	-403.108647	-403.107703	-403.15112	32.249	
O	-0.1836045362	 1.518236326	 0.0612429154	-0.423586
C	 0.0755530657	 0.1311483963	-0.0814292084	-0.057809
C	-1.2047257558	-0.7022733583	-0.0425801009	-0.141703
N	-2.0798596469	-0.2771598145	-1.1296727486	-0.119806
C	-3.40166633	-0.8534743991	-1.319863576	-0.041263
C	-4.0881870588	-1.5906782911	-0.1654675227	-0.280723
C	-4.2691957294	-0.5200886357	 0.8893281198	-0.075581
C	-3.8423296624	 0.6727902516	 0.465518152	-0.071492
C	-3.2647882501	 0.5853293704	-0.9072170081	-0.07473
H	-0.6985427513	 1.7761112602	-0.7104480675	 0.290323
H	 0.6168626413	-0.0757045439	-1.016912971	 0.089305
H	 0.7254472677	-0.1504071056	 0.7541454631	 0.100998
H	-0.950673373	-1.7578175321	-0.2043071609	 0.094879
H	-1.6688938313	-0.6163798366	 0.9496620769	 0.100833
H	-3.6308490069	-1.155271383	-2.3381295611	 0.090355
H	-5.0489888833	-2.008217624	-0.4914312698	 0.11367
H	-3.4954586742	-2.438332486	 0.2042183393	 0.115526
H	-4.667033684	-0.734212798	 1.8753127098	 0.100079
H	-3.860632915	 1.5917381939	 1.0389424205	 0.102883
H	-3.3542299462	 1.4220641493	-1.5945431019	 0.087841
