18
gdb 113716	2.60874	0.98463	0.79328	1.8171	72.74	-0.2782	0.0246	0.3028	1444.0468	0.145352	-439.070236	-439.060292	-439.059347	-439.106189	34.675	
C	-0.2604651477	 1.4241021199	 0.2209228515	-0.401458
C	 0.1547807078	-0.0066523723	-0.1757233038	-0.172005
C	 0.9258654792	-0.0151221386	-1.4235614972	 0.266231
N	 1.5458157397	-0.0260000657	-2.3989419241	-0.318699
C	 0.9677505828	-0.6626464752	 0.937908222	 0.055891
O	 0.2216762011	-1.1380348831	 2.052190516	-0.256937
C	 0.9392011092	-2.0953638822	 1.2570324792	 0.078995
C	 0.1517936899	-3.1271156832	 0.4918738273	-0.112992
O	 0.0168498675	-4.2575033009	 1.3357063344	-0.417912
H	 0.6195711575	 2.0518255448	 0.3859603526	 0.139351
H	-0.8696029025	 1.8846121798	-0.560035022	 0.138958
H	-0.8402487693	 1.3826063016	 1.1460666235	 0.148077
H	-0.7495498614	-0.6004916579	-0.3410841441	 0.131882
H	 1.8698015446	-0.105223687	 1.1980128134	 0.109416
H	 1.8135949898	-2.5139373992	 1.7564670136	 0.111218
H	-0.8273532879	-2.7170072976	 0.2070615192	 0.09698
H	 0.7002534352	-3.3744653563	-0.4316286481	 0.109468
H	-0.4328847155	-4.9503021868	 0.8431793266	 0.293536
