18
gdb 83829	2.91703	1.47976	1.19341	3.4501	71.65	-0.234	0.0292	0.2632	1055.8915	0.149983	-439.062803	-439.055084	-439.05414	-439.094865	30.114	
O	-0.1380851579	 1.4209461865	-0.1811931832	-0.408141
C	 0.0016966974	 0.038526312	-0.0244806787	 0.058237
C	-0.3629149923	-0.6288582236	 1.2904522799	-0.09398
C	-0.9054605097	 0.1904239607	 2.4279499201	-0.105268
O	-2.0305235079	-0.4349244652	 3.07371718	-0.230713
C	-3.1848541763	-0.6349005805	 2.3809403245	 0.140093
N	-3.5142766142	-0.5049370975	 1.1706848659	-0.265971
C	-2.6181063949	-0.078978316	 0.0978680653	-0.196751
C	-1.2604556975	-0.7671073376	 0.0712913425	-0.066129
H	 0.6397473475	 1.8473937928	 0.1935528999	 0.292945
H	 0.8307834719	-0.3964462959	-0.5813209917	 0.094232
H	 0.2201112427	-1.4981164805	 1.5796005721	 0.091599
H	-0.1678134778	 0.3007162936	 3.2274044493	 0.11283
H	-1.1878979613	 1.1916691307	 2.0910997079	 0.122744
H	-3.9327198143	-0.9854503687	 3.0936933592	 0.116628
H	-3.1297396857	-0.2920055456	-0.8464390338	 0.108268
H	-2.4903954041	 1.0078819756	 0.1235420134	 0.132732
H	-1.2485092956	-1.733937421	-0.4218659526	 0.096643
