16
gdb 23313	3.14797	1.24271	0.96819	2.8063	68.75	-0.2499	-0.0053	0.2446	1170.9995	0.123668	-474.96252	-474.954454	-474.95351	-474.995174	30.699	
O	-0.0582108261	 1.309753675	-0.0609467899	-0.386356
N	 0.0268916052	-0.0889957191	-0.0451509637	-0.247162
C	-1.1220714233	-0.6289949723	 0.0420032302	 0.433354
C	-2.4932560169	-0.0033039098	 0.1714980879	-0.372262
C	-3.3287493076	-1.07189999	 0.9314567444	 0.111024
O	-4.6872158066	-1.1448500953	 0.5517445448	-0.434937
C	-2.6296748385	-2.3855574203	 0.6244611284	 0.037558
O	-2.3220464575	-2.5672615364	-0.7555135795	-0.249132
C	-1.2739797476	-2.1050769135	 0.1209116742	-0.057179
H	 0.8682792381	 1.5704066756	-0.1008826108	 0.310019
H	-2.4511562486	 0.9627683218	 0.6772312765	 0.126935
H	-2.9326536302	 0.145487889	-0.8200115579	 0.146442
H	-3.2348428045	-0.9009526833	 2.0167804387	 0.077088
H	-5.1154613295	-0.3205057095	 0.802906546	 0.288549
H	-2.8838652983	-3.2852165575	 1.1780963961	 0.105821
H	-0.418469568	-2.7588162145	 0.2484747848	 0.110239
