23
gdb 57623	2.97964	0.92151	0.88049	0.7243	91.84	-0.2542	0.0621	0.3162	1479.1761	0.203208	-351.114736	-351.104289	-351.103345	-351.149852	39.892	
C	-0.0914305281	 1.5557929711	-0.0840159419	-0.400625
C	 0.0141135663	 0.0179781	 0.028727641	 0.057477
C	 0.8877838974	-0.3542388711	 1.2495179563	-0.405627
C	-1.3958719874	-0.6428054945	 0.1317569875	-0.213452
C	-2.2373494773	-0.242437336	 1.3266538054	 0.01373
C	-3.1866289688	 0.9308714921	 1.2619759624	-0.25176
C	-3.728300065	-0.4754363413	 1.2905357728	-0.284284
C	 0.6567863754	-0.5037477138	-1.1837147631	 0.343761
C	 1.1746780597	-0.9366479284	-2.1791517213	-0.495284
H	 0.9017701924	 1.9997690956	-0.1963375129	 0.118574
H	-0.6893330358	 1.8441630714	-0.9533901769	 0.117268
H	-0.5596416528	 1.9732195495	 0.8110389783	 0.121642
H	 0.468904789	 0.0661154443	 2.1685632717	 0.114669
H	 0.9585288698	-1.4398746231	 1.364413643	 0.11995
H	 1.9007487396	 0.0393498888	 1.1287275393	 0.121869
H	-1.9482687669	-0.4135089321	-0.787632833	 0.098796
H	-1.252343235	-1.7304746941	 0.1375843845	 0.104897
H	-1.7726832007	-0.4149253335	 2.2931950783	 0.084488
H	-3.3083109927	 1.5493634211	 2.1446806162	 0.109654
H	-3.2523516049	 1.4779213006	 0.3273603919	 0.112351
H	-4.1541801921	-0.872168865	 0.3745011907	 0.111729
H	-4.2183719166	-0.8227558539	 2.1933081404	 0.110133
H	 1.6352788045	-1.3164159476	-3.0572460707	 0.190046
