16
gdb 51905	9.07338	0.54973	0.53939	3.6663	73.38	-0.2546	-0.0336	0.221	1937.088	0.122456	-475.008066	-474.999214	-474.99827	-475.043221	29.862	
O	-0.1740300614	 0.0129408566	 0.0306729633	-0.246387
C	-0.1092517187	 1.1986919756	 0.0715819224	 0.185941
O	 1.0735205158	 1.8631213071	-0.0840443088	-0.155089
C	 1.0576929974	 3.2288066363	-0.023364451	 0.124342
N	 2.1278110152	 3.8656803086	-0.1651424677	-0.193139
C	 2.0711748301	 5.3016025544	-0.0943397094	-0.013724
C	 3.1311440505	 5.9708841799	 0.8135834316	-0.078604
O	 3.6142603871	 6.7833112609	-0.2733939419	-0.268836
C	 2.8104122155	 6.0586525205	-1.224016933	-0.078618
H	-0.9657198698	 1.8774440443	 0.2340264858	 0.100335
H	 0.0650484995	 3.6649686758	 0.1521839774	 0.106123
H	 1.0561113304	 5.685784151	 0.08196337	 0.073173
H	 2.7538331527	 6.5742576601	 1.6465793479	 0.106353
H	 3.8873133889	 5.2648765839	 1.1776451099	 0.115891
H	 3.4091097975	 5.3957777183	-1.8603565979	 0.115892
H	 2.2038273492	 6.7247818666	-1.8474319687	 0.106347
