20
gdb 79260	2.39673	1.99789	1.53351	1.4189	76.16	-0.2266	0.0624	0.289	955.9438	0.173224	-403.143617	-403.136072	-403.135128	-403.174937	31.286	
C	-0.1411086623	 1.5576937115	 0.0228003455	-0.431217
C	 0.0356646643	 0.041133073	 0.0199742895	 0.010722
C	 0.9396552315	-0.522682387	-1.0704061311	-0.045436
C	 2.3260687183	-0.6099774199	-0.5211282641	-0.033013
C	 2.2882044332	-0.107199598	 0.9126513487	-0.30071
C	 0.83506182	-0.563456524	 1.2017621134	 0.355231
O	 0.2677691559	-0.2774256062	 2.4485954881	-0.502481
C	 0.9252441214	-2.0328111464	 0.7302825639	-0.210177
N	 1.4826488563	-1.8374737002	-0.6286904344	-0.137574
H	 0.8137276536	 2.0872512426	-0.0418514919	 0.116155
H	-0.749159547	 1.8762179739	-0.8301569298	 0.113942
H	-0.6476409961	 1.8778222778	 0.9380359157	 0.132594
H	-0.9545802479	-0.4299620875	-0.0110793575	 0.07767
H	 0.721470657	-0.4119269703	-2.126379367	 0.08691
H	 3.2167569908	-0.5775312394	-1.1372418965	 0.090268
H	 3.0158740349	-0.6086928883	 1.5613788388	 0.091428
H	 2.4295455287	 0.9722913369	 1.0010920982	 0.108729
H	 0.8297505081	-0.653887465	 3.133696144	 0.280696
H	 1.6037123482	-2.6460301666	 1.3338408551	 0.090185
H	-0.0501980188	-2.5252256368	 0.6794138012	 0.106078
