23
gdb 97970	4.72508	0.46597	0.45251	1.4858	92.77	-0.2372	0.0628	0.3	2530.9178	0.202813	-388.277409	-388.265739	-388.264795	-388.317181	40.808	
C	 0.0711948224	 1.2885770933	 0.6414896587	-0.362055
C	-0.1065110688	 0.229156535	-0.461498595	-0.312937
C	-1.4339642051	-0.3781673408	-0.4655704591	 0.124183
C	-2.5407702301	-0.8546788452	-0.4546588856	 0.003361
C	-3.8647836453	-1.4661755629	-0.4369716687	-0.356322
C	-3.8392643706	-2.9564463641	-0.0453833945	-0.179854
C	-5.2427664113	-3.5688542596	 0.0345299903	 0.138226
C	-5.2060899472	-5.0594690793	 0.3712410932	-0.407379
O	-6.0735440529	-2.8531178317	 0.9489806615	-0.42831
H	 1.0783796434	 1.7149600371	 0.6051179786	 0.11104
H	-0.6515993703	 2.0999852192	 0.5199713091	 0.126997
H	-0.0813764289	 0.8483118927	 1.6307434657	 0.12478
H	 0.0895045013	 0.6860743253	-1.4403585682	 0.125169
H	 0.6537851363	-0.5536389587	-0.3404360567	 0.123803
H	-4.5210759095	-0.9348718119	 0.2617604925	 0.13659
H	-4.3340659146	-1.3625143449	-1.4250352338	 0.121045
H	-3.2352353479	-3.5172641296	-0.7678923649	 0.104926
H	-3.3403532702	-3.067472517	 0.9271616617	 0.093822
H	-5.7404811535	-3.4354718004	-0.9349883888	 0.088096
H	-4.7064538044	-5.2277919057	 1.3337890266	 0.106678
H	-6.2218323226	-5.4581810962	 0.4392753614	 0.124454
H	-4.6589081279	-5.6255322619	-0.3894239186	 0.117412
H	-5.713760502	-2.9874700029	 1.8333159647	 0.276275
