19
gdb 75397	2.46263	1.68974	1.24094	1.6235	82.32	-0.2276	0.0027	0.2303	1077.2428	0.160297	-385.881275	-385.873373	-385.872429	-385.913255	31.391	
C	-0.3493845155	 1.4841079622	 0.1160534716	-0.490917
C	 0.0689317926	 0.0413928644	-0.0207157083	 0.349999
C	 0.1137447659	-0.5712829848	-1.2106249932	-0.177706
C	 0.4487300946	-2.0318878621	-1.4488235787	-0.317246
C	-0.5387240612	-2.9163432054	-0.71249498	-0.094577
C	-0.7330382494	-2.9004116527	 0.6092833539	-0.025049
C	-0.0064728602	-2.0479162905	 1.5737220463	-0.002341
O	 1.350481034	-1.6881761039	 1.2947536471	-0.248991
C	 0.3887113173	-0.6336617911	 1.2661271968	-0.055703
H	 0.4478791091	 2.0911671941	 0.5635691702	 0.126744
H	-0.6032339331	 1.9177796392	-0.8541308531	 0.123229
H	-1.2249025452	 1.5855075746	 0.7706244874	 0.125767
H	-0.1618844225	 0.0096904895	-2.0878128721	 0.08523
H	 0.3981322325	-2.242401167	-2.5200573618	 0.095825
H	 1.4694819621	-2.25206874	-1.1253281867	 0.144318
H	-1.1584692218	-3.574739441	-1.3156296335	 0.095411
H	-1.4981914441	-3.5382974469	 1.0436964167	 0.085349
H	-0.1822953009	-2.2786130773	 2.6245237683	 0.093533
H	 0.4627867255	 0.0371450387	 2.1237193689	 0.087126
