15
gdb 35142	4.66882	0.97819	0.88649	2.9556	77.64	-0.2526	-0.0157	0.2369	1266.7573	0.112691	-379.636931	-379.628726	-379.627782	-379.670205	30.331	
C	 0.0441387593	-1.3021380205	 0.1033334519	-0.451567
C	 0.0406501656	-0.1023490239	 0.0451666414	 0.351017
C	 0.0376288991	 1.3582569442	-0.0666521314	-0.213223
N	-0.6422364631	 2.0014752555	 1.077336807	-0.29882
C	 0.0802115435	 3.2238701891	 1.4492010904	-0.154937
C	 1.4469356241	 3.007735407	 0.8279093195	-0.073985
C	 1.4196754771	 1.9795006907	-0.0077949348	-0.049624
C	-0.5480034573	 4.462935451	 0.935277422	 0.253773
N	-1.069930802	 5.4129920839	 0.5327065201	-0.323207
H	 0.0456475593	-2.3623151284	 0.1677882459	 0.202696
H	-0.4276629186	 1.618579032	-1.0342335257	 0.117804
H	-1.6290213536	 2.1527684274	 0.9159699344	 0.243561
H	 0.1357319402	 3.3230351957	 2.5422596504	 0.135598
H	 2.2859544762	 3.6534983229	 1.0480495537	 0.130248
H	 2.2412855802	 1.5994016134	-0.5995220347	 0.130666
