21
gdb 56636	2.05328	1.31789	1.11119	3.4967	82.74	-0.2572	0.0383	0.2956	1253.0424	0.181095	-383.275399	-383.265109	-383.264165	-383.310551	37.667	
C	-0.4494854317	 1.3817247779	 0.1027570086	-0.407838
C	 0.1355282242	-0.0258018651	-0.1304307373	-0.174706
C	 1.0075399842	-0.0487663068	-1.311266842	 0.273296
N	 1.7041484301	-0.0634374713	-2.2337752802	-0.333981
C	 0.8784450906	-0.5707837422	 1.099135006	 0.32317
C	 2.0966430631	 0.2220420249	 1.5329509377	-0.487154
N	-0.0380938082	-1.0796766314	 2.1331569081	-0.381294
C	 0.8419960687	-2.0279698546	 1.4197280499	-0.035114
C	 0.1908402386	-3.1083984455	 0.5891050279	-0.411043
H	 0.3363732141	 2.1269688864	 0.2463850973	 0.135037
H	-1.0563694271	 1.6922113757	-0.751090039	 0.134669
H	-1.0821691668	 1.3553577883	 0.9934543248	 0.140636
H	-0.7000850593	-0.7006777093	-0.3346883254	 0.129471
H	 1.8234062027	 1.2291657574	 1.8657877474	 0.126129
H	 2.6020700024	-0.2783169921	 2.364288692	 0.118129
H	 2.815366117	 0.3234152958	 0.7134220494	 0.149846
H	 0.3227037338	-0.8729684734	 3.0612988074	 0.229444
H	 1.7175309947	-2.3752773961	 1.968221733	 0.085321
H	-0.7396550131	-2.7676010361	 0.1308167809	 0.128196
H	 0.8654596161	-3.4520023543	-0.2019276638	 0.132646
H	-0.054678564	-3.9686067882	 1.2207757875	 0.12514
