16
gdb 87311	1.95268	1.41195	0.97174	6.7963	74.55	-0.2741	0.0126	0.2867	1220.2796	0.124491	-396.937539	-396.928544	-396.9276	-396.971779	32.514	
N	-0.200103727	 1.4152628246	 0.1889543318	-0.508582
C	-0.0930053051	-0.0130640645	 0.1441646701	-0.057554
C	-0.7830869302	-0.7939114282	 1.2156300756	-0.309095
C	-1.3708135326	-0.8133781912	-0.1881415931	 0.161523
C	-2.6662591893	-0.0462494185	-0.4509887738	-0.429136
C	-3.8243413471	-0.6312675944	 0.2235277632	 0.278118
N	-4.7335047174	-1.0864232154	 0.7720897385	-0.303151
C	-1.1862971807	-2.0084208577	-0.9685438731	 0.250893
N	-1.0240831885	-2.9567850113	-1.6111324668	-0.334181
H	 0.3123586825	 1.7904294557	 0.9799722839	 0.24931
H	 0.1751936098	 1.8404785659	-0.6519905201	 0.246707
H	 0.8151211121	-0.4567045459	-0.2627361099	 0.116125
H	-0.3214339892	-1.701230204	 1.5841373698	 0.150314
H	-1.3538858522	-0.234633401	 1.949179975	 0.14577
H	-2.5223498611	 0.980566339	-0.0993732117	 0.17959
H	-2.8664456439	 0.000475917	-1.5262998493	 0.163349
