17
gdb 26997	3.07542	1.2018	0.889	1.1255	81.27	-0.1845	0.0464	0.2309	1271.1108	0.136173	-380.86624	-380.857152	-380.856207	-380.900741	33.587	
N	 0.2406400955	 1.4962655357	 0.5852662868	-0.61384
C	 0.1580128867	 0.143816427	 0.1534453822	 0.137731
C	-1.0103032808	-0.4635579471	-0.2605457627	 0.294018
C	-2.4022410979	 0.0959732347	-0.3263857548	-0.473447
C	-3.2385142917	-0.5521363299	-1.3340960646	 0.287869
C	-3.9119551381	-1.1278984458	-2.1470486115	-0.445691
N	-0.7005304107	-1.7553330136	-0.6133359939	-0.29585
C	 0.6432969571	-1.9723493664	-0.4687226838	-0.089442
C	 1.2057300347	-0.8153384966	 0.0206668339	-0.223459
H	-0.0929528785	 1.6122838353	 1.537152979	 0.236371
H	 1.2007164151	 1.8201235417	 0.5674345853	 0.234737
H	-2.9131698657	 0.0197329908	 0.6463248707	 0.136219
H	-2.319388576	 1.1709589345	-0.5318443429	 0.159868
H	-4.5200253703	-1.6042663922	-2.8756534109	 0.197542
H	-1.3642090783	-2.3918692579	-1.0211105231	 0.261404
H	 1.0846807328	-2.9220699438	-0.7239608837	 0.113697
H	 2.248031096	-0.6650710364	 0.2605643137	 0.082273
