23
gdb 57486	2.84831	1.18734	1.05928	1.2327	80.91	-0.2491	0.0734	0.3225	1272.8749	0.204724	-425.434985	-425.425081	-425.424137	-425.469558	37.218	
C	 0.0377069291	 1.5774599633	 0.0707817602	-0.41774
C	 0.00554319	 0.0400359974	 0.0101236611	 0.231194
C	 0.7499027244	-0.5255098952	 1.2350031158	-0.407169
C	-1.449211471	-0.4643293633	 0.0168513893	-0.416441
C	 0.7034511199	-0.4930682653	-1.2600384306	 0.132541
C	 0.111238797	-0.095067246	-2.6233480716	-0.142331
O	 1.2497409847	-0.0711026142	-3.4729504537	-0.238181
C	 2.2867899961	 0.4280742918	-2.669909688	 0.024137
O	 2.0531536513	-0.0155014793	-1.3458616001	-0.283364
H	 1.0646317108	 1.9442190352	-0.005147736	 0.12788
H	-0.5511336405	 2.0386000587	-0.728493816	 0.107116
H	-0.3792481869	 1.9253953305	 1.0215996735	 0.110172
H	 0.2814799778	-0.1831395621	 2.1638393938	 0.105414
H	 0.733824513	-1.6211767885	 1.2355422039	 0.106467
H	 1.7947280314	-0.2040268108	 1.2370856746	 0.131565
H	-2.0288250218	-0.0508431627	-0.8157332105	 0.112781
H	-1.4933556141	-1.5572960832	-0.0503207327	 0.112098
H	-1.9511692716	-0.1700223875	 0.9443081662	 0.115404
H	 0.7360780558	-1.5913406808	-1.1932033609	 0.07332
H	-0.5965457633	-0.8244282254	-3.020816887	 0.12011
H	-0.3717075051	 0.8923540493	-2.5892622178	 0.097687
H	 3.2383009552	 0.0307518546	-3.0406003641	 0.113466
H	 2.3080385279	 1.5326488935	-2.6886008494	 0.083875
