19
gdb 78351	2.31303	1.59294	1.3757	1.7234	74.97	-0.2443	0.0683	0.3127	1046.9621	0.157976	-422.96702	-422.958487	-422.957543	-422.999743	33.065	
C	-0.2678561498	 1.5906137772	-0.126905197	-0.424214
C	 0.0262868778	 0.1006859228	-0.0030925703	-0.060546
C	 1.0575285382	-0.5735401208	-0.9353810404	-0.118537
C	 2.4694084545	-0.2298936148	-0.603625866	 0.104042
O	 2.8190322514	 1.0630515893	-0.1913194015	-0.417297
C	 1.7700186556	-1.2127938239	 0.2918322649	-0.245676
C	 0.8091664281	-0.4689973352	 1.196747908	 0.47224
C	 0.9959561949	 0.030909749	 2.5584348963	-0.269984
O	 0.1524716801	-1.1007460695	 2.2801149361	-0.290704
H	 0.646910984	 2.1792828501	-0.0459378066	 0.1428
H	-0.7333585753	 1.811631775	-1.0937583628	 0.112259
H	-0.9676586936	 1.9118160202	 0.6528564715	 0.111473
H	-0.9068890516	-0.4719112447	-0.0558398972	 0.093291
H	 0.8045066192	-1.0346649207	-1.8828503418	 0.091444
H	 3.1954577193	-0.6903644221	-1.2759294196	 0.092926
H	 3.5115514484	 0.9849057931	 0.4733089843	 0.28656
H	 2.114966231	-2.2271716802	 0.4534723222	 0.099747
H	 1.9124537595	-0.1951918897	 3.1032875605	 0.10501
H	 0.4736421584	 0.9293056846	 2.8845464696	 0.115166
