23
gdb 117935	2.74076	0.74719	0.66505	3.1033	83.32	-0.2603	-0.0224	0.2379	1808.2389	0.202758	-425.454183	-425.442898	-425.441954	-425.49189	39.804	
C	-0.2536758932	 1.4351983123	 0.29042317	-0.382094
C	 0.0073618462	-0.0528312636	 0.0379497815	-0.181492
C	 0.7771778855	-0.7137797965	 1.1873857477	-0.158036
C	 1.0074143159	-2.2368281191	 1.013718689	-0.091356
C	 1.9438926633	-2.5748792061	-0.1553364748	-0.39468
C	 1.579191347	-2.768311904	 2.3178414334	 0.361616
O	 2.7422113039	-2.6209241603	 2.6351973513	-0.342976
C	 0.6431920898	-3.4933611997	 3.2731734947	-0.138691
O	 1.2852292653	-3.8336530567	 4.4630712307	-0.420262
H	 0.6852481558	 1.986997509	 0.4086158979	 0.119142
H	-0.803672647	 1.8878791756	-0.5402084478	 0.115232
H	-0.842231756	 1.5860744769	 1.2020758969	 0.116564
H	-0.9481263365	-0.5747435346	-0.1051868427	 0.096568
H	 0.5629331808	-0.1675389165	-0.8997320004	 0.105147
H	 1.7532214521	-0.2296015285	 1.3157763844	 0.116376
H	 0.225587289	-0.5399314699	 2.1214188554	 0.09792
H	 0.0300342256	-2.7118482967	 0.8525362288	 0.078838
H	 2.9322489073	-2.1409409413	 0.0168660457	 0.140837
H	 2.0676104922	-3.6572561571	-0.2595414597	 0.119237
H	 1.5503235181	-2.192504261	-1.0999930608	 0.119757
H	-0.2352591474	-2.8526757237	 3.4582739065	 0.114662
H	 0.2605281894	-4.3854855436	 2.7453659512	 0.114259
H	 2.2056599227	-3.549838075	 4.3357714011	 0.293431
