17
gdb 114419	3.19226	1.13324	1.11479	3.7095	68.39	-0.2359	0.0143	0.2502	1151.5615	0.137468	-455.120464	-455.112478	-455.111534	-455.15346	30.26	
O	 0.0115698079	 1.375305608	-0.2943125304	-0.420584
C	 0.0504241217	 0.0562969166	 0.2159556043	-0.066858
C	-1.3254108481	-0.58916886	 0.1127896855	 0.007234
N	-1.8719111131	-0.5286617243	-1.2798636837	-0.345172
C	-2.1969896229	-1.9831665465	-1.2522964104	-0.170097
C	-1.4725250158	-2.1425713609	 0.1176848998	-0.028324
N	-0.4532086794	-2.9172658614	-0.587421858	-0.323903
C	-1.0212373586	-2.8100044304	-1.8483299467	 0.449784
O	-0.6733662611	-3.1876527189	-2.9305655049	-0.350323
H	-0.2981316949	 1.2867731879	-1.2052545241	 0.288366
H	 0.7863416353	-0.5576652815	-0.3244229617	 0.084879
H	 0.3681823172	 0.1258460054	 1.2620862307	 0.106479
H	-2.0080034522	-0.1406005384	 0.8444291994	 0.082621
H	-2.6979734383	 0.0519775283	-1.3562354798	 0.23454
H	-3.2223281022	-2.2823587854	-1.464184569	 0.103558
H	-1.8920715812	-2.6223483875	 1.0012135836	 0.095657
H	 0.4873104058	-3.173821381	-0.3220401346	 0.252141
