17
gdb 30148	3.67759	1.14732	1.01341	1.69	73.89	-0.2304	0.0053	0.2357	1182.8725	0.136301	-421.828761	-421.820673	-421.819728	-421.864017	30.154	
O	-0.1599273878	 0.9620727848	 1.5085056741	-0.427817
C	 0.0391366908	 0.0572884477	 0.4682372501	 0.139525
C	-0.5779263517	-1.3125768882	 0.5445521694	-0.320509
C	-1.1074730928	-0.3001182268	-0.4571720488	-0.199106
C	-2.4262612153	 0.3473358842	-0.2492664443	 0.211599
C	-2.7345750226	 1.6595726904	-0.4760665353	-0.102085
O	-4.0416901946	 1.9077191413	-0.1987919451	-0.138354
C	-4.5834251546	 0.7347170735	 0.2218053927	 0.008211
C	-3.650775167	-0.2501264516	 0.2166567783	-0.283816
H	-0.9852390745	 1.4337650778	 1.3363227685	 0.281126
H	 1.0278296311	 0.1463405505	 0.024468528	 0.094231
H	-0.0243234214	-2.1667658943	 0.170481217	 0.11111
H	-1.1886267738	-1.5069976891	 1.4195132664	 0.120149
H	-0.8364696069	-0.4705110709	-1.4956676562	 0.102548
H	-2.1667860699	 2.4956632472	-0.8518481406	 0.144444
H	-5.6274420106	 0.7710218603	 0.485839644	 0.140689
H	-3.7951750382	-1.2806002466	 0.5006788819	 0.118054
