20
gdb 79460	2.46671	1.90123	1.50589	1.286	78.05	-0.2262	0.0671	0.2933	973.2	0.172447	-403.099837	-403.092134	-403.09119	-403.131434	31.399	
C	 0.0098526577	 1.4922942765	-0.0060648235	-0.502592
C	 0.0184439221	-0.0124131301	-0.0208539452	 0.30953
C	-1.3081925291	-0.7926517408	-0.184948899	-0.262555
C	-0.7753033635	-2.0735572045	 0.4863318148	-0.055424
C	-0.4101470657	-1.509410118	 1.8706592245	-0.169201
N	 0.6865086661	-0.7391227451	 1.1879946378	-0.190978
C	 0.7611444149	-1.8877579085	 0.17145028	-0.062068
C	 0.966501091	-0.8361068875	-0.9204010616	 0.111524
O	 0.5509047003	-1.0359419031	-2.2470059835	-0.441575
H	 1.0158914571	 1.8873092595	 0.1618665828	 0.122632
H	-0.3621235412	 1.8814318966	-0.9603194198	 0.124407
H	-0.6410032111	 1.8728245223	 0.788720495	 0.116648
H	-2.1470154808	-0.349384927	 0.3596439663	 0.087654
H	-1.5813554739	-0.9120158192	-1.233960772	 0.120774
H	-1.3128249823	-3.0109083894	 0.3372948882	 0.059745
H	-1.1556142262	-0.9160884097	 2.4118070337	 0.094135
H	 0.0500841428	-2.2322608391	 2.5508792486	 0.103301
H	 1.4477431127	-2.7100869715	 0.3795191431	 0.066663
H	 1.9886681712	-0.4410402127	-0.8575064862	 0.079848
H	 1.2401646379	-1.5160226088	-2.7152515444	 0.287534
