17
gdb 63119	2.22133	1.70933	1.21862	3.5012	74.7	-0.2325	0.0054	0.2379	1057.5153	0.13532	-417.968907	-417.960268	-417.959324	-418.001753	32.78	
C	 0.0038063098	 1.5683969822	 0.025704224	-0.463771
C	 0.0420456266	 0.0625167974	-0.0648969363	 0.351356
O	-1.101980849	-0.5939944171	 0.3990576765	-0.453621
C	 0.625444473	-0.7300731177	-1.2003132858	-0.176863
C	 1.9103900091	-0.1105144458	-1.7492134113	-0.194511
N	 2.4802706647	 0.0236368036	-0.3630749134	-0.376277
C	 1.3261138705	-0.7329909646	 0.1746359092	 0.174268
C	 1.4335369611	-1.7344977288	 1.1776115843	 0.190185
N	 1.5351149519	-2.5291450824	 2.0145031222	-0.3556
H	 0.9595394016	 2.010524197	-0.2589536892	 0.151947
H	-0.7893637426	 1.9642165996	-0.6156166413	 0.131288
H	-0.2092496333	 1.8727386642	 1.0568719071	 0.118646
H	-1.1646575786	-0.4623517831	 1.352645895	 0.296002
H	 0.0401757552	-1.5136859578	-1.6627742317	 0.126667
H	 2.4660386726	-0.8199578109	-2.3687764535	 0.123015
H	 1.8222699822	 0.8412135656	-2.2825618869	 0.117133
H	 3.3399874952	-0.5065186314	-0.267938309	 0.240136
