19
gdb 38350	2.4063	2.0458	1.37139	1.4048	81.01	-0.2352	-0.0019	0.2334	984.5915	0.162033	-385.872898	-385.865736	-385.864792	-385.904082	29.382	
C	-0.1096053775	 1.6231359374	-0.0703082619	-0.284763
C	 1.4382595073	 1.5274917008	 0.0459286152	 0.0654
O	 1.3430178006	 0.1423651908	 0.4496071655	-0.286329
C	-0.0455340363	 0.0741326291	 0.0522791053	 0.0654
C	-0.2689404031	-0.6896934073	-1.2197922058	-0.045788
C	 0.6473380369	-1.0022111592	-2.1369000325	-0.071398
C	 2.1337936743	-0.6761837619	-2.116772245	-0.298962
C	 2.490451421	 0.8030932618	-2.1447861105	-0.071398
C	 2.2009876646	 1.7295696601	-1.2303613307	-0.045788
H	-0.5818781479	 2.1090390273	 0.7855514602	 0.10734
H	-0.5066553671	 2.0244278055	-1.0022908399	 0.113348
H	 1.8798386021	 2.131754216	 0.8478739727	 0.082861
H	-0.6553040318	-0.3513905265	 0.8587233175	 0.082861
H	-1.3014544729	-0.9904127888	-1.3901944304	 0.083384
H	 0.3069356861	-1.5584258565	-3.0073952559	 0.090913
H	 2.5818924818	-1.1297872599	-1.2287342681	 0.148262
H	 2.5974714603	-1.1533632409	-2.9846145487	 0.09036
H	 3.0497938641	 1.1281626589	-3.0191295384	 0.090913
H	 2.5222853975	 2.7548879134	-1.4065558486	 0.083384
