19
gdb 70985	3.12673	1.60874	1.47067	1.8288	80.69	-0.2227	0.0068	0.2295	984.926	0.15895	-385.763501	-385.756142	-385.755197	-385.794598	30.814	
C	-0.0831374371	 1.5977036961	 0.0559156676	-0.507288
C	-0.0255058976	 0.0893149036	 0.0150458009	 0.207154
C	 1.0397525699	-0.7083798731	-0.9333965141	-0.338994
C	 0.6560156527	-1.8736335945	 0.0737186183	 0.162644
C	 1.0380131353	-2.7935502474	 1.2621392828	-0.191851
O	 0.4123412446	-1.8019937088	 2.1694162545	-0.3175
C	 0.6920131109	-0.8093299577	 1.1247018264	 0.126218
C	-0.8528466722	-1.9845985704	-0.2175935159	-0.103072
C	-1.2824822654	-0.7262433768	-0.2703037908	-0.109309
H	 0.888243109	 2.0263987678	 0.3223143513	 0.117369
H	-0.3738501574	 2.0081545989	-0.9176379609	 0.122055
H	-0.8169836897	 1.9398873886	 0.7938591201	 0.127873
H	 0.7352664226	-0.8244906857	-1.975755463	 0.107766
H	 2.0658000568	-0.3378458222	-0.8567401815	 0.104812
H	 0.5407660056	-3.7653529921	 1.3333503855	 0.112655
H	 2.109914237	-2.8860814445	 1.4722737892	 0.107008
H	 1.6828433858	-0.3858552242	 1.3400422148	 0.075039
H	-1.3840047797	-2.9168627121	-0.3536974499	 0.096377
H	-2.2683743611	-0.3239396557	-0.4569804053	 0.101043
