21
gdb 85919	2.66878	1.22193	1.05059	2.8335	78.12	-0.25	-0.0273	0.2227	1246.5581	0.181073	-424.266826	-424.257468	-424.256524	-424.300605	36.254	
C	 0.0438766816	 1.5102255412	 0.0492722334	-0.434317
C	-0.0183434711	-0.0209753943	 0.0019917245	 0.291819
C	-1.4846700179	-0.4658462584	-0.1554158372	-0.426748
C	 0.854685502	-0.5848991527	-1.1618810733	-0.270823
C	 1.2226073273	-2.0064735839	-0.7273123572	 0.05484
O	 2.3394234506	-2.5634530663	-1.3641371924	-0.444558
C	 1.4445786132	-1.8383307949	 0.7749439479	 0.370783
O	 2.2447766574	-2.4954946627	 1.3955330999	-0.331099
C	 0.6119421141	-0.6648821578	 1.2729542258	-0.367006
H	 1.0734721678	 1.861672531	 0.174421306	 0.114234
H	-0.3479247345	 1.9467650261	-0.8761590203	 0.11663
H	-0.5508841224	 1.9049538663	 0.8805268259	 0.114535
H	-1.9129843694	-0.0737238759	-1.0839122555	 0.117878
H	-1.5884864882	-1.5555684794	-0.1763868827	 0.116267
H	-2.0924782582	-0.0937366439	 0.6765763856	 0.115967
H	 0.3379488472	-0.5475591935	-2.124282309	 0.10657
H	 1.7824078109	-0.00837095	-1.2580160042	 0.108004
H	 0.3403363541	-2.6624657928	-0.8474832567	 0.091621
H	 2.8432688921	-3.0046020921	-0.6633474171	 0.290205
H	 1.2848664437	 0.0235355833	 1.7967732366	 0.134229
H	-0.1283460302	-0.9952098894	 2.0090724702	 0.13097
