19
gdb 120719	3.77525	0.87011	0.82427	4.3247	73.92	-0.2301	0.0112	0.2413	1441.9454	0.158296	-456.337164	-456.32715	-456.326206	-456.373285	35.623	
N	-0.2175100259	 1.0224654757	-1.3632959026	-0.538147
C	-0.3650584318	-0.2837628729	-1.7307043204	 0.42102
O	 0.23009815	-0.7664501144	-2.6779082282	-0.371328
C	-1.3303932805	-1.0558919556	-0.8688868893	-0.114245
C	-1.9723350137	-2.2676062417	-1.4620484725	-0.246841
N	-1.0095861913	-2.4059987033	-0.3847243779	-0.109825
C	 0.2908348591	-3.0184411188	-0.6836271363	-0.144957
C	 0.2556282414	-4.4790685904	-0.2389008149	-0.063328
O	-0.7305986579	-5.2365663641	-0.921992794	-0.421128
H	 0.4352137522	 1.5896608837	-1.8788375466	 0.264096
H	-0.6396349349	 1.4013500298	-0.5344843666	 0.262133
H	-1.8891432391	-0.4630702156	-0.1464860258	 0.082839
H	-3.0080063093	-2.4932308147	-1.2189086326	 0.112877
H	-1.6499344125	-2.5246444584	-2.4683505984	 0.148322
H	 0.5572937823	-2.9438199864	-1.7432409702	 0.136401
H	 1.0586993986	-2.4903298791	-0.1050840445	 0.095831
H	 1.21819406	-4.9483946346	-0.4682745075	 0.106425
H	 0.1068267244	-4.5270805614	 0.8502526967	 0.088913
H	-1.5860023713	-4.9074663176	-0.6287068384	 0.290945
