16
gdb 133794	3.0015	0.85643	0.77481	2.1123	54.19	-0.2728	0.0677	0.3406	1430.6486	0.118668	-606.523381	-606.51363	-606.512686	-606.559003	34.058	
O	-0.0524174728	 1.46548447	-0.0339789808	-0.420864
C	 0.0488253551	 0.051316252	 0.0014785649	-0.082416
C	-1.3692513742	-0.5044484138	-0.0429217966	-0.203783
C	-1.3930007183	-2.0336216034	 0.0029672927	-0.03485
O	-0.774759505	-2.5688877851	 1.1568024964	-0.424185
C	-2.8224566207	-2.5735645236	-0.0948668349	 0.276658
F	-3.4676686455	-2.082235481	-1.1617645834	-0.075601
F	-2.8434098415	-3.9052489003	-0.1818899639	-0.066487
F	-3.524767663	-2.229462317	 1.0044895358	-0.098081
H	 0.8329172718	 1.8322551816	 0.0447377861	 0.288542
H	 0.623306611	-0.3322165629	-0.8582090377	 0.087718
H	 0.5534986377	-0.2985929939	 0.9127734753	 0.10199
H	-1.9396663408	-0.1032993523	 0.8035725756	 0.113847
H	-1.8662565142	-0.1569197201	-0.9536545117	 0.127786
H	-0.8433135275	-2.4491019475	-0.8489681941	 0.118399
H	-1.285703522	-2.2786996225	 1.9222974661	 0.291326
