17
gdb 67892	2.81007	1.93485	1.41654	0.3709	72.22	-0.2153	0.0159	0.2312	926.6867	0.136878	-421.786779	-421.779843	-421.778898	-421.817588	28.827	
O	-0.021555855	 1.3331767132	 0.0293027548	-0.478653
C	 0.0486029462	-0.0663376927	-0.015946519	 0.333125
C	 1.1332657977	-0.6634571891	-0.8337609578	-0.102574
C	 1.035651392	-1.8769082751	-1.3777789377	-0.077062
C	-0.1736931844	-2.7588350488	-1.1821586591	-0.275394
C	-1.0798339342	-2.2168382156	-0.0866778579	 0.082179
O	-0.35549108	-2.1589550334	 1.1895805915	-0.296692
C	-0.5300769135	-0.7529962867	 1.2294514056	 0.027428
C	-1.3198628174	-0.6983844325	-0.0464516258	-0.20275
H	 0.6999661607	 1.6486635731	 0.5848393575	 0.286642
H	 2.0187698615	-0.0516490208	-0.9849552686	 0.082634
H	 1.8456692502	-2.2694223397	-1.9859102553	 0.091037
H	-0.7367540532	-2.8728546283	-2.1209147672	 0.109764
H	 0.1417206533	-3.7703904572	-0.8957942911	 0.120087
H	-1.9930175254	-2.8085482052	 0.0308398398	 0.087373
H	-0.6407338892	-0.2563375159	 2.1872518543	 0.105811
H	-2.2150924793	-0.1605298551	-0.325390564	 0.107046
