16
gdb 26975	3.2175	1.2502	0.93585	1.475	75.89	-0.2318	0.0051	0.2369	1205.3447	0.123349	-400.755169	-400.746529	-400.745585	-400.789381	31.177	
C	-0.0391782681	 1.3765668776	-0.5343548733	-0.501394
C	-0.098277144	-0.054688039	-0.1453475469	 0.274
C	-1.064062532	-1.007353179	-0.0473155448	 0.166059
C	-2.5481899909	-0.9661636845	-0.3017092155	-0.46325
C	-2.9908028198	-0.0408438761	-1.3403346089	 0.30579
C	-3.3852527154	 0.7093237652	-2.1925163138	-0.45162
N	-0.4908434773	-2.1958834513	 0.4068192603	-0.307129
C	 0.7588391086	-1.9117783237	 0.5535343313	 0.060929
O	 1.0861661933	-0.640506755	 0.241209625	-0.175942
H	 0.6888251009	 1.5362374593	-1.337326846	 0.140458
H	-1.017740594	 1.7053050113	-0.884662254	 0.157771
H	 0.2608161672	 2.0054603955	 0.3117731324	 0.137917
H	-2.856326461	-1.9842342513	-0.5668822353	 0.159774
H	-3.0777047959	-0.7356006549	 0.6338429188	 0.14852
H	-3.7311925221	 1.3651850674	-2.9526176551	 0.1995
H	 1.5590924305	-2.5551463013	 0.8842165057	 0.148617
