14
gdb 26561	2.42255	1.89406	1.06415	4.1564	69.97	-0.2032	-0.0306	0.1727	1032.4559	0.102191	-473.876082	-473.868507	-473.867562	-473.907869	29.223	
N	 0.0896566492	 1.3923685724	 0.1702346781	-0.570831
C	-0.0162306832	 0.0238313779	 0.0611580887	 0.323551
C	-1.1772573619	-0.6801642225	 0.0328038371	 0.135959
O	-2.3815900504	-0.053103816	 0.0338275298	-0.459261
C	-1.1925509611	-2.124521802	-0.0095210995	 0.315079
O	-2.2750760556	-2.7212853107	-0.0447758175	-0.432951
C	 0.1307689873	-2.730624719	-0.0203193324	-0.272386
C	 1.2273093273	-1.953836387	 0.0001605939	 0.056074
O	 1.1866013724	-0.6015439039	 0.0434997474	-0.211926
H	 0.894879244	 1.7909187716	-0.2928366739	 0.262399
H	-0.7741222199	 1.869979615	-0.0462188308	 0.278868
H	-3.0132459954	-0.7980353732	-0.00481309	 0.302959
H	 0.2264014096	-3.8083720895	-0.0536196614	 0.12685
H	 2.2498986179	-2.3067349031	-0.0136725794	 0.145615
