17
gdb 34096	3.32888	1.5512	1.32482	5.0633	75.31	-0.2569	0.0141	0.2709	981.3823	0.138823	-380.856503	-380.849548	-380.848604	-380.887726	27.769	
N	 0.0364382696	-1.1207699945	 0.0411011144	-0.339794
C	 0.0140589941	 0.0341691025	 0.0078461432	 0.216934
C	 0.0018150559	 1.4861188378	 0.0063256936	 0.19872
C	-0.9705223954	 2.173712403	 1.0147077743	-0.291964
C	-1.4535774767	 2.99366087	-0.1711354058	-0.038209
C	-0.3287089191	 3.5030937605	-0.9939861705	-0.01843
C	 1.0679375354	 3.6041349057	-0.393344728	-0.260759
C	 1.3893115546	 2.1412119983	-0.001784063	-0.2513
N	-0.7638228142	 2.0954503975	-1.1808293038	-0.166282
H	-1.7365177456	 1.4835593787	 1.3699474939	 0.138718
H	-0.52094702	 2.6897719075	 1.868490502	 0.110768
H	-2.4757051954	 3.3242662752	-0.3237136247	 0.104391
H	-0.5901794875	 4.1446043414	-1.8292598697	 0.105644
H	 1.7828686324	 3.9893992468	-1.1239808511	 0.120502
H	 1.0898211487	 4.2773613682	 0.4690367302	 0.116884
H	 1.8875011316	 2.0451747982	 0.9662204608	 0.122089
H	 2.0165818616	 1.6600248233	-0.7570223359	 0.132089
