23
gdb 101226	3.03372	0.88594	0.77921	0.9032	82.49	-0.2419	0.0775	0.3194	1574.5807	0.203953	-425.415906	-425.405406	-425.404461	-425.451808	38.31	
C	-0.009633514	 1.6028166818	-0.1136631977	-0.40321
C	 0.0294291093	 0.0804239564	 0.0661214694	 0.012209
C	 0.6076184895	-0.6217462483	-1.1628300116	-0.083896
O	-0.2347097942	-0.3374570605	-2.272934289	-0.42732
C	 0.8233663846	-0.301991406	 1.3084195267	 0.157421
C	 0.2126900813	-0.017590954	 2.6968993618	-0.324526
C	 0.431955647	-1.5258048033	 2.9480742542	 0.172741
C	-0.7498084652	-2.3828156142	 3.3512544395	-0.398389
O	 0.8227238259	-1.7286646014	 1.5668155799	-0.319033
H	 1.0037551072	 2.0126007981	-0.204958333	 0.108321
H	-0.5592152416	 1.8606937246	-1.0209629205	 0.138536
H	-0.4940683912	 2.0950198316	 0.7358266214	 0.110075
H	-0.9953390059	-0.2924840042	 0.1952963236	 0.078777
H	 1.634835523	-0.2602011071	-1.3427191847	 0.076785
H	 0.661797257	-1.701103564	-0.9666180033	 0.108707
H	 0.1078676124	-0.8102676246	-3.0364549626	 0.28586
H	 1.8580120279	 0.0646375256	 1.2136722472	 0.065115
H	 0.7536950794	 0.6738255709	 3.3441768138	 0.10545
H	-0.8415850284	 0.2699852	 2.659748868	 0.105409
H	 1.285198048	-1.7236387364	 3.6133615604	 0.070539
H	-1.6112628194	-2.1833872449	 2.706554596	 0.119481
H	-0.4982949868	-3.4451137555	 3.2695381228	 0.126213
H	-1.0336817256	-2.1780554746	 4.3895944275	 0.114732
