18
gdb 53254	4.12975	0.77242	0.74633	1.0796	91.55	-0.231	0.0209	0.2519	1598.5598	0.144153	-364.733427	-364.723043	-364.722099	-364.770208	36.662	
C	 0.106568335	 1.4916732751	 0.023528707	-0.501755
C	 0.0402810822	 0.0381135923	 0.0295009965	 0.134463
C	-0.0134456902	-1.1653582675	 0.0452641111	 0.109189
C	-0.0589972553	-2.6000466772	 0.0239769473	-0.315541
N	-0.5702921676	-3.3046422265	 1.2205567959	-0.34974
C	-1.3637530882	-3.3713328392	-0.0255375982	 0.138593
C	-2.6931706613	-2.6453338029	 0.0103124745	-0.45237
C	-1.3428141884	-4.6068658573	-0.7678526355	 0.278152
C	-1.3397568835	-5.6478219463	-1.3713880888	-0.445741
H	 1.1005590289	 1.8414712469	-0.2762437824	 0.150898
H	-0.6210469171	 1.9221311736	-0.6734615059	 0.149779
H	-0.1031440408	 1.9007142398	 1.0179502137	 0.153184
H	 0.7637721491	-3.074445223	-0.5060403308	 0.115614
H	-0.0521496307	-4.1718970664	 1.3431579044	 0.240851
H	-2.5940086756	-1.7175470125	 0.5756596287	 0.140623
H	-3.029288427	-2.4101789089	-1.0037282308	 0.126934
H	-3.4514503063	-3.2719298222	 0.4887008132	 0.128555
H	-1.3356265333	-6.5637424277	-1.9087536099	 0.198313
