19
gdb 111735	3.03682	1.08656	0.92731	2.8095	78.41	-0.247	-0.026	0.221	1318.7988	0.157812	-422.99684	-422.987876	-422.986932	-423.031015	32.688	
C	 0.2493926988	 1.5291499225	 0.1757490584	-0.377841
C	-0.1458323177	 0.0633469499	-0.0407988221	-0.214547
C	 0.5508672072	-0.5400346683	-1.2435676233	-0.09629
C	 1.855889735	-1.2397778376	-1.1842635914	 0.056003
O	 2.0424830464	-1.9715892419	 0.0164806371	-0.276004
C	 0.9074777292	-2.8335444819	-0.2914663185	-0.15174
C	 0.578674353	-2.0413867696	-1.5501155011	 0.154949
C	 0.1885598852	-2.621323521	-2.8346284539	 0.055201
O	-0.0847115799	-3.7886089287	-2.9994838939	-0.273866
H	 1.327053126	 1.6247128293	 0.3423114309	 0.126112
H	-0.0112442356	 2.1455092549	-0.691640994	 0.11531
H	-0.2636603524	 1.9467959293	 1.046982746	 0.118766
H	 0.10988632	-0.5155628292	 0.8512521415	 0.121941
H	-1.2313371287	-0.0156753342	-0.1740152402	 0.105526
H	 0.4411471236	 0.0319129642	-2.1661293991	 0.098035
H	 2.7328278876	-1.0122190789	-1.7809703346	 0.118846
H	 1.2457198666	-3.8479862797	-0.51822958	 0.137164
H	 0.1669533129	-2.851911227	 0.5139647182	 0.116191
H	 0.1634364728	-1.8959171823	-3.68062177	 0.066244
