16
gdb 35011	2.81855	1.31523	1.08924	4.1038	81.41	-0.2651	0.0027	0.2678	1127.0725	0.124121	-363.567441	-363.559359	-363.558414	-363.600037	30.782	
C	 0.0509905667	-1.1902632661	-0.008933467	-0.432771
C	 0.0531250377	 0.0118569203	 0.0266498205	 0.333479
C	 0.0564621709	 1.4455960359	 0.0724113803	-0.266406
C	 0.4873032877	 2.2458861529	 1.2784246884	-0.105169
C	 1.6024025645	 1.5324115574	 2.0484827218	-0.23726
C	 2.4853372878	 1.5335202085	 0.7583358669	-0.293689
C	 1.3534859021	 2.2579031002	 0.0065889336	 0.198221
C	 1.5256520343	 3.2855599694	-0.9661354335	 0.189662
N	 1.6760426993	 4.1230576114	-1.7515111412	-0.348132
H	 0.0414532359	-2.2516115516	-0.0485219165	 0.205716
H	-0.7491965328	 1.9198677498	-0.4818945653	 0.13894
H	-0.1431695692	 3.0427334021	 1.6530281925	 0.117458
H	 2.0273733782	 2.1517788348	 2.8394273979	 0.119366
H	 1.3360758686	 0.555384132	 2.4577472303	 0.124353
H	 3.3739146804	 2.1571371817	 0.8594848797	 0.12945
H	 2.7652928478	 0.5620027213	 0.3461113417	 0.126782
