18
gdb 73197	2.51396	1.44801	1.27084	4.2154	72.07	-0.2366	-0.0259	0.2107	1075.5868	0.146127	-439.045476	-439.036883	-439.035939	-439.079168	31.722	
C	 0.1629035036	 1.513599142	-0.2220211319	-0.480288
C	 0.1081876268	 0.0362960671	 0.0462259196	 0.428186
O	-1.2382278808	-0.4522055402	 0.2571949726	-0.328509
C	-0.8711040666	-1.0956472535	 1.5077950972	-0.070983
C	 0.6108817381	-0.7721463035	 1.2744907217	-0.107559
N	 1.2447804045	-1.76396528	 0.3713972368	-0.336743
C	 0.9671499448	-0.9386201094	-0.8319729242	-0.123894
C	 0.2120203607	-1.6451876752	-1.9384177651	 0.174071
O	 0.1614617879	-1.2374282877	-3.0706944113	-0.255389
H	 1.1970749291	 1.8672040059	-0.2719505531	 0.121802
H	-0.3199999585	 1.7333581033	-1.1805984512	 0.14845
H	-0.3645514827	 2.0663388996	 0.5607177616	 0.128591
H	-1.3332558608	-0.5833588901	 2.3611130264	 0.101592
H	-1.1220260783	-2.1604655431	 1.5222185975	 0.113561
H	 1.2163706176	-0.3805648513	 2.0929347558	 0.082476
H	 2.2298599907	-1.9169960659	 0.5462284512	 0.22855
H	 1.8364320677	-0.4274836761	-1.2630986872	 0.089383
H	-0.3132762339	-2.5673468918	-1.6111436665	 0.086703
