20
gdb 115628	2.9088	1.11	0.99657	3.2261	75.7	-0.2363	0.0579	0.2942	1284.9757	0.169876	-440.222774	-440.21354	-440.212596	-440.257044	34.096	
C	-0.1819104937	 1.3804733393	-0.0406151223	-0.320149
N	 0.150524942	-0.0375619938	-0.0604537166	-0.117258
C	 1.5723499802	-0.3840891229	-0.1258120853	-0.317511
C	 0.7887297051	-0.5986901686	 1.1110968055	 0.279476
C	 0.9787116513	 0.0082164679	 2.5022996714	-0.148454
O	 0.5842037986	-1.2411419532	 3.1132195449	-0.311353
C	 0.3408973231	-1.8727390751	 1.8205091079	 0.028307
C	-1.1208538138	-2.2699396752	 1.7015802224	-0.056748
O	-1.4740267762	-3.1450576674	 2.7555792069	-0.423551
H	 0.5540902909	 2.0018212539	 0.4962398777	 0.10251
H	-0.2478032473	 1.7446539084	-1.0700659738	 0.130402
H	-1.1591797505	 1.5194883068	 0.4322701092	 0.129109
H	 1.8308295852	-1.217468083	-0.7744037629	 0.121382
H	 2.2975497633	 0.4300165676	-0.1157137363	 0.109185
H	 2.0023975414	 0.28939472	 2.7769132528	 0.11055
H	 0.2997597993	 0.8305878277	 2.7629876233	 0.107968
H	 0.9892920761	-2.7492429097	 1.696714774	 0.086156
H	-1.7466344975	-1.363885374	 1.695902168	 0.083274
H	-1.2963586866	-2.8002484411	 0.7603460737	 0.114752
H	-1.1925357208	-2.7051781675	 3.5674246695	 0.291954
