21
gdb 92502	2.44719	1.61776	1.41237	1.0447	77.47	-0.2458	0.0779	0.3237	1062.0987	0.182509	-424.22883	-424.220293	-424.219349	-424.261498	33.465	
C	 0.6641912217	 1.3860853497	-0.0830124238	-0.402169
C	-0.0266590088	 0.0251403678	 0.0151633562	 0.121055
C	 0.2234093727	-0.8899917662	-1.2041757209	-0.263816
C	 1.3904856564	-1.7570052362	-0.7622170773	 0.069819
O	 2.6743970774	-1.0875874862	-0.8090826859	-0.299976
C	 2.8244932366	-1.165068722	 0.6278754101	-0.123205
C	 1.3829489323	-1.7090613532	 0.7879132087	 0.367188
C	 1.1663131117	-2.9519518332	 1.6237456218	-0.46275
O	 0.4274935162	-0.727020459	 1.155172513	-0.316767
H	 1.7151788599	 1.276951998	-0.3616354616	 0.138974
H	 0.1736483925	 1.9991854402	-0.8472359036	 0.109426
H	 0.5974335239	 1.9138217413	 0.8725747341	 0.118636
H	-1.0987596407	 0.1846521859	 0.1755427355	 0.080174
H	-0.646287669	-1.5264765009	-1.3989799828	 0.104135
H	 0.4505707229	-0.33143608	-2.1156063342	 0.116411
H	 1.4323536678	-2.7380915581	-1.2471387002	 0.071357
H	 3.6175445487	-1.8688756049	 0.9114396799	 0.095729
H	 3.0125330279	-0.1891044794	 1.0864900982	 0.106202
H	 1.2739162685	-2.7162681748	 2.6873592026	 0.130148
H	 0.1577816598	-3.3465629614	 1.4681510581	 0.12254
H	 1.8921134216	-3.7292976374	 1.3681138922	 0.116888
