14
gdb 84196	3.77999	1.11636	0.89056	2.9821	74.2	-0.2319	-0.0486	0.1833	1220.4922	0.099822	-436.688055	-436.679802	-436.678858	-436.720959	30.769	
O	 0.137829587	 1.4407673194	 0.1642737399	-0.429748
C	-0.0132801589	 0.0445839482	 0.0462389198	 0.00881
C	-1.4334976403	-0.4263705698	-0.0891691488	-0.26401
C	-1.5215765912	-1.2288360434	-1.1652874772	 0.232697
N	-0.2709933156	-1.3211726422	-1.8337675774	-0.402002
C	 0.6456323145	-0.4779176947	-1.2503168742	 0.374164
O	 1.7350332157	-0.16058546	-1.6682246989	-0.374912
C	-2.6305062617	-1.9533159544	-1.6579149374	 0.26056
C	-3.5590947173	-2.573550516	-2.1072217409	-0.41338
H	 1.0207494768	 1.6403683649	-0.1769273087	 0.296369
H	 0.4703276597	-0.4766776468	 0.8940930653	 0.107808
H	-2.2296050705	-0.217195689	 0.6073459705	 0.126243
H	-0.1639875581	-1.6898607212	-2.7660375241	 0.268693
H	-4.3878353501	-3.1164409749	-2.4910401981	 0.208707
