20
gdb 41099	2.92695	1.89548	1.76566	1.5366	81.27	-0.1943	0.0684	0.2627	903.6786	0.173376	-365.904362	-365.897651	-365.896707	-365.934866	28.879	
C	-0.0035865802	 1.4271052447	 0.0995168792	-0.162225
C	 1.5371201256	 1.5032614097	-0.027055594	-0.127274
C	 2.0216570628	 1.3626696463	-1.5089578521	-0.306909
C	 1.6190619024	-0.1405744525	-1.4616041533	 0.250034
C	 2.6560620382	-1.2919225409	-1.3013525775	-0.306756
C	 2.4300377007	-1.2403827851	 0.2624401083	-0.35695
C	 1.4656056057	-0.0545942316	 0.0511739977	 0.34642
N	-0.0630579814	-0.0743133897	-0.0331942521	-0.198493
C	 0.0989182693	-0.4334057713	-1.500273835	-0.23909
H	-0.3413660597	 1.7069854256	 1.1020816735	 0.107746
H	-0.6022841102	 1.9704442255	-0.6405535965	 0.09433
H	 2.0659592838	 2.1776407088	 0.6485241027	 0.065806
H	 1.5441822898	 2.0045313222	-2.2573727232	 0.093567
H	 3.1064136693	 1.4839272833	-1.5938565546	 0.101381
H	 2.3900905085	-2.2383456153	-1.780329636	 0.103669
H	 3.6696962219	-1.0250674865	-1.6130041099	 0.103157
H	 1.9363162885	-2.1215097554	 0.6804195441	 0.120974
H	 3.3175461981	-1.0297418497	 0.8647502317	 0.109616
H	-0.5273273953	 0.1546597192	-2.1815345934	 0.097353
H	-0.1310881176	-1.4933024374	-1.6498421998	 0.103645
