17
gdb 55078	3.10107	1.05622	0.84192	5.5369	70.58	-0.2401	-0.0174	0.2227	1327.4	0.134757	-455.162649	-455.153418	-455.152474	-455.197656	32.868	
N	 0.0085612152	 0.9985233868	-0.1439163494	-0.529965
C	-0.1115161997	-0.3677305002	-0.0408509791	 0.408688
O	 0.7533155168	-1.1426056952	-0.3995832057	-0.374115
N	-1.3159394079	-0.7678972899	 0.5535363524	-0.114167
C	-2.634626138	-0.4498496811	 0.0250641737	-0.269534
C	-2.1374446914	-1.8648845644	 0.0766708335	-0.002337
C	-1.8318038822	-2.6275737931	-1.2007644075	-0.294608
C	-0.8777814815	-3.7920034689	-0.9640618219	 0.14225
O	-1.1685092805	-4.9398152388	-1.1888085656	-0.24355
H	 0.9459926435	 1.3272542209	-0.3137956674	 0.267283
H	-0.5660995124	 1.5772277596	 0.4475017377	 0.262478
H	-3.3686132655	-0.0961959167	 0.744657854	 0.126525
H	-2.6820516184	 0.0222069628	-0.9538695309	 0.133531
H	-2.516854725	-2.4893946398	 0.8843443718	 0.113733
H	-2.7607372802	-3.0323452919	-1.6148482108	 0.122047
H	-1.377849696	-1.9547221695	-1.9372176142	 0.12982
H	 0.1106494633	-3.4973768406	-0.5627153404	 0.12192
