15
gdb 18467	3.92312	1.51994	1.40716	3.0629	61.43	-0.2464	0.007	0.2534	909.4115	0.119215	-399.77883	-399.771495	-399.770551	-399.810938	27.054	
O	 0.0288611431	 1.1592770893	-0.5611576277	-0.41921
C	 0.030375969	-0.0872291697	 0.1217468716	-0.121955
C	-1.3746748332	-0.6311948017	 0.0689110542	-0.009948
C	-1.982968142	-1.2906799835	-1.1301316539	-0.002147
N	-1.027803217	-2.1092644537	-1.8793787007	-0.340344
C	-0.6947568947	-2.870932483	-0.7416142219	 0.410641
O	 0.1045362391	-3.7473397849	-0.5752727825	-0.342669
C	-1.7158278907	-2.1257667846	 0.1138592228	-0.256269
H	 0.8857555628	 1.5753004328	-0.4265846774	 0.290647
H	 0.7377859071	-0.7936524594	-0.3354338353	 0.102929
H	 0.3281911382	 0.029719237	 1.1747238582	 0.099336
H	-2.0884616739	-0.0310000076	 0.6307803766	 0.107573
H	-2.9355534064	-1.0208967238	-1.5656311926	 0.116226
H	-0.3339738636	-1.7273471075	-2.5126067787	 0.246923
H	-2.4020563979	-2.5476314596	 0.8339037973	 0.118267
