19
gdb 67043	2.13032	2.0569	1.59605	2.4793	73.85	-0.2119	0.076	0.2879	963.3985	0.158448	-422.989073	-422.980979	-422.980035	-423.021136	31.735	
C	-0.0437338372	 1.5634848991	-0.0656986595	-0.518117
C	-0.0266199722	 0.066663809	-0.0029573609	 0.16069
C	 0.5184990138	-1.044380457	-0.8722516979	 0.009757
O	 1.139847091	-1.7474125998	 0.2003882926	-0.338781
C	 0.4581239315	-0.8603515558	 1.157263345	 0.341927
C	 1.3805199531	-0.3530599448	 2.2332161893	-0.491281
C	-0.8054197986	-1.6064831672	 1.5769198614	-0.097268
O	-1.5254383252	-1.8110006465	 0.3563894956	-0.269159
C	-0.9735145319	-0.9344553286	-0.5980146917	 0.029824
H	 0.9399078017	 1.9908728871	 0.1588589875	 0.124705
H	-0.3307998949	 1.9046724528	-1.065483386	 0.126641
H	-0.7653846954	 1.986360892	 0.6432351785	 0.124624
H	 0.9992109387	-1.0589425049	-1.844818074	 0.099906
H	 2.2374032172	 0.162774217	 1.7924271146	 0.133197
H	 0.8581878842	 0.3406022483	 2.8999431177	 0.12325
H	 1.7583447541	-1.1879730663	 2.8319227161	 0.134273
H	-0.5716479059	-2.5813252965	 2.0159242963	 0.115478
H	-1.4087201666	-1.0210471413	 2.2893861331	 0.086699
H	-1.6561294776	-0.6706406066	-1.3978240977	 0.103636
