14
gdb 124364	5.17554	1.03375	0.86631	4.6303	66.74	-0.2617	-0.0332	0.2286	1260.0592	0.101054	-470.038394	-470.030273	-470.029329	-470.072487	28.001	
C	-0.0111484931	 1.5167489511	-0.0946412005	-0.506835
C	-0.0192808011	 0.0234115509	 0.172879526	 0.405045
O	-0.0639956955	-0.4747201178	 1.2678530752	-0.301283
N	 0.0298264179	-0.736604882	-1.0036219559	-0.447665
C	 0.0370316203	-2.1001772031	-1.1283703746	 0.576259
N	 0.0844069426	-2.7276358022	-2.2740390334	-0.373855
C	 0.0695271215	-4.0305182026	-1.8531530793	 0.051789
N	 0.0176598035	-4.2156475356	-0.5642373021	-0.118156
O	-0.0048731306	-2.8896057732	-0.0602619497	-0.18004
H	 0.8980500807	 1.8124993506	-0.6286391076	 0.15031
H	-0.8701323032	 1.8085965782	-0.7079932547	 0.150092
H	-0.0549965865	 2.0387887027	 0.8599670988	 0.165332
H	 0.0651471403	-0.260173734	-1.8926054607	 0.279069
H	 0.0983789033	-4.8705130728	-2.5322870514	 0.149937
