20
gdb 9413	3.30219	1.0584	0.99677	2.3461	68.18	-0.2606	0.0638	0.3244	1278.9346	0.175094	-423.261386	-423.251513	-423.250569	-423.296961	34.869	
C	 0.0009516735	 1.5829440849	 0.0945139681	-0.394917
C	-0.0084183498	 0.0586534706	-0.0090896843	 0.117564
C	 0.7654030059	-0.4560395637	-1.2256922376	-0.063058
O	 2.1412841839	-0.136148842	-1.1471549227	-0.41901
O	 0.6348632855	-0.5375996104	 1.123694055	-0.29261
C	-0.1888503416	-0.7451172443	 2.2595474624	-0.076627
C	 0.7336092581	-1.1085816532	 3.4120796845	-0.058334
O	 1.6354619691	-0.0592953585	 3.7014777344	-0.419969
H	 1.029300372	 1.9491995285	 0.0428220875	 0.135701
H	-0.5653174822	 2.0253561215	-0.7314619164	 0.117057
H	-0.4500980828	 1.9233251904	 1.0307428813	 0.119548
H	-1.0426525264	-0.3129628853	-0.0737153461	 0.069133
H	 0.6123838565	-1.5429354129	-1.3090653038	 0.089477
H	 0.3812745658	 0.0111683055	-2.1383594109	 0.107558
H	 2.447382803	-0.5004161773	-0.3086010396	 0.2882
H	-0.7442486424	 0.1699365572	 2.51069842	 0.101761
H	-0.9157716416	-1.5510474078	 2.0696837244	 0.091233
H	 0.1420887862	-1.2876403489	 4.3159051366	 0.109906
H	 1.2644576505	-2.0422845476	 3.1653426696	 0.092224
H	 2.0122115168	 0.2031036933	 2.8535518275	 0.285164
