17
gdb 3289	4.5011	2.57213	2.11409	1.8353	63.16	-0.2378	0.0788	0.3165	689.8569	0.149291	-309.683901	-309.677402	-309.676457	-309.714376	24.781	
C	-0.5313947292	 1.474046329	-0.0589109285	-0.411258
C	 0.0038321695	 0.0499623542	-0.0048854647	 0.035231
C	 1.2832946559	-0.3011078495	-0.8392271839	-0.256818
C	 1.956372748	-0.8470449693	 0.4402429502	 0.128205
O	 2.7671656462	 0.1424828726	 1.1073975503	-0.291486
C	 1.6787382021	 0.5028975447	 1.9902854018	-0.08155
C	 0.7105098072	-0.4648599041	 1.2891360217	-0.096244
H	 0.2526565406	 2.2111229982	 0.1427443351	 0.122812
H	-0.9379556436	 1.6951124561	-1.0518641236	 0.117043
H	-1.3343228477	 1.6280913146	 0.6709888531	 0.11323
H	-0.8049077848	-0.6429418827	-0.2589128285	 0.075063
H	 1.1177020936	-1.0400508933	-1.6277930832	 0.097194
H	 1.8206585569	 0.5532572506	-1.2590530612	 0.107678
H	 2.4358052433	-1.8292562161	 0.4124187704	 0.071703
H	 1.9055111103	 0.2313324356	 3.0296905259	 0.09861
H	 1.4455193863	 1.5738778429	 1.9523026714	 0.099484
H	 0.1532208855	-1.1537590934	 1.9233571336	 0.071101
