17
gdb 81204	3.37836	1.40044	1.27064	2.6272	75.9	-0.2408	-0.0135	0.2272	1042.0477	0.135211	-417.839354	-417.831789	-417.830845	-417.871133	29.987	
C	-0.0620678339	 1.5532366374	 0.0128181285	-0.453687
C	 0.1524137395	 0.057043141	-0.0537586302	 0.059097
N	 1.4180597057	-0.4825317354	-0.7542495867	-0.175886
C	 2.1978273593	-0.139083212	 0.5538475961	-0.255591
C	 0.850937721	-0.782675714	 1.0319511612	 0.309394
O	-0.0170528591	-1.651159047	 1.878255768	-0.33147
C	-0.1559220193	-2.4764180494	 0.7250023029	 0.364969
N	-0.9432102085	-3.4230706479	 0.5123890453	-0.535994
C	 1.0787773329	-1.8473445338	 0.0408222002	-0.096244
H	-0.161151451	 1.9585185824	-0.9994450487	 0.139188
H	-0.9947967551	 1.7592419214	 0.5474427159	 0.135679
H	 0.7362781016	 2.0992192139	 0.5193145716	 0.124494
H	-0.7322659371	-0.4286454907	-0.4775755193	 0.103693
H	 3.1055328009	-0.7266388612	 0.6896247196	 0.129657
H	 2.3754192237	 0.927579931	 0.6791154893	 0.125896
H	-1.5573276942	-3.5883302564	 1.3123999364	 0.240023
H	 1.9592954337	-2.4854164794	 0.09924639	 0.116782
