13
gdb 24537	4.09686	1.76509	1.23361	3.9762	73.68	-0.2501	-0.0703	0.1797	904.3388	0.09536	-411.859812	-411.854177	-411.853233	-411.889768	22.372	
N	-0.0252743513	 1.3353379564	 0.0101933921	-0.368644
C	 1.14873802	 2.0230551486	 0.0019602967	 0.081193
N	 2.3282385452	 1.4629893313	-0.0129676604	-0.264837
C	 2.4146602135	 0.1044090813	-0.0210702531	-0.078005
C	 1.2860080593	-0.6797318292	-0.0138084639	 0.241528
N	 1.0452216161	-2.0278708614	-0.0185326483	-0.344672
C	-0.2825153919	-2.0783934084	-0.0053618385	 0.025202
N	-0.9896902063	-0.8906641355	 0.0081101792	-0.37548
C	 0.0006595044	-0.0219594388	 0.0027097727	 0.390589
H	-0.9125725333	 1.8240714001	 0.0217768344	 0.2863
H	 1.0621031496	 3.1042900269	 0.0085872898	 0.147052
H	 3.4157836478	-0.3155642343	-0.0334406366	 0.139428
H	-0.816056413	-3.0213072869	-0.0049766442	 0.120346
