19
gdb 92466	2.64681	1.73282	1.70996	2.1278	74.26	-0.2367	0.0062	0.2429	937.4188	0.161634	-423.032439	-423.02522	-423.024276	-423.063719	29.58	
C	-0.1091420378	 1.5413910027	-0.0414782602	-0.411987
C	 0.0421849007	 0.025928638	 0.0148085998	 0.166264
O	 0.7459972035	-0.4086433137	-1.1631664982	-0.284622
C	 1.8301435508	-1.2675385719	-0.8426330276	 0.160855
O	 2.8090588045	-0.543025977	-0.107514207	-0.266237
C	 2.2790629658	-0.0919146729	 1.1421439251	-0.064242
C	 0.7986157201	-0.5227623934	 1.2566305504	-0.131631
C	 0.7828479129	-2.0283305508	 1.1300337416	-0.107808
C	 1.3387672599	-2.4331856235	-0.0114480565	-0.070468
H	 0.8608416515	 2.0452332828	-0.0444544863	 0.129942
H	-0.6321964369	 1.8224197111	-0.9596643973	 0.129644
H	-0.6945042292	 1.9026855211	 0.8107230213	 0.108993
H	-0.9586782154	-0.4297862102	-0.0016001452	 0.073792
H	 2.2970928139	-1.5445751178	-1.7871484572	 0.086982
H	 2.8676253347	-0.5224494123	 1.9624518227	 0.098753
H	 2.3786794198	 0.9985438527	 1.1853601946	 0.105046
H	 0.3522432502	-0.1528530375	 2.181715518	 0.073936
H	 0.3665655136	-2.6759580126	 1.8930100916	 0.097811
H	 1.4547922075	-3.4584613948	-0.3406237996	 0.104976
