12
gdb 132260	3.52285	1.27768	0.93762	1.6163	73.3	-0.2679	-0.0643	0.2036	1120.0542	0.077671	-439.655032	-439.648089	-439.647145	-439.686653	26.017	
F	-0.0207214464	 0.0577289433	 0.0037809274	-0.053206
C	-0.0138164987	 1.3802694926	 0.0105176182	 0.328117
N	-1.1836166013	 1.9710190842	 0.0296320633	-0.323642
C	-1.1589160291	 3.3166458667	 0.036325959	 0.183406
N	-0.0627607211	 4.0846515676	 0.0253442081	-0.28172
C	 1.1046878363	 3.436341469	 0.0059873766	 0.012415
C	 1.2042346432	 2.052700262	-0.0026016301	-0.261196
C	-2.4254342795	 3.9833557947	 0.057163511	 0.259606
C	-3.4889122914	 4.5433155501	 0.0746510057	-0.333993
H	 1.9986366628	 4.0546391239	-0.0029965698	 0.131975
H	 2.1487374988	 1.5261070415	-0.0182491511	 0.133462
H	-4.4287242336	 5.0385174444	 0.0901095618	 0.204776
