14
gdb 33918	4.31349	1.29357	1.18605	3.0485	66.51	-0.269	-0.0196	0.2495	1008.1331	0.101096	-436.613173	-436.606375	-436.605431	-436.644496	26.083	
N	 0.0759544963	-1.1633268844	-0.1330284881	-0.331855
C	 0.0756863972	-0.0106070908	-0.0402739997	 0.198973
C	 0.0506504688	 1.4071464101	 0.1359098327	 0.304329
O	 0.2081642065	 2.2510481783	-1.0050521553	-0.244797
C	 1.1343117317	 2.4279258303	 0.0582173949	-0.062643
C	 0.4316766911	 3.2660864779	 1.1739061757	 0.092694
O	-0.4602047891	 4.2825268787	 0.7143625832	-0.278432
C	-1.5916423562	 3.3684557252	 0.7395378617	-0.085641
C	-0.6956880605	 2.2118511412	 1.2363019739	-0.185686
H	 2.1870372318	 2.3159310071	-0.1755505739	 0.134127
H	 1.0603056472	 3.5555432459	 2.0184465575	 0.100071
H	-2.3422100832	 3.6952486574	 1.4668764929	 0.114521
H	-2.0452154062	 3.2475235587	-0.2474689446	 0.13044
H	-0.9525966156	 1.6672022444	 2.1409169992	 0.113898
