21
gdb 37056	3.06759	1.67331	1.41292	0.2743	85.99	-0.2215	0.024	0.2455	1011.4843	0.18625	-349.969548	-349.962494	-349.961549	-350.000414	30.268	
C	 0.0281452234	 1.4246325177	-0.0144289155	-0.373117
C	 1.3485200469	 0.6933453634	-0.0097891594	 0.323357
C	 2.037764641	 0.5180957245	 1.3337772497	-0.297149
C	 0.9227489578	 0.0063199962	 2.2870336526	-0.22098
C	-0.0832530087	-0.7646571481	 1.3886200142	-0.297555
C	 0.0443925399	-0.0939694885	 0.0306994547	 0.310662
C	-0.048501696	-0.7668072167	-1.2965771534	-0.188096
C	 1.0031482455	-0.4690801583	-2.0679762115	-0.067364
C	 2.010955531	 0.4256057263	-1.3607705989	-0.371816
H	-0.2599082619	 1.9731708291	 0.8772386265	 0.104277
H	-0.2960390867	 1.8827075212	-0.9428897588	 0.107116
H	 2.82643562	-0.2379528558	 1.2309294797	 0.096164
H	 2.5147273224	 1.4275555829	 1.7167807156	 0.093807
H	 1.319694451	-0.6141169599	 3.0951863728	 0.096862
H	 0.4215042769	 0.853659379	 2.7656773628	 0.105085
H	 0.2141111302	-1.8163356966	 1.2969607893	 0.098963
H	-1.0963049703	-0.7504362577	 1.8057386653	 0.093418
H	-0.8834744894	-1.3921523773	-1.594501584	 0.089544
H	 1.1366355437	-0.7945048199	-3.0946607401	 0.088935
H	 2.2141445911	 1.3420478933	-1.929690965	 0.106254
H	 2.9796475523	-0.0804807248	-1.2423761067	 0.101635
