21
gdb 121765	6.77776	0.47874	0.45338	2.4088	76.42	-0.246	-0.0107	0.2354	2350.0862	0.17892	-461.371492	-461.360051	-461.359106	-461.410239	38.567	
O	 0.0709906671	 1.3980211166	 0.0085489171	-0.419373
C	 0.063968644	-0.0204282501	 0.0013593116	-0.077632
C	-1.3876758109	-0.4796582092	 0.0124574038	-0.160721
C	-1.516996084	-2.0011647024	 0.0059816327	-0.303994
C	-2.9591316389	-2.4942335575	 0.0170835109	 0.36115
O	-3.8991689135	-1.7307371518	 0.0303546682	-0.299079
C	-3.1528920415	-4.0020889848	 0.0104705754	-0.279393
C	-4.6151575498	-4.4217554227	 0.0224623031	-0.074308
O	-4.6429063854	-5.8420212218	 0.0147073769	-0.425423
H	 0.9853075453	 1.6954244115	 0.0011414383	 0.285434
H	 0.5752040143	-0.417529418	-0.8920324875	 0.081205
H	 0.5916134862	-0.4265929111	 0.8810359548	 0.081204
H	-1.8878949941	-0.0665225768	 0.8938177113	 0.121093
H	-1.904052586	-0.0576801623	-0.8552958898	 0.121056
H	-1.0201257433	-2.4384100581	-0.8722480997	 0.119762
H	-1.0038499605	-2.4471533307	 0.8703581791	 0.119789
H	-2.650203924	-4.4248004957	-0.8694111012	 0.128749
H	-2.6330403478	-4.4346780661	 0.8754513083	 0.128734
H	-5.1097996702	-4.0087717911	 0.9128949559	 0.102159
H	-5.1271434187	-3.9987831574	-0.8533555115	 0.102171
H	-5.5629045785	-6.1213060206	 0.0220710823	 0.287418
