23
gdb 105192	1.80629	1.44058	1.04269	2.753	87.01	-0.2372	-0.0066	0.2307	1323.4764	0.203193	-388.312699	-388.302076	-388.301132	-388.348177	39.307	
C	-0.6294815331	 1.4270254554	 0.5442477202	-0.377518
C	 0.1231723512	 0.1942457306	 0.0221960768	-0.286274
C	 0.9580009832	-0.5035462778	 1.0865664497	 0.226096
C	 0.2464735612	-1.2967647091	 2.1726698086	-0.315845
C	 1.0360321128	-2.0461040698	 1.1516546944	-0.018741
C	 0.3868056244	-2.9503687567	 0.1290519829	-0.420541
C	 2.2564462742	 0.1270744941	 1.5216954226	 0.330793
C	 2.9153384698	 1.1436834895	 0.6025509468	-0.4977
O	 2.8025256946	-0.208299757	 2.5540774068	-0.322159
H	 0.0507762843	 2.1849698598	 0.9460370817	 0.118697
H	-1.2136309306	 1.8953714023	-0.2540723782	 0.113398
H	-1.318137822	 1.1506763046	 1.3488614149	 0.122401
H	-0.6087451148	-0.5105039305	-0.3828283636	 0.098389
H	 0.7558961565	 0.478960279	-0.8264124756	 0.097957
H	 0.650915771	-1.2117657962	 3.1741973242	 0.134995
H	-0.8363722263	-1.3397713284	 2.1023767756	 0.105613
H	 2.0035681975	-2.393937363	 1.5024070027	 0.106431
H	-0.6254285771	-2.6296258841	-0.1314522354	 0.119968
H	 0.9724422824	-3.0066693529	-0.7952012257	 0.119314
H	 0.3086240806	-3.9662818237	 0.5320685257	 0.125179
H	 3.1003981197	 0.7046253121	-0.3844462151	 0.139076
H	 2.2787525385	 2.0198438279	 0.4467492046	 0.141055
H	 3.8617004519	 1.4549274141	 1.0456642952	 0.139415
