19
gdb 41966	2.25231	2.04053	1.79195	1.0303	74.66	-0.2384	0.0096	0.248	905.3639	0.162669	-423.021155	-423.014205	-423.013261	-423.052208	28.52	
C	-0.0242029375	 1.5228983777	-0.0439072805	-0.061892
O	 1.2671639505	 2.1001125114	 0.0811250818	-0.274937
C	 2.3686372888	 1.1808368144	 0.0113408856	 0.024365
C	 2.5857611625	 0.5149222697	 1.3932280419	-0.080588
O	 1.831145526	-0.6625711992	 1.5971870961	-0.230415
C	 0.4358917807	-0.5282152948	 1.4212300908	-0.076288
C	 0.0068636998	-0.0152711921	 0.0136109248	-0.119447
C	 0.9738289663	-0.475563704	-1.0522131642	-0.064694
C	 2.1554674039	 0.1385512291	-1.0611301558	-0.052337
H	-0.648643185	 1.9228526163	 0.7666698783	 0.095703
H	-0.4692315716	 1.8365659096	-0.9985733307	 0.094413
H	 3.2388454065	 1.8099534029	-0.1994206178	 0.082567
H	 3.6314455051	 0.2072462555	 1.4977320597	 0.105894
H	 2.3620436194	 1.2713849035	 2.1624829483	 0.094252
H	 0.0366859774	-1.5336298879	 1.5833590982	 0.109267
H	 0.005131548	 0.1357150107	 2.190498813	 0.087296
H	-1.0090176754	-0.3784579294	-0.1747713678	 0.074658
H	 0.69347106	-1.2374480042	-1.7715230192	 0.094674
H	 2.9410989347	-0.0778094788	-1.7766100124	 0.097509
