23
gdb 57454	2.84535	1.2549	1.15135	1.5187	84.61	-0.2402	0.0713	0.3115	1218.3345	0.204592	-388.266475	-388.256951	-388.256007	-388.300201	37.628	
C	-1.3022851886	-0.741862174	-0.6975406899	-0.425009
C	-0.1146745914	-0.0747498151	 0.0121979493	 0.313221
C	-0.4564473963	 1.3642939759	 0.4064002616	-0.394689
O	 0.139132573	-0.7510294942	 1.2513628255	-0.461276
C	 1.1230956846	-0.0945948147	-0.9030418524	 0.044076
C	 2.5078328097	 0.4396967751	-0.3998847163	-0.274886
C	 3.166848639	-0.8483913128	-0.9179318579	-0.042479
C	 2.622319442	-2.0309057257	-0.1786785509	-0.283903
C	 1.7983734296	-1.4224713183	-1.2939583228	-0.104618
H	-1.5788835185	-0.2037589293	-1.6099683517	 0.111891
H	-1.0564408604	-1.7720573911	-0.9813249883	 0.109407
H	-2.1709331002	-0.767597189	-0.0332838425	 0.119055
H	-1.3365766008	 1.3784720157	 1.0555606904	 0.117048
H	 0.3741132733	 1.8198683319	 0.9524032592	 0.123631
H	-0.665771297	 1.9724852752	-0.4787750017	 0.107251
H	 0.2298860238	-1.6880804152	 1.05053577	 0.278958
H	 0.8589342547	 0.4406037581	-1.8220878267	 0.068854
H	 2.8258752159	 1.3480583469	-0.915168094	 0.098252
H	 2.5939270182	 0.5953490323	 0.6793011045	 0.108491
H	 4.0913229834	-0.896088949	-1.4797242136	 0.084082
H	 3.0721981129	-2.9859111402	-0.4323168277	 0.107503
H	 2.3427946262	-1.9309668025	 0.8649654923	 0.114077
H	 1.5379262572	-2.0122264598	-2.1656133863	 0.081063
