21
gdb 118596	2.71135	0.76217	0.62428	2.7548	85.99	-0.2454	-0.0222	0.2232	1809.3319	0.178636	-387.073811	-387.062839	-387.061895	-387.111149	38.349	
C	-0.04381585	 1.6329575811	 0.0315269937	-0.381423
C	-0.0440004096	 0.1021540941	 0.0023582346	-0.17933
C	 0.7316384224	-0.5097636362	 1.1723309036	-0.166806
C	 0.7473327458	-2.0570310223	 1.1773766352	-0.175124
C	 1.6755095416	-2.5901436078	 2.3008011373	-0.286924
C	 1.8438333902	-4.094453119	 2.2816171351	 0.150413
O	 2.9100447254	-4.6551877564	 2.3035808915	-0.242497
C	-0.6032251648	-2.6057941991	 1.3047907445	 0.34534
C	-1.7161236526	-3.0421610689	 1.4375827669	-0.485426
H	 0.9753252338	 2.0329852478	-0.0129986847	 0.114585
H	-0.6000220379	 2.0452738151	-0.8157651778	 0.115413
H	-0.507207537	 2.0113940397	 0.9493744456	 0.116472
H	-1.0746674386	-0.2695633686	 0.0198391757	 0.114703
H	 0.3928940848	-0.2475082886	-0.9424958849	 0.096127
H	 1.7723229508	-0.1630200189	 1.1449078976	 0.098804
H	 0.3089171326	-0.1605603138	 2.1230229134	 0.104678
H	 1.1619165198	-2.3884560556	 0.2143220617	 0.115698
H	 2.6661445964	-2.1337470673	 2.2245380994	 0.121888
H	 1.241329302	-2.3122963348	 3.2712188526	 0.129032
H	 0.892182413	-4.6681248627	 2.247159897	 0.09212
H	-2.697807858	-3.434401188	 1.5402940418	 0.202259
