14
gdb 105296	2.49413	1.13763	0.91659	3.209	64.93	-0.2877	-0.0744	0.2133	1242.8652	0.097738	-473.799939	-473.79089	-473.789946	-473.834617	31.125	
O	-0.1243226264	 1.3359992967	-0.79083538	-0.394382
C	 0.01160001	 0.0801539915	-0.1710674539	-0.131919
C	-1.348613109	-0.5334695034	 0.126443304	 0.166908
O	-2.0174338269	-1.1454651814	-0.9775895	-0.256189
C	-1.6235124201	-2.0013971036	 0.0944997415	-0.082782
C	-0.5448033219	-3.0048613019	-0.2010558397	 0.131653
O	-0.3500006241	-3.9621403832	 0.4988958138	-0.22361
C	-2.2078563796	 0.2748185204	 0.9788446745	 0.290516
N	-2.8718396226	 0.9094546982	 1.6791995319	-0.313739
H	-0.5535228948	 1.2062374417	-1.6442393191	 0.302433
H	 0.596079515	-0.6234019875	-0.7779170934	 0.108541
H	 0.5469131375	 0.2494821297	 0.7679754071	 0.146855
H	-2.4270787726	-2.3726692167	 0.7282680694	 0.14848
H	 0.0374752754	-2.8061640105	-1.1250151161	 0.107237
