18
gdb 15112	8.55021	0.76606	0.73644	0.9835	74.97	-0.2497	0.0541	0.3038	1524.8474	0.151484	-347.744465	-347.735573	-347.734629	-347.778834	31.85	
C	-0.089175327	-1.0115739531	-0.5207487021	-0.449468
C	-0.0006090744	 0.1074330293	-0.0914579501	 0.287689
C	 0.140079835	 1.4659565729	 0.4138641994	-0.349783
C	 1.4884506146	 2.0885765358	 0.0364331922	-0.052858
O	 1.5132741771	 3.3961270105	 0.5761771748	-0.247664
C	 2.7019901095	 4.0760666247	 0.3195017318	 0.148008
C	 2.8718515615	 4.7944876444	-0.9957061264	-0.287556
C	 2.620766223	 5.566108501	 0.2860848734	-0.287068
H	-0.1811713011	-2.0012659399	-0.8939023698	 0.195947
H	-0.661413891	 2.1034146072	 0.0219321192	 0.138869
H	 0.0417067014	 1.4793203991	 1.5057692701	 0.140372
H	 2.3110271935	 1.4813328538	 0.4444375931	 0.100474
H	 1.6055916308	 2.1127578323	-1.056543218	 0.104159
H	 3.584770223	 3.6142685843	 0.7642816245	 0.084377
H	 3.8565084801	 4.8326983527	-1.4483840861	 0.113759
H	 2.048308456	 4.7310447049	-1.698201317	 0.119719
H	 1.634642082	 5.9966063615	 0.4168892158	 0.125991
H	 3.4305667759	 6.1389006387	 0.7233250552	 0.115032
