23
gdb 63165	2.28172	1.60439	1.28514	1.3058	85.63	-0.2259	0.0804	0.3064	1144.8746	0.204849	-388.29384	-388.284213	-388.283269	-388.327456	37.085	
C	-0.0651264077	 1.5319571681	 0.0875886288	-0.456345
C	 0.0083451572	 0.018847125	 0.0188143102	 0.264785
C	-1.2565970512	-0.6112908555	-0.541456889	-0.462266
C	 1.3161076207	-0.6913751287	-0.3448367994	-0.161623
C	 2.6340914059	 0.0779343711	-0.3052120305	-0.26289
C	 2.916753384	 0.1776873623	 1.2087932184	-0.075072
O	 1.6509712927	 0.0649373881	 1.8636033841	-0.297776
C	 0.7979824642	-0.7446028671	 1.07142618	 0.384448
C	 0.313187419	-1.9654359585	 1.8095238495	-0.467808
H	 0.7596131632	 1.9603288848	 0.6581172128	 0.128398
H	-0.0650402078	 1.9730542898	-0.9163751387	 0.107716
H	-0.9948896083	 1.8400008373	 0.5796605335	 0.112344
H	-1.4910315595	-0.1818030046	-1.5227723477	 0.115019
H	-1.1628929426	-1.6924078536	-0.6738816996	 0.112532
H	-2.1163926639	-0.4261602721	 0.1130592847	 0.115994
H	 1.2428126674	-1.5575149225	-0.9943688325	 0.079891
H	 3.4271864576	-0.4639133556	-0.8278291343	 0.101623
H	 2.5554998536	 1.0672008584	-0.7673414388	 0.106673
H	 3.5823568534	-0.637445273	 1.5325887201	 0.091674
H	 3.3665158617	 1.1270284324	 1.5147064587	 0.103513
H	-0.2510552492	-1.6743262988	 2.7021277142	 0.125603
H	-0.3336311687	-2.5885000424	 1.1881881899	 0.11578
H	 1.1623290083	-2.5753327548	 2.1360937156	 0.117786
