16
gdb 13241	7.6612	0.86144	0.82456	2.8345	65.79	-0.2534	0.015	0.2684	1325.8219	0.13088	-379.889879	-379.881776	-379.880832	-379.923702	27.81	
N	-0.1698317665	-1.1297232296	-0.1564977945	-0.292945
C	-0.0928504791	 0.0119650171	-0.0010233622	 0.258996
C	 0.0146266097	 1.4559858474	 0.2254410657	-0.270848
N	 1.287820309	 1.970290827	-0.2685839828	-0.29763
C	 1.4463500212	 3.3946365899	-0.0906399508	 0.010228
C	 1.7794592039	 4.0157411267	 1.2996297674	-0.090313
O	 2.9512119667	 4.6573254552	 0.7618157046	-0.266532
C	 2.8137214044	 3.9749134421	-0.4999013373	-0.101019
H	-0.7977685343	 1.9527034973	-0.3197557473	 0.160285
H	-0.1692564163	 1.6423140229	 1.298638281	 0.138724
H	 2.0563176987	 1.4676371498	 0.1654498083	 0.233862
H	 0.605226997	 3.8965483177	-0.5785554693	 0.098007
H	 1.0700997069	 4.7395102766	 1.7171948033	 0.107837
H	 2.0304149173	 3.2713412355	 2.0707257136	 0.092477
H	 3.5880372851	 3.2081085583	-0.6462588758	 0.10318
H	 2.8305635962	 4.6634997461	-1.351141154	 0.11569
