24
gdb 12280	3.55012	1.26128	1.0564	0.1282	85.28	-0.2744	0.0804	0.3548	1254.1362	0.222833	-314.275307	-314.265672	-314.264728	-314.309259	36.342	
C	-0.0796872989	 1.6196014824	 0.0850453233	-0.379515
C	 0.0825953795	 0.104708782	-0.085593452	-0.20097
C	 0.6997416738	-0.5617209087	 1.1381526112	 0.063279
C	-0.1026581274	-0.6229397062	 2.4674357968	-0.24805
C	 0.5263768698	-2.0158677371	 2.738494459	 0.051087
C	-0.3015062522	-3.0888563012	 3.4308951703	-0.414715
C	 0.8656590565	-2.1183855557	 1.2113746528	-0.031287
C	-0.122013371	-2.9279926541	 0.3727149707	-0.395221
H	 0.8875567884	 2.103738089	 0.2611459666	 0.111523
H	-0.5242133405	 2.0769199615	-0.8045134732	 0.108579
H	-0.725479927	 1.8552468099	 0.9379329505	 0.11775
H	-0.8963198342	-0.3419477571	-0.2990127685	 0.091372
H	 0.7088553388	-0.0978395866	-0.965077378	 0.09074
H	 1.6759790082	-0.1002184906	 1.3344136666	 0.062917
H	 0.0594292101	 0.1644945994	 3.2083942893	 0.089086
H	-1.1803384862	-0.7007770372	 2.2802444393	 0.090217
H	 1.4639986797	-1.8795982881	 3.2902127344	 0.067127
H	-1.2557431932	-3.2603510193	 2.9222429572	 0.111755
H	 0.2314930057	-4.0458745704	 3.4707438671	 0.110556
H	-0.5281721661	-2.795812009	 4.4623923804	 0.111061
H	 1.8788088225	-2.4750113372	 0.9964215252	 0.056372
H	-1.1614610356	-2.627924792	 0.541295099	 0.113394
H	 0.0835227029	-2.8100894454	-0.6964311011	 0.112171
H	-0.0475894137	-3.9953683181	 0.6065051332	 0.110771
