18
gdb 36233	3.68538	0.98878	0.86067	4.672	78.88	-0.2592	-0.0017	0.2575	1344.9567	0.148843	-401.970597	-401.962256	-401.961312	-402.004248	30.822	
N	-0.1899177143	-1.0752803412	 0.6100282034	-0.310934
C	-0.1178295032	 0.0345343609	 0.2964184395	 0.266273
C	-0.0103843211	 1.4448951878	-0.0927703053	-0.430174
C	 1.4197015856	 1.9441030059	-0.1294046842	 0.289071
C	 1.9827575415	 2.4064095316	-1.2445105133	-0.160276
C	 3.3756690653	 2.9757394873	-1.2537773401	-0.252495
C	 3.822193068	 3.2814798233	 0.1775759803	-0.081607
O	 3.55643973	 2.1835446789	 1.0338764008	-0.239893
C	 2.1776244345	 1.9273056659	 1.1781455842	-0.157561
H	-0.4798649434	 1.5733214801	-1.0732825028	 0.157522
H	-0.6048949503	 2.0313644219	 0.6215790866	 0.156978
H	 1.433472389	 2.3863804867	-2.1831656986	 0.090156
H	 4.0695002575	 2.2665463205	-1.7248637035	 0.125154
H	 3.4101053997	 3.8901778571	-1.8592160852	 0.108172
H	 4.8991732632	 3.4594530607	 0.233749864	 0.11274
H	 3.3072313521	 4.1852907018	 0.5435859899	 0.090289
H	 1.7153217605	 2.6512837184	 1.877089868	 0.095447
H	 2.0970232354	 0.9397871221	 1.6475537365	 0.141137
