14
gdb 131353	5.99781	0.9066	0.79139	2.2481	68.07	-0.232	0.0097	0.2417	1325.2909	0.102449	-432.903518	-432.895511	-432.894567	-432.937696	28.903	
O	-0.5634412122	 1.2486248048	-0.3702503801	-0.426806
C	-0.1308344647	 0.0192063336	-0.0310013531	 0.445259
N	 0.7264363821	-0.6533888984	-0.7858091469	-0.33541
N	 0.9032868404	-1.8172077625	-0.1120147345	-0.261741
C	 0.1829522179	-1.879623584	 1.0300168681	 0.423081
C	 0.2111422889	-3.070864652	 1.9511017992	-0.459686
C	 1.0961189792	-4.1289810562	 1.4656854849	 0.270223
N	 1.8046933612	-4.9405697573	 1.0487119352	-0.304011
C	-0.5153776485	-0.6915938409	 1.1267890582	-0.422272
H	-0.1362701293	 1.4802566088	-1.2047537196	 0.306047
H	 1.5228682813	-2.5190265552	-0.4830996918	 0.289998
H	 0.5428257725	-2.7729300458	 2.9529970304	 0.180183
H	-0.7962593787	-3.487565716	 2.0696208318	 0.180178
H	-1.1938092799	-0.3798429689	 1.9028016884	 0.114958
