17
gdb 9295	3.8806	0.98483	0.85785	3.7552	63.4	-0.2631	0.0167	0.2798	1317.4801	0.140392	-438.116638	-438.107393	-438.106449	-438.151891	31.963	
O	-0.6746648867	 1.1911867158	 0.6767008067	-0.420731
C	-0.5781667508	-0.211003743	 0.5631592642	-0.057699
C	-1.4843814776	-0.7298701012	-0.5523941037	 0.079229
O	-1.1714890155	-0.0717077689	-1.7812659338	-0.435466
C	-1.4188864884	-2.2473981274	-0.73914511	-0.123138
O	-1.7834953978	-2.9353406879	 0.4516176761	-0.17571
C	-3.0607721157	-3.3621781468	 0.5559787445	 0.130567
N	-3.4671661352	-3.8719503615	 1.6343190719	-0.435765
H	-0.6745010144	 1.5311147014	-0.2270067391	 0.285006
H	 0.4604287657	-0.5327353801	 0.3532714514	 0.070535
H	-0.8664929588	-0.6479191011	 1.5229805434	 0.136683
H	-2.5163764848	-0.4345609334	-0.33016552	 0.106494
H	-0.2711413671	-0.3175641596	-2.0286464232	 0.286258
H	-2.0599974488	-2.5394290413	-1.5802367049	 0.11952
H	-0.392705505	-2.5571372586	-0.9719886158	 0.112182
H	-3.6407691531	-3.2257636174	-0.3680384388	 0.089327
H	-4.4380647057	-4.1618089191	 1.5394341613	 0.232708
