19
gdb 39616	2.40639	1.6388	1.08111	0.7491	89.41	-0.2286	0.0024	0.2311	1143.9031	0.160667	-348.721526	-348.713294	-348.71235	-348.754049	32.009	
C	 0.1134675399	 1.6128017303	 0.2164008044	-0.248919
C	 1.6496519969	 1.8884692176	 0.0853582059	-0.324508
C	 2.0192452927	 1.4594788456	-1.2542521679	-0.045079
C	 1.8697465609	 0.9487917628	-2.3340771547	 0.175806
C	 1.3364012645	 0.3205608575	-3.531610484	-0.400019
C	-0.1795412694	 0.1796963763	-3.4333396567	-0.042971
C	-0.9362606221	-0.1296137305	-2.3742224954	-0.090163
C	-0.6036915054	-0.5352520148	-0.9880848038	-0.086609
C	-0.2208509037	 0.1546786105	 0.0925793724	-0.024199
H	-0.2275030866	 1.9862836758	 1.1896807241	 0.096693
H	-0.3914832933	 2.1925594257	-0.5618606905	 0.115847
H	 1.8444650176	 2.953702057	 0.2539083767	 0.121454
H	 2.2044331626	 1.3391519604	 0.8559030182	 0.121686
H	 1.5788518306	 0.9054400209	-4.4273534505	 0.128729
H	 1.7890546336	-0.6683316704	-3.6971099363	 0.137649
H	-0.6991855871	 0.3317523873	-4.3773049663	 0.090324
H	-2.0021298868	-0.2349986342	-2.590190086	 0.097646
H	-0.8188133218	-1.5931967582	-0.8188019589	 0.093947
H	-0.102965693	-0.4190640496	 1.0112474092	 0.082685
