13
gdb 28993	3.07908	1.535	1.02434	2.4988	74.25	-0.2745	-0.0628	0.2116	1053.6067	0.092029	-415.68748	-415.680504	-415.67956	-415.719026	26.261	
O	 0.0774836058	 1.3389196948	-0.0542250351	-0.413206
C	 0.052194103	-0.0008069176	-0.0154628083	 0.350438
C	 0.0327919229	-0.7151058358	-1.2126526447	-0.205771
C	 0.0067347944	-2.0998291166	-1.1555094394	 0.024018
N	-0.0013970995	-2.8173023783	-0.0210099183	-0.280983
C	 0.0170910216	-2.1359848824	 1.1161168698	-0.03961
C	 0.0440741562	-0.7351859137	 1.1874840294	 0.001912
C	 0.063503675	-0.0292389929	 2.4233293689	 0.198495
N	 0.0804541088	 0.616495595	 3.3861713378	-0.347382
H	 0.0886839989	 1.6982588349	 0.844862105	 0.320219
H	 0.0383116107	-0.1836065968	-2.1561243082	 0.126502
H	-0.0086560746	-2.6732412686	-2.0787483308	 0.127635
H	 0.0106558567	-2.7096924418	 2.0391174538	 0.137733
