18
gdb 22950	2.45113	1.05118	0.76832	3.0587	77.04	-0.2437	-0.0184	0.2253	1438.527	0.145323	-439.040506	-439.031116	-439.030171	-439.075921	33.309	
O	-0.015094537	 1.232747036	-0.0001287376	-0.390098
N	 0.0202340617	-0.1664026356	 0.1293246093	-0.232263
C	-1.1407938136	-0.6656497882	 0.0505682181	 0.406153
C	-2.5353880852	-0.1570373018	-0.2474995209	-0.317879
C	-2.9319662352	-1.6358193286	-0.5531517307	-0.247832
C	-1.5665913217	-2.1243863603	 0.0442899495	-0.074761
C	-0.7399220964	-3.1381949296	-0.7555521548	-0.292346
C	 0.5926549289	-3.4466816566	-0.0991435604	 0.149258
O	 0.9445164332	-4.552854071	 0.2251590976	-0.244776
H	 0.9167529247	 1.4682648328	 0.0655246632	 0.308581
H	-3.0331551223	 0.260344223	 0.6335347665	 0.130255
H	-2.6131086366	 0.5688332261	-1.0600437364	 0.132539
H	-3.8305868479	-2.0142831954	-0.0642580991	 0.112123
H	-3.0010447947	-1.8338903578	-1.625361127	 0.11499
H	-1.7083685012	-2.4910985714	 1.0685758115	 0.106347
H	-1.2904088441	-4.0762464845	-0.8767261054	 0.12038
H	-0.5365203359	-2.7203495986	-1.7513081668	 0.116775
H	 1.2366178032	-2.5583832385	 0.0731217435	 0.102555
