21
gdb 94741	3.62384	1.12392	0.99987	0.9935	89.82	-0.2336	0.0537	0.2872	1273.1253	0.182735	-349.93462	-349.92586	-349.924916	-349.967495	34.909	
C	-0.0346160421	 1.5688194588	-0.0031121437	-0.398115
C	 0.0479015178	 0.0408368597	 0.0198222556	 0.030543
C	 0.8001153842	-0.56486837	-1.1905714349	-0.246992
C	 1.3107445668	-1.9420379184	-0.718988055	-0.284178
C	 1.5286925023	-1.7890859223	 0.7906227861	 0.195178
C	 2.2706075017	-0.5370420119	 1.2384689765	-0.33175
C	 0.7671391555	-0.5404513543	 1.2325446952	-0.074045
C	 1.596903109	-2.9703356676	 1.5972460615	 0.167267
C	 1.6521861951	-3.9775853309	 2.2540981048	-0.397502
H	 0.965805191	 2.0148906365	 0.02072343	 0.114288
H	-0.5384780792	 1.9226979514	-0.9089736018	 0.11233
H	-0.5912243702	 1.9518725587	 0.8585387995	 0.11308
H	-0.9744272152	-0.3616831043	 0.0288601423	 0.074981
H	 0.1626607648	-0.6390560522	-2.0757685505	 0.1002
H	 1.6400030152	 0.0825357685	-1.4665531959	 0.101664
H	 0.5511221851	-2.7142364056	-0.8816867987	 0.110365
H	 2.2159458455	-2.2620729268	-1.244834162	 0.103458
H	 2.760997727	-0.592249334	 2.2030644744	 0.122696
H	 2.8156298077	 0.0342721121	 0.4938649501	 0.112746
H	 0.2578662263	-0.5351107339	 2.1898940551	 0.092574
H	 1.7027294718	-4.8619457038	 2.8388580413	 0.181213
