18
gdb 35711	2.35177	1.4733	0.99966	2.7727	78.32	-0.2417	0.0227	0.2645	1194.5103	0.14617	-401.848101	-401.839364	-401.838419	-401.882601	31.972	
C	-0.075748905	-1.1832419691	-0.4230925405	-0.459752
C	-0.0034519496	-0.0169955318	-0.1421006722	 0.374825
C	 0.0360100702	 1.3985173384	 0.1788175005	-0.092051
O	-0.0697804879	 1.683841699	 1.5964769557	-0.27547
C	 1.2147967181	 2.3417056866	 1.6210668151	-0.086463
C	 1.4144822187	 2.1331651996	 0.1082213814	-0.017793
N	 2.5481106449	 1.3152939374	-0.2452779277	-0.047788
C	 2.93215502	 1.3116387203	-1.6541597324	-0.219974
C	 3.7582465718	 2.0320746672	-0.6483022764	-0.230197
H	-0.1265923474	-2.2169744061	-0.6610747484	 0.199069
H	-0.7567234951	 1.9204569125	-0.3735382068	 0.100395
H	 1.1357518761	 3.3804949784	 1.9613730337	 0.100781
H	 1.94259363	 1.8015594519	 2.2366661085	 0.115156
H	 1.3552794434	 3.0612591944	-0.4823103448	 0.06578
H	 3.2507364196	 0.351989503	-2.0484697089	 0.125848
H	 2.3485749354	 1.9180660228	-2.3450097402	 0.112524
H	 3.7278368213	 3.1204863815	-0.6646435122	 0.111979
H	 4.6928127853	 1.608084024	-0.2938327545	 0.123132
