13
gdb 21924	5.43447	1.31727	1.07822	1.1684	56.41	-0.2528	-0.0077	0.2451	1012.1864	0.095653	-435.725372	-435.718189	-435.717245	-435.757266	26.019	
O	 0.2232252126	 1.1653900843	-0.6169773531	-0.400497
C	-0.0379240009	 0.0996629283	 0.272508192	-0.168327
C	-1.3937677485	-0.4986869813	 0.0509959996	 0.414147
C	-2.244935535	-0.4626903325	-1.0073659815	-0.431638
C	-3.348338661	-1.2342024365	-0.5479123676	 0.472432
O	-4.4585613221	-1.490349066	-1.2549170426	-0.416566
N	-3.1825888598	-1.6906293137	 0.6704245772	-0.258878
O	-1.9227000627	-1.2115069986	 1.0594373028	-0.219982
H	-0.4223444596	 1.8590394778	-0.4438518308	 0.291549
H	 0.7374430036	-0.650972852	 0.0804501214	 0.14593
H	 0.0559174128	 0.3912514002	 1.3293101756	 0.123287
H	-2.1110582396	 0.0144402699	-1.9620442469	 0.135708
H	-5.03666007	-2.0366690599	-0.7054021161	 0.312835
