18
gdb 38863	2.86316	2.00964	1.9136	1.2384	69.46	-0.2136	0.0877	0.3014	833.8707	0.152062	-439.053885	-439.047829	-439.046885	-439.083959	25.868	
C	-0.0125042495	 1.4823508924	 0.0717712664	-0.185445
C	 1.5149039036	 1.3953777158	-0.0409680821	 0.098436
O	 2.0674357358	 1.131020861	 1.2558767478	-0.274666
C	 1.7764890972	-0.2035247391	 1.6468578108	 0.19199
C	 0.2919063163	-0.5202348323	 1.3762572242	-0.213517
N	-0.064400821	-0.0284212724	 0.0191756202	-0.140716
C	 1.2520312664	 0.040577833	-0.7469253097	-0.037457
C	 2.2308967791	-1.0828430257	-0.4677075938	-0.100958
O	 2.5802154439	-1.1055364131	 0.9191078283	-0.257799
H	-0.4196178423	 1.9327163306	 0.9805838769	 0.107824
H	-0.5030959682	 1.9017172078	-0.8123090698	 0.105383
H	 2.1098032451	 2.1873396899	-0.5034780747	 0.078319
H	 2.0721789308	-0.2992890718	 2.6928529394	 0.091142
H	 0.1450015724	-1.6036103511	 1.4328147186	 0.115445
H	-0.3658733425	-0.0489686467	 2.1123427014	 0.110093
H	 1.0487325085	 0.1416002064	-1.815860268	 0.087633
H	 1.7931489424	-2.0492791489	-0.7577796217	 0.110087
H	 3.147301662	-0.9399898659	-1.0536049043	 0.114206
