14
gdb 17904	3.10522	2.49213	2.27044	2.5798	61.58	-0.2314	-0.0157	0.2158	691.1377	0.109075	-382.542998	-382.537155	-382.536211	-382.572762	23.194	
O	-0.0052477065	 0.0591364481	-0.0313193258	-0.316265
C	-0.0066219463	 1.2492883011	 0.000728972	 0.434425
C	-1.1617505035	 2.3009947833	 0.0470293397	-0.20574
C	-0.679032959	 3.0671347742	 1.3076256149	-0.073559
O	 0.7578692701	 3.0250193808	 1.2267284459	-0.281706
C	 1.1042193481	 2.3261924026	 0.0010076415	-0.040866
C	 0.6283196403	 3.1120182613	-1.1906832547	-0.080706
C	-0.7187244872	 3.0847501853	-1.1644423102	-0.083988
H	-2.1817437296	 1.9265242868	 0.0758197714	 0.09553
H	-1.0177025628	 4.1090518449	 1.3218121535	 0.107329
H	-1.0067842746	 2.567488506	 2.2274596607	 0.114152
H	 2.1417156257	 2.0101549173	 0.0575501983	 0.099291
H	 1.2639649211	 3.60153499	-1.916109074	 0.116668
H	-1.3970116457	 3.5459646082	-1.870769713	 0.115436
