18
gdb 74125	2.24015	1.59332	0.96479	5.7823	85.23	-0.214	-0.0403	0.1737	1196.1352	0.149719	-401.988379	-401.980143	-401.979199	-402.021229	31.921	
N	 0.0406747604	 1.400854174	 0.0183591075	-0.551856
C	-0.0190744501	 0.0262309087	 0.0061622581	 0.344716
C	-1.2167481675	-0.6111064139	 0.0055174435	-0.265832
C	-1.5431981423	-2.0169491796	-0.2100752741	 0.346146
O	-2.7192002599	-2.3465010064	-0.3485844278	-0.373757
C	-0.5263421588	-3.1052480561	-0.2546814288	-0.127332
C	 0.7396199968	-3.0967512809	 0.1699160369	-0.07681
C	 1.5043857585	-1.9187845984	 0.7106866147	-0.259761
C	 1.3374998617	-0.631148558	-0.1045469746	-0.290394
H	 0.8688530611	 1.8385285252	 0.3878343685	 0.254067
H	-0.8154158598	 1.903035277	 0.196987349	 0.258932
H	-2.1133731946	 0.0011798568	 0.0767265811	 0.076698
H	-0.9622470951	-4.0371840623	-0.6041389922	 0.103209
H	 1.284831771	-4.0379660965	 0.1419971051	 0.098763
H	 1.2106400943	-1.7291513287	 1.752737638	 0.12371
H	 2.5694510911	-2.1710587635	 0.7378184217	 0.107073
H	 1.5411665443	-0.8395956416	-1.1626473707	 0.136715
H	 2.1007663888	 0.0891805742	 0.2134292041	 0.095714
