18
gdb 77826	2.42787	1.61578	1.37742	5.1558	71.66	-0.2632	0.0174	0.2806	1033.1757	0.147491	-439.114857	-439.106454	-439.10551	-439.147599	31.547	
C	-0.0567184515	 1.5366531833	-0.0542954373	-0.434776
C	 0.0018820687	 0.0347538414	 0.0925095656	-0.047333
N	 1.2524371568	-0.753588959	-0.1678112462	-0.225912
C	 2.4252976256	 0.0604306018	-0.1574537521	 0.457128
O	 3.1208798652	 0.3081098937	-1.0924504917	-0.341631
O	 2.6869351913	 0.5339497593	 1.102518387	-0.231763
C	 1.6944954959	 0.0886541651	 2.0292781943	-0.157952
C	 0.6832322897	-0.6929900831	 1.1948177975	 0.284899
C	 0.112709829	-1.9566898616	 1.7870463569	-0.482259
H	 0.7811142874	 2.0480082563	 0.42429919	 0.147591
H	-0.0607221718	 1.8154351046	-1.1125708614	 0.148879
H	-0.9843723947	 1.9085396584	 0.3928957456	 0.128244
H	-0.8555433269	-0.4760830082	-0.3411741932	 0.107101
H	 2.1694209414	-0.5605257604	 2.7725978218	 0.125205
H	 1.2739924745	 0.9594414017	 2.5429791483	 0.124396
H	-0.5043198094	-1.7287228904	 2.6634092567	 0.126925
H	-0.5105268642	-2.4788739787	 1.0572898123	 0.138841
H	 0.912279843	-2.6358422441	 2.1008917258	 0.132418
