20
gdb 114136	4.95451	0.8478	0.79309	3.7712	75.53	-0.2185	0.0573	0.2757	1460.6181	0.170528	-440.225201	-440.215726	-440.214782	-440.259654	34.935	
O	 0.0595605882	 1.3489691639	 0.4233645954	-0.424273
C	 0.111945925	-0.0486970647	 0.1574610797	-0.08877
C	-1.2725975481	-0.6773797366	 0.1029323658	 0.020059
C	-2.2211833482	-0.3016680872	-1.1008959791	-0.332085
C	-2.287726517	-1.7921350641	-1.4569860961	 0.378541
C	-3.4511061847	-2.5323170223	-2.0393761891	-0.216335
O	-3.1700923348	-3.923143265	-1.9531637611	-0.421942
N	-0.8983889791	-2.2083182746	-1.7453196547	-0.379879
C	-1.379124136	-2.146925677	-0.3350045212	-0.129876
H	-0.3388034953	 1.7730454112	-0.3432129807	 0.281629
H	 0.6515671619	-0.2655701987	-0.7736046217	 0.11025
H	 0.6857233577	-0.4853956457	 0.9829714645	 0.102611
H	-1.7882627486	-0.5074183407	 1.0523868716	 0.078728
H	-3.1744230935	 0.115804335	-0.7682498778	 0.102948
H	-1.7970493061	 0.3345074048	-1.884568363	 0.093235
H	-4.3679216047	-2.2735348364	-1.4854902138	 0.09612
H	-3.6018995612	-2.2216030695	-3.0867550441	 0.097313
H	-3.8384923654	-4.4007154364	-2.4519762874	 0.29566
H	-0.9627881465	-3.1907720914	-2.015545415	 0.238595
H	-1.3600914637	-3.0331934245	 0.2868589879	 0.097472
