15
gdb 15873	2.62782	2.12167	1.38224	2.5346	60.68	-0.2755	0.0127	0.2882	883.6891	0.118638	-399.796252	-399.78847	-399.787525	-399.828357	28.829	
O	 0.5910692045	 0.7965075361	-0.8515145647	-0.418712
C	 0.0994393318	-0.2147435192	-0.0320979649	 0.162417
C	 0.088372219	-0.0519176642	 1.5101632783	-0.31925
C	-1.2567544642	-0.8229587894	 1.54747529	 0.162395
O	-2.250430984	-0.4778265013	 2.4581325858	-0.418721
C	-1.4545868056	-0.5009660446	 0.0125882342	-0.273273
C	-2.2132628894	 0.7201251915	-0.1685238652	 0.265989
N	-2.7652563309	 1.73452354	-0.2528187361	-0.333573
H	 0.1138380775	 1.6131889009	-0.6602002553	 0.29597
H	 0.615424895	-1.1294137076	-0.3329818583	 0.111829
H	 0.9302552333	-0.4455272338	 2.0814085329	 0.1191
H	-0.0667212012	 0.998977904	 1.7816881391	 0.112191
H	-1.097552556	-1.8976245743	 1.6620715909	 0.111815
H	-2.466689955	 0.4558868854	 2.3453054448	 0.29596
H	-1.844003825	-1.2946074936	-0.6273405815	 0.125864
