15
gdb 56876	3.42057	1.03572	0.84009	3.9961	67.71	-0.2784	0.0045	0.283	1297.72	0.110101	-457.744082	-457.735258	-457.734314	-457.778228	31.725	
O	 0.3403144715	 1.5901866952	 0.0047683935	-0.416602
C	 0.1249673438	 0.1862439379	-0.0967700435	-0.065561
C	 0.7572936959	-0.3911168284	-1.2807535598	 0.283041
C	 1.3300639522	-0.8357081169	-2.2389790327	-0.423991
C	 0.6094904256	-0.4914794513	 1.1901834386	 0.12311
C	-0.160853343	-0.1415214662	 2.4721448667	-0.434042
C	-0.5560441564	-1.6185684305	 2.4377388361	 0.445926
O	-1.1973919411	-2.3820658206	 3.0806083955	-0.306623
O	 0.1508636969	-1.879768933	 1.2829961517	-0.246314
H	 1.2359885425	 1.7735980097	-0.2992863655	 0.294594
H	-0.9622472291	 0.0501778611	-0.1583711691	 0.128384
H	 1.8146580102	-1.2402809651	-3.0936487864	 0.210823
H	 1.6992376085	-0.4499997592	 1.2640843632	 0.104001
H	 0.4367555218	 0.1442956262	 3.3384815688	 0.147277
H	-0.9891986592	 0.558723381	 2.3524894129	 0.155977
