14
gdb 44410	3.81428	1.54706	1.51419	3.9801	66.25	-0.2451	-0.0435	0.2016	881.2416	0.101452	-436.5544	-436.548101	-436.547157	-436.584919	25.659	
O	-0.1662257231	 0.0676964325	-0.4078617907	-0.295036
C	-0.0624665139	 1.1817469487	-0.0359576192	 0.376886
O	-1.1174903639	 2.0864376804	 0.2903222002	-0.274264
C	-0.1429088553	 2.8884967768	 1.0607426908	 0.129484
C	 0.7873231269	 4.1777105881	 0.9425710038	-0.137516
N	 1.9000098579	 3.097413472	 1.1589240676	-0.382419
C	 0.960136132	 2.3305995164	 0.2243540973	 0.059392
C	 0.9229728544	 3.2193231642	-1.0509124479	-0.117534
C	 0.8213321244	 4.4498746435	-0.5512955863	-0.062669
H	-0.1845339202	 2.5488251718	 2.0943793135	 0.130037
H	 0.7609230954	 4.9884467543	 1.6695539291	 0.094687
H	 2.75448713	 3.3770846236	 0.6724329346	 0.22195
H	 0.9583062722	 2.8536618102	-2.0663498677	 0.129727
H	 0.7465221033	 5.4117682173	-1.0364359651	 0.127275
