15
gdb 14895	3.29303	1.88697	1.69389	2.0262	66.34	-0.2479	0.0205	0.2684	827.4873	0.119993	-362.636719	-362.629608	-362.628664	-362.668098	26.57	
C	-0.0492096292	-1.2522360435	-0.1171033125	-0.478299
C	-0.0307343028	-0.0524274966	-0.0516863591	 0.349916
C	-0.0052237655	 1.4045347789	 0.0304704307	-0.223703
C	-0.7016486857	 1.9138601561	 1.3035186678	-0.074014
O	 0.0381502894	 1.5713696204	 2.4773975693	-0.218519
C	 1.3876324826	 1.6511398208	 2.3660939797	 0.139686
N	 2.0976431491	 1.8499870977	 1.3405244839	-0.261438
C	 1.4383472183	 1.9677166018	 0.0474606607	-0.158157
H	-0.063894951	-2.3123373125	-0.177916243	 0.201177
H	-0.5413973673	 1.816698781	-0.8336616646	 0.112811
H	-0.7996643826	 3.0058269408	 1.2526255499	 0.113548
H	-1.6919627179	 1.4741467955	 1.4312268233	 0.130675
H	 1.8449640875	 1.5050612161	 3.3426301046	 0.127096
H	 2.0494897176	 1.4485920762	-0.6966481959	 0.126071
H	 1.4173420176	 3.0254834172	-0.2450446447	 0.11315
