17
gdb 97781	3.17598	0.77297	0.65058	2.1328	85.18	-0.2451	0.0094	0.2545	1725.9311	0.132549	-384.604586	-384.59475	-384.593806	-384.641128	34.531	
C	-0.0194052468	 1.67326165	-0.0400856793	-0.366652
C	 0.0052511701	 0.1362917131	 0.0469694431	-0.321335
C	-1.3246793611	-0.4606865071	 0.0551894254	 0.178818
C	-2.4279395628	-0.9448258178	 0.0507323938	 0.047664
C	-3.7540429111	-1.4907333307	 0.0728979169	-0.175119
O	-4.2494025217	-2.1266911819	-1.1137097588	-0.229334
C	-4.0224814551	-2.9568246489	 0.0296254904	-0.158092
C	-2.9683625642	-3.9296826451	-0.0399886572	 0.347352
C	-2.1126592653	-4.7726947835	-0.0707199225	-0.411076
H	 1.0002459071	 2.0692831622	-0.0439953555	 0.117281
H	-0.5214475708	 2.002626818	-0.95360201	 0.13265
H	-0.5527706756	 2.102764365	 0.8121817884	 0.129061
H	 0.5736115562	-0.273053234	-0.797849333	 0.137804
H	 0.5448519082	-0.1741981723	 0.9509833165	 0.134032
H	-4.5019356604	-0.884128286	 0.5846324234	 0.115988
H	-4.9363211357	-3.3007855278	 0.5148464239	 0.118783
H	-1.3489784111	-5.5099158934	-0.1066387755	 0.202176
