13
gdb 20316	6.48046	1.31837	1.10286	3.7241	63.87	-0.2549	-0.0032	0.2518	991.918	0.096168	-357.608443	-357.601395	-357.600451	-357.640612	25.44	
C	-0.3856101167	-0.8031042511	-0.9824789169	-0.449624
C	-0.0824830932	 0.0681097173	-0.2126195395	 0.308183
C	 0.2932607871	 1.1281765719	 0.7160962158	-0.463987
C	 1.5100311676	 1.8978708332	 0.2835119295	 0.313998
C	 2.3046241731	 1.7567189479	-0.8281856478	-0.145725
N	 3.2406811985	 2.723594529	-0.6785216594	-0.159066
N	 3.0503277554	 3.4274492157	 0.4511849736	-0.114186
N	 2.0005606443	 2.926472606	 1.0349426309	-0.249359
H	-0.6658367863	-1.5769705156	-1.6534263451	 0.200053
H	-0.5457831472	 1.8244421361	 0.8426014638	 0.158022
H	 0.4731221376	 0.7019883815	 1.7114958933	 0.158006
H	 2.2756883855	 1.0809992335	-1.6648888811	 0.160019
H	 4.0132309143	 2.9580487845	-1.2810666772	 0.283666
