10
gdb 23681	3.97905	1.9356	1.30217	3.0388	50.35	-0.2873	-0.0537	0.2336	794.454	0.061369	-462.773897	-462.768376	-462.767432	-462.803836	20.406	
F	-0.0269753751	 0.0631640418	 0.0036599341	-0.048385
C	-0.0199235023	 1.382247622	 0.0109278214	 0.360511
N	-1.1955423757	 1.9714048651	 0.0298865308	-0.353685
C	-1.1464965725	 3.2955922796	 0.0365805757	 0.365925
F	-2.3157932399	 3.8972570737	 0.055552575	-0.045538
N	-0.0910380213	 4.0848150735	 0.0268836708	-0.307817
C	 1.0852294593	 3.4442917237	 0.007621579	 0.033426
C	 1.1938924972	 2.0624290511	-0.0015123488	-0.279477
H	 1.9720740828	 4.0715957047	-0.0007373359	 0.140473
H	 2.1410629774	 1.5422054247	-0.0170593121	 0.134566
