14
gdb 13580	4.38581	1.32625	1.23422	3.4325	66.77	-0.2585	-0.0961	0.1624	990.5088	0.105915	-378.703423	-378.695495	-378.694551	-378.736153	27.753	
C	-0.7023429982	 1.1331956823	 0.2706882499	-0.333831
N	 0.0407861634	-0.1167176895	 0.1273822445	-0.071013
C	 1.3300693582	-0.0934460489	-0.5027885181	-0.230414
C	 1.2213565989	-0.3926600543	 0.9725641697	-0.118542
C	 1.7527174596	 0.6220333877	 1.9187117221	 0.303458
O	 1.8399575636	 1.8123976344	 1.7143042501	-0.298664
C	 2.1839833834	 0.0656390239	 3.2203746622	 0.222446
N	 2.5341569632	-0.3724826494	 4.2317325998	-0.297297
H	-0.0749114715	 2.0137183302	 0.4485136499	 0.149699
H	-1.2713225605	 1.2784294302	-0.6520924457	 0.135972
H	-1.4118269562	 1.0284058061	 1.0963196276	 0.134969
H	 1.559951701	-0.918747196	-1.1714790443	 0.136055
H	 1.7671145604	 0.8697640853	-0.761434304	 0.142906
H	 1.2858116246	-1.419469652	 1.3205557362	 0.124255
