19
gdb 45431	2.47496	1.6714	1.63899	3.3582	73.61	-0.2264	-0.0176	0.2088	959.5499	0.162178	-423.062947	-423.055639	-423.054694	-423.094815	29.058	
O	-0.0070280101	-0.0387330746	 0.2010777948	-0.325069
C	-0.0198927343	 1.1577650284	 0.0562549097	 0.424593
C	-1.285201954	 2.0120499487	-0.0459061611	-0.32646
C	-0.871421636	 3.4941832167	 0.0144502107	-0.045489
C	-0.0625424555	 3.7417674886	 1.3052659886	-0.218808
C	 1.270962904	 2.9433782875	 1.219226497	-0.236575
C	 1.2252908224	 2.0427699218	-0.0269063794	 0.002519
O	 1.1204383652	 2.8306771583	-1.2164391847	-0.280605
C	 0.0416122146	 3.7746611054	-1.1828753285	-0.060602
H	-1.7987190461	 1.7731930898	-0.9852730209	 0.130764
H	-1.9645995127	 1.7353533248	 0.7673855496	 0.12727
H	-1.7476392108	 4.1478750486	-0.0285043509	 0.074437
H	 0.1352234122	 4.8115209183	 1.4226541906	 0.104788
H	-0.6506112615	 3.4312971061	 2.1751820118	 0.10369
H	 2.1289534569	 3.6147654292	 1.1167004811	 0.115273
H	 1.43955174	 2.3359640334	 2.1136334082	 0.117541
H	 2.1222921842	 1.4318816947	-0.1365373236	 0.094346
H	-0.505634654	 3.6820729996	-2.1296412737	 0.10365
H	 0.4498764956	 4.7945451148	-1.1297494692	 0.094738
