16
gdb 20791	3.17139	1.82167	1.25071	4.1537	67.56	-0.255	-0.0294	0.2257	979.7595	0.129428	-379.920294	-379.912121	-379.911177	-379.953765	28.555	
C	 0.0432021351	 1.6488162936	 0.3459389839	-0.375432
C	-0.0076976611	 0.1737103362	-0.0894651866	-0.297148
C	-1.3950615913	-0.367795528	-0.1537420388	 0.342401
C	-2.1799479116	-0.8446456474	-1.1633423294	 0.155586
C	-1.9228777504	-1.0153755773	-2.6221128201	-0.494822
N	-3.3855895727	-1.1897395048	-0.5851117272	-0.165591
N	-3.3794353126	-0.9612883131	 0.649853774	-0.01948
O	-2.0984789227	-0.4221163189	 0.983533114	-0.221088
H	 1.0792947134	 1.9948025456	 0.3935721661	 0.122711
H	-0.4986548581	 2.2850099429	-0.3598963776	 0.128372
H	-0.4083953492	 1.7771050033	 1.3328167085	 0.143583
H	 0.4558403225	 0.0525390941	-1.0730984184	 0.121365
H	 0.5763278753	-0.4347539838	 0.6115359781	 0.13485
H	-2.0383427542	-2.06148764	-2.9228244443	 0.147792
H	-2.6249539004	-0.4241988014	-3.218745032	 0.147209
H	-0.9094656519	-0.6984672608	-2.8799701303	 0.129691
