12
gdb 25315	2.40429	1.58069	0.95369	4.9074	71.64	-0.2745	-0.0924	0.1822	1103.5178	0.079688	-431.734362	-431.727166	-431.726222	-431.766529	25.6	
O	 0.0658491939	-0.1029467079	-0.001434702	-0.290979
C	-0.0141065679	 1.108409895	 0.0095157597	 0.06672
C	 1.1638738491	 1.9623684861	 0.0032353764	 0.158691
C	 1.3624447701	 3.3384861122	 0.0130604836	 0.139941
N	 2.7003429006	 3.6370239972	-0.0001209007	-0.309158
C	 3.3077380911	 2.4665088974	-0.0175121457	 0.033028
N	 2.4305350314	 1.434631634	-0.0160959623	-0.281948
C	 0.3483362097	 4.3341394638	 0.0336746526	 0.235685
N	-0.5016846704	 5.1192475422	 0.050498295	-0.330963
H	-0.9832498174	 1.6412144381	 0.0259995582	 0.118071
H	 4.377630808	 2.3212822868	-0.031378655	 0.163588
H	 2.6139861017	 0.4418792152	-0.0268845198	 0.297324
