25
gdb 103822	3.0465	0.87421	0.81565	1.2721	89.78	-0.2587	0.0738	0.3325	1581.4394	0.226281	-389.485854	-389.474542	-389.473598	-389.521956	41.914	
C	 0.0851972175	 0.8809210871	 1.6741484527	-0.381405
C	-0.5265926413	-0.5264926587	 1.7492144486	 0.01112
C	-1.2932826663	-0.7239448022	 3.0654786293	-0.387169
C	-1.4258933095	-0.7801441137	 0.5504805988	-0.025734
C	-0.8712083054	-1.1747952532	-0.797815492	-0.337816
C	-1.717982388	-2.155932048	-0.0172467407	 0.346074
C	-1.0679299685	-3.4051590096	 0.5487815601	-0.470153
C	-3.1287776565	-2.3818808944	-0.5139981981	-0.141447
O	-3.0932608283	-3.3305230296	-1.5751750987	-0.421886
H	 0.760563812	 1.0640382642	 2.516667514	 0.106041
H	 0.65101219	 1.0182353573	 0.7475353489	 0.114332
H	-0.6973214135	 1.6487770299	 1.703484463	 0.108696
H	 0.2994385452	-1.2481948923	 1.7248521304	 0.069077
H	-2.1335709115	-0.0224536064	 3.1343014857	 0.108795
H	-1.6989998558	-1.737150572	 3.1433266158	 0.114452
H	-0.646085021	-0.5501765804	 3.9317944465	 0.107522
H	-2.2696927155	-0.0904000389	 0.5147603238	 0.068616
H	-1.2873388675	-0.7243245463	-1.692801701	 0.10791
H	 0.1933626801	-1.3803238525	-0.8613568866	 0.103804
H	-1.1018433911	-4.2052115403	-0.195888514	 0.135064
H	-0.0226249109	-3.2407546548	 0.8205583712	 0.111921
H	-1.5955645772	-3.760243467	 1.4427013163	 0.107548
H	-3.7572420797	-2.7482973649	 0.3149867873	 0.081295
H	-3.5592971915	-1.427243661	-0.8559999785	 0.078175
H	-3.9985702055	-3.5721664422	-1.7908500927	 0.285168
