17
gdb 91840	3.41886	1.27751	1.07954	0.6534	75.71	-0.2385	0.0273	0.2658	1145.3739	0.133748	-421.774503	-421.76618	-421.765236	-421.80724	32.064	
C	 0.2180371463	 1.5419854271	 0.0246054242	-0.408204
C	 0.111825691	 0.0375988911	-0.0046401604	 0.216289
O	 0.8383971638	-0.4972324567	-1.1111119119	-0.274218
C	 1.2361568826	-1.7839996701	-0.7219143883	 0.02236
C	 2.4841227671	-1.8772216645	 0.1136953065	-0.352859
C	 1.1162448395	-1.8305289064	 0.7848373605	 0.194976
O	 0.7073507326	-0.5282188753	 1.1579504781	-0.297067
C	 0.5810820966	-2.9230947818	 1.5344245308	 0.273132
C	 0.1454427067	-3.8483995538	 2.1669998671	-0.42729
H	 1.2671120847	 1.8382891356	 0.0947780683	 0.13294
H	-0.2145558038	 1.9612418536	-0.8871552139	 0.132935
H	-0.3263523717	 1.9353049745	 0.886556773	 0.134309
H	-0.9377520746	-0.2972254987	-0.072434753	 0.077172
H	 0.9146792667	-2.5958076116	-1.3647125472	 0.119293
H	 3.0102944951	-2.8255369769	 0.1294337732	 0.128711
H	 3.0903067133	-0.9843903815	 0.2105194497	 0.131929
H	-0.2440248359	-4.6617366744	 2.727710753	 0.195591
