16
gdb 30328	2.98733	1.62284	1.14767	0.5754	70.06	-0.2393	-0.007	0.2324	1030.8652	0.127097	-437.913539	-437.906355	-437.90541	-437.945496	27.452	
O	-0.1282477193	 1.5080758293	-0.162752622	-0.42184
C	 0.1091399666	 0.1153440056	 0.0092123719	-0.016185
C	-1.1998918239	-0.7556314606	 0.1465050122	-0.238777
C	-1.4030579301	-1.6062911293	-1.1599828411	-0.355377
C	-0.0721421486	-1.4364624651	-1.8210150224	 0.242024
C	 0.7130855295	-0.5544848185	-1.1743025173	 0.273808
O	 1.8940389717	-0.4431975816	-1.8475342663	-0.194405
C	 1.7294835047	-1.3062215234	-2.8913269919	 0.039821
N	 0.5894419288	-1.9252101241	-2.9376366197	-0.339354
H	-0.5524069163	 1.6292527536	-1.0200140524	 0.278007
H	 0.7142437517	 0.0585023348	 0.9184005139	 0.104029
H	-1.0932668914	-1.4257544201	 1.0035874897	 0.117938
H	-2.0437030265	-0.0939551446	 0.3556124911	 0.116104
H	-1.6381877174	-2.6486131445	-0.9245148591	 0.12413
H	-2.2245961601	-1.2323115519	-1.7818570586	 0.119074
H	 2.5617592206	-1.3913178395	-3.5728980281	 0.151003
