19
gdb 35132	4.54202	0.834	0.82241	3.727	81.37	-0.2462	0.0334	0.2796	1445.3352	0.160007	-382.042606	-382.034112	-382.033168	-382.076542	31.598	
N	-0.0913924444	-1.2488193661	-0.0944963293	-0.329417
C	-0.0452229598	-0.0955678359	-0.0175161494	 0.271424
C	 0.0225892854	 1.3538336265	 0.0888625616	-0.167788
C	-0.0483130727	 1.8857333758	 1.5604461726	-0.251813
C	 1.4955597892	 2.0212404054	 1.5573351151	 0.083748
C	 1.4777803518	 1.9280949819	 0.010425997	-0.251815
N	 2.0239721959	 3.2482839804	 2.1111299261	-0.068097
C	 2.4003268544	 3.2101995313	 3.5244024355	-0.22591
C	 3.4435449758	 3.2391185342	 2.4649033968	-0.22591
H	-0.6965398174	 1.7903918962	-0.6072339141	 0.12555
H	-0.5189065359	 2.8707338924	 1.5863930798	 0.123799
H	-0.5086871575	 1.2350886939	 2.3045098544	 0.122489
H	 1.9648738928	 1.1239313661	 1.9948865276	 0.072465
H	 2.2319081516	 1.3111618114	-0.4790610983	 0.12249
H	 1.4693089113	 2.9259257196	-0.4329908677	 0.123799
H	 2.16880782	 4.1038360553	 4.0960071557	 0.121563
H	 2.2645477419	 2.2745259457	 4.0641430271	 0.115931
H	 4.0063817586	 2.3228060601	 2.2951183515	 0.11593
H	 3.9868132791	 4.154228886	 2.2496118781	 0.121562
