18
gdb 7287	2.86327	1.35257	1.11517	3.2381	65.57	-0.2766	0.0014	0.2779	1123.3242	0.150775	-422.106432	-422.096952	-422.096008	-422.141171	33.299	
C	-0.0419628818	 1.5213458374	-0.0684749759	-0.417042
C	-0.0255488031	 0.0027022297	 0.110855372	 0.144631
O	 0.618545162	-0.3786429952	 1.3159838771	-0.434771
C	-1.4317625257	-0.6188544307	 0.0355228317	 0.095509
C	-1.4168022577	-2.1407663001	 0.0639412299	-0.395921
O	-2.1452369044	-0.131507866	 1.198547537	-0.208422
C	-3.4188696603	 0.2778134773	 1.0554594415	 0.172219
O	-4.0783329387	 0.6722743361	 1.9692453633	-0.274493
H	 0.9751159091	 1.9120744242	 0.0120511616	 0.131729
H	-0.4448206519	 1.8020386411	-1.0478587511	 0.112377
H	-0.6555158388	 1.9979204566	 0.7027065179	 0.129948
H	 0.5708013679	-0.4488583522	-0.6910974512	 0.092166
H	 0.0601761626	-0.069834481	 2.040192833	 0.29261
H	-1.9404785756	-0.2542512044	-0.8669471427	 0.086193
H	-0.9122789681	-2.5284499449	-0.826535255	 0.123881
H	-0.877996543	-2.4906551206	 0.9469777631	 0.148814
H	-2.4342636616	-2.5410529831	 0.0841479946	 0.121145
H	-3.774683601	 0.2119493456	 0.0085902033	 0.07943
