21
gdb 47399	2.58494	1.52085	1.16958	2.6722	82.1	-0.2319	-0.0158	0.2161	1137.3451	0.183916	-387.121457	-387.113176	-387.112231	-387.154563	32.237	
O	-0.3748258862	 0.0821170846	-0.3774083353	-0.333531
C	-0.2200921513	 1.2524993309	-0.1291200861	 0.347471
C	-1.3260432899	 2.2546678423	 0.2186706496	-0.317578
C	-0.5754734967	 3.509038081	 0.6936302684	-0.221443
C	 0.7557881929	 3.4593150979	-0.0884869733	-0.296287
C	 1.1271896951	 1.9716438564	-0.1025406898	 0.271164
C	 2.0650026024	 1.5109821279	 1.0762328984	-0.26107
C	 3.2483050666	 1.4534684957	 0.0764604766	-0.20982
C	 2.2236928126	 1.4859506842	-1.0867941443	-0.284224
H	-1.8856113239	 2.453544803	-0.7052509719	 0.130711
H	-2.0350593466	 1.8306020795	 0.9336764638	 0.126333
H	-1.130610134	 4.43467497	 0.5242212753	 0.102947
H	-0.3768299494	 3.4415520344	 1.7695120742	 0.107372
H	 0.5949445631	 3.8081190117	-1.1173280147	 0.099508
H	 1.531001883	 4.0939453973	 0.3507801524	 0.099936
H	 2.1447838666	 2.1944359996	 1.9259279425	 0.098446
H	 1.7846192483	 0.519030826	 1.4391426814	 0.118439
H	 3.8625833863	 2.357173185	 0.1129534064	 0.102052
H	 3.9079493726	 0.5853055335	 0.1395614694	 0.102222
H	 1.9808401075	 0.4851915992	-1.4544858479	 0.12263
H	 2.4393423607	 2.1403336097	-1.935721325	 0.094721
