14
gdb 46023	5.22189	1.01406	0.85618	1.8173	73.55	-0.2386	-0.0445	0.1942	1233.8482	0.103916	-432.940691	-432.932851	-432.931907	-432.973811	28.255	
O	-0.0265244964	-0.0563083086	 0.0528130327	-0.389706
C	-0.0213746423	 1.1559734144	 0.0294307169	 0.473139
N	-1.1304561377	 1.9382525244	 0.1782157221	-0.36615
C	-1.2323986017	 3.378161887	-0.0395841908	-0.248273
C	 0.1405604639	 4.0118142877	 0.0345435562	 0.073459
C	 1.2446823998	 3.2418792148	-0.0238578594	-0.0157
N	 1.1715485262	 1.8768601145	-0.1188449999	-0.366539
C	 0.2318948182	 5.4215353801	 0.1269091503	 0.210233
N	 0.2661413771	 6.5787653789	 0.2007409116	-0.33828
H	-1.9844196273	 1.4070609058	 0.2441523619	 0.265758
H	-1.6978680119	 3.6003965878	-1.0129371574	 0.134459
H	-1.8865040184	 3.8096213259	 0.7272908921	 0.142431
H	 2.2404854317	 3.6672208505	-0.0015984605	 0.149688
H	 2.0036316987	 1.3102157969	-0.1310979857	 0.27548
