14
gdb 25988	4.90391	1.02521	0.99282	2.5208	64.38	-0.2173	0.0219	0.2392	1188.7921	0.10091	-473.885604	-473.877446	-473.876502	-473.919616	28.969	
N	-0.0368598721	 1.2642620258	 0.1566294574	-0.561478
C	-0.0920677421	-0.0042968611	-0.3163001313	 0.476126
O	 0.4495036971	-0.4418534675	-1.2924765233	-0.362273
O	-0.8930829896	-0.754353036	 0.543057252	-0.298854
C	-0.9994497083	-2.0770495954	 0.2765340487	 0.464039
C	-2.0033738673	-2.8148010847	-0.2559903389	-0.299403
C	-1.5511023092	-4.1755215017	-0.1819704898	-0.164983
C	-0.3196940845	-4.1395381303	 0.3866360595	-0.008863
O	 0.0311935933	-2.8532422804	 0.6808423389	-0.162862
H	 0.4065451218	 1.9587481503	-0.4170065178	 0.277681
H	-0.6204770854	 1.5482034966	 0.9231610565	 0.274433
H	-2.9321529161	-2.4397405916	-0.6523961833	 0.116056
H	-2.0783428211	-5.0557557116	-0.5143346531	 0.113287
H	 0.4093994435	-4.8891490925	 0.6428328645	 0.137094
