12
gdb 7022	9.23079	0.93407	0.85265	3.288	58.38	-0.2979	-0.0456	0.2523	1225.7189	0.082215	-414.697873	-414.689812	-414.688867	-414.731679	26.476	
N	-0.2993148362	 1.3363027872	 0.0139202132	-0.408097
C	-0.0453900183	 0.1078930214	 0.0033005456	 0.118107
O	-1.1194687179	-0.7617495709	 0.0091705509	-0.208461
C	-0.8602464503	-2.1012745645	-0.0021406829	 0.488211
O	 0.2261146409	-2.5991345308	-0.0166264088	-0.307643
C	-2.1947031527	-2.8375152154	 0.0064699902	-0.482493
C	-2.0489098499	-4.287413487	-0.0011342606	 0.292602
N	-1.9654633385	-5.4382408973	-0.0068258093	-0.287618
H	 0.5671301251	 1.872725672	 0.0082198255	 0.249111
H	 0.9146377274	-0.4071941067	-0.0101342522	 0.15496
H	-2.7623318534	-2.5178397161	 0.8875614871	 0.195642
H	-2.7773130062	-2.5103746817	-0.8620644088	 0.19568
