12
gdb 5007	3.51213	2.4109	1.43103	2.4461	61.27	-0.2203	-0.0509	0.1694	784.0527	0.085716	-414.717329	-414.710935	-414.70999	-414.747709	24.271	
N	 0.0011742835	 1.3926129439	 0.1308578724	-0.578672
C	-0.0630944039	 0.0234097321	 0.0399285129	 0.143991
C	-1.189064225	-0.7451713811	 0.011110024	-0.09177
N	-1.1513779738	-2.1233542029	-0.0150040212	-0.256951
C	-0.0022603422	-2.6745315014	-0.0198851497	 0.115748
O	 1.1883865782	-2.0234419495	-0.0119173158	-0.194422
C	 1.2401632509	-0.6448368459	 0.0081250153	 0.42687
O	 2.3075073778	-0.0860738807	-0.0117793334	-0.358158
H	 0.9024702578	 1.7790745588	-0.1104727377	 0.274197
H	-0.7963850246	 1.9219745649	-0.1825838574	 0.259435
H	-2.1783783909	-0.2978448149	 0.0136220335	 0.111097
H	 0.1366665922	-3.7489976932	-0.0330977628	 0.148635
