18
gdb 97015	3.57639	1.29004	0.97902	1.5378	82.68	-0.2171	0.0024	0.2195	1210.6253	0.14883	-398.121022	-398.112714	-398.11177	-398.154546	30.269	
C	 0.0724449851	 1.5459453542	-0.0287519158	-0.326844
N	-0.0156444635	 0.0993002092	-0.0063053323	-0.310993
C	 0.4644923905	-0.5297936447	 0.9783779559	 0.343003
C	 1.1809426373	-0.0985275891	 2.3009141699	-0.282484
N	 1.2420810727	-1.2925194273	 3.1874832646	-0.354795
C	 0.8198273675	-2.219489007	 2.4253605175	 0.384758
C	 0.268851439	-3.6361678511	 2.3286474532	-0.358933
C	-0.3083580181	-3.1639978395	 0.9383585411	-0.175748
N	 0.4648024771	-1.916177209	 1.1275195514	-0.102157
H	 0.7825720249	 1.8600309275	-0.8044107839	 0.126691
H	-0.9014732423	 1.9634116522	-0.3077037705	 0.125519
H	 0.3846160896	 2.008055055	 0.9191143498	 0.105552
H	 2.1899583094	 0.2729314227	 2.0846400657	 0.137789
H	 0.6411134127	 0.7087704073	 2.8056860653	 0.137045
H	 1.0235766522	-4.4213888505	 2.2586783853	 0.142039
H	-0.4666196396	-3.9012871572	 3.0887968696	 0.143454
H	-0.0107489541	-3.7413019248	 0.061118165	 0.131229
H	-1.3905233105	-3.0060342281	 0.9325557382	 0.134875
