16
gdb 49535	3.69769	1.14434	0.99182	2.6697	74.46	-0.2641	-0.0432	0.2209	1165.9713	0.124673	-400.714746	-400.707114	-400.70617	-400.747296	28.437	
O	-0.7626298927	 0.8102217277	 0.5530296346	-0.240862
C	 0.0561403179	 1.0210856372	-0.3074269125	 0.11414
C	 1.2639508274	 1.9041522378	-0.1633002187	-0.076393
C	 1.1658506428	 3.4269252561	-0.5629809201	-0.066451
C	 0.3514333967	 3.65832959	 0.7411033639	-0.246726
C	 1.5180527461	 2.7060274559	 1.146110625	-0.050244
C	 2.4478387525	 3.6537996144	 0.3082118243	-0.142227
C	 3.7310072264	 3.162905684	-0.1686549139	 0.267458
N	 4.7578317396	 2.7868218317	-0.5448719593	-0.333218
H	-0.0310866868	 0.5375915516	-1.3073872505	 0.086939
H	 2.1318659003	 1.3940793056	-0.5964425726	 0.114854
H	 0.987515011	 3.8335533633	-1.5579672243	 0.101884
H	 0.3860812345	 4.6693101353	 1.1536973887	 0.104291
H	-0.6494271526	 3.2365000913	 0.7858087357	 0.139371
H	 1.7390335704	 2.298476509	 2.1309323517	 0.105214
H	 2.5554029266	 4.664959019	 0.7082165879	 0.12197
