21
gdb 80852	2.60612	1.57025	1.25438	1.8276	83.44	-0.2215	0.0139	0.2353	1117.7508	0.180867	-387.064012	-387.054991	-387.054047	-387.096921	35.293	
C	-0.1600863906	 1.5032617498	-0.0365656691	-0.428676
C	-0.0197174688	-0.0102563053	-0.0295204894	-0.002235
C	 1.2944778514	-0.5960878611	-0.6444033538	 0.007827
O	 1.9836681617	-0.2197141357	 0.5941681761	-0.321423
C	 0.7177208217	-0.6439928951	 1.2147488067	 0.301962
C	 0.5249320367	-0.2080205438	 2.6399199876	-0.519121
C	 0.6873634272	-2.1497637707	 0.8325691385	 0.326417
C	 0.2912799797	-3.2762815025	 1.7204921031	-0.517841
C	 1.0869045748	-2.1012810703	-0.442089511	-0.21193
H	 0.7781365701	 1.9818462684	 0.2536638136	 0.133701
H	-0.436965944	 1.8608920521	-1.0344759548	 0.112451
H	-0.9460937388	 1.8286356242	 0.6544076233	 0.112331
H	-0.9457385472	-0.5073008085	-0.3331513513	 0.063769
H	 1.7593428852	-0.2162353101	-1.5539665384	 0.07163
H	 0.5503293095	 0.8815598365	 2.72360046	 0.130823
H	-0.4373558573	-0.5613603515	 3.0249061754	 0.120198
H	 1.3174500263	-0.6163927246	 3.2754259711	 0.132194
H	-0.737591472	-3.1596132775	 2.085386665	 0.126494
H	 0.355205588	-4.2351404617	 1.1985562933	 0.128067
H	 0.931403005	-3.3317796057	 2.6102232557	 0.131828
H	 1.2201847715	-2.890716507	-1.1678578618	 0.101533
