17
gdb 37123	3.79288	1.57473	1.48739	1.1192	69.67	-0.2228	0.0496	0.2724	914.4186	0.137252	-421.734254	-421.727691	-421.726747	-421.764818	27.189	
C	 0.0141021725	 1.469414495	-0.1068992734	-0.365271
C	 1.3396503014	 0.7703364934	 0.0212896395	 0.158931
C	 1.9392499236	 0.5452437474	 1.3870635602	-0.152212
O	 0.8610944691	 0.09126771	 2.2163106331	-0.253898
C	-0.0499879621	-0.6563470832	 1.3995052446	-0.152213
C	 0.0172428839	-0.0284446015	 0.0295623842	 0.158933
C	 0.5020039095	-0.7656845398	-1.2592977861	-0.03522
O	 0.7611988062	 0.2102136958	-2.272845839	-0.230369
C	 1.7548050252	-0.0090031461	-1.2671009095	-0.035212
H	-0.3102137899	 2.0154177044	 0.7728651919	 0.131327
H	-0.2560011605	 1.9067148323	-1.0586379387	 0.141568
H	 2.7403327612	-0.2103419417	 1.3246335145	 0.090831
H	 2.349116811	 1.4370571514	 1.871428814	 0.115068
H	 0.2454628778	-1.7173546755	 1.3402347535	 0.090833
H	-1.0256049183	-0.601424927	 1.8925428195	 0.115068
H	 0.2436560243	-1.7672966374	-1.5823109959	 0.110918
H	 2.7585796052	-0.2482981878	-1.5979806124	 0.110918
