19
gdb 64734	2.50218	1.27391	1.12865	2.8047	81.25	-0.2353	-0.0205	0.2148	1189.8128	0.155971	-385.86953	-385.859854	-385.85891	-385.90429	35.657	
C	-0.1252720257	 1.7075063211	-0.0427748156	-0.449984
C	 0.0502738003	 0.1924004643	-0.0440202825	 0.193299
C	-1.2934170081	-0.5517553405	 0.1735394613	-0.411489
C	-1.9763811136	-0.2121419329	 1.4151637845	 0.321012
C	-2.5409598524	 0.0704752875	 2.4375888021	-0.440226
C	 0.8629404937	-0.4369474364	-1.2294145475	-0.283629
C	 1.821104487	-1.1517790956	-0.23005401	-0.3408
C	 1.1607482592	-0.3404373815	 0.8959738338	 0.380219
O	 1.4448636085	-0.1161995409	 2.0358221989	-0.29382
H	 0.8323111027	 2.2140410492	-0.1972037741	 0.116941
H	-0.8069632839	 2.0198012855	-0.8422825158	 0.115669
H	-0.5383203722	 2.0438036071	 0.9115227219	 0.149891
H	-1.945890222	-0.322668461	-0.6800790692	 0.134133
H	-1.1204936767	-1.6354150924	 0.1393307611	 0.129042
H	-3.0318682589	 0.3151874715	 3.3467526957	 0.198847
H	 0.2925638115	-1.0920506783	-1.8911288615	 0.104974
H	 1.3672086594	 0.3188598093	-1.8349268916	 0.110901
H	 1.6433641361	-2.2272290823	-0.1287146861	 0.133347
H	 2.895583095	-0.9941179637	-0.3512184755	 0.131674
