18
gdb 48545	2.89023	1.46911	1.43408	3.0121	76.54	-0.2454	-0.0267	0.2187	1006.3696	0.149371	-401.9281	-401.920861	-401.919917	-401.959892	28.402	
O	-0.1458914386	 0.0281479444	-0.0730435162	-0.271091
C	 0.000625521	 1.2248713837	 0.0115792333	 0.032882
C	 1.3048798411	 1.8987460014	-0.0037709702	 0.258851
C	 1.8653874518	 2.9595857927	 0.9275516958	-0.086143
C	 3.2084779971	 2.2170019157	 0.9892138221	-0.251042
C	 2.7338511985	 1.3360779158	-0.2110169651	-0.105731
C	 3.172711123	 1.9720986751	-1.5325125253	-0.225735
C	 2.5229288535	 3.3798193007	-1.4441966183	-0.164179
N	 1.4463961103	 3.2975978803	-0.4236084308	-0.13818
H	-0.8597913246	 1.9207464736	 0.1228109838	 0.080791
H	 1.3708728096	 3.4745773347	 1.7447594702	 0.105377
H	 4.1220835616	 2.8055949539	 0.852715502	 0.099983
H	 3.2879948852	 1.6426001184	 1.914652387	 0.117378
H	 2.8783501687	 0.2616448706	-0.1235961214	 0.097887
H	 4.2609430744	 2.0190562612	-1.6359526	 0.104593
H	 2.7759571291	 1.4098591077	-2.3842607888	 0.112305
H	 3.2363317529	 4.1545955607	-1.1492144738	 0.114627
H	 2.0710082552	 3.6885790194	-2.3898674444	 0.117427
