19
gdb 41574	2.91953	1.79897	1.74509	1.7317	72.09	-0.2519	0.0758	0.3277	896.1478	0.163416	-423.016459	-423.010083	-423.009138	-423.047109	26.928	
C	-0.0176937795	 1.6005141995	 0.1956147616	-0.250204
C	 1.5394933063	 1.6248964649	 0.1251085249	-0.237662
C	 1.5543171273	 0.0768015721	-0.0309217857	-0.035274
C	-0.0106697995	 0.0613348072	-0.045318066	-0.011407
C	-0.2708879156	-0.5602621878	-1.4411295737	 0.014622
C	 0.1418622235	 0.3788704625	-2.5852293821	-0.092181
O	 1.575774842	 0.3908126715	-2.4525162117	-0.274309
C	 1.8438554934	-0.5498076104	-1.4127513749	 0.177555
O	 0.8120609902	-1.5149975568	-1.5265047601	-0.252561
H	-0.4070436941	 1.8598460141	 1.1827263355	 0.101778
H	-0.5482717967	 2.2118088184	-0.5379383861	 0.100421
H	 1.9509924264	 2.1515489527	-0.7365920535	 0.118026
H	 2.0251494447	 1.9928502473	 1.0310143701	 0.097877
H	 2.0477000529	-0.4822185496	 0.766232481	 0.074046
H	-0.5061728052	-0.5325975007	 0.724303436	 0.077879
H	-1.2248416486	-1.0682663834	-1.5753005248	 0.085789
H	-0.1354545119	-0.0384002092	-3.5601162598	 0.107839
H	-0.2510874087	 1.3955527858	-2.5059613814	 0.108542
H	 2.821323753	-1.003578048	-1.5750965992	 0.089222
