22
gdb 100823	2.24638	0.94218	0.83327	3.7972	79.72	-0.2473	0.0328	0.2802	1511.4803	0.191976	-441.511255	-441.500036	-441.499092	-441.548906	39.531	
C	-0.2239332585	 1.4758313663	-0.0063999768	-0.406626
C	 0.1811350952	 0.0022102944	 0.1198232274	 0.043824
C	 0.75888153	-0.5296891765	-1.1935954892	-0.088462
O	-0.2685356836	-0.4693701083	-2.1731991756	-0.422732
C	 1.1260974118	-0.2935533802	 1.3129519699	 0.02969
C	 2.4699682962	 0.4408511911	 1.2762928505	-0.417979
N	 0.4622723113	-0.0214304506	 2.5874681905	-0.281453
C	-0.2595950458	-0.9551205321	 3.2600792368	 0.154718
O	-0.4252296303	-2.102439904	 2.9005903588	-0.329557
H	 0.6373123023	 2.1184752529	-0.2222966077	 0.10761
H	-0.9365301971	 1.5941241882	-0.8251456309	 0.140787
H	-0.6982554131	 1.8382652359	 0.9110458288	 0.100102
H	-0.724534876	-0.5869435784	 0.3085671065	 0.108005
H	 1.6275686229	 0.0738059888	-1.5034430677	 0.081276
H	 1.1081913594	-1.5652610364	-1.0514141072	 0.089992
H	 0.095003141	-0.7705630711	-3.0106449742	 0.286957
H	 1.3105122311	-1.3725428059	 1.3168111147	 0.115062
H	 2.3412612224	 1.5277861883	 1.3258987444	 0.118126
H	 3.0910425872	 0.1349172802	 2.1228162363	 0.126012
H	 3.0172424688	 0.2156005052	 0.357242169	 0.128115
H	 0.5077238926	 0.9101879343	 2.9692749185	 0.244252
H	-0.6837125678	-0.549534612	 4.2008820173	 0.072279
