23
gdb 115919	3.51047	1.06282	0.90254	1.3573	84.8	-0.2222	0.0787	0.3009	1384.9594	0.207277	-388.283588	-388.274715	-388.273771	-388.317222	34.646	
C	-0.1340181756	 1.5569847257	 0.101386363	-0.393147
C	 0.0434936532	 0.0366733106	 0.0195020338	-0.181535
C	 0.7522483619	-0.464977319	-1.2479584072	 0.027667
C	 2.2310605924	-0.0693404636	-1.2887684566	-0.086943
O	 2.8439625874	-0.3916334688	-2.5286828252	-0.256939
C	 2.6620717858	-1.7012277134	-2.982167803	 0.135409
C	 2.9819390189	-2.9088642792	-2.1447873057	-0.330212
C	 1.534700769	-2.5634406015	-2.4754260794	-0.077559
C	 0.6282215908	-1.9952566201	-1.3853022699	-0.242672
H	 0.824634357	 2.0840054618	 0.1345641141	 0.12017
H	-0.6897416706	 1.9359564545	-0.7634040677	 0.11705
H	-0.6902372566	 1.8367232091	 1.0015193266	 0.113482
H	 0.592305483	-0.3197002471	 0.9025628209	 0.093468
H	-0.9437953189	-0.4403743306	 0.07136914	 0.094549
H	 0.2785362376	-0.0012948222	-2.1248853215	 0.076118
H	 2.3601043712	 1.010963061	-1.186077015	 0.10747
H	 2.7677880148	-0.544565217	-0.4493173731	 0.085486
H	 2.9099655321	-1.7412891522	-4.0376933371	 0.09642
H	 3.4435741804	-3.7614550166	-2.6310966212	 0.107868
H	 3.3001001374	-2.7571828346	-1.118314987	 0.112489
H	 1.0445279146	-3.1969602585	-3.2078225649	 0.085293
H	 0.8587280116	-2.4612668272	-0.4177799425	 0.096726
H	-0.4141643775	-2.2513470211	-1.6028232413	 0.099339
