19
gdb 83852	2.09792	1.81501	1.28896	2.5635	75.67	-0.2186	-0.0283	0.1903	1051.6654	0.161081	-419.18224	-419.174054	-419.17311	-419.215005	31.444	
C	-0.2975814201	 1.4167949672	 0.3134353235	-0.32941
N	 0.027922687	 0.0299015754	 0.0201568394	-0.086084
C	 0.48934881	-0.4238422013	-1.2788055481	-0.052925
C	 0.8355266189	 0.5334051672	-2.4264734843	-0.203588
N	 2.2378639562	 0.9535632987	-2.5040722396	-0.283
C	 2.7480271713	 1.4472740785	-1.226195064	-0.286278
C	 2.5980216086	 0.4612307531	-0.0605531252	 0.375377
O	 3.4358239443	 0.3746745448	 0.8104176243	-0.316981
C	 1.407751026	-0.4594995061	-0.0791666518	-0.129191
H	 0.2651413129	 2.1789301774	-0.2417376121	 0.108109
H	-1.3607228095	 1.5678551693	 0.0999598441	 0.131612
H	-0.1400249221	 1.5902158	 1.3817491028	 0.140391
H	 0.034698837	-1.3658106972	-1.5834881488	 0.100079
H	 0.5791578299	 0.049296644	-3.3729788171	 0.114534
H	 0.21404664	 1.4356687776	-2.3655722171	 0.120047
H	 2.801484475	 0.1595802867	-2.7933134799	 0.2225
H	 3.8110684249	 1.6880240055	-1.3125478545	 0.132494
H	 2.232432922	 2.3847774503	-0.9773426131	 0.133756
H	 1.5904612378	-1.3840563012	 0.4637900617	 0.108557
