21
gdb 72655	1.99765	1.82931	1.56827	1.3431	77.1	-0.2455	0.0676	0.3131	1023.2356	0.182446	-424.224947	-424.216135	-424.215191	-424.257933	34.365	
C	-0.194899055	 1.5077628532	 0.1403359501	-0.475467
C	-0.0041307817	 0.007361015	 0.0091329681	 0.292255
C	 1.129625295	-0.4521144863	-0.9620916568	-0.267157
C	 1.9617834989	-0.9782815312	 0.2394813067	-0.285607
C	 0.7517895562	-0.7293789143	 1.17712115	 0.337487
O	 0.9820168093	 0.0564370846	 2.3251022942	-0.478095
C	-0.1474750481	-1.9526869313	 1.4495583968	-0.139546
O	-0.9667802087	-2.1171683072	 0.3011495074	-0.253373
C	-1.2940014136	-0.8016047892	-0.138872673	-0.146522
H	 0.7560171847	 2.0104111084	 0.3386958354	 0.122333
H	-0.6116597606	 1.9265456329	-0.783134394	 0.110538
H	-0.8733224903	 1.7527373557	 0.9634075583	 0.122776
H	 0.8109270799	-1.2410103168	-1.6471194995	 0.108632
H	 1.5945187917	 0.3500590205	-1.5398867746	 0.097272
H	 2.3228730758	-2.0083224508	 0.1733220384	 0.095261
H	 2.7978172394	-0.3225438072	 0.4958630179	 0.101377
H	 1.6185360741	-0.4023908123	 2.883682212	 0.279096
H	 0.3955235854	-2.889766196	 1.6084298823	 0.097365
H	-0.7527997515	-1.7309901956	 2.3436013364	 0.090358
H	-2.0946593366	-0.3711518419	 0.4864190398	 0.085799
H	-1.6558440843	-0.8758657402	-1.168696286	 0.10522
