13
gdb 29392	5.00272	0.91954	0.85763	3.4685	64.8	-0.2344	-0.02	0.2144	1280.4481	0.089794	-452.787928	-452.780149	-452.779205	-452.82144	27.767	
O	 0.3210934166	 1.3375208865	-0.1616162364	-0.4242
C	 0.1237202005	 0.0113451214	-0.0939863848	 0.327136
C	-0.2260675394	-0.841476852	-1.0901855112	-0.144789
O	-0.3007186651	-2.0976951787	-0.5259387413	-0.163028
C	 0.0046030378	-1.9156737652	 0.7674655782	 0.407118
C	 0.0291128171	-3.1103267238	 1.6686000373	-0.43288
C	-1.2713790448	-3.7775183998	 1.7769488756	 0.267448
N	-2.2926555637	-4.3088876332	 1.8644518001	-0.294491
N	 0.2676003381	-0.685769097	 1.0900523387	-0.378897
H	 0.5430144068	 1.6366083704	 0.7284875495	 0.311411
H	-0.4426245319	-0.75534538	-2.1381551039	 0.157407
H	 0.7651194193	-3.840991491	 1.3117861717	 0.178879
H	 0.3490305388	-2.7734289576	 2.6577848165	 0.188887
