20
gdb 13721	5.59039	0.84475	0.79264	1.0515	73.02	-0.2429	0.0798	0.3227	1491.5474	0.175065	-386.112068	-386.102552	-386.101608	-386.147336	33.624	
C	-0.122200695	 1.440484887	-0.2844752302	-0.383504
C	-0.0538853114	-0.0216952512	 0.1239193266	-0.022317
O	-1.3452377549	-0.5805997142	 0.0169075998	-0.246631
C	-1.3855685147	-1.9499619641	 0.3709132773	-0.068579
C	-2.8073105976	-2.4323345809	 0.2674813553	-0.035396
C	-3.3794668192	-2.7898163434	-1.090827208	-0.315629
C	-3.1029424148	-3.8651689521	-0.072655778	 0.092488
O	-2.0084178893	-4.7219187339	-0.2439400092	-0.418015
H	 0.8654377959	 1.9056196276	-0.2102949866	 0.111623
H	-0.4744995037	 1.5344459238	-1.3156946143	 0.124452
H	-0.8135832977	 1.9870549058	 0.3633380113	 0.12466
H	 0.6547514965	-0.5702982435	-0.5208433705	 0.081312
H	 0.3201596426	-0.1166662305	 1.1583659743	 0.081797
H	-0.7341942831	-2.544479177	-0.2863777611	 0.096148
H	-1.0122847974	-2.0858921989	 1.4007394322	 0.084511
H	-3.4880935819	-1.9600030186	 0.9694483072	 0.091756
H	-4.4065562855	-2.5266086406	-1.3181370669	 0.110758
H	-2.6953708605	-2.727674444	-1.9309271011	 0.116146
H	-3.9583202737	-4.3235045916	 0.4238746356	 0.086065
H	-2.2061830348	-5.3083918096	-0.9812446839	 0.288354
