20
gdb 82941	2.12374	1.78522	1.44443	2.4569	77.46	-0.2186	0.076	0.2946	1032.4196	0.171597	-403.097587	-403.08937	-403.088425	-403.129772	32.907	
C	-0.106695988	 1.5639853823	 0.0006858852	-0.432099
C	 0.054179041	 0.0559850612	 0.0903805529	-0.077615
C	 1.3019451039	-0.7429895073	-0.2657227138	-0.121553
C	 2.6940950581	-0.1154244835	-0.1540822894	-0.193734
N	 3.0570182442	 0.0029703708	 1.2860721217	-0.092151
C	 2.3790656083	 1.0678603893	 2.0374503255	-0.264775
C	 1.8444593523	-0.3178084752	 2.0637061091	-0.097384
C	 0.7441737284	-0.8011639191	 1.1351122122	 0.368325
O	 0.0852195622	-1.9615658277	 1.5569750277	-0.466148
H	 0.8320182412	 2.0828933326	-0.2065352215	 0.129231
H	-0.785427846	 1.8054734014	-0.8235922027	 0.118418
H	-0.5345274759	 1.9933620767	 0.912806513	 0.121956
H	-0.8370095573	-0.4699492164	-0.2482863703	 0.092736
H	 1.1802883771	-1.587859206	-0.9350914095	 0.097084
H	 3.425453357	-0.7775731937	-0.6269462922	 0.11562
H	 2.7803793711	 0.8598911388	-0.6484461658	 0.10421
H	 2.945149017	 1.4413131411	 2.8880698289	 0.111175
H	 1.8356478832	 1.8355452214	 1.5022648695	 0.110887
H	 1.9750382897	-0.942682465	 2.9434872412	 0.092862
H	-0.6424161974	-1.6988376617	 2.1308379883	 0.282955
