23
gdb 64468	2.47611	1.40507	1.15089	0.9551	87.77	-0.2334	0.0217	0.2551	1210.2504	0.206447	-388.299393	-388.290236	-388.289291	-388.332644	36.18	
C	-0.329799444	 1.5820576404	-0.0180141304	-0.397049
C	-0.0378545446	 0.0645685659	 0.0025865188	 0.194564
C	-1.3687066345	-0.7142525165	-0.0224747334	-0.419829
C	 0.7339425655	-0.3259661711	-1.2736675286	-0.087749
O	 1.9646450091	 0.3404014858	-1.467401368	-0.247588
C	 3.0609916688	-0.2284502092	-0.7803297708	-0.074356
C	 3.1558449777	 0.180296318	 0.6891719473	-0.256197
C	 2.0024181395	-0.2249453837	 1.573234254	-0.086458
C	 0.7003413185	-0.2775610907	 1.286559526	-0.052864
H	 0.5988913102	 2.1509639855	-0.1014665878	 0.127993
H	-0.9657157214	 1.8407267345	-0.8729368917	 0.105734
H	-0.8466791798	 1.8940399336	 0.8948883693	 0.107658
H	-1.9402388454	-0.4881036006	-0.9289005406	 0.110914
H	-1.1988464696	-1.7960489413	 0.0110049771	 0.114724
H	-1.9907475857	-0.4473781392	 0.8380830063	 0.114639
H	 0.8896052439	-1.4167475388	-1.28707114	 0.083028
H	 0.1174485237	-0.0650115946	-2.1424238747	 0.09583
H	 3.0245963514	-1.3270516151	-0.8587841765	 0.087545
H	 3.9580505741	 0.1151952285	-1.3074604322	 0.100076
H	 4.0833245428	-0.2466648198	 1.0917912391	 0.09897
H	 3.28537174	 1.2714545297	 0.7393858512	 0.119526
H	 2.2830675528	-0.4642288891	 2.5976440114	 0.084113
H	 0.037553287	-0.5534253324	 2.106627804	 0.076775
