16
gdb 127494	3.82703	1.14601	0.89179	3.735	82.24	-0.2344	-0.0123	0.2221	1272.8683	0.123613	-396.933911	-396.924812	-396.923867	-396.969808	31.776	
C	-0.0750247502	 1.399849057	-0.0740992047	-0.326749
N	-0.0222909646	-0.0440618178	 0.0197052081	 0.007287
N	-0.097925593	-0.7912972516	-1.104051357	-0.308365
C	-0.0210075477	-2.0323695642	-0.6282214786	 0.163587
N	 0.098735022	-2.1106128498	 0.7327991259	-0.344821
C	 0.0946637814	-0.8446880688	 1.1102769343	 0.329906
C	 0.2018348342	-0.3594871811	 2.5170901475	-0.515545
C	-0.0607030793	-3.1717731481	-1.4731889549	 0.281044
C	-0.0937178489	-4.1417314644	-2.1826900515	-0.39053
H	 0.0190713811	 1.8272402052	 0.9244829829	 0.145011
H	 0.7421406793	 1.7633455219	-0.7019636396	 0.158865
H	-1.0252789449	 1.7133967976	-0.5137820202	 0.158044
H	 1.0844135178	 0.271968724	 2.6648468968	 0.141966
H	-0.6781680334	 0.2192352587	 2.8173360636	 0.141977
H	 0.28452772	-1.2269211371	 3.1722618653	 0.16634
H	-0.1227743939	-4.9987514914	-2.8088265878	 0.191983
