21
gdb 107063	3.93295	1.09549	0.97992	2.2118	78.72	-0.2499	0.0832	0.3331	1304.1134	0.181521	-424.225435	-424.216261	-424.215316	-424.259413	34.397	
C	-0.3807316227	 1.4910159282	 0.2760791395	-0.382066
C	 0.16182771	 0.090192813	-0.0395507095	-0.286417
C	 0.949431213	-0.5005046064	 1.1007067549	 0.41264
C	 2.289192737	 0.0753012671	 1.5324230611	-0.141209
O	 2.878359171	-0.8904244476	 2.3908692477	-0.274545
C	 2.333501863	-2.1878102885	 2.1291367738	 0.122621
C	 2.2860258096	-2.9617981687	 3.4378846465	-0.401298
C	 0.9879720438	-1.9133695432	 1.4855595494	-0.082023
O	 0.1976840399	-0.9796829111	 2.2333810627	-0.296398
H	 0.4286567448	 2.2060211919	 0.4563043185	 0.120063
H	-0.9806574329	 1.8718140359	-0.5553598984	 0.116004
H	-1.0123009139	 1.4648974834	 1.1688915311	 0.137298
H	-0.670013906	-0.5836341416	-0.2698459389	 0.110081
H	 0.8003711543	 0.1263897137	-0.9313718693	 0.102821
H	 2.9110240125	 0.2595489865	 0.6401017007	 0.089494
H	 2.2020157259	 1.0120752587	 2.0928507779	 0.115406
H	 2.9601500218	-2.7229180708	 1.3936550477	 0.066951
H	 1.5952875888	-2.4740984593	 4.1299954643	 0.138396
H	 1.9546278528	-3.9909822517	 3.26648449	 0.110621
H	 3.2790307102	-2.9909450378	 3.8939744281	 0.126691
H	 0.4472864472	-2.6971415015	 0.9605289024	 0.094869
