20
gdb 62113	3.91629	0.71457	0.63427	2.5757	78.76	-0.2617	0.0219	0.2836	1750.2785	0.16876	-440.25815	-440.247935	-440.246991	-440.295595	35.099	
C	-0.0435258169	 1.7952674708	 0.1969511156	-0.404654
C	-0.0391939602	 0.2676607605	 0.0546791691	-0.030233
C	 0.6882642979	-0.4148028109	 1.2130356176	-0.074679
O	 2.0431586389	 0.0391192986	 1.2195290461	-0.18859
C	 2.9014972736	-0.636533374	 2.0056819279	 0.128877
N	 4.0916235198	-0.2357063539	 2.1328357941	-0.439347
C	-1.4498575451	-0.2750443255	-0.0348542232	 0.086702
C	-2.0861310496	-0.5964622115	-1.3171801723	-0.181433
O	-1.5918867605	-1.6321962844	-0.4649878362	-0.243591
H	 0.9770563012	 2.1727340773	 0.284750037	 0.149636
H	-0.5171968269	 2.2674903531	-0.6688525377	 0.117585
H	-0.5959308615	 2.1046320451	 1.0922335344	 0.114233
H	 0.489038367	-0.0102205356	-0.8653603439	 0.094422
H	 0.2091448264	-0.1619619016	 2.1704836071	 0.103556
H	 0.6519286539	-1.5034175416	 1.0838215081	 0.125546
H	 2.4580140461	-1.5246188992	 2.4777818781	 0.085142
H	 4.605991046	-0.867867432	 2.7426273774	 0.22881
H	-2.1035517256	-0.0086349686	 0.7995045784	 0.092189
H	-3.1696082422	-0.5484601277	-1.4146030215	 0.118181
H	-1.5292212225	-0.4479376493	-2.2414903961	 0.117647
