15
gdb 67158	2.51815	1.7401	1.59621	3.4693	64.72	-0.2334	-0.0334	0.2	902.6326	0.112328	-457.714151	-457.707129	-457.706185	-457.745457	27.623	
O	-0.1167038682	 1.4315174711	-0.017076668	-0.462689
C	 0.011458911	 0.0685466662	-0.0002959757	 0.356822
C	 0.6844843821	-0.8915149853	 1.0467699291	 0.014016
C	-0.6872960103	-1.5474140272	 1.3088705002	-0.241609
C	-1.255585611	-0.8752538666	 0.0191892295	-0.223101
C	-0.7013001945	-1.5317661447	-1.2571443029	 0.442696
O	-1.199667635	-2.16699309	-2.1393823391	-0.306126
C	 0.6913987811	-0.8825679193	-1.0598231806	-0.118386
O	 1.4010177415	-1.5750319143	-0.0072048626	-0.29168
H	 0.7588909496	 1.8298101433	-0.0858452651	 0.296747
H	 1.336968046	-0.6351912387	 1.8834341383	 0.089242
H	-0.7072068371	-2.6376115632	 1.3734450431	 0.123407
H	-1.1632218863	-1.1167108542	 2.1954825087	 0.119517
H	-2.2897890669	-0.5346661296	 0.0104599516	 0.104513
H	 1.3210172478	-0.6272728974	-1.9148826664	 0.096631
