21
gdb 58238	2.53958	1.28053	0.95405	1.5755	74.47	-0.2496	0.0685	0.318	1285.3588	0.179527	-461.342493	-461.332301	-461.331357	-461.377424	38.35	
C	-0.3166093761	 1.5009522047	 0.1274556868	-0.400126
C	-0.0776361177	 0.0000517094	-0.0136250888	 0.088945
O	 0.469723845	-0.3118567182	-1.2936115207	-0.42646
C	 0.8199141923	-0.5564955497	 1.1218167711	 0.040381
O	 0.4280220859	-0.0235423998	 2.3743196769	-0.434737
C	 0.8296462132	-2.0935448627	 1.2010848511	 0.384188
C	 1.0494318825	-2.9059266818	-0.0538573252	-0.457138
C	 1.1534232263	-2.7007819495	 2.5004463372	-0.230519
O	-0.2163246151	-2.5847421405	 2.0700860724	-0.292374
H	 0.6359349403	 2.0467501652	 0.0988335974	 0.10382
H	-0.9400499223	 1.854052907	-0.6985013881	 0.118808
H	-0.8000771245	 1.7376676449	 1.0760190149	 0.135118
H	-1.0407164167	-0.5256990223	 0.016568841	 0.095898
H	 1.2272643482	 0.2671127741	-1.433991868	 0.27848
H	 1.8464763786	-0.2073250625	 0.9355415745	 0.07785
H	-0.2824070121	-0.6064767974	 2.682969055	 0.291957
H	 2.0167268896	-2.6613525952	-0.5037250546	 0.117916
H	 1.036989343	-3.9711303901	 0.1914179057	 0.115471
H	 0.2850685648	-2.7041987852	-0.8049711586	 0.150131
H	 1.5367241983	-3.7192299336	 2.5263004723	 0.115108
H	 1.4235586864	-2.0692279768	 3.3421052475	 0.127284
