14
gdb 11982	2.69473	2.38017	1.78449	1.4187	57.64	-0.2422	-0.035	0.2073	778.7019	0.10444	-419.642631	-419.635046	-419.634102	-419.674209	27.958	
C	-0.0472330518	 1.6145003131	-0.0959938249	-0.46261
C	 0.0025675407	 0.101225118	-0.0324494933	 0.259554
O	-1.2556768097	-0.4937469729	 0.2249516643	-0.472632
C	 0.6900123593	-0.6582528673	-1.185306707	 0.013194
O	 2.0318964301	-0.2040938942	-1.2052353707	-0.231914
C	 1.7084664375	-1.2897248725	-0.3034488545	-0.123692
C	 1.0686225029	-0.6094018091	 0.8944741616	 0.374336
O	 1.1380328252	-0.7274704268	 2.0818743395	-0.310389
H	 0.9139416812	 2.0169912285	-0.4242901199	 0.142724
H	-0.8319943401	 1.9369167043	-0.787161274	 0.129573
H	-0.2706567234	 2.0259170548	 0.894503604	 0.126462
H	-1.4810933387	-0.3175952785	 1.1462150621	 0.296374
H	 0.2475538781	-1.0561079687	-2.0902218646	 0.128699
H	 2.2707991888	-2.210043769	-0.4032335625	 0.130321
