21
gdb 38695	2.44983	2.09121	2.01129	1.4519	79.18	-0.2362	0.0804	0.3166	878.3739	0.188938	-387.130921	-387.12492	-387.123976	-387.160762	27.317	
C	-0.0087314237	 1.5726762045	-0.013574147	-0.213284
C	 1.5036437299	 1.873899335	-0.006511736	-0.012436
C	 1.9522128084	 0.9616552789	-1.1667221166	-0.212227
C	 1.3490875384	-0.3713733886	-0.6947759486	 0.101536
O	 2.2112605779	-0.876263728	 0.337312997	-0.273681
C	 1.8056746865	-0.1511990885	 1.5024683265	 0.093427
C	 0.2915919791	-0.3989133157	 1.4888833776	-0.208037
C	 0.0001139335	 0.0257965232	 0.0351883085	-0.050418
C	 2.1323939324	 1.3502425563	 1.3140183336	-0.225782
H	-0.5516991243	 2.0106279896	 0.8295686179	 0.087735
H	-0.4661093582	 1.9503698845	-0.9346356274	 0.08937
H	 1.7396361047	 2.9309033318	-0.1579209072	 0.056791
H	 1.5186061449	 1.2999623993	-2.114835023	 0.08582
H	 3.0345955515	 0.873510483	-1.2881868937	 0.098336
H	 1.2555883987	-1.1409758272	-1.4629253001	 0.069954
H	 2.3316483036	-0.5779813728	 2.3600115703	 0.06971
H	 0.095748945	-1.460892506	 1.6603227438	 0.098691
H	-0.2719454496	 0.1863589774	 2.220438402	 0.090487
H	-0.8870719995	-0.4408942073	-0.3943307273	 0.06404
H	 3.2201219841	 1.4775168925	 1.285841283	 0.099761
H	 1.7577793568	 1.922276018	 2.1716746966	 0.090205
