16
gdb 18065	4.98422	1.35533	1.29942	4.5849	68.79	-0.2599	0.0274	0.2873	968.5786	0.131391	-342.742942	-342.735805	-342.73486	-342.775028	26.599	
N	 0.1652596525	-1.0224988909	-0.4478382284	-0.303582
C	 0.1198016723	 0.0528911968	-0.0291913885	 0.282557
C	 0.0416236371	 1.4231727305	 0.4870766556	-0.28958
N	 1.3007016444	 2.1241911068	 0.2631767501	-0.077316
C	 1.6473280468	 2.7245472133	-1.0084359465	-0.029427
C	 0.4426459246	 3.350753759	-1.7346749131	-0.248129
C	 0.1702512452	 4.2296819089	-0.4728037556	-0.250109
C	 1.3788050831	 3.5704326671	 0.21891739	-0.04034
H	-0.8428831991	 1.8983609078	 0.0382722166	 0.139661
H	-0.1346593592	 1.3793296657	 1.5676944902	 0.157294
H	 2.5857773363	 2.4293224922	-1.4636822456	 0.106481
H	 0.7472987981	 3.9495893378	-2.5947104891	 0.116744
H	-0.3430268416	 2.6613629039	-2.0581023412	 0.111941
H	 0.3441753697	 5.2897164238	-0.6670306694	 0.116728
H	-0.7997123034	 4.1287615837	 0.0243643976	 0.104493
H	 2.0681493833	 4.0581751636	 0.8995030072	 0.102585
