18
gdb 80049	2.73028	1.71168	1.42663	2.1211	77.33	-0.2173	0.0043	0.2216	972.5067	0.149343	-401.907297	-401.899908	-401.898964	-401.938783	30.159	
O	-0.1536433032	 1.4156227985	-0.0371998962	-0.426594
C	-0.0837023614	 0.0309129041	 0.0269275032	 0.116089
C	-0.3938427509	-0.7357598669	 1.3123617941	-0.152185
C	-1.1491426132	-0.0229584586	 2.3807448031	-0.066719
C	-2.354974449	 0.3674625189	 1.9594207949	-0.165202
C	-2.5720868161	-0.0170013255	 0.5358976615	 0.335977
C	-3.9018108623	-0.1837863329	-0.0951028742	-0.30674
N	-3.0963049343	 1.0059463349	-0.4275606863	-0.374732
C	-1.3392643928	-0.7909987326	 0.1144243641	-0.202612
H	-0.9478030342	 1.6287867367	-0.5454023727	 0.302906
H	 0.728196321	-0.3965850499	-0.5611306202	 0.090421
H	 0.258680408	-1.5633145554	 1.5674521541	 0.089406
H	-0.731453565	 0.1759067872	 3.3602126877	 0.104322
H	-3.072932406	 0.9576152857	 2.5188267341	 0.093582
H	-4.018448722	-0.8969111172	-0.9076284499	 0.12235
H	-4.7880181773	-0.0517501643	 0.5202909866	 0.11593
H	-3.4478647266	 1.8031409973	 0.099615968	 0.23447
H	-1.4571777846	-1.67407999	-0.5026212919	 0.08933
