20
gdb 119215	1.89272	1.42088	0.95831	2.3895	83.6	-0.2312	0.0443	0.2755	1319.5351	0.167266	-403.062879	-403.052564	-403.05162	-403.098247	37.208	
C	 0.0848782155	 1.3849037112	 0.0096424591	-0.223775
O	 0.3235755217	-0.0023397972	 0.0428906167	-0.230645
C	 0.382532445	-0.5793831064	-1.2423969902	-0.132874
C	 0.5205494045	-2.0830319137	-1.0881119739	 0.076491
C	 1.3925089964	-2.8179176356	-2.0724298105	-0.282712
N	 1.8015043828	-2.6929237187	-0.6902905558	-0.096223
C	 2.9383969637	-1.8423051856	-0.3654140433	-0.311964
C	-0.6534425266	-2.7342235551	-0.5533200569	 0.31399
C	-1.6491520045	-3.2656342833	-0.1401757022	-0.427691
H	 0.883574367	 1.9262081774	-0.5226702285	 0.102261
H	-0.8734157173	 1.6214392303	-0.4787803273	 0.107715
H	 0.0508321292	 1.7343739871	 1.0440236634	 0.131269
H	-0.5367449157	-0.3612335201	-1.8098393163	 0.101956
H	 1.2258054385	-0.1648354126	-1.8159370082	 0.085663
H	 1.1048421629	-3.8113423544	-2.4045578647	 0.125036
H	 1.9001275378	-2.2088894291	-2.8216869121	 0.105582
H	 3.1160590513	-1.0218889512	-1.0772974582	 0.097756
H	 2.7889012254	-1.4116112134	 0.6273274613	 0.142685
H	 3.8361479937	-2.4682024088	-0.3462457316	 0.124635
H	-2.518833781	-3.7393364406	 0.242476949	 0.190844
