18
gdb 51477	3.60462	1.07563	1.06396	3.3438	73.24	-0.2377	0.0294	0.2671	1198.5135	0.149266	-439.092716	-439.084718	-439.083774	-439.126225	29.758	
O	 0.0110378233	 0.4105579087	-0.9289092525	-0.323282
C	 0.0729317684	 1.3218939324	-0.1316987047	 0.149038
N	 1.2133963663	 1.7614229142	 0.4638921423	-0.277184
C	 2.4803131191	 1.1371762549	 0.270940611	 0.014249
C	 3.5934904211	 1.8102442267	-0.5303403236	-0.094545
C	 3.4182290764	 3.2849796335	-0.8825815028	-0.256143
C	 3.7066039504	 3.9940361962	 0.4563025168	-0.072711
O	 3.4193463333	 3.0359636515	 1.4906243842	-0.270414
C	 3.6604237997	 1.7487526562	 0.9736009666	 0.023572
H	-0.8118268238	 1.8991287859	 0.2043806779	 0.072525
H	 1.1712918546	 2.4938573577	 1.1576213665	 0.257977
H	 2.4237732481	 0.0569766097	 0.1919061548	 0.123245
H	 4.2155342598	 1.1790986106	-1.1527962838	 0.101717
H	 4.117325456	 3.5943578858	-1.6628248542	 0.112622
H	 2.4040893719	 3.4953542763	-1.2363594672	 0.118029
H	 4.7613381034	 4.2964347513	 0.5217586277	 0.105152
H	 3.0817511612	 4.8722623199	 0.6395528221	 0.111816
H	 4.3675311307	 1.1537099284	 1.5426989287	 0.104337
