18
gdb 31669	5.46533	0.81633	0.75177	5.075	84.09	-0.2168	-0.0267	0.1901	1518.4908	0.148327	-402.011679	-402.002879	-402.001935	-402.045867	32.005	
C	 0.0830265075	 1.5120873618	-0.2806811365	-0.368403
C	-0.0181539907	 0.034817129	 0.1411424324	-0.299422
C	-1.4180403414	-0.4922091768	 0.1736281843	 0.344356
C	-2.2263252003	-0.8691988488	 1.2167051921	-0.361485
C	-3.487639665	-1.2793351026	 0.6771584203	 0.192745
C	-4.6505857182	-1.7627968626	 1.4081313683	 0.070846
O	-5.702891419	-2.1007502982	 0.9053740532	-0.293708
C	-3.4020885773	-1.1355869739	-0.6981825534	-0.147995
N	-2.1603656174	-0.6638957867	-0.9850306965	-0.298435
H	 1.1250219456	 1.8461795412	-0.2800318273	 0.118775
H	-0.3155382245	 1.6704635546	-1.2885403256	 0.109509
H	-0.4843772074	 2.1506128567	 0.4025239146	 0.130135
H	 0.599559609	-0.5767086439	-0.5310818234	 0.107283
H	 0.4091840421	-0.0896673295	 1.1408020984	 0.121199
H	-1.9516383839	-0.8577616582	 2.2612968137	 0.104083
H	-4.5091043476	-1.8061853402	 2.5124948861	 0.056114
H	-4.1332765114	-1.340350463	-1.4626355297	 0.149551
H	-1.8207146802	-0.471765769	-1.912880191	 0.264851
