17
gdb 17707	5.77517	1.53261	1.47174	2.1884	68.34	-0.2373	0.0785	0.3158	899.125	0.142623	-363.761892	-363.755078	-363.754134	-363.792525	27.089	
C	-0.1501446895	 1.5688277051	 0.0827885372	-0.419599
C	-0.0115577878	 0.065552317	-0.0423906385	 0.068493
C	 0.9026430462	-0.5759935468	-1.0922291579	-0.08805
C	 2.1426378762	-0.2678942252	-0.2021051543	-0.066859
C	 2.6193271324	-1.7270894508	-0.1839319656	 0.159866
O	 3.3425743952	-2.1836715178	 0.920154519	-0.449357
C	 1.0874108613	-1.79413252	-0.1433362984	-0.057665
N	 1.0383529876	-0.5972312689	 0.8558934229	-0.205972
H	 0.8068283826	 2.0833778237	-0.0449221271	 0.118325
H	-0.8428502793	 1.9531763937	-0.6736941641	 0.119852
H	-0.5484760838	 1.8329245638	 1.0679287501	 0.129157
H	-0.9880137745	-0.4210125341	 0.0807252562	 0.072067
H	 0.8442677112	-0.5792597829	-2.1858132958	 0.066358
H	 2.7232201115	 0.6526227049	-0.1349188147	 0.08697
H	 3.1079449195	-2.0996744455	-1.0878849416	 0.087725
H	 2.8868627256	-1.8454453005	 1.7023868395	 0.294542
H	 0.4142204356	-2.6433187856	-0.0094800172	 0.084145
