19
gdb 73638	2.33528	1.67465	1.44055	4.135	74.03	-0.2638	0.0153	0.2791	1022.073	0.160694	-423.083718	-423.075776	-423.074832	-423.115946	30.829	
C	 0.0447469269	 1.5843223628	-0.1063056215	-0.480418
C	-0.0397673273	 0.073989914	 0.0465139898	 0.107028
C	-1.4601847592	-0.5265988171	-0.0318983869	-0.258989
C	-1.3796122011	-1.8622627665	 0.7354608937	-0.230234
C	-0.3799796897	-1.5762244483	 1.8759652341	-0.226481
C	 0.6430359246	-0.6429446345	 1.2470578187	 0.09992
O	 1.5369770037	-1.3525889549	 0.3129980545	-0.272076
C	 0.9823913791	-0.7259100809	-0.7732454548	 0.440682
O	 1.2870284769	-0.8475815694	-1.917192551	-0.341086
H	 1.0709427923	 1.946416152	 0.0098910981	 0.128865
H	-0.3027260464	 1.8853505362	-1.0994787787	 0.140999
H	-0.5822938613	 2.0860066036	 0.6381624976	 0.120361
H	-2.1547624213	 0.1590178281	 0.469093577	 0.102565
H	-1.8007308605	-0.6410878006	-1.0645999857	 0.12146
H	-2.3529062386	-2.1991677334	 1.0994486052	 0.103684
H	-0.9862968481	-2.6499893794	 0.0848715686	 0.126673
H	-0.8767480006	-1.0427138231	 2.6958906697	 0.106509
H	 0.081471633	-2.4740248128	 2.295523566	 0.119362
H	 1.2378792174	-0.0470632957	 1.9407858159	 0.091176
