11
gdb 21571	4.24449	1.92976	1.32688	6.2519	58.03	-0.255	-0.0891	0.1659	822.0447	0.071642	-430.704396	-430.697649	-430.696705	-430.735289	24.745	
N	 0.0338367369	 1.3600355255	 0.0875763623	-0.554488
C	-0.0620712087	 0.0114493923	 0.0300133223	 0.480269
C	-1.2090551852	-0.7208972531	 0.0158333188	-0.385613
C	-1.1279031834	-2.148227754	-0.0109500154	 0.486139
O	-2.0111891292	-2.9585416688	-0.0238362347	-0.339421
O	 0.2027945073	-2.6505955445	-0.0258638677	-0.255734
N	 1.3265056971	-1.8378132226	-0.0201146879	 0.079001
N	 1.2002147587	-0.6027817955	 0.0078885596	-0.194742
H	 0.9411040152	 1.7725728872	-0.0506098505	 0.281887
H	-0.7793251039	 1.9365278018	-0.0389438521	 0.277484
H	-2.1933071046	-0.2702961083	 0.0272667453	 0.125217
