18
gdb 18699	3.09412	2.17086	1.4023	1.8498	73.26	-0.2346	0.0109	0.2455	915.0707	0.154875	-347.804879	-347.797533	-347.796588	-347.836322	28.292	
C	-0.1142876615	 1.5120530539	 0.0872316297	-0.490837
C	 0.002254009	 0.0160349501	-0.0004896372	 0.324266
C	-0.0202077983	-0.665305978	-1.1494873966	-0.148148
C	 0.1087674204	-2.1664844226	-1.2370870195	-0.261569
C	 0.9186614479	-2.7700020839	-0.0727328282	-0.23493
C	 0.5831706404	-2.1261884664	 1.2659762972	 0.042415
O	 1.465741028	-1.0874719938	 1.7114221558	-0.258987
C	 0.1341973116	-0.7286536032	 1.2859389005	-0.044245
H	 0.774203165	 1.9463622453	 0.5623253053	 0.136617
H	-0.2292028711	 1.9647802718	-0.9012832629	 0.120226
H	-0.9742123807	 1.810188937	 0.7008309842	 0.12182
H	-0.1462520798	-0.1251084644	-2.085790552	 0.083399
H	-0.8960640391	-2.6140190463	-1.2681108617	 0.112349
H	 0.5774952306	-2.4422470168	-2.1881762644	 0.106247
H	 0.7547322403	-3.8511624306	-0.0221478664	 0.096838
H	 1.9873823321	-2.6137416794	-0.2522870683	 0.121632
H	 0.2534244945	-2.7896303512	 2.0650385014	 0.08861
H	-0.5009026693	-0.3842338116	 2.103676913	 0.084296
