13
gdb 7024	7.51766	1.00035	0.88768	5.4797	62.63	-0.2564	-0.0351	0.2213	1199.9709	0.092634	-398.607514	-398.598996	-398.598052	-398.641892	28.748	
O	-0.5077566362	 0.1678112969	 0.0080901649	-0.2456
C	-0.143220641	 1.3086218647	 0.0092950086	 0.168748
N	 1.1763012473	 1.7613157848	-0.0008596545	-0.359939
C	 2.3509256799	 0.9894886816	-0.0147202893	 0.449992
O	 2.3680476969	-0.2077713414	-0.0204717878	-0.275147
C	 3.6072672975	 1.8844051389	-0.0213699639	-0.519669
C	 4.8528418338	 1.1400381226	-0.0382423965	 0.334377
C	 5.8918887256	 0.5400928005	-0.0522246934	-0.418839
H	-0.8374045852	 2.1742924045	 0.0190132986	 0.087773
H	 1.2868873914	 2.7653550791	 0.0023276059	 0.258217
H	 3.5476903438	 2.550929141	-0.8932543243	 0.15728
H	 3.5646333683	 2.5395176879	 0.8601165932	 0.157451
H	 6.804152538	-0.0035392912	-0.0646720116	 0.205356
