15
gdb 110179	2.85149	1.1482	0.89662	2.5138	68.25	-0.2858	-0.0217	0.2641	1243.1513	0.112588	-453.942327	-453.933948	-453.933004	-453.975936	30.027	
O	-0.0249386304	 1.3922857992	 0.0972269475	-0.412327
C	-0.0366715558	 0.009177865	-0.1547016808	-0.077111
C	-1.4612870757	-0.5361961337	-0.0088234916	-0.182555
C	-1.6810500934	-2.0677427332	 0.1585399175	-0.047779
O	-2.2118448728	-1.8464031799	 1.5056645975	-0.250313
C	-1.9739650722	-0.4869554145	 1.4111356424	 0.463319
N	-2.0627477058	 0.4313668092	 2.2575647412	-0.548535
C	-2.6484453234	-2.7068182133	-0.7238954425	 0.293198
N	-3.4011339066	-3.2051449126	-1.4445672691	-0.303224
H	-0.4291006252	 1.5343879959	 0.9656402996	 0.306069
H	 0.3268781436	-0.1365014931	-1.1768363032	 0.125533
H	 0.6369803422	-0.5436742504	 0.5216167969	 0.095401
H	-2.1291274491	-0.0691536667	-0.734497306	 0.1453
H	-0.7647614136	-2.6627647416	 0.2090644914	 0.147839
H	-2.3892149917	 0.1075254198	 3.1683942193	 0.245185
