14
gdb 17154	4.17205	2.02366	1.63655	4.377	66.68	-0.2529	0.0019	0.2548	778.7501	0.109046	-341.498071	-341.492075	-341.491131	-341.528145	23.505	
N	-0.0112916917	-1.0856098458	 0.0161419706	-0.343837
C	-0.0226629974	 0.0706245128	 0.038467144	 0.158744
C	-0.0449924198	 1.509945459	 0.0408216336	 0.280924
N	-0.6787341625	 2.3398238827	 1.1167284786	-0.371449
C	-0.1371090849	 3.3298393597	 0.1271485628	-0.032601
C	 1.1667245908	 2.4995120649	-0.0944500404	-0.067224
C	 1.0425382838	 2.5646975821	-1.6295085724	-0.27406
C	-0.4207771143	 2.4696558635	-1.1542379549	-0.099005
H	-1.698974456	 2.2836596356	 1.0436276364	 0.218392
H	-0.2284047411	 4.4076750067	 0.2502213756	 0.100458
H	 2.0442678508	 2.4945207581	 0.5497552321	 0.105475
H	 1.3391413999	 3.5064561659	-2.0979681557	 0.109398
H	 1.4344472625	 1.7127386954	-2.1903258088	 0.120836
H	-1.3473132503	 2.4297444795	-1.7284960114	 0.093949
