21
gdb 40948	3.48123	1.28945	1.14002	0.9954	85.17	-0.2352	0.0235	0.2586	1166.8082	0.184354	-387.090951	-387.083027	-387.082083	-387.123312	31.816	
C	 0.011080893	 1.5828352109	-0.1597506029	-0.2183
C	 1.547051891	 1.4661811054	 0.0225476252	-0.270868
C	 1.3471848659	 0.058850627	 0.6528307173	 0.397244
C	-0.0967693658	 0.0468457328	 0.0288912026	-0.269564
O	 2.2654996149	-0.8773589925	 0.1261345806	-0.306264
C	 2.266546867	-2.1281364321	 0.7980100551	-0.095982
C	 2.7334137205	-1.9725462475	 2.2457133833	-0.257562
C	 1.9875682269	-0.8334591269	 2.8874096601	-0.102119
C	 1.3395249888	 0.0690218311	 2.1540616014	-0.080945
H	-0.4639888646	 2.134195376	 0.6562595736	 0.10284
H	-0.3473656312	 1.9957051383	-1.1045351146	 0.100861
H	 2.0652891848	 1.3554213575	-0.9329667875	 0.113272
H	 2.0611674422	 2.2175654403	 0.62615078	 0.09769
H	-0.9148379394	-0.3406392828	 0.640242103	 0.09407
H	-0.0714764179	-0.4855122653	-0.9255475764	 0.107687
H	 1.2592322272	-2.5739334489	 0.7799263465	 0.091452
H	 2.9328570256	-2.7793797133	 0.2254837053	 0.102135
H	 2.5602637658	-2.9063781346	 2.795558046	 0.101368
H	 3.8164603651	-1.7902823939	 2.278236062	 0.114738
H	 1.9800077012	-0.7685865881	 3.9722185694	 0.088158
H	 0.7716181886	 0.8674237366	 2.62536452	 0.090088
