19
gdb 92803	2.86062	1.71649	1.35674	1.5184	80.3	-0.2361	0.0048	0.2409	999.6767	0.159988	-385.832516	-385.825056	-385.824111	-385.864127	30.091	
C	 0.0072002086	 1.6061648104	-0.0075204141	-0.393247
C	 0.0050821254	 0.0745941864	-0.019774766	-0.030277
C	 0.9730363069	-0.5020667028	-1.125891706	-0.251403
C	 2.3047522309	-0.7104636988	-0.4037314812	-0.222177
C	 2.0722481016	-0.7403683357	 0.90212448	 0.299484
C	 2.5008802306	-0.327263796	 2.2914599667	-0.11162
O	 2.0828460268	 1.055078228	 2.3724874128	-0.227246
C	 1.0965663336	 0.0481568494	 2.6044861312	-0.009879
C	 0.6120274405	-0.5614603674	 1.2515632534	-0.071551
H	 1.0115734698	 1.9967516297	 0.1734267582	 0.140409
H	-0.3546931755	 2.000047159	-0.9632320458	 0.104341
H	-0.6450629816	 1.9919351456	 0.7828053078	 0.109528
H	-1.0165747822	-0.2784185651	-0.1951806991	 0.063696
H	 0.5830407826	-1.4411424812	-1.5434340409	 0.103134
H	 1.0770157924	 0.1898785839	-1.9704296784	 0.103666
H	 3.2586889011	-0.746616339	-0.9165943705	 0.099447
H	 3.3209399111	-0.6314639848	 2.929195056	 0.10984
H	 0.5827074533	 0.0755141567	 3.5587177501	 0.101628
H	 0.144855044	-1.5292439282	 1.4828236959	 0.082227
