19
gdb 115832	3.31533	1.12592	1.05737	3.4652	71.02	-0.2478	0.0711	0.3189	1205.4693	0.159205	-460.138995	-460.130446	-460.129502	-460.172842	31.981	
O	 0.4335659821	 0.6399382752	 0.8953087844	-0.425199
C	-0.0257344494	-0.5356535239	 0.2628159164	-0.065133
C	-1.4235546115	-0.3241570346	-0.3222786866	 0.094315
C	-2.0919511286	-1.6129940003	-0.8173601158	-0.329993
C	-2.7816199408	-2.1066267721	 0.4417335554	 0.392408
C	-3.4513811049	-3.3958581791	 0.6012695283	-0.25677
O	-2.153337286	-3.1720117659	 1.1645469012	-0.266878
C	-3.1311477008	-0.850514078	 1.2237076205	-0.133125
O	-2.2849702973	 0.1837420664	 0.7201032537	-0.294633
H	-0.3036489297	 0.9407445606	 1.4418494454	 0.287416
H	 0.6821564665	-0.7724734192	-0.539732304	 0.103587
H	-0.0442494564	-1.392830094	 0.9559913545	 0.102306
H	-1.3751737689	 0.4562097405	-1.0885180575	 0.086861
H	-2.8293642183	-1.3900253804	-1.5951966497	 0.115211
H	-1.385746277	-2.3513660802	-1.2033038108	 0.124671
H	-4.2609914011	-3.5019104085	 1.3230772528	 0.118121
H	-3.4871310119	-4.0936982874	-0.2346521808	 0.118502
H	-4.1775634161	-0.5538574543	 1.0712321168	 0.107668
H	-2.9630510198	-1.007087285	 2.2951531756	 0.120666
