21
gdb 84984	2.43535	1.31047	1.07469	2.0789	78.21	-0.2353	-0.0164	0.2188	1222.5033	0.180885	-424.266901	-424.257274	-424.25633	-424.300977	36.687	
C	-0.1009229926	 1.5588323652	-0.0131212149	-0.430432
C	 0.0187615834	 0.0307109001	-0.0357618879	 0.173851
C	-1.3845890916	-0.6082704944	 0.0628412526	-0.421701
C	 0.8114112545	-0.5184366248	-1.2406289271	-0.258339
C	 1.5068110721	-1.7956280868	-0.7424995328	 0.10733
O	 2.5972724708	-2.0886620768	-1.5987889751	-0.430149
C	 1.8997324178	-1.4540323626	 0.7039604469	-0.359587
C	 0.8322696769	-0.4687443809	 1.1808367108	 0.395702
O	 0.6375871618	-0.1326130316	 2.3209281187	-0.334033
H	 0.8805804982	 2.0362235563	-0.0996580748	 0.113914
H	-0.7218012013	 1.9118123295	-0.8432373888	 0.112434
H	-0.5549567133	 1.8881915858	 0.9255624502	 0.13505
H	-2.004311188	-0.2828835761	-0.7793121204	 0.117789
H	-1.3424077874	-1.7024289644	 0.043487201	 0.115202
H	-1.8743081419	-0.3077019188	 0.9932666155	 0.13558
H	 0.1885478146	-0.7013542344	-2.1201732592	 0.103168
H	 1.597503762	 0.1869806328	-1.5350281154	 0.109333
H	 0.7910978496	-2.6321638232	-0.7414959538	 0.073489
H	 2.9847048597	-2.924024115	-1.3193311931	 0.283799
H	 2.0030859371	-2.3011092035	 1.3867980669	 0.119359
H	 2.8603220378	-0.9207926663	 0.6857912209	 0.138242
