19
gdb 64188	2.15299	1.55036	1.35657	2.774	71.47	-0.2542	-0.0384	0.2158	1073.2687	0.154814	-460.15581	-460.145878	-460.144934	-460.190521	36.356	
C	-0.2548450514	 1.4580920593	 0.1930995014	-0.431541
C	 0.0370455981	-0.0315140457	 0.045612361	 0.354494
C	-1.1797438745	-0.8013009029	-0.445581586	-0.442766
O	 1.1719338781	-0.2500078778	-0.8343615966	-0.317616
C	 1.9971865408	-0.7555461691	 0.2262613186	-0.120296
C	 0.8622366655	-0.6383618484	 1.2657218148	 0.176426
O	 1.0572699029	 0.1695765322	 2.3986598169	-0.476101
C	 0.3527839472	-1.9565394677	 1.8139571778	 0.135362
O	 0.4024998254	-3.0031059144	 1.2209674461	-0.249934
H	 0.6501197756	 2.030513829	 0.4211833925	 0.105864
H	-0.6461796651	 1.8438113203	-0.7530020423	 0.134391
H	-0.9952429351	 1.6421021665	 0.9771121932	 0.130218
H	-1.4829775109	-0.4093904981	-1.4215572309	 0.125223
H	-0.9545882466	-1.8628836327	-0.5563365771	 0.15094
H	-2.0230269413	-0.6877113995	 0.2445658536	 0.116084
H	 2.3378316595	-1.7781369039	 0.0339053569	 0.127194
H	 2.8585651186	-0.1086175852	 0.4412553923	 0.094687
H	 1.3979114752	 1.0250724644	 2.1207725181	 0.288858
H	-0.0783544018	-1.8711457563	 2.8343506097	 0.098514
