19
gdb 9896	4.74202	1.04847	0.98532	2.9177	76.43	-0.2457	0.0278	0.2735	1276.2794	0.162979	-365.047367	-365.038302	-365.037357	-365.081123	32.886	
C	-3.2100686785	-3.3566662633	-0.7809576363	-0.313723
N	-1.9723692139	-2.6330851355	-0.5807877729	-0.208632
C	-0.9793497353	-2.9911089094	-1.2641193159	 0.116043
O	 0.21710601	-2.3800483458	-1.1094200144	-0.242277
C	 1.234562317	-2.7509080492	-2.0241888437	 0.421904
C	 1.0957775884	-2.0932496579	-3.3767822628	-0.445363
C	 2.5776107481	-2.9174475667	-1.3859803937	-0.307296
C	 1.8174102488	-4.134346582	-1.8776471787	-0.317423
H	-4.000305606	-2.6587081809	-1.0807446289	 0.126474
H	-3.1479562152	-4.1541186774	-1.5402682774	 0.093181
H	-3.5300805419	-3.80929349	 0.1648032402	 0.126505
H	-0.9805780114	-3.8064515682	-2.0027780816	 0.079178
H	 1.065371515	-1.0046402998	-3.2673028096	 0.135975
H	 1.9406028153	-2.3527040578	-4.0206870051	 0.120883
H	 0.1767076237	-2.4094442233	-3.8822108617	 0.120865
H	 3.4504009499	-2.5886190533	-1.9386721708	 0.116416
H	 2.6275918488	-2.7638318524	-0.3146453602	 0.133454
H	 1.3854350767	-4.7842324175	-1.1253592545	 0.125708
H	 2.1653985005	-4.6423403394	-2.7704911822	 0.118128
