16
gdb 133534	2.4172	1.50931	1.34592	2.5651	57.05	-0.2645	0.07	0.3345	1002.311	0.119634	-569.385011	-569.376456	-569.375511	-569.41854	31.322	
C	-0.2385130819	 1.6775586382	-0.0808926784	-0.462833
C	 0.0298624947	 0.1837409038	-0.0755350451	 0.279128
C	 0.8345506721	-0.4297058671	-1.2484797973	-0.335996
C	 1.8099443007	-0.8883183195	-0.1471144462	-0.069409
O	 1.051259522	-0.1921259466	 0.871344086	-0.315677
C	-1.2482853609	-0.6013894495	 0.2364761276	 0.262851
F	-2.1805203679	-0.380675241	-0.708812513	-0.084506
F	-1.0183546627	-1.9213267018	 0.273922323	-0.08254
F	-1.7690926321	-0.2462170095	 1.4158087356	-0.073785
H	 0.6855286549	 2.2152053978	-0.3047206792	 0.126049
H	-0.9910473382	 1.9327321372	-0.8322549956	 0.134983
H	-0.5998932708	 1.9987206831	 0.8994718072	 0.144874
H	 0.3358606404	-1.2161342076	-1.8139274051	 0.130522
H	 1.2335349135	 0.3177031675	-1.9352097938	 0.117799
H	 1.8308337693	-1.9681256168	 0.0340967446	 0.117833
H	 2.8353930067	-0.5107642684	-0.2136834402	 0.110705
