18
gdb 6749	6.89153	0.6685	0.61868	3.5253	80.43	-0.2516	-0.0432	0.2084	1816.3833	0.150648	-347.807328	-347.797322	-347.796378	-347.844207	33.454	
C	-0.0168634552	 1.5685677655	 0.0062604527	-0.383618
C	-0.0008486884	 0.0390764117	 0.005956671	-0.15689
C	 0.7079936494	-0.5354300157	-1.2380329119	-0.344849
C	 0.7404522317	-1.9903564219	-1.2687127133	 0.013229
C	 0.7477812813	-3.1982648446	-1.2594363319	 0.087111
C	 0.7601977622	-4.6482988742	-1.254715199	 0.247301
C	 1.4385267596	-5.296936354	-2.4456186908	-0.476343
O	 0.2593806725	-5.2894893394	-0.3547494314	-0.278336
H	 0.9995883623	 1.9776929118	-0.0025295968	 0.117667
H	-0.5400055912	 1.9617397686	-0.8725879488	 0.117664
H	-0.5232273381	 1.9555364293	 0.8951912433	 0.12033
H	 0.5030806121	-0.3354967094	 0.9033738597	 0.117115
H	-1.023592648	-0.3513004439	 0.040752837	 0.117107
H	 0.2127567271	-0.1693205644	-2.1478353646	 0.136618
H	 1.7369899501	-0.1535297089	-1.2865914489	 0.136628
H	 2.4814842871	-4.9682442521	-2.5089155505	 0.14418
H	 1.3934417343	-6.3824959869	-2.3463835703	 0.140923
H	 0.9485423312	-4.9835869614	-3.3737997154	 0.144163
