18
gdb 49631	3.5662	1.5346	1.32832	2.5563	75.04	-0.236	-0.0279	0.2081	981.0758	0.14976	-401.896813	-401.890023	-401.889079	-401.928137	27.311	
O	-0.7135421376	 0.9015006406	-0.5689728357	-0.243116
C	 0.1241022482	 1.0528358554	 0.2843812694	 0.123172
C	 1.2987526606	 1.9969697685	 0.2169841861	-0.068806
C	 1.3570546674	 3.0056554413	-0.9419359754	-0.081148
C	 0.1260087732	 3.8774758609	-0.6217974311	-0.172253
N	 0.8728832023	 4.3569582257	 0.5898032029	-0.142759
C	 2.1691854839	 4.1510141563	-0.19797326	 0.000707
C	 2.8305482253	 3.6291890771	 1.0783908712	-0.2409
C	 1.3985186878	 3.1030671966	 1.3188189175	-0.03315
H	 0.0997387814	 0.4409158964	 1.2174179325	 0.076483
H	 2.1850774072	 1.3503725267	 0.2820645364	 0.095254
H	 1.594554358	 2.6374512754	-1.9395583566	 0.074422
H	 0.0070324555	 4.7262971569	-1.3011886686	 0.108067
H	-0.8395867818	 3.3998640367	-0.4528133056	 0.123867
H	 2.5471763571	 4.9843118405	-0.7915657571	 0.082453
H	 3.649970872	 2.9091121265	 1.0278589367	 0.097976
H	 3.0824219013	 4.4601473094	 1.739931721	 0.118801
H	 0.9936387181	 2.8984584791	 2.3094710363	 0.080931
