22
gdb 76406	2.7809	1.13855	1.01546	1.8319	82.94	-0.2293	0.0529	0.2822	1313.0653	0.192828	-404.308291	-404.298128	-404.297184	-404.343121	37.834	
C	-0.2095243136	 1.0038624831	-1.7957547939	-0.434048
C	-0.022313301	-0.2588674857	-0.9812830609	-0.087349
C	 1.3446989067	-0.7441432224	-0.5201313615	-0.058577
C	 2.6270875548	-0.0028686652	-0.8292979409	-0.41101
C	 0.3495127362	-0.210625514	 0.4880541969	 0.331453
O	 0.6493047907	 1.0430161921	 1.0550717369	-0.466853
C	-0.2902485196	-1.168321364	 1.4538054254	-0.020979
C	 0.1025221507	-1.1753396104	 2.8825497404	-0.246019
N	-1.2335270933	-0.6891081482	 2.4764099009	-0.333947
H	 0.4733083254	 1.7998549538	-1.4890464115	 0.123678
H	-0.0318450787	 0.8124423929	-2.8592592857	 0.125853
H	-1.2337683534	 1.3841512006	-1.7020246686	 0.117054
H	-0.7233273228	-1.0489153925	-1.241604925	 0.086705
H	 1.4558645281	-1.8260705626	-0.509165954	 0.084222
H	 2.5287520986	 1.0681888069	-0.6451485223	 0.129693
H	 3.4401688201	-0.3676860845	-0.1929517617	 0.119866
H	 2.9296743939	-0.1504731726	-1.8717987051	 0.113076
H	-0.0579048652	 1.65541012	 0.8280339076	 0.291628
H	-0.5880535931	-2.1098847923	 0.9960451585	 0.08465
H	 0.1015464272	-2.1044438714	 3.4453378103	 0.112114
H	 0.8351229798	-0.4394785332	 3.1997186266	 0.1222
H	-1.2058810616	 0.3288719896	 2.4854584475	 0.21659
