17
gdb 5307	4.41354	1.5396	1.18905	0.7508	70.9	-0.2006	0.038	0.2386	1001.3511	0.143467	-363.901528	-363.893756	-363.892812	-363.933737	29.544	
C	 0.1276921281	 1.4090391492	 0.8839748569	-0.398529
C	-0.1623026519	 0.3074103942	-0.1333779467	 0.005028
O	 0.8357944387	-0.723411789	-0.1050454149	-0.433379
C	-1.5313092845	-0.2898875074	 0.0244895032	 0.292708
C	-2.6913408018	 0.1437128162	 0.632884779	-0.24669
C	-3.6900431464	-0.8463455601	 0.4138328844	-0.146012
C	-3.111245884	-1.8576561651	-0.3178409693	-0.093985
N	-1.8084248455	-1.5059774086	-0.5533153536	-0.278112
H	 1.1442175583	 1.7839259064	 0.7414048653	 0.122653
H	-0.5708949927	 2.2430571412	 0.7681295901	 0.126208
H	 0.0312598511	 1.0285501697	 1.9067543656	 0.114588
H	-0.05430311	 0.7280316607	-1.1426385513	 0.101129
H	 0.7982288458	-1.1264947358	 0.7707568097	 0.277425
H	-2.8148800961	 1.0726813762	 1.1678892659	 0.08941
H	-4.712672052	-0.8193359442	 0.7575978729	 0.091565
H	-3.5102849867	-2.792327042	-0.67811466	 0.114051
H	-1.1071782503	-2.0616394314	-1.0131814773	 0.261941
