20
gdb 84849	2.59063	1.76745	1.3338	2.1029	79.33	-0.2394	0.0321	0.2715	1027.547	0.173265	-403.151292	-403.143681	-403.142737	-403.183008	30.769	
C	-0.8873295852	 1.2914439707	 0.1093558065	-0.384868
C	 0.0519329379	 0.0856599695	-0.0433832856	 0.041404
N	 0.8514213764	 0.2897700442	-1.2431475982	-0.268727
C	 2.1037099036	 0.2411999443	-1.3815803169	 0.114199
O	 3.1416036791	-0.0082338021	-0.5391290751	-0.234587
C	 2.9094929785	-0.2830268364	 0.8409615141	 0.129082
C	 1.8328546677	-1.3667616319	 1.0919548335	-0.266972
C	 0.7978611665	-0.2203922475	 1.2608279258	-0.015539
C	 1.9848929374	 0.7481092899	 1.5320154832	-0.255581
H	-0.3240832542	 2.1981094138	 0.3535764206	 0.116686
H	-1.4202108177	 1.4704623678	-0.8271136788	 0.127567
H	-1.6180370167	 1.117087366	 0.9055454722	 0.106742
H	-0.5782974072	-0.7909991646	-0.2606000691	 0.087189
H	 2.5290533477	 0.4268928382	-2.3685608733	 0.118353
H	 3.905913856	-0.4411523731	 1.2558887598	 0.086441
H	 1.6686120331	-2.0958226188	 0.2943411957	 0.111473
H	 2.0255201912	-1.8967970837	 2.0284465603	 0.103626
H	 0.0721493499	-0.3386505029	 2.0705090264	 0.065778
H	 2.2180293965	 0.8324441152	 2.596580909	 0.104537
H	 1.9526456293	 1.7487501515	 1.0947944899	 0.113197
