18
gdb 62239	3.54851	0.86825	0.74905	6.3715	73.58	-0.249	0.0028	0.2518	1468.6835	0.148181	-435.295827	-435.286105	-435.285161	-435.331208	34.464	
N	 0.3965531791	 1.4240425312	-0.9613021139	-0.517098
C	 0.0783994179	 0.1386682629	-0.3537373562	-0.127931
C	 0.4278512349	-1.15484962	-1.1407811397	-0.195043
C	-0.2983034363	-1.3044467883	-2.4918572044	-0.188363
N	 0.3658106944	-0.681637294	-3.6314169007	-0.256912
C	-0.0251704445	 0.4928429611	-4.1811888685	 0.147403
O	-0.894709448	 1.2179068354	-3.7331004736	-0.324988
C	 0.7221247347	 0.056248377	 0.9717769008	 0.292798
N	 1.2491002392	-0.0436633934	 1.995138982	-0.321884
H	 1.3747600549	 1.4619291772	-1.2298975951	 0.228249
H	-0.167506642	 1.5636755374	-1.7966721088	 0.274718
H	-1.0054051377	 0.1337035782	-0.1750491937	 0.13739
H	 1.5124378065	-1.2066694614	-1.2927951407	 0.109657
H	 0.16045886	-2.0122677689	-0.5121440942	 0.123699
H	-0.404818139	-2.3699542907	-2.717654393	 0.120299
H	-1.3042929713	-0.8782775337	-2.439703199	 0.148116
H	 1.0944181329	-1.1973419801	-4.0994782395	 0.25547
H	 0.5438753244	 0.7370204401	-5.0980014618	 0.094419
