23
gdb 97914	5.27371	0.5031	0.48093	1.2494	92.44	-0.2396	0.0565	0.2961	2355.3054	0.20295	-388.271567	-388.259841	-388.258897	-388.310212	40.788	
C	-0.2277612482	 1.5804368044	 0.0904656691	-0.362469
C	 0.163306186	 0.1003873867	-0.0748414422	-0.314233
C	 0.852056401	-0.4432166623	 1.092078787	 0.129942
C	 1.4213921928	-0.8617544375	 2.0682163541	 0.005673
C	 2.099291632	-1.3965943103	 3.2444193912	-0.365517
C	 2.0713441529	-2.9413434616	 3.3296415504	 0.045243
C	 2.7964601396	-3.5966538896	 2.1506206345	-0.386423
C	 2.6604230563	-3.3892467939	 4.667436366	-0.079324
O	 2.5074861552	-4.7964154737	 4.7756103397	-0.424427
H	 0.6580198164	 2.1996925285	 0.256373826	 0.126371
H	-0.7398011502	 1.9434788838	-0.805859728	 0.111962
H	-0.8953245717	 1.7123917128	 0.9463663464	 0.12631
H	-0.7372231435	-0.493826315	-0.2774927143	 0.126
H	 0.8009535779	-0.0111264262	-0.961482817	 0.125468
H	 3.1450831917	-1.0567242796	 3.2518822108	 0.119806
H	 1.638683191	-0.9763567367	 4.1489964041	 0.119175
H	 1.021539386	-3.2600696801	 3.3166470409	 0.091826
H	 3.8485996417	-3.2860681971	 2.1211768757	 0.10239
H	 2.7683626157	-4.6841708953	 2.2437356561	 0.131076
H	 2.335598531	-3.308973712	 1.2021278561	 0.122744
H	 3.7242874785	-3.0995246261	 4.7152976848	 0.081142
H	 2.1424196407	-2.87255638	 5.4921230601	 0.080946
H	 2.9333906873	-5.0847122689	 5.5877137086	 0.28632
