18
gdb 20209	3.1989	2.69642	2.10716	1.614	69.22	-0.2385	0.0796	0.3181	735.5089	0.157877	-347.808535	-347.802585	-347.801641	-347.838453	24.595	
C	-0.0116135087	 1.5789236143	-0.1174906313	-0.238786
C	 1.4806089943	 1.9895904869	-0.0387927108	-0.201359
C	 2.1478830932	 0.8682944729	 0.7775121835	 0.089714
O	 1.8990090565	 1.0533590581	 2.1767692882	-0.273822
C	 0.6963846117	 0.3844834553	 2.5511589458	-0.095135
C	 0.3316588235	-0.5417645233	 1.4044325582	-0.068743
C	 0.0004399909	 0.0566753121	 0.0474485495	-0.045274
C	 1.4050487833	-0.410139903	 0.3620907584	-0.089106
H	-0.6039756427	 2.0694175059	 0.6633082113	 0.105435
H	-0.4601697853	 1.8615209077	-1.073748515	 0.097393
H	 1.913314577	 2.0017844039	-1.0462224808	 0.093792
H	 1.6473975227	 2.9704089378	 0.4138896849	 0.102359
H	 3.231721669	 0.8254192197	 0.6437519654	 0.076296
H	 0.8837804122	-0.1844182016	 3.4704707457	 0.09992
H	-0.09303888	 1.1195094477	 2.7694856482	 0.093614
H	-0.0928869047	-1.5101478135	 1.6441652974	 0.087778
H	-0.6402174201	-0.539031908	-0.5936877832	 0.08124
H	 1.9047759873	-1.2462930028	-0.1093173354	 0.084682
