17
gdb 99558	2.34269	1.2051	0.95354	2.3064	76.64	-0.2647	0.0255	0.2903	1278.4894	0.131228	-421.731124	-421.720795	-421.719851	-421.766546	36.862	
C	-0.7742642686	 1.002650218	 0.0490093093	-0.238581
O	 0.4473516304	 0.3212395205	-0.1617735102	-0.244958
C	 0.9755916733	-0.3164990911	 0.9885702423	-0.105866
C	 0.1324434404	-1.4225090432	 1.45431798	 0.349054
C	-0.5629392243	-2.3199208135	 1.8480762436	-0.45157
C	 2.3837552034	-0.8143010857	 0.5588751955	-0.088812
O	 2.2885129015	-1.6224437589	-0.5940323614	-0.409907
C	 3.2924983725	 0.325935477	 0.376347689	 0.335923
C	 4.0414437966	 1.2537028989	 0.2280274383	-0.450932
H	-0.660780231	 1.7991793895	 0.7988460176	 0.112911
H	-1.054133158	 1.4503773727	-0.9067256648	 0.133784
H	-1.5670894412	 0.3180292907	 0.3762940867	 0.126497
H	 1.0967129045	 0.4138971527	 1.8040926333	 0.107062
H	-1.1708023183	-3.1200156318	 2.1928811145	 0.202712
H	 2.7701261576	-1.4596385559	 1.3548305443	 0.128014
H	 1.7709852056	-1.1137271126	-1.2319294862	 0.296514
H	 4.7090541957	 2.0686521928	 0.0929828081	 0.198155
