21
gdb 104345	3.04738	1.30929	1.17016	1.4523	79.85	-0.2434	0.0236	0.267	1163.3251	0.181594	-424.230758	-424.221626	-424.220681	-424.264126	35.062	
C	-0.0888952735	 1.3679812827	 0.0467051336	-0.251766
O	-0.0630690658	-0.0414534785	-0.1117989868	-0.274495
C	 0.7077139281	-0.5438884649	-1.1684458535	 0.453941
C	 2.1858835114	-0.1380397508	-1.0571519117	-0.454451
C	 0.5203153321	-2.0675837405	-1.1263884541	-0.292256
C	 0.8378033188	-2.6999025738	-2.4544070932	-0.066281
C	 0.9202177655	-1.985306397	-3.5733024488	-0.065925
C	 0.6790902669	-0.503508078	-3.5794967797	-0.120665
O	 0.1264750896	-0.0240534168	-2.368116943	-0.288235
H	 0.8663834308	 1.7608481213	 0.4204661365	 0.104285
H	-0.3437116352	 1.8727058029	-0.8903198809	 0.129495
H	-0.8622276704	 1.5760020298	 0.7896496881	 0.124496
H	 2.5479448436	-0.3456545348	-0.04660702	 0.124295
H	 2.7979148231	-0.7056494965	-1.7623659026	 0.126697
H	 2.3163507038	 0.9258681423	-1.2692983757	 0.122477
H	 1.1490647281	-2.4934464963	-0.3358073414	 0.105738
H	-0.5184749341	-2.2653060562	-0.8368469505	 0.126063
H	 1.0031949847	-3.7736918131	-2.4719889115	 0.090138
H	 1.1726487316	-2.4444054563	-4.5251766603	 0.090262
H	 1.6142174839	 0.0301608683	-3.8288184896	 0.097653
H	-0.0440164228	-0.2368766739	-4.3602400951	 0.118533
