17
gdb 118635	2.27143	1.14473	0.94795	4.4706	66.96	-0.2687	-0.045	0.2237	1290.7996	0.131849	-496.106475	-496.096466	-496.095522	-496.142706	33.354	
C	 0.2527770054	 0.6676855375	-0.5963845248	-0.245711
O	-0.4417896934	 0.2378875976	 0.5677991603	-0.235837
C	-1.5626975413	-0.5763696616	 0.3339007173	-0.10536
C	-1.2031707981	-2.0516180721	 0.1165785211	-0.01012
O	-0.6977639116	-2.2178185528	-1.20132424	-0.188075
C	-0.5277003699	-3.4845817766	-1.6566913228	 0.188805
O	-0.0390446162	-3.7131327493	-2.7187747793	-0.269495
C	-0.1905712687	-2.5115629373	 1.1645198881	 0.169105
O	 0.7928590618	-3.1479301516	 0.9021630215	-0.232569
H	 1.0058013433	 1.383023248	-0.2590837868	 0.132869
H	 0.7422875722	-0.1617348037	-1.1163943043	 0.144682
H	-0.4296018819	 1.1699554574	-1.2970876256	 0.112415
H	-2.1875211422	-0.5075190455	 1.2317855195	 0.119881
H	-2.1552701	-0.2272107401	-0.5240003106	 0.117787
H	-2.1175421859	-2.653622091	 0.256576036	 0.11304
H	-0.9195481159	-4.2493460469	-0.9625213937	 0.086564
H	-0.4552456677	-2.230023242	 2.2056956141	 0.102017
