18
gdb 52103	4.27399	0.86806	0.83638	3.2368	74.43	-0.243	0.0208	0.2637	1402.9051	0.146975	-439.026449	-439.017858	-439.016914	-439.061131	31.055	
N	-0.4463965409	 1.128245706	 0.4147978804	-0.437706
C	-0.4655196106	-0.1276983121	 0.5318174594	 0.134895
O	-0.6051549994	-0.9065868315	-0.5587166223	-0.174221
C	-0.8075817864	-2.3085149708	-0.340874736	-0.223507
C	-2.2579923002	-2.6521780503	-0.2368036329	 0.278401
C	-3.0590731726	-2.6392863243	 1.0553208567	-0.344475
C	-2.9696456801	-3.8977634033	 0.2510903243	 0.053945
O	-3.90585696	-3.886553093	-0.8238268835	-0.283906
C	-3.238438246	-2.7320222004	-1.4068504453	-0.124811
H	-0.2981841678	 1.5594854496	 1.3247223236	 0.228804
H	-0.3548358798	-0.6983120822	 1.465398984	 0.079703
H	-0.3502467144	-2.7988346387	-1.2056774007	 0.124285
H	-0.2671507106	-2.6348992148	 0.5582586439	 0.107548
H	-2.4582821802	-2.6207426228	 1.9602419047	 0.113118
H	-4.0056584972	-2.1097862905	 1.1164646301	 0.125781
H	-2.6131481758	-4.856635935	 0.6105649091	 0.110892
H	-3.9180942451	-1.8877448154	-1.5631804075	 0.118712
H	-2.7588970028	-3.0056098604	-2.3538859581	 0.112543
