23
gdb 95369	2.29525	1.73812	1.2492	1.5688	83.77	-0.2375	0.0693	0.3067	1115.1111	0.209231	-388.320174	-388.312041	-388.311097	-388.352948	32.654	
C	-0.3179481595	 1.5448306974	-0.0382220879	-0.415642
C	 0.2185024104	 0.1164574272	-0.1314277664	 0.046846
C	 1.3280284407	-0.0752346958	-1.1857736247	-0.21781
C	 1.9622283593	-1.417334569	-0.7996143195	-0.222547
C	 2.0107895053	-1.3753674718	 0.7349149226	 0.126047
O	 3.1949685355	-0.7106877374	 1.1954702622	-0.275288
C	 2.8750617653	 0.5582948187	 1.7489321077	-0.07448
C	 1.4235733705	 0.4488873355	 2.2171310292	-0.231588
C	 0.7950725891	-0.5073589349	 1.1848311251	-0.058913
H	 0.4767584676	 2.2656000569	 0.1830466115	 0.115317
H	-0.7708135182	 1.8453160999	-0.989095028	 0.112056
H	-1.0849324081	 1.6425018952	 0.7377202809	 0.112085
H	-0.6188381701	-0.5285011556	-0.4307739056	 0.071326
H	 0.9401510137	-0.0552585951	-2.2088947941	 0.08921
H	 2.0705749684	 0.7286311766	-1.1071170392	 0.102812
H	 1.316638721	-2.2450185726	-1.1207989216	 0.088647
H	 2.955951658	-1.5843207906	-1.22213577	 0.104083
H	 2.016064408	-2.3793061145	 1.1741016885	 0.067033
H	 3.5813950503	 0.7629287767	 2.560386131	 0.101098
H	 2.9902728378	 1.3547442777	 0.9959932876	 0.086401
H	 1.3889616016	-0.0138895633	 3.2087586816	 0.102333
H	 0.9213613576	 1.4160864364	 2.2865541733	 0.100937
H	 0.0249209358	-1.1160339777	 1.6643354258	 0.070038
