20
gdb 40237	2.71329	1.68772	1.26007	1.3206	78.94	-0.2215	0.077	0.2985	1052.2735	0.172855	-403.099308	-403.091743	-403.090799	-403.131128	30.708	
C	-0.0355438157	 1.5135496813	 0.021745902	-0.316793
C	 1.2894121765	 0.7870372753	-0.0501945166	-0.298036
C	 0.000894457	 0.0124003438	 0.047222679	 0.379047
C	-0.3058167722	-0.7293487621	 1.3325898029	-0.175683
O	 0.1226570218	-2.0760439683	 1.2288573538	-0.234789
C	-0.6513517166	-2.7815635752	 0.2741262771	-0.1053
C	-0.7156736797	-2.0828820628	-1.0877290343	-0.035026
C	-1.782533199	-1.0717142938	-1.3470793022	-0.257136
N	-0.3921539289	-0.6520823129	-1.1801776662	-0.135526
H	-0.2923619733	 2.0371042752	 0.9372901775	 0.10931
H	-0.4033087517	 1.9797620643	-0.8852532159	 0.119322
H	 1.7938929356	 0.7664751555	-1.0085396131	 0.121117
H	 1.9424824595	 0.8122081075	 0.8155809061	 0.111052
H	 0.236158673	-0.2850584567	 2.1719892061	 0.108486
H	-1.3838170896	-0.6932355279	 1.5717047851	 0.083349
H	-0.177563047	-3.7604591647	 0.1662169819	 0.114956
H	-1.6683522985	-2.9422902398	 0.6699818938	 0.091618
H	-0.3403960305	-2.667764802	-1.9246880337	 0.095333
H	-2.1871203599	-0.9353560587	-2.3464314791	 0.114063
H	-2.4913118106	-0.882489348	-0.5427825641	 0.110635
