23
gdb 108197	2.99343	1.36822	1.26002	1.4323	84.3	-0.2337	0.0798	0.3136	1150.7035	0.208167	-388.317633	-388.309321	-388.308377	-388.350231	33.501	
C	-0.0070589675	 1.5466252174	-0.1101611911	-0.386124
C	-0.0561273625	 0.0184743169	 0.0001430029	-0.260885
C	-1.459952197	-0.5527383829	 0.097820419	 0.441401
C	-2.3329605627	-0.1001040238	 1.2952953069	-0.241661
C	-3.4988909688	-1.1405108584	 1.2772565078	-0.221247
C	-3.1513407816	-2.0147398706	 0.0494920397	-0.045118
C	-3.2875219256	-1.1343903994	-1.2033069357	-0.070424
O	-2.1875880908	-0.2141410817	-1.1064125892	-0.317486
C	-1.615421899	-2.0845649027	 0.1468091361	-0.267515
H	 1.0234153851	 1.8932805444	-0.2339216536	 0.10671
H	-0.5897607451	 1.8879985775	-0.969572905	 0.136256
H	-0.4131691345	 2.0279964357	 0.7852778743	 0.113004
H	 0.4290389254	-0.4266865344	-0.8765303862	 0.098827
H	 0.5114365026	-0.3130728703	 0.8786928748	 0.091213
H	-1.7710255998	-0.1321112552	 2.2344371727	 0.09186
H	-2.681861109	 0.9238049289	 1.1469928197	 0.10627
H	-3.5098588378	-1.7429335713	 2.1906096424	 0.094828
H	-4.4828429067	-0.6720761531	 1.1829845554	 0.096118
H	-3.692873026	-2.9599316105	-0.0110875868	 0.062644
H	-3.1984394942	-1.7124489624	-2.1334520376	 0.090993
H	-4.235901583	-0.5821943803	-1.2316614908	 0.091709
H	-1.1359157971	-2.5785174117	-0.7028576148	 0.096453
H	-1.2583259245	-2.5281943321	 1.0805945893	 0.092175
