17
gdb 32118	3.63342	1.1862	0.90089	2.6256	83.55	-0.1936	-0.0161	0.1776	1267.1727	0.138249	-414.247118	-414.238622	-414.237677	-414.280183	31.94	
C	 0.0735913749	 1.4076698257	 0.0992666968	-0.322929
N	-0.0618529368	-0.0140740681	-0.1173710922	-0.351243
C	-1.2515553368	-0.6851758848	-0.0533427078	 0.39207
C	-2.4979914365	-0.0310735992	-0.0006229572	-0.118156
N	-3.6327421914	-0.726267809	 0.0346674842	-0.218593
C	-3.5593810221	-2.0501230747	 0.0154495013	-0.09577
C	-2.3135225904	-2.7061358974	-0.0295426481	 0.361052
N	-2.2246837672	-4.0817380452	-0.0939613577	-0.570061
N	-1.169132176	-2.0248200493	-0.053558904	-0.399895
H	 1.1306056083	 1.6732231124	 0.0364548039	 0.129919
H	-0.4582459206	 1.9787321738	-0.670922204	 0.137044
H	-0.305008388	 1.7291514306	 1.0806421281	 0.12503
H	 0.7483553686	-0.6000500053	 0.0018208302	 0.243882
H	-2.575373144	 1.050103853	 0.0149796348	 0.093953
H	-4.4893978933	-2.6121106492	 0.0383830804	 0.08909
H	-2.9975197397	-4.6039441948	 0.2874292787	 0.25279
H	-1.315164059	-4.4496848784	 0.1414941827	 0.251819
