16
gdb 47166	2.36306	1.97736	1.16369	2.2386	69.31	-0.2536	-0.0357	0.218	1011.2604	0.125677	-437.896834	-437.889582	-437.888638	-437.928966	27.58	
O	 0.0126740538	-0.0663744298	-0.321532565	-0.30292
C	-0.0519798616	 1.0998764148	-0.0272864504	 0.379021
C	-1.3532945748	 1.8077445373	 0.3812355514	-0.316103
C	-1.1971551305	 3.2846948807	 0.8270085135	-0.184217
N	-0.0422389112	 3.4937951484	 1.7287625589	-0.302444
C	 0.9651803589	 2.9154272047	 1.2569772776	 0.452862
O	 2.2027783925	 2.6816534142	 1.7875507006	-0.269749
C	 2.4790919533	 1.6724538668	 0.7452848171	-0.117524
C	 1.1490100947	 2.0309584776	 0.0547760405	-0.278983
H	-2.0671116804	 1.7216508059	-0.4454582075	 0.137414
H	-1.7676525199	 1.2139973515	 1.2044737109	 0.151967
H	-1.1096962387	 3.9396985476	-0.0513445576	 0.111159
H	-2.1020204604	 3.5950559498	 1.3542382307	 0.122775
H	 3.3960404569	 1.9092940488	 0.2045481562	 0.133404
H	 2.5263691997	 0.6726504874	 1.1813617685	 0.14621
H	 1.2537303179	 2.5782856543	-0.8880619353	 0.137129
