18
gdb 99529	2.58032	1.05566	0.89008	4.1569	76.16	-0.245	-0.0037	0.2413	1387.9382	0.145457	-435.265376	-435.254888	-435.253944	-435.30139	36.34	
C	-0.1204768309	 1.3767210041	 0.1057189035	-0.24928
O	 0.2956994188	 0.0307982137	-0.0736006997	-0.246582
C	 0.8106835663	-0.5801128497	 1.0900073314	-0.067957
C	-0.2379980574	-0.7135076433	 2.1297844267	 0.279923
N	-1.070002409	-0.7880130562	 2.928095088	-0.32822
C	 1.3664513866	-1.9521468943	 0.712074771	 0.339263
N	 0.5757145217	-2.6420184352	-0.1732844917	-0.544321
N	 2.4359532912	-2.3273550162	 1.2902757159	-0.273691
C	 2.9385389627	-3.6538120669	 0.9765872303	-0.343288
H	 0.7138992249	 2.0050918455	 0.4466606018	 0.122395
H	-0.461497708	 1.729523215	-0.86896431	 0.140201
H	-0.9429324154	 1.4511412635	 0.8282750364	 0.142096
H	 1.6433973498	-0.0088515867	 1.5189012103	 0.139998
H	-0.0404844733	-2.0816648187	-0.7424750558	 0.270445
H	 0.9731387231	-3.447938689	-0.6279094069	 0.26033
H	 2.2273796219	-4.4442836355	 1.2601006417	 0.122245
H	 3.1596904275	-3.7772365363	-0.0966506724	 0.106451
H	 3.8680813895	-3.828388584	 1.5229494094	 0.129992
