19
gdb 125293	2.9255	1.41699	1.03992	2.4132	83.51	-0.225	0.0239	0.2489	1182.5335	0.160862	-382.083145	-382.074838	-382.073893	-382.116834	31.27	
C	-0.2258533857	 1.5124406716	 0.0538456257	-0.507339
C	-0.0236731357	 0.0340696195	-0.0284845494	 0.372666
C	-0.0106099379	-0.8097057916	-1.1258664116	-0.31946
C	 0.2234398162	-2.0910887303	-0.5966028498	 0.001353
N	 0.3481393349	-2.0611287475	 0.7271718865	-0.279804
N	 0.1952100647	-0.7601576211	 1.0574068741	-0.021944
C	 0.2718458821	-0.3582132438	 2.433997654	 0.066932
C	-0.2616697769	-1.2648285891	 3.5088075683	-0.276514
C	 1.227752226	-1.053116601	 3.3641298148	-0.276503
H	 0.6405219074	 2.0263796767	 0.4863132545	 0.136795
H	-0.3812446946	 1.9150716049	-0.9492470403	 0.137904
H	-1.1018454153	 1.7786484865	 0.6567795229	 0.136786
H	-0.1515673292	-0.5248519461	-2.1562548067	 0.097445
H	 0.3067314683	-3.0333565336	-1.1183441264	 0.107978
H	 0.1309322873	 0.7089110299	 2.5436686957	 0.107087
H	-0.780872979	-0.8115794248	 4.345918237	 0.113714
H	-0.6526076033	-2.2179257122	 3.1743684861	 0.144595
H	 1.7964100746	-1.8697342793	 2.9365619835	 0.144598
H	 1.7496398763	-0.4517085587	 4.100140721	 0.113708
