18
gdb 72518	2.21732	1.89087	1.65859	1.5313	70.99	-0.2153	-0.0224	0.1929	941.8274	0.148983	-439.090195	-439.082346	-439.081402	-439.122295	30.347	
C	 0.0380446567	 1.4997171745	 0.0770088529	-0.475808
C	 0.0156742513	-0.0003378137	-0.0358743781	 0.290755
C	 0.6430995904	-0.6555635869	-1.2811516846	-0.211278
N	 0.0992534171	-2.0623488954	-1.2565083499	-0.310505
C	-0.7404447778	-2.1331244733	-0.0354517999	-0.155032
C	 0.2028998174	-2.0002415816	 1.1600219514	-0.064277
O	 0.6210326603	-0.6091192869	 1.1232135385	-0.322179
C	-1.3495042851	-0.7240840031	-0.0334466709	 0.401759
O	-2.4724774964	-0.3098297982	-0.0794411173	-0.329047
H	 1.0636263531	 1.8794147901	 0.0555668929	 0.12785
H	-0.5203730418	 1.9470762007	-0.7499000671	 0.129605
H	-0.4271385985	 1.8120637004	 1.0153064532	 0.138251
H	 0.3595698939	-0.1315989199	-2.2001845604	 0.108531
H	 1.7352347706	-0.6646595131	-1.2048668008	 0.11778
H	-0.4858662385	-2.2149822831	-2.0714052346	 0.231346
H	-1.4157440971	-2.9853592574	-0.0287654647	 0.095225
H	-0.3004828606	-2.1990524395	 2.1132241649	 0.112176
H	 1.0768924251	-2.6526665836	 1.0604901846	 0.114849
