23
gdb 61388	2.30167	1.06928	0.88945	4.5241	85.64	-0.2591	0.0244	0.2835	1441.8085	0.203774	-384.486629	-384.475501	-384.474557	-384.523104	41.149	
C	-0.1162192744	 1.5961438705	 0.0453380666	-0.405801
C	 0.0301280789	 0.0634489579	 0.0200229938	 0.254704
C	 0.7652352611	-0.4068488811	 1.2898274452	-0.408717
C	-1.3780595682	-0.5645360903	 0.0018028391	-0.401275
C	 0.7603894219	-0.4361759751	-1.2548655228	-0.206774
C	 2.2583924659	-0.0875725736	-1.4636182378	-0.14354
N	 2.9274403201	-0.8853972631	-2.5029521407	-0.501186
C	 2.4632902406	 1.330224883	-1.8048891397	 0.310257
N	 2.6135615963	 2.4379735697	-2.0971181077	-0.330265
H	 0.8470099898	 2.1059365069	 0.1190790694	 0.13435
H	-0.615373948	 1.9633288038	-0.8574791507	 0.115823
H	-0.7195059442	 1.9005402782	 0.9074564711	 0.107671
H	 0.1838025049	-0.1536000961	 2.182393017	 0.117088
H	 0.9129603119	-1.4930803372	 1.2886138788	 0.106189
H	 1.7450354225	 0.0687932848	 1.4012367796	 0.117307
H	-1.9350569463	-0.262012586	-0.891732355	 0.112704
H	-1.3292387965	-1.6591250132	 0.0128077582	 0.107373
H	-1.9545230971	-0.2467459063	 0.8768977473	 0.113297
H	 0.7197501981	-1.5334199135	-1.2539916191	 0.090812
H	 0.2062228637	-0.1078016718	-2.1434356792	 0.103499
H	 2.8023578805	-0.2711477975	-0.5300256634	 0.132462
H	 2.8555324083	-1.8686759457	-2.2571259422	 0.235163
H	 2.43952175	-0.7709929141	-3.3876245978	 0.238856
