21
gdb 37166	3.26833	1.69243	1.54663	0.1382	85.31	-0.2439	0.0928	0.3367	966.0892	0.186373	-349.874004	-349.867565	-349.866621	-349.904185	29.117	
C	 0.0229527816	 1.536650982	 0.0998187161	-0.315395
C	 1.3496344537	 0.834091068	-0.0817123271	-0.020462
C	 0.0420182089	 0.0297164243	 0.0128954576	-0.151874
C	 0.1235492011	-0.6025805382	-1.3721909818	 0.353035
C	-0.7606124761	-1.2128887983	-2.4698752373	-0.337685
C	 0.1506307014	-0.4533471129	-3.5057840579	-0.283909
C	 0.63801798	 0.4945022751	-2.3485976058	 0.001499
C	 1.9097326209	 0.4052148164	-1.4831693682	-0.080187
C	 1.6271911014	-1.1193996411	-1.3617038147	-0.246146
H	-0.1440286439	 1.9414047301	 1.0939445434	 0.106018
H	-0.4233297414	 2.1396228839	-0.6815911725	 0.111798
H	 2.0554995354	 0.8451240281	 0.741587209	 0.085053
H	-0.1899434783	-0.5664757685	 0.8887877738	 0.081973
H	-0.8142184931	-2.3034513027	-2.5357620931	 0.094011
H	-1.7776381203	-0.8085422819	-2.4659932951	 0.103658
H	 0.9120616757	-1.0815181628	-3.969845253	 0.10926
H	-0.3826187129	 0.0738266014	-4.2991745033	 0.097733
H	 0.1377695933	 1.4603963415	-2.4130488353	 0.065359
H	 2.8857701545	 0.814416409	-1.7539682655	 0.050978
H	 1.9596737399	-1.6151102165	-0.4461202642	 0.084318
H	 1.9161550183	-1.7131302169	-2.2302295852	 0.090967
