19
gdb 55826	3.48834	1.08249	1.04527	3.5459	75.59	-0.2351	0.0553	0.2904	1233.4517	0.160402	-419.214123	-419.205254	-419.204309	-419.248708	33.175	
N	-0.3484770415	 1.3231379547	 0.104650764	-0.568118
C	-0.3625942419	-0.0416568589	 0.391348132	 0.448969
O	 0.2319313208	-0.517011966	 1.3394307762	-0.390944
N	-1.1542110362	-0.782855349	-0.4551984019	-0.34607
C	-1.2304428411	-2.2086349568	-0.3689279094	 0.051048
C	-1.8812646691	-2.9264683699	 0.7757708622	-0.039916
C	-3.0696353176	-2.132354328	 1.3232229374	-0.223567
C	-3.7217459349	-2.1539920234	-0.096243094	-0.227747
C	-2.5158611066	-2.9423885943	-0.6266538122	-0.120469
H	 0.3888807694	 1.8023145241	 0.5991318987	 0.258851
H	-0.4370271444	 1.6057303796	-0.8601094541	 0.241094
H	-1.6184866986	-0.3289023728	-1.2244802669	 0.238022
H	-0.3521113245	-2.7326676721	-0.7433951375	 0.097265
H	-1.3468654837	-3.7070094936	 1.3026044872	 0.089105
H	-3.6538722101	-2.6978957913	 2.0516322079	 0.102659
H	-2.827467277	-1.1542646981	 1.7462008514	 0.115683
H	-4.6414903688	-2.7420316173	-0.1193934702	 0.104978
H	-3.919785325	-1.1852222537	-0.5664794268	 0.084557
H	-2.563274719	-3.7393963134	-1.3598924939	 0.084599
