18
gdb 75035	2.27737	1.67247	1.03764	3.1834	83.88	-0.2099	-0.0203	0.1896	1154.5715	0.149273	-402.011195	-402.003034	-402.00209	-402.043782	31.466	
C	-0.1209088561	 1.5361827165	 0.0355395741	-0.478832
C	 0.0446029848	 0.0427395744	-0.0672099312	 0.325604
C	 0.0090314598	-0.6047725762	-1.2553568709	-0.167341
C	 0.0649419056	-2.0370846889	-1.4507747517	-0.058018
C	 0.7335075461	-2.8913270388	-0.6606964138	-0.114636
C	 1.6243949751	-2.4206585066	 0.4575446485	-0.360294
C	 0.8144284544	-1.7503805929	 1.5578630905	 0.381217
O	 0.7419375737	-2.1495486726	 2.7000419093	-0.354241
N	 0.1587182624	-0.5868164407	 1.1738397121	-0.367528
H	 0.7640665982	 2.0031284887	 0.4836793195	 0.138085
H	-0.2882726531	 1.9802836122	-0.9467251909	 0.137288
H	-0.977464645	 1.7947678806	 0.6717117867	 0.131569
H	-0.1473600199	 0.0136534656	-2.1337121461	 0.088722
H	-0.4841393223	-2.4285651586	-2.3043715068	 0.093523
H	 0.653343765	-3.9611313914	-0.8247412685	 0.100941
H	 2.1725409942	-3.2418348524	 0.9186374458	 0.128467
H	 2.3452666092	-1.6861066963	 0.0724826517	 0.126018
H	-0.2200702322	-0.0910522326	 1.9699185115	 0.249457
