21
gdb 113166	3.08645	0.97371	0.86382	2.4458	80.98	-0.2354	-0.0109	0.2245	1453.7005	0.17908	-424.241636	-424.231139	-424.230195	-424.277338	38.241	
C	 0.0789232062	 1.4822260601	-0.1929974329	-0.375023
C	-0.0346987509	 0.0606859262	 0.3706752934	-0.198713
C	-1.4130166115	-0.528875361	 0.1637034843	-0.001609
C	-1.7932561487	-1.1838952937	-1.1305648228	-0.33756
C	-1.6097799963	-2.03992879	 0.113053473	 0.223277
O	-0.4544346026	-2.8234964136	 0.2352918858	-0.459465
C	-2.852457975	-2.5665266165	 0.7740506761	 0.33789
C	-2.7247258285	-3.8718825294	 1.5332250914	-0.47863
O	-3.8998785976	-1.9568057968	 0.7024041123	-0.324974
H	 1.0793690399	 1.8924612919	-0.0240687191	 0.112084
H	-0.1145187771	 1.4962924778	-1.2707177109	 0.116898
H	-0.6428708497	 2.1563943605	 0.2806106434	 0.117012
H	 0.7107261072	-0.5921753808	-0.0932408817	 0.106956
H	 0.1951286674	 0.0713582174	 1.4434355576	 0.101625
H	-2.226727126	-0.0134975227	 0.6670357179	 0.110136
H	-2.8074511686	-1.0701058444	-1.4954214534	 0.135526
H	-1.0193615913	-1.286814728	-1.885430254	 0.111029
H	-0.4463458221	-3.4676645005	-0.4802129126	 0.287666
H	-1.9124201382	-3.8137481097	 2.2637114161	 0.150384
H	-3.6714804727	-4.0967986281	 2.0249800022	 0.137227
H	-2.4645652941	-4.6876694387	 0.8488872538	 0.128266
