17
gdb 82277	3.23284	1.43089	1.10448	3.6076	77.46	-0.2529	-0.0656	0.1873	1081.0494	0.136752	-421.834863	-421.82722	-421.826276	-421.866951	29.713	
O	 0.0537990747	 1.3886038105	 0.1436173922	-0.439754
C	 0.0072640342	-0.0245220266	 0.0566242511	 0.01189
C	-1.4284864192	-0.5315264659	-0.0530331633	-0.051336
C	-2.2257896428	-0.0502951619	-1.2264378133	-0.266194
C	-1.515866046	-1.3997428169	-1.3030755912	-0.084015
C	-0.1714249213	-1.34337038	-1.9209572661	-0.162127
C	 0.6615840546	-0.555351786	-1.218793313	 0.194515
C	 2.0036390117	-0.1543406603	-1.6063243687	 0.072866
O	 2.6515524822	 0.681505892	-0.9992890324	-0.300459
H	 0.9880477021	 1.6225819115	 0.0468493502	 0.29703
H	 0.4968552935	-0.473512819	 0.9362452019	 0.078303
H	-1.9525476529	-0.8133310404	 0.8512636116	 0.096096
H	-3.3061066234	-0.0776318097	-1.1367627577	 0.119997
H	-1.8315277685	 0.7692419931	-1.8156650139	 0.134663
H	-2.1128211798	-2.3020859392	-1.3555282662	 0.099945
H	 0.0797610917	-1.8404316071	-2.8535537914	 0.116208
H	 2.4219666793	-0.6530697642	-2.5066549097	 0.082373
