19
gdb 120802	5.17717	0.62945	0.597	4.4571	78.16	-0.2646	0.0328	0.2975	1844.5316	0.158255	-419.179175	-419.169271	-419.168327	-419.215498	34.146	
C	-0.3939107498	 1.3230977293	-0.0340835738	-0.228345
O	-0.2381379773	-0.073982068	-0.114596361	-0.234086
C	 0.7892055773	-0.4610357104	-0.999131486	-0.056082
C	 0.8470620563	-1.9668105844	-1.0011436724	-0.038543
N	 0.0664624607	-2.6767677276	-2.0242000707	-0.319991
C	 1.5264304309	-2.7833579795	-2.0425217971	-0.022366
C	 2.239709806	-2.182635652	-3.2473451209	-0.3448
C	 2.3628687753	-3.1481957427	-4.3401265501	 0.260881
N	 2.4639989914	-3.9270677155	-5.1874656084	-0.302377
H	 0.5236421864	 1.8168736403	 0.324284558	 0.103772
H	-0.6608055848	 1.7610891151	-1.0086379317	 0.108399
H	-1.2012441857	 1.5208062662	 0.6747637256	 0.13122
H	 0.5903398034	-0.0839623143	-2.0142208444	 0.093582
H	 1.7575785671	-0.0438500173	-0.6684558971	 0.085156
H	 0.8578117984	-2.3843635515	 0.0044390621	 0.100885
H	-0.3632428778	-3.5178912876	-1.6512348218	 0.242999
H	 1.9737897465	-3.7143499034	-1.6997356976	 0.106395
H	 1.6901295313	-1.3109131999	-3.6122225918	 0.160786
H	 3.2455591645	-1.8480715668	-2.9669013509	 0.152518
