17
gdb 44394	3.68303	1.59421	1.42661	4.7307	71.25	-0.2403	0.0177	0.258	928.6688	0.139719	-417.979693	-417.973308	-417.972364	-418.010332	26.484	
O	-0.0603156495	-0.012113062	-0.0579373099	-0.354112
C	-0.0291675254	 1.186558039	-0.0174103167	 0.396784
N	-1.0201500179	 2.1494015862	-0.0541850461	-0.327629
C	-0.1364972957	 3.3043911257	 0.1116088227	 0.022123
C	 0.1287716803	 3.8805716259	 1.5183490297	-0.072272
C	 1.6776882635	 4.0355924979	 1.4142089106	-0.168604
N	 1.7171203621	 2.5080054102	 1.4108787204	-0.128088
C	 0.5125363685	 2.6234042089	 2.3303713379	-0.194063
C	 1.065420862	 2.2901436739	 0.0927076378	-0.146453
H	-2.0229918328	 2.0527840588	 0.0157511418	 0.248817
H	-0.2230683168	 4.0573593227	-0.6740761551	 0.08954
H	-0.5303103505	 4.6644810849	 1.8951940233	 0.06861
H	 2.1051238142	 4.5092488603	 0.525172145	 0.106313
H	 2.1514912485	 4.4259212509	 2.3171726839	 0.115706
H	 0.8532802273	 2.8523867505	 3.3413653691	 0.113545
H	-0.1523090859	 1.7585058328	 2.3507889174	 0.124864
H	 1.788110068	 2.3343626336	-0.7212494517	 0.104919
