19
gdb 126591	5.50293	0.6695	0.64809	1.9908	77.56	-0.2834	-0.0233	0.2601	1767.8407	0.160607	-415.388905	-415.379876	-415.378932	-415.424614	31.642	
C	-0.000106203	 1.5591953622	 0.0920031798	-0.383092
C	 0.0079626352	 0.0309344719	 0.0016872235	-0.164873
C	 0.7045382757	-0.4883314587	-1.2594674608	-0.161725
C	 0.7093457337	-2.0264047562	-1.346974111	-0.299183
C	 1.4151952895	-2.5304103894	-2.560511237	 0.385833
N	 0.8045597301	-2.9930715696	-3.6484996293	-0.263205
N	 1.8429270236	-3.2762542322	-4.4249749564	-0.069509
N	 3.0252438488	-3.0214545414	-3.8866162894	-0.101187
N	 2.7705028319	-2.5437809029	-2.6973839	-0.251021
H	 1.0193439235	 1.9602304958	 0.1000518423	 0.117574
H	-0.5228869689	 2.0036618278	-0.7621090462	 0.115303
H	-0.5001041813	 1.9017661125	 1.0031933635	 0.113209
H	 0.5050020447	-0.3869748937	 0.8871579437	 0.098391
H	-1.0237053866	-0.3444832317	 0.0274178771	 0.096355
H	 0.2097694116	-0.0805849376	-2.1503727551	 0.102754
H	 1.7401170758	-0.1282494073	-1.2881918196	 0.117079
H	 1.2038150717	-2.4385847872	-0.4603745853	 0.125467
H	-0.3168650092	-2.4058745591	-1.3593095326	 0.122028
H	 1.7450642832	-3.6661656534	-5.3503577371	 0.299803
