21
gdb 95482	2.07473	1.51965	0.92077	3.7022	86.37	-0.2362	-0.0463	0.19	1295.9474	0.183675	-387.129761	-387.120966	-387.120022	-387.163603	33.6	
C	-0.3159428346	 1.4622969127	 0.0254078534	-0.392925
C	 0.0255417152	-0.0344827343	-0.0272379792	 0.007898
C	 0.785890265	-0.3653632342	-1.3218184517	-0.195478
C	 0.7230742907	-1.8271251192	-1.7693837488	-0.267079
C	 1.1739867855	-2.8991177826	-0.8214679563	-0.039467
C	 1.3165361543	-2.9171208047	 0.510714646	-0.138435
C	 1.0666286568	-1.8864980538	 1.5475003072	 0.346133
O	 1.0945769299	-2.2360606092	 2.7147251774	-0.325362
C	 0.8259236833	-0.415936384	 1.2279667962	-0.294667
H	 0.5956331628	 2.0716178574	 0.004110844	 0.115539
H	-0.9331254702	 1.7564373589	-0.8296580213	 0.111344
H	-0.8622534255	 1.7146523363	 0.9395964294	 0.116908
H	-0.9203359989	-0.5951874983	-0.0253336293	 0.07766
H	 0.3822743205	 0.2421817939	-2.1405565108	 0.095727
H	 1.8349555219	-0.0608985906	-1.2076419912	 0.099407
H	-0.3108637682	-2.0724542711	-2.0619427835	 0.123575
H	 1.3018861614	-1.938465549	-2.6957730761	 0.112388
H	 1.3774794526	-3.8453307044	-1.3233835576	 0.10453
H	 1.6157726866	-3.8540285221	 0.9743551503	 0.103865
H	 1.8201373775	 0.0523771738	 1.1619559228	 0.119209
H	 0.3569177032	-0.0013383456	 2.1250357891	 0.119232
