23
gdb 111301	2.07729	1.51421	1.1838	1.1873	85.04	-0.2493	0.0748	0.3241	1195.5977	0.204787	-388.261188	-388.251522	-388.250578	-388.294933	37.673	
C	-0.3363117038	 1.5668533002	 0.1360304075	-0.450088
C	-0.0937514722	 0.058312777	 0.0908962196	 0.326633
C	-1.3295678263	-0.6905724734	 0.5939029387	-0.444014
C	 0.4076780601	-0.5346406013	-1.2448935184	-0.067544
C	 1.7617876876	-0.0142781061	-1.6279062919	-0.306577
C	 1.6669029861	-1.0778450729	-0.5667052614	-0.075362
C	 1.218900625	-0.5025811698	 0.7813943463	-0.020007
C	 2.1644629787	 0.4250453581	 1.5226250064	-0.103583
O	 1.5127773496	 0.8358917225	 2.7210610501	-0.423333
H	 0.4897015845	 2.1363948619	-0.2992711502	 0.102713
H	-1.2418226979	 1.8262717957	-0.424409014	 0.10392
H	-0.4615554442	 1.9023553886	 1.1697854289	 0.127032
H	-2.2095512298	-0.4477038621	-0.0137975373	 0.104867
H	-1.1814329991	-1.7748739429	 0.5474214348	 0.109176
H	-1.5506546664	-0.4222146139	 1.6325850509	 0.12033
H	-0.2330434106	-1.0309724058	-1.9656601171	 0.076673
H	 2.1320391815	-0.3638914852	-2.5869192262	 0.108566
H	 2.0680991568	 1.0010070668	-1.3920930879	 0.103058
H	 2.1409119911	-2.0437408984	-0.6968714671	 0.08036
H	 0.9419023589	-1.3021316145	 1.4755657437	 0.075828
H	 3.0991095998	-0.1165541094	 1.7443331184	 0.083965
H	 2.433276297	 1.2936925472	 0.9043928711	 0.081866
H	 2.0772063336	 1.4735367178	 3.167686535	 0.285521
