15
gdb 124668	3.54606	1.06257	0.9949	1.6627	67.76	-0.2682	-0.053	0.2152	1204.1636	0.111723	-453.955212	-453.946846	-453.945902	-453.989799	28.681	
C	-0.009174601	 1.491153796	-0.0377557587	-0.413381
C	-0.0056741477	-0.0537045076	 0.0483743638	-0.183115
C	 0.6940405063	-0.6005048652	-1.2028821244	 0.157739
O	 0.1020013823	-1.0118753991	-2.1617463267	-0.231067
C	 0.6669920883	-0.5430656814	 1.286249302	 0.423324
N	 0.2043744498	-1.3505157876	 2.195121951	-0.315255
C	 1.2688670413	-1.4406968911	 3.0584035338	 0.03757
N	 2.3231752037	-0.750487583	 2.7234374074	-0.108317
O	 1.9246311518	-0.139565414	 1.5253569649	-0.205037
H	 1.0094105099	 1.8864809668	-0.0789652064	 0.147642
H	-0.5458652801	 1.8078562043	-0.9351233998	 0.146073
H	-0.5062980205	 1.9179099169	 0.8369482028	 0.145147
H	-1.027121131	-0.4381346319	 0.0509655106	 0.139627
H	 1.8042756715	-0.5467418215	-1.1724320878	 0.105189
H	 1.2546748156	-2.0372417116	 3.9589437175	 0.15386
