17
gdb 48723	3.69523	1.35296	1.15973	3.16	72.3	-0.2278	-0.0318	0.196	1056.3436	0.137327	-417.96237	-417.955113	-417.954169	-417.994081	28.467	
O	-0.5968566205	 0.8042676178	 0.7186274714	-0.264547
C	 0.1270738012	 1.0352145036	-0.217910893	 0.12268
C	 1.3508576396	 1.8781581308	-0.146611872	 0.19958
C	 1.847925474	 2.3963222914	 1.1995850016	-0.270327
N	 2.3267849781	 3.7904343799	 1.0342709594	-0.088009
C	 3.5506916226	 3.9653269748	 0.2486445911	-0.265995
C	 2.2249417587	 4.1258754499	-0.4034385457	-0.017578
C	 1.6146469331	 2.9693682033	-1.1641588228	-0.085522
N	 2.2899737212	 1.6886046918	-1.2705933097	-0.36398
H	-0.0694916866	 0.634170742	-1.2363262111	 0.087848
H	 1.005250219	 2.3960720526	 1.8960513861	 0.145989
H	 2.6338557616	 1.7673132618	 1.6328875609	 0.115575
H	 4.1334728473	 4.8458963537	 0.5070090166	 0.127243
H	 4.1626101075	 3.0973784643	 0.0104684239	 0.107542
H	 1.8519492035	 5.1147401358	-0.6546318863	 0.101688
H	 0.9244940519	 3.1997666873	-1.9700234948	 0.110407
H	 3.2553633379	 1.7251572091	-0.9579055456	 0.237405
