21
gdb 113394	2.92555	0.91504	0.79216	2.8438	75.91	-0.2471	0.0564	0.3035	1487.6317	0.180981	-461.3279	-461.317478	-461.316534	-461.363463	37.934	
O	-0.2492782522	 1.3694057096	-0.6043008209	-0.418702
C	-0.0325438248	 0.1106422033	 0.0217888087	-0.110077
C	-1.3592379942	-0.6050584067	 0.0527828227	-0.047454
C	-1.8169203084	-1.4716300657	-1.0906339236	-0.304234
C	-1.5038059421	-2.1027833675	 0.2460147448	 0.297156
C	-0.2939662023	-3.0220505626	 0.3538058861	-0.128464
O	-0.4861251002	-4.2601029251	-0.3035876827	-0.429797
C	-2.672681931	-2.5402331365	 1.1001483491	-0.155759
O	-3.0802663742	-3.8507762267	 0.6854283145	-0.422659
H	 0.5818544969	 1.8534496307	-0.5937916605	 0.285629
H	 0.713604822	-0.478507821	-0.5306816312	 0.089317
H	 0.3480862935	 0.2435993686	 1.0479571377	 0.08563
H	-2.1289416793	-0.0024131182	 0.5302019337	 0.086922
H	-2.8520837568	-1.4135493824	-1.4090705553	 0.113065
H	-1.1138644879	-1.6568642309	-1.8961070032	 0.121809
H	 0.585777666	-2.565315618	-0.108391328	 0.096195
H	-0.0533213452	-3.1705975372	 1.4220794425	 0.073253
H	-1.370790601	-4.5588693435	-0.0535097113	 0.288994
H	-2.3736029472	-2.5556813585	 2.1597326491	 0.093487
H	-3.5071026705	-1.8313467207	 0.9964847949	 0.092361
H	-3.6595796312	-4.2202559307	 1.3582573929	 0.293329
