17
gdb 26864	3.04738	1.38181	0.95722	5.6009	82.22	-0.1894	-0.018	0.1714	1188.0433	0.137633	-418.089514	-418.081112	-418.080168	-418.122195	32.235	
C	-0.0055734055	 1.5574402955	 0.0310414868	-0.524183
C	-0.0000771962	 0.0507565788	 0.0138797822	 0.187624
C	-1.1763591549	-0.6710749921	 0.0374476007	 0.365762
N	-2.4309758653	-0.0934784941	 0.1331519958	-0.57858
N	-1.1346030958	-2.032735496	 0.025381702	-0.424407
C	 0.028615425	-2.8466270253	-0.0078340457	 0.422781
O	-0.1012488986	-4.0611525421	-0.0076711549	-0.412233
C	 1.2406834863	-2.0706321497	-0.0356207076	-0.288731
C	 1.1997676098	-0.7041863467	-0.0204671176	-0.099893
H	 1.015697199	 1.9413036529	-0.0314580159	 0.132271
H	-0.5570340293	 1.9883499145	-0.8170754261	 0.117423
H	-0.449484009	 1.9677433653	 0.9475707595	 0.130293
H	-2.461468191	 0.8833715324	-0.1168595554	 0.263647
H	-3.1897258749	-0.6137001765	-0.2844130518	 0.255749
H	-1.9919222102	-2.5658528487	 0.0858556197	 0.248693
H	 2.1729891871	-2.6188489148	-0.0637159086	 0.105491
H	 2.1365153036	-0.1518706633	-0.0407172331	 0.098294
