16
gdb 123896	3.75248	1.62664	1.16876	4.9348	78.43	-0.2306	-0.0378	0.1929	999.5559	0.128749	-396.951799	-396.945288	-396.944344	-396.982684	25.711	
C	-0.0345811647	 1.5049032557	 0.0833452727	-0.283949
C	 1.3775792708	 2.0980523483	-0.0457779194	-0.158407
N	 2.1119192853	 1.3792471471	-1.0749903325	-0.014163
N	 3.1301230516	 1.9021338228	-1.7782456459	-0.155061
N	 3.6376834902	 0.9360237151	-2.4985122463	-0.19246
C	 2.9574586589	-0.213730871	-2.2437717835	-0.181189
C	 1.9647769806	 0.0497780248	-1.319853161	 0.347179
C	 0.9088191658	-0.6776133416	-0.6465747108	-0.145528
C	-0.0296595719	-0.0063544715	 0.0345747544	-0.095046
H	-0.4817943526	 1.8633314107	 1.0154680502	 0.122982
H	-0.6720307299	 1.8850685719	-0.7283437537	 0.134285
H	 1.3571467751	 3.1549039283	-0.3162564414	 0.145544
H	 1.9192279778	 1.9990315124	 0.9032596473	 0.132772
H	 3.202519206	-1.1394856584	-2.739019276	 0.124586
H	 0.8966732886	-1.7584756586	-0.7266404377	 0.110811
H	-0.8423503816	-0.534685856	 0.5218584036	 0.107643
