18
gdb 88313	3.49777	0.8637	0.84388	2.4773	75.95	-0.2792	-0.0268	0.2524	1439.3902	0.145926	-439.102685	-439.093392	-439.092448	-439.137719	33.257	
C	-0.3609518543	 1.489880533	 0.2635896411	-0.41845
C	-0.0211208928	 0.0182511467	 0.2301748962	 0.011173
C	 1.2681745196	-0.4797968968	-0.3409579505	-0.290471
C	 1.0407216131	-0.6091818332	 1.1494248984	-0.095152
C	 1.8214167448	 0.2125781202	 2.0948553397	 0.395293
N	 2.4916230904	 1.2382170161	 1.7826237379	-0.497567
O	 1.7362491838	-0.3291296857	 3.3837033446	-0.203949
C	 1.5809135327	 0.5092650148	 4.4461803474	 0.154375
O	 1.6364004175	 0.122111183	 5.5706174187	-0.251403
H	 0.5257673417	 2.0966166459	 0.4572095887	 0.151501
H	-0.7838061607	 1.7987284682	-0.6984889203	 0.12197
H	-1.1047742087	 1.7078166186	 1.0379141368	 0.114677
H	-0.8785991789	-0.6348277048	 0.0891274081	 0.097925
H	 1.2763817197	-1.3936216302	-0.9244442098	 0.11861
H	 2.0012175412	 0.2639973125	-0.6338675567	 0.144407
H	 0.7974934973	-1.587482236	 1.5453831388	 0.111667
H	 2.9873300036	 1.6526874129	 2.5696204775	 0.232944
H	 1.3750268299	 1.548475575	 4.1377016934	 0.102451
