24
gdb 117082	2.73795	0.98176	0.86958	1.1712	87.09	-0.256	0.0375	0.2935	1518.2857	0.214706	-405.576029	-405.564748	-405.563804	-405.612618	41.38	
C	-0.2349754348	 1.5133450175	 0.0126551329	-0.391391
C	-0.034709975	 0.0093123289	 0.0025380687	-0.026667
O	-1.3334573658	-0.6001551451	 0.0115559515	-0.256557
C	-1.3774255208	-1.9499192275	 0.0043953903	 0.412116
N	-0.3022267266	-2.6264627448	-0.0093817349	-0.557158
C	-2.8333463113	-2.4316852964	 0.0160131517	 0.176864
C	-2.9006822797	-3.9660112898	 0.0087040584	-0.434621
C	-3.5243119177	-1.8918061886	 1.2876049961	-0.404653
C	-3.5488149059	-1.8787091533	-1.2362542952	-0.40466
H	 0.7359748962	 2.0177661838	 0.0062297528	 0.119366
H	-0.7977956764	 1.8396594392	-0.8668188295	 0.124761
H	-0.7810254666	 1.8299646796	 0.9061341208	 0.124763
H	 0.5123631408	-0.3270517298	-0.8844638427	 0.117372
H	 0.5290992753	-0.3366437918	 0.8752591815	 0.117365
H	-0.4981623407	-3.6233237751	-0.012726633	 0.220548
H	-2.4145454009	-4.3973981554	 0.8899671626	 0.118842
H	-3.9458052332	-4.2903649377	 0.0172068152	 0.115311
H	-2.4318576056	-4.3881790044	-0.8862964197	 0.11884
H	-3.4878329819	-0.8012136036	 1.3194719657	 0.130457
H	-4.5734785661	-2.204917771	 1.3074541665	 0.108925
H	-3.0401815697	-2.2757629261	 2.1916831042	 0.115399
H	-3.0823043771	-2.2531424436	-2.1534943488	 0.115402
H	-4.5981729551	-2.1917974217	-1.23902129	 0.108932
H	-3.5129435914	-0.7878405735	-1.2574620153	 0.130445
