17
gdb 33764	2.51758	1.60429	1.26048	2.3664	77.94	-0.2622	0.0112	0.2734	1038.5969	0.136863	-380.784685	-380.777195	-380.77625	-380.816566	29.454	
N	 0.0418774994	-1.1518289958	 0.0048664941	-0.341399
C	 0.0278776603	 0.0043961262	 0.0118816546	 0.143676
C	 0.0019196974	 1.4510112033	 0.0039536446	 0.108278
C	-0.6763851801	 2.4352392787	 0.9938293606	-0.199941
N	-0.0479221499	 3.3950301327	-0.0358169293	-0.187791
C	 1.1777459142	 2.4632868455	 0.0411757155	-0.199938
C	-0.5619220114	 2.4011328734	-1.0654838274	 0.411737
C	-0.4573431128	 2.500565024	-2.5379698364	-0.376431
C	-1.8220440764	 2.479922265	-1.8367956826	-0.376433
H	-1.7666254534	 2.4602576142	 1.0103239545	 0.12511
H	-0.2420002419	 2.5204410714	 1.992066145	 0.11747
H	 1.7342938157	 2.5503369826	 0.9766449285	 0.117469
H	 1.8250780246	 2.5145906513	-0.8350955109	 0.125111
H	-0.1272285824	 3.4443108804	-2.9592911937	 0.134166
H	-0.1650360751	 1.6211146453	-3.1025034416	 0.132375
H	-2.4299963941	 1.5868564138	-1.9387837243	 0.132374
H	-2.3792173742	 3.4102485379	-1.8022313213	 0.134166
