20
gdb 109558	2.32586	1.37993	0.94778	4.6222	76.99	-0.2497	0.0288	0.2785	1273.8121	0.170177	-440.309682	-440.299754	-440.29881	-440.344712	35.389	
C	-0.1348352152	 1.6449811405	 0.2149402145	-0.406364
C	-0.0372066457	 0.1354255453	 0.0354794216	 0.015604
C	 0.6088097016	-0.4451657179	-1.2711927978	-0.19551
C	 1.2195964094	 0.4495811387	-2.3502819576	-0.07474
O	 2.0226200148	-0.3322524583	-3.2126058446	-0.424899
C	 1.6776301245	-1.0301584583	-0.3344914148	 0.429832
O	 2.707155168	-1.6480148969	-0.4955155756	-0.406998
N	 1.0623729685	-0.5190426663	 0.7726562626	-0.080621
C	 1.3896625956	-0.5934241962	 2.1733422511	-0.351599
H	 0.8226650284	 2.1382124239	 0.0274586823	 0.12888
H	-0.8795957376	 2.0611010704	-0.4708061405	 0.130551
H	-0.4508955815	 1.8942496646	 1.2333698192	 0.122953
H	-1.0084743872	-0.3254158366	 0.2577382029	 0.084308
H	 0.0000744536	-1.2188264434	-1.7464751533	 0.107333
H	 0.4440784502	 0.9121349649	-2.9703223534	 0.107605
H	 1.800921216	 1.2634191844	-1.8890468395	 0.088346
H	 2.6254285245	-0.8408383561	-2.6517456752	 0.299546
H	 2.3155456607	-1.1658778255	 2.2674322361	 0.164142
H	 1.5470054963	 0.4016125275	 2.6057566283	 0.13154
H	 0.6015408948	-1.0998969548	 2.7441575239	 0.130091
