20
gdb 120691	3.23078	0.80496	0.72157	3.8328	77.36	-0.2427	-0.021	0.2216	1621.8832	0.168956	-440.27078	-440.260551	-440.259606	-440.307051	36.134	
C	 0.3450705233	 1.2814947169	-0.8352283971	-0.485994
C	 0.0488383793	 0.3146388928	 0.2972688959	 0.410371
O	 0.8433179067	 0.0988066215	 1.1841153104	-0.304408
C	-1.3099558103	-0.3298113983	 0.2461290956	-0.153946
N	-1.491801353	-1.606614929	 0.960652765	-0.30987
C	-2.1990584634	-0.4328514134	 1.4608829705	-0.017746
C	-1.8129095512	 0.0711563346	 2.8308105848	-0.223014
C	-2.4607214053	-0.7638465997	 3.9409720854	-0.055247
O	-2.1470388371	-0.280492849	 5.2365261557	-0.420744
H	 1.3149250079	 1.7531563978	-0.6755635048	 0.144347
H	 0.3484223414	 0.7497652527	-1.794251284	 0.141054
H	-0.4359945317	 2.0478800512	-0.9008296001	 0.13958
H	-1.8323687444	-0.2021477096	-0.700177912	 0.085049
H	-2.1100600785	-2.2093300075	 0.424213197	 0.237573
H	-3.263764487	-0.3614515866	 1.2329429422	 0.09031
H	-0.7245281069	 0.0287389872	 2.9281527153	 0.134294
H	-2.1227881349	 1.1169699151	 2.9446250695	 0.101014
H	-3.5536869618	-0.7165646645	 3.8667592068	 0.100825
H	-2.1697903471	-1.8182994143	 3.8199411542	 0.102848
H	-1.1943416962	-0.3578959381	 5.3517785697	 0.283703
