17
gdb 74029	2.85337	1.62083	1.09956	3.5971	80.4	-0.2233	-0.027	0.1963	1084.6321	0.136875	-417.983536	-417.975596	-417.974652	-418.016136	29.998	
C	-0.0637501061	 1.4584751729	-0.0246785165	-0.494191
C	-0.0498079183	-0.0178440581	 0.1755627419	 0.136079
C	-1.0319704905	-0.9258855416	 0.2184631766	 0.11959
N	-2.270699353	-1.2250225779	-0.4628454254	-0.376637
C	-1.612663889	-2.5224307669	-0.8933055009	-0.209878
C	-0.4998736168	-2.3010171158	 0.2056513963	 0.04009
O	 0.8976182729	-2.1767063511	 0.0284569971	-0.264984
C	 1.2050087592	-0.8157070687	 0.1572793913	 0.342838
N	 2.3821036828	-0.3543127087	 0.1512875198	-0.538511
H	 0.6460661736	 1.7450320099	-0.8060201525	 0.147979
H	-1.0638599154	 1.8059685266	-0.2965641461	 0.127433
H	 0.2471567069	 1.9814328486	 0.8871147702	 0.142368
H	-3.065657428	-1.3817019548	 0.1508791632	 0.242589
H	-2.2279569665	-3.4195893436	-0.7906803802	 0.11771
H	-1.237704776	-2.4220716954	-1.9137770974	 0.139238
H	-0.7026572605	-2.9278803516	 1.0815518548	 0.104259
H	 3.0665538947	-1.1015617139	 0.0313097676	 0.224029
