19
gdb 39406	2.44366	2.16857	1.79034	1.5222	73.43	-0.2395	0.0767	0.3162	875.2482	0.162528	-422.982503	-422.975911	-422.974967	-423.013192	27.704	
C	-0.0644202654	 1.5114781593	 0.0677375736	-0.270429
C	 1.4893546459	 1.459093724	-0.0025937833	 0.096335
O	 2.1707482243	 1.4693573727	 1.2484222353	-0.259102
C	 1.4179182123	 1.1832606873	 2.3919006788	 0.021999
O	 0.7420547322	-0.0676547735	 2.4118614067	-0.281566
C	 0.5488884781	-0.7829378216	 1.2095010439	 0.108185
C	 1.8336992002	-1.0777841108	 0.3705856287	-0.250557
C	 1.3859246321	 0.0083622144	-0.6127431613	-0.040119
C	-0.0680552533	-0.0195534013	-0.0315533888	-0.049526
H	-0.552289197	 2.0040545959	 0.9105005516	 0.110156
H	-0.4504622049	 1.9522367629	-0.8564006988	 0.105005
H	 1.9843368495	 2.2109096352	-0.620203395	 0.08446
H	 2.1369198519	 1.1722501118	 3.217504584	 0.112901
H	 0.6772053405	 1.9750553567	 2.5761843112	 0.0932
H	-0.0184310477	-1.6644410618	 1.5136917372	 0.087661
H	 2.7910473813	-0.9542277054	 0.878736982	 0.110788
H	 1.7846456216	-2.073326678	-0.0808029689	 0.096233
H	 1.6103453768	-0.0674615985	-1.6774274283	 0.062259
H	-0.9053256184	-0.5310489793	-0.5087228285	 0.062115
