20
gdb 40238	2.74373	1.61989	1.23148	1.951	78.85	-0.2376	0.0669	0.3045	1069.2373	0.173619	-403.10948	-403.101921	-403.100977	-403.141323	30.665	
C	 0.0306645017	 1.5163613638	-0.008198157	-0.31533
C	 1.3138384559	 0.719849339	-0.0098372871	-0.311001
C	-0.0176650056	 0.0111485283	-0.00898081	 0.40582
C	-0.460964266	-0.7142950085	 1.2485272754	-0.176455
O	-0.0464400335	-2.0710191311	 1.2152827895	-0.249835
C	-0.7353718206	-2.8270919434	 0.2328648933	-0.076962
C	-0.7761785575	-2.1611758841	-1.1384659736	-0.058941
N	-1.8331473382	-1.1457803728	-1.3280417251	-0.346298
C	-0.4238617713	-0.7198796679	-1.2519586345	-0.115492
H	-0.2507396058	 2.0345889443	 0.9032984677	 0.111702
H	-0.2536288001	 2.0376088005	-0.9164757845	 0.109352
H	 1.9029371234	 0.7037878122	-0.9215455193	 0.108256
H	 1.9063228531	 0.6912548165	 0.8985209479	 0.115186
H	 0.0018459609	-0.2690996953	 2.1343882301	 0.098292
H	-1.5546247283	-0.6489775355	 1.3552705576	 0.105462
H	-0.202726941	-3.7808975424	 0.1701322103	 0.104783
H	-1.767832415	-3.0287263506	 0.5605967238	 0.097609
H	-0.5447189958	-2.8078572176	-1.9813725604	 0.08766
H	-2.1495978924	-1.1405756079	-2.2939355373	 0.229593
H	 0.0543860663	-0.3843819275	-2.1708442969	 0.076599
