12
gdb 131438	3.69145	1.62844	1.12997	2.3821	61.05	-0.2347	-0.0004	0.2344	957.3536	0.079596	-472.611355	-472.605169	-472.604225	-472.641886	24.308	
O	 0.0969711443	 1.3565123774	 0.065513938	-0.408398
C	 0.0753306112	 0.0190075201	 0.0815000149	 0.321769
N	 0.0769234948	-0.6697182429	-1.0455643115	-0.266756
O	 0.0504201143	-2.0582834322	-0.6737247852	-0.244529
C	 0.0358530859	-2.0482688687	 0.6470324399	 0.501053
C	 0.0490995969	-0.8173634439	 1.2312646435	 0.071069
C	 0.0290280446	-1.0881242878	 2.6462083698	-0.368083
C	 0.0061193643	-2.4421677694	 2.7511123441	-0.001202
O	 0.0099714098	-3.0685996762	 1.4983719936	-0.209494
H	 0.1118702957	 1.6399773734	-0.8596165163	 0.31521
H	 0.0310263691	-0.3926006896	 3.4696265037	 0.13648
H	-0.0140796711	-3.1214206202	 3.5856423253	 0.152881
