20
gdb 55462	3.17124	1.20012	0.93529	2.7861	77.15	-0.2317	0.0286	0.2603	1266.8317	0.172353	-440.321534	-440.312849	-440.311905	-440.355273	32.598	
C	 0.0271428453	 1.5239409122	-0.0482547615	-0.502319
C	 0.0558772361	 0.0011533855	-0.0436759512	 0.40118
O	 1.1114751324	-0.6070821502	-0.1052010283	-0.373677
N	-1.1508456076	-0.6514329618	 0.0434532309	-0.097746
C	-2.4676146635	-0.0313706098	 0.0464203738	-0.183278
C	-3.3269324478	-0.6514925865	 1.1536946397	-0.066534
O	-3.3881721137	-2.0589890684	 1.0335012776	-0.24322
C	-2.093470936	-2.639312947	 1.1049798121	-0.08086
C	-1.185476541	-2.110938959	-0.0030339634	-0.176187
H	 1.0583823804	 1.8645960805	-0.1320082038	 0.149384
H	-0.5496419248	 1.9199189629	-0.8900711709	 0.137376
H	-0.4056625401	 1.9273232359	 0.8727814268	 0.137201
H	-2.3852787093	 1.0439209849	 0.2040653478	 0.118282
H	-2.963246397	-0.1965238254	-0.9226064443	 0.110647
H	-2.9127432567	-0.3685495005	 2.136247059	 0.091738
H	-4.3552062671	-0.2839484219	 1.0890959792	 0.111526
H	-1.6392525173	-2.4294435495	 2.0871655636	 0.096903
H	-2.2311407746	-3.7196000184	 1.0077130228	 0.11311
H	-1.573811099	-2.4407662486	-0.977837829	 0.106796
H	-0.1627406486	-2.4721487251	 0.105623699	 0.149677
