22
gdb 19476	4.09404	1.43735	1.37581	0.1116	81.42	-0.2792	0.0896	0.3688	1046.8137	0.203024	-313.067433	-313.059861	-313.058916	-313.09919	30.36	
C	-0.0247481168	 1.5722092385	 0.085025013	-0.377585
C	-0.0055253117	 0.0421676082	 0.1859392411	-0.22352
C	-1.395839516	-0.5750720037	 0.0553521312	 0.075278
C	-2.0516456531	-0.6443979097	-1.3659003332	-0.016055
C	-1.2382773624	-1.951923619	-1.58869593	-0.229896
C	-1.4977478976	-2.1312097483	-0.064570151	-0.028592
C	-3.024912056	-2.3413021271	-0.034380359	-0.214943
C	-3.4485237868	-1.2032467726	-1.0283827972	-0.212729
H	 0.9780241432	 1.9916492352	 0.213699352	 0.109531
H	-0.4013591779	 1.9022152116	-0.8888535784	 0.116519
H	-0.6704083565	 2.0113948751	 0.853865598	 0.11253
H	 0.6790548928	-0.3608417948	-0.5684916698	 0.095697
H	 0.413809131	-0.2494461826	 1.1582530866	 0.092524
H	-2.0427443352	-0.137537356	 0.8283800109	 0.050084
H	-2.0048860113	 0.1907304339	-2.0666390152	 0.052751
H	-1.6572249002	-2.7012960511	-2.2679575165	 0.082685
H	-0.1910516309	-1.7804574162	-1.8377713886	 0.096767
H	-0.8869808555	-2.7935963403	 0.5515345367	 0.050889
H	-3.3156758899	-3.3357743928	-0.3854120473	 0.091884
H	-3.4442286075	-2.2028388963	 0.9665347077	 0.092118
H	-4.0938251205	-0.4543927341	-0.5596410687	 0.092341
H	-3.9672798313	-1.5876224378	-1.9115176623	 0.091722
