15
gdb 20415	6.09633	1.52002	1.29182	3.1688	67.85	-0.211	0.0305	0.2415	918.6715	0.121714	-358.82739	-358.820713	-358.819769	-358.858796	24.955	
C	 0.4320024638	 0.4628114019	-0.7155401607	-0.233447
C	 0.2671889383	 1.6751359564	 0.130835302	-0.218187
N	 0.8158886834	 0.4538065901	 0.7054538278	-0.165522
C	 0.0304469415	-0.2617277445	 1.6130386168	 0.409506
C	-0.8883006618	 0.1214127561	 2.573775578	-0.299242
C	-1.2495628353	-1.0864885015	 3.2121236677	 0.001322
N	-0.6206500393	-2.137928544	 2.7018279774	-0.231485
N	 0.1579986763	-1.6090228464	 1.7280835718	-0.256256
H	-0.4697528049	-0.0766332981	-0.9936998106	 0.130843
H	 1.2579231413	 0.3873805924	-1.4156602868	 0.127586
H	 0.9658301158	 2.5019041786	 0.0496082672	 0.12797
H	-0.7476293428	 1.9497227331	 0.4068675252	 0.130417
H	-1.228324804	 1.1210709278	 2.7868494276	 0.098362
H	-1.9487822287	-1.2265512329	 4.0239387866	 0.107562
H	 0.7729094863	-2.2058524389	 1.201592	 0.27057
