15
gdb 49011	2.58554	1.51937	1.12053	2.7892	66.84	-0.2495	-0.0547	0.1947	1055.2371	0.110647	-457.742077	-457.734245	-457.7333	-457.775007	28.496	
O	-0.2478241883	 0.02916802	 0.0640123495	-0.245227
C	-0.0292215238	 1.1918904788	 0.2968439768	 0.068118
C	 1.2720972609	 1.8744027705	 0.0259539132	 0.174262
C	 1.644466912	 3.1431247235	 0.8156427373	-0.130943
O	 1.9048527587	 3.9078728856	-0.3846119988	-0.275609
C	 1.4611041485	 2.8324689054	-1.2280501379	-0.048668
C	 2.658856552	 1.9374538066	-1.6494511427	 0.423795
O	 3.4291285461	 1.981850002	-2.5587660718	-0.276903
C	 2.4649933508	 1.0054294959	-0.4404471377	-0.431023
H	-0.8210613871	 1.8529582644	 0.7162156653	 0.085728
H	 0.8097346435	 3.5786232553	 1.3800106862	 0.117155
H	 2.523511819	 3.0668402391	 1.4643172295	 0.122351
H	 0.6967249485	 3.1244373803	-1.9532578956	 0.109547
H	 3.3127422255	 0.9024329001	 0.2415766635	 0.138709
H	 2.1305395636	 0.0085734426	-0.747665137	 0.168708
