23
gdb 95166	2.5129	1.36685	1.03335	1.5831	84.85	-0.2388	0.076	0.3148	1256.4301	0.206727	-388.29951	-388.290583	-388.289639	-388.332524	35.976	
C	 0.0090728995	 1.5649618588	 0.0355968163	-0.40336
C	 0.008536976	 0.0348196435	-0.0196039881	 0.051164
C	 0.6836698983	-0.4996403665	-1.291123108	-0.20151
C	 0.4819715747	-2.0159909939	-1.4327987489	-0.231838
C	 0.8350426367	-2.7830774683	-0.1704228958	-0.07781
C	 2.1702452668	-2.5945303279	 0.5260968356	-0.318555
C	 0.9185190212	-2.0740109101	 1.1663625136	 0.400109
O	 0.5362236813	-2.7976392088	 2.3114737871	-0.470179
C	 0.669708765	-0.5651351601	 1.2368694212	-0.282535
H	 1.0333485193	 1.9563008788	 0.024520607	 0.112731
H	-0.5199249186	 1.9942824118	-0.8218784089	 0.108781
H	-0.4748482353	 1.9325217651	 0.9470875804	 0.109439
H	-1.0382174315	-0.3053308609	-0.0427102173	 0.06249
H	 0.2752430347	 0.0044470512	-2.1745693997	 0.090303
H	 1.7542026734	-0.2519256403	-1.2672154422	 0.0938
H	-0.5740137562	-2.2027589604	-1.6711433053	 0.092789
H	 1.0610542507	-2.3985445089	-2.2829765958	 0.094267
H	 0.4461168725	-3.796425521	-0.1206366834	 0.081795
H	 2.6197397404	-3.4704569041	 0.9794480573	 0.115783
H	 2.8766562563	-1.8742853379	 0.125081861	 0.105369
H	-0.4265415587	-2.7959071788	 2.3517489053	 0.274039
H	 1.616440165	-0.0422419097	 1.4295261117	 0.098972
H	 0.0392363686	-0.3718124215	 2.112017077	 0.093956
