19
gdb 114452	4.63176	1.22839	1.15093	0.7195	75.66	-0.2458	0.1008	0.3467	1124.611	0.160599	-422.976556	-422.969162	-422.968218	-423.008551	29.02	
C	-0.0335857722	 1.3517483024	-0.1529218922	-0.242012
O	-0.0291478882	-0.0468201695	 0.0712999756	-0.244038
C	-1.2995063248	-0.6177029586	 0.0676649417	 0.216457
O	-1.9176486823	-0.5632343351	-1.226983099	-0.296624
C	-1.985213784	-1.9333097571	-1.5860946284	 0.137062
C	-2.4598068414	-2.7759557551	-0.3661993936	-0.090653
C	-1.5882928025	-3.9507285546	-0.8668450467	-0.262483
C	-0.7163206327	-2.6975333544	-1.1129535151	-0.069462
C	-1.1872480201	-2.1212857729	 0.2676250265	-0.086378
H	 1.0023963271	 1.6902440191	-0.0834730306	 0.125453
H	-0.4315783606	 1.5950960318	-1.1448985233	 0.129073
H	-0.6328072383	 1.8764808657	 0.6068399295	 0.104238
H	-1.9553931067	-0.0929186985	 0.7805348539	 0.065884
H	-2.4053101108	-2.0592235836	-2.5831487201	 0.085286
H	-3.4621164343	-2.80781817	 0.0629250483	 0.073769
H	-1.2299430145	-4.647119759	-0.1050971268	 0.098927
H	-1.9451749339	-4.4889069064	-1.7500414863	 0.093185
H	 0.2877928724	-2.6355463366	-1.5301511149	 0.082833
H	-0.7670761523	-2.4950839576	 1.2002424615	 0.079484
