13
gdb 132019	2.41833	1.89715	1.06436	5.0131	67.35	-0.2141	-0.0309	0.1832	1014.8455	0.090066	-494.048374	-494.040895	-494.039951	-494.080354	28.076	
N	 0.0936470621	 1.3721020318	 0.175558332	-0.576241
C	-0.0184667608	 0.0082089822	 0.0602524308	 0.29945
C	-1.1625804398	-0.7047403487	 0.0211440924	 0.109142
F	-2.3224128297	-0.033928765	 0.0154003882	-0.073219
C	-1.1636419896	-2.151620226	-0.0097549419	 0.263179
N	-2.2371652174	-2.8402545989	-0.0392419207	-0.532704
N	 0.1365764492	-2.7311795964	-0.0154801352	-0.309726
C	 1.1584228836	-1.9872852793	 0.0062235431	 0.11517
O	 1.1927618279	-0.6248725159	 0.047009233	-0.211424
H	 0.8990241354	 1.7678458239	-0.2893618566	 0.267449
H	-0.7667157496	 1.8627214428	-0.021671726	 0.276337
H	-1.9893629414	-3.8308497231	-0.0644648443	 0.22188
H	 2.16982986	-2.3812024675	-0.0044601449	 0.150708
