15
gdb 50119	5.05078	1.0136	0.96589	2.8121	71.39	-0.2727	-0.0566	0.2161	1183.9788	0.112009	-416.775174	-416.767161	-416.766217	-416.808488	28.864	
O	-0.6597213612	 0.8351039709	-0.4687294671	-0.232452
C	 0.2282308595	 0.9455363404	 0.3381757183	 0.145527
C	 1.3485585793	 1.9532281582	 0.2333724181	-0.032503
C	 1.2922493561	 3.030089263	-0.8700466876	-0.329074
C	 1.2248280585	 4.0583065373	 0.2660865139	 0.210693
C	 0.0923644443	 3.7718532561	 1.1764040348	-0.27573
N	 1.3256300195	 2.9835097606	 1.3595687266	-0.175955
C	 1.979244591	 5.2738341791	 0.3126906615	 0.207808
N	 2.5828241532	 6.2606748956	 0.3134698938	-0.32938
H	 0.2656181866	 0.3150987606	 1.2536537835	 0.10129
H	 2.3073382864	 1.4288531148	 0.2875899793	 0.12157
H	 2.2093443294	 3.0922831083	-1.454535532	 0.140789
H	 0.4280544166	 3.0007378566	-1.53557478	 0.144106
H	-0.0737687848	 4.464364314	 1.994334355	 0.154127
H	-0.8029552445	 3.3084144645	 0.769062212	 0.149186
