18
gdb 112639	3.40953	1.12795	0.88446	7.3528	77.94	-0.2285	-0.021	0.2075	1280.6338	0.148768	-439.135202	-439.126484	-439.12554	-439.168678	32.917	
N	 0.0126289445	 1.3337961661	 0.208861862	-0.575578
C	-0.0485193278	-0.0088236584	 0.0649172056	 0.407407
C	-1.1537994629	-0.8032454996	 0.0609883917	-0.324496
C	-0.7698168161	-2.1877929417	-0.1027468398	 0.413728
O	-1.495519482	-3.1638273561	-0.2454048075	-0.40309
C	 0.7697912729	-2.2697000935	-0.1117750164	-0.131625
C	 1.2546719111	-3.1174020004	-1.2994288139	-0.055399
O	 0.8064801055	-4.4463530119	-1.2022275447	-0.429995
C	 1.2291103951	-0.8014305174	-0.1099540758	-0.351754
H	 0.8759021352	 1.8219609004	 0.0450360037	 0.266446
H	-0.827705467	 1.8868079644	 0.208836055	 0.269339
H	-2.1818654993	-0.4733654572	 0.1316853949	 0.094615
H	 1.0824305907	-2.7805806409	 0.8059949286	 0.107112
H	 0.9220013552	-2.6358467592	-2.2379205955	 0.075756
H	 2.3512186208	-3.1409474386	-1.3232240512	 0.095684
H	-0.1361888623	-4.3894801742	-0.971295996	 0.29661
H	 1.7103059469	-0.5227339713	-1.0577883945	 0.122354
H	 1.9465672797	-0.5735462605	 0.6862033738	 0.122886
