18
gdb 26173	2.60025	1.54295	0.98917	3.1189	76.19	-0.1683	0.0402	0.2085	1176.064	0.147706	-435.280721	-435.271427	-435.270483	-435.315122	33.854	
C	-0.0874731883	 1.5493141519	 0.3111234334	-0.326129
N	-0.0754053882	 0.1117301959	 0.0908759408	-0.165397
C	 0.9885158096	-0.5857549399	 0.78610083	-0.340849
C	-1.3208277694	-0.5158441298	 0.0403897926	 0.291014
C	-1.6576898053	-1.8440129242	 0.2207176576	 0.189376
O	-0.9481757642	-2.9912396879	 0.4539596508	-0.435771
N	-3.0240085125	-1.9169650654	-0.020103078	-0.283647
C	-3.4445779138	-0.6642725682	-0.3148478584	 0.0055
N	-2.4540000543	 0.1997898363	-0.2784493938	-0.333919
H	 0.8919045475	 1.9561054319	 0.0400030579	 0.108506
H	-0.8529819078	 2.007859491	-0.3130953949	 0.155253
H	-0.294319714	 1.8204178153	 1.361600375	 0.093712
H	 0.8623575965	-0.5817910412	 1.8855426862	 0.086948
H	 1.0463359273	-1.6214903392	 0.4487328769	 0.142384
H	 1.9419478138	-0.0981970137	 0.5610453204	 0.118728
H	-0.8196165317	-3.1035746359	 1.4030224378	 0.302067
H	-3.5613910901	-2.7673569625	-0.0152403816	 0.264531
H	-4.473271665	-0.4314577444	-0.5443590927	 0.127693
