25
gdb 95205	2.32108	1.55851	1.10711	0.229	91.2	-0.2582	0.0763	0.3345	1228.9428	0.231403	-352.367388	-352.358461	-352.357517	-352.400275	36.49	
C	 0.0201837201	 1.5758120129	-0.078521279	-0.417427
C	 0.0780435901	 0.0445909454	-0.0404587728	 0.054808
C	 0.6627425058	-0.5429853837	-1.3348146235	-0.207992
C	 0.3878169681	-2.0510861329	-1.4193589056	-0.225987
C	 0.8010179854	-2.7969964191	-0.1624087644	-0.00912
C	 2.1899828066	-2.633138781	 0.393710942	-0.28934
C	 1.0095189749	-2.0338290569	 1.130145177	-0.033218
C	 0.7939913864	-0.5136892189	 1.2206889122	 0.000154
C	 2.0974906036	 0.2187873686	 1.5845119294	-0.390416
H	 1.0091571425	 2.0181822448	-0.2379125405	 0.115731
H	-0.6250698527	 1.9142021315	-0.8962464613	 0.106909
H	-0.3819308574	 1.9871402091	 0.8541348687	 0.107574
H	-0.959623111	-0.3163924225	 0.0173423372	 0.066427
H	 0.2165131598	-0.044567603	-2.2032567587	 0.08837
H	 1.7400326391	-0.3370270016	-1.3923665924	 0.092871
H	-0.6903304906	-2.1940397833	-1.5733745099	 0.092861
H	 0.8843192822	-2.4851797765	-2.296577744	 0.090074
H	 0.3668579075	-3.7889019326	-0.0690046825	 0.07411
H	 2.6801050275	-3.4974210107	 0.8290959434	 0.101851
H	 2.8686830421	-1.9629993828	-0.1235251959	 0.106149
H	 0.7333863814	-2.5658493955	 2.0362086321	 0.076687
H	 0.1037327119	-0.349152763	 2.0582187342	 0.066969
H	 2.8203790834	 0.2084695299	 0.7621306213	 0.111583
H	 1.9137539416	 1.2632143266	 1.8517188929	 0.109537
H	 2.5749858717	-0.2655034749	 2.4420930301	 0.110836
