16
gdb 110084	1.82425	1.75945	1.37298	3.9264	72.7	-0.2517	0.0038	0.2556	1033.7149	0.12201	-437.831428	-437.822459	-437.821515	-437.865143	32.551	
O	 0.3673780538	-0.0305749589	 0.9990582977	-0.404181
C	-0.2947180038	 0.2316386045	-0.2142250528	-0.114338
C	-1.5899681139	-0.5518026232	-0.4053902378	-0.044074
C	-1.6524500195	-2.0550415098	-0.1711422125	-0.221904
C	-0.4772466885	-2.7838966665	 0.2314549502	 0.344184
C	 0.5073246509	-3.4226816622	 0.4983922011	-0.438032
N	-2.3096053648	-1.1055149289	 0.710363529	-0.078187
C	-2.0751021464	-0.9336253088	 2.0718002836	 0.163879
O	-1.9442941201	-1.8370055246	 2.856481934	-0.296429
H	 0.6748892667	-0.9464292319	 0.9863625521	 0.297378
H	-0.5330962763	 1.300783147	-0.2096237382	 0.126931
H	 0.3479259031	 0.048196844	-1.0896992999	 0.112748
H	-2.2158552681	-0.1663720673	-1.2109634577	 0.110231
H	-2.3367717912	-2.6311000611	-0.7911797259	 0.131879
H	 1.3567885046	-4.0029111981	 0.7649589182	 0.214966
H	-2.1273504566	 0.1314316258	 2.3573268889	 0.094949
