18
gdb 35746	3.26793	1.21971	1.09851	4.0882	75.99	-0.2495	0.0206	0.2702	1156.7775	0.148203	-401.952828	-401.944688	-401.943744	-401.986755	30.832	
N	 0.2726452609	-0.9277936005	 0.9520968407	-0.323657
C	 0.1229823326	 0.1223807079	 0.4937070057	 0.272232
C	-0.0787519552	 1.4692720119	-0.089046607	-0.034538
C	-0.9170000976	 2.3720792917	 0.838705548	-0.241013
C	 0.1703170648	 2.9467309089	 1.7597236548	-0.31314
C	 1.3656550596	 3.0460423116	 0.825323654	 0.463656
C	 2.0585488367	 4.3282726935	 0.4731817504	-0.326195
C	 2.7752213981	 3.2504133687	 1.2748056448	-0.328036
O	 1.1596636933	 2.1359167617	-0.2577512147	-0.289785
H	-0.5339301195	 1.341066155	-1.0761910738	 0.130944
H	-1.3745968174	 3.159452818	 0.2334478337	 0.121762
H	-1.7040217804	 1.8295910835	 1.3642745771	 0.12965
H	-0.1043968039	 3.9107679969	 2.1918983646	 0.11711
H	 0.3776581361	 2.2515543781	 2.5803856192	 0.130408
H	 2.3577931099	 4.455250714	-0.5611945668	 0.126742
H	 1.7557312816	 5.2397164107	 0.9782541206	 0.114245
H	 2.9618408872	 3.4206657131	 2.330226217	 0.117877
H	 3.5405166034	 2.6784055952	 0.7628004917	 0.131737
