19
gdb 64140	3.34704	1.07301	1.01426	5.4449	75.78	-0.248	0.0251	0.2731	1245.5579	0.159992	-419.223063	-419.214121	-419.213177	-419.256853	33.981	
C	-0.2894151375	 1.5301321229	-0.0405017429	-0.455812
C	 0.0890677249	 0.0534987882	 0.0155705401	 0.380973
O	-1.0806823428	-0.7695962136	 0.1194312044	-0.468879
C	 0.9433418849	-0.4429880759	-1.1747203797	-0.207478
N	 1.5347115591	-1.7113560528	-0.7368965182	-0.305313
C	 1.937995609	-1.4332931375	 0.6598951448	-0.09095
C	 0.9615129842	-0.3411157097	 1.2269219451	-0.263672
C	 1.9798732227	-2.65448841	 1.461695708	 0.261978
N	 2.0040738654	-3.6137728327	 2.1053096072	-0.320755
H	 0.5986744456	 2.168096224	-0.0864388336	 0.120496
H	-0.895309143	 1.7409245404	-0.9302819344	 0.110795
H	-0.8746025389	 1.8108058615	 0.8396810886	 0.133801
H	-1.6629091035	-0.5535724004	-0.6176642808	 0.277972
H	 0.3567468611	-0.5847504826	-2.0869401283	 0.101311
H	 1.7460565509	 0.2730818562	-1.3960566856	 0.104339
H	 0.7840149461	-2.3973273657	-0.7073105775	 0.23801
H	 2.955428464	-1.0236748371	 0.6374405655	 0.129887
H	 1.5237576165	 0.5110222248	 1.6142426068	 0.110221
H	 0.3262618114	-0.7280620499	 2.0241277105	 0.143075
