21
gdb 64161	2.18554	1.45443	1.34677	1.0083	84.36	-0.2509	0.0321	0.283	1129.8839	0.178988	-387.051954	-387.041797	-387.040853	-387.086	39.096	
C	-0.0969591281	 1.5042260983	 0.1177804354	-0.424826
C	-0.0271395645	-0.0204460852	-0.0193752459	 0.277362
C	-1.4024861721	-0.5902881785	-0.3476026274	-0.454608
C	 1.1581232573	-0.463511756	-0.9324210728	-0.253102
C	 2.0479445703	-0.6412578498	 0.3223602566	-0.283523
C	 0.7548957877	-0.658225132	 1.2029106709	 0.202137
O	 0.7458988891	 0.1654156598	 2.3569012941	-0.471223
C	 0.34188233	-2.0165137393	 1.5419927135	 0.296741
C	 0.0410945221	-3.1355606949	 1.8665810481	-0.480721
H	 0.8793125297	 1.9479489172	 0.3290825335	 0.11723
H	-0.4715423319	 1.9364157289	-0.816744573	 0.105318
H	-0.7713847138	 1.7947074194	 0.9275464799	 0.125669
H	-1.7726563074	-0.1668058114	-1.2882511699	 0.108759
H	-1.3749353244	-1.6779343778	-0.4518410087	 0.119473
H	-2.1279730288	-0.3451408253	 0.4361553404	 0.118184
H	 0.9560285196	-1.4148829928	-1.4317627687	 0.103485
H	 1.4916152054	 0.2607515523	-1.6792700114	 0.096856
H	 2.6932275006	-1.5196844285	 0.3747200041	 0.101855
H	 2.6311866549	 0.2521813326	 0.5556819358	 0.112919
H	 1.0185523987	-0.3710300893	 3.108422427	 0.283297
H	-0.2368304243	-4.1221528477	 2.1452280786	 0.198719
