20
gdb 61649	3.66287	0.79548	0.75014	2.6134	77.29	-0.228	-0.0411	0.1868	1562.2053	0.168413	-440.254675	-440.244851	-440.243907	-440.290238	35.452	
C	-0.390873938	 1.2991020883	 0.0545393111	-0.316725
N	 0.0810280083	-0.075447075	 0.0808669778	-0.075846
C	 1.4716842644	-0.3181165744	-0.2837504036	-0.266421
C	 1.0112260295	-0.533477697	 1.1178777539	 0.02861
C	 1.5187891711	 0.3392717661	 2.2484738134	-0.252626
C	 0.5798048939	 0.2986854416	 3.474352348	 0.053361
O	 0.4484737256	-1.0049861285	 3.9714271169	-0.432939
C	 1.0896354522	 1.2262272708	 4.5572485436	 0.135402
O	 1.3503113814	 0.8279669638	 5.666852272	-0.258385
H	 0.3647651656	 2.0576512734	 0.3164907419	 0.094988
H	-0.7425297389	 1.5244218611	-0.9574861429	 0.128397
H	-1.2414116676	 1.4089393964	 0.7359443512	 0.122206
H	 1.6592299872	-1.1576641254	-0.948480315	 0.116146
H	 2.1065583939	 0.5507345963	-0.4637575245	 0.100445
H	 0.8093296689	-1.5530802546	 1.438062635	 0.114787
H	 2.5014771552	-0.0322364317	 2.5645085851	 0.117599
H	 1.6555509919	 1.3755199663	 1.9217637827	 0.098707
H	-0.4068759489	 0.6901286678	 3.165599402	 0.099459
H	 0.7356635432	-0.9623031393	 4.8973023119	 0.295238
H	 1.2160355111	 2.2918683341	 4.2751010795	 0.097596
