20
gdb 113864	3.07846	1.03592	0.93829	3.634	76.03	-0.2269	0.0566	0.2835	1323.6041	0.170398	-440.212224	-440.202979	-440.202035	-440.247247	33.215	
O	 0.0052804995	 1.5045516551	 0.3560012724	-0.401145
C	 0.0115019556	 0.0847053079	 0.3966688133	-0.12212
C	-1.349952161	-0.4790276671	 0.0390358786	 0.00633
C	-2.5621624717	 0.3814156595	-0.0234062138	-0.253491
N	-2.0337883289	-0.2484878591	-1.2360403338	-0.102224
C	-1.427835804	 0.606167212	-2.239946011	-0.003955
C	-0.659018092	-0.1412144886	-3.3515435302	-0.081653
O	-1.5075037217	 0.4149011737	-4.3757490719	-0.274593
C	-2.3754990666	 1.0121249438	-3.38901984	-0.081699
H	 0.9077537609	 1.8125626444	 0.4820614258	 0.292282
H	 0.7702252041	-0.3259713216	-0.2893934011	 0.100097
H	 0.2628841001	-0.2759865646	 1.4067923097	 0.100732
H	-1.4627448792	-1.5033212789	 0.3925194727	 0.094192
H	-3.5230369279	 0.0100024152	 0.3227251746	 0.111419
H	-2.4010599617	 1.4483423323	 0.1068195353	 0.1327
H	-0.8699659428	 1.4473100561	-1.8164386143	 0.092883
H	 0.3931798575	 0.1323473265	-3.4976108874	 0.091217
H	-0.7502595449	-1.2329571312	-3.2841385029	 0.100031
H	-3.3524220971	 0.5150026697	-3.3405773459	 0.102614
H	-2.514418448	 2.0857736248	-3.5612370301	 0.096383
