18
gdb 99335	6.61298	0.57633	0.53749	6.4553	74.81	-0.2591	-0.0236	0.2355	1994.9295	0.14379	-439.097266	-439.086709	-439.085764	-439.13547	34.819	
C	 0.0973615156	 1.5034690707	-0.0266164036	-0.378066
C	-0.0809349459	-0.0092270907	 0.0830435559	-0.287438
C	-1.5395247304	-0.4446597891	 0.0443144865	 0.356105
O	-2.4615298797	 0.3289644351	 0.0649034128	-0.266543
C	-1.755387882	-1.958485542	-0.024716123	-0.155636
O	-3.1245164894	-2.2507139716	 0.063954244	-0.214894
C	-3.3833985533	-3.6295019981	-0.0200357841	-0.183453
C	-4.827545757	-3.8588049814	 0.0839686462	 0.270536
N	-5.9571239366	-4.0824301	 0.1626586329	-0.287412
H	 1.1551520718	 1.7720348234	 0.0362803926	 0.11417
H	-0.2982772786	 1.8757834295	-0.9751243598	 0.133297
H	-0.4415302106	 2.0154285007	 0.7737467551	 0.140013
H	 0.4631424884	-0.5357247853	-0.7131020243	 0.119667
H	 0.3500295337	-0.3871981109	 1.021345305	 0.128288
H	-1.3238861117	-2.3268314531	-0.972933809	 0.115995
H	-1.1832943533	-2.4419603749	 0.7867388972	 0.112998
H	-3.0296703061	-4.0526672709	-0.9748939847	 0.141409
H	-2.8820319449	-4.1886617514	 0.7874057803	 0.140961
