15
gdb 18339	3.81094	2.1208	1.55544	4.9862	60.15	-0.2371	0.006	0.2431	803.0103	0.12175	-399.81026	-399.803859	-399.802915	-399.841148	23.984	
O	 0.0143687253	 0.0113371321	-0.2661000928	-0.343777
C	 0.0285357727	 1.1908830744	-0.0669784834	 0.466359
O	-1.1006570832	 1.9063245053	 0.1847959069	-0.222463
C	-0.8402112728	 3.3078744491	 0.3743268246	-0.083729
C	 0.6458041129	 3.5641159569	 0.0421642127	-0.068497
C	 1.5862160787	 3.779386323	 1.2523389032	-0.175177
N	 1.7563465322	 2.3102591978	 1.344190056	-0.308919
C	 1.2230950848	 2.1359866127	-0.0315585872	-0.138411
H	-1.5185588174	 3.855990534	-0.2845910655	 0.121993
H	-1.080148632	 3.5617726266	 1.411977174	 0.124027
H	 0.7768054437	 4.2268187164	-0.8114755526	 0.092992
H	 2.4955613049	 4.3259190996	 0.9692068732	 0.101059
H	 1.1590598753	 4.244560656	 2.1482989797	 0.108588
H	 2.6973320062	 1.9692679219	 1.4976130639	 0.231327
H	 1.9509969187	 1.9021737142	-0.8131243628	 0.094628
