16
gdb 11704	5.72329	1.38871	1.26461	4.8118	70.44	-0.2582	0.0008	0.259	971.1716	0.131028	-342.756108	-342.74872	-342.747775	-342.787545	27.842	
C	-0.2476577837	 1.5270385181	 0.0456888189	-0.409218
C	 0.1004285101	 0.0517665586	-0.0109221579	 0.083043
C	 1.2089819523	-0.4668106834	-0.9716123742	-0.336325
C	 1.8923954392	-1.0396068237	 0.2740983108	 0.21292
C	 2.1437860195	 0.0291091075	 1.2707689567	-0.269544
N	 0.7905153742	-0.5341232891	 1.2097366196	-0.162794
C	 2.4584727966	-2.3508802773	 0.3691981589	 0.205516
N	 2.9304462078	-3.4065471259	 0.410031393	-0.33734
H	 0.6350218819	 2.1665590932	 0.1374765295	 0.120418
H	-0.7742021891	 1.8212038598	-0.8682007202	 0.129133
H	-0.9064835199	 1.729259333	 0.8961348447	 0.137438
H	-0.8145426495	-0.5307496313	-0.1427001116	 0.103575
H	 0.856315693	-1.2287707833	-1.6666729144	 0.135048
H	 1.7952520373	 0.2752111572	-1.5204799652	 0.116376
H	 2.6690224505	-0.250047552	 2.178119118	 0.147098
H	 2.3449386498	 1.0365667786	 0.9160832935	 0.124657
