20
gdb 107052	3.97394	1.08581	0.9695	3.9862	75.9	-0.2368	0.0595	0.2963	1270.9893	0.170939	-440.258924	-440.24996	-440.249016	-440.292585	33.706	
C	 0.2441696515	 1.5695011827	-0.0307810051	-0.401462
C	 0.06355844	 0.0618656471	 0.0536894165	 0.155084
O	 0.6469330824	-0.5280879863	-1.1108197361	-0.274323
C	 1.1585881912	-1.8195193098	-0.8069205048	-0.116028
C	 1.4401250797	-1.8171757192	 0.685780186	 0.34653
C	 1.5651367338	-3.1110637731	 1.431607565	-0.197206
O	 2.7385473673	-3.7722422974	 0.9769350726	-0.416716
N	 2.2263981739	-0.6269228317	 1.07781097	-0.355775
C	 0.7574983669	-0.6191885697	 1.2228712029	-0.156579
H	 1.3082164652	 1.8146606969	 0.0030693132	 0.140893
H	-0.176223137	 1.9478965827	-0.9664067142	 0.123713
H	-0.2659515138	 2.0661980757	 0.8011367774	 0.104786
H	-1.0113559658	-0.1871049077	 0.1058965245	 0.061058
H	 0.4247652001	-2.6093395453	-1.0402635368	 0.081377
H	 2.051875071	-1.9797854067	-1.4166937957	 0.122555
H	 1.6113805948	-2.90823695	 2.5146496581	 0.08103
H	 0.6688254888	-3.7257436648	 1.2494925385	 0.094141
H	 2.7607629943	-4.6506303634	 1.3683204057	 0.290573
H	 2.6549512421	-0.7988013697	 1.9853192484	 0.22963
H	 0.3049916334	-0.5970779204	 2.2095361739	 0.086719
