17
gdb 47376	2.2814	1.49279	1.19909	4.3831	71.86	-0.2305	-0.035	0.1956	1083.4656	0.137887	-418.040009	-418.03192	-418.030976	-418.073114	30.173	
O	-0.0414123212	-0.084725103	 0.1902055834	-0.291919
C	-0.0414769455	 1.11266456	 0.0415776532	 0.389477
C	-1.3256624299	 1.9439209809	 0.0193340595	-0.265588
N	-1.3431268288	 3.0188867454	-0.9767001794	-0.282405
C	-0.1512156961	 3.8478967041	-0.9411075926	-0.176789
C	 1.1684454051	 3.0471166642	-1.1369328122	-0.173275
C	 1.2545226947	 1.9144136182	-0.0822348948	-0.315029
C	 1.2136510772	 2.5040780447	-2.4979421237	 0.271107
N	 1.2082580609	 2.0830415093	-3.5746597995	-0.316573
H	-2.1740685036	 1.2738995902	-0.1348041076	 0.138032
H	-1.4423591667	 2.3959368194	 1.0167869331	 0.12683
H	-1.4639428842	 2.627513684	-1.9060178767	 0.242924
H	-0.2321491275	 4.6256087773	-1.7051573431	 0.130814
H	-0.0989582783	 4.3467252624	 0.0351422546	 0.115447
H	 2.0280277709	 3.7183716878	-1.0201552156	 0.130253
H	 1.4332000978	 2.3864452259	 0.8935761243	 0.132101
H	 2.0801091549	 1.2272291493	-0.2765897028	 0.144594
