16
gdb 52171	3.81017	0.88419	0.75738	3.6692	68.13	-0.2773	0.0011	0.2784	1433.198	0.123265	-475.038796	-475.030236	-475.029292	-475.073447	30.021	
N	 0.4390172398	 1.0766040812	 0.5398655235	-0.530375
C	 0.2133197823	-0.0252383337	-0.0066369755	 0.445284
C	-0.9810633858	-0.9535568517	-0.0922649436	-0.38697
C	-0.0329500692	-1.8322313813	-0.9349563557	 0.122139
C	-0.3865966507	-2.0246916588	-2.3938110785	-0.109099
O	 0.6667642669	-2.6907956011	-3.0873384473	-0.182139
C	 1.5888219557	-1.9216357137	-3.714182253	 0.182187
O	 2.5365501304	-2.3885410356	-4.2654532537	-0.266312
O	 1.0340604698	-0.8399942374	-0.7718144546	-0.265295
H	 1.395431526	 1.3928949479	 0.3720600707	 0.235785
H	-1.3060210146	-1.3747787891	 0.8594751894	 0.149815
H	-1.8431064055	-0.5398533786	-0.6204584418	 0.141088
H	 0.2690574165	-2.7795722448	-0.481374295	 0.117337
H	-1.2715638316	-2.6616151566	-2.4844357691	 0.136277
H	-0.6063347413	-1.0544091457	-2.8577825867	 0.12161
H	 1.3525863813	-0.842873211	-3.6649160491	 0.088668
