17
gdb 52357	8.9001	0.40203	0.39088	1.9282	82.7	-0.2617	-0.0644	0.1972	2575.4007	0.132098	-421.814794	-421.804346	-421.803402	-421.853454	33.717	
O	-0.0708185672	-0.1394965373	-0.1089736111	-0.230219
C	-0.0002650704	 1.0609494067	-0.0832311816	 0.156691
C	 1.2884422132	 1.8539870453	-0.1107795093	-0.276194
C	 1.313342028	 2.856882854	-1.2752502915	-0.188945
C	 2.5728264109	 3.7461686172	-1.2447404985	-0.363966
C	 2.6304538651	 4.7019830937	-2.3396939972	 0.060388
C	 2.6708724857	 5.4940017763	-3.2510716226	 0.077022
C	 2.6956222575	 6.4236623095	-4.3509191975	 0.017635
O	 3.4963947146	 7.322157181	-4.4716958278	-0.226685
H	-0.9213603264	 1.6892344718	-0.0402036274	 0.075197
H	 1.3579281238	 2.4030829284	 0.840097761	 0.122622
H	 2.1276837884	 1.1538815961	-0.1609430589	 0.127641
H	 1.2755432388	 2.3206395792	-2.2293817081	 0.13071
H	 0.4238207446	 3.4962736416	-1.2390611956	 0.121494
H	 2.6220937643	 4.2893763805	-0.2915185987	 0.146436
H	 3.4722442725	 3.1169499934	-1.2769814819	 0.150969
H	 1.9014244366	 6.2526920325	-5.1061284634	 0.099206
