20
gdb 105270	2.58114	1.35514	1.02921	1.6176	74.68	-0.234	0.0662	0.3002	1203.8564	0.169645	-440.213867	-440.204407	-440.203462	-440.248663	35.209	
C	-1.9332425664	 0.0429549856	 0.9429977316	-0.267487
O	-0.5877398626	 0.121932907	 0.4775196795	-0.291876
C	 0.344467808	-0.4595330032	 1.3631293162	 0.346015
C	 1.7238639342	 0.1578674466	 1.2334864773	-0.394161
C	 0.8497126095	 0.498343554	 2.418319665	 0.086795
O	 0.2688510007	 1.7601206507	 2.5316252412	-0.434837
C	 0.193337218	-1.9338620449	 1.6471667421	-0.107963
C	-0.1921748642	-2.8547285657	 0.5436113462	-0.227058
N	 1.1623193651	-2.9088933388	 1.1047879034	-0.313735
H	-2.5479514954	 0.5705547391	 0.2101393199	 0.128691
H	-2.2734531825	-0.9973343836	 1.0092545746	 0.12335
H	-2.0443340122	 0.5190777867	 1.9250296299	 0.12811
H	 2.5906589522	-0.4761398713	 1.3877726033	 0.122607
H	 1.8380414243	 0.9221399264	 0.4715590108	 0.123011
H	 1.1228513577	 0.1081415388	 3.3934838196	 0.11295
H	-0.12256645	 1.9568439803	 1.6708632049	 0.290073
H	-0.1305484803	-2.1855703005	 2.6546200351	 0.098769
H	-0.8149041472	-3.7201650457	 0.7521617768	 0.117654
H	-0.3332938992	-2.4124262921	-0.4384433083	 0.125972
H	 1.8000556402	-2.4206584891	 0.478921171	 0.233119
