10
gdb 21744	5.79022	2.4188	1.7061	6.1285	52.6	-0.274	-0.0405	0.2335	657.5523	0.063252	-409.604015	-409.599094	-409.59815	-409.633018	18.655	
O	-0.0567836359	 1.3282919161	 0.0097844402	-0.203249
C	 1.2622862099	 1.758542867	-0.000398545	-0.032498
C	 2.1218475127	 0.7179766423	-0.0142927743	-0.111083
N	 1.3024703337	-0.4088486515	-0.0127276374	 0.015407
N	 1.319276265	-1.7654415731	-0.0203423066	-0.158842
N	 0.0601970898	-2.1051644225	-0.0102021097	-0.09215
N	-0.79495922	-1.0375490492	 0.0038122288	-0.342792
C	 0.0178838079	-0.0113606941	 0.0016933176	 0.556493
H	 1.4089323581	 2.8243646888	 0.0040697578	 0.179889
H	 3.1962765288	 0.6820772162	-0.0247181113	 0.188824
