19
gdb 117102	2.46104	1.03245	0.77246	3.5266	79.41	-0.2379	0.0223	0.2602	1500.2508	0.157625	-419.200121	-419.189539	-419.188595	-419.237019	37.507	
C	 0.009740036	 1.3936598752	 0.13725932	-0.3739
C	 0.3257707254	-0.0609452482	-0.2131655692	-0.146122
N	 1.0955574717	-0.730027803	 0.8254236024	-0.322062
C	 0.6482732585	-1.8120966186	 1.5014619323	 0.412435
O	-0.429146004	-2.3516980991	 1.3138809638	-0.386142
C	 1.5707483304	-2.3414640543	 2.6479395585	-0.254907
N	 1.3573112011	-3.7669093047	 2.9105459521	-0.50465
C	 2.9839821351	-2.0386235881	 2.4432713796	 0.320106
C	 4.141422848	-1.7760933875	 2.248488264	-0.450415
H	 0.9254266621	 1.9764267264	 0.2860705802	 0.114752
H	-0.5573352218	 1.8646137431	-0.6716579433	 0.122825
H	-0.5834891147	 1.4529676191	 1.0542770688	 0.131387
H	-0.5907935893	-0.6422059805	-0.3323356863	 0.151368
H	 0.8757720031	-0.1104970489	-1.1614952257	 0.110212
H	 2.031754842	-0.4111850663	 1.0253120879	 0.25156
H	 1.2333135083	-1.7904302038	 3.5399916335	 0.139278
H	 0.3619114044	-3.9291907423	 2.7581516992	 0.247253
H	 1.8322681815	-4.3015329796	 2.1870449142	 0.23141
H	 5.1698950421	-1.5585701289	 2.0953397076	 0.205612
