20
gdb 91030	2.15394	1.89711	1.57304	1.3596	78.09	-0.2137	0.0605	0.2742	989.4621	0.170962	-403.074333	-403.066236	-403.065292	-403.106206	32.843	
C	-0.0423169884	 1.4706056796	 0.0099867265	-0.472883
C	-0.0411937257	-0.0412528715	-0.0374274186	 0.357409
C	-1.2588761826	-0.7009260651	 0.6329881553	-0.113003
C	-1.1634524917	-2.1998935365	 0.679249697	-0.306906
C	-0.267495414	-1.3890256511	 1.5750702019	-0.015659
N	 0.8957338888	-0.7499085989	 0.916463097	-0.161107
C	 1.5265000369	-1.500097832	-0.22080689	-0.225605
C	 0.6585951531	-0.7170893634	-1.2558248714	 0.034901
O	-0.2041952714	-1.4388217674	-2.1057393775	-0.422244
H	 0.9497173928	 1.8716231317	-0.2201570501	 0.115532
H	-0.7571985729	 1.8741425289	-0.7172836353	 0.118282
H	-0.3289226533	 1.8245265943	 1.0051551149	 0.123613
H	-2.1734881872	-0.1673972935	 0.8623769131	 0.084197
H	-1.984708595	-2.674950187	 1.2086089676	 0.108359
H	-0.8028279547	-2.7606849471	-0.1734659496	 0.126431
H	-0.2798051373	-1.4991239586	 2.6540729642	 0.088832
H	 2.6033241482	-1.3148923446	-0.2793322149	 0.098147
H	 1.350823568	-2.5797797688	-0.2150655843	 0.106441
H	 1.2488660836	 0.0087365498	-1.8316759562	 0.068649
H	 0.310333373	-1.763152419	-2.8515335696	 0.286613
