15
gdb 132187	1.86666	1.80555	0.92308	6.2155	72.04	-0.2197	-0.0149	0.2048	1176.3716	0.112475	-461.977471	-461.96953	-461.968586	-462.010001	29.825	
C	-0.0194007283	 1.5111090622	 0.0831320539	-0.493083
C	-0.0007943453	 0.01600121	-0.0344279658	 0.41463
C	-0.0213118452	-0.6788050906	-1.1948726824	-0.34152
C	-0.0009241917	-2.1475376428	-1.2498373081	 0.41889
O	-0.0193716686	-2.7749686918	-2.3024536006	-0.400524
C	 0.0437336793	-2.7918842552	 0.0671787311	-0.456529
C	 0.0620745516	-2.0379629319	 1.1804125492	 0.425259
F	 0.102137349	-2.5330011751	 2.4118266168	-0.062215
N	 0.0413078285	-0.6746248183	 1.1638083836	-0.448374
H	 0.875707848	 1.8795715468	 0.5984250322	 0.141671
H	-0.0558927826	 1.9689563017	-0.905712621	 0.155012
H	-0.8923828183	 1.853461504	 0.6516280769	 0.141466
H	-0.0543034205	-0.1496387945	-2.1392842878	 0.110082
H	 0.06163857	-3.8707787873	 0.1359298803	 0.126375
H	 0.057442974	-0.1870456271	 2.0453857518	 0.268859
