19
gdb 37985	3.07379	1.6479	1.27093	1.4997	74.81	-0.2347	0.0724	0.3072	1010.4095	0.161861	-422.95191	-422.945071	-422.944126	-422.982992	28.141	
C	-0.033732589	 1.3300026128	 0.1667579163	-0.083301
C	 1.3326998823	 1.9954077115	 0.0367977656	-0.256639
C	 2.1018540217	 1.7175759638	-1.2495695703	 0.04054
C	 1.4476636886	 1.4034365254	-2.6252792745	-0.012732
O	 2.7713724658	 0.9207780073	-3.0819259748	-0.306281
C	 2.56811503	 0.3124522141	-1.7431430045	 0.009954
C	 1.1343598028	-0.0673135736	-2.2011079931	 0.02132
C	 0.022165075	-0.5415656862	-1.2738360571	-0.141761
O	 0.0505281475	-0.0768905879	 0.0578481618	-0.235733
H	-0.4578775818	 1.5440268879	 1.1537278838	 0.106149
H	-0.7337873318	 1.730952022	-0.5852825824	 0.087559
H	 1.1933768102	 3.0808487137	 0.1281360279	 0.100941
H	 1.95516849	 1.6937439615	 0.888770409	 0.112205
H	 2.9178296691	 2.4350497261	-1.3706984423	 0.085858
H	 0.8973055439	 2.0584702398	-3.3031806273	 0.087311
H	 3.3654402913	-0.3241554897	-1.3568617808	 0.091531
H	 1.1604140574	-0.7193601102	-3.080051518	 0.087347
H	-0.9506168605	-0.3048471145	-1.741278071	 0.091456
H	 0.0840555674	-1.6326036136	-1.1986937381	 0.114275
