21
gdb 62067	3.48893	0.76362	0.66041	1.6483	80.42	-0.2487	-0.0226	0.2262	1721.1139	0.179407	-424.213054	-424.202829	-424.201885	-424.249564	36.145	
C	-0.3752890042	 1.6749125077	 0.4442944269	-0.402449
C	 0.0727991702	 0.2662234096	 0.0123876127	-0.101213
C	 0.8626980199	-0.4642430609	 1.0930138382	-0.055494
O	 2.0341877064	 0.2894542755	 1.3603255203	-0.259526
C	 2.8313947209	-0.2705472307	 2.3561788279	 0.150191
C	 3.8161598457	-1.3523886358	 1.9911914222	-0.286305
C	 4.2872424181	 0.0553531529	 2.3043441038	-0.288481
C	-1.1224479057	-0.5411061892	-0.4451407372	 0.153066
O	-1.434599644	-1.6238378508	-0.0174510274	-0.246506
H	 0.4980283527	 2.2720297487	 0.7113439149	 0.14807
H	-0.915243921	 2.1852905678	-0.3595411167	 0.117509
H	-1.0348713929	 1.6234505525	 1.3173667609	 0.125162
H	 0.7198706926	 0.3810804937	-0.8715150342	 0.106779
H	 0.251294467	-0.5661880301	 2.0034323116	 0.097476
H	 1.1187533436	-1.4796944033	 0.7624578495	 0.107059
H	 2.3477725978	-0.3322405583	 3.3322183756	 0.084312
H	 4.0128868423	-2.144470942	 2.7051668802	 0.114441
H	 3.8443178734	-1.6579567176	 0.9512311888	 0.119122
H	 4.6145617939	 0.6624130817	 1.4680895082	 0.124048
H	 4.8103203254	 0.2411171852	 3.2354458057	 0.114684
H	-1.7304635221	-0.0424064467	-1.2360792619	 0.078054
