20
gdb 110624	2.5068	1.34938	1.06549	1.6317	79.4	-0.2163	0.0688	0.2851	1203.9429	0.17002	-403.045356	-403.036539	-403.035595	-403.078689	33.979	
C	-0.4503264547	 1.6684057538	 0.3379036312	-0.469883
C	-0.300275366	 0.2164087049	 0.0017621792	 0.31391
C	-0.934016216	-0.9046597001	 0.7934520624	-0.032476
C	-1.9680801909	-1.9798045726	 0.4727854994	-0.139366
O	-2.6809235431	-2.2108342332	 1.6835936977	-0.436395
C	 0.5601011235	-0.8921183852	 0.5981821857	-0.162092
C	 1.0103829817	-1.1939655516	-0.8387675354	-0.031172
C	-0.0574528984	-1.4395338401	-1.8318362043	-0.257677
N	 0.2126582237	-0.052225771	-1.4095736173	-0.17892
H	 0.4370197433	 2.2297142621	 0.0290164067	 0.127668
H	-1.3133054194	 2.0987297576	-0.1846209517	 0.12398
H	-0.5992589489	 1.8097729305	 1.4124168848	 0.117315
H	-1.1685903087	-0.5124837534	 1.7827028399	 0.112008
H	-2.6543144403	-1.6421293256	-0.3203332502	 0.098647
H	-1.481457511	-2.9036962959	 0.1291082258	 0.100271
H	-3.3347129182	-2.8968674473	 1.518439155	 0.284444
H	 1.2605648636	-0.8504661007	 1.4232200267	 0.090464
H	 2.0603372799	-1.3019862628	-1.0925469401	 0.098979
H	 0.2702665534	-1.6121302544	-2.8545382921	 0.119939
H	-0.9912315036	-1.924964715	-1.5892018436	 0.120356
