20
gdb 6563	3.00294	1.93239	1.48631	1.4211	75.72	-0.2441	0.0731	0.3172	947.9906	0.175885	-348.968632	-348.960169	-348.959225	-349.000683	32.907	
C	-0.0313834142	 1.4902939663	-0.0031313478	-0.513069
C	-0.0057086416	-0.0140500648	-0.0069971937	 0.287659
C	 0.6170462162	-0.9645725285	-1.0732666068	-0.290096
C	 0.0185379924	-1.9271015923	-0.0038984148	 0.287686
C	 0.0309089327	-3.4315933404	 0.00489396	-0.513082
C	 0.630282899	-0.9609402099	 1.061432395	-0.328825
C	-1.2297379175	-0.9862819976	-0.0310789857	 0.126085
O	-2.1821917009	-0.9967322127	 0.9978960107	-0.454857
H	 0.978443942	 1.9092319483	 0.0659883308	 0.116758
H	-0.4943977372	 1.8768174947	-0.9176910972	 0.119721
H	-0.6111144096	 1.8665015608	 0.8471749601	 0.119511
H	 0.1486872768	-0.9721256297	-2.0630511118	 0.085112
H	 1.7075927596	-0.9508501398	-1.147861645	 0.088953
H	 1.0509025629	-3.8246545811	 0.0766809179	 0.116754
H	-0.540286587	-3.8195183422	 0.8557130349	 0.119526
H	-0.4209533916	-3.8326956639	-0.9089649853	 0.119716
H	 1.7222713084	-0.9469990233	 1.1308403515	 0.089718
H	 0.2017464153	-0.9647277029	 2.0707150019	 0.069287
H	-1.8042000105	-0.9950620298	-0.9629451761	 0.073002
H	-1.7309735553	-0.9894603912	 1.8481396115	 0.28044
