25
gdb 85939	2.43457	1.2839	1.09173	1.3812	88.45	-0.2358	0.0753	0.3111	1305.5777	0.227547	-389.522681	-389.512388	-389.511444	-389.557225	40.019	
C	-0.196598195	 1.5757055739	-0.0467542892	-0.420012
C	 0.0330896577	 0.0669582097	 0.0173438273	 0.012491
C	 0.8201514215	-0.5275643869	-1.1596871183	-0.271658
C	 1.2855009171	-1.8964838749	-0.6222410166	 0.397586
C	 0.2719886651	-3.0092878662	-0.9236457115	-0.411783
C	 2.6787356983	-2.2932609911	-1.115039575	-0.422605
O	 1.3516392724	-1.728861658	 0.8114549343	-0.317911
C	 0.8404851614	-0.459466341	 1.2265111655	 0.127707
C	 1.9893851145	 0.4345604388	 1.6976382263	-0.394885
H	 0.745434372	 2.1273149018	-0.1255611983	 0.118271
H	-0.8055628343	 1.8361563283	-0.918602628	 0.114358
H	-0.7241211089	 1.9382470792	 0.8422894748	 0.114697
H	-0.9476097606	-0.4238536634	 0.0516254753	 0.076811
H	 0.2211806594	-0.6191298493	-2.0699394727	 0.096995
H	 1.6843800674	 0.1039413615	-1.3969496922	 0.092854
H	 0.253838998	-3.2476333782	-1.9926050848	 0.106352
H	 0.5395236049	-3.9152397836	-0.372302553	 0.120238
H	-0.7375324416	-2.7165543416	-0.6198415391	 0.109652
H	 3.4119848745	-1.5246687637	-0.8545488224	 0.111746
H	 2.993668165	-3.2344554539	-0.6541399395	 0.118739
H	 2.6860393167	-2.4254397486	-2.2022664634	 0.107883
H	 0.1740768781	-0.6414612931	 2.0803279048	 0.070054
H	 2.6543449096	 0.7116036994	 0.8730725378	 0.111327
H	 1.615098131	 1.352746686	 2.1620483766	 0.108733
H	 2.5833797157	-0.1061936453	 2.4395024313	 0.122361
