16
gdb 97432	4.88962	0.6951	0.64482	2.4629	71.33	-0.2503	-0.1124	0.1378	1698.5053	0.119859	-475.021302	-475.01139	-475.010446	-475.057686	32.966	
C	-0.0060564114	 0.9248759651	-0.510498628	-0.315494
N	-0.1986922056	-0.0921919984	 0.501434498	-0.204217
C	-1.0868175919	-0.9528150365	 0.2983505437	 0.149268
O	-1.3276034257	-1.9154342349	 1.2261482046	-0.187781
C	-2.2935922035	-2.879888216	 0.894874315	-0.203794
C	-1.8003853492	-3.8845477025	-0.1378940008	 0.274432
O	-0.7915493174	-3.7551695004	-0.7848524229	-0.25312
C	-2.6867330314	-5.1162481854	-0.3592180392	 0.089753
O	-3.7156618084	-5.2945927655	 0.23798078	-0.213454
H	 1.0250734964	 0.8828240619	-0.8784617902	 0.133073
H	-0.6850860118	 0.8340692893	-1.374034864	 0.097048
H	-0.1454379521	 1.9161443182	-0.0647416729	 0.129731
H	-1.7389950614	-1.001137972	-0.5867053495	 0.075111
H	-2.5561378677	-3.4082289028	 1.8155429668	 0.164786
H	-3.2271510796	-2.4314686899	 0.5193999474	 0.144102
H	-2.2845845393	-5.8136387301	-1.122871788	 0.120555
