19
gdb 60690	3.67698	0.92333	0.89886	2.5352	81.28	-0.2379	-0.0624	0.1756	1377.3416	0.157511	-419.212393	-419.202851	-419.201907	-419.246693	35.698	
C	 0.0569570881	 1.6616885962	-0.0223671815	-0.445941
C	 0.0170331886	 0.1453622024	 0.0757887033	 0.339449
C	 1.2624024436	-0.6565647001	-0.2769613854	-0.320273
C	 0.8025163255	-0.5233632188	 1.1625960426	-0.304059
N	-1.2789483102	-0.4227420811	-0.2156522607	-0.314295
C	-1.6317433004	-0.5250254216	-1.4456558428	 0.258049
N	-0.963961095	-0.1666594472	-2.5810832362	-0.54819
C	-2.9884925386	-1.1155080056	-1.6911527494	 0.137376
O	-3.4223291632	-1.3316089165	-2.797455895	-0.26943
H	 1.0476104003	 2.0406342167	 0.2456850945	 0.114326
H	-0.1796659501	 2.006991248	-1.0341249174	 0.12163
H	-0.6749428425	 2.1020880923	 0.6621638376	 0.130828
H	 1.1273692674	-1.623179487	-0.7505414435	 0.115454
H	 2.1580352913	-0.1251751967	-0.5845028165	 0.109294
H	 1.3904718474	 0.0933892558	 1.8339489445	 0.108891
H	 0.3537435089	-1.3977363617	 1.6204572808	 0.120721
H	 0.0337964441	-0.0421469784	-2.5378818916	 0.268001
H	-1.359682617	-0.5145230596	-3.4423974411	 0.26898
H	-3.5404384282	-1.3419869069	-0.7603037321	 0.109188
