15
gdb 35454	2.47343	1.41619	1.10683	4.8845	75.06	-0.2943	-0.0086	0.2856	1098.1473	0.113792	-379.671883	-379.664146	-379.663201	-379.704445	28.716	
N	 0.0288564504	-1.1870319043	-0.0902793885	-0.320439
C	 0.0129328947	-0.0320444837	-0.0461592192	 0.285805
C	 0.0064342837	 1.42147056	 0.0510213413	-0.22787
C	-0.2221958683	 2.0576773077	 1.4729763567	-0.244354
C	 1.1366733779	 2.7554138675	 1.3715357728	-0.092894
C	 2.2316428655	 1.7592312072	 1.1721864419	-0.326425
C	 1.3808785461	 2.1313520354	-0.0216656095	 0.221544
C	 1.9090099166	 2.7242554339	-1.2044856584	 0.196567
N	 2.3190285137	 3.2129726451	-2.1703606148	-0.33837
H	-0.6913792292	 1.8324366407	-0.6804692066	 0.14826
H	-1.0706274385	 2.7420394132	 1.4653049636	 0.13511
H	-0.3336405521	 1.3518297547	 2.2987761899	 0.134988
H	 1.3379392578	 3.7776726282	 1.663039854	 0.128011
H	 3.2373300827	 2.1630230234	 1.1469920179	 0.15192
H	 2.154194819	 0.7534061309	 1.5764136188	 0.148148
