21
gdb 119628	4.07166	0.879	0.81397	2.3609	77.88	-0.226	0.0775	0.3035	1456.1947	0.18292	-424.208119	-424.199118	-424.198174	-424.242221	33.905	
O	-0.0519120347	 1.4667317259	-0.3554486564	-0.419517
C	 0.030229298	 0.0529566594	-0.2556134135	-0.066914
C	-1.347753682	-0.4641174145	 0.1489807105	-0.286606
C	-1.4158879944	-1.9701514609	 0.2506492336	 0.319579
C	-1.6391110438	-2.8150058422	-1.0011982363	-0.376651
C	-2.6899609327	-2.7495200509	 0.0795978349	 0.070813
O	-2.7722016205	-3.7957726252	 1.0104942677	-0.258977
C	-1.4631044048	-4.0145379232	 1.5350131461	-0.093539
C	-0.6994203987	-2.6787347565	 1.3986033979	-0.298857
H	 0.8121803895	 1.8016410015	-0.6115282933	 0.285078
H	 0.3268403356	-0.4014120473	-1.214588561	 0.087844
H	 0.7796044647	-0.2497678553	 0.4935004085	 0.085669
H	-1.6234584153	-0.0079330181	 1.1084371836	 0.104888
H	-2.0733461952	-0.1043648278	-0.5900389085	 0.103569
H	-1.8454102792	-2.2783865035	-1.9218144559	 0.111663
H	-1.0795337744	-3.7341400931	-1.1392085657	 0.11237
H	-3.6554431775	-2.2927598454	-0.105742697	 0.101365
H	-1.5673570006	-4.3540800463	 2.5691745187	 0.110551
H	-0.957947863	-4.8105736158	 0.9701379493	 0.098152
H	 0.368775454	-2.8447990695	 1.2278315512	 0.102669
H	-0.802360925	-2.0732229916	 2.3066351556	 0.106849
