20
gdb 35248	2.9661	1.04613	0.86814	1.5707	86.1	-0.2427	0.0381	0.2808	1386.7162	0.170791	-365.938457	-365.929568	-365.928624	-365.972709	33.728	
C	-0.2395854536	-1.2551439481	 0.3069092877	-0.446502
C	-0.1330348303	-0.0613308054	 0.2096216225	 0.384218
C	-0.0298538482	 1.3637429565	 0.0535518407	-0.252162
N	 0.5907604639	 2.1349891457	 1.1589034756	-0.333755
C	 1.2833075243	 2.067586214	-0.1328993722	-0.040023
C	 2.5956784517	 1.3422326109	-0.1748375228	 0.066775
C	 3.1951277506	 0.9695685347	-1.5615140443	-0.23445
C	 4.5987567613	 1.3373436454	-1.0092442932	-0.209688
C	 3.9001843189	 2.139222591	 0.1222463741	-0.233046
H	-0.3308305022	-2.3083831678	 0.4054686947	 0.196896
H	-0.8826424989	 1.818510788	-0.446802833	 0.10757
H	 0.1042109624	 3.0219402704	 1.26214925	 0.235035
H	 1.2357241289	 2.9528263486	-0.769171619	 0.080423
H	 2.535810607	 0.4597285361	 0.4670111988	 0.089009
H	 3.0302055666	-0.0464926544	-1.9266884128	 0.102796
H	 2.8717116125	 1.6731832513	-2.3364691258	 0.093604
H	 5.1215586727	 0.4596719881	-0.6184987206	 0.103893
H	 5.2791884275	 1.8786436095	-1.6705905755	 0.094524
H	 3.7908570362	 3.1965286132	-0.1432036142	 0.092327
H	 4.3110688586	 2.0768636424	 1.1322060491	 0.102557
