14
gdb 45404	2.28892	1.80853	1.25827	4.8792	68.49	-0.2474	-0.0151	0.2323	990.9189	0.100331	-436.63418	-436.626586	-436.625642	-436.666346	28.587	
O	-0.0795108166	 0.0163450763	-0.461832501	-0.311519
C	-0.0408821034	 1.1331307289	-0.0743816311	 0.456807
O	-1.0231549822	 1.8382912582	 0.593022158	-0.260573
C	-0.2415482164	 3.0651492074	 0.6274094089	 0.046877
C	 0.625374481	 3.2052368899	 1.8871610428	-0.191753
N	 1.6505590516	 2.2975542306	 1.2943985077	-0.351471
C	 0.9579435089	 2.3231683428	-0.0360253328	 0.017463
C	 1.6970128536	 2.7064533982	-1.2002568909	 0.189469
C	 2.3320188939	 3.0260378285	-2.1698307544	-0.409954
H	-0.7915417394	 3.9060444594	 0.2128010109	 0.119863
H	 0.968511166	 4.2365463267	 2.0275283558	 0.118296
H	 0.1838877946	 2.8359705732	 2.8165929249	 0.131073
H	 2.5805399625	 2.6964882365	 1.2464259096	 0.238301
H	 2.8870341459	 3.2986901534	-3.0340056384	 0.207121
