20
gdb 7556	3.36737	1.27631	1.0609	2.4481	72.67	-0.2533	0.0836	0.337	1201.9705	0.173726	-386.117617	-386.10785	-386.106906	-386.152257	34.45	
C	 0.1830561427	 1.3854004829	-0.1567236386	-0.222961
O	 0.2356767613	-0.0197350538	-0.1259791018	-0.233207
C	 0.4661407382	-0.5314849438	 1.1693704833	-0.117647
C	 0.5040210455	-2.0435077741	 1.0960127915	 0.376032
C	-0.6420405092	-2.6760486653	 0.3357731864	-0.459264
O	 1.796025756	-2.6197532606	 0.8314425604	-0.294889
C	 1.2152441032	-2.8296254393	 2.1227279749	 0.025934
C	 1.9480421746	-2.2841334922	 3.3243099404	-0.428089
H	 1.1295418661	 1.8379490987	 0.1792054308	 0.105913
H	-0.0022488217	 1.6831804895	-1.1915090528	 0.129011
H	-0.6277610777	 1.7785721662	 0.4778587336	 0.101824
H	 1.4143530974	-0.1459858599	 1.5682734026	 0.093149
H	-0.3417609412	-0.2141658517	 1.8538383285	 0.083932
H	-0.6579067163	-2.3099393945	-0.6930916017	 0.145787
H	-0.5363173365	-3.7633730348	 0.3244884821	 0.120368
H	-1.6022763707	-2.4212346665	 0.7980314338	 0.113891
H	 0.8441982374	-3.8479222227	 2.2673669459	 0.080666
H	 2.3175729812	-1.270355042	 3.1618226196	 0.127286
H	 1.2925565839	-2.2821709332	 4.2022212807	 0.121423
H	 2.8084087056	-2.9215186229	 3.5544727305	 0.13084
