22
gdb 96275	1.98465	1.73447	1.09718	3.2133	82.94	-0.2509	0.0324	0.2834	1190.9744	0.196646	-404.372885	-404.364096	-404.363152	-404.406747	34.061	
C	 0.7732608719	 1.3479934126	 0.3321235166	-0.394109
C	-0.0728671718	 0.1562445957	-0.135914955	 0.028055
C	 0.6926919959	-0.6352787403	-1.2118049191	-0.187538
C	 0.0265316402	-1.9223038082	-1.7197531026	-0.228746
C	-0.3307288788	-2.9304664977	-0.6097361678	-0.081086
O	 0.5595759257	-2.8847677841	 0.5097367837	-0.245903
C	 0.5025298491	-1.8278918703	 1.3782577324	 0.392602
N	 1.2729441058	-1.7756855645	 2.3845715251	-0.515926
C	-0.4828379694	-0.7236472735	 1.0844599353	-0.297507
H	 1.6607573242	 0.9981509188	 0.8704738669	 0.137952
H	 1.1055703631	 1.9568241735	-0.5153329086	 0.107947
H	 0.2061607101	 1.9936099798	 1.0100823907	 0.112754
H	-0.9977281563	 0.5422053925	-0.5840402723	 0.071253
H	 0.8758418284	 0.0228106928	-2.0687631152	 0.094711
H	 1.6821704749	-0.8910993359	-0.8133541089	 0.11805
H	-0.8902916031	-1.6880563627	-2.2751049376	 0.101073
H	 0.7081644432	-2.3957997996	-2.4347025069	 0.107851
H	-1.3622552062	-2.7937926707	-0.2693928086	 0.110569
H	-0.2513508818	-3.9549506408	-0.9811032642	 0.117429
H	 1.8727434857	-2.6042968989	 2.4037161044	 0.213428
H	-0.5425249105	-0.1092762212	 1.9837068497	 0.128211
H	-1.4772218102	-1.1505908273	 0.922681652	 0.10893
