19
gdb 40631	3.5868	1.14417	1.13212	2.0473	74.45	-0.2478	0.0786	0.3264	1161.7729	0.160975	-422.976186	-422.968812	-422.967868	-423.008577	28.993	
C	 0.2387647586	 1.5876815076	-0.0027165292	-0.185825
O	 1.3027389604	 0.6436635177	-0.0938881018	-0.235511
C	-0.0436116306	 0.147491809	-0.0970182355	 0.047931
C	-0.4489819736	-0.6474691503	 1.1086168365	 0.001786
C	-1.9111698638	-1.0956002292	 1.3759065927	 0.051043
C	-2.3344884675	-1.8538388254	 0.0988974589	-0.223058
C	-1.0489639638	-2.7311148277	-0.0445907357	-0.224533
C	-0.3048670658	-2.1919156179	 1.1951813197	 0.056505
O	-1.3705706612	-2.1761379479	 2.197012674	-0.298628
H	 0.1397782417	 2.0899854885	 0.9590247898	 0.114941
H	 0.0979849573	 2.2243475561	-0.8751891354	 0.115893
H	-0.3602505883	-0.2321568855	-1.0681371803	 0.095525
H	-0.0328447179	-0.1984380007	 2.0127241352	 0.093392
H	-2.6413282541	-0.467114687	 1.8859827053	 0.079751
H	-3.2318520942	-2.4482814953	 0.2797551593	 0.111097
H	-2.5207426193	-1.1968823682	-0.7552214817	 0.099321
H	-1.2541296647	-3.7981747538	 0.0574743105	 0.11117
H	-0.5058372711	-2.5714566531	-0.9800073563	 0.103804
H	 0.6108643681	-2.683002657	 1.522377764	 0.085398
