13
gdb 33328	3.14147	0.86891	0.71054	4.5259	86.64	-0.254	-0.0371	0.2169	1494.4356	0.087996	-378.391182	-378.382694	-378.38175	-378.425116	30.419	
C	-0.0841782696	-3.8112406555	-0.0234817328	-0.550635
C	-0.0484992469	-2.6046389414	-0.0048424009	 0.297926
C	-0.0103944848	-1.2460748903	 0.014853368	-0.191522
C	 0.0275935874	-0.0369733282	 0.0374999838	 0.495465
C	 0.0456391575	 1.3933582198	 0.0232344689	-0.324337
N	 0.5318669597	 2.0923881709	 1.2266100405	-0.294007
C	 1.3306068413	 2.1894580491	-0.0005685283	-0.184416
C	 2.6210926278	 1.5450514729	 0.0026461894	 0.341758
N	 3.6637389587	 1.0483699631	-0.0329032174	-0.319286
H	-0.1103738632	-4.8728539315	-0.0379744866	 0.199536
H	-0.7707296101	 1.8559855645	-0.5290207955	 0.132977
H	 0.0111686878	 2.954745488	 1.367704699	 0.254284
H	 1.3049010244	 3.1143471886	-0.5712108082	 0.142257
