25
gdb 100299	1.88106	1.34699	1.03176	0.3611	84.55	-0.2595	0.0678	0.3272	1354.7226	0.225858	-426.628543	-426.616763	-426.615819	-426.664999	43.762	
C	-0.069172645	 1.5878200968	 0.1393975016	-0.395928
C	 0.0260233466	 0.0608127262	 0.0411310781	-0.214816
C	 0.691758942	-0.4768749626	-1.2473049727	 0.34325
O	 0.0395369527	 0.0417967465	-2.4134489713	-0.480946
C	 2.1187485778	 0.073565511	-1.3829621888	-0.113196
O	 2.9041013005	-0.4485958917	-0.3194626613	-0.425063
C	 0.6837411735	-2.0399761136	-1.2591000077	 0.049181
C	-0.7388281713	-2.6172706041	-1.3650409492	-0.42696
C	 1.5533336337	-2.6249750477	-2.3830865716	-0.412561
H	 0.908025069	 2.0490799124	 0.3091746031	 0.119756
H	-0.4881092743	 2.0137140914	-0.776931653	 0.120117
H	-0.7131016769	 1.8771181969	 0.9756267011	 0.106794
H	 0.5803310413	-0.3340484138	 0.8987887515	 0.115297
H	-0.9855078084	-0.356227984	 0.1088790312	 0.084895
H	-0.8993271285	-0.1547992519	-2.3373239325	 0.279647
H	 2.5169672135	-0.2133263593	-2.3638951711	 0.097933
H	 2.0798876826	 1.1698075815	-1.3559420854	 0.094706
H	 3.7902320031	-0.0845160456	-0.3944771463	 0.290756
H	 1.1110140389	-2.3579980794	-0.3014237002	 0.086334
H	-0.7024185858	-3.7102069625	-1.3233877837	 0.115926
H	-1.4000277753	-2.28683786	-0.5593659785	 0.113797
H	-1.2043391287	-2.3526000917	-2.3221815183	 0.109132
H	 2.6145735669	-2.4272261967	-2.2154212012	 0.11945
H	 1.4262821866	-3.711066547	-2.4358928928	 0.100832
H	 1.2671632455	-2.2053495012	-3.3532126011	 0.121668
