13
gdb 5362	5.3864	1.6205	1.24573	3.5652	68.89	-0.2556	-0.0727	0.1829	895.9881	0.097906	-361.534362	-361.528189	-361.527244	-361.56483	22.894	
O	-0.8672199572	 1.127828931	 0.2354165591	-0.258496
C	 0.2590277978	 0.8361937165	-0.0893221187	 0.106899
C	 1.410380604	 1.7820788225	-0.0547629397	 0.222025
N	 2.5857640666	 1.2759440136	-0.4530281963	-0.301775
C	 3.6394330362	 2.0909130174	-0.4363231665	-0.004127
C	 3.5724753578	 3.4240138543	-0.0294375407	-0.111613
C	 2.3458237888	 3.9384573463	 0.3821503764	-0.079747
C	 1.2383528806	 3.1006711588	 0.3701376598	-0.149962
H	 0.5365427873	-0.1769544163	-0.4465762913	 0.092495
H	 4.5846468075	 1.6637095589	-0.762558727	 0.117615
H	 4.4650782542	 4.0396629823	-0.0373131822	 0.113916
H	 2.2574522368	 4.9704268623	 0.7048754903	 0.119275
H	 0.2525084797	 3.4300952624	 0.6761728366	 0.133497
