17
gdb 85068	2.59578	1.49012	1.12659	1.0673	63.62	-0.2575	-0.0375	0.22	1075.9492	0.135351	-496.122839	-496.114393	-496.113449	-496.155924	32.384	
O	 0.1867984391	 1.3687193215	-0.214513247	-0.437731
C	 0.0272954612	-0.0251816653	-0.1394805411	 0.132169
C	 0.8181626419	-0.6981417229	 1.0201728643	-0.35841
C	-0.1408876286	-1.7148426215	 1.6109499323	 0.372124
O	-0.0840503362	-2.2835054862	 2.6735180668	-0.328175
C	-1.3560222893	-1.8417070036	 0.6848293844	 0.010295
O	-2.5057378208	-2.2178664816	 1.399373384	-0.447644
C	-1.4500507409	-0.4319431541	 0.0961690853	 0.054418
O	-1.958637617	 0.4430911993	 1.0901824657	-0.460185
H	-0.3985096436	 1.7420623434	 0.4580564273	 0.297814
H	 0.3600641334	-0.4281626068	-1.1016013117	 0.094031
H	 1.7439390809	-1.1756445373	 0.6854289904	 0.13922
H	 1.0935666321	 0.0302955649	 1.7881830268	 0.149597
H	-1.1192012405	-2.5663325527	-0.1133640499	 0.101969
H	-2.1759084099	-2.6021960391	 2.228060499	 0.300415
H	-2.0485372481	-0.3746905467	-0.8211512034	 0.081743
H	-2.6333000638	-0.0587139013	 1.568853107	 0.298349
