15
gdb 48573	5.91386	0.94817	0.93835	2.3243	74.9	-0.2564	-0.0474	0.209	1230.4464	0.109293	-420.524507	-420.516219	-420.515275	-420.55812	30.521	
O	-0.1679799231	 0.1708620654	-0.2947650015	-0.244874
C	 0.1238310318	 1.205357809	 0.2478566387	 0.034134
C	 1.4286118019	 1.9012198967	 0.0368367415	 0.298555
C	 2.8735182278	 1.3456267024	 0.0551497221	-0.283102
C	 2.923729922	 2.9002538898	-0.011794017	 0.329907
C	 1.8275459006	 2.8708393431	-1.1155252816	-0.282223
O	 1.829374883	 2.9407615991	 1.0103210293	-0.36393
C	 4.04356538	 3.7782163365	 0.1278046046	 0.069286
C	 4.9962235908	 4.5050445776	 0.2196980497	-0.342029
H	-0.5655346791	 1.7345508809	 0.9413608173	 0.102066
H	 3.1900472541	 0.9185207224	 1.0062275808	 0.126037
H	 3.2208516268	 0.7867217826	-0.8148442311	 0.11814
H	 2.0849018145	 2.4365910977	-2.0830469779	 0.118717
H	 1.2252957703	 3.7763574473	-1.1841492269	 0.126122
H	 5.8360608384	 5.1499027494	 0.3068704222	 0.193193
