23
gdb 93837	2.38445	1.43864	1.1735	3.078	80.81	-0.245	0.0552	0.3002	1182.5583	0.207471	-425.454118	-425.445074	-425.44413	-425.487043	36.46	
C	-0.0606494696	 1.5730651265	 0.0210858814	-0.406051
C	 0.031212826	 0.0457385341	 0.0026683957	 0.034539
C	 0.7256894629	-0.4744390204	-1.2668942111	-0.192746
C	 0.8036732024	-2.0074316631	-1.2838522167	-0.243789
C	 1.4780679553	-2.5679349582	-0.0251710676	 0.124331
O	 2.8664892843	-2.1922548014	 0.0390983589	-0.437635
C	 0.8213860003	-2.0261551091	 1.2487050149	-0.250103
C	 0.7501561096	-0.4895879131	 1.2645687759	 0.14037
O	 2.0390900938	 0.0911658051	 1.423446019	-0.453098
H	 0.9393413584	 2.011749588	 0.0766300654	 0.131979
H	-0.558907546	 1.9514891197	-0.8777983007	 0.099671
H	-0.6259194429	 1.9241760379	 0.8913456603	 0.105739
H	-0.9896956495	-0.366432102	 0.0222686632	 0.057887
H	 0.1974998371	-0.1180775774	-2.158120049	 0.089716
H	 1.7367367085	-0.0520555846	-1.3153789155	 0.097834
H	-0.2068340632	-2.4326614662	-1.3462396625	 0.099743
H	 1.3377796118	-2.3624049113	-2.1760862235	 0.082065
H	 1.40943425	-3.6657830368	-0.0322139277	 0.066541
H	 3.2728697194	-2.3812318248	-0.8129543671	 0.286614
H	-0.1911714359	-2.4406183065	 1.3178072914	 0.097324
H	 1.3811061376	-2.3753093845	 2.1224238828	 0.110908
H	 0.1730566339	-0.1750351826	 2.1441376506	 0.066909
H	 2.6595606957	-0.4709076291	 0.9394357118	 0.291252
