19
gdb 91168	2.43099	1.84518	1.51042	1.4438	74.5	-0.2436	0.0029	0.2465	968.1266	0.161009	-423.026757	-423.019312	-423.018367	-423.058081	30.81	
C	-0.1543759465	 1.5011002818	-0.0861880556	-0.409637
C	 0.0290440582	-0.0027096253	 0.0372369538	 0.138945
O	 0.7851913593	-0.5213955591	-1.0845906473	-0.319816
C	 1.9234242044	-1.2468731374	-0.5144046702	 0.010049
C	 2.8360373209	-0.2770136117	 0.193191344	-0.080738
C	 2.1701543089	 0.1418439315	 1.2795020412	-0.084623
C	 0.8212256685	-0.5327003686	 1.2741474797	-0.146134
C	 1.235281675	-1.9314992933	 0.6829255623	 0.169177
O	 0.1982844606	-2.8071360496	 0.3422266739	-0.45311
H	 0.8065827738	 2.0203101902	-0.0748740898	 0.123902
H	-0.6594689031	 1.7391672399	-1.0268188914	 0.124607
H	-0.7717293592	 1.8791781951	 0.7362337545	 0.110356
H	-0.9571011132	-0.4879227925	 0.0342849061	 0.072665
H	 2.3388805221	-1.875690366	-1.3002799107	 0.078563
H	 3.8073476318	 0.043895545	-0.1595429607	 0.103971
H	 2.4956011679	 0.8768026438	 2.0049978623	 0.103485
H	 0.2509699744	-0.5354713274	 2.2022843907	 0.072019
H	 1.9227472586	-2.4607005846	 1.3444330565	 0.092247
H	-0.1797607825	-2.482767182	-0.4851828795	 0.294071
