20
gdb 99608	2.18436	1.4331	0.97979	2.5068	79.65	-0.252	0.0209	0.2729	1261.245	0.170473	-399.305593	-399.295637	-399.294692	-399.340482	36.173	
C	 0.2428672431	 1.3458329209	 0.3289895979	-0.330854
N	 0.0035340125	-0.060172244	 0.0166352986	-0.266007
C	 0.5727682065	-0.5199825989	-1.2443620759	-0.180246
C	 2.0515783487	-0.3836882069	-1.2702677998	 0.26167
N	 3.2011872047	-0.2666434228	-1.2142709999	-0.340182
C	 0.1328284873	-1.9606644971	-1.5413907908	 0.309687
C	-1.3707313129	-2.1328708456	-1.6079386108	-0.443649
C	 1.0049537601	-2.8388788493	-2.3600370349	-0.284592
N	 0.8631050776	-3.0751735524	-0.9086354279	-0.350507
H	 1.3073596597	 1.6244933314	 0.3770783629	 0.126105
H	-0.2373844655	 1.9716547727	-0.4312125248	 0.129047
H	-0.2196974424	 1.5770084547	 1.291784044	 0.131266
H	 0.3314993335	-0.6534198914	 0.7720176988	 0.234061
H	 0.1764703726	 0.1305448057	-2.0360186236	 0.130735
H	-1.7889512563	-1.561597898	-2.4446151577	 0.113132
H	-1.6133460542	-3.1877436648	-1.7518125365	 0.129928
H	-1.8447139711	-1.7833108049	-0.688479219	 0.137828
H	 0.5423362299	-3.5908864981	-2.9931736986	 0.119337
H	 1.9507459207	-2.4520885278	-2.7272186008	 0.135272
H	 1.7031116255	-2.7376293835	-0.4407665712	 0.237969
