21
gdb 41563	2.84582	1.69274	1.56797	0.1627	85.36	-0.2318	0.0257	0.2575	980.3364	0.186079	-349.938096	-349.931152	-349.930208	-349.9692	29.374	
C	 0.4321402064	 1.6670967905	-0.2489342581	-0.229485
C	 1.6529456146	 1.4394474091	 0.6939021203	-0.22266
C	 1.3349913354	-0.0751282014	 0.7305599766	-0.021742
C	 0.0270926856	 0.1686555263	-0.1015275375	-0.028857
C	 0.508674372	-0.8375612519	-1.1904784444	-0.012677
C	 0.7989570673	-0.3544640482	-2.6266562758	-0.285483
C	 2.2753538253	-0.0189061639	-2.5830775295	-0.060018
C	 2.854060887	-0.3442519957	-1.4246200556	-0.081111
C	 1.8842725222	-0.9540966703	-0.4508446711	-0.065565
H	-0.312728032	 2.3658982602	 0.139713061	 0.095099
H	 0.6909634857	 1.9817105205	-1.2626746079	 0.102305
H	 2.6313094262	 1.7244668263	 0.2988081444	 0.094593
H	 1.5266163535	 1.9150537992	 1.6703452317	 0.092677
H	 1.3319508798	-0.5667081573	 1.7049262274	 0.055119
H	-0.970124301	-0.00884273	 0.3050908281	 0.056679
H	-0.0907210816	-1.7501586421	-1.1724952295	 0.063855
H	 0.5948139842	-1.1338867415	-3.3731406364	 0.100484
H	 0.1825725057	 0.506910058	-2.9153441244	 0.103664
H	 2.7915525016	 0.4241776227	-3.4290835173	 0.087879
H	 3.9058026727	-0.1996851428	-1.1991392317	 0.088458
H	 2.1926829695	-1.9550529978	-0.1306025802	 0.066787
