19
gdb 98347	4.13455	0.70827	0.68302	2.2038	73.43	-0.2598	-0.0404	0.2194	1654.5815	0.154995	-460.187204	-460.176571	-460.175627	-460.225178	36.112	
C	-0.1960412473	 1.632902239	-0.0021891258	-0.397483
C	-0.0722428212	 0.0934458413	 0.0050769308	-0.106053
C	 0.7103740765	-0.4095094723	 1.2370446872	-0.269892
C	 2.1663176715	-0.0054120604	 1.1709209868	 0.15193
O	 2.7353158067	 0.6697629573	 1.9881571968	-0.232218
C	-1.4704894658	-0.5071626395	-0.023132465	 0.360405
O	-2.1356330808	-0.6670410368	 0.9784982769	-0.331921
C	-2.0539483208	-0.9003185631	-1.3720177893	-0.135382
O	-3.3769269301	-1.3223875506	-1.2572232755	-0.417017
H	 0.7936583878	 2.0977684115	 0.0099193248	 0.140974
H	-0.7256421113	 1.9877179882	-0.8910693846	 0.128239
H	-0.7425840998	 1.9722742587	 0.8824019708	 0.147909
H	 0.4496303154	-0.2177361915	-0.9101282463	 0.090094
H	 0.2654245006	-0.0309270372	 2.1593481696	 0.142806
H	 0.6727092337	-1.5070960833	 1.2650308743	 0.124051
H	 2.7052168891	-0.3885169662	 0.2709370165	 0.07192
H	-1.9651327721	-0.0443360618	-2.0609933735	 0.119449
H	-1.4060243351	-1.6926199531	-1.7893677882	 0.116216
H	-3.5605935071	-1.3196775201	-0.3037826962	 0.295972
