22
gdb 120965	4.54492	0.83783	0.78425	2.1934	83.	-0.2373	0.0721	0.3094	1550.3825	0.195065	-404.328412	-404.319358	-404.318414	-404.363239	33.985	
C	-0.2123110491	 1.513840184	 0.0574643274	-0.383943
C	-0.1198787514	 0.0059315285	 0.2224821803	-0.037318
O	-1.3662818698	-0.5590044359	-0.1335847715	-0.251879
C	-1.3994761324	-1.9674402587	-0.1071275825	 0.159238
C	-1.385918238	-2.6030913421	 1.3163282776	-0.239119
C	-2.2632660049	-3.8404806445	 1.1911606134	-0.045971
N	-3.7076843494	-3.5282014808	 1.2278755252	-0.326487
C	-3.0460508696	-3.7583832001	-0.0740711823	-0.044171
C	-2.6927962793	-2.4658307456	-0.7940022794	-0.245223
H	 0.7379641537	 1.9869841332	 0.3227875744	 0.111597
H	-0.4538495502	 1.7718724491	-0.9775858095	 0.124778
H	-0.9957232416	 1.9216391242	 0.702554174	 0.12752
H	 0.6782322173	-0.405843723	-0.4193191554	 0.081725
H	 0.1411443813	-0.248651305	 1.2622298983	 0.088493
H	-0.5298309411	-2.3590583738	-0.6628810229	 0.058405
H	-0.3731325925	-2.8549292756	 1.6430022728	 0.092745
H	-1.8161189714	-1.8993142195	 2.036005886	 0.117677
H	-1.9266929289	-4.7899362145	 1.5951306118	 0.082611
H	-4.2224443696	-4.3656627005	 1.4928459458	 0.22611
H	-3.3098706869	-4.6447263612	-0.6418793581	 0.083535
H	-3.4802031062	-1.7188710753	-0.658886891	 0.123683
H	-2.5431713697	-2.6145127131	-1.8665862343	 0.095994
