13
gdb 133158	2.35058	1.79805	1.02521	3.7069	63.09	-0.2521	-0.0567	0.1954	1031.9085	0.08778	-502.020286	-502.01278	-502.011835	-502.052955	27.052	
C	-0.0196229589	 1.5499793761	 0.0003204539	-0.512
C	 0.001996685	 0.0510621006	 0.0279415496	-0.019321
C	 0.0317017124	-0.7301875682	-1.1368773177	 0.326075
F	 0.0402632343	-0.0848320213	-2.2974837445	-0.053453
N	 0.0523860838	-2.0396310383	-1.212199148	-0.254844
N	 0.0452931707	-2.7459024131	-0.0781829976	-0.193329
C	 0.017621266	-2.1093671039	 1.0836816503	-0.085021
C	-0.0044540646	-0.7150597571	 1.1735721047	 0.243921
F	-0.0320178266	-0.1376748551	 2.3707442204	-0.057613
H	 0.8709004779	 1.9397773802	-0.5025473904	 0.157698
H	-0.8873891867	 1.9132114497	-0.5586845271	 0.157584
H	-0.0573048615	 1.9553337058	 1.0117405163	 0.14944
H	 0.0125931581	-2.7200988954	 1.98018657	 0.140863
