23
gdb 117695	4.02764	0.77131	0.76303	1.3633	88.7	-0.2549	0.0511	0.306	1622.0235	0.201369	-388.255307	-388.243927	-388.242982	-388.291578	41.386	
C	 0.0240922823	 1.4323500427	-0.0638126084	-0.228179
O	 0.0041792668	 0.027432059	-0.0021230092	-0.24001
C	 0.6337638119	-0.5836893668	-1.1058398065	-0.061747
C	 0.5665575524	-2.1123241682	-0.957926915	 0.22166
C	 1.2969650735	-2.5418449136	 0.3249590855	-0.408309
C	-0.9020754729	-2.5652473301	-0.9160570927	-0.408302
C	 1.2781786267	-2.7073629227	-2.2077105054	-0.383367
C	 1.3144681751	-4.1641979142	-2.2448774775	 0.311494
C	 1.3428470363	-5.3659407965	-2.2727631749	-0.447394
H	 1.0527278414	 1.8267163444	-0.0797802531	 0.103802
H	-0.499967627	 1.8102426587	-0.9562417543	 0.103803
H	-0.4835111681	 1.8070244111	 0.8283900796	 0.127352
H	 0.1393402041	-0.2731401209	-2.0438888426	 0.078622
H	 1.6872027242	-0.256633417	-1.1701141873	 0.078626
H	 0.8304016943	-2.0819828215	 1.1988044257	 0.128935
H	 1.2696103673	-3.6286839728	 0.4405853077	 0.123835
H	 2.3482928581	-2.2319511251	 0.3017721021	 0.102486
H	-1.4305304263	-2.2721248636	-1.830757303	 0.102485
H	-0.9693641928	-3.6525165319	-0.8230181728	 0.123836
H	-1.4163776568	-2.1059349437	-0.0691290959	 0.128935
H	 0.7766201465	-2.3410953634	-3.1137089444	 0.124383
H	 2.3070421962	-2.3250017126	-2.2499723995	 0.124383
H	 1.371992417	-6.4267595312	-2.3045354281	 0.192671
