19
gdb 70145	2.88546	1.62461	1.23983	1.5053	82.04	-0.2296	0.0029	0.2325	1061.9295	0.15998	-385.883316	-385.875419	-385.874474	-385.915108	31.729	
C	-0.3070800796	 1.4832282585	 0.1143826472	-0.472624
C	 0.0142981394	 0.0098970289	-0.0163904028	 0.342283
O	-0.6247177004	-0.824415767	 0.9615318706	-0.286192
C	 0.7933542194	-0.6575042642	 1.0832158202	-0.054644
C	 1.6753988549	-1.8245176914	 0.8715612379	-0.017087
C	 1.4332576054	-2.8526786592	 0.053809962	-0.102169
C	 0.2112967078	-2.9784811799	-0.835572267	-0.318334
C	 0.1435073375	-1.7925835989	-1.778130758	-0.098784
C	 0.077800577	-0.5110296541	-1.4068317202	-0.059748
H	 0.4413181695	 2.0907893843	-0.4053363865	 0.123439
H	-1.28491931	 1.7017657272	-0.3286462444	 0.129758
H	-0.3338022361	 1.782213005	 1.164602681	 0.127248
H	 1.0788105947	-0.0133120456	 1.9157409949	 0.087202
H	 2.60579216	-1.8024558547	 1.4330590306	 0.085169
H	 2.1809975945	-3.6377390465	-0.0215635423	 0.095625
H	 0.272377103	-3.9030083135	-1.4149395757	 0.096735
H	-0.6964274701	-3.0348275532	-0.2286061529	 0.146308
H	 0.2005907694	-2.0104004075	-2.8416700757	 0.094759
H	 0.0812798937	 0.2541809018	-2.179304369	 0.081056
