15
gdb 43560	1.97953	1.65706	1.06077	2.4177	77.58	-0.2452	-0.033	0.2122	1128.3831	0.108943	-383.423155	-383.414312	-383.413368	-383.457271	32.607	
O	 0.0498118873	-0.0462595455	-0.2943067866	-0.272618
C	-0.0169407363	 1.1166191115	-0.0475214845	 0.408497
C	-1.1632360762	 2.0795074137	 0.281044563	-0.355301
C	-0.1027697084	 3.1247878944	 0.7781113922	-0.233155
C	-0.0555166854	 3.2908495609	 2.214607521	 0.367592
C	-0.0285735616	 3.420508113	 3.4090114269	-0.463906
C	 1.0571523534	 2.2297213468	 0.1506338357	-0.319696
C	 2.2576383936	 1.9366041905	 0.8897357375	 0.336546
C	 3.2495407292	 1.6709409627	 1.5138613052	-0.421442
H	-1.7051262028	 2.4006051575	-0.6135693165	 0.140239
H	-1.8782672935	 1.7216110235	 1.023273663	 0.152417
H	-0.1793234707	 4.096951159	 0.2866814637	 0.117026
H	 0.0029994205	 3.5373486833	 4.4640185677	 0.203556
H	 1.3010795458	 2.6291061275	-0.8427917585	 0.138723
H	 4.1254467351	 1.4365972714	 2.0665190904	 0.201522
