20
gdb 95090	2.4368	1.5586	1.15024	1.0786	85.86	-0.2286	0.038	0.2666	1138.6046	0.17154	-365.978452	-365.969862	-365.968918	-366.011185	33.981	
C	 0.0019675857	 1.5619417505	 0.0222324364	-0.408462
C	 0.0244554058	 0.0345279502	 0.0003981972	-0.034342
C	 0.805071686	-0.5700959344	-1.1942063352	-0.235395
C	 1.3123847821	-1.9514408573	-0.7204535214	-0.220384
C	 1.4971744905	-1.7793810968	 0.7751675954	-0.089801
N	 2.1917251948	-0.5305601847	 1.135193831	-0.38123
C	 0.7009299833	-0.5960100751	 1.222417373	 0.198658
C	 0.0724951146	-0.5287899193	 2.5064582597	 0.175116
C	-0.4670747669	-0.4401370973	 3.5788961498	-0.379912
H	 1.0210992051	 1.954611924	 0.0946626927	 0.128777
H	-0.454408011	 1.9602288661	-0.889740001	 0.109845
H	-0.570274561	 1.9366590503	 0.8768009431	 0.119831
H	-1.0072410009	-0.3412770036	-0.0131639763	 0.076947
H	 0.1870015169	-0.6364042425	-2.0933585306	 0.094629
H	 1.6574484099	 0.0731955891	-1.4259387224	 0.120279
H	 0.5637277053	-2.7331000698	-0.8963648526	 0.101652
H	 2.2337013101	-2.2553685473	-1.2274187606	 0.105763
H	 1.6107314352	-2.6444599089	 1.4205107962	 0.09454
H	 2.5691494743	-0.6177761909	 2.0760528353	 0.236608
H	-0.9411090098	-0.3709192325	 4.5263905403	 0.186883
