19
gdb 49766	2.18278	1.65761	1.09872	2.9505	81.14	-0.2349	-0.0255	0.2094	1135.5592	0.159144	-385.896184	-385.887882	-385.886937	-385.929908	31.439	
O	-0.0117441949	-0.0868093718	-0.0645764343	-0.258312
C	 0.0175720337	 1.1128691788	 0.0281048125	 0.167855
C	 1.2814118065	 1.9614138876	-0.0021990395	-0.202771
C	 1.216352011	 2.9509177561	-1.1468043272	-0.089007
C	 1.0542880733	 4.204886366	-0.7266365482	-0.062297
C	 1.0140128701	 4.3124946709	 0.7764287328	-0.336614
C	 1.3666664252	 2.8867420502	 1.2323301169	 0.337603
C	 1.0227194193	 2.390281682	 2.6163754997	-0.318366
C	 2.4580761759	 2.6638193606	 2.2489319623	-0.305178
H	-0.916644112	 1.7091849902	 0.1480762079	 0.073225
H	 2.1301357602	 1.2728962821	-0.0759536861	 0.092003
H	 1.2614310875	 2.6314845061	-2.1815965833	 0.107399
H	 0.9562434407	 5.0686785504	-1.3750384032	 0.101599
H	 1.720946684	 5.058594468	 1.1612808547	 0.109283
H	 0.0190759167	 4.6265079687	 1.1228799128	 0.112051
H	 0.5241666959	 3.0788640735	 3.2908798732	 0.113774
H	 0.7160447263	 1.3556484996	 2.7325049056	 0.12636
H	 3.1210680767	 1.8155810218	 2.1117606212	 0.11869
H	 2.9367805238	 3.5416797693	 2.671482282	 0.112704
