16
gdb 20558	4.51949	1.48801	1.48095	2.9705	65.77	-0.2846	-0.0193	0.2653	925.9297	0.131612	-376.099633	-376.091986	-376.091042	-376.133278	26.99	
C	-0.0294831181	 1.5456961585	 0.0241313606	-0.38887
C	 0.0349433458	 0.0168254533	-0.0092185854	 0.052249
C	 0.719723027	-0.5251090215	-1.2664579421	-0.388726
N	 0.717037928	-0.4868589812	 1.1938447643	 0.143223
N	 0.1295090647	-1.2771115018	 2.0847267043	-0.243754
C	 1.1142723291	-1.4608332927	 2.9573116473	 0.071375
N	 2.2468743828	-0.8123135427	 2.612333639	-0.205438
N	 1.9763216775	-0.1963573535	 1.4846691058	-0.131367
H	 0.9753551241	 1.9745126177	-0.0059193474	 0.149835
H	-0.5891755082	 1.9073482123	-0.8429020515	 0.126582
H	-0.5307512317	 1.8968647837	 0.9299355344	 0.133975
H	-0.9712314265	-0.399615972	 0.0744235965	 0.124568
H	 1.7481125007	-0.1608215357	-1.3318025011	 0.149513
H	 0.7371844316	-1.6181619866	-1.2625345116	 0.134132
H	 0.1743369985	-0.191367311	-2.1535580943	 0.126662
H	 1.0128780945	-2.064245707	 3.8445499511	 0.146041
