21
gdb 104997	2.32358	1.25947	1.03796	2.8381	82.5	-0.2675	0.0275	0.295	1268.6722	0.182311	-383.270244	-383.260218	-383.259274	-383.305315	37.189	
C	 1.5382450655	-0.939118909	-1.0957648271	-0.389512
C	 0.3739167185	-0.4684483592	-0.2156827846	-0.245399
C	 0.5886286837	-0.6850962292	 1.2783356403	 0.375319
C	-0.6344980924	-0.9050997288	 2.1398087868	-0.323478
C	 0.2933135306	-2.0563240699	 1.8339025078	-0.316279
C	 1.7493227796	 0.1272132118	 1.8631281882	-0.199903
N	 1.5142811835	 1.5608854706	 1.6610729799	-0.496784
C	 2.0116635788	-0.2045513472	 3.281838115	 0.259515
N	 2.2230217033	-0.4057304763	 4.4011496545	-0.339847
H	 1.7850224959	-1.9888781463	-0.9043860483	 0.118154
H	 1.2828791667	-0.841879352	-2.1552350579	 0.11634
H	 2.4414890452	-0.3438597015	-0.9278799004	 0.121787
H	 0.1829634506	 0.5934057095	-0.4001367552	 0.117669
H	-0.535331153	-1.0087219416	-0.5035682834	 0.09304
H	-0.6312294604	-0.5258749235	 3.1564499418	 0.128774
H	-1.6040370633	-0.8748195464	 1.6546977684	 0.11439
H	-0.0389846722	-2.8121346346	 1.1302833224	 0.113144
H	 0.8997299447	-2.4390138153	 2.6469712378	 0.136089
H	 2.6633807799	-0.1312873236	 1.314635842	 0.131421
H	 0.6887580429	 1.8441446718	 2.1819570801	 0.242008
H	 2.292964332	 2.1009338606	 2.026098952	 0.243554
