13
gdb 5480	3.44633	1.94598	1.24371	4.3172	66.	-0.2161	-0.0344	0.1817	889.707	0.096795	-398.651701	-398.644787	-398.643842	-398.682763	25.712	
O	 0.1113478549	 1.3882887659	-0.0452580372	-0.430233
C	 0.0755651232	 0.0355519892	 0.0092109866	 0.273973
C	 0.0239065054	-0.7753916581	-1.1264664144	 0.139799
N	 0.0000172836	-2.0820297574	-0.6694787372	-0.285294
C	 0.0338411702	-2.106490804	 0.6795375558	-0.041875
C	 0.0820195115	-0.8005020686	 1.1476377127	-0.293161
C	-0.0046811205	-0.4911030985	-2.5342918783	 0.065135
O	-0.0504687174	-1.3597412573	-3.3925403876	-0.33695
H	 0.1442681404	 1.7371825238	 0.8508150342	 0.305053
H	-0.0377018878	-2.8602802743	-1.3073855057	 0.280479
H	 0.0223371782	-3.0359250322	 1.2269690512	 0.136386
H	 0.1171825766	-0.4946191747	 2.1823057592	 0.10264
H	 0.0183327618	 0.5854607762	-2.7951059692	 0.084048
