16
gdb 14953	4.41857	1.50586	1.18739	2.5816	61.47	-0.2475	-0.0346	0.2129	974.1686	0.13049	-420.874541	-420.867193	-420.866249	-420.906677	26.705	
O	-0.8885053415	 1.155534002	 0.0443303564	-0.247927
C	 0.2436862679	 0.7481151134	 0.0303449143	 0.135634
C	 1.4606003981	 1.6549253772	 0.0043630179	 0.019244
C	 1.3352451512	 2.8395091103	 0.9686653084	-0.088242
O	 2.5274527576	 3.603778682	 0.9575100911	-0.24993
C	 3.6496658406	 2.8043787247	 1.2989239396	-0.079428
C	 3.7815822323	 1.6291943309	 0.3361302187	-0.080654
O	 2.5867409186	 0.8575984478	 0.3259227293	-0.269359
H	 0.4928289296	-0.3355357068	 0.0332003289	 0.099325
H	 1.5613709935	 2.0555714053	-1.0217516968	 0.10317
H	 0.5174591017	 3.4941624011	 0.6622378823	 0.132387
H	 1.127025289	 2.462115663	 1.9827710222	 0.099415
H	 4.5292523343	 3.4526063801	 1.24647243	 0.113628
H	 3.5490888901	 2.4264234576	 2.3294271008	 0.097958
H	 3.994867759	 2.0040688747	-0.6778212952	 0.10041
H	 4.588811478	 0.9569301169	 0.640765842	 0.114372
