16
gdb 49131	3.53711	1.13685	0.87997	1.6845	79.16	-0.2657	-0.0878	0.1779	1245.8654	0.125379	-437.923433	-437.915615	-437.914671	-437.956142	28.95	
N	-0.090807416	 1.2681846859	 0.2386818065	-0.511092
C	-0.0127139823	 0.0283452906	-0.0369684016	 0.393166
O	 1.1804470752	-0.601927827	-0.2183753492	-0.259523
C	 1.1637118225	-1.8745004761	-0.8899768552	-0.098554
C	 0.1408092453	-2.8294608874	-0.2887437458	-0.317583
C	-1.1848800495	-2.1279386092	-0.1865409221	 0.179051
C	-2.432871925	-2.91443619	-0.1827038459	 0.098248
O	-2.4686209493	-4.1201113201	-0.2769442206	-0.264716
C	-1.2300017627	-0.7884029468	-0.0984101495	-0.187207
H	 0.8452664321	 1.6794867111	 0.2629688941	 0.227979
H	 0.946335904	-1.7090599169	-1.953322592	 0.117723
H	 2.1823189017	-2.2562980863	-0.8014227157	 0.127836
H	 0.043877802	-3.7277286786	-0.9059694208	 0.141477
H	 0.4630997137	-3.1675996984	 0.7043697568	 0.137023
H	-3.3610008327	-2.310035489	-0.0883084217	 0.08313
H	-2.1638742791	-0.2424572819	-0.0189750674	 0.13304
