17
gdb 64529	2.92604	1.66149	1.22879	3.1306	71.97	-0.2391	-0.0354	0.2037	1008.0641	0.133569	-421.735676	-421.727801	-421.726857	-421.768559	29.826	
C	 0.1238849839	 1.7492467581	-0.3113560285	-0.484564
C	-0.0266727623	 0.2448073911	-0.1065977355	 0.185288
C	-1.4453103145	-0.2154961308	-0.3562014839	 0.107157
O	-1.7709815391	-1.361603072	-0.5482255039	-0.260841
C	 1.0852647046	-0.69088158	-0.6593975995	-0.119713
C	 2.041399145	-0.3796072549	 0.5354181826	 0.070828
O	 2.306959755	-1.7716364296	 0.8465711662	-0.329748
C	 0.8934490194	-1.7417357277	 0.4763191528	 0.091496
C	 0.6186947434	-0.3749093743	 1.1785257582	-0.124854
H	 1.1390341304	 2.086212609	-0.0863711126	 0.127654
H	-0.0985913355	 2.033456358	-1.3460439868	 0.127759
H	-0.5614742998	 2.3066821953	 0.3371374863	 0.125679
H	-2.2122424777	 0.5939806862	-0.3385274555	 0.076001
H	 1.3603094079	-0.8849122512	-1.6958958971	 0.090901
H	 2.8532225784	 0.3409857093	 0.6212144505	 0.101957
H	 0.3254281778	-2.6660536903	 0.4856411146	 0.124282
H	 0.3635893531	-0.2042153361	 2.2247045923	 0.090719
