19
gdb 49784	3.144	1.28529	1.01798	3.0936	81.22	-0.2363	-0.023	0.2133	1183.0514	0.160381	-385.90039	-385.89235	-385.891406	-385.93378	30.685	
O	 1.0190864586	-0.4347710242	 0.0242770968	-0.250181
C	 0.4463306288	 0.6209089153	 0.1015160469	 0.160529
C	 1.119392006	 1.9853815614	 0.0032707305	-0.132026
C	 0.5794506433	 2.7445319572	-1.1869126536	-0.075039
C	 0.3005010272	 4.0469357855	-1.181845422	-0.069822
C	 0.4780732622	 4.9536955488	 0.0043717865	-0.275522
C	 0.6365931544	 4.2146997722	 1.3212645031	-0.037633
C	-0.416438255	 3.229871532	 1.7572518945	-0.292688
C	 0.9472428588	 2.7358347643	 1.3191341155	-0.043934
H	-0.6550290763	 0.6697128019	 0.2605004976	 0.076845
H	 2.1861810598	 1.7795264402	-0.1571082623	 0.102248
H	 0.4516165459	 2.1718332394	-2.1023695361	 0.098644
H	-0.0511331972	 4.5148384322	-2.0983164225	 0.094362
H	 1.3635531448	 5.5831781498	-0.1683193154	 0.117589
H	-0.3662683174	 5.6543792664	 0.0632578969	 0.109979
H	 1.1032446127	 4.7963645295	 2.1102799143	 0.0873
H	-0.6663106524	 3.1672431307	 2.8102795899	 0.11424
H	-1.2560500051	 3.0709435663	 1.0886799614	 0.119106
H	 1.5949043809	 2.3742962113	 2.1116502379	 0.096002
