15
gdb 19577	3.58357	2.45427	2.06807	2.0371	64.05	-0.2229	-0.0172	0.2057	704.9631	0.120772	-362.614731	-362.608957	-362.608013	-362.64435	23.649	
O	 0.0091083251	-0.0282733784	 0.197401392	-0.326985
C	-0.0085096055	 1.1526121177	 0.018632231	 0.420624
C	-1.0809695144	 2.2582756137	-0.0047979823	-0.168255
C	-0.0437246985	 2.9770384078	 0.9514208875	-0.237361
C	 1.010435224	 2.3075442566	 0.0062738951	-0.10354
N	 0.7539656995	 3.0569025402	-1.2633542213	-0.112357
C	 0.088974804	 2.2672260445	-2.3241186895	-0.257273
C	-0.7420680557	 2.9742603117	-1.314862657	-0.023964
H	-2.1207483957	 2.0828818016	 0.2586969337	 0.093064
H	-0.0504227577	 4.0679036915	 0.9255562039	 0.126681
H	-0.0385692466	 2.595094809	 1.9740312165	 0.123999
H	 2.0642084449	 2.1997999485	 0.2513497693	 0.096222
H	 0.1938412961	 2.7044911678	-3.3127429367	 0.123693
H	 0.151801762	 1.1820793088	-2.3036336067	 0.140747
H	-1.2774551016	 3.883685259	-1.5733417855	 0.104704
