19
gdb 63744	3.40667	1.14382	1.11235	2.0206	78.27	-0.2464	0.0005	0.2469	1189.0042	0.157707	-423.017699	-423.009018	-423.008074	-423.051094	33.789	
C	 0.1117495918	 1.5538116537	-0.0549978957	-0.439702
C	-0.0100283861	 0.0303306088	 0.0187515432	 0.33761
O	-1.3982797072	-0.3425747507	 0.0683497299	-0.468657
C	 0.5960980319	-0.705845613	-1.2027941652	-0.339719
C	 1.4113665334	-1.8630084329	-0.6253806186	 0.425446
C	 1.5127748428	-3.2018057573	-1.227668902	-0.246677
O	 2.5958960865	-2.2763808438	-1.3251255466	-0.284607
C	 1.5003330763	-1.6133637037	 0.8365974765	-0.15306
C	 0.7451406248	-0.5762093648	 1.1916835484	-0.122103
H	 1.1585882411	 1.8648937227	-0.1257812885	 0.122559
H	-0.429365686	 1.9341015951	-0.9266206839	 0.126483
H	-0.3160257244	 2.0204447598	 0.8407994535	 0.102408
H	-1.7744568564	 0.0294554644	 0.8736392983	 0.272915
H	-0.199751215	-1.030339012	-1.8752299225	 0.121803
H	 1.2709540484	-0.0497955066	-1.7593106281	 0.117944
H	 1.6936232447	-4.0729423469	-0.5978892967	 0.110405
H	 0.982281471	-3.4065142295	-2.1573932098	 0.114352
H	 2.1073119206	-2.2294114446	 1.489979043	 0.108059
H	 0.6230889417	-0.1986534187	 2.2024285249	 0.094542
