15
gdb 45974	2.98987	1.51009	1.15814	3.0856	66.09	-0.263	-0.0412	0.2218	1022.9797	0.113282	-457.804238	-457.796799	-457.795855	-457.836761	27.618	
O	-0.0359609909	 0.3183296652	-1.0044119265	-0.311945
C	 0.038047432	 1.2978475119	-0.2997794592	 0.374032
C	-1.2249816699	 1.8761312288	 0.3396542561	-0.177816
O	-1.2534174623	 3.2895313317	 0.5724817987	-0.242007
C	-0.1585090168	 4.0913959225	 0.5084756393	 0.435144
O	-0.3037696106	 5.2821751932	 0.5310304064	-0.324862
C	 1.1858857594	 3.44569858	 0.4495493577	-0.166469
C	 1.5449776833	 2.395079192	 1.4618880388	-0.303081
C	 1.3070128598	 1.9848137262	 0.0226475896	-0.144011
H	-2.0674611962	 1.6431752025	-0.3148178752	 0.159126
H	-1.3957685947	 1.3619278447	 1.2954953783	 0.144225
H	 1.9624984691	 4.1313844858	 0.1365974326	 0.136981
H	 2.5705920256	 2.3724387155	 1.809101688	 0.148576
H	 0.8092289098	 2.1204401483	 2.2088163036	 0.145379
H	 2.1607772523	 1.6853568217	-0.5729069883	 0.126729
