25
gdb 119978	2.97885	0.76936	0.72639	1.3476	90.09	-0.2436	0.06	0.3036	1769.9023	0.227137	-389.484098	-389.472806	-389.471862	-389.521526	40.774	
C	 0.1289114748	 1.5631177188	-0.1663449198	-0.3811
C	 0.2929353707	 0.0427688221	-0.0995804063	-0.158296
C	 0.5404839025	-0.4739924758	 1.3253407671	-0.195636
C	 0.6692737078	-1.9831868104	 1.3820468975	-0.080816
C	 2.0249281188	-2.6579229058	 1.2876943838	 0.076876
O	 3.1887588613	-1.8763629179	 1.305249063	-0.41798
C	 1.2532413141	-2.7217021303	 2.5775796679	-0.054049
C	 1.7507277829	-2.0204583994	 3.8269710088	-0.188634
C	 2.7539164797	-2.8776641533	 4.6086088279	-0.376663
H	 1.0234573343	 2.0753757512	 0.2053207886	 0.113685
H	-0.0482329821	 1.9034589395	-1.1914364962	 0.110112
H	-0.717179892	 1.8951803178	 0.4456387028	 0.11508
H	-0.602153173	-0.4422956312	-0.510980997	 0.094878
H	 1.1242583449	-0.2677645307	-0.747397183	 0.081895
H	 1.4473880992	-0.0065137424	 1.7220730981	 0.10543
H	-0.2843700992	-0.1473602159	 1.9731250607	 0.093254
H	-0.1390536532	-2.5052370232	 0.8726702562	 0.074966
H	 2.1076301405	-3.567407105	 0.6925315081	 0.07785
H	 3.2893567095	-1.4700907796	 0.4380580306	 0.288442
H	 0.7954639304	-3.6875941276	 2.7828367304	 0.077668
H	 2.2233900204	-1.0718952948	 3.5616437732	 0.11094
H	 0.8931034956	-1.7770516165	 4.4675190859	 0.089721
H	 3.076883416	-2.3727844324	 5.5247324467	 0.105236
H	 2.3168051678	-3.8408672505	 4.8956988715	 0.10655
H	 3.6413448181	-3.0798428866	 4.0012963634	 0.130592
