19
gdb 126897	3.08731	1.05716	0.80212	4.1092	81.15	-0.1981	0.0195	0.2176	1446.0978	0.158736	-419.210005	-419.200382	-419.199438	-419.245744	33.857	
C	 0.0779204783	 1.4723802546	 0.0407975948	-0.400719
C	-0.0186117278	-0.0319915347	-0.1857624415	-0.119343
N	-1.3720438775	-0.5025722802	 0.1048676749	-0.406481
C	-1.6724528407	-1.8363458097	 0.0925606286	 0.472467
C	-2.8747074621	-2.5036819495	 0.0422285648	 0.029191
C	-4.2523771663	-1.9286304565	-0.0620154319	-0.525531
C	-2.4629170197	-3.8557827419	 0.1309495243	-0.019539
N	-1.1650941107	-4.01712986	 0.2211546602	-0.179617
O	-0.6514611696	-2.6973356479	 0.1918918403	-0.226002
H	 1.093606606	 1.8217100933	-0.1627281899	 0.129275
H	-0.5990863068	 2.0188804518	-0.6262355195	 0.116382
H	-0.1783963769	 1.7296086824	 1.0725043213	 0.132918
H	 0.2821406802	-0.28287564	-1.2143925563	 0.109333
H	 0.6672909952	-0.5624186361	 0.4800079322	 0.140619
H	-2.112971441	 0.0824348905	-0.2537664141	 0.244917
H	-4.3520022112	-1.2414794645	-0.912572121	 0.118184
H	-4.9905114497	-2.7220238135	-0.2071615071	 0.133388
H	-4.5448559429	-1.3735169988	 0.8382030164	 0.129925
H	-3.0921739166	-4.7368904695	 0.1308552536	 0.120635
