15
gdb 20974	4.77636	1.69096	1.27005	3.4634	64.74	-0.2242	0.0095	0.2337	925.4039	0.11949	-395.981323	-395.97345	-395.972505	-396.014182	26.823	
C	-0.0996140205	 1.4300263654	 0.0253168884	-0.344614
N	 0.094231362	-0.0094728012	-0.0300418526	-0.176187
C	 0.0307266239	-0.7504181314	 1.217832234	-0.348474
C	 0.0231322955	-0.6375153885	-1.219877591	 0.581424
N	-0.0569559912	-0.0889756858	-2.4132910947	-0.389875
C	-0.0533146173	-1.19542275	-3.2131749226	 0.051151
N	 0.0129748192	-2.3528685006	-2.6174395073	-0.144483
O	 0.0606605872	-1.9782943277	-1.2417615262	-0.237721
H	 0.6185969141	 1.8691070228	 0.7256337028	 0.129794
H	 0.0582154502	 1.8485763943	-0.9674374054	 0.178263
H	-1.1136711581	 1.6850535089	 0.3624664539	 0.12773
H	-0.9900506368	-0.7763827036	 1.6243069097	 0.131319
H	 0.371347811	-1.7731775806	 1.0626543135	 0.169058
H	 0.6813622344	-0.2691011743	 1.9547015449	 0.133715
H	-0.1041555735	-1.1394756777	-4.2919765776	 0.138899
