14
gdb 16885	4.1197	2.07819	1.61855	5.3596	57.3	-0.2767	0.0327	0.3094	776.3778	0.108679	-419.700453	-419.694172	-419.693228	-419.731047	23.817	
O	 0.0478263122	 0.1684265177	 0.6170211098	-0.352521
C	-0.0170220077	 1.1918631516	 0.0086256158	 0.460859
O	-1.1919501644	 1.8453906168	-0.1557478495	-0.252907
C	-1.3859570103	 2.7423776897	-1.2619429542	-0.099447
C	-0.2238404446	 3.6876703106	-1.4230956482	-0.074377
C	 0.4708174254	 4.2027540081	-0.1770894811	-0.33004
C	 1.0771790975	 3.0977066171	-0.9955836562	 0.127684
O	 1.0892311647	 1.7653168406	-0.5186695776	-0.247889
H	-1.5281752675	 2.1527494448	-2.1767927061	 0.126987
H	-2.3217416773	 3.2612772614	-1.0393515508	 0.134638
H	-0.2535957573	 4.3122000298	-2.309870684	 0.107583
H	 0.9460932911	 5.1759568873	-0.2173137111	 0.129214
H	 0.0411565784	 3.9426202505	 0.7839830076	 0.146987
H	 1.9901465398	 3.2723776741	-1.5500041244	 0.123228
