14
gdb 16103	4.62204	1.73554	1.48687	3.5915	67.76	-0.2575	-0.0171	0.2405	837.7075	0.109166	-341.578936	-341.572542	-341.571598	-341.609351	24.739	
N	 0.0698146469	-1.1620876196	-0.1248224508	-0.340284
C	 0.0540689366	-0.0094505978	-0.0233051048	 0.192261
C	 0.0169741836	 1.4204127708	 0.0898208644	 0.202901
N	 0.3589552465	 2.2515166148	-1.1100134455	-0.355403
C	 1.2585931131	 2.2687418652	 0.0501211095	-0.090441
C	 1.0359605391	 3.4425464443	 0.9971605061	-0.265418
C	-0.3832628893	 3.2344134692	 1.4861174548	-0.071105
C	-0.932264107	 2.1137174832	 1.0164357186	-0.125534
H	 0.7580457959	 1.6448683054	-1.8259388484	 0.247386
H	 2.238349026	 1.8135170476	-0.0403865216	 0.11695
H	 1.7562640924	 3.431300766	 1.8244413092	 0.121658
H	 1.154882666	 4.400133233	 0.4772892733	 0.13386
H	-0.8859428987	 3.9514930546	 2.1243831202	 0.112539
H	-1.9281616013	 1.7425509333	 1.2177112849	 0.120629
