12
gdb 20609	3.58008	1.95665	1.27522	3.9577	65.82	-0.2497	-0.0451	0.2046	878.0609	0.081884	-377.477636	-377.470366	-377.469422	-377.509258	26.051	
C	 0.0832113526	 1.5224471632	 0.0587062373	-0.507069
C	-0.0080961179	 0.0417576138	 0.0753857899	 0.30638
C	-1.0776219355	-0.8160614759	 0.0012329511	 0.070462
N	-0.5549193741	-2.0991118145	 0.0655971691	-0.177721
N	 0.6886137261	-2.0736670845	 0.167905096	-0.013729
O	 1.0999706219	-0.6782936104	 0.178827789	-0.208013
C	-2.4523319052	-0.528904657	-0.1171694665	 0.279065
C	-3.6228072689	-0.2687147143	-0.2182564844	-0.43924
H	 0.6954319976	 1.8621032842	-0.7826008462	 0.162698
H	-0.9152978882	 1.9531116517	-0.0311370423	 0.160329
H	 0.549159413	 1.8914500002	 0.9779047773	 0.162702
H	-4.6576984414	-0.0468746065	-0.3074727505	 0.204137
