20
gdb 95661	2.92727	1.22522	0.94176	4.413	83.34	-0.2374	-0.0257	0.2117	1279.4193	0.173067	-403.197141	-403.18848	-403.187536	-403.230675	33.075	
C	 0.4073085153	 1.5854729402	 0.0373764186	-0.399606
C	-0.0183826358	 0.1068892289	-0.0550547637	-0.031315
C	 0.4762823987	-0.5177580803	-1.3642159292	-0.19844
C	 0.1809633197	-2.01566032	-1.4921998181	-0.179629
N	 1.1523834799	-2.851938041	-0.8118032724	-0.320597
C	 1.532457161	-2.8258000258	 0.501234268	 0.367283
O	 2.3121314887	-3.6599462599	 0.9405394421	-0.383851
C	 0.9824597218	-1.7876376511	 1.4186619854	-0.15038
C	 0.3691975439	-0.6183163816	 1.2062595286	-0.046447
H	 1.4978174294	 1.6743866314	 0.0832972905	 0.127159
H	 0.0578723297	 2.1436290856	-0.8369187797	 0.116202
H	-0.006330178	 2.0641010443	 0.9303266959	 0.117867
H	-1.1207181627	 0.096247876	-0.0804268386	 0.092757
H	-0.0034366683	 0.0135523763	-2.1945805776	 0.099403
H	 1.5567296075	-0.3655874828	-1.4725993424	 0.11069
H	-0.8403279996	-2.2245660843	-1.1393777894	 0.110794
H	 0.2117128968	-2.3044341506	-2.54626455	 0.112488
H	 1.5593867445	-3.6228697835	-1.3188467217	 0.244862
H	 1.1799615491	-2.0758084719	 2.4469725706	 0.113023
H	 0.0955013483	-0.0650241296	 2.105417313	 0.097737
