19
gdb 40419	3.44845	1.32225	1.17244	0.2751	80.65	-0.2158	0.0143	0.23	1114.235	0.161242	-382.017691	-382.010114	-382.00917	-382.049896	30.091	
C	 0.3635876152	 1.5770349906	 0.1516196077	-0.241705
N	 1.1692682858	 0.4477142414	-0.3447652103	-0.322176
C	-0.2195536913	 0.2132586937	 0.0895040671	-0.121708
C	-0.3934428394	-0.6386131418	 1.3059188457	 0.371114
C	-1.1150291639	-1.9454379908	 1.2528722246	-0.285966
N	-1.7590698272	-0.784818692	 1.8790941458	-0.149259
C	-1.6081625362	-0.7226228929	 3.3510894174	-0.212851
C	-0.1231686342	-0.5811583037	 3.6095530024	-0.097895
C	 0.5471822135	-0.5113949695	 2.4602298774	-0.15515
H	 0.6874649917	 1.9793711295	 1.1073718583	 0.12115
H	 0.0036497365	 2.3190973733	-0.5559451832	 0.112504
H	 1.2222345718	 0.4702169957	-1.3591441551	 0.233672
H	-0.9700078613	 0.0404023648	-0.6788297976	 0.083451
H	-1.5897370182	-2.2726418658	 0.3301660642	 0.108003
H	-0.7412447021	-2.7466617624	 1.8871804709	 0.11013
H	-2.1748708928	 0.1360311875	 3.7359106436	 0.113198
H	-2.0404661119	-1.6188425447	 3.8148114478	 0.112737
H	 0.3085631268	-0.5652725451	 4.6036831098	 0.099893
H	 1.6142580471	-0.3949535078	 2.3261142037	 0.120857
