22
gdb 108323	2.94634	1.2995	1.0647	1.5524	83.07	-0.2006	0.0774	0.278	1237.1318	0.193208	-404.295905	-404.286594	-404.28565	-404.329806	35.098	
C	 0.0277781715	 1.391013937	-0.0352800127	-0.263013
O	 0.0727326786	-0.0217726132	-0.0414114481	-0.296197
C	 0.6583639004	-0.5633676986	 1.0979752579	 0.456385
C	 2.1843187082	-0.4092202314	 1.315699816	-0.29628
C	 2.2621007901	-1.9232779396	 1.6826036043	-0.248065
C	 0.7585293289	-2.1052596545	 1.276739025	-0.064645
N	-0.2528436525	-2.0409492232	 2.3372951605	-0.057088
C	-0.1507180272	-2.8358058632	 3.536780473	-0.32525
C	-0.1854689845	-0.5680460834	 2.4125267501	-0.245869
H	 1.0340117413	 1.8327562597	 0.0097817301	 0.109472
H	-0.451645104	 1.70124319	-0.9663667395	 0.128346
H	-0.5589444728	 1.7789757575	 0.8105174858	 0.109033
H	 2.6909846326	-0.1899895203	 0.3719022461	 0.107339
H	 2.5139235418	 0.3085797598	 2.0720988695	 0.092348
H	 2.9658637837	-2.4990500677	 1.0782044243	 0.105143
H	 2.4693505424	-2.1295941916	 2.7351598968	 0.103464
H	 0.5527853607	-2.8270096355	 0.4820052833	 0.074207
H	 0.7550127196	-2.6369807411	 4.1399976887	 0.090175
H	-1.0200540268	-2.6465768733	 4.1763633996	 0.120263
H	-0.1544171108	-3.899551244	 3.2748118554	 0.1198
H	 0.3557592936	-0.1719874027	 3.2870972971	 0.078756
H	-1.1662973348	-0.081016491	 2.3544429866	 0.101679
