19
gdb 11378	3.71758	1.48752	1.20799	1.4885	72.52	-0.238	0.0319	0.2699	1073.7682	0.165705	-365.100142	-365.091595	-365.090651	-365.133991	30.644	
C	 0.4291768803	 0.94678306	 0.6426931302	-0.379137
C	-0.3696047989	 0.3615108369	-0.5328344309	-0.270448
C	 0.5017643425	-0.3016321267	-1.5509893031	 0.406851
N	 0.6211520773	 0.0296193608	-2.7723744256	-0.311846
C	 1.581581298	-0.908300942	-3.3670952751	-0.198603
C	 2.040807644	-1.8223221355	-2.1969380011	 0.105837
C	 3.5120911542	-1.7069315869	-1.831243432	-0.396035
O	 1.2279155459	-1.3585081701	-1.0859561248	-0.267527
H	 1.0050311517	 0.1677774317	 1.148445046	 0.134208
H	 1.1268540589	 1.7153763748	 0.2962410912	 0.125605
H	-0.2449141446	 1.4051915189	 1.3715405544	 0.117536
H	-1.0821588263	-0.3816374615	-0.1544228072	 0.120219
H	-0.9395920051	 1.1383887641	-1.0463437694	 0.130031
H	 1.1032290603	-1.4708327805	-4.1763981132	 0.111803
H	 2.421703644	-0.3589755955	-3.8087990697	 0.108477
H	 1.7737754829	-2.8707185187	-2.3649780762	 0.088681
H	 3.7827817759	-0.6606706324	-1.656094121	 0.126482
H	 3.7389294791	-2.2800866582	-0.9279678642	 0.127267
H	 4.13340902	-2.0902235092	-2.6474976684	 0.120599
