21
gdb 119524	4.31489	0.93295	0.8504	1.7205	83.14	-0.2414	0.0048	0.2461	1442.4517	0.182181	-387.089813	-387.080966	-387.080022	-387.123716	33.725	
C	-0.2358667611	 1.5659422112	-0.1253674805	-0.383717
C	-0.134418552	 0.0389939135	-0.1311494124	-0.161537
C	 0.943271855	-0.4834591576	-1.09361527	-0.286427
C	 1.0076889332	-1.9888393884	-1.1423068791	 0.426403
C	 1.4780836503	-2.8041202981	 0.0688260504	-0.32629
C	 2.0241647766	-4.0746369658	-0.549856945	-0.079849
C	 1.9589763299	-4.0548576587	-1.883511197	-0.076498
C	 1.3134651347	-2.7904793849	-2.3442087664	-0.081174
O	-0.0475115261	-2.6384756152	-1.8680247613	-0.305752
H	 0.7113717395	 2.0268161512	 0.1772376712	 0.111926
H	-0.4851570782	 1.9490787119	-1.1211628457	 0.116074
H	-1.0098592167	 1.9112181867	 0.5670158014	 0.112544
H	 0.0777911867	-0.3178355132	 0.8848003455	 0.096648
H	-1.0982459174	-0.3985608395	-0.4167632892	 0.115513
H	 0.7393350234	-0.1107284074	-2.1042543289	 0.101846
H	 1.9257567299	-0.089583141	-0.8000081949	 0.094593
H	 2.2467867107	-2.2657162793	 0.6392460318	 0.10833
H	 0.6527066692	-3.0070245837	 0.761423245	 0.124852
H	 2.3890144172	-4.9007677628	 0.0503001605	 0.100622
H	 2.2855149089	-4.8408145162	-2.5530004776	 0.101017
H	 1.5056073662	-2.3581862728	-3.3222275976	 0.090875
