13
gdb 124056	3.93006	1.66577	1.17854	2.8676	65.65	-0.2301	-0.0372	0.1929	934.5966	0.093447	-448.93015	-448.923871	-448.922927	-448.96134	23.477	
C	-0.0102427427	 1.4926931014	 0.1228713402	-0.177192
O	 1.2751172613	 2.0157948192	-0.3432542724	-0.23402
C	 2.268253765	 1.2221389597	-0.7667163035	 0.145325
N	 2.3126384712	-0.0564958507	-0.8513297542	-0.370637
C	 1.1297751866	-0.6316134933	-0.4273004341	 0.369818
C	 0.0089083123	 0.0053519285	 0.036940873	 0.227557
N	-0.9355876335	-0.912156215	 0.3513005499	-0.272961
N	-0.453627676	-2.104873632	 0.1031848511	-0.121855
N	 0.8044292663	-1.9408089308	-0.3714948838	-0.289548
H	-0.1442601657	 1.8653261028	 1.1445749149	 0.145328
H	-0.7790924135	 1.9526315947	-0.5080180059	 0.145327
H	 3.1236539401	 1.8224718517	-1.0636157707	 0.146261
H	 1.3565492387	-2.744718096	-0.6260690845	 0.286596
