21
gdb 77897	2.0311	1.50525	1.3588	0.9442	78.65	-0.2453	0.0675	0.3128	1127.1371	0.180635	-424.191353	-424.181506	-424.180562	-424.225143	37.474	
C	-0.7156409671	 1.2671972315	-0.2481434448	-0.429123
C	-0.3105155734	-0.1837463475	-0.4413916266	-0.06322
C	 0.5140260486	-0.8128428697	-1.5502790464	-0.161754
C	 1.7408220246	 0.0020535781	-1.9810348737	-0.007974
C	 1.5951622726	 1.3203859026	-2.7329057021	-0.414815
C	 2.2251541925	-0.0072872937	-0.4784318724	 0.003628
O	 2.3740368534	 1.2137068656	 0.2233130629	-0.426772
C	 0.9999036388	-0.8283986932	-0.0918790406	 0.361225
O	 1.0885068136	-1.9260139489	 0.7529394603	-0.466634
H	-1.4250022753	 1.5857815817	-1.0203892229	 0.109157
H	-1.2138089473	 1.3858542896	 0.7210960902	 0.10598
H	 0.1423289877	 1.9373290477	-0.2526187558	 0.149328
H	-1.1114683724	-0.8768710456	-0.1818644218	 0.087486
H	 0.1110707553	-1.6445461619	-2.1168914396	 0.087752
H	 2.4113762032	-0.6481920762	-2.554425453	 0.073002
H	 0.9589129337	 2.0374452053	-2.2133097717	 0.126947
H	 2.5746118086	 1.7903374443	-2.8835551242	 0.101113
H	 1.1625801543	 1.14704681	-3.7243148442	 0.115248
H	 3.1250033158	-0.626338643	-0.3700843075	 0.078579
H	 3.2019674258	 1.6198966588	-0.0524770012	 0.283948
H	 0.8261639169	-1.6464056157	 1.6365786052	 0.286898
