20
gdb 114528	2.56301	1.36129	1.04672	2.8589	74.41	-0.2109	0.0523	0.2632	1188.1751	0.17129	-440.217915	-440.209036	-440.208092	-440.251758	33.391	
O	-0.2093727142	 1.4729149376	-0.324329483	-0.427441
C	-0.0147328292	 0.0623208715	-0.3861419023	-0.109849
C	-1.3242185764	-0.5620124005	 0.061015713	 0.031374
C	-2.5281850258	-0.5171630948	-0.9187113634	-0.186656
N	-2.7312834055	-2.0001882048	-0.8202085919	-0.12678
C	-1.9810816872	-2.7521408957	-1.8763181135	-0.217985
C	-0.819679508	-3.0499564219	-0.8863626489	 0.104168
O	 0.4974582616	-2.6929669292	-1.2414647806	-0.422351
C	-1.5256696125	-2.1016691095	 0.1056306713	-0.040578
H	 0.574328	 1.8969301616	-0.6853180626	 0.284804
H	 0.2449851065	-0.2623321491	-1.4007468773	 0.096109
H	 0.8025513914	-0.2614720947	 0.2767634453	 0.089183
H	-1.5760168864	-0.1206704109	 1.0298017293	 0.087582
H	-3.3989817107	 0.0410150371	-0.5640165408	 0.105219
H	-2.2876791408	-0.1721600936	-1.9311205299	 0.098729
H	-2.5291003408	-3.6222269614	-2.251977671	 0.098346
H	-1.6712269928	-2.1327758232	-2.7266635526	 0.098446
H	-0.8520337032	-4.0842712467	-0.5180578855	 0.077628
H	 0.8519732991	-3.3743661628	-1.8213063081	 0.287164
H	-1.6933301349	-2.5156527589	 1.1040424426	 0.072888
