19
gdb 55178	3.22494	1.32618	1.09373	4.1434	74.93	-0.2088	0.0244	0.2332	1140.2497	0.160203	-419.189297	-419.180746	-419.179802	-419.223253	32.139	
N	-0.0567790541	 1.2902461886	-0.3053455981	-0.517302
C	 0.0909860658	-0.0217823542	 0.0555477941	 0.382198
O	 1.1692818534	-0.5020856539	 0.3434184096	-0.357737
C	-1.2143183405	-0.8048918813	 0.0677849271	-0.062902
C	-2.1495009093	-0.7884767035	-1.1805393741	-0.297386
C	-2.2213536548	-2.3273721512	-1.0105402586	 0.051589
C	-1.3195105678	-3.1780836648	-1.9210961603	-0.249176
C	-0.183589509	-2.9068310957	-0.8980327084	-0.166482
N	-1.1588541606	-2.2956604063	 0.0773105153	-0.137546
H	 0.7418642746	 1.896490787	-0.2085309755	 0.26182
H	-0.9629085945	 1.7099288616	-0.4227558223	 0.259972
H	-1.7575235988	-0.4801079109	 0.9663613823	 0.106611
H	-3.0890350381	-0.2401407312	-1.0755936034	 0.101048
H	-1.6575517007	-0.4702908275	-2.1045850185	 0.110704
H	-3.2024194308	-2.7259963841	-0.7368398409	 0.073616
H	-1.6244234856	-4.2258607391	-1.9708071106	 0.108043
H	-1.1709968821	-2.8085789329	-2.9393436229	 0.099384
H	 0.2989043637	-3.7925602903	-0.4776350379	 0.109674
H	 0.597830109	-2.2259885305	-1.236580117	 0.123874
