18
gdb 74076	2.71337	1.57108	1.14659	3.3257	79.95	-0.2353	-0.0443	0.191	1104.7272	0.146955	-401.971824	-401.963281	-401.962336	-402.004713	32.145	
C	 0.0401670318	 1.4890475681	 0.0984859738	-0.484123
C	-0.0343108749	 0.0106386825	-0.0610373338	 0.32669
C	-0.0481904876	-0.7333312032	-1.185141989	-0.318246
C	-0.0235576275	-2.1590844052	-0.8200900597	 0.358966
O	-0.0746678001	-3.1389009986	-1.5316142756	-0.354209
C	 0.005530103	-2.1722916349	 0.704262582	 0.191253
C	-0.7911826318	-3.2368004568	 1.411412536	-0.475638
C	 1.1801491843	-1.5058479917	 1.3525597395	-0.278758
N	-0.0883626822	-0.7697258692	 1.1396646446	-0.172146
H	 0.9023351708	 1.762960644	 0.7181771869	 0.142162
H	 0.1224321988	 1.9933657515	-0.8660394372	 0.136078
H	-0.8495226761	 1.8578972704	 0.620505684	 0.152471
H	-0.0413099642	-0.3683336154	-2.2025282473	 0.116528
H	-0.4411980922	-4.221719051	 1.0894566928	 0.145545
H	-0.6897365851	-3.1571831537	 2.4963683895	 0.121677
H	-1.8522109462	-3.1591564758	 1.1558472358	 0.133557
H	 1.4095093966	-1.7536981711	 2.3855072012	 0.128772
H	 2.0276454224	-1.2166331201	 0.7370242765	 0.129419
