19
gdb 117748	2.39977	1.10879	0.96599	2.3602	73.6	-0.247	-0.0598	0.1872	1330.2089	0.153788	-460.171201	-460.160523	-460.159579	-460.207441	36.895	
C	-0.0230678682	 1.633059054	-0.1474165079	-0.383745
C	 0.0714718764	 0.1325135333	 0.0662101711	-0.057191
O	 0.7579311832	-0.4144870413	-1.0604446543	-0.291625
C	 0.816831469	-1.8101263745	-1.1796495194	 0.178112
C	 1.3685661379	-2.5624229081	 0.0488029779	-0.451194
C	-0.5401976211	-2.4326498136	-1.567572197	 0.138628
O	-1.5607021136	-1.8113900303	-1.6828856251	-0.244152
C	 1.742958561	-2.0610905084	-2.3804258981	 0.129759
O	 2.1341598713	-3.1503195308	-2.7054118239	-0.254213
H	 0.9732865855	 2.0706626523	-0.2580359094	 0.124947
H	-0.5998704682	 1.8539245847	-1.0493986028	 0.135052
H	-0.5165981957	 2.105254331	 0.7071815053	 0.117559
H	 0.6281831193	-0.0879363566	 0.9885004955	 0.091893
H	-0.9275692551	-0.3067464946	 0.1539076244	 0.119055
H	 0.6590327105	-2.5578755761	 0.8800214356	 0.133128
H	 1.5820337058	-3.5966053923	-0.2298203322	 0.152524
H	 2.2994471904	-2.092584301	 0.377573433	 0.141068
H	-0.4867004261	-3.5297047611	-1.740126563	 0.107036
H	 1.9964371776	-1.1310009067	-2.9292744498	 0.11336
