11
gdb 11185	4.26279	1.63431	1.42713	2.9868	50.97	-0.3043	-0.0273	0.277	830.6433	0.072328	-434.568646	-434.562061	-434.561117	-434.600056	22.888	
O	 0.0332337566	 0.0103089726	-0.0300970721	-0.29398
C	-0.0522681617	 1.1935093579	 0.0301606369	 0.417976
C	-1.2816085784	 2.0863239132	 0.1334891788	-0.234076
O	-0.7578650031	 3.3686037077	 0.4519217353	-0.22811
C	 0.5748255851	 3.3750646759	 0.0124644307	 0.061908
O	 1.0381398364	 2.0342393047	 0.02217715	-0.206155
C	 0.6944547528	 3.9337617256	-1.3607345804	 0.287539
N	 0.7750332509	 4.3900176509	-2.4180488553	-0.298826
H	-1.8276752886	 2.0852271287	-0.8194035331	 0.161233
H	-1.9463971879	 1.7577899198	 0.9337062309	 0.168856
H	 1.176587988	 3.9689819429	 0.7049021883	 0.163634
