19
gdb 55371	3.23805	1.30926	1.03483	3.7429	76.59	-0.2166	0.0607	0.2773	1173.0654	0.161792	-419.241873	-419.233611	-419.232667	-419.275238	31.754	
N	-0.0495611013	 1.3358027324	-0.0287795325	-0.573469
C	 0.0088460746	-0.0594773365	-0.0362401086	 0.432531
O	 1.0687604396	-0.6635871404	-0.0527355769	-0.410551
N	-1.2085249567	-0.6835814741	 0.0332668776	-0.091213
C	-2.5103414191	-0.0550023445	 0.246963242	-0.203296
C	-3.3662077879	-1.1490332115	 0.9384387976	-0.231414
C	-2.6722841403	-2.4631774726	 0.6070046189	-0.063094
C	-2.3252309697	-2.7510621967	-0.8402175024	-0.312126
C	-1.3073276704	-2.1199398146	 0.0793413613	 0.039983
H	 0.8488632163	 1.7344631676	-0.25868005	 0.257509
H	-0.8174507336	 1.7742596291	-0.5150227639	 0.247886
H	-2.4062298709	 0.8409726676	 0.8650026097	 0.127093
H	-2.968921834	 0.2483429519	-0.7052072393	 0.104678
H	-3.3543879844	-1.0035147851	 2.0233465695	 0.115028
H	-4.4092716	-1.1061296609	 0.6112161969	 0.107907
H	-2.8150445475	-3.2989150881	 1.2816104904	 0.093722
H	-2.1727174314	-3.789390368	-1.1136468833	 0.118192
H	-2.7665753855	-2.1429717037	-1.6236644314	 0.110652
H	-0.3892119777	-2.6227128921	 0.3462180946	 0.129982
