23
gdb 95958	2.56814	1.45308	1.15808	1.538	84.72	-0.2386	0.0787	0.3173	1180.7431	0.206973	-388.292546	-388.283745	-388.2828	-388.326184	34.298	
C	 0.5803732748	 1.4911817617	-0.7151004576	-0.394033
C	 0.0251160274	 0.1956290676	-0.1264145866	 0.072002
O	 0.2672021419	-0.8692165124	-1.0612125133	-0.278771
C	 1.0333145134	-1.8972539575	-0.4444986932	-0.070602
C	 1.7455017531	-1.2250946243	 0.7273419336	-0.285264
C	 0.6661012867	-0.2419432926	 1.2074463603	 0.342115
C	 1.122893031	 0.8086599129	 2.2586332974	-0.289797
C	 0.5512021077	-0.0985221462	 3.3806683165	-0.217432
C	-0.2651516994	-0.8567270728	 2.3012762941	-0.267099
H	 1.6733615502	 1.4634678785	-0.772396037	 0.111966
H	 0.1924293777	 1.6261149308	-1.7285169501	 0.123979
H	 0.2854334119	 2.3598718703	-0.1179649223	 0.109256
H	-1.0628867631	 0.2980315464	-0.0035970986	 0.066525
H	 0.3773616796	-2.7086860311	-0.0894817921	 0.087187
H	 1.7128546524	-2.3175392441	-1.192985138	 0.10169
H	 2.0653575619	-1.9287259318	 1.5008481681	 0.097647
H	 2.6297668246	-0.6810457035	 0.3754486083	 0.101409
H	 2.1892698216	 1.0494141521	 2.2890482034	 0.095214
H	 0.5613547275	 1.7437359509	 2.1735027112	 0.100136
H	 1.3211620524	-0.7276657106	 3.8352322968	 0.103062
H	-0.0093051365	 0.3890813521	 4.1812353318	 0.097579
H	-1.2882888999	-0.476770025	 2.2203863325	 0.098249
H	-0.3074195566	-1.9480463714	 2.3662954845	 0.094984
