20
gdb 8205	2.63045	2.38098	1.62315	1.3176	74.46	-0.2208	0.0845	0.3054	895.8697	0.176994	-349.008053	-348.999996	-348.999052	-349.039714	31.511	
C	-0.0377418732	 1.5235795374	-0.0537156138	-0.480272
C	-0.0081083621	 0.0160471082	 0.0101245687	 0.272554
C	 1.2838707029	-0.7442559546	-0.2762303308	-0.405983
C	 0.6604066541	-0.7836626148	 1.1021923531	 0.425523
C	 1.3462634341	-0.2378315956	 2.3216893226	-0.465645
O	-0.1247637303	-1.9152661192	 1.4138553255	-0.296557
C	-1.0646265401	-2.1193069878	 0.3620241554	-0.098205
C	-1.2920614921	-0.7452183516	-0.2997217867	-0.285011
H	 0.9040682861	 1.9604355501	 0.2925543299	 0.114927
H	-0.1995634644	 1.8722593902	-1.0806667057	 0.117796
H	-0.8446087346	 1.9331123224	 0.5655593048	 0.115229
H	 1.2624373685	-1.6332801622	-0.8984369282	 0.108806
H	 2.1817654808	-0.1455486105	-0.3948631779	 0.105477
H	 1.917294202	 0.66218869	 2.079848055	 0.115693
H	 0.6146407224	 0.0099063359	 3.0975160709	 0.122153
H	 2.0395893707	-0.9776426484	 2.7349634238	 0.127811
H	-0.6692258566	-2.8420471869	-0.3656895578	 0.096189
H	-1.9706398825	-2.5493887654	 0.7983374669	 0.107005
H	-2.1378542632	-0.2213887312	 0.1612147135	 0.102006
H	-1.5026741924	-0.8383739761	-1.3702676191	 0.100503
