19
gdb 67223	2.52103	1.98128	1.44585	3.0694	78.78	-0.229	-0.0008	0.2282	963.173	0.160989	-385.883575	-385.876225	-385.875281	-385.915039	29.714	
C	-0.0488548392	 1.5692978471	 0.0515683917	-0.514837
C	-0.0267103735	 0.0664594432	 0.0524081388	 0.214192
C	 0.9150172577	-0.7436050489	-0.945285316	-0.075258
C	 1.971853933	-0.8441348263	 0.1849285212	-0.245804
C	 0.7402639442	-0.8777186802	 1.0988941443	-0.070409
C	-0.2750915667	-1.9813518317	 0.5671565873	-0.169115
C	 0.260427445	-2.1435835003	-0.8773280559	-0.224647
C	-1.235063227	-0.8034904466	 0.3528335641	 0.389957
O	-2.390124829	-0.5827025498	 0.585579438	-0.338105
H	 0.959323114	 1.9923071889	 0.116698624	 0.120111
H	-0.5068605716	 1.9484661346	-0.8686084911	 0.13062
H	-0.6362221154	 1.9497778831	 0.8928871442	 0.134208
H	 1.1612468286	-0.3380930769	-1.9267592778	 0.069511
H	 2.6582628126	-1.6968475778	 0.173579532	 0.09438
H	 2.5395841476	 0.0800752964	 0.3180452178	 0.105811
H	 0.7482186267	-0.6781525731	 2.168735223	 0.085097
H	-0.5510533645	-2.8612806507	 1.1429006996	 0.083368
H	-0.5427096685	-2.3010427657	-1.6035328692	 0.108891
H	 0.9935396159	-2.9475537053	-0.9889730159	 0.102029
