16
gdb 19422	4.18043	2.0034	1.62785	1.9209	70.18	-0.2375	0.0028	0.2402	810.4823	0.131718	-346.577786	-346.571504	-346.57056	-346.607913	25.512	
C	 0.053455212	 1.5199971677	-0.0064416663	-0.250355
O	 1.2070737356	 0.6791287075	 0.0035351353	-0.287174
C	-0.0906973384	 0.0561647885	 0.0022191853	 0.443649
C	-0.491009635	-0.7510118278	 1.1897596879	-0.171968
C	-0.9795587136	-1.9379506038	 0.812001673	-0.081498
C	-1.0286916758	-2.0732924131	-0.673583643	-0.087772
C	-1.9430950319	-1.0877270799	-1.3813883974	-0.285019
C	-0.4812938689	-0.7613843007	-1.2066617132	-0.132328
H	-0.119824227	 2.0893449216	 0.9067801195	 0.109974
H	-0.1247538957	 2.0672350241	-0.9318212862	 0.112239
H	-0.3990565301	-0.3817488658	 2.2035394096	 0.102382
H	-1.3437071693	-2.7077003925	 1.4824687549	 0.103462
H	-0.8213581201	-3.0275854994	-1.1440277025	 0.09331
H	-2.2709204935	-1.3385125037	-2.3851576955	 0.113436
H	-2.6750480364	-0.5578589691	-0.7806502097	 0.116
H	 0.163451868	-0.7150845034	-2.0755187717	 0.101663
