19
gdb 108110	3.51806	1.36499	1.31478	2.4838	73.73	-0.2248	0.0711	0.2959	1041.4238	0.161468	-423.019003	-423.011612	-423.010668	-423.050816	29.697	
O	 0.5326622183	 0.0532359893	 0.8433647862	-0.421985
C	-0.242947494	 0.4387255851	-0.2858240391	-0.208463
C	-1.5676684905	-0.2575111084	-0.203614248	 0.305369
C	-2.7065416667	 0.0039666474	-1.1839186428	-0.30084
C	-3.7245654094	-0.921033679	-0.4766992905	 0.053016
C	-2.966120897	-2.267245582	-0.4169209602	-0.234071
C	-1.7356818537	-1.7027249523	 0.2821148517	-0.150156
C	-2.2792140082	-0.548770304	 1.0983109666	 0.066814
O	-3.6766273998	-0.4627393877	 0.8840217606	-0.263489
H	 1.387916502	 0.4878217152	 0.7832824815	 0.290568
H	-0.399924385	 1.5303974595	-0.3038825153	 0.088821
H	 0.2697517922	 0.1680425309	-1.2242625472	 0.086715
H	-3.0333759809	 1.0483970056	-1.185744468	 0.101879
H	-2.4908696574	-0.3121525612	-2.20921439	 0.096992
H	-4.752707557	-0.9212969789	-0.8322687189	 0.078706
H	-3.4962474307	-3.0105024932	 0.1851830221	 0.104942
H	-2.7632882177	-2.679762069	-1.4094103535	 0.09694
H	-0.894923642	-2.2940767133	 0.6152675861	 0.097368
H	-1.9387063623	-0.253307064	 2.0790345488	 0.110872
