17
gdb 71371	2.61812	1.80332	1.27306	4.048	72.75	-0.2347	0.0101	0.2448	995.0106	0.134693	-421.798258	-421.790138	-421.789193	-421.830545	31.384	
C	 0.0341105547	 1.4901996978	 0.0387423896	-0.507939
C	 0.0256725439	-0.0037410779	-0.0531230036	 0.149536
C	 0.0720240204	-1.0760742186	 1.0913919433	-0.210074
C	-0.3962979197	-2.1245921881	 0.0081164193	-0.197244
C	 1.0769050549	-2.2104699753	-0.5007213853	-0.299248
C	 1.2670900665	-0.8688931653	 0.206022694	 0.345797
O	 2.4494024796	-0.2085646986	 0.4513593379	-0.456086
C	-0.9597559427	-0.9007469167	-0.7398776936	 0.399777
O	-1.9444247346	-0.7000094133	-1.3956268627	-0.343775
H	 0.7388831957	 1.8305495998	 0.8012765828	 0.133933
H	 0.3394222186	 1.9330198307	-0.914953343	 0.137634
H	-0.9628465322	 1.8702988623	 0.2804976142	 0.133465
H	-0.1657427493	-0.9273510232	 2.1334573293	 0.116756
H	-0.9936602566	-3.0138491314	 0.1849986467	 0.096521
H	 1.6283505292	-3.0114206361	 0.003327739	 0.099546
H	 1.2386268536	-2.2628562041	-1.5828230504	 0.109727
H	 2.9760511578	-0.7424541821	 1.0567160926	 0.291673
