21
gdb 86324	2.06115	1.53857	1.04033	3.7763	80.03	-0.2109	0.0306	0.2415	1233.6692	0.181131	-420.418999	-420.408738	-420.407794	-420.454606	37.043	
C	-0.186519738	 1.5310881665	-0.0653184367	-0.396833
C	-0.1143955209	 0.0092973346	-0.0100614447	-0.030389
C	 1.0210316018	-0.6092027693	-0.8708141775	-0.170053
N	 1.8634674127	-0.6552535772	 0.3325995918	-0.035859
C	 2.8252646693	-1.7154593431	 0.5163755608	-0.331879
C	 0.6883538097	-0.5880570396	 1.195542014	-0.08308
C	 0.8723105429	 0.184756763	 2.4987795946	 0.381539
N	-0.291084178	 0.4066254399	 3.1850322571	-0.520661
O	 1.9572088918	 0.5324630541	 2.9170872358	-0.353923
H	 0.8036364458	 1.9689604744	 0.0921820975	 0.146618
H	-0.556697918	 1.8622413445	-1.0413655321	 0.114003
H	-0.8585236679	 1.9331522182	 0.7000317171	 0.106927
H	-1.1006617894	-0.4353007619	-0.1626119416	 0.06816
H	 0.749017194	-1.6066916502	-1.257886944	 0.077772
H	 1.4227367868	-0.0061352147	-1.6937202624	 0.098451
H	 3.608543846	-1.6406616008	-0.245325888	 0.118025
H	 3.2931711582	-1.6064958562	 1.4983272317	 0.144056
H	 2.3755676281	-2.7255599572	 0.4469902561	 0.080843
H	 0.2830769892	-1.5869512101	 1.4531749804	 0.068944
H	-1.1916968826	 0.2149248402	 2.781637438	 0.257184
H	-0.2490441514	 0.9609149551	 4.024702102	 0.260152
