15
gdb 28841	3.23179	1.42707	1.07098	4.3946	82.93	-0.2179	-0.0723	0.1455	1085.5607	0.114863	-413.005963	-412.99836	-412.997415	-413.038106	29.276	
N	 0.1167777347	 1.2858808964	 0.2723511774	-0.536711
C	-0.0192249481	-0.0476350753	-0.0127719133	 0.352085
N	-1.1894976126	-0.5853997505	 0.0909585634	-0.327103
C	-1.4670082029	-1.9042803922	-0.1803989311	-0.000518
C	-0.6487380521	-2.9786970806	-0.174658431	-0.100277
C	 0.7954433322	-2.9427974183	 0.0671440333	 0.284136
N	 1.3815309702	-3.8800161407	 0.7066603938	-0.497448
N	 1.5367490307	-1.9096499165	-0.5533174713	-0.233824
C	 1.2013681266	-0.682396061	-0.5669868638	-0.041096
H	 1.0281967195	 1.6482947601	 0.4988155796	 0.26555
H	-0.6677638347	 1.7168096096	 0.737406178	 0.268233
H	-2.5295663867	-2.0821732736	-0.3330356098	 0.110439
H	-1.0817923222	-3.9669026198	-0.28782403	 0.116886
H	 2.3916034405	-3.7163443969	 0.698002195	 0.216892
H	 1.8839158548	 0.0083621492	-1.0727402501	 0.122755
