22
gdb 117492	1.81482	1.30237	0.81856	0.828	87.51	-0.2371	0.0348	0.2719	1498.2459	0.192447	-404.345763	-404.335179	-404.334235	-404.382827	37.298	
C	-0.174930841	 1.3464930281	-0.4956032251	-0.391781
C	-0.0588652099	-0.1176114543	-0.1124023365	-0.024662
O	-1.3316109329	-0.727016624	-0.3545535601	-0.266252
C	-1.4484914066	-2.0515442568	-0.0789106623	 0.418296
N	-0.4523681454	-2.6901768658	 0.3762621994	-0.326262
C	-0.5001821475	-4.0990491946	 0.6905214572	-0.327476
C	-2.8239264868	-2.527606649	-0.3861220505	-0.088307
C	-4.0156698249	-1.6120392737	-0.1684375238	-0.25742
C	-3.5891537825	-1.9497119309	-1.5633238476	-0.257773
H	 0.7800200621	 1.8530055524	-0.3259285619	 0.118205
H	-0.4389735621	 1.4552817323	-1.5516941256	 0.123712
H	-0.9413715652	 1.8484173309	 0.102321732	 0.123729
H	 0.7070163289	-0.6356566979	-0.6994258023	 0.112702
H	 0.2081732637	-0.2455219483	 0.9420164004	 0.112775
H	 0.3345694936	-4.6061681813	 0.1923197753	 0.123523
H	-0.3514457264	-4.2392170087	 1.7685635955	 0.122998
H	-1.4225769418	-4.6257982227	 0.4096685382	 0.102126
H	-2.9921748661	-3.5759227157	-0.1809564091	 0.094183
H	-4.9193128699	-2.0635240041	 0.2255095618	 0.113253
H	-3.8042362189	-0.6136157282	 0.1927101329	 0.130758
H	-3.0918758892	-1.1772040709	-2.1360740787	 0.13039
H	-4.195140701	-2.6364519368	-2.1436616993	 0.113283
