23
gdb 113718	3.19426	0.8491	0.74919	0.8144	92.71	-0.2537	0.0573	0.311	1628.2843	0.203262	-351.117034	-351.106324	-351.10538	-351.153127	39.599	
C	-0.455002769	 1.5606217068	-0.74767548	-0.379656
C	-0.5751265817	 0.0317777527	-0.7177215132	-0.193983
C	 0.5084457847	-0.6451427319	-1.5343478968	 0.000306
C	 1.8726385504	-0.9187293914	-0.9422456264	-0.301967
C	 0.9737905454	-2.0688772749	-1.3160240666	 0.004638
C	 0.3752546874	-2.986727141	-0.2528139198	-0.186977
C	-0.9081454035	-3.6768853052	-0.7608949006	-0.391949
C	 1.3609434153	-3.9788330657	 0.1825614706	 0.334714
C	 2.1659889757	-4.8060310875	 0.5193842687	-0.467219
H	 0.5085532299	 1.8858443469	-0.341988625	 0.119836
H	-0.5274143947	 1.9410891849	-1.7725034527	 0.114052
H	-1.247798031	 2.0334247249	-0.1596496818	 0.109951
H	-0.5337209639	-0.3099394356	 0.3228811856	 0.096024
H	-1.5630072099	-0.261339626	-1.0973691948	 0.097207
H	 0.5111086874	-0.3317447174	-2.5767683166	 0.079585
H	 2.7617306338	-0.7321965749	-1.534302547	 0.109408
H	 1.9994281961	-0.7182900435	 0.1181242249	 0.110256
H	 1.2501760202	-2.6092439788	-2.2182267481	 0.087488
H	 0.1095615606	-2.3804232225	 0.6225099761	 0.100998
H	-0.6912723182	-4.2863214718	-1.6434383524	 0.124483
H	-1.3302186053	-4.33158536	 0.0061397952	 0.122695
H	-1.6570815426	-2.9284811613	-1.0347996833	 0.119283
H	 2.8797965529	-5.5292662168	 0.826905484	 0.190829
