19
gdb 83163	2.64425	1.46191	1.32227	4.0102	75.43	-0.2269	0.0604	0.2873	1062.8203	0.162196	-419.245783	-419.237384	-419.23644	-419.278875	31.896	
C	-0.1807933441	 1.5719438543	 0.1169872286	-0.424584
C	-0.0134757281	 0.0749388968	-0.020555292	-0.03549
C	 0.6683732707	-0.6020492689	-1.197445845	-0.067053
C	 1.3760741747	 0.1360881191	-2.3176489299	-0.178266
N	 2.4052188496	 1.0415705127	-1.8297248436	-0.342795
C	 3.0871667186	 0.9506564503	-0.6359661572	 0.4159
O	 4.0805505974	 1.619395286	-0.4028640208	-0.417083
N	 2.55114261	 0.0834141724	 0.2899767158	-0.332772
C	 1.3221999699	-0.6353682736	 0.1532559697	-0.006449
H	 0.6820921897	 2.1256515174	-0.2554327259	 0.147682
H	-1.0599588455	 1.9135634759	-0.4404691082	 0.117811
H	-0.3309637527	 1.8466745198	 1.1666820473	 0.119316
H	-0.8582642631	-0.4919639453	 0.3652791948	 0.086689
H	 0.2149617997	-1.5276204172	-1.5376537847	 0.095021
H	 1.8116057121	-0.6197102421	-2.9893501696	 0.110348
H	 0.6574201007	 0.7115479488	-2.916355716	 0.112517
H	 2.9055557622	 1.5911774748	-2.5104176023	 0.249803
H	 2.939614333	 0.2088149082	 1.2114853507	 0.250194
H	 1.3277003551	-1.5737569092	 0.6997381383	 0.099211
