17
gdb 42530	3.40038	1.28403	1.08336	0.4453	76.89	-0.2454	-0.0424	0.2029	1130.8838	0.136505	-417.957094	-417.949075	-417.948131	-417.989953	30.108	
O	 0.0073776664	 0.1740486621	-0.5965284356	-0.33696
C	-0.0016602392	 1.3398471886	-0.300871967	 0.286627
C	-1.0804953994	 2.3685459523	-0.0481360456	 0.232953
C	-2.3895307537	 2.4224021424	-0.7541184829	-0.285904
N	-2.3294746544	 2.1405176029	 0.6801966162	-0.352134
C	-0.0180270789	 3.4510013344	 0.2344364704	-0.420515
C	 1.0611345721	 2.3803109594	-0.0290544008	 0.232953
C	 2.3719062212	 2.1103743393	 0.6220163448	-0.28591
N	 2.3105379867	 2.5451070597	-0.7735366073	-0.352129
H	-2.8003224808	 3.3942696532	-1.0133715566	 0.132983
H	-2.6187564578	 1.6148890724	-1.4449096413	 0.134278
H	-2.4399529577	 1.1407234552	 0.8451574739	 0.248566
H	-0.0081345713	 4.2794594832	-0.4768910932	 0.124682
H	-0.0373600488	 3.840130602	 1.2545505602	 0.124682
H	 2.7694900647	 2.8471815381	 1.3144978952	 0.132982
H	 2.615461776	 1.0747175429	 0.8454217538	 0.134278
H	 2.4349212148	 1.746426802	-1.3945394343	 0.248567
