17
gdb 127644	3.34536	1.38792	1.05668	2.2704	76.08	-0.2349	0.0058	0.2406	1115.7253	0.137625	-418.001289	-417.993378	-417.992433	-418.034014	29.289	
C	 0.3990756878	 1.3266540401	 0.0654281684	-0.343244
N	 0.1508904684	-0.1040938772	 0.0772613248	-0.048395
N	 0.0104601671	-0.7391359975	-1.1043077216	-0.262048
C	-0.189454264	-2.0162150124	-0.7921571759	-0.003837
C	-0.186862995	-2.2141914664	 0.5987931246	-0.310786
C	 0.0418481292	-0.9578205878	 1.1359156568	 0.382624
C	 0.1656538208	-0.6159329138	 2.5668905703	-0.015928
C	 1.1561184515	 0.3118479595	 3.1415453812	-0.197003
O	-0.2164477718	 0.6914369512	 3.0240796453	-0.232512
H	 1.4714913037	 1.5391972508	-0.0099412887	 0.133336
H	-0.0993360752	 1.743208237	-0.8100543756	 0.154911
H	-0.0032014818	 1.7689810149	 0.9757209578	 0.170722
H	-0.3403600978	-2.7418207919	-1.5777452591	 0.112915
H	-0.3366446143	-3.13015028	 1.1480010282	 0.10357
H	-0.1805927497	-1.421623051	 3.2131621454	 0.109299
H	 1.510614018	 0.1514926693	 4.1585299362	 0.126358
H	 1.8464552931	 0.8377544954	 2.4849190818	 0.120017
