20
gdb 90777	3.65366	1.36018	1.22059	1.8855	77.67	-0.2277	0.0672	0.2948	1090.4014	0.172317	-403.123076	-403.115057	-403.114113	-403.155172	31.988	
C	-0.0876484019	 1.505304758	 0.0690656924	-0.496799
C	 0.0870865871	 0.0192996152	-0.03853608	 0.352422
C	-0.039048042	-0.7862437168	-1.3298152871	-0.305628
C	-0.6345244043	-1.909084189	-0.4467867911	 0.000407
C	 0.4130189401	-2.9386248798	-0.0339996753	 0.136988
O	 0.89430414	-3.6130548191	-1.1826319453	-0.43641
C	 1.4623272792	-2.0693574222	 0.7129719056	-0.296
C	 0.6789928857	-0.8097922635	 1.045820283	-0.065931
N	-0.7757589236	-0.9631618661	 0.7370953777	-0.20071
H	 0.7829353211	 2.030892998	-0.3413107941	 0.119216
H	-0.9734031222	 1.8372578546	-0.4835562363	 0.121094
H	-0.2065082617	 1.8101052057	 1.1131735705	 0.125996
H	-0.7887898182	-0.3502821561	-1.9943226874	 0.104277
H	 0.8621581155	-1.0114388859	-1.9065582308	 0.107706
H	-1.5831514514	-2.3401611845	-0.7641827226	 0.078357
H	-0.0455665275	-3.6492513401	 0.6700529104	 0.074223
H	 1.5135316937	-4.2914416777	-0.897601275	 0.286482
H	 1.836511975	-2.5561149286	 1.6182241006	 0.100214
H	 2.3185889332	-1.8755706966	 0.0581458957	 0.108831
H	 0.8692492121	-0.3053311853	 1.9884004893	 0.085262
