17
gdb 110754	2.12805	1.51853	1.37885	2.6261	68.9	-0.2268	0.0053	0.2321	1058.4483	0.135586	-455.112857	-455.104031	-455.103087	-455.146463	32.376	
C	 0.1590829045	 0.8679437726	 0.3519212782	-0.243783
O	-0.2374739959	-0.0567191553	-0.6482186102	-0.234015
C	-1.4308951525	-0.6947824474	-0.3654740063	 0.088977
C	-1.6596567974	-2.0716969151	-0.8708235318	-0.106057
N	-0.4328624146	-2.8726477724	-0.8210912491	-0.337763
C	-0.2641142935	-2.6502658452	 0.5648477282	 0.359944
O	 0.5928311051	-2.9920206979	 1.3292418118	-0.34421
C	-1.5602475741	-1.8450878081	 0.6547228845	 0.080741
N	-2.5835093361	-1.8288526871	 1.6338658883	-0.597622
H	 1.0901939698	 1.3248125863	 0.01129022	 0.136067
H	-0.5959984553	 1.6548370913	 0.4930651142	 0.111584
H	 0.3342092599	 0.3647088468	 1.3120980369	 0.126186
H	-2.3107286889	-0.0469614241	-0.3388414083	 0.10462
H	-2.5129827166	-2.3971543394	-1.4507773712	 0.118654
H	 0.3347246202	-2.6877398311	-1.4577849545	 0.248735
H	-2.7883855531	-2.7653299309	 1.967969295	 0.244272
H	-2.3129026515	-1.2724378931	 2.4384437644	 0.243668
