17
gdb 15401	4.53047	1.13105	1.00845	2.4201	71.95	-0.2412	0.0253	0.2665	1164.7587	0.140683	-363.788124	-363.779623	-363.778679	-363.821521	31.139	
O	 0.3288296089	 1.2684019413	-0.3914243671	-0.422069
C	 0.1053776426	-0.0709209349	-0.0037078615	-0.049009
C	-1.3752473826	-0.3368481954	 0.260196823	-0.15141
N	-2.1164078685	-0.0033589954	-0.9584006389	-0.099705
C	-2.4708786928	-1.0906051538	-1.8554203366	-0.245502
C	-3.5338456832	-0.3908730981	-1.0586404906	-0.176678
C	-4.2007884189	-1.0751512975	 0.0151158853	 0.33894
C	-4.7819113785	-1.6135537996	 0.9202344665	-0.46414
H	-0.372699545	 1.4706760642	-1.024220544	 0.287001
H	 0.471501808	-0.7785389855	-0.7678008551	 0.081958
H	 0.6825917051	-0.2488181101	 0.9099481904	 0.105767
H	-1.533518649	-1.3754560079	 0.5874042867	 0.097542
H	-1.7279792664	 0.3265308407	 1.056819135	 0.120103
H	-2.3810497845	-0.8894330066	-2.9192446414	 0.125872
H	-2.2233517663	-2.1056762262	-1.5508915478	 0.126043
H	-4.1457747925	 0.350271895	-1.5680392227	 0.121607
H	-5.2937447364	-2.0968670502	 1.7154537688	 0.203679
