23
gdb 122450	4.47316	0.60876	0.58448	1.4471	84.17	-0.2467	0.0775	0.3242	1988.2155	0.202581	-425.402327	-425.391321	-425.390376	-425.439045	39.609	
C	 0.2107461795	 1.3925338891	 0.0895167397	-0.227751
O	-0.064538645	 0.022891235	-0.0676506671	-0.231574
C	 0.6770252115	-0.5705050243	-1.1114211455	-0.039232
C	 0.29376428	-2.0437653237	-1.2027035466	-0.242596
C	 1.0541207783	-2.757579512	-2.2989531461	-0.023779
C	 2.439799138	-3.3423976127	-2.0596502503	-0.35231
C	 1.2596492318	-4.2437970342	-2.3441045326	 0.383259
C	 0.7198378437	-5.1754489555	-1.282783998	-0.447278
O	 1.1620856195	-4.7637757188	-3.649497599	-0.467041
H	 1.2709507826	 1.5735438787	 0.3301546956	 0.100872
H	-0.0341746249	 1.967236131	-0.8184274426	 0.101673
H	-0.4048630611	 1.759601409	 0.9146488584	 0.124693
H	 0.4692150315	-0.060297681	-2.0685985954	 0.082551
H	 1.7599049122	-0.4685242418	-0.9236330175	 0.086766
H	 0.4841734713	-2.5064361607	-0.2284936715	 0.103216
H	-0.786919587	-2.1118867449	-1.3773670621	 0.10968
H	 0.9191074909	-2.3313802969	-3.2901572801	 0.094912
H	 3.1818619087	-3.2272428719	-2.8418494905	 0.108932
H	 2.832827374	-3.3160163266	-1.0473432205	 0.105448
H	 0.7844241879	-4.7402229433	-0.2827131693	 0.120362
H	-0.3264454074	-5.4247855956	-1.4867881475	 0.126588
H	 1.2925524368	-6.1113631139	-1.2700848778	 0.105375
H	 1.749344947	-5.5263010347	-3.7046764736	 0.277234
