18
gdb 87351	1.95503	1.4782	1.02971	4.536	74.5	-0.2491	-0.0286	0.2205	1210.7891	0.145271	-439.111625	-439.102001	-439.101056	-439.146832	34.104	
C	 0.0482423184	 1.3742184114	-0.0759798335	-0.424978
C	 0.2096697357	-0.1256412701	 0.0042461686	-0.031861
C	 1.5497523733	-0.7673772868	 0.0624288178	-0.282258
C	 0.6663975772	-0.799095188	 1.3073283393	 0.22096
N	 1.0205767476	 0.0198473383	 2.424762055	-0.366317
C	 2.1759672865	-0.1401979906	 3.1406256244	 0.138382
O	 3.0415352954	-0.9472294844	 2.8933865607	-0.30852
C	 0.0378473097	-2.1131542869	 1.6326320307	 0.132242
O	-0.3423669654	-2.9039672994	 0.8041701988	-0.270976
H	 0.8404478152	 1.8941417234	 0.4696082607	 0.123276
H	 0.0951386745	 1.7004200353	-1.1200218454	 0.136069
H	-0.9176898787	 1.6994723002	 0.3265568406	 0.121047
H	-0.5569835363	-0.7084628045	-0.498654636	 0.119582
H	 1.6918540035	-1.7235174544	-0.4270206422	 0.145309
H	 2.427660169	-0.1364545867	 0.1333523148	 0.137442
H	 0.3536018197	 0.6976774635	 2.7616603425	 0.251487
H	 2.2311465705	 0.577076249	 3.9843306877	 0.078358
H	-0.0609769259	-2.3102973894	 2.7226898254	 0.080756
