18
gdb 92894	2.06465	1.82623	1.20546	1.4694	72.63	-0.2355	-0.0353	0.2003	1080.7727	0.147014	-439.118445	-439.109524	-439.108579	-439.153728	32.202	
C	 0.8625804005	 1.3770197457	-0.0237136357	-0.39653
C	 0.035102402	 0.0898597443	 0.0460863414	 0.023125
O	 0.2360973006	-0.6682873268	-1.160247703	-0.236733
C	 0.9795099883	-1.7964949967	-1.105037221	 0.122798
N	 1.4441132501	-2.4221837875	-0.1126502186	-0.273309
C	 1.1780451788	-1.9445655027	 1.237962259	-0.069148
C	 2.4984811899	-1.7756166973	 2.0115180955	-0.380645
C	 0.3437425443	-0.6731508166	 1.3340848776	 0.338554
O	-0.0524899392	-0.2344296717	 2.3882788106	-0.321091
H	 1.933279249	 1.1522718441	-0.0495523669	 0.132688
H	 0.6039699069	 1.9327262483	-0.9282182664	 0.135729
H	 0.6527665487	 1.9946940071	 0.8523187799	 0.148613
H	-1.0300131758	 0.3413903625	 0.0693249292	 0.12741
H	 1.1498137906	-2.1626280156	-2.1159934493	 0.12973
H	 0.5963319695	-2.7218109184	 1.7532740341	 0.125554
H	 3.1260071543	-1.0093243381	 1.5458194482	 0.119938
H	 2.2948760597	-1.4861657521	 3.0444189207	 0.13885
H	 3.0482536618	-2.7192155083	 1.9949780447	 0.134466
