18
gdb 40877	3.49938	1.59128	1.39654	0.3025	75.71	-0.2176	0.0051	0.2227	970.4266	0.149739	-401.877746	-401.870819	-401.869875	-401.909047	28.117	
C	-0.0363623234	 1.366233905	-0.3184199633	-0.088976
C	 1.426974224	 1.5304131565	 0.130259214	-0.356013
C	 1.2417324384	 0.1285789302	 0.7274430676	 0.538203
O	-0.1038680223	 0.0491334162	 0.2810381112	-0.321172
C	 2.2604194375	-1.0442209848	 0.4858555646	-0.145102
N	 3.0141075845	-0.4058486703	 1.6180585814	-0.310741
C	 1.6421146767	-0.2302904923	 2.2047656975	-0.145104
C	 1.0890452277	-1.6607104181	 2.297936261	-0.083226
C	 1.50248104	-2.2050850796	 1.1481128751	-0.083216
H	-0.7609359344	 2.0520205335	 0.1348473992	 0.105517
H	-0.208850714	 1.3252622334	-1.3997765855	 0.105516
H	 2.1657058391	 1.5966246503	-0.6693332261	 0.118447
H	 1.6160998838	 2.320041289	 0.8583914018	 0.118447
H	 2.7802615439	-1.1984367986	-0.4601017117	 0.065024
H	 3.5494114234	-1.1013718564	 2.1399594906	 0.204239
H	 1.5209984475	 0.4592388564	 3.040668059	 0.06502
H	 0.461432584	-2.0658341909	 3.0781859817	 0.106568
H	 1.3074617135	-3.1797846196	 0.7253340419	 0.106569
