21
gdb 94471	2.84053	1.31353	1.1434	2.1426	78.14	-0.237	0.0656	0.3026	1174.1386	0.183277	-424.222832	-424.214096	-424.213152	-424.257109	33.189	
O	 0.3188805353	 1.2321989323	-0.2488791796	-0.423239
C	 0.1516732922	-0.0952514531	 0.1841018527	-0.014544
C	-0.2002488444	-0.3557061362	 1.6623667107	-0.109552
O	-1.3688508657	-1.1024868664	 1.2813918787	-0.325003
C	-1.2406015337	-0.7008144214	-0.1198297431	 0.446785
C	-2.3758715235	 0.2614544705	-0.5519195437	-0.273212
C	-3.105607358	-0.4280569162	-1.7266956194	-0.202773
C	-2.7881995688	-1.9221794542	-1.5424545121	-0.21013
C	-1.3247968902	-1.8957601485	-1.0789687523	-0.265465
H	 1.2329119632	 1.4921956369	-0.1002301753	 0.289428
H	 0.9641041294	-0.7381091163	-0.1800753657	 0.072877
H	 0.5005962392	-0.9545680523	 2.2561624052	 0.094924
H	-0.4496974083	 0.5663485374	 2.2053945079	 0.096876
H	-3.0403131268	 0.3775170252	 0.3094347307	 0.112173
H	-1.9909696	 1.249274999	-0.8109720207	 0.122193
H	-4.1775784368	-0.2129499583	-1.7401895183	 0.094368
H	-2.6955129038	-0.081456377	-2.68297978	 0.096688
H	-3.4194183403	-2.3488096321	-0.7536789257	 0.108056
H	-2.944995099	-2.5151046294	-2.4479680527	 0.090491
H	-0.6685247522	-1.7016180388	-1.9383555901	 0.097657
H	-0.9830762276	-2.8133465312	-0.5936395075	 0.101401
