22
gdb 113967	4.10521	0.66228	0.62136	2.6622	88.41	-0.2446	0.0256	0.2702	1918.0552	0.191794	-404.332165	-404.32164	-404.320696	-404.368848	37.309	
C	 0.1266780121	 1.3222471686	-0.574566489	-0.374411
C	-0.1349598295	 0.1516006008	 0.379065219	-0.190995
C	-1.4545311908	-0.540040085	 0.1000823957	-0.020462
C	-1.5536978495	-1.6046321849	-0.9772414474	-0.322944
C	-1.6821519913	-1.9706165838	 0.4800445797	 0.084492
O	-0.6150648593	-2.6305396271	 1.11837394	-0.207281
C	-0.5210492362	-3.9592626235	 0.8807827496	 0.132227
N	 0.3700403719	-4.6454117088	 1.4415999675	-0.205433
C	 0.4099653586	-6.0597759285	 1.1355360485	-0.314103
H	 1.0803858131	 1.8086473664	-0.3480429157	 0.113891
H	 0.1595578016	 0.9835956418	-1.6154916247	 0.116374
H	-0.6603365162	 2.0809259335	-0.4988250166	 0.112007
H	 0.6771479857	-0.578688954	 0.3120447426	 0.116091
H	-0.1323342243	 0.5113439278	 1.415619369	 0.103696
H	-2.3272000004	 0.0999417235	 0.2089233557	 0.088355
H	-2.4342745829	-1.6543615649	-1.6082029749	 0.115254
H	-0.6270069921	-1.8898609265	-1.4649183996	 0.124793
H	-2.6579051422	-2.2581962276	 0.8654889044	 0.101499
H	-1.2728263366	-4.3459208876	 0.1761727091	 0.077708
H	 1.3883847529	-6.3179467751	 0.7142341333	 0.127023
H	 0.3003015288	-6.6392342888	 2.0594317398	 0.127517
H	-0.3683267934	-6.3890344962	 0.4271853138	 0.094702
