17
gdb 44873	3.12712	1.55853	1.37992	4.0896	74.34	-0.2495	0.0283	0.2779	980.9434	0.138323	-417.962493	-417.955607	-417.954663	-417.993642	28.	
N	-0.0658863105	 1.2008644083	 0.0496548432	-0.576524
C	-0.0759354161	-0.0560634912	 0.0256158737	 0.472394
O	 1.0285083271	-0.8965444323	 0.0157206949	-0.271366
C	 0.3985996468	-2.2134622598	-0.0169319495	-0.014833
C	-0.7017778496	-2.0230909233	-1.0866121935	-0.23923
C	-1.241980745	-1.0157958291	-0.005035652	-0.224547
C	-0.7138951844	-2.053833823	 1.0224639908	 0.43371
C	-1.3995293998	-3.0804818513	 1.8210474766	-0.342295
N	-0.6760958552	-1.9497480945	 2.4571347917	-0.386425
H	 0.892841571	 1.5541920117	 0.0685382354	 0.223991
H	 1.1617831919	-2.9890267017	-0.0210136579	 0.093724
H	-0.3841752977	-1.610627372	-2.0454593102	 0.120144
H	-1.3445688391	-2.8947858315	-1.2123688055	 0.117321
H	-2.2430095423	-0.5970561636	 0.0012698534	 0.105332
H	-2.4784869487	-3.0551824472	 1.9463849398	 0.130302
H	-0.9604570875	-4.0747764499	 1.8668577109	 0.118562
H	 0.2230894791	-2.2476718498	 2.8281039581	 0.23974
