21
gdb 81686	3.39988	1.26825	1.22026	1.3335	78.29	-0.2401	0.0917	0.3318	1154.7557	0.183039	-424.214753	-424.206448	-424.205504	-424.247096	33.097	
C	-0.2147503011	 1.4612428147	-0.0292297837	-0.432205
C	-0.0054724371	-0.0475810194	 0.0027844796	 0.020224
C	 1.1930095691	-0.6160659764	-0.820472534	 0.1114
C	 2.0901770616	-0.3740218699	 0.4247892587	-0.29919
C	 0.7799794922	-0.6300302434	 1.2197921601	 0.111408
O	 0.4994650388	-2.028396109	 1.2954202784	-0.295962
C	 1.029631911	-2.7521389575	 0.1938263567	 0.230751
C	 0.2388363364	-4.0311182198	 0.0250612498	-0.4011
O	 0.9676570791	-2.0125657031	-1.0175995709	-0.295955
H	 0.7045129077	 2.0241992541	 0.1607801088	 0.115351
H	-0.596311456	 1.7774833165	-1.0061348381	 0.121611
H	-0.9471275008	 1.7655805053	 0.7263773787	 0.121612
H	-0.9442562851	-0.5730916328	-0.1908725451	 0.076417
H	 1.4549930577	-0.1889327115	-1.7908740283	 0.0746
H	 2.9558701458	-1.0151972777	 0.5956520565	 0.108801
H	 2.4002642892	 0.6687033856	 0.4946944273	 0.110232
H	 0.642784131	-0.2163657775	 2.2211997064	 0.0746
H	 2.0862880692	-2.9833082015	 0.4061142724	 0.068648
H	-0.8065585999	-3.7938550236	-0.1858785153	 0.128659
H	 0.6484277679	-4.6137536283	-0.8037446157	 0.125033
H	 0.2939516633	-4.6245904251	 0.9409767478	 0.125064
