18
gdb 99176	5.19142	0.80582	0.74903	3.2403	69.79	-0.2497	0.0542	0.304	1528.187	0.146733	-476.237226	-476.227565	-476.226621	-476.273732	32.491	
C	 0.0182864371	 1.3784937649	 0.1095087625	-0.33081
N	-0.1698375701	-0.0025083868	-0.2803288149	-0.359669
C	 0.6784102111	-0.6417226388	-1.1240738633	 0.52079
O	 1.6606945893	-0.1669426601	-1.6522186902	-0.414759
O	 0.2680380824	-1.9307385052	-1.3016008799	-0.285137
C	 1.0673168415	-2.6783409813	-2.2096431065	 0.099129
C	 2.4162171206	-3.2054084544	-1.6918729553	-0.083503
O	 2.0019948613	-4.572211175	-1.9219844324	-0.275411
C	 0.6641400343	-4.1575887118	-2.2649877263	-0.102613
H	 0.9191413917	 1.7393425251	-0.3878970967	 0.171779
H	-0.8295852262	 2.0007929352	-0.1981824996	 0.128136
H	 0.1482640054	 1.4746386162	 1.1933029768	 0.128161
H	-0.9484318107	-0.5295582286	 0.0775842488	 0.255225
H	 1.1228578023	-2.1598114264	-3.1673588915	 0.109294
H	 3.3031420549	-2.9349054405	-2.2725118349	 0.11754
H	 2.5916342471	-2.9954534347	-0.629706739	 0.106504
H	-0.071250153	-4.4334107627	-1.4985241952	 0.107403
H	 0.3448314611	-4.5472004151	-3.2378096123	 0.107943
