19
gdb 35276	3.29461	0.91141	0.82409	1.6449	81.92	-0.2594	0.0208	0.2802	1452.863	0.157249	-385.817882	-385.808729	-385.807785	-385.852766	33.938	
C	-0.0535120473	-1.1664082663	 0.2784090378	-0.436151
C	 0.0551257756	 0.0306299789	 0.250407167	 0.341208
C	 0.137733423	 1.4659718919	 0.1987795778	-0.159061
O	 0.9842219016	 2.1218831826	 1.159609696	-0.242215
C	 1.3678017794	 2.1806761582	-0.2132922192	 0.090755
C	 2.6423263513	 1.4745286003	-0.6095596743	-0.270425
C	 3.8797012098	 2.2689768814	-0.2392842818	 0.033282
C	 4.3975097856	 2.2384544239	 1.1761877631	-0.245573
C	 5.1727145769	 1.5595423739	 0.0737931661	-0.280347
H	-0.1440541842	-2.2242321302	 0.3096711636	 0.203375
H	-0.815585335	 1.9694650741	 0.0382808185	 0.115489
H	 1.2184182807	 3.1643156908	-0.6653988268	 0.09311
H	 2.665535418	 0.4930730413	-0.1253388553	 0.114905
H	 2.6193085632	 1.2955660877	-1.6932790353	 0.104087
H	 3.9742961976	 3.2194993265	-0.759337984	 0.080584
H	 4.7976217262	 3.1530421074	 1.5993168137	 0.109843
H	 3.8671067318	 1.6154023934	 1.8875169434	 0.126009
H	 5.1734109226	 0.4745431586	 0.0466457555	 0.110899
H	 6.1014033332	 2.0103740355	-0.2582730759	 0.110227
