19
gdb 117187	3.24943	0.74359	0.63306	2.6309	68.98	-0.2596	-0.0353	0.2243	1720.855	0.156244	-497.303155	-497.292575	-497.29163	-497.340533	36.757	
O	-0.0674845958	 1.3882347154	 0.0629731172	-0.422226
C	 0.0550361097	-0.0208247926	-0.0413173927	-0.0758
C	-1.3459645119	-0.5966811358	 0.1175221437	-0.291424
C	-1.3882950594	-2.1030870759	 0.0415258907	 0.344348
O	-0.3840981195	-2.7855428581	-0.0248413563	-0.331183
C	-2.7453677041	-2.8018628085	 0.0671975879	 0.021932
O	-2.5771732217	-4.1833883794	-0.1476943715	-0.447034
C	-3.4701841093	-2.6022349552	 1.4169430846	-0.065941
O	-4.6249875898	-3.4031703206	 1.4640531729	-0.417753
H	 0.8088439906	 1.7731456167	-0.0289170672	 0.291005
H	 0.4710402561	-0.324832618	-1.0127786165	 0.104363
H	 0.7132620825	-0.4348029425	 0.7349829246	 0.107841
H	-1.7663612579	-0.2784627773	 1.0812931349	 0.148971
H	-2.0170935462	-0.1771414587	-0.6425655206	 0.140547
H	-3.380974831	-2.3869066594	-0.7292097401	 0.100861
H	-1.6165808343	-4.3298922356	-0.1162168364	 0.296382
H	-2.7698517653	-2.8480549504	 2.2334802963	 0.089844
H	-3.7877315895	-1.5617677397	 1.5394706892	 0.110303
H	-4.3416175331	-4.2791100847	 1.1700757192	 0.294963
