15
gdb 48074	2.77828	1.49189	1.08997	2.8364	68.56	-0.2433	-0.0938	0.1495	1077.6204	0.110173	-457.72651	-457.718324	-457.71738	-457.760562	29.117	
O	-0.4583513016	 1.4841776059	 1.3213365417	-0.20901
C	 0.5582797197	 1.1150479646	 0.802535866	 0.09107
C	 1.4353070302	 1.9562684425	-0.1367166821	 0.180513
O	 2.2557772962	 1.36196659	-0.8089129062	-0.306031
C	 1.253274072	 3.4142139305	-0.2295055192	 0.356574
C	 1.5364756539	 4.1934972438	-1.4957373614	-0.316611
C	 2.3422340156	 4.4972234341	-0.2741555044	-0.14996
C	 1.4689346775	 5.194426691	 0.7643571104	-0.095763
O	 0.4407741594	 4.1702765457	 0.6618283619	-0.307334
H	 0.9591234662	 0.0821485877	 0.8945262794	 0.106549
H	 2.0561292219	 3.6307831793	-2.2628020488	 0.150283
H	 0.7618782079	 4.8761190872	-1.8330408789	 0.132337
H	 3.4125102666	 4.3525253044	-0.2225630297	 0.127126
H	 1.9018559844	 5.201118099	 1.7698514576	 0.12235
H	 1.0876166501	 6.1900140942	 0.5125283835	 0.117907
