13
gdb 16095	4.84033	1.7808	1.54326	1.6908	64.12	-0.2463	0.0046	0.251	805.5841	0.095546	-361.417456	-361.411038	-361.410094	-361.447809	24.951	
C	-0.002794712	-1.1869791524	-0.0371724137	-0.38072
C	-0.0051375046	 0.0137895175	 0.0166503915	 0.212715
C	 0.0129874069	 1.4431938535	 0.0635811376	 0.14748
C	 0.3773424505	 2.2677280558	-1.17006328	-0.339907
C	 1.2782485586	 2.3193936233	 0.0191033764	 0.026561
O	 1.039683646	 3.355473064	 0.953418392	-0.207731
C	-0.2258375661	 3.142956954	 1.4059390242	 0.090351
N	-0.8653648588	 2.1208954221	 1.0035025574	-0.296793
H	-0.0095589781	-2.2480382417	-0.07715508	 0.192585
H	 0.7479702312	 1.7080113151	-2.0205427676	 0.13905
H	-0.2506252936	 3.1217079284	-1.4003266203	 0.13339
H	 2.3022031497	 1.971810935	 0.011180674	 0.131749
H	-0.5910677597	 3.8888483555	 2.1005672885	 0.151269
