13
gdb 44322	3.53553	1.96116	1.4939	4.7522	60.89	-0.2682	-0.0097	0.2585	818.4152	0.089832	-456.460476	-456.454826	-456.453882	-456.490405	23.268	
O	 0.0109039972	 0.0809805523	-0.1931388422	-0.339926
C	 0.0523232146	 1.2567732041	-0.0175316231	 0.435108
O	-1.0506907957	 2.092506135	 0.0600391779	-0.271247
C	-0.51311952	 3.4512574998	 0.2836955573	 0.050258
C	 0.7107303399	 3.5601762845	-0.6314331294	-0.101959
C	 1.7594768003	 3.9158789695	 0.4480371098	-0.024217
O	 2.522164492	 2.6232715693	 0.288812107	-0.376599
C	 1.1325261602	 2.2875662237	 0.180602117	 0.26445
C	 0.6299858451	 3.2759490525	 1.2885106168	-0.101919
H	-1.3480781476	 4.142995645	 0.3510074584	 0.109944
H	 0.7817867908	 3.6659421985	-1.7113848307	 0.118569
H	 2.3654531142	 4.8051038032	 0.6051611046	 0.118964
H	 0.6107861388	 3.0639642821	 2.3549185215	 0.118574
