21
gdb 22320	3.70713	0.82765	0.72906	1.0158	83.59	-0.2267	0.013	0.2397	1580.413	0.180026	-420.335222	-420.324869	-420.323925	-420.371312	37.461	
C	-0.3430023518	 1.402276591	 0.038830002	-0.316374
N	 0.0230686567	-0.0042379066	 0.0863447697	-0.078275
C	 1.4094388652	-0.3362241582	-0.2189862473	-0.260866
C	 0.8781898155	-0.5259649632	 1.1606935761	 0.018696
C	 1.4161846761	 0.2912523827	 2.3289368868	-0.29649
C	 0.5776460094	 0.16356433	 3.580233846	 0.360422
C	-0.8440171009	 0.6521026772	 3.5669987701	-0.488259
N	 1.1726967706	-0.3729953209	 4.5773686268	-0.169024
O	 0.3579483955	-0.4735613885	 5.7165654418	-0.399166
H	 0.454087695	 2.099908282	 0.3424193442	 0.099514
H	-0.6210902341	 1.6495065466	-0.9908228699	 0.126031
H	-1.2160974131	 1.5790670189	 0.6745423448	 0.121587
H	 1.5732192081	-1.1845280559	-0.878871463	 0.113955
H	 2.1051581518	 0.4910451638	-0.3648497487	 0.103242
H	 0.599422792	-1.5390073024	 1.4494905946	 0.097119
H	 2.4240035347	-0.0600447889	 2.5704457479	 0.123968
H	 1.5028908671	 1.3477966698	 2.0488422962	 0.104546
H	-1.3273536996	 0.496722944	 4.5296380825	 0.154561
H	-0.8732798066	 1.7200998097	 3.3214898578	 0.130615
H	-1.4160064543	 0.1321250474	 2.7907374042	 0.149162
H	 0.9543438725	-0.8860166884	 6.3496093073	 0.305036
