19
gdb 71060	2.40182	1.73156	1.55721	1.5376	82.81	-0.2061	-0.0317	0.1744	987.7195	0.158536	-385.791319	-385.78325	-385.782306	-385.823206	32.329	
C	-0.2708639491	 1.5396205448	-0.2841433683	-0.517609
C	-0.0107322289	 0.0746437366	-0.1015197544	 0.25393
C	 0.1360951316	-1.0258390944	-1.0998974358	-0.158195
C	 1.5821197442	-1.5465759837	-1.0098211504	-0.26714
C	 1.784723452	-1.3987589956	 0.4965530163	-0.100409
C	 0.811606601	-0.6208464207	 1.0110928083	 0.008683
C	-0.426965411	-1.3239020023	 1.5723993097	-0.328305
C	-0.9332768082	-1.080354017	 0.0958602112	 0.319485
O	-2.2805395122	-1.0578726188	-0.2310435252	-0.454066
H	 0.6269814792	 2.0644263004	-0.6287147466	 0.120956
H	-1.0608707386	 1.6981017682	-1.0246049928	 0.128846
H	-0.5905746557	 2.008978728	 0.6526924233	 0.122255
H	-0.3649075665	-0.9409212046	-2.0631698071	 0.077918
H	 1.7027263311	-2.6053256024	-1.2731117307	 0.104067
H	 2.2501710228	-0.9797842775	-1.675698542	 0.105336
H	 2.2578345523	-2.1951663466	 1.0648164196	 0.094628
H	-0.2917231009	-2.3408527014	 1.9534327679	 0.093485
H	-1.0736311274	-0.7469365458	 2.2437147008	 0.109468
H	-2.5623344256	-1.9608998471	-0.4137332338	 0.286667
