19
gdb 92035	2.74672	1.62295	1.2109	2.2099	73.65	-0.2507	0.0686	0.3193	1046.036	0.161108	-422.999841	-422.992304	-422.99136	-423.031553	30.58	
O	-0.13262112	 1.4451147973	 0.1777524475	-0.433432
C	-0.010877522	 0.0335234421	 0.0300875619	 0.108719
C	 0.8836819501	-0.5580069586	 1.1382679253	-0.287454
C	 0.8403704947	-2.0774866302	 1.2106443646	 0.028456
O	-0.0008869145	-2.6448459392	 2.2236664234	-0.252769
C	-0.4089585423	-2.774906959	 0.8569659906	 0.046941
C	-1.6059997599	-1.9948148213	 0.3868949511	-0.062734
C	-2.1660383991	-0.8883930638	 1.2497353238	-0.294928
C	-1.4084715996	-0.5405848132	-0.0006228743	-0.016795
H	 0.750539005	 1.8255673969	 0.1244469447	 0.278808
H	 0.4539719979	-0.1977971694	-0.9441412189	 0.062403
H	 1.9139987495	-0.2237615018	 0.9701120407	 0.092037
H	 0.5686439038	-0.1425020666	 2.1006649569	 0.13047
H	 1.7875560865	-2.6016284732	 1.0872067884	 0.090679
H	-0.3439337092	-3.7936953021	 0.4763035983	 0.088301
H	-2.3109008928	-2.5710637261	-0.2023604175	 0.082804
H	-3.2398673019	-0.7410425035	 1.2480937364	 0.112408
H	-1.6929865951	-0.7399144608	 2.2124028274	 0.134951
H	-1.9964944313	-0.1782410974	-0.8380172203	 0.091135
