16
gdb 57767	2.92798	0.70227	0.65445	3.0141	74.72	-0.2824	-0.0158	0.2666	1737.075	0.12133	-437.849839	-437.839543	-437.838599	-437.886815	35.419	
C	 0.0678149134	 1.5191334964	-0.1291068372	-0.391397
C	 0.0169957413	 0.0069595421	 0.1312966442	-0.025073
O	 0.65770256	-0.34774717	 1.3503812901	-0.407425
C	-1.3622354731	-0.4969622611	 0.0803278448	 0.093448
C	-2.5011963441	-0.8880948432	 0.0772191401	 0.050333
C	-3.8678605412	-1.4156534029	 0.0747379735	-0.179057
O	-3.9447975902	-2.7952275983	-0.2291767118	-0.38279
C	-4.5289092861	-1.1122999527	 1.370183538	 0.27946
N	-5.0456618616	-0.8962561614	 2.3802612996	-0.316644
H	 1.1062084321	 1.8563249962	-0.0830647023	 0.133702
H	-0.3447227464	 1.760876991	-1.1127329129	 0.131068
H	-0.5131463436	 2.0583878584	 0.6259649104	 0.124837
H	 0.6002773417	-0.5048056092	-0.6435366183	 0.128778
H	 0.1396911165	 0.0245093196	 2.0734180863	 0.288305
H	-4.4516027968	-0.918201049	-0.7098067327	 0.1707
H	-3.3463499619	-3.2633523259	 0.3655768583	 0.301754
