16
gdb 105730	2.31125	1.53552	1.20808	6.534	69.93	-0.2511	-0.0074	0.2437	1061.8448	0.125671	-434.08017	-434.071799	-434.070855	-434.113425	30.65	
O	 0.0731706544	 1.3783901868	 0.0083107673	-0.41295
C	 0.0305985274	-0.0208349394	 0.035120972	-0.069847
C	-1.42419456	-0.5460828779	-0.041969136	 0.094797
C	-1.506170044	-2.0933591616	 0.195471692	-0.244051
N	-2.0141771838	-2.1385194087	 1.5702625606	-0.294546
C	-2.4513511232	-0.8773516742	 1.8898994619	 0.072593
N	-2.1732108066	 0.0767567147	 1.0826685507	-0.287126
C	-2.0354408399	-0.1661837324	-1.3233371978	 0.294863
N	-2.5143662966	 0.0800387064	-2.3452886187	-0.342229
H	-0.587528062	 1.6808728858	 0.6461276691	 0.299392
H	 0.6091048412	-0.3868703992	-0.8194322315	 0.121192
H	 0.4712505692	-0.4391814169	 0.9555945771	 0.095806
H	-2.1885722634	-2.5780355241	-0.5095477911	 0.138987
H	-0.5235790513	-2.5681767011	 0.1151071738	 0.131455
H	-2.5189071302	-2.9485710624	 1.8960007674	 0.258421
H	-2.9743265714	-0.720253826	 2.8288642231	 0.143242
