21
gdb 12068	3.35795	1.63661	1.45719	1.5581	78.04	-0.2243	0.0881	0.3124	991.4783	0.188704	-329.088826	-329.080495	-329.079551	-329.121024	32.607	
C	 0.1251232455	 1.5054152322	-0.1119759648	-0.389129
C	-0.0097421267	-0.003102183	 0.1248769927	-0.228566
C	-1.4433904009	-0.5383369428	 0.051534659	 0.362815
C	-2.3512039861	 0.0318850821	 1.1420215473	-0.456553
C	-2.1488452106	-0.4961600707	-1.3672231501	-0.277841
C	-2.2730163815	-2.0201697944	-1.3117971698	-0.036866
N	-0.8849642723	-2.5424822335	-1.2333841169	-0.34015
C	-1.5703761396	-2.0783955749	-0.0041488232	-0.098944
H	 1.1779360574	 1.804927923	-0.1097958224	 0.110827
H	-0.297203615	 1.7956669391	-1.0804453893	 0.115216
H	-0.3831265902	 2.0920078895	 0.6599705351	 0.111949
H	 0.5871384023	-0.5451597951	-0.6150640274	 0.117652
H	 0.4085076446	-0.2554009763	 1.1096375265	 0.082106
H	-2.4900129147	 1.1112034788	 1.0257334601	 0.11758
H	-3.342092428	-0.4345612603	 1.1111669427	 0.109319
H	-1.929123332	-0.1471734023	 2.1383112645	 0.108943
H	-3.1071263161	 0.0276964302	-1.3393608445	 0.096682
H	-1.5490349603	-0.1184053391	-2.1992393722	 0.101985
H	-3.0713096406	-2.6393001246	-1.7026101932	 0.08802
H	-0.9461897438	-3.5604891112	-1.2404195082	 0.225137
H	-1.7103075615	-2.7470977169	 0.8384355341	 0.079819
