15
gdb 10649	3.08386	1.67179	1.31762	4.1159	62.39	-0.2556	0.0179	0.2735	932.4536	0.118384	-399.786804	-399.778789	-399.777845	-399.819037	29.599	
O	 0.7299970082	-0.090955987	-0.6971351511	-0.41591
C	-0.1778122262	 0.2839442199	 0.3343825584	-0.165445
C	-1.5474382998	-0.3967341197	 0.2023892595	 0.067652
C	-2.0571672359	-0.8377217286	-1.1765640396	-0.363783
C	-1.5959199623	-1.8772506575	-0.2011076845	 0.135749
O	-0.4316798554	-2.6025046083	-0.3641489349	-0.423682
C	-2.5122735471	 0.0742009639	 1.1554207358	 0.232949
N	-3.2776461203	 0.4598890723	 1.9339793322	-0.339298
H	 0.5472037435	 0.4411732038	-1.4776571523	 0.301948
H	 0.2876001361	-0.028136229	 1.2738770468	 0.149518
H	-0.3041936387	 1.3724779796	 0.3690648168	 0.130375
H	-3.1162957549	-0.7309702807	-1.3794390453	 0.143317
H	-1.4073573124	-0.6267174606	-2.0190091296	 0.112234
H	-2.3584484071	-2.4803140803	 0.2797011842	 0.133458
H	 0.2488665824	-2.002843168	-0.7055746364	 0.300916
