20
gdb 58378	2.24304	1.11898	0.7916	5.3863	80.4	-0.2623	-0.0387	0.2236	1448.1994	0.167931	-403.178723	-403.168161	-403.167217	-403.215333	36.946	
C	 0.0850123402	 1.505173141	-0.050318507	-0.407003
C	 0.0032049411	-0.0259698766	 0.0504178104	 0.013177
C	 0.7310745516	-0.5089435807	 1.3144742314	-0.401247
C	-1.4640507378	-0.5505824766	 0.0260154913	-0.055496
C	-2.2820682234	 0.0418311779	-1.1464961345	-0.389462
C	-3.642669805	-0.4903878394	-1.2130705454	 0.265538
N	-4.7154198392	-0.9176458189	-1.2554071995	-0.296437
C	-1.4384692438	-2.0685897407	-0.0906093092	 0.16571
O	-1.5387949148	-2.831422638	 0.8322624215	-0.2409
H	 1.1252411255	 1.8284417343	 0.0529265729	 0.124711
H	-0.2782140381	 1.8893005444	-1.0074722613	 0.118828
H	-0.4901115889	 1.9836153499	 0.7509673379	 0.124179
H	 0.5169720968	-0.4483344911	-0.8264820323	 0.082448
H	 0.2825052404	-0.0654101173	 2.2105702092	 0.123221
H	 0.6904304386	-1.5942106312	 1.4296631419	 0.141335
H	 1.7823339319	-0.207393317	 1.2834546178	 0.117648
H	-1.9490604811	-0.3005718754	 0.9755504929	 0.113674
H	-2.3462221829	 1.1287636096	-1.0533556061	 0.164606
H	-1.7809206148	-0.1652233625	-2.1005294082	 0.154837
H	-1.2757469363	-2.441583902	-1.1305487837	 0.080632
