14
gdb 11810	3.547	1.8111	1.374	1.6452	58.04	-0.2493	-0.0427	0.2066	870.1934	0.104608	-419.645918	-419.638243	-419.637299	-419.678228	27.522	
O	 0.5140373694	 0.9108333324	-0.7086377815	-0.423016
C	 0.0856311548	-0.2642304565	-0.093566238	-0.021368
C	 0.0748945162	-0.3651433344	 1.443976101	 0.338936
O	 0.720359718	 0.1909399754	 2.2853316196	-0.295398
C	-1.24864921	-1.1545517368	 1.4421736183	-0.439722
C	-1.411018291	-0.6508421191	-0.0028405556	 0.389261
C	-2.540468481	 0.0266308125	-0.6318367394	-0.256959
O	-2.1275461251	-1.2963518917	-1.0263435339	-0.267584
H	 0.5689794889	 1.5966497788	-0.0327526229	 0.29799
H	 0.6331557875	-1.1145841141	-0.5264246096	 0.126935
H	-1.0951258762	-2.2375316522	 1.4964920018	 0.149018
H	-1.9880837756	-0.8556772134	 2.1871831013	 0.143855
H	-3.4972753097	 0.0794934665	-0.11505984	 0.122919
H	-2.3483820863	 0.8079098526	-1.3645114713	 0.135136
