16
gdb 85094	2.04328	1.53316	1.3285	3.7897	69.87	-0.2722	-0.059	0.2132	1061.9634	0.121625	-437.899194	-437.88997	-437.889026	-437.933345	33.085	
C	-0.260683314	 1.4817237386	 0.1064262488	-0.399181
C	-0.0015887922	-0.0129292946	-0.0299916989	-0.061294
C	 1.2560581191	-0.3732331223	-0.8969573534	-0.349195
C	 2.0212926877	-0.5294458803	 0.4088760824	 0.343892
O	 3.1389935821	-0.3476875824	 0.787219005	-0.287908
C	 0.7050603432	-0.6378722127	 1.242566555	 0.161629
O	 0.6869400208	 0.1002997744	 2.4272851025	-0.450274
C	 0.3029209481	-2.03486166	 1.4502034238	 0.252057
N	-0.0025097743	-3.1418856473	 1.5862883277	-0.326814
H	 0.6478742429	 2.0252135199	 0.3836731465	 0.12871
H	-0.6210096153	 1.8847188811	-0.8448472174	 0.125416
H	-1.0113854799	 1.6802319191	 0.8749181526	 0.14397
H	-0.9082227252	-0.5466210401	-0.3160392184	 0.111287
H	 1.1502534689	-1.3288425659	-1.4189322886	 0.157221
H	 1.6362287097	 0.3781194966	-1.5921963828	 0.142503
H	 1.5967725185	 0.1377353259	 2.7529173951	 0.307981
