19
gdb 61922	2.76808	0.9083	0.74105	4.606	76.6	-0.2457	0.0224	0.2681	1520.289	0.158279	-419.182403	-419.172754	-419.17181	-419.217813	34.292	
C	 0.0524070834	 1.4811076363	-0.0078144949	-0.406651
C	 0.0482123033	-0.0581952627	 0.0691003174	 0.01624
N	-1.2755748098	-0.6717553192	 0.1422280217	-0.303878
C	-2.0745631869	-0.3065755977	 1.2991797707	-0.273557
C	-3.2972748426	-1.116091884	 1.3619963919	 0.264446
N	-4.2709665054	-1.7354962495	 1.4064400408	-0.297623
C	 0.7792518878	-0.6314225968	-1.1356092147	 0.087838
C	 0.5084780285	-1.962157559	-1.6854348596	-0.184658
O	-0.0018637898	-0.7798141307	-2.3246800254	-0.246149
H	 1.077393983	 1.86377877	-0.0510965716	 0.121661
H	-0.4737226554	 1.8199360502	-0.9066042223	 0.133225
H	-0.4274348753	 1.9336547314	 0.8647555215	 0.118245
H	 0.6019791164	-0.3663402683	 0.9683321985	 0.09173
H	-1.7760054349	-0.4994068735	-0.7239099421	 0.24278
H	-1.4905809411	-0.5031666838	 2.2074849268	 0.153577
H	-2.3765005349	 0.7538264129	 1.3481278431	 0.136696
H	 1.766024933	-0.1971519852	-1.3042317	 0.093401
H	 1.29059259	-2.4800774595	-2.2378394631	 0.117014
H	-0.2424336394	-2.5865066009	-1.2103399386	 0.135663
