21
gdb 58938	3.34829	1.23537	1.15604	1.2646	81.67	-0.2437	0.0751	0.3188	1171.5038	0.182634	-387.039923	-387.031427	-387.030483	-387.072961	33.528	
C	 0.078638561	 1.4362731057	-0.2161591537	-0.401477
C	-0.0530707098	-0.0512823548	 0.1247878636	-0.011872
O	 0.5740582374	-0.3477049348	 1.3738838685	-0.427579
C	-1.4827702306	-0.5184690383	 0.0924259379	 0.38668
C	-2.611579745	-0.1332328208	 1.0553376757	-0.304174
C	-3.3879006389	-1.3382122337	 0.4574638498	-0.065932
C	-3.6651669178	-0.9134858329	-1.0110353598	-0.234755
C	-2.1537141497	-1.0041563436	-1.2076707816	-0.114602
C	-2.0006128745	-1.9321759086	-0.0240567705	-0.137476
H	 1.1265194476	 1.7440070049	-0.1668381549	 0.120552
H	-0.3053983662	 1.6459915481	-1.2192953645	 0.118659
H	-0.4919886584	 2.0483176066	 0.4931221292	 0.108447
H	 0.5177788677	-0.6364189843	-0.6074910687	 0.083268
H	 0.13108841	 0.1757426915	 2.0505277877	 0.275661
H	-2.3204091798	-0.3229795173	 2.0935648273	 0.091496
H	-3.0767390579	 0.8573915753	 0.9770455054	 0.085055
H	-4.1435205865	-1.8577676353	 1.0428015574	 0.069918
H	-4.1819974116	-1.6998536497	-1.568487469	 0.099503
H	-4.1704662452	 0.046230051	-1.1741027239	 0.085438
H	-1.5986986904	-1.0230029389	-2.1377608756	 0.08091
H	-1.5097117114	-2.8870823701	 0.0944420597	 0.092281
