17
gdb 11415	4.22103	1.42531	1.12121	4.8315	64.74	-0.2599	0.0541	0.3141	1058.4292	0.143568	-401.061841	-401.054035	-401.053091	-401.094372	28.389	
C	-0.0310277039	 1.5811997424	-0.0069915301	-0.388191
C	 0.0136859635	 0.0525156831	-0.0690609874	-0.19341
C	-1.3506225713	-0.5942220249	 0.1094209347	 0.147463
C	-1.3599399097	-2.1364632074	 0.0507048135	-0.208082
N	-2.3810562317	-2.4245640812	 1.0384183387	-0.364448
C	-2.5130699754	-1.3835608927	 1.9360410276	 0.469921
O	-3.0855018508	-1.3840119269	 2.9893448088	-0.389737
O	-1.87614115	-0.2905208916	 1.4172447702	-0.252191
H	 0.9694651592	 2.0058930812	-0.1278874088	 0.117076
H	-0.6668932104	 1.9909316388	-0.7993084284	 0.117092
H	-0.4318919758	 1.9166763506	 0.9529117061	 0.146007
H	 0.4170254994	-0.2771527264	-1.0356306851	 0.10276
H	 0.684976494	-0.3392719549	 0.704685625	 0.110111
H	-2.0593949324	-0.1905821511	-0.6265700923	 0.094048
H	-1.6274804922	-2.504504857	-0.9437036246	 0.12167
H	-0.3782686317	-2.551490483	 0.3233500167	 0.108672
H	-2.5360276808	-3.3537557191	 1.3942960254	 0.261239
