23
gdb 87768	3.53885	1.0537	1.04059	0.2667	91.2	-0.2308	0.0957	0.3265	1330.6706	0.205044	-351.123015	-351.113828	-351.112884	-351.156377	36.295	
C	-0.1322973824	 1.4876235681	-0.0298702453	-0.404635
C	-0.0144910913	-0.0190073619	 0.0402175915	-0.052951
C	 1.3286625106	-0.6906641122	-0.1697937241	-0.374633
C	 0.6866477789	-0.695611072	 1.1863226068	 0.396768
C	 1.2786112711	-0.075923069	 2.4720911623	-0.379254
C	 0.8253503191	-1.3317672063	 3.2438988413	 0.371061
C	 1.6203943768	-1.9827636738	 4.3386038005	-0.493887
C	-0.661243303	-1.5084026328	 3.0866369319	-0.32827
C	 0.24363195	-1.9248299627	 1.9532386344	-0.182163
H	 0.7473890379	 1.9736239163	 0.4051049024	 0.114729
H	-0.2202105515	 1.8321026579	-1.0665959997	 0.114097
H	-1.0117328871	 1.8481016432	 0.5159257106	 0.113498
H	-0.8716737672	-0.5569592281	-0.3599721379	 0.078114
H	 1.3618667157	-1.6214173662	-0.7282517742	 0.105461
H	 2.1945992588	-0.0515686374	-0.3220132839	 0.103278
H	 2.3680130461	 0.0184709165	 2.4267592305	 0.098729
H	 0.8575794553	 0.8768620168	 2.8136225005	 0.090566
H	 1.6122218009	-1.3750677436	 5.2522494668	 0.117057
H	 1.2112463877	-2.9657708007	 4.5949839964	 0.115061
H	 2.6673276803	-2.1221795232	 4.0447622359	 0.114473
H	-1.0893068436	-2.3233213324	 3.6634270191	 0.103128
H	-1.3204050588	-0.6502040386	 2.9719464832	 0.10098
H	 0.2845957856	-2.9457886081	 1.588972661	 0.078792
