17
gdb 115093	2.6255	1.48758	1.09603	2.7302	69.68	-0.2583	-0.0321	0.2263	1096.5884	0.138189	-455.188503	-455.180381	-455.179437	-455.221616	30.224	
O	-0.0554866367	 1.5225396351	-0.1839918124	-0.428239
C	 0.0529533453	 0.1288560728	-0.0305074905	-0.0516
C	-1.3305637184	-0.5695995597	 0.0290755531	-0.163935
C	-1.2568768433	-2.1079736738	-0.0597911	-0.194116
N	-1.0145753452	-2.8184632295	 1.1936618225	-0.225654
C	-1.4316810749	-2.2609545228	 2.2496435749	 0.088989
N	-2.0432778506	-1.0044957811	 2.3240498199	-0.32994
C	-2.0089458804	-0.0856213254	 1.2961931099	 0.415925
O	-2.4086093001	 1.0548265143	 1.4505558414	-0.3749
H	-0.7639506371	 1.8261976091	 0.4015448865	 0.297046
H	 0.5928321356	-0.2525021483	-0.904566623	 0.111851
H	 0.6439460413	-0.1445474512	 0.8605060256	 0.095026
H	-1.9068120095	-0.1765408	-0.8141432409	 0.12104
H	-2.1996682694	-2.4951349401	-0.4706630813	 0.124864
H	-0.4774085877	-2.3960941711	-0.7732089473	 0.120558
H	-1.3319575485	-2.7586765342	 3.2132071611	 0.130807
H	-2.3640618005	-0.6544990741	 3.2163588803	 0.262279
