18
gdb 133622	2.67234	1.06337	1.04274	2.5084	60.92	-0.2738	0.057	0.3308	1235.008	0.140927	-570.607745	-570.597781	-570.596837	-570.642962	36.558	
C	 0.2394786682	 1.554456407	 0.3633567029	-0.397986
C	 0.0232815736	 0.0648646092	 0.0765835461	 0.343323
C	 0.7071699336	-0.7891595809	 1.1562927445	-0.409336
O	-1.3900187335	-0.124502191	 0.132761995	-0.453588
C	 0.5927702489	-0.3459915526	-1.3069831117	-0.396996
C	-0.2153225411	 0.0508645621	-2.5303035285	 0.295573
F	-0.4973408053	 1.3598250151	-2.5872101958	-0.070556
F	 0.4703021545	-0.2525076386	-3.6485704921	-0.081184
F	-1.3816611205	-0.6163458	-2.5999705956	-0.086502
H	 1.3065613976	 1.7939593429	 0.3934630943	 0.109676
H	-0.2389901026	 2.1710020519	-0.397558128	 0.138554
H	-0.198134672	 1.8018605037	 1.3341671181	 0.125196
H	 0.3305596617	-0.5066019531	 2.1427968338	 0.127551
H	 0.4953557982	-1.8533236628	 1.002221321	 0.10609
H	 1.7944305368	-0.6573853574	 1.1478332581	 0.114963
H	-1.6010045477	-1.0025102372	-0.2015216347	 0.278496
H	 1.5972731064	 0.0676825498	-1.4332172519	 0.134007
H	 0.6902358131	-1.4360663681	-1.3634942554	 0.122719
