27
gdb 104444	2.73933	1.11096	1.00598	0.0584	95.09	-0.2822	0.0756	0.3578	1398.3151	0.253992	-353.592034	-353.582238	-353.581294	-353.625859	39.363	
C	 0.1942946509	 1.5425055474	-0.0192782497	-0.403516
C	-0.0332573395	 0.0258345982	-0.018650278	-0.192951
C	-1.4994301671	-0.4670692424	 0.0768494313	 0.294432
C	-2.1366361947	 0.0478380351	 1.3826629664	-0.420991
C	-2.306248365	 0.0140515692	-1.1559687461	-0.203152
C	-3.6893194026	-0.6417105697	-1.2925098337	-0.206113
C	-3.5876182318	-2.1720187128	-1.3060840455	-0.175594
C	-2.8446772238	-2.6823185509	-0.0647574785	-0.210093
C	-1.4668751749	-2.0175290581	 0.07419212	-0.202074
H	 1.2630813794	 1.7638677114	-0.1043724752	 0.110454
H	-0.3069981101	 2.0325735987	-0.8596892144	 0.116677
H	-0.1619175953	 2.012739342	 0.9022747512	 0.116145
H	 0.4081386241	-0.3952702944	-0.9317678158	 0.086997
H	 0.5285954785	-0.4142983734	 0.8166776765	 0.085601
H	-2.2257068854	 1.1385473114	 1.3821453251	 0.110782
H	-3.1395400008	-0.3562180703	 1.5415970054	 0.112197
H	-1.5289771528	-0.2374156489	 2.2491623814	 0.105818
H	-2.4182168422	 1.1037655033	-1.1269036828	 0.087169
H	-1.7230190575	-0.2121246132	-2.0603884724	 0.083745
H	-4.3366520931	-0.3274155409	-0.4634561017	 0.093966
H	-4.1738141788	-0.2844377033	-2.2087045677	 0.087174
H	-4.5849297519	-2.6222141541	-1.3684730964	 0.085616
H	-3.0448277066	-2.4895182484	-2.2078306708	 0.088724
H	-3.4517967961	-2.4865273832	 0.8283815179	 0.094143
H	-2.721550811	-3.7704773203	-0.1145612474	 0.087464
H	-0.8386359931	-2.3463022806	-0.7658096917	 0.084354
H	-0.967486779	-2.3718877617	 0.9850396127	 0.083028
