15
gdb 35679	3.76604	1.02175	0.94092	1.8691	69.5	-0.302	-0.0021	0.2999	1218.5979	0.113908	-416.833092	-416.824907	-416.823963	-416.867444	28.665	
N	-0.432757653	-0.894598654	-0.7581251521	-0.309289
C	-0.2356694298	 0.1791162383	-0.379216996	 0.267608
C	 0.012992969	 1.528535695	 0.1101461024	-0.184569
C	-0.5054350929	 1.7666458566	 1.5609869195	-0.083502
O	 0.4997878801	 2.5292567675	 2.2351768068	-0.242218
C	 1.4737402837	 2.9718776634	 1.3097969393	-0.041663
C	 1.513726381	 1.888278283	 0.220034915	-0.243846
C	 1.1199795834	 4.2967445897	 0.749099146	 0.273909
N	 0.8281073751	 5.3206921682	 0.3004017342	-0.313912
H	-0.4746808122	 2.2337340734	-0.5702086365	 0.155132
H	-1.4533684792	 2.3134248296	 1.5536348304	 0.136599
H	-0.6401855148	 0.8288558088	 2.106469894	 0.142304
H	 2.4237699172	 3.0662234888	 1.8430487058	 0.146496
H	 2.0877921532	 1.0358458469	 0.58950438	 0.14599
H	 1.9410365293	 2.2268671047	-0.7240515288	 0.15096
