15
gdb 125772	5.82972	0.98087	0.844	4.0003	73.06	-0.2421	-0.0201	0.2221	1318.0505	0.113457	-450.139481	-450.131184	-450.13024	-450.173084	29.321	
C	-0.0115210129	 1.5337838818	 0.1291239548	-0.487141
C	-0.0040149998	 0.0505017012	-0.0076011349	 0.371312
N	-0.0664883924	-0.5355672199	-1.1746796696	-0.178844
O	-0.0328189351	-1.9178970919	-0.8486729273	-0.181513
C	 0.0456127595	-1.9663518591	 0.4757128838	 0.560052
N	 0.0973334891	-3.1590442315	 1.1421302043	-0.40388
C	 0.0818408954	-4.4555719628	 0.6446904671	 0.076881
N	 0.0123542602	-4.7319399558	-0.5885924856	-0.410966
N	 0.0681541366	-0.8027382191	 1.0688723264	-0.410992
H	 0.8985223152	 1.8721892898	 0.6334378867	 0.14687
H	-0.0745137129	 2.0034642763	-0.8533687881	 0.150653
H	-0.8627101311	 1.85367348	 0.7375400061	 0.14687
H	 0.1548376546	-3.0433323646	 2.1415861477	 0.278933
H	 0.1378834299	-5.1753801351	 1.4692876765	 0.105656
H	 0.0150456439	-5.7404241493	-0.7246255179	 0.236111
