16
gdb 128832	3.49133	1.11338	0.87415	5.079	68.03	-0.2411	-0.0277	0.2134	1283.6538	0.124183	-471.152745	-471.144165	-471.143221	-471.18648	30.804	
C	 0.3681245271	 1.3514648508	-0.0674206362	-0.230315
O	 0.4795433467	-0.0571214134	-0.0866068485	-0.245611
C	 0.3414488582	-0.6322846068	 1.20231806	-0.18679
C	 0.5138474205	-2.1082755941	 1.0675434112	 0.305427
N	-0.2259960876	-2.9814639363	 1.6873751103	-0.153667
O	 0.256410629	-4.2047974472	 1.3436252708	-0.163685
N	 1.317972562	-4.0981389892	 0.4606760416	-0.173099
C	 1.4915172222	-2.8126253188	 0.2893366792	 0.29467
N	 2.4872851725	-2.2446549212	-0.469724078	-0.597005
H	 1.1438972544	 1.8111605579	 0.5633923024	 0.115358
H	 0.4895210854	 1.7001848007	-1.0949727488	 0.136232
H	-0.6165130531	 1.6697618674	 0.3046645079	 0.119841
H	 1.1073757839	-0.2199982817	 1.8811005408	 0.117313
H	-0.6427232327	-0.4103319016	 1.6381487043	 0.129855
H	 2.9180733857	-2.8754435415	-1.1305856171	 0.263781
H	 2.2117167057	-1.3581759951	-0.8704842199	 0.267695
