21
gdb 64189	2.1781	1.46065	1.36423	3.4272	78.59	-0.241	-0.0124	0.2285	1115.6673	0.179252	-424.233489	-424.223523	-424.222579	-424.267671	37.743	
C	-0.1653121762	 1.5362596668	-0.0242197124	-0.448924
C	 0.0163164414	 0.0230019901	-0.0384641599	 0.37399
O	-1.2350229357	-0.6264862801	-0.2009880858	-0.475984
C	 1.1850197482	-0.4496613304	-0.9514851395	-0.280309
C	 2.0763306784	-0.6070326935	 0.3087569498	-0.266306
C	 0.8029894311	-0.5753494045	 1.1920679849	 0.171768
C	 0.8245073196	 0.2049524658	 2.5062550953	-0.482277
C	 0.282557189	-1.9787449721	 1.4785390943	 0.144939
O	 0.8398265298	-3.0013274983	 1.1710747607	-0.264316
H	 0.7838678813	 2.0616141468	 0.1168307756	 0.122567
H	-0.5767984288	 1.8638274933	-0.9873924695	 0.108394
H	-0.8582167202	 1.8430437739	 0.7643566157	 0.12633
H	-1.6335769998	-0.319541791	-1.022642304	 0.278239
H	 0.9526746204	-1.4169118486	-1.4019825656	 0.120904
H	 1.516604679	 0.2453070728	-1.727247108	 0.089976
H	 2.6614061404	-1.5241739819	 0.3785119734	 0.124495
H	 2.7226062246	 0.2563987662	 0.4860235134	 0.094846
H	 1.1535308571	 1.2357313938	 2.3514088374	 0.122123
H	-0.1666976024	 0.2336433917	 2.9729748751	 0.125706
H	 1.5150898777	-0.2594594145	 3.2189851579	 0.128256
H	-0.675600155	-1.9963889864	 2.0405164312	 0.085582
