12
gdb 4593	5.99099	1.59854	1.26185	0.	60.41	-0.2248	-0.0488	0.176	866.3994	0.086018	-414.722791	-414.716663	-414.715719	-414.752922	23.73	
O	 0.0372437837	 1.3365085281	-0.1118830366	-0.421324
C	 0.0559615732	-0.0129785655	-0.0532297656	 0.400829
C	 0.0587931636	-0.7557343043	-1.2364099051	-0.088618
N	 0.0771085763	-2.0864191603	-1.2054431727	-0.321265
C	 0.0924195246	-2.671433708	-0.013046023	 0.400828
O	 0.1111330105	-4.020920991	 0.0456057883	-0.421325
C	 0.0895903276	-1.928678329	 1.1701336591	-0.08862
N	 0.0712743393	-0.597992418	 1.1391669952	-0.321268
H	 0.03851654	 1.6491202233	 0.8028120547	 0.30087
H	 0.0461541982	-0.2646963443	-2.2041047426	 0.129512
H	 0.1098739877	-4.3335312709	-0.8690897897	 0.30087
H	 0.1022347252	-2.41971549	 2.1378288979	 0.129512
