15
gdb 7126	7.76643	0.89825	0.8134	6.546	61.5	-0.2526	-0.0305	0.2221	1345.2121	0.116247	-436.961688	-436.952659	-436.951714	-436.996749	29.493	
C	-0.1464322626	 1.4723597696	 0.0118697982	-0.228916
O	 0.0253663786	 0.0726826921	 0.0024380802	-0.204142
C	-1.1791841841	-0.6201164137	 0.0105291377	-0.177595
C	-0.8941958864	-2.126911235	-0.0005531367	 0.402637
O	 0.2017146738	-2.6085468367	-0.0140905733	-0.27114
N	-2.0894778712	-2.8704864783	 0.0065722698	-0.355837
C	-2.2364771895	-4.2560618651	 0.0001102346	 0.168854
O	-1.3563616987	-5.0690921695	-0.0129675819	-0.248497
H	 0.8505719197	 1.9169158763	 0.0045077749	 0.141364
H	-0.7008655862	 1.8213860424	-0.8733777362	 0.108163
H	-0.6832816863	 1.8115145307	 0.9116726194	 0.108164
H	-1.7863839074	-0.381650472	 0.9044687717	 0.107933
H	-1.8039100864	-0.3718806331	-0.8685555997	 0.107928
H	-2.9536207787	-2.346735586	 0.0176979744	 0.255759
H	-3.3141712144	-4.5210670618	 0.0085165669	 0.085325
