17
gdb 27051	2.95849	1.24797	0.9534	3.9497	76.39	-0.217	-0.0164	0.2006	1211.4817	0.136133	-418.065275	-418.056471	-418.055527	-418.099774	31.151	
C	 0.1446395553	 1.4903982653	-0.1066443566	-0.517272
C	 0.035585202	 0.0026692173	-0.0712425087	 0.242718
C	-0.0767888238	-0.9444377831	-1.0660545958	 0.173026
C	-0.0861206098	-0.7177238057	-2.5530526981	-0.373037
C	 1.2962965117	-0.280705557	-3.0000437148	 0.153633
O	 1.5738955137	 0.8328969346	-3.3704592002	-0.25063
N	-0.1538420454	-2.2127053407	-0.5273923587	-0.305355
C	-0.1023103114	-2.0442212883	 0.7717565448	-0.000434
N	 0.0104134362	-0.7253541895	 1.1012016012	-0.289791
H	 0.990768404	 1.8499554364	 0.4907052783	 0.131283
H	 0.3043186438	 1.8275906174	-1.1328182527	 0.166915
H	-0.759791257	 1.9806614703	 0.2749556338	 0.131595
H	-0.3427679357	-1.6662445939	-3.0354907037	 0.1349
H	-0.806836882	 0.0480277677	-2.8541014444	 0.119672
H	 2.0756679024	-1.0707373033	-2.9158746795	 0.087119
H	-0.142910492	-2.8246567456	 1.5168268696	 0.130982
H	 0.067037358	-0.344620042	 2.0314780055	 0.264676
