15
gdb 50185	2.32781	1.54726	1.1414	5.9379	69.54	-0.2519	-0.0398	0.2121	1064.4128	0.112344	-416.768088	-416.760106	-416.759162	-416.801679	28.894	
O	-0.5630204772	 0.9264379265	 1.027078041	-0.248522
C	 0.2131312635	 0.7254203673	 0.1278485828	 0.14353
C	 1.4386315174	 1.5975249997	-0.0894769751	-0.074137
N	 2.5359714991	 1.0200240884	-0.9259760508	-0.334588
C	 2.5921343258	 2.2630601307	-1.7086882164	-0.019915
C	 1.3252227567	 2.3874786747	-2.517722369	-0.17667
C	 0.6143532776	 1.2554395412	-3.0492744048	 0.310881
N	 0.0345371812	 0.361297841	-3.498516903	-0.341178
C	 1.3394884288	 2.8037991058	-1.0483190556	-0.126763
H	 0.0816914759	-0.0971037235	-0.6023444871	 0.125253
H	 1.7825150303	 1.9550675165	 0.8867631124	 0.113458
H	 3.3794458386	 0.8536444982	-0.3903266449	 0.240012
H	 3.5196482581	 2.7374836173	-2.0047038177	 0.120054
H	 1.3128106065	 3.2529441585	-3.1746566422	 0.143609
H	 1.0388951279	 3.8012644976	-0.7591314596	 0.124977
