19
gdb 62646	2.92064	1.64593	1.22939	2.5315	75.08	-0.2241	0.0679	0.292	1049.6075	0.156553	-422.942492	-422.934032	-422.933088	-422.974721	33.701	
C	-0.123802097	 1.606386776	-0.028221966	-0.463984
C	-0.0562669473	 0.0872224634	-0.0214912887	 0.395922
O	-1.3307463384	-0.4849474373	-0.2736802502	-0.477812
C	 1.1458723328	-0.5998148224	-0.7174922115	-0.214998
C	 2.0603003128	-0.3768670611	 0.5232332397	 0.069107
O	 2.4820833413	-1.7640988683	 0.6239004674	-0.366058
C	 1.0646537524	-1.8368276483	 0.2486277773	 0.477254
C	 0.4296554841	-3.1761869047	 0.0713680262	-0.528354
C	 0.6533586301	-0.6158443072	 1.1481852264	-0.178245
H	 0.8443753354	 2.056030802	 0.2113939495	 0.122386
H	-0.4231860453	 1.9786817891	-1.0163845522	 0.108312
H	-0.8605976547	 1.9585913299	 0.7004311074	 0.128665
H	-1.6810043017	-0.093559948	-1.0809744589	 0.276971
H	 1.4496062181	-0.6044749736	-1.7655285301	 0.073332
H	 2.7889379697	 0.4066081326	 0.7238657596	 0.093504
H	 0.4930013358	-3.7538204713	 0.9988927413	 0.130485
H	-0.6208751835	-3.0458126052	-0.1971667407	 0.146636
H	 0.9371730479	-3.7382787967	-0.7190301729	 0.127953
H	 0.3941053075	-0.6370047888	 2.2069414664	 0.078923
