21
gdb 113739	2.77282	1.02986	0.85137	1.5528	85.76	-0.2393	0.0563	0.2956	1430.506	0.17932	-387.030076	-387.019683	-387.018738	-387.065733	37.933	
C	 0.2944261415	 1.0382410993	-0.0481410216	-0.244395
O	-0.1306358054	-0.1754112776	-0.6364693679	-0.231644
C	-1.3749709659	-0.606162921	-0.1790354032	 0.113088
C	-1.7813852101	-1.9883587778	-0.5720137183	-0.332825
C	-1.4714201383	-1.6900579816	 0.8803904014	-0.029371
C	-0.2142331733	-2.2779699841	 1.5153368871	-0.182788
C	 0.0951866216	-1.6253601119	 2.8788362845	-0.40125
C	-0.3268784551	-3.731099801	 1.6585201284	 0.345748
C	-0.4291487659	-4.9216014668	 1.7933743746	-0.480575
H	 1.257841763	 1.2915084088	-0.4963731874	 0.130024
H	-0.4173426569	 1.8523884449	-0.2516905197	 0.110144
H	 0.4171101874	 0.9515480234	 1.0402394417	 0.114246
H	-2.1356039533	 0.1759961412	-0.168191533	 0.083474
H	-2.8063757828	-2.1736197107	-0.8720225982	 0.113233
H	-1.0394884741	-2.5658881104	-1.1136418349	 0.129776
H	-2.3222855449	-1.6297903515	 1.554497274	 0.087007
H	 0.6207911798	-2.0659706893	 0.835388007	 0.117328
H	 1.0171239583	-2.0309386655	 3.3034362503	 0.125075
H	 0.2086197924	-0.5430821305	 2.7694828874	 0.118145
H	-0.7153002568	-1.8156302609	 3.589080257	 0.124319
H	-0.5131421313	-5.9743579471	 1.9018623505	 0.191238
