19
gdb 53105	2.11564	1.01818	0.83002	3.3174	86.98	-0.2352	-0.0193	0.2159	1490.8085	0.156262	-385.870328	-385.859943	-385.858999	-385.907225	35.867	
C	 0.0982737886	 1.5277160725	-0.0651077051	-0.499379
C	 0.0530712323	 0.0742617056	 0.0030243288	 0.069914
C	 0.0122196468	-1.129448679	 0.0510769842	 0.086538
C	 0.0055536504	-2.5647275911	 0.0974449038	-0.227906
C	-0.4875403821	-3.3134269303	 1.3117071252	-0.027197
C	-0.9417253831	-2.6005496328	 2.5660907355	-0.417153
C	-1.3172879041	-3.3600868055	 0.0335902614	-0.135802
C	-2.6118640696	-2.6497708958	-0.0840700629	 0.162158
O	-3.5698755964	-3.1068705141	-0.6610341637	-0.273013
H	 0.7531599497	 1.8632082558	-0.876731542	 0.152559
H	-0.8966286354	 1.9482126623	-0.2488542375	 0.152165
H	 0.4763348706	 1.9621175048	 0.8669815731	 0.149219
H	 0.8159009311	-3.034162085	-0.4535836445	 0.120774
H	 0.0386040862	-4.2451617001	 1.5008568553	 0.104906
H	-1.3309466276	-1.6029574842	 2.353395377	 0.135589
H	-1.7181076631	-3.172365863	 3.0842398825	 0.127448
H	-0.097396007	-2.4814735192	 3.2528367636	 0.126622
H	-1.290450379	-4.2856849985	-0.5313975607	 0.10995
H	-2.6535065383	-1.6474945923	 0.3901376862	 0.082608
