21
gdb 120008	2.52359	1.034	0.81367	3.2313	80.	-0.2376	-0.0176	0.2199	1485.3284	0.180202	-424.237512	-424.227436	-424.226492	-424.273272	36.519	
C	-0.3117283104	 1.5072953176	 0.1440079619	-0.381656
C	 0.0254987468	 0.0153723341	 0.0853308996	-0.174761
C	 0.5001919233	-0.4282582393	-1.3051286968	-0.188168
C	 0.8587307638	-1.9102970953	-1.3561358184	-0.105068
C	 1.4479488536	-2.542738187	-2.6579034664	 0.073581
O	 2.029344658	-1.5241251185	-3.4454964342	-0.425292
C	 2.491025059	-3.3351025753	-1.8083617797	-0.36761
C	 2.1175684507	-2.4184436591	-0.6287216433	 0.394905
O	 2.6507185655	-2.1387529022	 0.4058356133	-0.297641
H	 0.562917324	 2.1195832088	-0.1018294642	 0.116233
H	-1.1046205745	 1.7643085862	-0.5676736986	 0.109902
H	-0.6521087508	 1.7997302913	 1.1422302383	 0.111083
H	 0.8029373857	-0.2231540083	 0.8191580592	 0.127144
H	-0.8578483675	-0.5719904597	 0.3712896709	 0.08704
H	-0.2799795945	-0.2238568036	-2.0499531836	 0.097522
H	 1.3721676343	 0.1602698003	-1.6082266355	 0.115203
H	 0.0093831565	-2.5208384526	-1.0186812169	 0.099735
H	 0.7492391644	-3.1526731008	-3.2425354846	 0.069303
H	 2.5313330582	-1.9402015028	-4.1532961076	 0.288053
H	 2.2069927038	-4.3757423822	-1.6194308646	 0.126821
H	 3.5303142001	-3.2995085115	-2.1448961989	 0.12367
