20
gdb 122757	4.69458	0.57762	0.56047	3.6246	85.31	-0.2543	-0.0231	0.2312	2034.3592	0.168592	-403.150901	-403.14012	-403.139176	-403.189104	37.514	
C	-0.117701586	 1.4975772466	-0.2937544141	-0.380956
C	-0.0317118051	 0.0158294686	 0.0815595434	-0.161074
C	-1.3990223227	-0.6749319244	 0.1070687962	-0.163774
C	-1.3007407346	-2.1588522264	 0.4825347647	-0.177256
N	-2.5908566482	-2.828745405	 0.5230056389	-0.318192
C	-3.0420066625	-3.6139265523	-0.4967313228	 0.287153
O	-2.4023443634	-3.8705200984	-1.5011879051	-0.362537
C	-4.38440136	-4.1402982674	-0.2695734541	 0.216676
C	-5.4897189282	-4.5874189205	-0.1146028967	-0.406337
H	 0.8723227848	 1.963611607	-0.3052760394	 0.114188
H	-0.5594246823	 1.628233127	-1.287592472	 0.119091
H	-0.738591209	 2.0516184846	 0.4190638353	 0.113618
H	 0.6223015276	-0.5057443794	-0.6291998366	 0.105141
H	 0.4463780155	-0.0864431977	 1.0650945007	 0.094761
H	-2.0589785445	-0.1608955075	 0.8196000937	 0.087846
H	-1.8784283238	-0.5937359011	-0.8760395767	 0.114813
H	-0.6973028001	-2.6954697352	-0.2534226146	 0.149354
H	-0.8164469608	-2.2711206707	 1.4602121563	 0.105019
H	-3.2219620396	-2.6399605139	 1.2853450549	 0.253735
H	-6.4653151472	-4.9904389938	 0.0085532981	 0.208733
