19
gdb 79860	2.78942	1.6937	1.22837	2.1475	74.63	-0.2467	0.0749	0.3216	1033.7569	0.160431	-422.98711	-422.97948	-422.978535	-423.018606	31.31	
O	-0.0338540985	 1.4551766853	-0.0804057368	-0.446919
C	 0.0364156072	 0.0509185666	 0.0101875533	 0.128012
C	 0.0103202997	-0.6165340664	 1.4122421853	-0.189586
C	-1.4855598238	-0.189544294	 1.5592533086	-0.002991
C	-2.2403497282	-1.2686225127	 2.3418766603	-0.25033
C	-1.6043766499	-2.5370366326	 1.7198143339	-0.297545
C	-0.6355198293	-1.8798022926	 0.7310631374	 0.43745
O	 0.1072542324	-2.7147064174	-0.1083080133	-0.491252
C	-1.3297918299	-0.6548097716	 0.0700354667	-0.123032
H	 0.8613221002	 1.8025466706	-0.0255901422	 0.281316
H	 0.7567199216	-0.3661785832	-0.7009512593	 0.078787
H	 0.7786533838	-0.6067482506	 2.189504311	 0.055328
H	-1.7052905167	 0.8579739609	 1.7456247268	 0.084182
H	-2.0671991875	-1.191294304	 3.4198463435	 0.097011
H	-3.3211061348	-1.2161541839	 2.1781254044	 0.10063
H	-1.075481744	-3.1563550189	 2.4540667702	 0.086152
H	-2.3245437445	-3.1786881521	 1.2028965416	 0.104269
H	 0.5651549593	-3.3605443775	 0.4398952338	 0.279987
H	-2.103643187	-0.6832288959	-0.6989264851	 0.06853
