21
gdb 59147	3.11888	1.25817	1.1214	2.0156	81.27	-0.2137	0.066	0.2798	1188.6234	0.182104	-387.00452	-386.995758	-386.994813	-387.037886	34.432	
C	-0.1007149549	 1.5538420861	 0.7017898201	-0.40444
C	 0.0823830986	 0.1529889719	 0.1233671968	 0.121182
O	 0.9605258795	-0.5587377505	 0.995856203	-0.448732
C	-1.2670871772	-0.5507454844	-0.0386693627	-0.036582
C	-1.9156481838	-1.0999165753	-1.2748758906	-0.089019
C	-1.0434172592	-2.0014828744	-2.1975711531	-0.057184
C	 0.3647701849	-2.294993206	-1.7337600432	-0.317637
C	-0.7914012546	-2.9559906555	-1.0434962723	-0.055917
C	-1.6170014987	-2.0326716135	-0.1021384602	-0.132934
H	 0.8715831178	 2.0378990095	 0.8274916169	 0.122048
H	-0.7124248785	 2.1701235131	 0.0350272121	 0.111439
H	-0.5866197896	 1.5029726839	 1.6817222737	 0.117088
H	 0.5554672302	 0.2594769512	-0.8621379847	 0.076295
H	 0.6647982433	-1.4740975281	 1.0158600323	 0.290788
H	-2.0273343088	-0.0718121352	 0.5801349338	 0.092592
H	-2.886877775	-0.7547744246	-1.6083194666	 0.088679
H	-1.3604743491	-2.2474849762	-3.2026308551	 0.090855
H	 0.8950459636	-2.9571431924	-2.413583767	 0.111607
H	 1.0145797515	-1.5881600241	-1.2383325321	 0.138486
H	-0.920863576	-4.0304748673	-1.0235174346	 0.090129
H	-2.326443364	-2.4476504883	 0.6031830335	 0.091256
