14
gdb 132612	3.13413	1.38798	0.96271	3.1824	69.77	-0.2024	-0.0119	0.1905	1113.8893	0.102135	-478.041144	-478.033738	-478.032794	-478.072764	29.134	
N	 0.0416388252	 1.3563720588	-0.1908415069	-0.567895
C	-0.0100135058	-0.0240186861	-0.0845984833	 0.374103
C	-1.2254131272	-0.7135220239	 0.0028871735	-0.200623
C	-1.1891809612	-2.1033207846	 0.0465785767	-0.183535
C	 0.0277561153	-2.7547733855	-0.0000363207	 0.155538
F	 0.1070466427	-4.089731837	 0.0393105664	-0.071749
C	 1.1906534733	-1.9851500391	-0.0864933327	 0.313621
O	 2.3858474737	-2.6062903588	-0.1288160853	-0.411114
N	 1.1697129081	-0.6612783578	-0.122191305	-0.420865
H	 0.9460680841	 1.7458626255	 0.0300028765	 0.253232
H	-0.7282251431	 1.862725003	 0.2180802508	 0.251088
H	-2.1671573408	-0.1785739264	 0.0279370072	 0.091752
H	-2.0985087082	-2.6898772103	 0.1157284021	 0.118847
H	 3.0454113039	-1.9016622877	-0.1905886493	 0.297597
