15
gdb 44263	3.12943	1.50225	1.20408	2.5882	65.3	-0.245	0.0064	0.2514	999.9341	0.11552	-454.006294	-453.999077	-453.998133	-454.03834	27.226	
O	-0.1213465274	 0.0601173891	-0.2351187241	-0.347561
C	-0.0532004726	 1.2421629666	-0.0466339483	 0.418574
N	-1.001831066	 2.220288801	 0.1750342272	-0.319604
C	-0.0529031959	 3.3421859967	 0.0786670411	-0.096298
C	 1.0906485382	 2.2965032165	-0.0008461563	-0.193514
C	 1.8131025212	 2.5288050784	-1.3396642557	-0.187131
N	 0.9328109627	 3.4576655404	-2.0328058281	-0.309278
C	-0.069443206	 4.0253891505	-1.2965184777	 0.405865
O	-0.8488590568	 4.874187692	-1.6702915403	-0.377912
H	-1.9946352637	 2.2095660184	-0.017921959	 0.26247
H	-0.1000446434	 4.0540333714	 0.9036016965	 0.111883
H	 1.7585200114	 2.2043482178	 0.8537588607	 0.115312
H	 2.8096948992	 2.9610807201	-1.1856711355	 0.118618
H	 1.9327036244	 1.5926062164	-1.8956567334	 0.140304
H	 1.0844247149	 3.7482560346	-2.986265367	 0.258271
