20
gdb 78424	5.00168	1.27546	1.24865	1.1381	83.54	-0.2151	0.0932	0.3084	1086.5597	0.173291	-365.931376	-365.924567	-365.923623	-365.962116	28.949	
C	-0.0876818965	 1.442069096	-0.0133800191	-0.315444
N	 0.0373840885	-0.0092432593	 0.0339048592	-0.102158
C	 1.4091057804	-0.5129347669	-0.1836162595	-0.052613
C	 0.8201906451	-0.519326594	 1.1783112539	-0.052615
C	 0.6501039833	-2.0116960926	 1.4246293533	-0.032781
C	 0.1874438218	-2.6757100051	 0.086276304	-0.035798
C	 1.012686798	-3.9370642456	 0.4371979388	-0.257926
C	 1.912784927	-2.7471612696	 0.83199731	-0.060505
C	 1.4771680017	-2.0027175606	-0.4880502119	-0.032782
H	 0.7959214326	 1.9807878547	 0.371285013	 0.094412
H	-0.2522864599	 1.7561576305	-1.0492894364	 0.121438
H	-0.9563103396	 1.7485272379	 0.5785848796	 0.121438
H	 2.1849289154	 0.1810264396	-0.4910089499	 0.081542
H	 1.1252573081	 0.1695218086	 1.9595898473	 0.081543
H	 0.2232710894	-2.3603995935	 2.3662595338	 0.061667
H	-0.810418543	-2.621654055	-0.3449567884	 0.079179
H	 0.6341467101	-4.5608888359	 1.2521184364	 0.08756
H	 1.3492704913	-4.5531234182	-0.4016869666	 0.08756
H	 2.9152744246	-2.7770248963	 1.2653432301	 0.064616
H	 1.8720482018	-2.3425005146	-1.4467290375	 0.061667
