22
gdb 114203	3.1611	1.04722	0.88904	2.3496	83.26	-0.2382	0.0651	0.3033	1400.2431	0.193656	-404.307364	-404.297778	-404.296834	-404.34177	36.301	
C	 0.0514417483	 1.5122940775	-0.1751539458	-0.379788
C	 0.0285431333	-0.0023713786	 0.0549713042	-0.213531
C	-1.3786771355	-0.5833841535	 0.0684388714	 0.029639
C	-2.2124329742	-0.5684237465	-1.2525239944	-0.337897
C	-2.6775196378	-1.9825346406	-0.8949306108	 0.382977
C	-4.0833790296	-2.418575351	-0.7378308039	-0.311586
N	-3.1993698243	-3.0373406066	-1.7459370885	-0.358062
C	-1.540676639	-2.1450439871	 0.1159869773	 0.003795
O	-0.4736147927	-2.8576722355	-0.480257563	-0.422127
H	 1.0761083911	 1.8966194966	-0.1871374773	 0.112125
H	-0.4125935652	 1.77372463	-1.1321947863	 0.120153
H	-0.4949181232	 2.0425673846	 0.6127228203	 0.112863
H	 0.6107223506	-0.5055541833	-0.7256470763	 0.105895
H	 0.5248345633	-0.2304640604	 1.0092506785	 0.085617
H	-1.9643160631	-0.1379587348	 0.8809460816	 0.0678
H	-2.9768714551	 0.2043759319	-1.3668861699	 0.096944
H	-1.5628742004	-0.5630213844	-2.1348632574	 0.107879
H	-4.3695326377	-3.0769693775	 0.0788018778	 0.116823
H	-4.8646725088	-1.7364300891	-1.0658762659	 0.107543
H	-3.402922105	-2.6694662071	-2.6725006489	 0.229484
H	-1.8073434742	-2.5760327012	 1.0908186252	 0.058813
H	 0.2721458792	-2.8351621634	 0.128153672	 0.284642
