21
gdb 80846	2.03253	1.67974	1.54173	1.6344	83.51	-0.2235	0.0122	0.2357	1061.3161	0.182259	-387.074148	-387.065456	-387.064512	-387.106701	34.772	
C	-0.0338488549	 1.4358952697	 0.0070101247	-0.520661
C	-0.0248488836	-0.0542149732	-0.0151371147	 0.291941
C	-0.0411852	-0.9203023526	-1.0395336704	-0.226287
C	-0.0063552537	-2.2941983087	-0.3622240974	-0.11996
C	 1.0667646655	-2.0325501878	 0.743428688	-0.250965
C	 0.0144946362	-0.9745074673	 1.2297938931	 0.200151
C	 0.0228584893	-0.3653324253	 2.6130202654	-0.515048
C	-1.0518436353	-2.0588353693	 0.7885737147	 0.15072
O	-2.3683397256	-1.7049409409	 0.5122872013	-0.442243
H	 0.8603633733	 1.8359377169	 0.5019980572	 0.130163
H	-0.0698866461	 1.8470479993	-1.005974324	 0.124999
H	-0.894086309	 1.8282069981	 0.5642886943	 0.129504
H	-0.062924368	-0.720869834	-2.1025353447	 0.095531
H	-0.0080766985	-3.1893360889	-0.9829606547	 0.059841
H	 1.200461836	-2.8654321113	 1.4426941238	 0.090503
H	 2.0317311391	-1.6481452459	 0.406919401	 0.093999
H	 0.8690893464	 0.3164079951	 2.755162308	 0.114879
H	-0.8968366467	 0.2004781542	 2.7994884237	 0.123327
H	 0.091732829	-1.1425812502	 3.38101235	 0.116233
H	-1.0969612041	-2.8927518119	 1.4957354285	 0.082499
H	-2.3262757894	-1.008408986	-0.1579279779	 0.270873
