16
gdb 69219	2.60993	1.60031	1.17434	3.1363	70.11	-0.248	-0.0338	0.2142	1046.1415	0.123497	-437.91031	-437.90229	-437.901346	-437.942865	30.307	
C	-0.1718100134	 1.5184293359	 0.0691219222	-0.494582
C	 0.0963803532	 0.0423263896	-0.0049090797	 0.19424
N	-0.7460146713	-0.9451495463	 0.7098605723	-0.358598
C	 0.6756486729	-0.7958272254	 1.1069087439	-0.213047
C	 1.5291620604	-1.8726688792	 0.4916057187	 0.443927
O	 2.4183211668	-2.4675502909	 1.0414180041	-0.312175
C	 1.1334745475	-1.9663171419	-0.9859125775	-0.452174
C	 0.5944842798	-0.5683069818	-1.2998683471	 0.398703
O	 0.640213061	 0.0051859728	-2.3565447691	-0.31107
H	 0.7046072866	 2.0873400021	-0.2532312517	 0.14768
H	-1.000427099	 1.7887353508	-0.5921974146	 0.149764
H	-0.426607455	 1.8212481066	 1.0894303777	 0.119816
H	-1.3168963525	-0.4395920835	 1.3865572215	 0.246628
H	 0.9332687479	-0.382665685	 2.0756421897	 0.116189
H	 1.9595577185	-2.2618370443	-1.6328922653	 0.151608
H	 0.3196935166	-2.6932014595	-1.0912757752	 0.173089
