20
gdb 14859	2.81525	1.4858	1.07276	2.9231	75.65	-0.243	-0.0197	0.2233	1149.917	0.176131	-349.008642	-348.99983	-348.998885	-349.042643	31.835	
C	-0.0102547168	 1.5472732424	 0.0306382283	-0.384932
C	-0.0808290653	 0.0169505966	-0.0070977955	-0.202768
C	 0.6885737194	-0.57350098	-1.1839355397	 0.052237
C	 2.2418350279	-0.5262885194	-1.2014325163	-0.228776
C	 2.2468052559	-1.9421876913	-1.8316032463	-0.241132
C	 0.7612164259	-2.1361163744	-1.3865938538	-0.120196
C	 0.6397608251	-2.9215185913	-0.1100407154	 0.170526
O	-0.2206763675	-3.7339497502	 0.1196968399	-0.261237
H	 1.0251791206	 1.8956833656	 0.1106974189	 0.119322
H	-0.4372991933	 1.9850783929	-0.878525423	 0.116041
H	-0.5626758266	 1.9487983025	 0.885360873	 0.11694
H	 0.3097264248	-0.3874693969	 0.9355269799	 0.097038
H	-1.1287176725	-0.3044427439	-0.064654898	 0.108108
H	 0.3025624771	-0.1427354421	-2.1153541575	 0.08086
H	 2.7195180036	 0.2792244375	-1.7635866827	 0.102015
H	 2.6554854057	-0.5289648886	-0.1874592441	 0.103815
H	 2.328553244	-1.9168989258	-2.9204544274	 0.113708
H	 2.9742512486	-2.6625756436	-1.4477681997	 0.106001
H	 0.0636349076	-2.5569703405	-2.1133829277	 0.085954
H	 1.432046116	-2.7086161392	 0.6472711272	 0.066474
