21
gdb 107790	2.5377	1.57679	1.27386	1.5542	81.04	-0.2481	0.0738	0.322	1094.6427	0.182708	-387.047526	-387.039013	-387.038069	-387.080318	33.705	
C	-0.0412658879	 1.5415455305	 0.0450885107	-0.38371
C	-0.0243967482	 0.0062243642	 0.0187415614	-0.315991
C	 0.6930770277	-0.5459143219	-1.188597165	 0.310968
C	 0.1617760683	-0.3148024835	-2.6346616421	-0.291811
C	 0.8872073924	-1.6067986441	-3.0040454525	-0.075803
C	 2.2021098801	-1.6465160582	-2.2092124183	-0.129817
C	 0.8966051971	-2.0725427615	-1.5711896298	-0.151504
C	 2.2448389149	-0.4004476012	-1.3401867259	 0.128276
O	 2.8161524694	 0.8024569232	-1.7995463513	-0.446085
H	 0.9739765512	 1.9460542329	 0.002441461	 0.138448
H	-0.5918596053	 1.9439310826	-0.8120220286	 0.115115
H	-0.5238604522	 1.9131267366	 0.954023951	 0.108078
H	 0.4618303436	-0.3727868703	 0.9276810263	 0.095481
H	-1.0537098105	-0.3758405752	 0.0417431627	 0.09284
H	-0.9239287182	-0.4433607439	-2.678281277	 0.100098
H	 0.4285411874	 0.6225892942	-3.1412135914	 0.075029
H	 0.7656144427	-2.2112270157	-3.8937669601	 0.086645
H	 3.0242053145	-2.2815440574	-2.5144254338	 0.085324
H	 0.6098944824	-3.0001169852	-1.098937118	 0.09168
H	 2.7274379992	-0.6121617478	-0.3806246886	 0.08433
H	 2.5349769516	 0.9373899316	-2.7100140006	 0.282409
