13
gdb 2956	6.36188	1.73239	1.52296	2.7833	62.62	-0.2632	-0.0572	0.206	798.8311	0.100277	-307.285557	-307.278537	-307.277592	-307.317003	25.002	
O	-0.0189525062	-0.067670556	-0.0581692193	-0.320863
C	-0.0438992295	 1.1481097156	-0.0235449087	 0.25089
C	 1.1820053951	 1.9293398034	 0.0123139236	 0.239175
C	 2.189026429	 2.5883121765	 0.0423401849	-0.40656
C	-1.3073983189	 1.9328032881	-0.0146470533	-0.112705
C	-2.4864392298	 1.3519906165	-0.7866040406	-0.247458
C	-2.5013500916	 1.3106936809	 0.7003054399	-0.247395
H	 3.0892768068	 3.1528753794	 0.0686003646	 0.213501
H	-1.2008049517	 3.0100529578	 0.0164854925	 0.101395
H	-3.127040949	 2.0574939814	-1.3026295051	 0.122029
H	-2.2874217768	 0.4243786584	-1.310679794	 0.14298
H	-2.3123748162	 0.3553274925	 1.1760055392	 0.142959
H	-3.1524865412	 1.9868602455	 1.2417906064	 0.122051
