23
gdb 117079	2.91516	0.86139	0.78804	2.3963	82.76	-0.2386	-0.0085	0.2301	1623.5124	0.201008	-425.460609	-425.449038	-425.448093	-425.498008	41.707	
C	 0.0428429509	 1.5525171054	-0.3052526927	-0.385572
C	 0.0223702582	 0.0707995887	 0.0780244108	-0.168962
C	-1.3452422421	-0.5723653836	-0.1454162056	-0.277024
C	-1.3940442461	-2.0406905554	 0.2260068411	 0.361659
O	-0.4329988967	-2.6379481394	 0.6582756371	-0.332161
C	-2.7283270756	-2.7980239276	 0.0423487601	 0.258522
C	-2.5002365993	-3.9475534966	-0.9510934899	-0.41004
C	-3.1783220798	-3.3260632203	 1.4131308802	-0.410099
O	-3.6781964016	-1.8667073445	-0.4749088601	-0.466332
H	 1.0312203224	 1.9912130819	-0.1368415377	 0.112625
H	-0.2084604951	 1.6948185498	-1.3624535863	 0.112204
H	-0.6808875825	 2.1271965011	 0.283843883	 0.1122
H	 0.7755191035	-0.478756143	-0.497181942	 0.108413
H	 0.3092204439	-0.0518660873	 1.1281601381	 0.108397
H	-2.1340520925	-0.0580766876	 0.419912602	 0.129485
H	-1.6722660493	-0.4806793031	-1.1899116648	 0.129505
H	-1.6923166981	-4.5950897362	-0.6035155162	 0.143032
H	-3.4120715461	-4.547454717	-1.0519178018	 0.102939
H	-2.2375663795	-3.5543074857	-1.9375168409	 0.122784
H	-3.3929766791	-2.4952198785	 2.0915841604	 0.122787
H	-4.0887451624	-3.9272162681	 1.3070968866	 0.102953
H	-2.3975635111	-3.9489319365	 1.8550608467	 0.143045
H	-4.5125754221	-2.3323248966	-0.5909576383	 0.279638
