16
gdb 44278	3.40108	1.81509	1.42261	2.3659	71.18	-0.227	-0.0176	0.2093	895.6193	0.126375	-400.699001	-400.692713	-400.691769	-400.729688	25.905	
O	 0.029232039	-0.0379620257	 0.2537536885	-0.337644
C	-0.0222599518	 1.1536579753	 0.0433002158	 0.409022
C	-1.3265246152	 1.8998631485	-0.1556967953	-0.363868
C	-1.1408149788	 3.392306533	-0.2842785333	-0.02019
C	-0.0794937166	 4.1621563841	 0.399231843	-0.060922
C	 1.2576057481	 3.4162681398	 0.5251941352	-0.11981
C	 1.2221600544	 3.2439883485	-0.9556083266	-0.036765
C	 1.179466644	 2.0073915574	-0.0689843665	-0.14598
N	-0.0694823962	 4.0177735621	-1.1065843445	-0.16728
H	-1.8103227802	 1.4995323299	-1.0553718968	 0.145781
H	-1.9962730153	 1.6706041452	 0.6807530013	 0.142993
H	-2.0676734153	 3.9441275862	-0.4298962659	 0.106956
H	-0.2479677966	 5.130048718	 0.8598666062	 0.105875
H	 2.0657626324	 3.7010875993	 1.1840840889	 0.111563
H	 1.9777965221	 3.3696877288	-1.7196747143	 0.117431
H	 2.1207630161	 1.4688078998	-0.0224070756	 0.112837
