21
gdb 59197	2.84231	1.07023	1.0412	1.6944	78.88	-0.2379	0.0629	0.3007	1308.0551	0.180649	-424.156463	-424.147162	-424.146218	-424.190405	35.464	
C	 0.0654774482	 1.4888962113	-0.1341786802	-0.392207
C	 0.0539258042	-0.0289654557	 0.1007033694	 0.000114
C	 0.7397378586	-0.3847791725	 1.4279516464	-0.391842
C	-1.3723111679	-0.5639272415	 0.0729394579	 0.041037
C	-2.0997390315	-0.7474321434	-1.2886563912	-0.029756
O	-1.2278307907	-1.9023425819	-1.59525363	-0.31309
C	-1.6220281178	-2.080559064	-0.1776723293	-0.004813
C	-3.069404379	-1.775128535	-0.6187141562	 0.120627
O	-3.9759709967	-1.3951826194	 0.3759914987	-0.426594
H	 1.089048841	 1.8778599099	-0.1328877518	 0.110889
H	-0.3892781599	 1.7520294362	-1.0948043502	 0.110053
H	-0.4894655481	 2.014033315	 0.6528539636	 0.109759
H	 0.603045892	-0.5114486196	-0.7150944353	 0.089786
H	 0.211556491	 0.0641027534	 2.2779083279	 0.110655
H	 0.7692382332	-1.4673311031	 1.5883564964	 0.111701
H	 1.7708837808	-0.0168295903	 1.4469611562	 0.110343
H	-1.9948044828	-0.1309789393	 0.8617054956	 0.086156
H	-2.2805906952	-0.031315664	-2.0920647004	 0.086628
H	-1.2310676813	-2.9535108378	 0.3462488841	 0.092205
H	-3.4698881403	-2.5085384833	-1.3264401725	 0.086428
H	-4.8064928378	-1.154514645	-0.045708949	 0.291921
