16
gdb 14508	4.23214	1.83066	1.50462	2.355	66.13	-0.2604	-0.0419	0.2185	845.8051	0.130808	-383.693861	-383.687128	-383.686184	-383.724611	26.698	
O	 0.0307361524	 1.395304674	-0.0054383944	-0.499391
C	 0.018213045	 0.0049175181	-0.0084739845	 0.409392
C	 1.0107860573	-0.4900701593	-1.03000546	 0.073383
O	 1.6630326178	 0.2893871541	-1.6903530315	-0.282569
C	-0.0432453547	-0.7092879505	 1.3982488326	-0.107754
C	-1.48263856	-0.1187981765	 1.5247265836	-0.228012
C	-1.3948374427	-0.6947597364	 0.0766191544	-0.1078
C	-0.7025855853	-1.9350146639	 0.7070391095	-0.245411
H	 0.6862746628	 1.647664308	-0.675841873	 0.293443
H	 1.1317619076	-1.5777322778	-1.1650242216	 0.103911
H	 0.7460283598	-0.7095324869	 2.1510411322	 0.083142
H	-2.1534086113	-0.6498061462	 2.2048510777	 0.092488
H	-1.5659214035	 0.9611758644	 1.6217636089	 0.130844
H	-2.164966452	-0.6781947097	-0.6955680919	 0.083149
H	-0.0933546613	-2.5830755186	 0.0768911005	 0.096341
H	-1.3439007419	-2.5340419828	 1.3563329175	 0.104844
