14
gdb 2754	3.92793	2.52096	1.76659	4.2655	57.2	-0.2788	-0.0005	0.2783	716.767	0.113423	-324.568212	-324.561222	-324.560278	-324.599669	24.349	
C	-0.304340272	 1.5246499365	-0.0445367336	-0.417907
C	 0.0049127334	 0.0378517441	-0.0512796062	-0.039307
C	 1.3166028977	-0.4412204896	-0.7129199899	-0.078076
O	 1.72205655	-1.1423398397	 0.4884651923	-0.271443
C	 0.6011299771	-0.6321834611	 1.2285983393	-0.015384
C	 1.0053444566	 0.2748029722	 2.3099682893	 0.284195
N	 1.3090562333	 0.9980745186	 3.1588258457	-0.324144
H	 0.5440478064	 2.1081707569	 0.3246124776	 0.14403
H	-0.5385095241	 1.8659436016	-1.0581238802	 0.125214
H	-1.1668773022	 1.7481941728	 0.5908726879	 0.134109
H	-0.8593269203	-0.532925287	-0.3986560238	 0.10038
H	 1.2219870831	-1.1221752521	-1.5645832025	 0.115887
H	 2.0191451245	 0.362703147	-0.9656340525	 0.11552
H	-0.0005647435	-1.4395078404	 1.6620286468	 0.126925
