18
gdb 109365	2.61716	1.49368	0.99141	0.9268	78.1	-0.2194	-0.0264	0.193	1191.2187	0.149615	-435.291945	-435.283313	-435.282368	-435.325445	31.722	
C	 0.0305385295	 1.407116362	-0.0231354848	-0.312614
N	-0.0771304044	-0.0271977208	-0.1661219886	-0.329032
C	-1.2677951316	-0.6644632704	-0.0300688	 0.321825
N	-2.3767695256	-0.0261140028	 0.0911919033	-0.337599
C	-3.5806321675	-0.8352015212	 0.1760755663	-0.161294
C	-3.4483634912	-2.1442887688	-0.5792517766	-0.097257
O	-2.2890838094	-2.8727906905	-0.1281366679	-0.249825
C	-1.1471315511	-2.1657479881	-0.0036138361	 0.363502
N	-0.0161595564	-2.7087244375	 0.1895408353	-0.542799
H	 1.0525314922	 1.711120094	-0.2582521961	 0.121041
H	-0.6585736984	 1.9029748262	-0.71253799	 0.144016
H	-0.2215681297	 1.7455008692	 0.9909497948	 0.126525
H	 0.7327141958	-0.6155926539	-0.0424008988	 0.265504
H	-3.829181969	-1.0349403301	 1.2296220924	 0.111829
H	-4.4231794373	-0.2684290508	-0.2382163062	 0.111365
H	-4.2950827831	-2.814579918	-0.4152178964	 0.120922
H	-3.3479363047	-1.956938551	-1.6562335503	 0.116422
H	-0.1003110979	-3.7264165974	 0.2065157399	 0.227468
