17
gdb 107045	4.01843	1.14201	1.01625	1.0076	68.5	-0.2555	-0.0144	0.2412	1170.8337	0.135658	-458.935951	-458.927738	-458.926793	-458.96891	31.334	
O	-0.0355135948	 1.3690611248	 0.3616511563	-0.414275
C	 0.0472618042	 0.0100528167	-0.0358619416	-0.167391
C	-1.3177229517	-0.578337599	-0.2548038076	 0.36303
O	-2.0280806175	-0.9375183011	 0.9788805337	-0.318151
C	-1.717901207	-1.9606928363	 0.0203187776	-0.084601
C	-2.9319242932	-2.294740969	-0.8588581513	 0.076584
O	-4.068255144	-2.665881227	-0.0978161042	-0.432315
C	-3.1386629176	-1.0018187267	-1.6405873029	-0.12524
C	-2.2591153633	-0.0587347419	-1.3021332763	-0.131968
H	-0.5325915717	 1.390427965	 1.1872350439	 0.294635
H	 0.6141663694	 0.0014275453	-0.9728889552	 0.119307
H	 0.5917499344	-0.5993741934	 0.6994236043	 0.101227
H	-1.0424860177	-2.7387589422	 0.3649948109	 0.101495
H	-2.7210944065	-3.1449900446	-1.5172490957	 0.095732
H	-4.1534643795	-1.9870775098	 0.5849405744	 0.28942
H	-3.9738725008	-0.8870094787	-2.3218449754	 0.112389
H	-2.2103727529	 0.9561429879	-1.675980221	 0.120121
