13
gdb 25201	2.67503	1.84068	1.18525	3.9465	69.95	-0.2616	-0.0823	0.1793	965.1796	0.092067	-448.961913	-448.954787	-448.953843	-448.994039	25.992	
N	-0.0483795817	 1.2585065886	 0.4938318095	-0.49289
C	 0.0255026424	 0.0420186498	 0.1525286965	 0.289793
N	-1.1710273769	-0.6958484779	 0.1007229014	-0.303295
C	-1.387872663	-1.9921690298	-0.2437877714	 0.123757
N	-0.5831872608	-2.9983834879	-0.2322626412	-0.269497
C	 0.7190477573	-2.8886783557	 0.1972639052	 0.084998
N	 1.5670460257	-1.9286984875	 0.1177247056	-0.251662
C	 1.30316798	-0.6509677059	-0.3324883018	 0.305756
O	 2.0848715668	 0.0030492697	-0.982036814	-0.304344
H	 0.8667493343	 1.6961045698	 0.3782376168	 0.254831
H	-1.9871308703	-0.1002362745	 0.1777350505	 0.276807
H	-2.4225924511	-2.1817785081	-0.5287625643	 0.145645
H	 1.0865248073	-3.8160633405	 0.6392936072	 0.1401
