21
gdb 90893	2.37951	1.99157	1.42878	1.5815	80.44	-0.2216	0.0808	0.3024	1009.0204	0.183136	-387.072279	-387.064294	-387.063349	-387.104111	32.673	
C	-0.0963138553	 1.5454967578	 0.0300934718	-0.417521
C	 0.0199786736	 0.0223890452	-0.0164628926	 0.019902
C	 0.8705862596	-0.5076083346	-1.2097757425	-0.252547
C	 1.6456903133	-1.6907159776	-0.6347942525	-0.092031
C	 2.5002960463	-1.3967697957	 0.5823423256	 0.096215
O	 2.1361100038	-0.1438693279	 1.1591722397	-0.343639
C	 0.7263506098	-0.599869912	 1.2011683822	 0.424247
C	 0.1226566563	-0.3939456257	 2.5666434108	-0.488576
C	 1.1560303327	-2.0219148202	 0.7618238788	-0.210965
H	 0.8924246243	 1.9921315742	 0.1728541224	 0.13468
H	-0.5158471006	 1.9341935223	-0.9033170696	 0.11062
H	-0.7452280032	 1.8797287115	 0.8462390744	 0.109158
H	-0.984354694	-0.4204888065	-0.0707648791	 0.066062
H	 0.2386604355	-0.8147140265	-2.0483062448	 0.095792
H	 1.547166633	 0.270669087	-1.5786840689	 0.105049
H	 1.9758683164	-2.5002461195	-1.2768354755	 0.084409
H	 3.5091686727	-1.7587268711	 0.7441761432	 0.097189
H	 0.0961336972	 0.6700098755	 2.8207094797	 0.130137
H	-0.90216329	-0.7802469435	 2.595302526	 0.115934
H	 0.7119051001	-0.9104921941	 3.3287834052	 0.126321
H	 0.8272796886	-2.9758316085	 1.1509303656	 0.089564
