18
gdb 57642	3.18276	0.99068	0.94039	5.0783	72.53	-0.2931	0.0256	0.3186	1310.8149	0.14517	-439.072231	-439.062614	-439.06167	-439.107267	34.84	
C	 0.3358728698	 1.5726569414	-0.0338464854	-0.405152
C	-0.0651685694	 0.0902456201	-0.0346240777	 0.212417
O	 0.4459773239	-0.4882829191	 1.1534170759	-0.446331
C	-1.5993819273	-0.1173047172	-0.1587369153	-0.283176
C	-2.3440367531	 0.2106808943	 1.1134788368	 0.075171
C	-3.4661666376	-0.6239995925	 1.5621098292	-0.181183
O	-2.1805552879	-0.7413863198	 2.1779507924	-0.239138
C	 0.5664176647	-0.5725235741	-1.2089320071	 0.264853
N	 1.0419840268	-1.0888548798	-2.1268785037	-0.339197
H	 1.4150894519	 1.6561982095	 0.1096480335	 0.151084
H	 0.0665423811	 2.0550891103	-0.97708193	 0.130344
H	-0.1597897216	 2.0872680254	 0.7928281645	 0.129091
H	-0.2151159605	-1.0900575081	 1.5190230574	 0.305975
H	-1.9786375283	 0.4890865385	-0.9882250605	 0.130324
H	-1.7912502064	-1.1653490603	-0.4119593652	 0.128178
H	-2.3156181175	 1.2463070782	 1.4497100404	 0.111302
H	-4.2400551473	-0.1940856006	 2.1946043794	 0.12913
H	-3.7764095215	-1.4740959362	 0.9567575055	 0.126307
