21
gdb 70250	2.79128	1.46749	1.29127	1.0412	78.11	-0.2345	0.0861	0.3206	1111.3565	0.179677	-424.228377	-424.219099	-424.218155	-424.261675	36.128	
C	-0.175586241	 1.4894748369	 0.0342086787	-0.466913
C	 0.0041267644	-0.0023521044	 0.0305825718	 0.395047
C	-0.8706313458	-0.9475128987	 0.8326997978	-0.362939
C	 0.6174043543	-0.8394374708	 1.105227085	 0.013654
O	 1.4255236462	-1.7996141922	 0.475819487	-0.296687
C	 1.6204851175	-1.3586727581	-0.8764938506	 0.436893
C	 2.9048930766	-0.532777711	-0.9766476174	-0.408889
C	 1.6166302731	-2.5725593424	-1.789149178	-0.419797
O	 0.4810890228	-0.5457128278	-1.1851419896	-0.32941
H	 0.7599652521	 2.0000948368	-0.2151677658	 0.123165
H	-0.9310493308	 1.786997944	-0.7006791002	 0.131022
H	-0.508556952	 1.8346709478	 1.0173873739	 0.118251
H	-1.5472659337	-0.5120756207	 1.5617857993	 0.108874
H	-1.2196072012	-1.8491335276	 0.3430002887	 0.121222
H	 1.001900697	-0.4524320665	 2.0434567954	 0.099437
H	 3.7718237795	-1.1465450799	-0.7171381541	 0.121441
H	 3.0326196605	-0.1489217432	-1.9924420302	 0.12143
H	 2.8621606069	 0.3145469508	-0.2869813433	 0.11878
H	 0.6778138066	-3.1169588517	-1.6709634357	 0.126037
H	 1.7194716294	-2.2611595126	-2.831787349	 0.124532
H	 2.4475977676	-3.2359541086	-1.5363233637	 0.12485
