17
gdb 15793	3.49682	1.35946	1.08752	4.1336	67.16	-0.2595	0.02	0.2795	1100.6851	0.140356	-400.969961	-400.961309	-400.960365	-401.004126	30.105	
C	-0.1740446237	 1.4859371589	 0.3638005735	-0.393634
C	 0.0303310757	-0.0032062374	 0.0893011261	 0.073587
O	 0.7505443686	-0.608129168	 1.1678058973	-0.188497
C	 2.0943055312	-0.619538001	 1.0856498037	 0.130436
N	 2.7831136107	-1.0829539856	 2.0357467332	-0.442523
C	-1.2950961137	-0.7226410749	-0.0709695376	 0.079814
C	-1.6015269699	-2.0057365868	 0.5684633652	-0.174324
O	-2.1391177821	-0.7769474691	 1.0730490679	-0.232786
H	 0.7870377608	 1.9989670084	 0.4591575961	 0.121064
H	-0.7340685534	 1.9536438977	-0.4520910392	 0.121303
H	-0.7357192698	 1.6111496793	 1.2925272028	 0.156053
H	 0.5967611625	-0.1410643337	-0.844192783	 0.083703
H	 2.478602262	-0.210469117	 0.139966539	 0.084621
H	 3.7727142381	-1.0320161418	 1.8036704362	 0.229399
H	-1.8101160968	-0.4647477919	-0.9988201211	 0.09548
H	-2.3252876882	-2.6739973631	 0.1041410988	 0.113544
H	-0.8526687021	-2.4726213741	 1.2014418411	 0.14276
