16
gdb 72976	2.71687	1.5214	1.22147	3.2578	70.54	-0.2543	0.0039	0.2582	1037.9874	0.122383	-437.848695	-437.840144	-437.8392	-437.88146	31.939	
C	-0.1184060876	 1.5263592719	 0.0556363508	-0.500222
C	 0.0348783518	 0.0426688176	 0.1081120262	 0.428393
O	-1.1288136874	-0.7480463065	-0.0796269399	-0.306393
C	-0.6485708068	-1.730432792	 0.8759330739	-0.104789
C	 0.6554444395	-0.967743508	 1.0641608631	-0.26958
C	 1.2587927686	-0.7538236395	-0.3280149142	 0.200139
O	 1.1326362282	-1.6925300985	-1.3456039396	-0.443051
C	 2.508961319	-0.0238187892	-0.3218548459	 0.240356
N	 3.5190376273	 0.5410379752	-0.323042282	-0.34704
H	 0.8415341854	 2.024486673	 0.2079530664	 0.154348
H	-0.5092427791	 1.8216984503	-0.9238480367	 0.148784
H	-0.8219628469	 1.8640775465	 0.8216822228	 0.136807
H	-1.2792372319	-1.7350969215	 1.7700155053	 0.122824
H	-0.589559845	-2.7331902266	 0.4429213216	 0.117623
H	 1.2281312476	-0.8531493639	 1.9748226228	 0.124703
H	 1.7594754372	-2.4072965691	-1.1814792646	 0.297098
