17
gdb 51851	2.93603	1.21544	0.89766	1.7909	69.64	-0.2358	-0.0386	0.1972	1243.492	0.137071	-455.183719	-455.175293	-455.174349	-455.21763	30.537	
O	 0.3738478414	 1.0157544101	-1.6238174219	-0.325784
C	 0.0298417499	 1.240837085	-0.4818233285	 0.15129
N	 0.8865573677	 1.3976827863	 0.5611648283	-0.295306
C	 2.2992809345	 1.1622061238	 0.4249865878	-0.042096
C	 3.14114874	 2.1391816474	-0.4233006615	-0.20124
N	 4.5218716381	 1.9756648762	 0.0692881971	-0.29325
C	 4.4231481316	 1.7458069692	 1.5149143009	-0.280959
C	 2.9908092358	 1.2734769594	 1.7854088189	 0.368139
O	 2.4553911129	 1.1097608592	 2.8516211313	-0.318031
H	-1.0279881509	 1.3564861244	-0.1759153458	 0.084814
H	 0.5308938849	 1.435429704	 1.507718837	 0.25911
H	 2.485540376	 0.1466532996	 0.0375070114	 0.119802
H	 3.0731364927	 1.9357615848	-1.4909374732	 0.142302
H	 2.8018731104	 3.1677601084	-0.2471457342	 0.116873
H	 4.9398030834	 1.1673240395	-0.377491002	 0.229835
H	 5.1604749022	 1.0261524344	 1.8819337934	 0.139739
H	 4.5785594195	 2.6767726585	 2.0779942911	 0.144765
