19
gdb 91466	2.52855	1.67011	1.23321	4.1391	79.69	-0.2523	0.0122	0.2645	1057.8732	0.161692	-382.065078	-382.05724	-382.056296	-382.097148	31.045	
C	-0.0904476153	 1.5155841045	 0.0150384274	-0.42307
C	 0.0383153552	-0.0035408761	 0.0101539022	 0.006973
C	 1.0167169946	-0.5815924871	-1.0695324851	-0.217301
C	 1.9913762999	-1.3166908148	-0.1352563103	-0.015654
C	 1.0478343489	-2.0602092227	 0.843165444	-0.269992
C	 0.7719630024	-0.5857084824	 1.255861323	 0.22096
N	 2.2122575794	-0.2421759719	 0.9136513078	-0.347634
C	 0.2688300472	-0.2347115568	 2.5662672403	 0.171287
N	-0.1404083593	 0.0300793199	 3.6147597716	-0.344801
H	 0.890402078	 1.9796555667	 0.1484849483	 0.141275
H	-0.5121944139	 1.8668998951	-0.9320209246	 0.115809
H	-0.7476815034	 1.8557031066	 0.8217957242	 0.131051
H	-0.9521406086	-0.4620780123	-0.0669020799	 0.085049
H	 0.525234471	-1.2546617129	-1.7760200258	 0.103585
H	 1.5192976105	 0.2114093376	-1.6271719912	 0.115417
H	 2.8753226531	-1.7823814209	-0.5686483532	 0.08178
H	 0.2182126803	-2.6574044704	 0.4520082067	 0.106087
H	 1.5874164572	-2.6070633177	 1.6192773877	 0.114449
H	 2.797924373	-0.6424025642	 1.6488827569	 0.224729
