17
gdb 86375	2.16809	1.33911	0.92524	2.3105	65.86	-0.266	-0.0089	0.257	1241.2638	0.134101	-496.098933	-496.089845	-496.088901	-496.134586	32.687	
O	 0.5940749466	 0.709560301	-0.9138721471	-0.430756
C	 0.1992748915	-0.2575375438	 0.011868118	 0.147822
C	 0.0421334057	 0.1047010037	 1.5179612722	-0.325994
C	-1.2214466114	-0.8055806657	 1.5553429642	 0.149351
O	-2.3490635509	-0.4256629822	 2.2835329192	-0.430603
C	-1.2902488723	-0.7151951858	 0.0018349963	 0.012889
O	-2.1114976242	 0.4102211835	-0.3395051319	-0.226159
C	-2.9661619483	 0.3059607459	-1.3848273045	 0.17575
O	-3.656453077	 1.212238295	-1.7339445018	-0.265547
H	-0.05110913	 1.4258342393	-0.8778291344	 0.291733
H	 0.8617759328	-1.1159173675	-0.1285203398	 0.10322
H	 0.8663898646	-0.1235914392	 2.1952497099	 0.112871
H	-0.2382571291	 1.1565905518	 1.6357875687	 0.109425
H	-0.9715755672	-1.8238442622	 1.8657953112	 0.102794
H	-2.6886716226	 0.3843895232	 1.8840926861	 0.292185
H	-1.5873702144	-1.5908022109	-0.582511832	 0.086
H	-2.9433787338	-0.6946750563	-1.8533626643	 0.095018
