19
gdb 102246	1.9957	1.17518	0.85365	3.3842	79.08	-0.247	0.0377	0.2847	1408.4146	0.157024	-419.217986	-419.207243	-419.206299	-419.254827	38.29	
C	 0.3546821327	 1.5067506551	 0.0558409884	-0.389791
C	 0.1491207606	-0.0085179337	 0.0686261506	-0.170518
C	-1.3357383941	-0.4226350044	-0.06302391	-0.155578
N	-1.9465833336	 0.0502902954	-1.2989854498	-0.333324
C	-2.8830655803	 1.0552933201	-1.3021834147	 0.468488
N	-3.3959189772	 1.3488637156	-2.5608233175	-0.570566
O	-3.2032539203	 1.6748480433	-0.3032392584	-0.396953
C	-1.4845902489	-1.8760071405	 0.0572162143	 0.303672
C	-1.5685586705	-3.0727578138	 0.1325436247	-0.430245
H	 1.4128340857	 1.7513325254	 0.188120738	 0.109729
H	 0.0236372228	 1.943939385	-0.8902266051	 0.126689
H	-0.2111606713	 1.9907347034	 0.8576904082	 0.133536
H	 0.7185608913	-0.4811224071	-0.7414636029	 0.096431
H	 0.5291924099	-0.4381384814	 1.002211487	 0.112087
H	-1.9044793057	 0.0716577542	 0.7325244757	 0.150233
H	-1.6846846955	-0.4043716131	-2.1581603877	 0.241829
H	-3.481773237	 0.5935646774	-3.2245804646	 0.246012
H	-4.212130083	 1.9393919433	-2.508057812	 0.261838
H	-1.6610464757	-4.1273518943	 0.2167345557	 0.196431
