17
gdb 47076	3.02728	1.57957	1.08596	4.5165	79.1	-0.2076	-0.034	0.1735	1070.7746	0.139487	-418.023467	-418.016191	-418.015247	-418.055309	28.278	
O	 0.0502018625	-0.0443763163	 0.080937019	-0.349836
C	 0.0266670966	 1.1648468357	-0.0121773739	 0.298335
C	-1.2452598322	 2.0434927261	 0.0989715294	-0.277327
N	-0.7570483947	 3.4184878222	 0.332163668	-0.328938
C	 0.5452666968	 3.515590685	-0.3393575014	-0.048143
C	 1.6468493076	 4.3915089865	 0.3079083807	-0.187109
N	 2.8379281566	 3.5039642388	 0.2366666591	-0.283749
C	 2.40485799	 2.2003503877	 0.1613940411	-0.11874
C	 1.1029895937	 2.1219728699	-0.1849175871	 0.154053
H	-1.814898535	 1.9291494047	-0.8399532458	 0.106822
H	-1.8819941762	 1.6911731425	 0.9160005523	 0.126315
H	-1.4164730288	 4.1035549624	-0.0195307366	 0.21722
H	 0.4472605766	 3.7869818297	-1.4069229687	 0.067835
H	 1.8331961469	 5.3263668004	-0.2249529154	 0.112706
H	 1.3883083608	 4.6127295655	 1.3522042808	 0.117064
H	 3.6290864208	 3.7122784713	 0.8273177934	 0.249631
H	 3.086282068	 1.3900907978	 0.3890301752	 0.143861
