19
gdb 122501	4.4103	0.61275	0.56766	3.1245	75.07	-0.2612	-0.0422	0.219	1930.6276	0.155801	-460.133116	-460.123026	-460.122082	-460.169871	34.315	
C	-0.0394586938	 1.3653160427	-0.0671682599	-0.231538
O	-0.0309687459	-0.0071508468	 0.2480343332	-0.231302
C	-1.272299993	-0.6305150725	 0.018597627	-0.046139
C	-1.1315307989	-2.1093957321	 0.3707174933	-0.249708
C	-2.4435337319	-2.8385997462	 0.2141448596	 0.065949
O	-2.865727968	-3.1875044568	-1.0986306079	-0.243653
C	-2.5894087013	-4.2601029323	-0.1897124682	-0.055443
C	-1.4081488307	-5.1139426458	-0.5203195904	 0.140378
O	-1.2775688266	-6.2392642365	-0.1110991306	-0.243244
H	 0.9593130107	 1.7547412726	 0.1432818875	 0.130282
H	-0.2733116972	 1.539119517	-1.129262556	 0.107444
H	-0.7727721341	 1.9193484874	 0.5401191034	 0.105155
H	-2.0616460258	-0.1629141591	 0.6342227416	 0.085511
H	-1.5779494632	-0.521616927	-1.03532602	 0.104768
H	-0.3580791038	-2.5512416912	-0.2618741877	 0.119345
H	-0.7941165883	-2.1952622067	 1.4102792393	 0.123668
H	-3.2534744122	-2.4574072864	 0.8412161116	 0.106095
H	-3.4546866368	-4.8130735421	 0.173674501	 0.117626
H	-0.6634163192	-4.6338411783	-1.189993567	 0.094804
