15
gdb 84977	2.94897	1.27327	0.93803	7.3634	75.76	-0.2675	-0.0718	0.1957	1202.9523	0.113347	-416.875332	-416.867095	-416.866151	-416.908463	29.994	
C	-0.0722704345	 1.590155048	 0.0054794475	-0.394568
C	 0.0159077677	 0.0559944789	 0.0018372488	-0.005388
N	 0.7913153042	-0.4773241508	-1.0992442856	-0.342329
C	 1.8544058733	-1.2617503496	-0.7204776304	 0.360832
O	 2.645605287	-1.828171424	-1.4344511902	-0.355629
C	 1.7981649429	-1.2447971644	 0.7912238521	 0.085031
C	 0.7554989861	-0.503035624	 1.1887044325	-0.192643
C	 2.7365327636	-1.93031575	 1.6042403454	 0.242873
N	 3.5024303027	-2.4901310182	 2.2668543829	-0.327516
H	 0.9269792128	 2.0319591712	 0.0375828881	 0.141502
H	-0.5820511263	 1.9438228082	-0.8954961568	 0.130994
H	-0.6416785957	 1.937252405	 0.8728128697	 0.132545
H	-1.0070092602	-0.3535345909	-0.0071299323	 0.117744
H	 0.5731379113	-0.3259194675	-2.0698918445	 0.262561
H	 0.4547966149	-0.299585762	 2.2078460528	 0.143992
