18
gdb 53214	3.33253	0.91041	0.81247	3.2201	83.38	-0.2576	0.0176	0.2752	1475.7174	0.145669	-401.929755	-401.919888	-401.918944	-401.9671	34.12	
C	 0.1989236354	 1.5847430689	-0.2583214799	-0.499262
C	 0.1141579026	 0.1434209706	-0.0808960614	 0.053601
C	 0.0467003194	-1.0491365439	 0.0738336907	 0.128032
C	-0.0280629598	-2.4830951772	 0.2394507664	-0.088133
O	-0.0475767747	-2.9025319035	 1.6565628477	-0.259616
C	-1.2671570318	-3.5269867891	 1.5024756524	 0.441412
N	-1.9814031369	-4.1364354137	 2.3327116769	-0.546249
C	-1.4045246537	-3.1987994695	 0.0294696027	-0.137635
C	-2.6181110834	-2.3820968768	-0.3879800332	-0.40822
H	 1.1765843473	 1.8814134143	-0.652801145	 0.154483
H	-0.5670711137	 1.9436615292	-0.9541919388	 0.154489
H	 0.051235493	 2.1041347689	 0.6946569176	 0.158842
H	 0.8068852455	-2.980111788	-0.2635938141	 0.115193
H	-1.5523844932	-4.1462977345	 3.2596970007	 0.227595
H	-1.3018859595	-4.0892540497	-0.596933401	 0.110256
H	-2.7068006441	-1.471966631	 0.2102152102	 0.133716
H	-2.5514872239	-2.0939247189	-1.4412573195	 0.121514
H	-3.5253639085	-2.9758071762	-0.2473312723	 0.139981
