16
gdb 125398	2.43471	1.77856	1.03718	1.1294	77.33	-0.2221	-0.0421	0.1801	1102.1413	0.125417	-434.05493	-434.046856	-434.045912	-434.087323	31.033	
C	 0.0610516375	 1.4756178005	 0.0624972202	-0.476587
C	-0.0273053189	-0.0200966917	 0.0243155532	 0.188505
C	-0.0514945949	-0.7166112492	-1.1279124804	 0.018704
O	-0.1180867483	-2.054514785	-1.2357102044	-0.238811
N	-0.2530165467	-2.834500783	-0.0930465569	-0.177991
C	-0.1854487213	-2.2315357277	 1.0529641905	 0.337859
N	-0.232711625	-3.0413426351	 2.1741078266	-0.558099
C	-0.0304407469	-0.771514028	 1.2632204742	 0.165519
N	 0.0952376642	-0.1888562162	 2.404275531	-0.534183
H	 0.9559360182	 1.7916329915	 0.6080112399	 0.147957
H	 0.087530557	 1.9006633176	-0.9443049494	 0.113922
H	-0.7920971801	 1.8987952075	 0.6029235332	 0.142583
H	-0.0089008916	-0.2651158703	-2.1132075512	 0.136624
H	-0.4510717832	-4.0041070838	 1.9516284753	 0.264493
H	-0.8079034213	-2.6803579257	 2.9235794402	 0.257628
H	 0.1489739611	-0.8663494214	 3.1651145278	 0.211877
