22
gdb 5883	3.78014	0.89026	0.86647	0.1425	88.	-0.2393	0.0629	0.3022	1516.2968	0.197328	-313.063538	-313.052927	-313.051982	-313.09943	38.19	
C	-0.0500907871	 1.5582589158	 0.0656762621	-0.361853
C	 0.0058642273	 0.021252202	-0.005193353	-0.311703
C	 0.6855211748	-0.4741446768	-1.1989109603	-0.008868
C	 1.2506675305	-0.8588692037	-2.1917753105	 0.125235
C	 1.9368713521	-1.3398726375	-3.3984436674	 0.083451
C	 1.9524888679	-2.8855470054	-3.3968354373	-0.38887
C	 1.1894980351	-0.8322862745	-4.652301218	-0.389101
C	 3.3881235887	-0.8087571696	-3.4113007512	-0.389107
H	 0.9573029607	 1.9834530718	 0.0722615652	 0.125919
H	-0.5819197011	 1.9674796655	-0.7976719494	 0.125916
H	-0.567050966	 1.8813122987	 0.9744366252	 0.111484
H	 0.5098432679	-0.3664943809	 0.8899147793	 0.125069
H	-1.0147062093	-0.3823171859	 0.0283162409	 0.12507
H	 0.934833197	-3.2862441269	-3.3870597934	 0.118012
H	 2.4616250702	-3.2602532701	-4.2917500064	 0.106944
H	 2.4763821427	-3.2697224493	-2.5169403406	 0.118009
H	 1.1657820043	 0.2609300509	-4.6763055939	 0.117472
H	 1.6896915702	-1.1863915051	-5.5604478412	 0.106867
H	 0.157384312	-1.1939760975	-4.6644989385	 0.11786
H	 3.9376562025	-1.1535713425	-2.530766503	 0.117858
H	 3.9128372806	-1.1625828285	-4.3056137181	 0.10686
H	 3.4032036691	 0.2848766196	-3.4133658903	 0.117474
