18
gdb 36448	2.54464	1.379	0.99653	1.4757	76.86	-0.2459	0.0395	0.2854	1191.6712	0.146601	-401.862489	-401.853802	-401.852858	-401.896217	32.487	
C	-0.5795403136	-0.1134430918	 1.1202112398	-0.454008
C	-0.098313604	 0.4246110761	 0.1582751674	 0.293017
C	 0.52382806	 1.1036934035	-0.9716360338	-0.368661
C	 1.706597341	 1.9716023803	-0.5297936213	 0.068344
O	 2.3297216815	 2.6396269415	-1.6468284935	-0.298264
C	 2.2156844896	 3.9412848805	-1.0173218831	-0.13264
C	 1.4332640648	 3.3230571226	 0.1343761235	 0.276068
C	 0.2337455029	 3.7908666862	 0.8565306448	-0.308197
N	 1.5480631826	 3.6943610216	 1.5321116648	-0.360917
H	-1.0176655774	-0.6054466022	 1.9532350452	 0.201662
H	 0.8888595921	 0.369557778	-1.700718992	 0.144519
H	-0.2061052176	 1.7327745229	-1.4938812036	 0.13556
H	 2.431332087	 1.3526496988	 0.0191813865	 0.089623
H	 3.1930229341	 4.3504091264	-0.7341390904	 0.113945
H	 1.6852589142	 4.6584690028	-1.6541254411	 0.10909
H	-0.1254620503	 4.805904365	 0.7070627108	 0.120942
H	-0.532822924	 3.0612030554	 1.1012937689	 0.132321
H	 1.5764976471	 2.8587639423	 2.113298287	 0.237595
