19
gdb 70431	2.80386	1.47433	1.2619	2.2158	74.55	-0.243	0.0746	0.3176	1067.5156	0.158099	-422.967478	-422.959138	-422.958193	-423.000616	31.504	
C	-0.1214857302	 1.5341066179	 0.0139004981	-0.512084
C	 0.1454548764	 0.0649868159	 0.0026052097	 0.348829
O	-0.8030414432	-0.8046020934	 0.648901742	-0.291441
C	 0.5771267731	-0.893040499	 1.0361890001	-0.038016
C	 1.2693448316	-1.7874144445	 0.002041215	-0.348433
C	 0.7804622105	-0.8015716368	-1.1062810439	 0.255872
C	-0.0494172666	-1.2014826719	-2.3370534882	-0.127913
O	 0.8368312588	-0.4769640289	-3.2201845986	-0.276137
C	 1.7478531446	-0.1957070603	-2.141094327	-0.144062
H	 0.7813163284	 2.1015836147	-0.2321658993	 0.127917
H	-0.8932667464	 1.7961627668	-0.7187482099	 0.137012
H	-0.4708919545	 1.8447050807	 1.0019398171	 0.137565
H	 0.8047585657	-0.7499023875	 2.0865533626	 0.103677
H	 2.3597059242	-1.7915490787	 0.0928227576	 0.107347
H	 0.9019547542	-2.8156434306	-0.0527143891	 0.11239
H	-0.0575216426	-2.2770987022	-2.5581191889	 0.100307
H	-1.0774408153	-0.8222643296	-2.3719445282	 0.109801
H	 1.9648850916	 0.8764655312	-2.0514191065	 0.100997
H	 2.6965816097	-0.740242064	-2.2491815126	 0.096373
