19
gdb 73169	2.38142	1.44176	1.3081	1.7685	81.	-0.2425	0.0407	0.2832	1097.3283	0.157823	-385.825853	-385.817175	-385.816231	-385.859178	33.274	
C	-0.258137121	 1.4079992679	-0.2755686791	-0.507391
C	 0.0104891574	-0.0427777156	 0.046130283	 0.296987
C	-1.1411723579	-0.9000490643	 0.6098843212	-0.13087
O	-0.3319953506	-1.3577125041	 1.7209573577	-0.291554
C	 0.7991860468	-0.5904162507	 1.2749109121	 0.073121
C	 1.7399319696	-1.3990587405	 0.3545976034	-0.254125
C	 0.9873480181	-0.8309663475	-0.9052861298	-0.234855
C	 0.4235937215	-1.7643147782	-1.8575001119	 0.331816
C	-0.0595647662	-2.5477155427	-2.6327742018	-0.470807
H	 0.6723311385	 1.9606160635	-0.4459352018	 0.11846
H	-0.8671453018	 1.4984683743	-1.1832323272	 0.129261
H	-0.7980201645	 1.9016571672	 0.5395163244	 0.124222
H	-2.0028457125	-0.3169993108	 0.9600199135	 0.096696
H	-1.4921696864	-1.7225089866	-0.0232596829	 0.116389
H	 1.2353049726	 0.0193255585	 2.0712645046	 0.074261
H	 2.7924854961	-1.1094340625	 0.3929942112	 0.106036
H	 1.6518145128	-2.4765681169	 0.4987641603	 0.123385
H	 1.625260288	-0.1157625848	-1.4350340541	 0.101938
H	-0.4761138705	-3.2380361262	-3.323743573	 0.19703
