21
gdb 83877	2.1188	1.80022	1.32282	1.892	77.44	-0.2323	0.0748	0.3071	1071.5568	0.184091	-424.213827	-424.205516	-424.204572	-424.246255	33.258	
C	-0.0277701225	 1.5820762131	-0.0325777927	-0.400301
C	 0.0162470731	 0.0489408917	-0.010638601	 0.016728
C	 0.5688015722	-0.5322365689	-1.3288790913	-0.22116
C	 0.968053056	-1.9942832684	-1.161704252	-0.081332
O	 2.0176048011	-2.1291359832	-0.2002118322	-0.267676
C	 1.6777560726	-1.6810040113	 1.0852903844	 0.000266
C	 2.258537838	-0.3282334597	 1.4231049685	 0.095323
O	 3.0601510775	 0.2790672126	 0.4561966317	-0.428041
C	 0.7642021955	-0.4778951765	 1.2107460802	-0.110208
H	 0.985255844	 1.9876941074	-0.1038805565	 0.141984
H	-0.6090230398	 1.9458679131	-0.8872421894	 0.1044
H	-0.4887163886	 1.9769688215	 0.8788974948	 0.107578
H	-1.0138792285	-0.3230859496	 0.0858050614	 0.071828
H	-0.1875581628	-0.4428937623	-2.1174475402	 0.095495
H	 1.4446328207	 0.0383030901	-1.6556146	 0.110248
H	 0.10338134	-2.6036336651	-0.8568708018	 0.094158
H	 1.3679024748	-2.4117170356	-2.0899825588	 0.108435
H	 1.6473815025	-2.4807810931	 1.8214030993	 0.092319
H	 2.6067797585	-0.1469401435	 2.4368449617	 0.09317
H	 3.2786424454	-0.420447935	-0.177206866	 0.289826
H	 0.1838125004	-0.4439371474	 2.1298352101	 0.086959
