13
gdb 10381	2.56348	2.16551	1.46395	3.1017	59.1	-0.2736	-0.0664	0.2072	852.8988	0.094098	-398.587858	-398.580263	-398.579319	-398.62045	26.048	
O	-0.7905033135	 0.7585972673	 0.498751588	-0.225491
C	 0.1779864351	 0.8393252354	-0.2029003408	 0.129694
C	 1.3139320515	 1.8549159342	 0.027176005	 0.203792
C	 1.3111426645	 2.5502367745	 1.4061911692	-0.33442
C	 2.5501679288	 1.6774220112	 1.6877764809	-0.070874
O	 2.5000257682	 1.0937816858	 0.3526937494	-0.308391
C	 1.4868908314	 2.6986420156	-1.1569925524	 0.239238
N	 1.5888365263	 3.3571443861	-2.1015413771	-0.314337
H	 0.3763647916	 0.1449827755	-1.0440742646	 0.122483
H	 1.4882675153	 3.6237668162	 1.3774658051	 0.142761
H	 0.4159004361	 2.3260009727	 1.9850395309	 0.15551
H	 3.4886369568	 2.2172712326	 1.8422057024	 0.130875
H	 2.4333797979	 0.911404513	 2.4598036639	 0.129159
