20
gdb 16959	3.23171	2.06779	1.87089	1.4228	72.47	-0.248	0.0773	0.3253	844.2647	0.180625	-349.027338	-349.020473	-349.019529	-349.058149	27.931	
C	-0.2660005476	 1.5585450734	-0.0130777624	-0.419623
C	 0.0296424796	 0.0600295053	-0.0027882246	 0.056714
C	 0.7967838664	-0.4842168973	-1.2512750262	-0.245427
C	 1.9250433803	-1.3022137298	-0.580739701	 0.088893
C	 3.016295104	-0.3465106419	-0.0486045819	-0.214645
C	 2.2955892015	 0.2557130815	 1.1958620505	-0.220835
C	 0.9361845613	-0.477029048	 1.1354372787	 0.060795
O	 1.3050098829	-1.768301037	 0.6290473439	-0.265034
H	 0.6361997644	 2.1543279578	-0.1846856354	 0.11579
H	-0.9749329622	 1.8067192336	-0.8096998954	 0.116906
H	-0.7090594996	 1.8857795933	 0.9343479538	 0.11297
H	-0.9205065287	-0.4772787269	 0.08379867	 0.078179
H	 0.159046984	-1.120485422	-1.8695300629	 0.100471
H	 1.1869202689	 0.3173216901	-1.8863051404	 0.092629
H	 2.2907327339	-2.1546641942	-1.1536633372	 0.071949
H	 3.9105443332	-0.9035835948	 0.2404038989	 0.102342
H	 3.3101142953	 0.4063121628	-0.7847969844	 0.094475
H	 2.8178248542	-0.0031644772	 2.1197725888	 0.104386
H	 2.2058141212	 1.3434520481	 1.1608967248	 0.09928
H	 0.4327143872	-0.592025407	 2.0965504824	 0.069786
