14
gdb 29254	3.29481	1.43225	0.99949	2.7627	69.06	-0.2152	-0.0313	0.184	1089.7857	0.10331	-470.066177	-470.058622	-470.057678	-470.098171	28.988	
N	 0.0497677192	 1.4146772752	-0.019382398	-0.591394
C	-0.0074908976	 0.0286779627	 0.0311956694	 0.203871
C	-1.1261816637	-0.7093721891	 0.1126645586	-0.021354
O	-1.139606992	-2.0835831445	 0.2224466489	-0.217136
C	 0.0106922338	-2.7996613557	 0.2763956634	 0.48088
O	 0.0003953726	-3.9945491316	 0.385840472	-0.374092
N	 1.1702169585	-2.0491191483	 0.1918746757	-0.452949
C	 1.2854518039	-0.6680126184	 0.0427546656	 0.380223
N	 2.3722131218	-0.0098379602	-0.0833027001	-0.548576
H	 0.9599106566	 1.7316070194	-0.3307668419	 0.270988
H	-0.7154453335	 1.8670772682	-0.4966273706	 0.24983
H	-2.132011539	-0.3133363022	 0.1048387101	 0.133753
H	 2.0130603446	-2.6050374151	 0.2179148102	 0.268627
H	 3.201054675	-0.6030708704	-0.0679534332	 0.21733
