16
gdb 74820	3.8211	1.16694	0.99862	4.7251	75.94	-0.26	-0.0199	0.2401	1184.0697	0.123856	-400.756766	-400.748825	-400.74788	-400.789174	30.021	
C	 0.088927216	 1.4904369155	 0.045988144	-0.488541
C	-0.0183174624	 0.0021823376	-0.0250266343	 0.308821
C	-0.0681644463	-0.7615866189	-1.1240241751	-0.190686
C	-0.068374976	-2.2071177514	-0.7718749227	-0.054352
O	 1.1051608652	-2.6317197006	-0.0407347844	-0.281287
C	-0.0560415828	-2.2751842631	 0.7110544983	 0.285667
C	-0.0558066811	-0.8422396477	 1.2402476538	-0.384634
C	-0.6769952334	-3.331667018	 1.4701958356	 0.223687
N	-1.1874110555	-4.1545008941	 2.1017923904	-0.335877
H	 1.0256891698	 1.7932876667	 0.5302077012	 0.139783
H	 0.0595226865	 1.9426966279	-0.9482960372	 0.133766
H	-0.7248393052	 1.9174005975	 0.6450676365	 0.134456
H	-0.0675814233	-0.401366794	-2.1450665983	 0.109864
H	-0.5171894343	-2.9737787958	-1.3948637637	 0.123032
H	 0.8075629203	-0.6591393472	 1.8899977902	 0.140944
H	-0.9554055676	-0.6419230942	 1.8347745157	 0.135356
