12
gdb 131976	2.82581	1.70273	1.06307	5.6196	64.96	-0.2504	-0.0961	0.1542	1004.765	0.077621	-505.843005	-505.835777	-505.834833	-505.874904	26.596	
N	 0.0023925074	 1.4187157336	 0.1447755029	-0.61232
C	-0.0031989747	 0.0657034492	 0.0446420837	 0.142475
C	-1.0743029034	-0.7970288003	 0.0183265013	 0.471205
O	-0.6694693042	-2.0859951415	-0.027456809	-0.189705
N	 0.7028211015	-2.0944507512	-0.0395906548	-0.101791
C	 1.098017881	-0.8454752451	 0.0041789982	-0.009155
N	-2.4545352537	-0.506671269	 0.0102801339	 0.359358
O	-2.7427420262	 0.7014344734	 0.0413124594	-0.414893
O	-3.2564861172	-1.4276491407	-0.0301547413	-0.352469
H	 0.8241017534	 1.9186045806	-0.1503624493	 0.269423
H	-0.8922146627	 1.8653087236	 0.0011815447	 0.288763
H	 2.1554951488	-0.6222968127	 0.0068504203	 0.149107
