19
gdb 54765	2.68305	1.50902	1.1454	2.0411	76.04	-0.2399	0.0279	0.2677	1110.6296	0.159729	-419.167709	-419.159068	-419.158124	-419.201045	33.054	
C	 0.6524033427	 1.4121896458	 0.4405793928	-0.521275
C	 0.1595177298	 0.0279882753	 0.1153619662	 0.309417
C	 0.2701529606	-0.7973955353	-1.1944685301	-0.209837
N	-0.5181767109	-1.7621544887	-0.2891743237	-0.180337
C	 0.4911772678	-1.3258758481	 0.7939771746	-0.21842
C	-1.2993797209	-0.4981420072	 0.1175116905	-0.0654
C	-2.1047768424	-0.5653043451	 1.4037715879	 0.329584
N	-2.6231017308	-1.7970648503	 1.65636498	-0.512678
O	-2.2932058288	 0.4153900499	 2.0999848828	-0.367692
H	 1.74651367	 1.4585195723	 0.4189309512	 0.115795
H	 0.2684210013	 2.1423003291	-0.2799016638	 0.121933
H	 0.3072323537	 1.7102927721	 1.4347232712	 0.149666
H	-0.2936722576	-0.4595566636	-2.0690818342	 0.101162
H	 1.2539660712	-1.1817270135	-1.4776498144	 0.101615
H	 1.4906318389	-1.7422209713	 0.6406628484	 0.09897
H	 0.1484145797	-1.4977189035	 1.8167243868	 0.115617
H	-1.9466681637	-0.1285660713	-0.6868388762	 0.097049
H	-2.3565299229	-2.5821997449	 1.0838916073	 0.274712
H	-3.1649753677	-1.9414479914	 2.4926207728	 0.260119
