21
gdb 92754	3.55397	0.97657	0.79254	3.0742	86.83	-0.2376	-0.0437	0.1939	1479.1507	0.18156	-387.137564	-387.128063	-387.127119	-387.172334	35.127	
C	-0.049153485	 1.5517569696	 0.004558109	-0.405105
C	 0.0630501901	 0.0286823893	 0.0016203352	 0.042816
C	 0.8947893528	-0.5569886364	-1.1723833437	-0.272203
C	 1.5196570633	-1.7873554198	-0.5792661816	-0.128644
C	 1.4272234143	-1.8123831752	 0.7579701987	 0.229719
C	 0.7156097743	-0.575188658	 1.2757435653	-0.344116
C	 2.0097892716	-2.8999857241	 1.5894101797	 0.288424
C	 1.8924470855	-2.7587149328	 3.0971846675	-0.488613
O	 2.555798403	-3.862955086	 1.0863902198	-0.311603
H	 0.9403258283	 2.017839908	 0.0791318499	 0.114472
H	-0.521039757	 1.9178277109	-0.9135179798	 0.115304
H	-0.6489166991	 1.9063767142	 0.8495267719	 0.114897
H	-0.9457260079	-0.3955501212	-0.076103364	 0.081248
H	 0.2885750435	-0.765713774	-2.0612577015	 0.110664
H	 1.679108459	 0.1440803313	-1.4986086207	 0.11182
H	 2.0238417598	-2.5539934921	-1.1561924591	 0.121712
H	 1.4351930016	 0.1280015172	 1.7216718706	 0.104403
H	-0.0248908533	-0.788505773	 2.054182341	 0.103732
H	 0.8386280467	-2.7446166161	 3.3989537132	 0.137575
H	 2.3990305946	-3.5935560822	 3.5821982744	 0.138327
H	 2.3291130338	-1.8116277295	 3.4341274141	 0.135171
