15
gdb 45337	2.60331	1.82532	1.2327	4.1875	67.7	-0.271	-0.0046	0.2664	979.5225	0.114627	-453.956241	-453.949224	-453.94828	-453.988113	26.66	
N	-0.1684126403	 1.1981483149	-0.6045795342	-0.522799
C	-0.0739280341	 0.0607549105	-0.0999232367	 0.438364
O	 0.9851482769	-0.5716673732	 0.5317996652	-0.267313
C	 0.2256447493	-1.8150506977	 0.6531234215	 0.089644
C	-0.1648662876	-2.1300593471	 2.0889857135	-0.113854
O	-1.3709590458	-1.3990116952	 2.3508373979	-0.240159
C	-1.9854588225	-1.0094260539	 1.1873771498	 0.423416
N	-3.169311728	-0.5932527116	 1.096789058	-0.528532
C	-1.0111660354	-1.1342273004	 0.0360535669	-0.259231
H	 0.6989833621	 1.728835257	-0.5102859631	 0.236395
H	 0.7226531843	-2.627178005	 0.1227987342	 0.111686
H	-0.3588533502	-3.2020487468	 2.2168011984	 0.122119
H	 0.5982269728	-1.8129000051	 2.8038002187	 0.141382
H	-3.6277149758	-0.5990176307	 2.0095507307	 0.230644
H	-1.4679324156	-1.5019301955	-0.8788991309	 0.138238
