19
gdb 80325	2.17507	1.52241	1.36375	1.7329	81.29	-0.2466	0.0387	0.2853	1085.122	0.157376	-385.82808	-385.818938	-385.817994	-385.86132	35.107	
C	-0.0820246349	 1.4955989092	-0.0519141682	-0.500119
C	 0.0346831162	 0.0016355424	 0.0472050433	 0.270415
C	-0.8007730399	-0.8439005781	 0.9647539146	 0.067357
O	-1.5535437252	-1.9543334536	 0.5734529392	-0.431711
C	 0.6923384078	-0.9188281194	 1.1061244539	-0.147518
C	 1.2505155627	-1.8313507077	 0.0118927572	-0.247245
C	 0.6391162776	-0.8732322526	-1.0766681032	-0.224131
C	-0.2698919127	-1.4012015119	-2.0827683469	 0.308555
C	-1.0445081894	-1.8207053269	-2.9043233495	-0.465264
H	 0.8717349081	 1.9542048021	-0.3384247466	 0.117104
H	-0.8276139218	 1.7834715408	-0.8032321344	 0.127593
H	-0.3883237121	 1.9328805492	 0.9036186407	 0.122743
H	-1.2871698454	-0.2629140998	 1.7484376515	 0.089298
H	-1.810182444	-1.8458366275	-0.3495716119	 0.293039
H	 1.2024828694	-0.6517871694	 2.0242147901	 0.087489
H	 2.3396884842	-1.8592132599	-0.0379135479	 0.105678
H	 0.8538419008	-2.8481874599	 0.0148658314	 0.120997
H	 1.4459162718	-0.3258774619	-1.5746907702	 0.105349
H	-1.709895713	-2.196636285	-3.6419240029	 0.200371
