20
gdb 102754	2.04282	1.18744	0.83592	2.5388	77.44	-0.2412	0.0279	0.2691	1418.1467	0.169761	-440.286551	-440.276714	-440.27577	-440.322882	34.528	
C	 0.3448816177	 1.3626203537	 0.202193807	-0.37411
C	 0.1099700705	-0.1266242481	-0.069101234	-0.172119
N	 0.6440271594	-0.5780749563	-1.3516906652	-0.040692
C	 2.0734489929	-0.8305412646	-1.485433239	-0.212469
C	 2.4904064212	-2.1431710383	-0.862798425	 0.095416
C	 3.80729449	-2.3132155074	-0.2393672034	-0.179049
O	 2.634802113	-2.1614448514	 0.5634852766	-0.234615
C	-0.1656256054	-0.7630052638	-2.432471831	 0.148985
O	 0.1979771202	-1.1265999144	-3.5328858543	-0.349069
H	 1.4115709881	 1.6055381933	 0.2193088254	 0.126618
H	-0.1321617017	 1.9799143549	-0.5650162228	 0.125134
H	-0.0726674835	 1.6377731329	 1.1757689175	 0.122918
H	 0.5580219114	-0.7314884247	 0.7245387348	 0.146221
H	-0.9646020075	-0.337754262	-0.0672688268	 0.116352
H	 2.2904157789	-0.848927815	-2.5568083743	 0.150641
H	 2.6386198391	-0.013929336	-1.0230552896	 0.108104
H	 1.9919103508	-3.0235386899	-1.2691214424	 0.110557
H	 4.2687319924	-3.2986907478	-0.2131466145	 0.121927
H	 4.5027923508	-1.4750147186	-0.2136357085	 0.116344
H	-1.2244979084	-0.5419265165	-2.1927978203	 0.072907
