17
gdb 12942	2.60982	2.18753	1.67808	2.5951	69.91	-0.2554	0.0222	0.2776	872.4609	0.141272	-363.843446	-363.835494	-363.83455	-363.875428	29.648	
C	 0.0208461889	 1.5573017685	 0.0182181659	-0.421076
C	 0.1008386961	 0.0483979223	 0.0662097932	-0.073144
C	 1.3502421972	-0.7371266379	-0.141950913	 0.031547
O	 2.4906371494	-0.0078755633	 0.3888356815	-0.276957
C	 1.9502489335	-0.107917565	 1.6717521644	 0.398639
N	 2.4380807571	 0.2055668117	 2.7828058536	-0.55876
C	 0.6897575114	-0.7814081018	 1.2249797123	 0.163146
C	-0.0555489965	-1.8345624223	 1.9897814836	-0.493589
H	 0.9549767178	 2.0147868759	 0.3501679297	 0.142642
H	-0.175124731	 1.8971218541	-1.0042954361	 0.121645
H	-0.7881060793	 1.9255439525	 0.6566718655	 0.125214
H	-0.7718936183	-0.4631312023	-0.339598425	 0.097297
H	 1.5592304928	-1.5025790541	-0.8776939049	 0.119171
H	 3.3695066329	 0.6116401728	 2.6775876263	 0.229155
H	-0.6077681088	-1.3900145685	 2.8242308996	 0.140483
H	-0.7765386551	-2.3494071736	 1.3476296584	 0.119742
H	 0.6293121019	-2.5803732791	 2.404901365	 0.134845
