17
gdb 67748	3.19892	2.00078	1.46061	2.1356	75.35	-0.2245	-0.0079	0.2166	899.541	0.135218	-384.553648	-384.546958	-384.546014	-384.584122	28.449	
C	 0.0280502262	 1.6451138842	-0.0880800477	-0.504548
C	 0.0612549648	 0.1357656429	 0.0080475186	 0.218029
C	 0.5724308489	-0.6849468082	-1.2186093464	-0.113515
C	 0.5037644742	-1.9840443975	-0.8837592369	-0.244816
C	-0.0445157954	-1.8511767102	 0.5222907107	 0.434217
O	-0.4875128564	-2.4879023792	 1.7481644267	-0.397641
C	-0.6419521583	-1.001866259	 1.9693029789	-0.008282
C	 0.6641765036	-0.6599482912	 1.2179425161	-0.118362
C	-1.1299506583	-0.7434739946	 0.5262113759	-0.118364
H	 1.0284952207	 2.0525663912	-0.2718815078	 0.120531
H	-0.6199300306	 1.9758221962	-0.9074971363	 0.120531
H	-0.3494642124	 2.0920514647	 0.837015155	 0.118111
H	 0.9123476927	-0.2564995799	-2.1519064762	 0.105872
H	 0.7605497812	-2.8702729378	-1.4427921568	 0.12496
H	-1.0306494682	-0.7093731736	 2.9421435758	 0.097399
H	 1.685437739	-0.6711003316	 1.6008496252	 0.08294
H	-2.1391973017	-0.8491546263	 0.1262494952	 0.08294
