17
gdb 106207	3.43866	1.42698	1.37433	2.2012	69.43	-0.2336	0.0588	0.2924	988.997	0.136807	-421.756418	-421.74929	-421.748346	-421.788334	28.187	
O	 0.1502790143	 1.3836719502	 0.3118374629	-0.410545
C	-0.0039940785	 0.0368201988	-0.1205029435	-0.207355
C	-1.4178460982	-0.4503799676	-0.0613198296	 0.293639
C	-2.1805319376	-0.8094050094	 1.200639676	 0.026471
O	-3.476547941	-0.2833997984	 1.2085925862	-0.226751
C	-3.7933019183	-0.3315179683	-0.1532716801	 0.08005
C	-3.1441094576	-1.5136815554	-0.8492072425	-0.128402
C	-2.5773938074	-0.1070895768	-1.0294208539	-0.215838
C	-1.9961046615	-1.8575147262	 0.11683862	-0.197903
H	-0.4204171271	 1.9349102555	-0.2329911028	 0.284555
H	 0.4031149934	-0.1003930476	-1.1352643458	 0.091129
H	 0.6162483245	-0.5630416625	 0.554715766	 0.110563
H	-1.7086099447	-0.8650352219	 2.1721018283	 0.114041
H	-4.7809846061	 0.0330022279	-0.4002013437	 0.110537
H	-3.6360032455	-2.1729722731	-1.5499087731	 0.094553
H	-2.5405563132	 0.533723986	-1.9003345451	 0.088186
H	-1.5008048154	-2.8098419613	 0.2453001208	 0.093071
