19
gdb 121053	3.57992	0.89189	0.84634	5.086	72.68	-0.2621	0.0161	0.2782	1445.5135	0.158721	-460.205081	-460.196106	-460.195162	-460.239864	32.307	
C	 0.1663421544	 1.5307916462	 0.2463897155	-0.384456
C	 0.2167731309	 0.0303403567	 0.015443166	-0.045739
O	 0.5668130156	-0.5960943361	 1.2382678609	-0.25602
C	 0.5983903292	-2.0070198533	 1.1926391772	 0.102774
C	 1.9139970832	-2.5486565644	 0.5916327696	-0.097695
O	 2.8415934538	-2.6403415097	 1.6796375585	-0.216885
C	 2.1933517705	-2.6352501405	 2.8800112582	 0.441095
O	 2.7722146446	-2.733968132	 3.9204550269	-0.334299
C	 0.6947617006	-2.5118112519	 2.6292190715	-0.382125
H	 1.1408989494	 1.900494023	 0.5766883054	 0.133986
H	-0.1072986795	 2.0479214854	-0.6779079295	 0.118612
H	-0.5717697158	 1.7754715901	 1.0150637818	 0.130514
H	-0.7615235197	-0.3457207505	-0.3276596197	 0.091392
H	 0.9484802407	-0.208948033	-0.7726174322	 0.090589
H	-0.2764265322	-2.392222071	 0.6507397884	 0.075949
H	 1.776594112	-3.5437191321	 0.1511003437	 0.113505
H	 2.3412584427	-1.8835161581	-0.161498946	 0.12765
H	 0.2290496531	-1.8356407361	 3.3455673473	 0.152464
H	 0.2442114165	-3.5034705025	 2.7414079366	 0.138689
