21
gdb 42086	3.67709	1.17056	1.13904	1.5574	83.54	-0.2326	0.0252	0.2578	1181.1176	0.185203	-387.107404	-387.09946	-387.098516	-387.141203	30.963	
C	 0.1988622163	 1.6165257289	-0.4029908455	-0.079555
C	 1.4426101948	 1.899663178	 0.4494876034	-0.283595
C	 2.0937098804	 0.4884681515	 0.6349809028	 0.31784
C	 3.467647725	 0.2994439465	-0.0700534636	-0.288026
C	 4.5455397438	 0.4697604018	 1.0284236242	-0.259456
C	 3.7660564422	 0.2204418649	 2.2982408239	-0.082098
C	 2.4526715739	 0.2275638652	 2.0821796211	-0.114806
C	 0.9826054208	-0.4465640494	 0.0700710301	-0.145622
O	-0.2091080571	 0.3131211217	-0.0175921706	-0.242154
H	-0.6340830017	 2.3006141029	-0.2223898187	 0.107401
H	 0.443995841	 1.6437136377	-1.4786976046	 0.08452
H	 2.1276992004	 2.6143886143	-0.0141843678	 0.098809
H	 1.1438465086	 2.3071566117	 1.4196349411	 0.105955
H	 3.5243693474	-0.7201226984	-0.4678446381	 0.102033
H	 3.6008062944	 0.979354901	-0.9165857235	 0.093916
H	 5.3870114396	-0.2198922568	 0.8974224206	 0.102972
H	 4.9768910415	 1.4806338739	 1.031219243	 0.10625
H	 4.2417904473	 0.0895179896	 3.2640713163	 0.091614
H	 1.6845225488	 0.11079239	 2.8404163267	 0.095459
H	 1.2784938227	-0.8116742204	-0.9281095671	 0.081933
H	 0.7861334097	-1.3138958545	 0.7067949564	 0.106611
