18
gdb 32125	3.01601	1.26817	0.90282	3.7184	84.03	-0.2211	-0.0098	0.2113	1286.7775	0.149059	-398.202363	-398.193352	-398.192408	-398.236954	32.026	
C	 0.1156746268	 1.4411635188	-0.0914715907	-0.323853
N	-0.0345779695	 0.007978684	-0.0205019414	-0.347959
C	-1.2194289302	-0.652743444	 0.0246316144	 0.434725
N	-1.141258521	-1.9953065955	 0.0898327458	-0.343444
C	-2.2996931775	-2.6439564071	 0.133918979	 0.063807
N	-3.5296983111	-2.1360460935	 0.1219219303	-0.330412
C	-3.6011414935	-0.79244388	 0.0566745457	 0.34192
C	-4.9826129842	-0.1975334104	 0.0421587913	-0.467473
C	-2.4657402841	 0.0010879849	 0.005698526	-0.276364
H	 1.1797830339	 1.682074091	-0.1149616286	 0.135026
H	-0.3455625708	 1.8586915534	-0.9961814022	 0.132803
H	-0.3259306382	 1.9447360067	 0.7785976866	 0.132739
H	 0.7801461021	-0.5826265152	 0.0008099176	 0.252055
H	-2.229984544	-3.7293609069	 0.1865485477	 0.107041
H	-5.5286514286	-0.4965672565	 0.9425557781	 0.142784
H	-4.9583788529	 0.893489806	-0.0118126915	 0.114289
H	-5.5475576978	-0.5831206602	-0.8124845438	 0.142786
H	-2.5423274496	 1.0796976845	-0.0464574143	 0.08953
