20
gdb 9337	7.49008	0.69998	0.65297	3.7757	72.43	-0.2427	-0.0071	0.2356	1719.3704	0.17388	-386.163129	-386.152747	-386.151802	-386.200269	35.016	
C	-0.0824232775	 1.5263171641	-0.112784961	-0.374115
C	 0.0293225588	 0.0124199865	 0.0494313152	-0.274471
C	 0.7834917345	-0.4127502945	 1.3047562728	 0.372449
O	 1.2352824196	 0.3953158688	 2.0835021148	-0.29304
C	 0.935151878	-1.9151915059	 1.5211121768	-0.305012
C	 1.689826629	-2.2793040943	 2.7977570125	-0.15907
C	 1.8265881082	-3.7843267419	 2.9827881044	-0.077449
O	 2.5371699597	-4.0116837686	 4.189393743	-0.419336
H	 0.9073562574	 1.9867602343	-0.1652969942	 0.131217
H	-0.6315549131	 1.7785433948	-1.0242646858	 0.10827
H	-0.6010251781	 1.972144267	 0.7396477621	 0.131493
H	-0.9635727569	-0.4576260911	 0.0788583514	 0.118716
H	 0.5310710024	-0.4435597075	-0.8153711482	 0.118442
H	-0.0707334325	-2.3596342298	 1.5147638435	 0.116957
H	 1.4330699271	-2.3332931976	 0.6340551311	 0.117303
H	 2.6864272696	-1.8274267381	 2.7833276535	 0.121045
H	 1.1775356624	-1.8561368661	 3.6673786431	 0.120655
H	 0.8267957471	-4.2498374972	 3.0149340652	 0.080393
H	 2.3568568202	-4.2208127208	 2.1192944602	 0.080433
H	 2.6270957242	-4.9610191819	 4.3123932396	 0.285123
