16
gdb 45546	4.56564	1.21928	0.98523	13.4626	84.54	-0.1263	-0.0149	0.1114	1141.5633	0.126449	-437.848179	-437.840845	-437.839901	-437.880143	28.215	
O	-0.1239833313	-0.0061507307	-0.0878711881	-0.401799
C	 0.0515886186	 1.1862297971	-0.0353840757	 0.389987
O	-1.1587435142	 2.066130849	 0.0936016031	-0.301474
C	-0.6894256036	 3.3180722133	 0.1815256356	 0.264684
C	-1.3655333159	 4.6220339712	 0.0569282336	-0.332088
N	-0.1819143951	 5.5134929976	 0.4610597114	-0.248762
H	-0.2444424102	 6.446312513	 0.0416072254	 0.2795
H	-0.1839454464	 5.6000697707	 1.4756032539	 0.310259
C	 1.1183206556	 4.7894506807	 0.0431012335	-0.33886
C	 0.6743382404	 3.3750807129	 0.0928993093	 0.327753
C	 1.1698202449	 2.069222212	-0.0396031187	-0.580988
H	-1.6583433962	 4.964725584	-0.957887605	 0.120337
H	-2.2083880949	 4.8302282737	 0.7284287341	 0.143047
H	 1.3712274402	 5.1670693054	-0.9590326335	 0.142534
H	 1.9084499762	 5.1022820778	 0.7341772151	 0.145162
H	 2.189433152	 1.7238041525	-0.0693902239	 0.080709
