20
gdb 66645	3.88439	1.56241	1.43621	1.5416	81.34	-0.2163	0.0883	0.3046	993.1653	0.173753	-365.965293	-365.958199	-365.957254	-365.996429	29.226	
C	-0.0254916491	 1.5106004243	 0.0383044285	-0.524136
C	 0.0400539453	 0.0243402716	 0.0211119526	 0.380241
C	 0.9625050907	-0.9965348466	-0.5770388769	-0.149418
C	 0.5991762021	-1.0299634997	 0.9303539426	-0.149418
C	-0.7499351872	-1.7381503596	 0.9509958063	 0.02272
C	-0.7685355754	-3.2140816827	 0.5560344767	-0.231366
C	-0.4035016394	-3.1804874582	-0.9585073937	-0.231364
C	-0.2219775452	-1.6895685927	-1.2394321062	 0.02272
N	-1.1385428489	-0.9264602806	-0.2840477999	-0.226547
H	 0.9554199327	 1.9319062647	 0.2832169811	 0.122211
H	-0.3299703011	 1.9061793279	-0.9370346307	 0.126954
H	-0.7435065235	 1.8681091696	 0.7847098781	 0.126932
H	 1.9873825341	-0.879821508	-0.9095016091	 0.080801
H	 1.3589846471	-0.9376388258	 1.6976174849	 0.080802
H	-1.3782102159	-1.4778522901	 1.8054910527	 0.069779
H	-0.0587853467	-3.794623016	 1.1523411212	 0.100743
H	-1.7604813073	-3.6481067808	 0.7129306068	 0.103912
H	 0.5057370495	-3.7426899447	-1.1899559348	 0.100742
H	-1.2107638244	-3.5974920001	-1.5679222221	 0.103913
H	-0.3947987673	-1.3873607925	-2.2745409482	 0.069779
