19
gdb 12063	3.93902	1.5722	1.42363	2.8064	71.13	-0.2255	0.0736	0.299	947.9184	0.165207	-365.010551	-365.002383	-365.001439	-365.04261	31.361	
C	-0.0435110489	 1.5905880349	 0.1238564985	-0.455308
C	-0.0049324523	 0.0691060864	 0.0428124852	 0.354107
C	-1.3878373469	-0.5263042414	-0.1927614724	-0.131969
O	-1.8504411194	-0.0983565604	-1.4662346608	-0.42491
C	 1.0563399875	-0.5708685045	-0.939756995	-0.26631
C	 1.6759663642	-1.2959387206	 0.2564900214	-0.038054
N	 2.1211868815	-0.2336143028	 1.1940271276	-0.339538
C	 0.7060343874	-0.6735280986	 1.1958013451	-0.107305
H	 0.9550381008	 1.9831994354	 0.3272960447	 0.131926
H	-0.4109516134	 2.0144013062	-0.8147794248	 0.127325
H	-0.7137270546	 1.9218734475	 0.9266190138	 0.098683
H	-1.3296695133	-1.6261625922	-0.1418438719	 0.078474
H	-2.0694248203	-0.1945161385	 0.6085121306	 0.081413
H	-2.7276011325	-0.4653962593	-1.6073847661	 0.287322
H	 0.5877954142	-1.2271129426	-1.6748504584	 0.108375
H	 1.7234278679	 0.1301726014	-1.4466723647	 0.103086
H	 2.1355688683	-2.2765696918	 0.2804235914	 0.087624
H	 2.573643075	-0.6989124723	 1.980866365	 0.225017
H	 0.2512861749	-1.0645095468	 2.0999164707	 0.080043
