20
gdb 116536	3.95325	0.74625	0.66189	2.1141	83.79	-0.2347	0.0116	0.2463	1731.2782	0.169666	-436.52182	-436.511078	-436.510134	-436.559517	37.852	
C	-1.3346850065	 0.1521021537	 0.5096865668	-0.355779
C	-0.1751477047	-0.849927016	 0.4893400793	-0.137192
N	 0.2894488697	-1.0497462292	-0.8652385776	-0.296309
C	 1.4851455827	-0.8294438856	-1.2429796894	 0.373697
C	 2.6720608916	-0.3559411407	-0.444940511	-0.460959
N	 1.70513108	-1.098443456	-2.6070563327	-0.378182
C	 2.8203245972	-0.8572392588	-3.3927349099	 0.464212
N	 2.6328936048	-1.2466524369	-4.7115094202	-0.560033
O	 3.8463879422	-0.3288395383	-3.0119017525	-0.385798
H	-0.9974589503	 1.1418537817	 0.1858667424	 0.115823
H	-2.1302342641	-0.1705482127	-0.1677801	 0.123015
H	-1.7490572504	 0.2434455361	 1.5187682194	 0.107608
H	 0.601403594	-0.5190546621	 1.1937160136	 0.088021
H	-0.5396758541	-1.8176953641	 0.8602393781	 0.103491
H	 2.4109528201	-0.2265576736	 0.6040932157	 0.122656
H	 3.4936710137	-1.0713189444	-0.5267270227	 0.151428
H	 3.0528673524	 0.5829708632	-0.8502356376	 0.164139
H	 0.8539684713	-1.4010308646	-3.0597864692	 0.244192
H	 2.0178603637	-2.0212523778	-4.9083187293	 0.251792
H	 3.4914304666	-1.2486621538	-5.2403633434	 0.264179
