20
gdb 20015	4.06716	1.26543	1.12429	1.6167	75.35	-0.2614	0.0878	0.3491	1145.9081	0.176613	-348.972257	-348.963734	-348.96279	-349.00557	31.477	
C	-0.5134930744	 1.3215452229	 0.2292579042	-0.372354
C	 0.1525984537	-0.0242156146	-0.0806898281	-0.20797
C	 0.9330013035	-0.5658874379	 1.1013602919	 0.012216
C	 0.2513286666	-1.379262893	 2.1775599763	-0.301717
C	 1.2568929823	-2.0356525584	 1.2649980952	-0.061082
C	 0.8256597216	-3.0647720269	 0.2659075693	 0.063084
C	 0.0675070337	-4.2629127641	 0.6569946918	-0.176696
O	-0.5703158883	-3.1793000585	-0.0230824949	-0.22708
H	 0.2292450702	 2.0781069593	 0.5069035463	 0.108874
H	-1.0656273296	 1.6997265201	-0.6368261377	 0.109213
H	-1.2169258867	 1.2280385334	 1.0632466676	 0.117518
H	-0.6061683844	-0.751879518	-0.3835410607	 0.128229
H	 0.8281478732	 0.0941206966	-0.9386580827	 0.090466
H	 1.7119705488	 0.1073043285	 1.4551160838	 0.077437
H	 0.5173667767	-1.2172532586	 3.2161837969	 0.10505
H	-0.7883504986	-1.6394781716	 2.0070480615	 0.127522
H	 2.2339184219	-2.2573646079	 1.6890286418	 0.085768
H	 1.4575918554	-3.1466076377	-0.6207946498	 0.092101
H	 0.1620926054	-5.181749767	 0.0802714104	 0.113653
H	-0.2208818911	-4.3891264468	 1.699317477	 0.115767
