19
gdb 86639	2.27982	1.32344	0.92433	2.8835	76.74	-0.2464	-0.0368	0.2095	1284.2973	0.15795	-423.077896	-423.068938	-423.067993	-423.112176	32.886	
C	-0.0253793452	 1.5087710807	-0.1564712747	-0.402949
C	 0.0556308195	-0.0098878142	-0.0247624278	 0.017069
C	 0.8159500749	-0.7010663711	-1.1824680073	-0.236391
C	 1.2117024411	-2.078936083	-0.644733263	-0.202902
C	 2.5449093366	-2.6259561796	-1.1203992498	 0.144336
O	 3.2614445738	-2.0696028354	-1.9114689406	-0.237561
C	 1.2174821384	-1.932503901	 0.9010131146	 0.381961
O	 1.5093260268	-2.8075293001	 1.6722184273	-0.312176
C	 0.7889181343	-0.5077343666	 1.2324543374	-0.320297
H	 0.9767491167	 1.9524360696	-0.1749931014	 0.1191
H	-0.5344336578	 1.7964421588	-1.0823139711	 0.119046
H	-0.5745367786	 1.9549464601	 0.6789570285	 0.117723
H	-0.9659211594	-0.414255519	 0.0015465671	 0.08114
H	 0.2205337851	-0.755749939	-2.096949978	 0.109977
H	 1.7268231834	-0.1431107852	-1.4277787025	 0.125161
H	 0.4628619087	-2.8551281631	-0.8592041563	 0.12662
H	 2.8263205233	-3.5928761586	-0.6543805208	 0.107112
H	 1.7071099557	 0.077372045	 1.3931715546	 0.133411
H	 0.2142565627	-0.4726817483	 2.1606596737	 0.129621
