20
gdb 82976	2.45339	2.02911	1.65815	0.5057	77.06	-0.2102	0.0722	0.2824	930.9601	0.173507	-403.114477	-403.107271	-403.106327	-403.145896	29.385	
C	-0.2944693291	 1.498472373	 0.0455248819	-0.419582
C	-0.0486569106	 0.0034468036	-0.0216959661	 0.040261
C	 0.5043309775	-0.5946189715	-1.3312042811	 0.080279
O	 1.5172942617	 0.2427054898	-1.926674783	-0.31155
C	 2.5822231321	-0.3894227079	-1.1549984696	 0.127022
C	 3.1503781456	 0.5142553362	-0.0587981851	-0.251216
C	 2.2102233433	 0.2750487562	 1.1652998228	-0.172359
N	 1.1115998978	-0.6064759465	 0.7422573663	-0.123596
C	 1.5595783802	-1.3275761273	-0.4805122009	-0.076693
H	 0.5365545392	 2.0635003909	-0.3830358247	 0.133295
H	-1.1960622143	 1.7456226227	-0.5252712293	 0.119283
H	-0.4585087831	 1.8263092412	 1.0773139638	 0.121785
H	-0.9572199799	-0.5302771909	 0.2871658641	 0.079113
H	-0.17167543	-1.0230339226	-2.0739812383	 0.07485
H	 3.3352382756	-0.8169818341	-1.8243368073	 0.076742
H	 4.1853050755	 0.2413439829	 0.1718262466	 0.098961
H	 3.151062755	 1.5531097608	-0.4002313868	 0.116587
H	 2.7650602511	-0.2238034411	 1.96862366	 0.102559
H	 1.8124318513	 1.2012316145	 1.586484944	 0.109203
H	 1.7317758009	-2.4005673398	-0.3968137671	 0.075057
