15
gdb 67758	2.56295	2.08624	1.60711	2.6349	68.23	-0.234	-0.0383	0.1958	867.4818	0.112736	-416.779613	-416.772604	-416.77166	-416.810814	27.342	
C	-0.0372996937	 1.5516332857	 0.0191051629	-0.491684
C	-0.0144442014	 0.0480790701	 0.089558693	 0.159935
N	-1.3400626671	-0.607340161	-0.0264251426	-0.205999
C	-1.1885550264	-1.7586502165	 0.4787122688	 0.031765
N	 0.0938734426	-2.0565658802	 1.0889113582	-0.146091
C	 1.2544149055	-1.7604811743	 0.18325384	-0.179725
C	 0.7419622449	-0.7595224493	 1.2035855037	-0.09267
C	 0.9210094275	-0.7472037507	-0.8777492514	 0.432506
O	 1.4078064209	-0.4815067731	-1.9385187801	-0.322126
H	 0.9696643197	 1.9636287321	 0.1305685022	 0.127551
H	-0.4309114292	 1.8711657482	-0.9489292669	 0.152582
H	-0.6771281939	 1.9658320108	 0.8039310993	 0.130806
H	-1.9513444902	-2.5285344454	 0.507179452	 0.145248
H	 2.0861857033	-2.452252582	 0.2117388646	 0.13126
H	 1.2108669976	-0.4270467446	 2.1217609361	 0.126642
