17
gdb 63573	2.58618	1.48271	1.15802	2.4549	71.29	-0.2443	-0.0279	0.2163	1095.2276	0.132299	-458.938224	-458.929187	-458.928243	-458.97183	33.39	
C	-0.0958838522	 1.5331132996	 0.0023988069	-0.439955
C	 0.000854053	 0.0248506413	-0.0325953758	 0.298061
O	-1.1054905426	-0.6346721213	-0.5780801499	-0.450839
C	 1.3543947058	-0.6390156578	-0.1606652542	-0.41905
C	 0.6108948082	-0.6746816836	 1.1531930925	 0.301689
O	 1.0362454286	 0.0057465829	 2.3361279045	-0.319546
C	 0.5452371684	-1.050414274	 3.1999724545	-0.19211
C	 0.1209367664	-1.8484412089	 1.9524414347	 0.289792
O	-0.34311305	-2.9242501156	 1.7305713024	-0.285685
H	 0.7280690903	 1.9707042844	 0.5704610174	 0.13886
H	-0.0738988937	 1.9424620261	-1.0141562289	 0.114236
H	-1.0368416702	 1.8331002324	 0.4723833054	 0.134558
H	-1.0439861825	-0.5784369423	-1.5385399317	 0.286727
H	 1.4115614015	-1.5818275246	-0.6955202434	 0.136825
H	 2.2365062882	-0.0086316377	-0.2049765287	 0.132898
H	 1.3389798434	-1.5033384161	 3.8039780634	 0.136186
H	-0.2762331825	-0.7184574948	 3.8449066409	 0.137353
