17
gdb 32602	2.84429	1.25432	0.93271	2.1045	70.88	-0.1821	0.0552	0.2373	1244.4926	0.13627	-455.19114	-455.182177	-455.181232	-455.225671	32.972	
C	 0.1545414172	 1.6048699328	 0.0801355842	-0.373591
C	-0.0708827143	 0.0969948946	-0.0551280561	-0.161055
N	 0.6418745863	-0.4874795779	-1.1792861984	-0.046632
C	 2.0066363077	-0.8281868626	-1.2308004525	-0.250264
C	 2.199580434	-1.2806423122	-2.5029546753	 0.339421
O	 3.3492521344	-1.7403859792	-3.0457204268	-0.4382
N	 1.0412972984	-1.2322708016	-3.2436544145	-0.464218
C	 0.1509423611	-0.7486778694	-2.4074088315	 0.445935
O	-1.145669199	-0.5107376157	-2.6821304692	-0.430689
H	 1.2167829493	 1.8325074371	 0.2071564356	 0.131183
H	-0.2038847228	 2.1302856913	-0.8095191105	 0.134544
H	-0.3861201241	 1.9907345506	 0.9499262014	 0.120228
H	 0.2515060849	-0.4219691251	 0.853692643	 0.120917
H	-1.1326221745	-0.1196650814	-0.1950744053	 0.137943
H	 2.6546694733	-0.7294435908	-0.3790316445	 0.122469
H	 3.1389369773	-1.9827462532	-3.9550419073	 0.298262
H	-1.2843533492	-0.7948735473	-3.5937044224	 0.313748
