17
gdb 47354	2.57438	1.41916	1.15499	3.6823	75.8	-0.2247	0.0285	0.2532	1105.657	0.137453	-417.98918	-417.980958	-417.980014	-418.022296	31.313	
N	-0.0134443479	 1.2720243571	-0.4391640309	-0.569174
C	 0.0413320267	 0.0615783728	-0.0587795433	 0.443017
N	-1.1247017886	-0.6681431652	 0.1152569506	-0.308087
C	-1.2067562067	-1.8633325644	 0.9486655137	-0.175932
C	 0.0791545154	-2.6732897348	 0.7174653962	-0.222049
C	 1.2721172336	-1.7597928486	 0.9378981512	-0.080496
O	 1.2191021176	-0.6090814175	 0.0850716649	-0.253313
C	-1.4206497294	-1.5616237255	 2.3731867763	 0.346887
C	-1.607386184	-1.2981520121	 3.5312840677	-0.474595
H	 0.9284905803	 1.6302263295	-0.5804036554	 0.218862
H	-1.9306375621	-0.0600427937	 0.1299594944	 0.258781
H	-2.062485778	-2.4505889522	 0.5948550736	 0.118757
H	 0.1198778592	-3.5242062305	 1.4016895361	 0.121925
H	 0.0781479828	-3.0464965018	-0.3110525581	 0.123377
H	 1.3128904195	-1.4320864487	 1.9848667274	 0.124266
H	 2.2137346594	-2.2567046828	 0.6947249407	 0.121336
H	-1.7755126977	-1.0599358416	 4.5528625848	 0.206438
