18
gdb 16252	3.05153	2.03466	1.55065	1.9234	67.03	-0.2546	0.0635	0.3181	878.8731	0.154381	-384.930178	-384.922641	-384.921697	-384.962191	29.018	
O	-0.1848265071	 1.5253068879	 0.4172926064	-0.441117
C	-0.0471305125	 0.1492405159	 0.0605261876	 0.037592
C	 0.6887805511	-0.6508608105	 1.1463379767	-0.243988
C	-0.3899194761	-0.8593972463	 2.2257571813	-0.202858
C	-1.6589852734	-1.178689023	 1.4074810503	-0.297935
C	-1.4544089249	-0.4528868417	 0.0745588374	 0.466046
C	-2.5261367207	 0.1035954178	-0.7524246634	-0.243194
O	-1.8851234432	-1.1248510156	-1.1140241543	-0.28419
H	 0.7001202292	 1.8897686994	 0.5224176009	 0.282664
H	 0.4018301214	 0.0460592595	-0.9356462697	 0.072739
H	 1.0032464847	-1.615942955	 0.7297831435	 0.106513
H	 1.5867989145	-0.140420872	 1.5099889778	 0.085641
H	-0.1368670057	-1.6445386793	 2.9422233053	 0.096933
H	-0.5272164624	 0.0716868672	 2.7837978857	 0.112399
H	-1.730755475	-2.2521581518	 1.2006448635	 0.117254
H	-2.5806828528	-0.8810595891	 1.9138666234	 0.10596
H	-3.5597588328	 0.0102365332	-0.4209228258	 0.109649
H	-2.3202002144	 0.9523672734	-1.4021471465	 0.119892
