25
gdb 65652	3.37055	0.88156	0.85107	0.1662	92.87	-0.2583	0.0828	0.3412	1543.507	0.229055	-352.339804	-352.330088	-352.329143	-352.374906	37.494	
C	 0.202591321	 1.5824910506	 0.2706812751	-0.461415
C	 0.0170259559	 0.0893638589	 0.0674669279	 0.396436
C	-1.4135394788	-0.4210671837	 0.1939423216	-0.300703
C	-2.4047329246	 0.1519298086	-0.8146880759	 0.066337
C	-2.3147161058	-0.2514918285	-2.3159147797	-0.21267
C	-3.8656447265	-0.2839304206	-2.3597204286	-0.211488
C	-3.8646685035	-0.3858157177	-0.8105948048	-0.23537
C	 0.9389185265	-0.6022295738	-0.9116052586	-0.29097
C	 1.1175627322	-0.8133099709	 0.573894399	-0.315295
H	 1.2616143418	 1.855970447	 0.2285829645	 0.109667
H	-0.316580601	 2.1677451973	-0.4962101248	 0.116564
H	-0.1832910515	 1.8984990094	 1.2476380672	 0.111411
H	-1.4113487917	-1.5156951212	 0.1011971175	 0.082046
H	-1.7791309989	-0.2032800043	 1.2088846545	 0.089828
H	-2.4296538963	 1.2449218327	-0.7361518058	 0.069427
H	-1.7927550854	 0.4213966534	-3.0007191579	 0.091904
H	-1.8915510624	-1.2551472515	-2.4299749486	 0.094395
H	-4.2806245821	 0.669091461	-2.7010305641	 0.09917
H	-4.3432319862	-1.089294293	-2.9229253348	 0.092905
H	-3.8987769885	-1.4291177699	-0.4777177469	 0.094481
H	-4.6179854453	 0.1788174089	-0.2548883201	 0.091138
H	 0.546802578	-1.4263978857	-1.49752637	 0.107685
H	 1.6757683624	-0.0016713386	-1.4350429796	 0.104901
H	 1.9749369686	-0.354838589	 1.0558275724	 0.104605
H	 0.8409560222	-1.7775064795	 0.9882295804	 0.105014
