21
gdb 91657	2.50119	1.66906	1.33021	1.6667	81.65	-0.2391	0.0834	0.3225	1068.6634	0.183664	-387.052918	-387.045023	-387.044079	-387.084844	32.172	
C	-0.2131513409	 1.5243458587	-0.0221583712	-0.42292
C	 0.0370220038	 0.0188901553	 0.0161142855	 0.04775
C	 0.9964748334	-0.5471571137	-1.0895466443	-0.243757
C	 1.988067505	-1.2683632424	-0.1514980218	-0.014308
O	 1.0837803104	-1.9018586483	 0.8131896108	-0.302977
C	 0.8272525086	-0.5218963985	 1.2362464813	-0.038115
C	 2.2941957131	-0.221235208	 0.9198941737	 0.449455
C	 3.4511483389	-0.1992302406	 1.8561434165	-0.356333
C	 3.1595101273	 0.9943578477	 0.9572097904	-0.357357
H	 0.722603417	 2.0906636782	-0.0209147723	 0.122848
H	-0.7670559096	 1.8024742954	-0.9248847924	 0.117636
H	-0.8062516494	 1.8507002523	 0.8398754175	 0.110848
H	-0.9211915589	-0.5084807304	-0.0173797788	 0.078371
H	 0.5003458738	-1.243040077	-1.7693746656	 0.103067
H	 1.4756873131	 0.2404540879	-1.6794165049	 0.095487
H	 2.7406450523	-1.9369025238	-0.571031466	 0.076702
H	 0.3935870121	-0.428510987	 2.2330878253	 0.07418
H	 3.2563064054	-0.0921581385	 2.9185083382	 0.115385
H	 4.3157812884	-0.812598456	 1.6233665815	 0.114951
H	 3.8272892426	 1.178729085	 0.1210242079	 0.113598
H	 2.7765965336	 1.8961338636	 1.4237269388	 0.115489
