19
gdb 81384	2.5333	1.58708	1.27375	0.3372	70.54	-0.2425	0.0817	0.3242	1058.5913	0.159908	-460.139699	-460.131766	-460.130822	-460.171783	31.391	
C	-0.5989278878	 1.4200349637	 0.1631697423	-0.407294
C	 0.1541325936	 0.1157198823	-0.0500107954	 0.134373
O	 1.0167985787	 0.3074561705	-1.1783661342	-0.286662
C	 2.1103796448	-0.6021489856	-1.2566246932	-0.079522
C	 2.6258873824	-0.9258377541	 0.1377083882	 0.010197
O	 1.5563502273	-1.6358928529	 0.8436624165	-0.325661
C	 0.9921918039	-0.3195896038	 1.1519236456	 0.001113
C	 2.4215338836	 0.2730493636	 1.0951111917	 0.185864
O	 3.1365647892	 0.1915338241	 2.2997444788	-0.461594
H	 0.0830461665	 2.2247707751	 0.4544285768	 0.125339
H	-1.0983420651	 1.7159396382	-0.7628228182	 0.133179
H	-1.3562667021	 1.3028408634	 0.9441995478	 0.118083
H	-0.5543837419	-0.701513692	-0.2610046147	 0.080405
H	 1.8145967765	-1.5398615557	-1.7512784347	 0.104638
H	 2.8768577426	-0.1098557347	-1.8654220698	 0.111125
H	 3.5761960245	-1.4668442088	 0.1495051669	 0.083177
H	 0.4465699477	-0.3041874681	 2.0997659094	 0.081046
H	 2.5547282898	 1.2807125928	 0.7003745931	 0.104009
H	 3.0112259656	-0.7015481278	 2.6439236731	 0.288187
