16
gdb 44344	3.90093	1.60143	1.30378	3.4267	78.13	-0.2414	-0.0492	0.1922	954.8218	0.125875	-400.670543	-400.664003	-400.663059	-400.701329	26.849	
N	-0.141415159	 1.337367941	 0.2019066906	-0.51351
C	-0.0540027199	 0.1063471557	-0.0692673534	 0.382633
O	 1.1822683968	-0.5363013635	-0.1569621139	-0.26503
C	 1.2629271276	-1.686455834	-0.9867987719	 0.118318
C	 0.6646552551	-3.1327063304	-0.8967709141	-0.097028
C	-0.7652648422	-3.3648290415	-0.3098909955	-0.279479
C	-1.0081809189	-1.9600893008	-0.8337322703	 0.153957
C	-1.1582606903	-0.8767819641	-0.0655940186	-0.200049
C	 0.1327104897	-2.047217773	-1.8419943498	-0.198526
H	 0.7923685095	 1.7478854364	 0.2747711845	 0.225134
H	 2.2639110628	-1.7164195986	-1.4085385353	 0.113959
H	 1.3363334948	-3.9502459505	-1.1443577727	 0.100039
H	-1.2424942359	-4.1730521387	-0.874608585	 0.117463
H	-0.8878933276	-3.5280791498	 0.7642209443	 0.112573
H	-1.7840779375	-0.8853993778	 0.8223387259	 0.123696
H	 0.0533864549	-2.0053710803	-2.9212487248	 0.105852
