23
gdb 80544	2.48251	1.43426	1.22593	1.3248	85.46	-0.2561	0.0799	0.3359	1171.456	0.206785	-388.282846	-388.273886	-388.272942	-388.315627	35.832	
C	-0.3241439176	 1.6433021916	 0.7299068384	-0.434244
C	-0.0892461029	 0.1570554818	 0.4918048386	 0.053305
C	 0.9428961035	-0.3721932941	-0.5529972648	-0.041955
C	 2.2763409098	 0.2174796579	-0.0516636877	-0.272474
C	 2.1329072961	-0.111093132	 1.47789737	 0.138308
O	 2.1660618517	 1.0099930338	 2.3483267437	-0.441147
C	 0.7391935106	-0.7562705816	 1.4556535231	-0.060238
C	 0.9170549197	-1.7250814861	 0.2356365674	 0.050884
C	-0.1881257538	-2.7313510638	-0.0611254186	-0.439885
H	 0.5903947917	 2.1870771918	 0.9637845822	 0.128972
H	-0.7900973622	 2.0970012432	-0.1531902026	 0.100798
H	-1.0098268717	 1.7895382716	 1.5721098244	 0.111433
H	-1.0576807377	-0.3133921216	 0.3080168088	 0.067724
H	 0.745230054	-0.3272982632	-1.6262101255	 0.049686
H	 3.1438361184	-0.2688331467	-0.5085862676	 0.089298
H	 2.3625780375	 1.295382476	-0.215392946	 0.09637
H	 2.8875147941	-0.8440767225	 1.7979785156	 0.062854
H	 3.0510319833	 1.3861723599	 2.3124480767	 0.279246
H	 0.3469090042	-1.0962835664	 2.4154403397	 0.055783
H	 1.8766386441	-2.2577339098	 0.2293900235	 0.055538
H	-1.1891724655	-2.2926572879	-0.0642346133	 0.120581
H	-0.0291025018	-3.1941344519	-1.0415933826	 0.114139
H	-0.1844232456	-3.5345587999	 0.6840998468	 0.115021
