16
gdb 27675	2.81654	1.28118	0.88544	1.8301	85.04	-0.1802	0.013	0.1932	1255.1513	0.122955	-400.763242	-400.754096	-400.753152	-400.796784	34.023	
C	 0.0002738668	 1.534588707	 0.0770515934	-0.519928
C	 0.0339328253	 0.0391980101	 0.0437471692	 0.20417
C	 0.0065834177	-0.7474592637	-1.0981076039	 0.087876
N	 0.0548397984	-2.0807189721	-0.6828964744	-0.376146
C	 0.1104493299	-2.1242589619	 0.6707132569	 0.384005
O	 0.1629227213	-3.3406765802	 1.2611841145	-0.434979
C	 0.0999813789	-0.8373061455	 1.1655048656	-0.377427
C	-0.0566362953	-0.3981770389	-2.4567156503	 0.269171
C	-0.1109507602	-0.1087108805	-3.6276303673	-0.477576
H	 0.8954970845	 1.946794225	 0.5573978352	 0.125067
H	-0.0563594194	 1.9424067294	-0.9352782562	 0.135334
H	-0.8647761529	 1.9052018701	 0.6394529167	 0.124938
H	 0.0490841976	-2.8829838243	-1.2885097055	 0.271042
H	 0.1984406432	-3.2145917638	 2.2142609995	 0.30997
H	 0.1352574523	-0.5545248217	 2.2067648906	 0.09083
H	-0.158769788	 0.1543978109	-4.654629284	 0.183653
