15
gdb 105148	2.42768	1.23435	0.96415	3.7829	74.13	-0.2705	-0.012	0.2585	1213.0498	0.11102	-416.746453	-416.737371	-416.736427	-416.780669	32.675	
O	 0.0966368446	 1.3596318403	-0.3799190283	-0.407024
C	 0.0231817825	 0.13372376	 0.3103782722	-0.122564
C	-1.3617843258	-0.4855916506	 0.1754689299	 0.120204
N	-1.6577944068	-0.9816493223	-1.1828093795	-0.347231
C	-1.5568527159	-1.9632915052	-0.0854752108	-0.303945
C	-0.4597554418	-2.8900441112	-0.097625065	 0.365678
C	 0.4334684952	-3.6937037767	-0.0841033454	-0.394248
C	-2.4267904159	 0.1791879797	 0.8927552248	 0.25849
N	-3.28605664	 0.7062964426	 1.4596767522	-0.331458
H	-0.062602072	 1.1660750303	-1.3113388375	 0.297053
H	 0.7582549376	-0.5958781266	-0.0516503399	 0.118383
H	 0.2373202061	 0.3475613731	 1.3611718483	 0.132137
H	-2.6354087427	-0.8275478467	-1.4192940912	 0.260795
H	-2.4899705969	-2.3718411516	 0.2956042711	 0.141864
H	 1.2273623618	-4.399809215	-0.0780987711	 0.211866
