20
gdb 51793	3.85259	0.9769	0.86273	3.8609	79.02	-0.2342	-0.0163	0.2179	1361.3096	0.171605	-403.142767	-403.134311	-403.133367	-403.176938	31.656	
O	-0.7316888521	 0.8560630587	 0.8742385268	-0.246017
C	-0.0265547253	 1.0303110794	-0.0874508154	 0.156465
C	 1.2628496559	 1.8264169445	-0.0637380842	-0.291115
C	 1.3447556299	 2.8607531936	-1.1928370393	 0.047013
C	 2.5956597731	 3.7719798234	-1.1427493324	-0.258982
C	 2.8071435939	 4.1721766832	-2.6180065401	-0.231931
C	 2.2127398008	 3.0070462166	-3.3978561141	-0.004078
C	 2.5819420038	 1.6357017926	-2.9647392088	-0.258052
N	 1.303838849	 2.2300862893	-2.5329117089	-0.099036
H	-0.2871290229	 0.6057979838	-1.0804709551	 0.097835
H	 1.3549162546	 2.3049539216	 0.915629083	 0.120376
H	 2.0960682336	 1.1166135668	-0.1718110278	 0.117003
H	 0.4503018539	 3.4960181387	-1.1478170435	 0.091926
H	 2.4481724009	 4.6327996468	-0.4864457291	 0.10919
H	 3.4601243342	 3.2231178402	-0.7555039168	 0.106522
H	 2.252608613	 5.0866924624	-2.8553497946	 0.110519
H	 3.8578863536	 4.3566682044	-2.8611126847	 0.1092
H	 1.8800147899	 3.1807111693	-4.4171956751	 0.09255
H	 2.4746852753	 0.8017919458	-3.6517673799	 0.119393
H	 3.389768195	 1.519588299	-2.2463117399	 0.111219
