21
gdb 108786	2.82515	1.13592	0.99385	3.5922	80.35	-0.2269	0.0266	0.2535	1307.5161	0.182252	-420.431115	-420.42144	-420.420496	-420.465427	36.366	
C	 0.0861645541	 1.4602613539	 0.065264371	-0.406164
C	-0.0136852989	-0.0731051933	 0.039353706	 0.303358
C	-1.4751084154	-0.523635159	 0.0643280453	-0.419179
C	 0.7727271589	-0.6671317251	-1.176832603	-0.22303
N	 2.0479720079	-1.0412202188	-0.5524025544	-0.346535
C	 1.8013933053	-1.1172940781	 0.8068470961	 0.33157
C	 2.7997783217	-1.7094846681	 1.7648016596	-0.130489
O	 2.3282250931	-1.6586239254	 3.0834657091	-0.420935
N	 0.706257343	-0.6056596739	 1.2224159036	-0.344059
H	 1.1306943503	 1.780956251	 0.0059615131	 0.120891
H	-0.4587365805	 1.9012413161	-0.7767319197	 0.107261
H	-0.3368278501	 1.8499758969	 0.995143114	 0.124518
H	-2.0063116229	-0.1766508673	-0.8289920641	 0.109256
H	-1.5439103431	-1.6146745809	 0.1052131015	 0.113832
H	-1.983700256	-0.1193601994	 0.9441364342	 0.124783
H	 0.2585323734	-1.5432452547	-1.595694418	 0.098477
H	 0.9191837792	 0.0619241055	-1.9790496278	 0.110495
H	 2.6051317228	-1.7647604552	-0.9833394623	 0.240952
H	 3.0077948998	-2.7519725045	 1.4705771374	 0.099958
H	 3.75119654	-1.1622712478	 1.6612857872	 0.112673
H	 1.4790303874	-1.1907362617	 3.0299395512	 0.292371
