19
gdb 1574	6.97654	1.10194	1.00752	2.3595	64.07	-0.2553	0.0619	0.3173	1181.3562	0.170232	-348.056615	-348.047732	-348.046788	-348.089986	31.768	
C	-0.1201483801	 1.52468451	 0.0371838701	-0.382677
C	 0.0157385923	 0.0006631946	 0.0032347182	-0.161712
C	 0.7534383291	-0.5086175268	-1.2403056904	-0.194556
C	 0.8457436164	-2.0315672412	-1.319290224	 0.097055
O	-0.4475467674	-2.6548020202	-1.3444431777	-0.438551
C	 1.6507557912	-2.5282458521	-2.5228905834	-0.061504
O	 1.6490551829	-3.9372286071	-2.5869859333	-0.425206
H	 0.8610493945	 2.012587604	 0.028281932	 0.114157
H	-0.6783259132	 1.8935729257	-0.8308356878	 0.1121
H	-0.6481229342	 1.8567770395	 0.936363717	 0.114852
H	 0.548697185	-0.3422274678	 0.899516985	 0.098608
H	-0.9743136504	-0.4666200817	 0.0443253592	 0.10691
H	 0.2530226206	-0.1352724726	-2.1475947666	 0.085014
H	 1.7699979639	-0.0933670272	-1.2667910907	 0.101249
H	 1.3122526508	-2.4259733392	-0.4081281486	 0.096158
H	-0.9521408828	-2.2442560954	-2.0573901986	 0.28078
H	 1.2306265819	-2.0813019916	-3.4440255529	 0.068291
H	 2.6934377577	-2.199464803	-2.4483554663	 0.105233
H	 0.7521313619	-4.198549068	-2.3390248212	 0.283796
