19
gdb 17387	4.60744	1.64058	1.54027	1.689	74.48	-0.2266	0.0769	0.3035	905.9383	0.167092	-327.866109	-327.859185	-327.858241	-327.897089	27.67	
C	 0.2815454155	 1.5390645583	-0.0611507452	-0.244948
C	 1.4568794256	 0.6484338723	-0.1240336752	-0.088501
N	 0.0852643241	 0.1127986687	 0.2537415056	-0.125691
C	 0.0543715114	-0.5843578873	-1.0833754424	-0.257132
C	 1.4925845291	-0.1381808593	-1.4331032099	 0.372315
C	 1.9645335888	 0.5417427742	-2.7453159441	-0.288044
C	 3.3179373958	-0.2076848154	-2.6091173627	-0.209096
C	 2.6360826522	-1.1727921355	-1.6016251561	-0.282963
H	 0.1815532283	 2.1830219841	 0.8074656838	 0.119126
H	-0.1464054008	 1.9427170521	-0.977542488	 0.108445
H	 2.2656912353	 0.6986610098	 0.6002426955	 0.089992
H	-0.0406097959	-1.6642872771	-0.9420115123	 0.109028
H	-0.7525380391	-0.2365510463	-1.7394649368	 0.09797
H	 1.3883989197	 0.1897462998	-3.6073102819	 0.099746
H	 1.9813828891	 1.6349964621	-2.7611207724	 0.096223
H	 3.7472104581	-0.6449380601	-3.5131365725	 0.098114
H	 4.0808579755	 0.4115384471	-2.1293477165	 0.104612
H	 3.1911125279	-1.4548122297	-0.7024909786	 0.101155
H	 2.2775359995	-2.0856771577	-2.0882893702	 0.099648
