20
gdb 120411	3.19501	0.90845	0.778	3.9742	77.23	-0.2438	0.0378	0.2816	1512.3573	0.169455	-440.299148	-440.289113	-440.288169	-440.334994	35.272	
C	-0.2401761216	 1.3519478608	 0.0375784966	-0.228489
O	-0.1438373866	-0.0505443887	-0.0537317465	-0.241246
C	 0.7399167847	-0.4803467294	-1.0678199422	-0.065469
C	 0.7207434389	-1.9976343624	-1.0617355854	 0.027346
N	-0.5387158219	-2.5910494831	-1.5184806932	-0.325707
C	-0.0080786113	-3.2733103173	-2.584637854	 0.431957
O	-0.4889180711	-3.9701164703	-3.4381668767	-0.368244
C	 1.4196533014	-2.7700873766	-2.2350630728	-0.180646
C	 2.1639292392	-2.0203186107	-3.3326101601	-0.409961
H	 0.7320901482	 1.8126474542	 0.2728782794	 0.106792
H	-0.6134317333	 1.7974367802	-0.897808797	 0.108111
H	-0.9427292588	 1.5794063711	 0.8427839399	 0.130282
H	 0.4194911441	-0.0906507112	-2.0469787166	 0.090462
H	 1.7631476708	-0.1130410015	-0.8773747961	 0.089808
H	 1.0179587001	-2.3459342933	-0.0658028705	 0.09079
H	-1.4802096906	-2.5025372797	-1.1664207089	 0.254116
H	 2.0355994186	-3.5903717002	-1.8545095447	 0.104418
H	 1.5674541072	-1.2057444726	-3.7531346517	 0.125629
H	 3.107264451	-1.6025117149	-2.9669725138	 0.119439
H	 2.395355191	-2.7101422344	-4.1494199558	 0.140611
