13
gdb 3458	4.73737	2.75582	2.70828	2.6297	53.39	-0.2288	-0.0207	0.2082	571.9308	0.103095	-344.434318	-344.428976	-344.428032	-344.463321	20.647	
O	-0.0069637657	-0.0085089047	 0.0358446604	-0.309955
C	-0.0099613976	 1.1813763478	-0.0237255516	 0.443805
C	-1.0656431101	 2.3183101301	 0.0424751347	-0.189368
C	-0.0206144192	 2.9867092406	 1.0044863395	-0.253032
C	 1.004518585	 2.3515617355	 0.0227302787	-0.01156
O	 0.7375427237	 3.0296039052	-1.212990757	-0.279644
C	-0.7177807875	 3.0366657675	-1.2697113179	-0.079871
H	-2.1103316026	 2.1547090735	 0.2933219258	 0.098516
H	-0.0170928791	 4.077962425	 1.0369841817	 0.120984
H	-0.0083846501	 2.5512622273	 2.0050600451	 0.125241
H	 2.0733469186	 2.2649938709	 0.1963820019	 0.104029
H	-1.0605456554	 2.4996268707	-2.1610723744	 0.11923
H	-1.07783698	 4.0708206306	-1.3120046869	 0.111626
