17
gdb 109662	2.5936	1.1306	1.04745	3.6579	66.62	-0.249	-0.0306	0.2184	1208.6175	0.133001	-496.075738	-496.06617	-496.065226	-496.110154	34.789	
O	 0.0255279497	 1.1574812852	-0.5357516413	-0.423196
C	-0.1347710245	 0.0614713382	 0.3498448119	-0.092602
C	-1.4798245128	-0.6229991806	 0.1812441547	-0.124655
C	-1.8171436623	-1.2797706848	-1.1108979531	 0.009518
O	-0.7957514884	-1.3042358207	-2.0747850916	-0.426147
C	-1.5587554482	-2.1590638765	 0.1201076829	 0.243654
O	-0.3941952487	-2.9181374798	 0.1273197554	-0.470141
C	-2.7277908393	-2.824157213	 0.7390358844	 0.111575
O	-3.8077369135	-2.2950672616	 0.8708647964	-0.278577
H	 0.0153286831	 0.7931254807	-1.42791934	 0.291521
H	 0.673620737	-0.6722550501	 0.2403086925	 0.099283
H	-0.0626362186	 0.4721181174	 1.3607663671	 0.119879
H	-2.3298353009	-0.1660138966	 0.6786462487	 0.126209
H	-2.8334679128	-1.2180521844	-1.4901613169	 0.124579
H	-1.0877683433	-1.841106558	-2.8190171858	 0.308042
H	 0.0245510029	-2.79718085	-0.7363443003	 0.289734
H	-2.5311655195	-3.8683867854	 1.062536835	 0.091325
