14
gdb 8750	2.48316	1.84709	1.18706	1.176	66.1	-0.2613	-0.0796	0.1817	990.3582	0.102714	-382.525524	-382.516496	-382.515552	-382.560672	30.247	
C	 0.2193747433	 1.6536711823	 0.46611062	-0.41441
C	-0.1232902223	 0.3152926814	-0.196022453	-0.167482
C	 0.4788774815	-0.845729222	 0.6023984435	 0.161913
O	 1.0952307162	-1.758054561	 0.1245442827	-0.230587
C	-1.6422978994	 0.0996332505	-0.2614644018	 0.192031
O	-2.4188057488	 0.7300966704	 0.4210079608	-0.281159
C	-2.0806402928	-0.9297657789	-1.1820220914	 0.284962
C	-2.4226993734	-1.7875159464	-1.9540002463	-0.392886
H	 1.3026006724	 1.7985298145	 0.5014454835	 0.126275
H	-0.2250676234	 2.4809219644	-0.0921825053	 0.14006
H	-0.1766802128	 1.6953415992	 1.4835476002	 0.145057
H	 0.2797884584	 0.2329700451	-1.2097796505	 0.119538
H	 0.2969859204	-0.7712011866	 1.6982987486	 0.094659
H	-2.7351318894	-2.545636293	-2.630996051	 0.222029
