20
gdb 120347	3.97354	0.97832	0.87413	1.4901	80.95	-0.2312	0.0147	0.2459	1383.7883	0.171795	-403.112331	-403.103759	-403.102815	-403.146082	32.104	
C	 0.001360558	 1.4012110107	-0.0212338009	-0.225102
O	 0.0405481428	-0.004602755	-0.0216689138	-0.236713
C	 0.6300105496	-0.5374550959	 1.1474728837	-0.058372
C	 0.660098216	-2.0605023191	 1.0164020826	-0.05739
C	 1.5130469574	-2.5552007945	-0.1404756364	-0.076029
C	 2.4358217062	-3.4385250694	 0.2460029004	-0.06051
C	 2.3855088896	-3.6366904642	 1.7248603396	-0.084417
N	 2.6996340158	-2.383496573	 2.4747625922	-0.331626
C	 1.2896236713	-2.7623211293	 2.220782753	-0.076007
H	 1.0100051365	 1.8393570054	 0.0430695326	 0.105134
H	-0.4623467328	 1.717950145	-0.9589495013	 0.123902
H	-0.5942570673	 1.7939015307	 0.8188597208	 0.100563
H	 1.6533895161	-0.1582201782	 1.282059635	 0.11035
H	 0.0453742897	-0.2441142608	 2.0370392715	 0.076949
H	-0.3783949571	-2.3973011742	 0.8897648126	 0.08605
H	 1.3744952417	-2.1753437927	-1.145086463	 0.108287
H	 3.1597378919	-3.9250480453	-0.3967356042	 0.095864
H	 2.631594509	-4.5885519992	 2.1832202924	 0.087774
H	 2.9198191629	-2.6305773624	 3.4386961728	 0.225674
H	 0.6684779729	-3.0411305887	 3.0652677604	 0.085618
