19
gdb 33093	6.22595	0.77394	0.69603	1.6612	80.6	-0.1726	0.0586	0.2312	1625.7912	0.159498	-419.230104	-419.220508	-419.219564	-419.264774	35.08	
C	 0.0026156195	 1.5264990487	-0.0662585014	-0.391406
C	 0.0142408451	 0.0091574758	-0.0179407635	-0.037506
O	 0.6584089495	-0.4674048524	-1.1876698521	-0.274435
C	 0.762844133	-1.8178293138	-1.2926525844	 0.377234
C	 0.3073359523	-2.7969458284	-0.438232155	-0.235594
N	 0.6405261079	-4.0146082348	-1.0206146983	-0.289186
C	 1.3003512838	-3.8057009862	-2.1992934465	 0.325101
N	 1.7984412352	-4.9128397104	-2.9166329062	-0.608091
C	 1.3861707781	-2.4474279991	-2.4109539851	-0.364724
H	 1.0229538103	 1.9181122882	-0.1061264348	 0.128232
H	-0.5349283935	 1.8791385229	-0.9510088488	 0.127909
H	-0.4900570742	 1.9301059703	 0.8233903282	 0.11388
H	 0.549842011	-0.3527725691	 0.8732843467	 0.095217
H	-1.010477921	-0.3908138818	 0.030026605	 0.094483
H	-0.2288612357	-2.7498600555	 0.4925115157	 0.109253
H	 0.6015508517	-4.9069996592	-0.5608394751	 0.254436
H	 1.0625436976	-5.4193494153	-3.401142932	 0.242584
H	 2.4701449939	-4.6103023513	-3.6112303839	 0.246614
H	 1.8084829653	-1.9493746585	-3.2691454683	 0.086
