20
gdb 68394	2.52899	1.94313	1.4301	2.2771	77.45	-0.2196	0.0717	0.2913	971.5901	0.173172	-403.110596	-403.103332	-403.102388	-403.14158	30.914	
O	-0.1560644381	 1.3835586348	 0.0544803058	-0.488833
C	 0.0296298215	-0.0060072126	 0.0370051149	 0.390329
C	 0.8887113903	-0.6972432709	-1.0699599453	-0.281888
C	 1.1324699883	-1.80407773	-0.0016227075	-0.01777
C	 0.9552755168	-0.6984204894	 1.0740116144	-0.299275
C	-0.0519725721	-2.7830634947	 0.0205817125	-0.16382
N	-1.370117468	-2.1244968915	-0.0907779534	-0.099048
C	-1.9252627234	-1.4471234353	 1.0852502763	-0.259186
C	-1.3434926156	-0.6560104551	-0.0279279108	-0.02272
H	 0.7114616025	 1.8006586691	 0.0278275444	 0.274876
H	 0.397275363	-0.9674213321	-2.0081651986	 0.105141
H	 1.8050982711	-0.1347982705	-1.2758407155	 0.085792
H	 2.0825201263	-2.341379139	-0.0328992075	 0.066577
H	 1.8771512891	-0.1192946981	 1.195583971	 0.087481
H	 0.5718068427	-0.9587616294	 2.0620240266	 0.097817
H	 0.0380777691	-3.4663905572	-0.8331341155	 0.106598
H	-0.0240538172	-3.4000721372	 0.9273741106	 0.100221
H	-3.0055764243	-1.5234108054	 1.1838091679	 0.112055
H	-1.3894543373	-1.5020230898	 2.0286018271	 0.110143
H	-2.0065125446	-0.1525265457	-0.7300590873	 0.095511
