15
gdb 80815	2.02878	1.69774	1.22905	2.6556	67.87	-0.2492	-0.0121	0.2371	1042.0554	0.112312	-453.871809	-453.863746	-453.862802	-453.904243	30.725	
N	 0.1696955041	 1.4802431774	-0.0156568774	-0.526551
C	 0.1114132265	 0.0598856792	-0.0217026153	 0.022022
C	-0.094334946	-0.6354409231	 1.3477585998	-0.012085
O	-1.5176608257	-0.1923436807	 1.3432176321	-0.338671
C	-1.2861907462	-0.7092858486	-0.0197689083	 0.23988
C	-2.3547861451	-0.6818908777	-0.9775531217	 0.144061
N	-3.1711605388	-0.6723377361	-1.7975435761	-0.341523
C	-0.5654500329	-1.929957626	 0.6546565689	 0.092508
O	 0.3891695801	-2.6687754425	-0.0313175374	-0.418105
H	 0.1413443806	 1.8640289228	-0.9530171625	 0.243674
H	-0.6030770537	 1.862772836	 0.5202135991	 0.247389
H	 0.8671964645	-0.379774335	-0.6721932114	 0.116234
H	 0.4610581465	-0.5087675134	 2.2751177179	 0.114843
H	-1.2508495887	-2.5220806635	 1.2676868446	 0.11215
H	-0.0396906352	-3.4253712587	-0.4439016923	 0.304173
