19
gdb 83930	2.50168	1.41332	1.20405	4.0313	76.43	-0.2446	-0.0159	0.2287	1110.9438	0.159649	-423.037137	-423.028657	-423.027713	-423.070111	32.169	
O	-0.4219209746	 1.491865641	-0.0081846852	-0.413297
C	-0.2067146222	 0.1130166729	 0.0317669145	 0.040788
C	-0.4584034565	-0.7225491937	 1.2449071157	-0.139244
C	-1.2412152751	-0.1524375688	 2.4196096139	-0.224701
C	-2.5056047837	 0.5102011782	 1.8209268561	-0.216598
C	-2.7609219416	-0.1995545746	 0.4709176497	-0.274275
C	-1.4266385428	-0.7880232234	 0.0353648227	 0.211686
C	-1.4127466544	-1.966858167	-0.8546446064	 0.086097
O	-2.3966909462	-2.5323896519	-1.2675624216	-0.269114
H	 0.2763425477	 1.9172497417	 0.501062574	 0.293922
H	 0.6095985042	-0.2285168112	-0.6079797887	 0.09335
H	 0.2289738274	-1.5420164345	 1.4318890288	 0.092867
H	-1.5092370413	-0.9791774708	 3.0865517423	 0.110396
H	-0.6487016729	 0.5524124209	 3.014010823	 0.097982
H	-3.3628782129	 0.4304664741	 2.4947643878	 0.097196
H	-2.3190362429	 1.5704062507	 1.6471978556	 0.115838
H	-3.4672803351	-1.0292040821	 0.5713022345	 0.121583
H	-3.1738718915	 0.482851959	-0.2770406746	 0.115442
H	-0.3912624958	-2.3253593505	-1.1267961923	 0.060083
