19
gdb 1998	5.51613	1.59635	1.34612	1.0281	68.37	-0.2346	0.089	0.3236	954.8802	0.169742	-310.902683	-310.894404	-310.89346	-310.935305	30.379	
C	 0.3136022608	 1.4372408378	 0.3777665251	-0.389872
C	 0.0048481002	-0.0157757644	 0.0081858698	 0.155013
C	 0.6622580884	-0.4308508572	-1.303031284	-0.388691
O	 0.4700816524	-0.9396769883	 0.993485268	-0.260564
C	-0.2616439297	-0.9637321448	 2.1773904816	 0.154836
C	 0.3552955262	-1.7035798667	 3.3193370391	-0.296688
C	 0.21606687	-0.1950765298	 3.3864848936	-0.283614
H	 1.3933822133	 1.5785968532	 0.4931680116	 0.117408
H	-0.0396308804	 2.1112700506	-0.4094780103	 0.110812
H	-0.173579975	 1.7240557503	 1.3126911015	 0.123421
H	-1.088347122	-0.1307040228	-0.0872677078	 0.063348
H	 1.7505632507	-0.3398372541	-1.2268513549	 0.121609
H	 0.4223795175	-1.4710472903	-1.5380465071	 0.120871
H	 0.3192251506	 0.2036070089	-2.1256403238	 0.110611
H	-1.3394104601	-1.055040191	 2.0317737943	 0.078871
H	-0.2804788423	-2.3206265938	 3.9440978318	 0.112009
H	 1.3502679485	-2.0996818003	 3.1507764777	 0.124219
H	 1.1235832594	 0.3856402397	 3.2691308139	 0.11816
H	-0.5187497585	 0.2352176931	 4.0588725198	 0.10824
