16
gdb 18271	4.45912	1.70048	1.39812	2.5282	60.99	-0.2576	0.0765	0.3342	900.1294	0.130221	-420.844601	-420.837258	-420.836314	-420.876621	26.474	
C	 0.0965303412	 1.309778959	 0.1521749276	-0.238392
O	 0.0376794157	-0.1000613882	 0.015233165	-0.235992
C	 0.6090488908	-0.5742245872	-1.152219944	 0.235152
O	 2.0168603506	-0.3388764915	-1.1596751477	-0.282798
C	 2.715254083	-1.4499087794	-1.7093391182	-0.103689
C	 1.7601833213	-2.6208113432	-1.6213250349	 0.026124
O	 1.2256949104	-2.7913398116	-0.3073029467	-0.234624
C	 0.4486048287	-2.0772184654	-1.2696487064	-0.025527
H	 1.1302079784	 1.659196223	 0.2499395589	 0.133234
H	-0.3694242912	 1.8131442322	-0.7088023153	 0.10391
H	-0.4602789939	 1.5628857028	 1.0565474803	 0.129732
H	 0.1539386687	-0.0722196813	-2.029009746	 0.055355
H	 2.989609845	-1.2692845204	-2.7604584327	 0.098906
H	 3.6327831803	-1.5998238737	-1.1302079589	 0.12361
H	 1.907770076	-3.5201442917	-2.212420266	 0.10527
H	-0.5036814649	-2.5127917035	-1.5557607951	 0.109729
