17
gdb 56756	2.95078	1.30214	1.07861	2.2947	72.38	-0.2449	0.0015	0.2464	1126.989	0.136487	-417.926464	-417.918284	-417.91734	-417.959837	30.461	
O	-0.0218109174	 1.4493009409	 0.0098933287	-0.401484
C	 0.0369305587	 0.0351155608	 0.0150236798	-0.168117
C	 0.6507468033	-0.4907439025	-1.222812398	 0.25336
N	 1.1765415111	-0.8945119041	-2.1694734597	-0.319552
C	 0.7677520738	-0.5094099206	 1.2362519415	 0.306554
C	 0.4410465966	-0.2564415621	 2.7238765657	-0.217636
N	 1.6824519081	-1.1651550065	 2.810224955	-0.137558
C	 1.006478332	-1.9686081758	 1.6810546513	-0.215726
C	 2.2380738396	-0.2911424419	 1.6705062208	-0.22136
H	 0.8800160977	 1.7877623676	-0.0386454879	 0.297636
H	-1.0062827804	-0.3003147158	 0.0442705002	 0.143344
H	 0.6040220842	 0.7475188868	 3.1215463045	 0.112767
H	-0.4626693258	-0.7122661122	 3.1366171074	 0.108824
H	 0.1442820182	-2.5502806731	 2.0172014012	 0.109712
H	 1.7020453842	-2.5769966445	 1.0987098541	 0.121861
H	 3.024386305	-0.7777448866	 1.0887443378	 0.121151
H	 2.5381184412	 0.7071490597	 2.0009394976	 0.106224
