15
gdb 27486	2.02527	1.92986	0.99433	4.2681	72.13	-0.2451	-0.0359	0.2092	1124.1513	0.115114	-450.220974	-450.213056	-450.212112	-450.253791	29.259	
C	-0.0207693232	 1.4921533872	 0.0184642474	-0.488161
C	-0.0000980921	-0.0058377348	-0.0588128172	 0.390359
N	-0.0212493461	-0.6046544796	-1.1973266886	-0.339815
C	-0.0008564821	-2.0027596524	-1.2252212008	 0.408363
N	-0.0176298054	-2.7165576795	-2.277414046	-0.543627
N	 0.0413651559	-2.6623734175	 0.0166793323	-0.375934
C	 0.0650569625	-2.065152056	 1.2469554636	 0.480446
O	 0.1017989153	-2.6415152104	 2.3089729074	-0.386381
N	 0.041852883	-0.6696686436	 1.1456870862	-0.393859
H	 0.8707353399	 1.8641773406	 0.5352779371	 0.149544
H	-0.0521916819	 1.9032894671	-0.9891457206	 0.167331
H	-0.8963115344	 1.8373622081	 0.5793186827	 0.149639
H	-0.0481959732	-2.099515139	-3.0875692396	 0.228921
H	 0.0560131844	-3.6720490043	-0.0020951848	 0.279804
H	 0.0575956576	-0.1721056858	 2.0225708009	 0.273369
