23
gdb 75020	3.05331	1.12331	0.85705	0.7174	100.47	-0.1962	-0.0127	0.1835	1436.0281	0.206582	-351.189123	-351.179678	-351.178734	-351.223839	36.148	
C	-0.1233729059	 1.5631809357	 0.0583749949	-0.466487
C	 0.0249636529	 0.0652643006	-0.019128883	 0.261907
C	 0.0710133616	-0.5484685692	-1.2152048039	-0.131279
C	 0.1451624692	-1.9583896357	-1.5847129399	-0.131289
C	 0.190240081	-3.0798894958	-0.8433714499	 0.261921
C	 0.1917046329	-4.4305396655	-1.512334985	-0.466496
C	 0.2286570706	-3.1320925972	 0.6651205358	-0.284321
C	 0.8766139038	-1.9416405646	 1.3802466287	-0.212799
C	 0.0970228868	-0.6235661602	 1.3225342636	-0.284315
H	 0.7418124481	 2.024158374	 0.5541602626	 0.119806
H	-0.2308183545	 2.0160505152	-0.9304950402	 0.117668
H	-1.0016818182	 1.8419789419	 0.6568539751	 0.119596
H	 0.0103308876	 0.1088271245	-2.0815161286	 0.068068
H	 0.127152604	-2.1101994519	-2.6630639652	 0.068068
H	 0.1039242297	-4.3498432249	-2.5987416325	 0.117668
H	 1.1103497528	-4.9877087003	-1.283232392	 0.119808
H	-0.6394039243	-5.0510468778	-1.149608005	 0.119598
H	-0.793869847	-3.2805016947	 1.0458081599	 0.106968
H	 0.7700009856	-4.0417855182	 0.9580427629	 0.096413
H	 1.0063583207	-2.2112544081	 2.435057088	 0.091429
H	 1.882741064	-1.7825562687	 0.9746856201	 0.104686
H	 0.554137347	 0.0746139114	 2.0366726403	 0.096416
H	-0.9249455984	-0.7813006306	 1.7009525832	 0.106967
