18
gdb 15545	2.96203	1.91659	1.31925	2.7748	73.02	-0.2369	-0.0197	0.2172	952.8754	0.153494	-347.827155	-347.819179	-347.818235	-347.859968	29.386	
C	-0.0595903722	 1.6012208837	 0.0015787003	-0.407389
C	 0.0511578515	 0.0698307619	 0.0033910169	-0.034211
C	 0.7903232501	-0.519792706	-1.178671982	-0.056593
C	 1.5963175002	-1.5206617807	-0.8341929565	-0.070262
C	 1.5588446534	-1.7939443558	 0.6501302746	-0.289006
C	 0.8111376004	-0.5570340763	 1.2288431555	-0.090456
C	 1.8236148994	 0.4091000576	 1.8087955805	 0.162699
O	 1.7165351375	 0.9615139116	 2.8737028616	-0.259338
H	 0.9210851574	 2.0822293283	-0.0711627588	 0.122866
H	-0.6564629376	 1.9381406094	-0.8519671981	 0.113843
H	-0.5429454968	 1.9631675542	 0.914017031	 0.131732
H	-0.974920362	-0.3274004065	 0.00878063	 0.091518
H	 0.6218253638	-0.1680444893	-2.191226262	 0.094773
H	 2.1920700874	-2.1132753013	-1.5195551471	 0.09719
H	 1.0179961099	-2.7229709217	 0.8727266714	 0.117022
H	 2.5595139622	-1.9157768984	 1.0857168196	 0.108967
H	 0.1188966256	-0.8118253386	 2.034099854	 0.089748
H	 2.7205592198	 0.5754394279	 1.1664715191	 0.076898
