18
gdb 65337	3.60627	1.05311	0.98643	2.2249	79.91	-0.2346	0.0302	0.2649	1251.5674	0.14583	-401.868371	-401.859278	-401.858334	-401.902185	34.413	
O	-0.0846334201	 1.3138209881	 0.3377808576	-0.473582
C	 0.0334575437	-0.0593845037	 0.1139704803	 0.386611
C	 1.038719154	-0.5068415628	-0.9066351554	-0.333317
C	 1.3206772715	-0.7491856213	 0.57720914	-0.270408
C	 2.2747666201	 0.0523842137	 1.2780644726	 0.274763
C	 3.00853241	 0.7890636377	 1.8871729629	-0.421043
C	-1.2658799645	-0.7927947094	 0.2656951366	-0.02907
C	-2.2435362011	-0.3736575728	 1.298706548	-0.243543
N	-2.5177039133	-0.1350814276	-0.1307534556	-0.330086
H	 0.5365054049	 1.564311976	 1.0352287597	 0.292959
H	 0.8220799905	-1.3800494209	-1.5122650072	 0.125569
H	 1.6142294881	 0.2711435185	-1.3933167228	 0.134017
H	 1.2154389155	-1.770875969	 0.9297381754	 0.122007
H	 3.6968213603	 1.4057702406	 2.4105128873	 0.203598
H	-1.211054358	-1.844292013	-0.0105061842	 0.086851
H	-2.8818009375	-1.1128291581	 1.7741304896	 0.115032
H	-1.9794753261	 0.4796203542	 1.9158710309	 0.114407
H	-2.3133315079	 0.8413357099	-0.3362109358	 0.245234
