16
gdb 96743	3.29734	0.83612	0.67283	2.5437	81.95	-0.2474	-0.0421	0.2053	1595.857	0.121606	-396.900161	-396.88998	-396.889036	-396.936222	34.92	
C	 0.0565226151	 1.4629482161	-0.0745756325	-0.342812
N	 0.0487193419	 0.0166102216	-0.0684930138	-0.299042
C	-1.0421026789	-0.6362196882	 0.0138912933	 0.333553
N	-1.0768816392	-2.00615736	-0.0530402936	-0.357153
C	 0.1761726329	-2.7537764613	-0.0379206896	-0.276946
C	-0.0806302992	-4.1871414052	-0.0526693855	 0.254115
C	-0.3036757657	-5.3670578562	-0.0519670661	-0.402126
C	-2.3639050071	-0.032773851	 0.1527666873	 0.232544
N	-3.4004729152	 0.4640411292	 0.2769442635	-0.329145
H	 0.7025891556	 1.8208556523	 0.7350058714	 0.134992
H	 0.5001134789	 1.8178578465	-1.0122517763	 0.135329
H	-0.9330558521	 1.9267518949	 0.0378891488	 0.130341
H	-1.897678299	-2.4763172677	 0.2928191051	 0.268248
H	 0.7695990812	-2.4565633139	-0.9103590485	 0.161736
H	 0.7805555227	-2.480154164	 0.8395387764	 0.149176
H	-0.4878950618	-6.413184613	-0.0567965599	 0.207189
