21
gdb 84722	2.32853	1.52801	1.1542	0.2357	94.13	-0.2086	-0.0301	0.1785	1182.9891	0.183576	-349.982469	-349.973679	-349.972735	-350.015368	34.346	
C	-0.389504175	 1.4676563759	 0.0564797539	-0.384983
C	-0.0110033527	-0.0259464212	-0.0368799423	-0.074708
C	 0.7380055532	-0.3595623851	-1.30843759	-0.098002
C	 1.9884131436	 0.0466925184	-1.5960149482	-0.062721
C	 2.9043033964	 0.7189117038	-0.7045154076	-0.094617
C	 2.9161633931	 0.6416834509	 0.6488562723	-0.150636
C	 2.0356081039	-0.1494589341	 1.490556532	 0.313567
C	 2.63511714	-0.5955933353	 2.8084352221	-0.480641
C	 0.7782172674	-0.5118143467	 1.1596833398	-0.180824
H	 0.5010943087	 2.0990669712	 0.0801742293	 0.131238
H	-0.9963464325	 1.7628745346	-0.8060518229	 0.10705
H	-0.9681125786	 1.6568234604	 0.9667630781	 0.107405
H	-0.9492719229	-0.5911273253	-0.053463949	 0.072578
H	 0.2026081419	-0.9422332813	-2.0547256284	 0.089317
H	 2.3729079329	-0.1638087218	-2.5923804104	 0.087062
H	 3.7191725349	 1.262242882	-1.1780081071	 0.087762
H	 3.7439533374	 1.1267250642	 1.1635350097	 0.081109
H	 3.5334287621	-1.2055199393	 2.65655432	 0.126549
H	 2.9404193018	 0.2711166677	 3.4080830834	 0.123985
H	 1.9234174687	-1.177658739	 3.3986396745	 0.119413
H	 0.2564436357	-1.1904657902	 1.8316087211	 0.080099
