18
gdb 48164	5.43833	0.65764	0.60471	2.506	76.74	-0.2424	-0.0706	0.1718	1777.3154	0.147279	-435.242506	-435.233018	-435.232074	-435.278301	33.231	
N	 0.0252172873	 1.3606413644	 0.4135151119	-0.516922
C	-0.0490922913	 0.1290558123	 0.0763428229	 0.291861
N	-1.2328378773	-0.5448900989	-0.0229376119	-0.332088
C	-2.5082842947	 0.1346709134	 0.1360687139	-0.153198
C	-3.6305958444	-0.8666514968	 0.2145856936	-0.000149
C	-4.9776008515	-0.5273538625	-0.2964369121	-0.241904
N	-4.1410631371	-1.5046120144	-1.0176739168	-0.321824
C	 1.168739922	-0.7231177721	-0.2130195643	 0.107584
O	 2.2896120113	-0.2930825821	-0.154487637	-0.233166
H	 1.0128043233	 1.6178354865	 0.464874595	 0.235231
H	-1.2392736979	-1.4323748706	-0.500647426	 0.250334
H	-2.4516354111	 0.7396852544	 1.0473732761	 0.145696
H	-2.6843982528	 0.8409141899	-0.6909041625	 0.106669
H	-3.5591863706	-1.5593514365	 1.050938368	 0.104427
H	-5.8583951824	-0.9428926741	 0.1834513393	 0.127371
H	-5.1227929947	 0.4562020811	-0.735796065	 0.119347
H	-3.7306296368	-1.0501317672	-1.8317538381	 0.229387
H	 0.9674643285	-1.7844092767	-0.4863046772	 0.081344
