14
gdb 1073	7.09786	1.87907	1.53531	2.786	59.22	-0.2053	0.0423	0.2476	767.5661	0.115456	-324.604156	-324.597624	-324.59668	-324.63484	24.158	
O	 0.2730520396	 1.1247288876	 0.6760728399	-0.41472
C	 0.0282154295	 0.0445891493	-0.2174676317	-0.16132
C	-1.3763417241	-0.4780937085	-0.1318181294	 0.227227
C	-2.1743887977	-0.4582926891	 0.9929569667	-0.16998
N	-3.375907265	-1.0350231465	 0.6684286195	-0.231649
C	-3.3654959414	-1.425062529	-0.6460226301	-0.072951
C	-2.1393099491	-1.0900801914	-1.1701221997	-0.253877
H	-0.4224310333	 1.7733833758	 0.5224570054	 0.276211
H	 0.2556685076	 0.3241872788	-1.2590000342	 0.088086
H	 0.7576506925	-0.7249245833	 0.0643069791	 0.116868
H	-1.9763439094	-0.0858132269	 1.9845059151	 0.125866
H	-4.1543086316	-1.1371413902	 1.2952614617	 0.261147
H	-4.2257974401	-1.8955013976	-1.0942692066	 0.118212
H	-1.8169631274	-1.2614291389	-2.1864069458	 0.090879
