18
gdb 85098	1.92355	1.59693	1.21323	3.7643	79.29	-0.2404	0.0223	0.2627	1134.642	0.145055	-401.944121	-401.934447	-401.933503	-401.978344	35.705	
C	-0.1243445078	 1.5583726319	-0.0803434502	-0.409157
C	 0.0472120938	 0.0500472367	-0.0097992959	 0.041657
N	 1.1495223593	-0.505358475	-0.8061583985	-0.345159
C	 1.7857735035	-1.1576669592	 0.2133770207	 0.425836
O	 2.7590405296	-1.8558173703	 0.2703286213	-0.361882
C	 0.7482184689	-0.6009294476	 1.2575366621	-0.070296
C	 1.3839223421	 0.3461991538	 2.2823577694	-0.445725
C	-0.0489598101	-1.6309488832	 1.8958035572	 0.307979
C	-0.7134559294	-2.4814664679	 2.4259068224	-0.473329
H	 0.8153170372	 2.0842886091	 0.1047786776	 0.12661
H	-0.4853480618	 1.8517755947	-1.0720260674	 0.122537
H	-0.8653822397	 1.8939026193	 0.6520736773	 0.131482
H	-0.9060771613	-0.4468928338	-0.2189048828	 0.097788
H	 1.3053175289	-0.5372512609	-1.8033294838	 0.2505
H	 2.0122267371	 1.0959763365	 1.7950900562	 0.12506
H	 0.6176831172	 0.8553816757	 2.8736357226	 0.127942
H	 2.0140053437	-0.2318643775	 2.9625692376	 0.149226
H	-1.290565081	-3.239407192	 2.8951608643	 0.198933
