17
gdb 97696	2.87173	0.82321	0.69535	2.0137	86.01	-0.2503	0.0021	0.2524	1660.0501	0.132141	-384.602376	-384.592444	-384.5915	-384.639845	35.033	
C	 0.2450292319	 1.2224727199	 0.6074190892	-0.36597
C	-0.2067207181	 0.3631180624	-0.5878062432	-0.322858
C	-1.5158478064	-0.2480781093	-0.3907616708	 0.122477
C	-2.5965659078	-0.7448985678	-0.2016332049	-0.019099
C	-3.8985700069	-1.3268947958	 0.0149933754	 0.121093
C	-4.2356605227	-2.6337399877	-0.6113898927	-0.205505
O	-3.9238552288	-2.5655667496	 0.767871718	-0.256664
C	-4.9673050112	-0.4022976963	 0.3178462151	 0.272238
C	-5.8521329098	 0.3732722945	 0.5594621842	-0.454231
H	 1.2290419684	 1.6577925757	 0.4104715104	 0.116792
H	-0.4625500889	 2.03530508	 0.7905095577	 0.132568
H	 0.3090923885	 0.6192491253	 1.5167085522	 0.133887
H	-0.2310670074	 0.977795053	-1.4968006434	 0.134716
H	 0.532784165	-0.4253076987	-0.7771083373	 0.135123
H	-5.2765642515	-2.8397723639	-0.8552166333	 0.127169
H	-3.4884712463	-3.1069929108	-1.2462157006	 0.125995
H	-6.6327533678	 1.0588733193	 0.7799110539	 0.202268
