17
gdb 84904	2.91267	1.41848	1.07974	2.0707	75.95	-0.2482	0.0035	0.2516	1116.2722	0.135144	-421.782958	-421.774557	-421.773613	-421.815795	32.141	
O	 0.1489356379	 1.4369830932	-0.0268907733	-0.42729
C	 0.054946943	 0.0213928664	-0.0134507273	 0.100781
C	 0.786496603	-0.5677263258	 1.1713926247	-0.102567
C	 0.1321729482	-1.037226097	 2.2313528674	-0.064435
C	-1.3680598839	-1.0026504867	 2.3118626697	-0.126079
O	-1.9520641046	-0.1782993265	 1.3170781669	-0.266717
C	-1.4136643349	-0.4601952649	 0.0214297439	-0.146778
C	-2.2476172824	 0.183971029	-0.9847116511	 0.321096
C	-2.9217027805	 0.6882283877	-1.8406215711	-0.398234
H	-0.3260371373	 1.7458225981	 0.7547369784	 0.28299
H	 0.5128774013	-0.3105445798	-0.951464831	 0.099403
H	 1.8716788753	-0.5571092973	 1.1364070192	 0.100541
H	 0.6585543822	-1.4638234701	 3.0814483566	 0.100681
H	-1.776551616	-2.028420528	 2.2472069059	 0.106056
H	-1.6946633298	-0.5918461442	 3.273826644	 0.125099
H	-1.423792953	-1.5504332477	-0.149350077	 0.098883
H	-3.5164206185	 1.1448765835	-2.5927378257	 0.196569
