23
gdb 76619	2.21327	1.37395	1.16048	3.0993	81.93	-0.2204	0.0495	0.27	1228.3215	0.202811	-425.415756	-425.405062	-425.404118	-425.450837	40.761	
C	-0.8376230058	 1.2840024585	 0.2674207228	-0.407967
C	-0.2362602955	-0.1039805519	 0.1993978333	-0.085993
C	 1.1165184205	-0.3580916607	-0.4364344674	 0.097694
O	 1.9113750888	 0.6800948594	-0.9226697515	-0.436807
C	 0.9364207275	-0.6000423423	 1.0457894585	-0.071502
C	 1.6847545314	 0.1790545656	 2.1231365843	 0.299628
C	 0.8918998912	 0.1975094708	 3.4364993133	-0.404303
C	 3.0753800763	-0.4434222758	 2.3228180937	-0.413365
O	 1.8519236954	 1.5406784381	 1.6615932165	-0.4618
H	-0.0774727822	 2.0600878558	 0.3452642722	 0.131456
H	-1.4274960538	 1.4752728702	-0.6357795001	 0.11289
H	-1.5094200348	 1.3873901639	 1.127062492	 0.106621
H	-0.9773160523	-0.8778186234	 0.0077996845	 0.07707
H	 1.2132134765	-1.2289368255	-1.0793061047	 0.090946
H	 2.0890978167	 1.2752933574	-0.1798691163	 0.29404
H	 0.8632956642	-1.6462923865	 1.3346776164	 0.080332
H	 0.7175131973	-0.8191174177	 3.8023629037	 0.117502
H	 1.441529422	 0.7420902751	 4.2138470215	 0.09992
H	-0.0749767875	 0.6844589314	 3.290362463	 0.132455
H	 3.6374070839	-0.4150190954	 1.3857342048	 0.138167
H	 3.6392302191	 0.10337938	 3.0889457138	 0.099311
H	 2.9986133029	-1.484397899	 2.6508429848	 0.1198
H	 2.438148658	 1.9918057118	 2.2781921209	 0.283907
