13
gdb 5174	5.94678	1.46031	1.17241	6.6073	63.22	-0.2079	-0.0026	0.2053	935.1082	0.097672	-394.833774	-394.826818	-394.825873	-394.865689	24.896	
O	-0.3098056335	 0.0676988373	 0.0050907737	-0.293123
C	-0.0887927324	 1.2558078852	 0.009209143	 0.144089
N	 1.1580150386	 1.8258810553	-0.0001792066	-0.418219
C	 2.3577103374	 1.1119078748	-0.0162311686	 0.408669
C	 2.6564369464	-0.2282673374	-0.0309683417	-0.148243
N	 4.0249435745	-0.4007468963	-0.042810289	-0.240965
C	 4.5425304158	 0.7992554481	-0.0358160337	 0.014204
N	 3.5708115505	 1.7682002705	-0.0195403246	-0.340097
H	-0.8798677523	 2.0296715203	 0.0208874334	 0.085192
H	 1.2003803679	 2.8330768593	 0.0028676745	 0.251863
H	 1.9640438437	-1.0507197014	-0.0329817026	 0.143462
H	 5.592941461	 1.0476231275	-0.0416968685	 0.132003
H	 3.7195014224	 2.763328877	-0.0107399291	 0.261164
