21
gdb 61770	2.46028	0.96084	0.72683	2.724	85.78	-0.2482	-0.0197	0.2285	1560.885	0.178221	-387.074009	-387.063116	-387.062172	-387.110704	38.926	
C	-0.0457070146	 1.6185542893	 0.0750521211	-0.4149
C	 0.0309238134	 0.0859433202	 0.0131824832	 0.020276
C	 0.7603281424	-0.3638877665	-1.2709394276	-0.284457
C	-0.0428924758	-0.0727623151	-2.5154770312	 0.158736
O	 0.3438587676	 0.5584720419	-3.4653692322	-0.244523
C	 0.7110745422	-0.5196202061	 1.2771715997	-0.151613
C	 0.0456725067	-0.0716237461	 2.5960296138	-0.404928
C	 0.7347722881	-1.9814240784	 1.2113703363	 0.318997
C	 0.7243792554	-3.1835591212	 1.1719432409	-0.461739
H	 0.9502907553	 2.0544754869	 0.2176258411	 0.1212
H	-0.4462391144	 2.0250924591	-0.8586760952	 0.130931
H	-0.6881574074	 1.9665760874	 0.8869656217	 0.123125
H	-0.9917119093	-0.3159295584	-0.0205669712	 0.086809
H	 1.7400406587	 0.1165932644	-1.3626973136	 0.114189
H	 0.9104408055	-1.4511866205	-1.2311744821	 0.134298
H	-1.0724852123	-0.5054910942	-2.4996941571	 0.0701
H	 1.7523609059	-0.1648478054	 1.2874337511	 0.106706
H	-1.0192389454	-0.3247243927	 2.5972534453	 0.126282
H	 0.5121349892	-0.577633875	 3.4446646304	 0.130458
H	 0.1481463999	 1.0055601279	 2.744374478	 0.122296
H	 0.7299729988	-4.2450996474	 1.1392171877	 0.197756
