17
gdb 35058	2.51138	1.51995	1.48532	1.2055	74.19	-0.2225	0.0444	0.2669	997.5226	0.135976	-421.757118	-421.749275	-421.748331	-421.789451	30.338	
C	-0.3712354752	-1.2098585594	-0.1935084408	-0.445224
C	-0.210951243	-0.0217671442	-0.0899209008	 0.356993
C	-0.0526692698	 1.3949315821	 0.0001847595	-0.323465
C	 0.5050180146	 2.0538792397	 1.2750356538	 0.035071
O	 0.9103951774	 1.2293917731	 2.3191346184	-0.246716
C	 2.3262965036	 1.0660339719	 2.359639539	-0.090611
C	 2.8240061713	 0.4908850253	 1.0460412806	-0.084217
O	 2.5212507499	 1.3551157682	-0.0529003083	-0.259863
C	 1.3307691485	 2.0636419772	 0.0259320435	 0.074677
H	-0.5113805528	-2.2584031938	-0.2815833047	 0.194219
H	-0.8166926821	 1.9740990429	-0.5123705152	 0.114538
H	 0.021593358	 2.9704945101	 1.6084882431	 0.102358
H	 2.818380852	 2.0272102434	 2.5706881601	 0.101551
H	 2.5327638371	 0.3764275169	 3.1821143302	 0.118509
H	 3.9131157726	 0.3853632076	 1.0539795192	 0.110971
H	 2.368964489	-0.492858131	 0.8831278163	 0.126773
H	 1.4120476789	 2.9901864401	-0.5335691338	 0.114436
