20
gdb 10482	2.56446	1.63607	1.20968	0.5547	80.07	-0.2593	0.0528	0.3121	1089.3043	0.175129	-311.829731	-311.820601	-311.819657	-311.863459	34.286	
C	 0.9058372171	-0.042508532	-1.2012682902	-0.383753
C	-0.0336346326	-0.1383497966	 0.0072794847	-0.253316
C	 0.6180601153	-0.7021052796	 1.2614410077	 0.398895
C	 1.7549333516	 0.1328846307	 1.8566225026	-0.437931
C	 1.3403581977	 1.4719860809	 2.2673181386	 0.323894
C	 0.9848031823	 2.5722804347	 2.5965887987	-0.461824
C	-0.251601662	-1.4565547083	 2.2345180766	-0.30624
C	 0.7498515072	-2.2015772731	 1.3815288266	-0.316878
H	 1.3452599937	-1.0171753869	-1.4394148038	 0.11454
H	 0.3653988614	 0.3076542048	-2.0860860634	 0.112463
H	 1.7263316858	 0.6600630398	-1.0234727267	 0.120524
H	-0.4430034175	 0.8535973839	 0.2343100467	 0.111968
H	-0.889283549	-0.7732177613	-0.2523867274	 0.090524
H	 2.1727878248	-0.3959093678	 2.7222767858	 0.123709
H	 2.5759007336	 0.2157195611	 1.1325458615	 0.129839
H	 0.6783131238	 3.5443328745	 2.8938015411	 0.193889
H	-0.0441991627	-1.3545774293	 3.2946389603	 0.112312
H	-1.3051800504	-1.56533183	 1.9998716798	 0.109927
H	 0.3735610449	-2.8109357918	 0.5663030076	 0.110195
H	 1.6315884649	-2.6092732138	 1.8654717731	 0.107262
