19
gdb 111656	2.81001	1.22968	1.13015	2.288	75.85	-0.2426	-0.0226	0.22	1186.1711	0.158738	-423.032582	-423.023944	-423.023	-423.0669	31.92	
C	-0.0709249872	 1.5028846103	 0.3456686043	-0.376594
C	-0.0160769483	-0.0198775042	 0.5193293312	-0.20926
C	-1.3631364266	-0.6610722222	 0.2567790218	-0.040519
C	-1.823151055	-1.1008844198	-1.0930819935	 0.083345
O	-0.8428120487	-1.1887475403	-2.1056204086	-0.261143
C	-0.0041266695	-2.3133324108	-1.8858450115	-0.188378
C	-0.4275569659	-2.9570173006	-0.5579903183	 0.374897
O	 0.0425740576	-3.9640301709	-0.0932584606	-0.31781
C	-1.5791973024	-2.1585706994	-0.040283093	-0.239819
H	 0.8994975766	 1.9577943028	 0.5653042797	 0.116094
H	-0.3456197148	 1.7674182328	-0.6800672949	 0.130297
H	-0.8097793655	 1.9528420583	 1.0179692243	 0.114676
H	 0.7423476275	-0.4301265354	-0.1532812416	 0.110759
H	 0.3064438863	-0.2689005247	 1.537357274	 0.109531
H	-2.1605376425	-0.2708740515	 0.88718985	 0.099256
H	-2.8069968729	-0.8541749175	-1.4775453409	 0.108291
H	-0.1264199602	-3.0452592291	-2.6959278034	 0.134962
H	 1.0504400439	-2.0136072344	-1.8575181307	 0.134984
H	-2.3534913323	-2.6898243436	 0.4982378517	 0.116432
