14
gdb 20613	3.31625	1.94257	1.23439	2.4714	67.63	-0.2575	-0.0631	0.1943	920.5708	0.108412	-378.763208	-378.755833	-378.754889	-378.795709	25.775	
C	-0.0088525964	 1.5433044492	 0.0633456196	-0.514656
C	 0.0054041077	 0.0467329875	 0.0049971944	 0.108793
C	-0.0036862784	-0.7800319557	-1.1192967342	 0.212332
N	 0.0409614617	-2.0594097133	-0.6506555533	-0.232119
N	 0.0750386125	-2.1322641579	 0.6758230649	-0.203811
C	 0.0550670112	-0.8583071716	 1.0833496772	-0.06466
C	-0.054204187	-0.5212947121	-2.548651347	 0.081775
O	-0.0481452005	-1.4019301826	-3.3859866614	-0.298376
H	 1.0067302077	 1.9548243614	 0.0978737533	 0.143612
H	-0.50989549	 1.9823470114	-0.803437599	 0.134819
H	-0.5297250855	 1.8914046731	 0.9598609284	 0.139158
H	 0.0389109403	-2.8912166655	-1.2201239971	 0.289747
H	 0.0725989804	-0.6352965845	 2.1403927065	 0.120691
H	-0.1004157238	 0.5493063105	-2.8336746623	 0.082694
