19
gdb 85830	2.41691	1.26281	1.10256	2.85	77.55	-0.2301	0.0132	0.2433	1210.5064	0.156965	-419.194137	-419.184352	-419.183408	-419.228448	35.737	
C	 0.0333862014	 1.5627861231	-0.0556361052	-0.402749
C	 0.065205567	 0.0523528489	 0.0698018816	 0.030602
N	 1.0064874668	-0.6657788917	-0.814635116	-0.08028
C	 0.5097534305	-1.2148511281	-2.0563905524	-0.331074
C	 1.3811871538	-1.5944254255	 0.2599462472	-0.218929
C	 0.7983490287	-0.5862969576	 1.2960048353	 0.240786
O	 1.7317443746	 0.3151342548	 1.840339416	-0.457357
C	-0.0524915635	-1.1591706241	 2.3438053877	 0.229047
N	-0.6990758711	-1.6190086494	 3.1847841728	-0.339192
H	 1.0330680868	 1.9794477485	 0.0737211262	 0.143871
H	-0.3402442737	 1.8448047926	-1.045516476	 0.119252
H	-0.6346612799	 1.9998185981	 0.693131298	 0.126558
H	-0.9546670418	-0.3638114981	 0.0093084575	 0.076791
H	 0.1874241045	-0.4042515431	-2.7176510142	 0.127821
H	 1.3098385286	-1.7610755505	-2.5666267426	 0.126793
H	-0.3433175976	-1.905990288	-1.9159337129	 0.0965
H	 0.8238786599	-2.5444212654	 0.2510116782	 0.104648
H	 2.4537550755	-1.7981710649	 0.3510885174	 0.111858
H	 2.2604230795	-0.1489867994	 2.4992103014	 0.295055
