20
gdb 72242	2.39578	1.73691	1.49815	2.0854	78.2	-0.2133	0.0755	0.2889	1008.7664	0.17188	-403.112956	-403.104849	-403.103905	-403.144964	32.431	
C	-0.0668074673	 1.4875076598	 0.0144840612	-0.508839
C	-0.0339687148	-0.0062307748	-0.0001513538	 0.297938
C	-0.089350635	-0.9494788278	-1.1837990095	-0.165612
C	 1.1416257858	-1.8489284154	-1.1948644924	-0.255049
C	 1.8109779796	-1.4739712317	 0.1629197271	-0.169355
N	 0.7692679475	-0.8149945128	 0.9774305215	-0.152842
C	-0.4037033245	-1.7547115482	 1.1513806199	-0.247325
C	-1.0873298148	-1.077481169	-0.0245884327	 0.319584
O	-2.4483702789	-0.8982924777	-0.1888134802	-0.466358
H	 0.9022235566	 1.9116019629	-0.2728889764	 0.118953
H	-0.8186822502	 1.8561241391	-0.6899212211	 0.126888
H	-0.3173761373	 1.8648670032	 1.0109283948	 0.128951
H	-0.5255338379	-0.5850685282	-2.1079970149	 0.08564
H	 0.8854735723	-2.9129411694	-1.2455461074	 0.0971
H	 1.7906707015	-1.6341945663	-2.0497354956	 0.099135
H	 2.2224728635	-2.3322842272	 0.701302627	 0.10156
H	 2.6241551715	-0.7578466976	 0.0043670645	 0.104208
H	-0.1567400078	-2.8216889948	 1.0818153474	 0.088266
H	-0.9112725204	-1.5612524603	 2.1009578832	 0.111675
H	-2.7974210093	-1.6435953935	-0.6897762324	 0.285481
