17
gdb 87323	1.86697	1.68478	1.05643	5.2352	73.75	-0.2565	-0.0403	0.2162	1156.0436	0.133746	-417.99736	-417.988059	-417.987115	-418.031826	33.051	
C	-0.305783021	 1.4259201038	 0.2810952795	-0.329532
N	-0.0016155297	 0.001337574	 0.2005168977	-0.103005
C	 1.330247154	-0.4103278485	-0.166760149	-0.288239
C	 0.820302776	-0.6317209171	 1.236331678	 0.209061
C	 1.4588589215	 0.1286575362	 2.3957087038	-0.436528
C	 0.4734480903	 0.628759588	 3.3564810902	 0.28203
N	-0.3101943964	 1.0397884445	 4.0991232826	-0.31163
C	 0.3673108203	-2.0195351411	 1.5787077348	 0.145558
O	 0.662107115	-2.589846038	 2.5977645963	-0.258761
H	 0.5506164512	 2.0556992322	 0.5651149264	 0.107761
H	-0.653961918	 1.7528873656	-0.7026201625	 0.138476
H	-1.1093266226	 1.5832781296	 1.0041643101	 0.159989
H	 1.4103146206	-1.2403049235	-0.8647988602	 0.132736
H	 2.1061345158	 0.3489600198	-0.2688936519	 0.122358
H	 2.1270205363	-0.5631279523	 2.9186413304	 0.180345
H	 2.0605368143	 0.9692132459	 2.0421774692	 0.152228
H	-0.2618828176	-2.4835478693	 0.7900829344	 0.097152
