23
gdb 121366	3.23288	0.92432	0.80553	1.4823	82.46	-0.2451	0.0678	0.3129	1527.36	0.205727	-425.428582	-425.418433	-425.417489	-425.464827	36.557	
C	 0.0753849915	 1.3563378646	-0.0836217832	-0.22225
O	 0.0083842292	-0.0471718711	-0.0597635156	-0.238709
C	-1.3205283598	-0.5313196976	-0.0088548158	-0.078162
C	-1.2682418229	-2.0492453407	 0.058863347	 0.012022
C	-0.5956494545	-2.6171638861	 1.3327538556	-0.197956
C	-1.2669794925	-3.9972864856	 1.5909434114	-0.200947
C	-2.316624203	-4.166515378	 0.465898209	-0.235059
C	-2.6424956566	-2.7332750721	 0.0256957909	 0.103897
O	-3.4756745504	-2.0667122652	 0.9749559	-0.443252
H	 1.1315961495	 1.6359199088	-0.1187667708	 0.12212
H	-0.4317842	 1.7765872118	-0.9675818403	 0.099085
H	-0.3811302665	 1.8047022589	 0.8135695798	 0.101485
H	-1.846175897	-0.1301943644	 0.8706210434	 0.102891
H	-1.8800960828	-0.2014946274	-0.9020324347	 0.076662
H	-0.7165018211	-2.3996435748	-0.8226898058	 0.076459
H	 0.4864071335	-2.6921749934	 1.2084438018	 0.103664
H	-0.7707328255	-1.9425468422	 2.1757654916	 0.104954
H	-0.5450923893	-4.8182960277	 1.5903679445	 0.094669
H	-1.7536996585	-4.0056050348	 2.5695332086	 0.103106
H	-1.8928768045	-4.7126259449	-0.3852457269	 0.097633
H	-3.2101275012	-4.7154553075	 0.7838685983	 0.081213
H	-3.1004424859	-2.6940957121	-0.9740316521	 0.054971
H	-4.2942460915	-2.5661224286	 1.0524190435	 0.281505
