25
gdb 121906	3.53917	0.61695	0.54803	2.7229	86.25	-0.2596	0.0717	0.3313	2081.1987	0.225975	-426.628993	-426.617056	-426.616112	-426.666868	42.779	
C	-0.0356257547	 1.5628619896	-0.0476676811	-0.386671
C	 0.0187738295	 0.0297995332	 0.0193638886	 0.018835
C	 0.8664501968	-0.4237920909	 1.2172463475	-0.396211
C	-1.4074484103	-0.5639407159	 0.0362627588	 0.13564
O	-2.1744956254	-0.0727336353	-1.0647933007	-0.429402
C	-1.446502905	-2.0985633865	 0.0800089497	-0.223164
C	-2.8700748421	-2.6631832055	 0.1001691284	-0.160804
C	-2.8997290558	-4.1852880175	 0.100179063	-0.07511
O	-4.2579829333	-4.5985843708	 0.1232760873	-0.420656
H	 0.9675818252	 1.9838859596	-0.1693201177	 0.104071
H	-0.6608487779	 1.8990527607	-0.8768596883	 0.124292
H	-0.4586330874	 1.9749115291	 0.8766221828	 0.1101
H	 0.5055222123	-0.336227919	-0.8995358496	 0.057141
H	 0.3698148829	-0.1767471287	 2.1635134139	 0.114439
H	 1.0625457667	-1.4991465816	 1.211123674	 0.114783
H	 1.83482999	 0.0867275176	 1.213965802	 0.112461
H	-1.9311311397	-0.1742527896	 0.9206822209	 0.083651
H	-1.7549067305	-0.3894090911	-1.8731713042	 0.274157
H	-0.9003070279	-2.4894763347	-0.7931850894	 0.080218
H	-0.9011763553	-2.4513054382	 0.9626785421	 0.10044
H	-3.4015479624	-2.3050114809	 0.9905623965	 0.103192
H	-3.429831732	-2.2937069225	-0.7639126499	 0.116286
H	-2.3827478052	-4.5678225168	-0.7962446715	 0.078812
H	-2.3518472508	-4.5710677597	 0.9764863632	 0.079669
H	-4.2796643579	-5.5598037844	 0.1278877738	 0.283832
