17
gdb 30594	4.55604	1.01989	0.84188	2.0778	78.88	-0.239	-0.0482	0.1908	1346.2691	0.137015	-418.080529	-418.07204	-418.071096	-418.114733	30.469	
C	 0.0127281594	 1.5385575393	 0.0109021952	-0.382926
C	-0.0368084678	 0.0132416053	 0.0037894328	-0.279662
C	-1.4484636763	-0.5366137385	 0.0125989511	 0.306879
O	-2.4448261802	 0.1670688538	 0.0238572554	-0.356796
C	-1.6009920375	-2.000611237	 0.0069886953	 0.272826
N	-0.6590754737	-2.9315292497	-0.0048866061	-0.300672
C	-1.3251708282	-4.1221155413	-0.0050777418	-0.094223
C	-2.6902474082	-3.9134309006	 0.0067178779	-0.091835
N	-2.8469009143	-2.5601286146	 0.0143453261	-0.25779
H	 1.0486455694	 1.8882213199	 0.0040041189	 0.110477
H	-0.4977619302	 1.952112677	-0.8627979776	 0.128765
H	-0.4830970332	 1.9434385201	 0.8970255231	 0.128749
H	 0.4781089586	-0.4078021103	-0.8689982095	 0.137964
H	 0.4923138001	-0.4163819083	 0.8637981181	 0.137967
H	-0.8013087848	-5.0659775831	-0.0136404046	 0.116699
H	-3.5274465792	-4.5917559748	 0.0102079513	 0.140804
H	-3.6968117338	-2.0180481071	 0.0236813244	 0.282775
