17
gdb 63729	3.34177	1.17569	1.04114	2.9162	70.73	-0.2577	-0.0393	0.2184	1174.6054	0.132386	-458.933618	-458.924793	-458.923849	-458.966916	33.055	
C	-0.0473990148	 1.5758335236	 0.1110838827	-0.45659
C	 0.0144191642	 0.0628611057	-0.010466691	 0.384052
O	-1.2622547735	-0.5281030364	-0.1416239862	-0.476636
C	 1.0740843621	-0.5422332789	-1.0165807771	-0.36467
C	 1.720353534	-1.2649872463	 0.1628008575	 0.32132
O	 2.0877327328	-0.2768899014	 1.1475235804	-0.273241
C	 0.7385889294	-0.6919227534	 1.1278413242	-0.059927
C	 2.3900919357	-2.5755104636	 0.2331477634	 0.06371
O	 2.4987527465	-3.3233229868	-0.7073992385	-0.257477
H	 0.9428388044	 1.9820228574	 0.3311772605	 0.140908
H	-0.396433011	 2.0230053698	-0.8276560115	 0.113081
H	-0.7389526238	 1.866211899	 0.9077820211	 0.127789
H	-1.6910296317	-0.1497058335	-0.9168214887	 0.284079
H	 0.5968448957	-1.2365368927	-1.7095672414	 0.133208
H	 1.7249911267	 0.1528892779	-1.5509527155	 0.110725
H	 0.3064001041	-1.1123213359	 2.0297609656	 0.121074
H	 2.7792503394	-2.8210474746	 1.2449988845	 0.088593
