20
gdb 99083	4.0981	0.7347	0.72747	5.2831	78.07	-0.2391	-0.0261	0.213	1658.8382	0.16791	-440.331471	-440.320726	-440.319782	-440.369032	36.546	
C	 0.0828660914	 1.5535649555	 0.1912127166	-0.3766
C	 0.1911059972	 0.0400295036	 0.0214027008	-0.280903
C	 0.822340505	-0.3784162311	-1.29782745	 0.375811
O	 1.3083671106	 0.4084155792	-2.0732475691	-0.283627
C	 0.8030806918	-1.8895439765	-1.5928714892	-0.302207
N	 1.5579220191	-2.2767862089	-2.7536056817	-0.006791
C	 3.0100029488	-2.2160079194	-2.696617301	-0.35244
C	 0.9333434585	-2.6109755486	-3.921339113	 0.162494
O	 1.4852922246	-2.9107906933	-4.9567660993	-0.337269
H	 1.0663322741	 2.0232060393	 0.1162609671	 0.137778
H	-0.5461723124	 1.9902153583	-0.5888882416	 0.133373
H	-0.3499789787	 1.802557733	 1.1636996374	 0.114953
H	 0.7944057682	-0.4043382302	 0.8263405458	 0.128163
H	-0.7911348149	-0.4453818778	 0.1053087784	 0.121719
H	 1.1550292043	-2.4296140251	-0.7017200661	 0.125028
H	-0.2455477855	-2.1840326231	-1.7297764862	 0.139825
H	 3.3867879152	-2.8476371215	-1.8829950433	 0.116649
H	 3.39099592	-2.5843895748	-3.6489428977	 0.169729
H	 3.350061325	-1.1879786735	-2.5416843527	 0.147219
H	-0.1698754421	-2.5920505551	-3.8120058853	 0.067096
