23
gdb 122561	5.01449	0.6692	0.64435	1.135	86.76	-0.2495	0.0874	0.3369	1830.4292	0.205518	-388.248696	-388.239105	-388.23816	-388.284048	35.332	
C	-0.061803798	 1.3970562872	 0.0145028266	-0.227008
O	 0.0873313893	 0.0018778507	-0.0684018355	-0.229335
C	 0.631620005	-0.5641793375	 1.1046562505	-0.047723
C	 0.7515911004	-2.0704220736	 0.911837864	-0.222572
C	 1.3204117644	-2.7784556785	 2.1382136628	 0.023249
C	 0.4559007025	-2.8965526471	 3.4469022906	-0.251956
C	 0.6496012464	-4.4176027477	 3.4171355333	-0.036697
C	 0.0987723466	-4.9788525017	 2.1384522587	-0.273565
C	 1.4466552591	-4.3103569126	 2.1149025498	-0.069025
H	 0.9036670067	 1.904954928	 0.1721693873	 0.100364
H	-0.4884623308	 1.739465765	-0.9317306344	 0.124556
H	-0.737263654	 1.6903206379	 0.8346592931	 0.100433
H	 1.6223099357	-0.1238816569	 1.3178821244	 0.079252
H	-0.0114245143	-0.3355437506	 1.9729542135	 0.084981
H	-0.2386452537	-2.4677301877	 0.6614466206	 0.103525
H	 1.3942337548	-2.2616239971	 0.0434721659	 0.102853
H	 2.290289986	-2.335938473	 2.3920121689	 0.07031
H	 0.922522528	-2.4067762579	 4.3042563103	 0.100242
H	-0.5830456868	-2.5543596955	 3.3756119087	 0.092335
H	 0.8416721684	-5.0420409353	 4.281084635	 0.08245
H	 0.126891457	-6.060656473	 2.0537307872	 0.108603
H	-0.7668730273	-4.5231941226	 1.6633981261	 0.105194
H	 2.3360248446	-4.8518338805	 1.8135589529	 0.079534
