16
gdb 52759	2.19926	0.8917	0.65921	2.6414	79.6	-0.2529	-0.0475	0.2054	1668.6837	0.119756	-437.853182	-437.842568	-437.841624	-437.892609	34.057	
C	 0.0782082042	 1.4559701872	 0.0834105244	-0.501085
C	 0.0084069098	 0.0043457576	 0.0415034203	 0.124839
C	-0.0639958953	-1.1974238865	 0.0258393687	 0.038632
C	-0.0908086444	-2.6464640247	-0.07148552	-0.154375
O	-1.4473622842	-3.1035919839	-0.1568015188	-0.187977
C	-1.7197573048	-4.3113730353	 0.3948491723	 0.132685
N	-2.8591359696	-4.8230666788	 0.2368722828	-0.433212
C	 0.6394346667	-3.0783066951	-1.3586607811	 0.15647
O	 1.6993375253	-3.6399209582	-1.364178728	-0.229429
H	 0.7397897524	 1.8412821193	-0.6996338043	 0.159481
H	-0.9126393888	 1.8966200482	-0.0690833557	 0.163381
H	 0.457950589	 1.8070844346	 1.0485559244	 0.158612
H	 0.4252046301	-3.1116355272	 0.7783840164	 0.126849
H	-0.8795057717	-4.7331642895	 0.9627787431	 0.099596
H	-2.9158191015	-5.7111646613	 0.730889093	 0.235368
H	 0.0780229528	-2.8248591865	-2.2818504276	 0.110164
