21
gdb 103630	2.16334	1.31327	1.21124	1.7317	74.2	-0.2514	0.0482	0.2996	1197.0585	0.180264	-461.34782	-461.337758	-461.336813	-461.382414	37.704	
C	 0.6300908618	 1.4606906495	-0.1964680942	-0.418266
C	 0.0867483762	 0.0538040192	-0.0268153032	 0.117609
O	 0.7739039239	-0.9266257738	-0.8466513015	-0.358538
C	 1.250110989	-1.676799493	 0.3195544397	 0.356367
C	 0.786227107	-3.1221335862	 0.2678439028	-0.445657
C	 2.7785537861	-1.5665893193	 0.3516765566	-0.086918
O	 3.3140007099	-1.9520305269	-0.8974040286	-0.422608
C	 0.4573793146	-0.7260745211	 1.2648876315	-0.000368
O	 1.1100410089	-0.0684027603	 2.3180276439	-0.42213
H	 1.7043194467	 1.5166708813	 0.0101031026	 0.10859
H	 0.4778749851	 1.795516342	-1.2267866245	 0.133916
H	 0.110394229	 2.1549857511	 0.4716157395	 0.130989
H	-0.9871576845	 0.0448637551	-0.2519578659	 0.082701
H	 1.2951983471	-3.6522711768	-0.5416227469	 0.138484
H	 1.0186872974	-3.6273844571	 1.2118017656	 0.121095
H	-0.2931239061	-3.1760018924	 0.1003892627	 0.116547
H	 3.0854217297	-0.5384271933	 0.6054317309	 0.055629
H	 3.202368727	-2.2306692602	 1.1114779682	 0.115956
H	 2.7923785254	-1.4722537613	-1.5553357625	 0.291242
H	-0.4002625627	-1.2238425689	 1.7223308479	 0.097674
H	 1.8364900487	 0.4532594223	 1.9629397052	 0.287685
