16
gdb 79104	2.56182	2.14944	1.59482	4.7304	66.53	-0.2555	0.0064	0.2619	870.6872	0.125527	-437.870117	-437.863301	-437.862357	-437.901182	27.089	
C	 0.0866168013	 1.583359952	-0.0109871672	-0.422399
C	 0.0795598925	 0.0664151128	-0.0576264908	 0.031698
C	 0.6830235673	-0.6983901483	-1.2285964666	-0.140513
C	 2.1917559883	-0.8356031808	-1.0352280909	 0.07888
O	 2.8810705838	 0.0717887232	-0.1952553356	-0.227775
C	 2.2105980744	 0.0858936258	 1.0085552327	 0.452486
O	 2.5554787896	 0.7448861784	 1.9364152345	-0.340438
N	 1.0150571967	-0.7238764569	 0.9037171127	-0.239554
C	 1.2867028074	-1.670953561	-0.2229848736	-0.067937
H	 1.0540910551	 2.0066542822	-0.2899631486	 0.148341
H	-0.6636561131	 1.9618902671	-0.7130612243	 0.121914
H	-0.1749179684	 1.9388339184	 0.9901198608	 0.147736
H	-0.9228719545	-0.3098752213	 0.1609869924	 0.10896
H	 0.2207242868	-0.898869331	-2.1879265693	 0.103456
H	 2.8011653687	-1.2207680617	-1.8406886372	 0.130129
H	 1.2515228641	-2.7440557589	-0.0926908691	 0.115017
