21
gdb 107228	2.79887	1.42849	1.10301	1.6852	82.18	-0.1986	0.0719	0.2705	1166.7146	0.181472	-387.015723	-387.006688	-387.005743	-387.049153	35.121	
C	-0.0252649015	 1.5353487519	 0.0905759074	-0.497384
C	 0.0135017208	 0.0343743014	 0.0088339285	 0.282459
C	-0.8804317071	-0.8458230748	 0.8445461936	-0.352379
C	 0.6159917937	-0.9723437036	 0.9770569801	-0.102026
C	 1.2904204547	-1.7221112265	-0.2031433818	-0.093703
C	 0.3286534753	-2.1934013634	-1.2658184313	-0.361213
C	 0.6887543696	-0.7344646753	-1.1849867482	 0.305557
C	 1.3652922562	-0.0138297753	-2.317000822	-0.193715
O	 2.2412300624	-0.9230288183	-2.9711168682	-0.418668
H	 0.9525393589	 1.9858653512	-0.1136926769	 0.116865
H	-0.7427076382	 1.9627764791	-0.6216762839	 0.116131
H	-0.3293118055	 1.8557717594	 1.0923798413	 0.116405
H	-1.3512457659	-0.3212156634	 1.6717945101	 0.104911
H	-1.5035746203	-1.6312761189	 0.4327440866	 0.108828
H	 1.124566782	-0.7762240962	 1.9131678454	 0.08242
H	 2.3131440864	-2.0740418689	-0.1661203982	 0.09264
H	 0.818042619	-2.6980450528	-2.0919612952	 0.129481
H	-0.6592274604	-2.5780797483	-1.0392883709	 0.102377
H	 0.610423918	 0.3788803984	-3.0202700817	 0.086458
H	 1.9255804038	 0.8524914238	-1.92990264	 0.085489
H	 2.630317598	-0.4705627995	-3.7245440046	 0.289066
