23
gdb 58429	2.69823	1.27144	1.20929	1.9174	85.	-0.234	0.0805	0.3145	1204.4592	0.204217	-388.222736	-388.213271	-388.212327	-388.257095	36.925	
C	 0.0984939415	 1.505987757	 0.0432689465	-0.395197
C	 0.060646979	-0.0283813129	 0.1488902801	-0.051212
C	 0.8005623906	-0.5101227903	 1.4088840691	-0.395063
C	-1.3777060541	-0.5833201685	 0.0688375827	 0.374584
C	-2.2666763408	-0.0977891734	 1.2156830152	-0.483405
C	-2.0980898547	-0.6699251126	-1.3286172091	-0.002114
C	-1.1461961114	-1.7958599141	-1.7988187282	-0.243115
C	-1.6081654707	-2.0839000219	-0.3505700342	-0.00214
O	-2.9815109805	-1.7282782291	-0.7822768462	-0.311163
H	 1.1333236964	 1.8568808052	-0.0279319488	 0.111469
H	-0.4347709206	 1.8617641986	-0.8447695989	 0.111706
H	-0.3492181131	 1.9875605555	 0.9181026361	 0.119839
H	 0.6268590246	-0.4096261412	-0.7048828592	 0.072622
H	 0.3697931535	-0.0890852516	 2.3226147356	 0.119782
H	 0.7749860429	-1.6013951264	 1.498303378	 0.111796
H	 1.8514268546	-0.204373762	 1.3733660455	 0.111556
H	-2.3557199992	 0.9928897688	 1.2129854003	 0.11298
H	-3.2650810795	-0.5227880687	 1.1236707546	 0.142043
H	-1.8555306147	-0.3898162563	 2.1867975746	 0.112656
H	-2.575405572	 0.120090866	-1.9114885977	 0.086735
H	-1.5917885428	-2.4615350054	-2.5379949891	 0.107841
H	-0.0997974751	-1.5819778575	-2.0126752498	 0.101034
H	-1.4964210138	-2.9933247293	 0.2428314626	 0.086766
