19
gdb 83924	2.49905	1.43606	1.20229	3.0803	76.86	-0.2477	-0.0221	0.2255	1111.9839	0.15944	-423.033562	-423.025117	-423.024173	-423.066522	31.693	
C	-0.1945889718	 1.5315128438	 0.0291624378	-0.431054
C	 0.038259882	 0.0345113341	 0.0448392707	-0.067854
C	 1.3422359093	-0.6366594466	-0.2385180279	-0.128632
C	 2.6317771185	 0.1562401565	-0.1042210857	-0.093902
O	 2.5552083158	 0.8582308879	 1.1308490962	-0.256741
C	 1.7299428469	 0.1258418505	 2.037004434	-0.156588
C	 0.7673924984	-0.681870895	 1.1847807245	 0.210887
C	 0.1896958232	-1.9244955583	 1.7269569357	 0.077715
O	 0.3694353741	-2.3341784071	 2.8494105618	-0.27072
H	 0.6729200109	 2.0826225773	 0.3939708629	 0.152973
H	-0.4100516093	 1.8661232977	-0.9914002974	 0.122326
H	-1.0574623917	 1.7925425685	 0.6503697599	 0.124328
H	-0.8160839507	-0.5374344879	-0.3154155043	 0.094684
H	 1.3580052881	-1.5318386971	-0.8510590864	 0.101442
H	 3.4894979089	-0.534524227	-0.1210867282	 0.103154
H	 2.7774287453	 0.9013109521	-0.8939879209	 0.115145
H	 2.3169245532	-0.5603368631	 2.662738171	 0.119107
H	 1.2431244501	 0.8546116831	 2.6924630815	 0.117103
H	-0.4526482612	-2.4829615892	 1.0058928648	 0.066629
