22
gdb 114684	3.62099	1.03501	0.96012	1.8067	81.73	-0.2322	0.0721	0.3043	1328.0622	0.195015	-404.338618	-404.329423	-404.328479	-404.372315	35.338	
C	 0.3510035712	 1.3567762595	-0.3449520463	-0.465167
C	-0.1140993377	-0.0092438445	 0.0940273252	 0.347931
C	-1.6136401552	-0.2778536791	 0.181779239	-0.317256
C	-1.8055479624	-1.4906680378	 1.136784345	 0.012614
C	-2.2449117972	-2.7610144494	 0.4088803704	-0.091012
O	-2.4647017723	-3.7678065405	 1.3839753816	-0.417096
C	-0.4577218565	-1.6480199231	 1.9012287299	-0.247763
C	 0.567652134	-0.8473492159	 1.120874945	-0.054172
N	 0.7385053542	-1.1405680878	-0.3133342355	-0.374355
H	 1.4424648086	 1.4078994396	-0.3401856085	 0.12754
H	 0.0109532419	 1.5785366608	-1.3634828957	 0.114944
H	-0.0404212287	 2.1387625439	 0.315622888	 0.109943
H	-2.1133403003	 0.6102346433	 0.5851306179	 0.101404
H	-2.0545749044	-0.4547553964	-0.8084750682	 0.094715
H	-2.6047350511	-1.2770334909	 1.8527476845	 0.088036
H	-3.1642114076	-2.5520135185	-0.1619658637	 0.088528
H	-1.4817418056	-3.0828537145	-0.3203830272	 0.079911
H	-2.6993551868	-4.583269872	 0.9317212836	 0.288058
H	-0.5400347591	-1.2385145649	 2.9142857586	 0.100422
H	-0.1847107762	-2.7025447984	 2.0145223651	 0.114342
H	 1.4740681742	-0.5228947966	 1.6260818688	 0.080912
H	 0.188025307	-1.948962927	-0.5909167376	 0.217523
