17
gdb 1580	7.76358	1.18888	1.08352	3.1223	57.66	-0.2586	0.0725	0.3311	1076.9996	0.146641	-383.971058	-383.962399	-383.961455	-384.004288	29.996	
C	 0.1174344412	 1.2946290044	-0.128967445	-0.229804
O	 0.0755807035	-0.1070273079	 0.0119495577	-0.248983
C	 0.6167524744	-0.5674196233	 1.2362603824	-0.081891
C	 0.6161852264	-2.0882337424	 1.1665477449	 0.093961
O	 1.3522448375	-2.5254805221	 0.0298836604	-0.454888
C	 1.2744667896	-2.7508918407	 2.371717517	-0.048467
O	 1.2848179889	-4.1559776964	 2.2330386369	-0.428054
H	 1.1488042717	 1.6769996062	-0.0843935528	 0.11046
H	-0.3104457048	 1.5383014834	-1.1042712555	 0.131296
H	-0.4709843886	 1.7976566272	 0.6533464909	 0.110544
H	 1.6464708281	-0.1945214596	 1.3625922196	 0.093719
H	 0.0152483814	-0.2122297608	 2.0889957006	 0.091977
H	-0.426686794	-2.4363978862	 1.0966250169	 0.080589
H	 1.0287602815	-2.0084902383	-0.7172026905	 0.294422
H	 2.2954577887	-2.3499627526	 2.4856615178	 0.086776
H	 0.7148988345	-2.5190334834	 3.2841485079	 0.104177
H	 1.61082403	-4.3272876575	 1.3410626909	 0.294165
