21
gdb 58150	3.30414	0.74183	0.62781	1.2353	101.94	-0.2392	-0.0081	0.2311	1804.906	0.178883	-349.916166	-349.905204	-349.90426	-349.952355	40.069	
C	-0.050192728	 1.5613027608	-0.0209902998	-0.402429
C	 0.0180321849	 0.0280192019	-0.0352600819	 0.050981
C	 0.7248214013	-0.4614696954	-1.3060441977	-0.396404
C	 0.7105607579	-0.5313776739	 1.2450804256	-0.18755
C	 0.0549404283	-0.0502177349	 2.5589110646	-0.400724
C	 0.7517102886	-1.9911514505	 1.2292971983	 0.411978
C	 0.7687471683	-3.2022919083	 1.2414187331	-0.255707
C	 0.7863761044	-4.5631504726	 1.2538983541	 0.293221
C	 0.8030296594	-5.7708178283	 1.2648165132	-0.570348
H	 0.9515019149	 1.998769669	 0.0710181105	 0.112981
H	-0.4835731295	 1.928096875	-0.9567407676	 0.114644
H	-0.6634527324	 1.9470520926	 0.7971167928	 0.118053
H	-1.00796343	-0.3642756472	-0.0391792042	 0.08385
H	 1.7537870661	-0.083920153	-1.3501711346	 0.111011
H	 0.765445218	-1.5526107763	-1.3494219104	 0.132933
H	 0.2033460795	-0.10355254	-2.1992941134	 0.111326
H	 1.7504287811	-0.1692790084	 1.2341436287	 0.106469
H	 0.5325388702	-0.5248049041	 3.4195776483	 0.12915
H	 0.1506362191	 1.0320499417	 2.6714531069	 0.12166
H	-1.0080375538	-0.3102700645	 2.5774352127	 0.126928
H	 0.8164572117	-6.8321452834	 1.275215101	 0.187975
