18
gdb 73077	2.45973	1.87114	1.39149	3.766	78.58	-0.217	-0.0342	0.1828	983.0054	0.148852	-401.969304	-401.961535	-401.96059	-402.001357	30.173	
C	-0.1656731808	 1.4662735752	 0.1018089431	-0.445659
C	 0.0059067375	-0.0354093606	-0.0524132207	 0.204326
C	-1.040521619	-0.9235444162	 0.6971176319	-0.284107
C	 0.096552321	-1.3669505715	 1.6477653255	-0.176278
N	 1.093472402	-0.6441108838	 0.7830836082	-0.105305
C	 1.8764004072	-1.3897762832	-0.0830222365	-0.032582
C	 1.5845000894	-1.2190302938	-1.3951820289	-0.257502
C	 0.3679416035	-0.4109134713	-1.5019719003	 0.349526
O	-0.246400801	-0.056896813	-2.4876209518	-0.367488
H	 0.7546768733	 1.991460292	-0.1700575488	 0.130616
H	-0.9593748766	 1.7989002802	-0.5739702992	 0.145071
H	-0.4289927394	 1.7383929813	 1.1280730957	 0.112458
H	-1.8588694862	-0.367809445	 1.1573343478	 0.1184
H	-1.452840288	-1.7273937568	 0.0857538394	 0.126819
H	 0.054454825	-0.9348089072	 2.6502453377	 0.121573
H	 0.2764055255	-2.4417632109	 1.7257099625	 0.118164
H	 2.6343379797	-2.0415779259	 0.3405647044	 0.126304
H	 2.1222285867	-1.6315762395	-2.2358895001	 0.115664
