17
gdb 131862	5.57792	0.76773	0.69043	4.2954	72.13	-0.2147	0.0069	0.2217	1566.2009	0.136649	-455.124222	-455.115589	-455.114645	-455.158713	30.984	
O	 0.0499355405	 1.3604906455	-0.3537323574	-0.419255
C	-0.0211245614	 0.0081172953	 0.0797417997	-0.089932
C	-1.4939856586	-0.3629390795	 0.1466274938	-0.130241
N	-2.0836400458	-0.2205356471	-1.1745005118	-0.390307
C	-3.4058297827	-0.536562927	-1.3837839363	 0.464567
N	-4.0935167551	 0.0520887668	-2.3448097468	-0.250287
O	-5.357166475	-0.556338467	-2.3235477278	-0.167509
C	-5.380957627	-1.4654209868	-1.3461824978	 0.089493
C	-4.1918192932	-1.5192036649	-0.6991396405	-0.337219
H	 0.9618230439	 1.564576745	-0.5786809155	 0.295487
H	 0.490302806	-0.662467393	-0.6256640206	 0.103567
H	 0.4329566324	-0.1209311533	 1.0734995951	 0.09514
H	-1.5783229575	-1.4035080464	 0.4783364623	 0.111489
H	-1.9894935669	 0.2698098335	 0.9004610558	 0.1103
H	-1.8019970189	 0.6386202248	-1.629370699	 0.255979
H	-6.3094563581	-2.0026266363	-1.2237231286	 0.144988
H	-3.9125605826	-2.1539373596	 0.1240617054	 0.11374
