21
gdb 113859	2.89928	1.03916	0.84017	1.8856	79.2	-0.2409	0.0705	0.3114	1410.9132	0.181705	-424.171091	-424.161694	-424.16075	-424.206417	33.73	
C	 0.1596541462	 1.0392417432	-0.3019216904	-0.241592
O	-0.3905070096	-0.0230583992	 0.4526144971	-0.232629
C	 0.5239960804	-0.5926081197	 1.3349543335	 0.121611
C	 0.1931193972	-1.9564620397	 1.8432775109	-0.342742
C	 1.3686072051	-1.7736481974	 0.8940088679	-0.060728
C	 1.2805781769	-2.3129232214	-0.5056495357	-0.033173
C	 2.4241109083	-1.9824830171	-1.4962519451	-0.090923
O	 2.6585387265	-3.3778473175	-1.7662907479	-0.27334
C	 1.7161624927	-3.7793354666	-0.7511090739	-0.08613
H	 0.999244676	 0.7061492986	-0.9286572193	 0.113631
H	-0.6360131755	 1.4232179035	-0.9443085639	 0.129795
H	 0.5154810864	 1.8521861259	 0.3487972402	 0.109834
H	 0.9794863251	 0.1210399281	 2.0236316458	 0.083828
H	 0.3826747697	-2.1886471793	 2.884980693	 0.115044
H	-0.7013003067	-2.4120129468	 1.4313154009	 0.12585
H	 2.3576367738	-1.8406831325	 1.342908021	 0.084423
H	 0.2956648085	-2.0960242761	-0.9235626581	 0.091696
H	 2.1498422549	-1.4283245673	-2.4021452425	 0.098731
H	 3.2987656732	-1.4996254405	-1.0368278758	 0.091861
H	 2.2133542219	-4.2549767574	 0.1057830549	 0.094452
H	 0.9542670488	-4.4629183908	-1.1439520229	 0.100502
