21
gdb 117127	2.46422	0.92808	0.74029	1.6194	80.89	-0.2504	-0.0502	0.2002	1616.2149	0.178244	-424.266647	-424.255565	-424.254621	-424.304188	38.	
C	 0.0681690709	 1.4917972661	 0.4923273228	-0.387005
C	 0.0056436301	 0.1045384153	-0.1509698167	-0.166194
C	-1.3730122564	-0.5420384866	-0.0168047296	-0.288739
C	-1.4948118002	-1.8916313987	-0.6951191639	 0.357733
O	-0.6575918292	-2.3452144425	-1.4380306256	-0.29772
C	-2.7800085538	-2.6926929477	-0.367872347	-0.157006
C	-3.0967785493	-3.7294010428	-1.4444800421	-0.414107
C	-2.5608174176	-3.3474695166	 0.9957803863	 0.149486
O	-2.6357884548	-2.7717702671	 2.0502536463	-0.241554
H	 1.0656594344	 1.9293507033	 0.3886330019	 0.11615
H	-0.6463621886	 2.1799587011	 0.0264615858	 0.112891
H	-0.1665977044	 1.4473269372	 1.5615954528	 0.118234
H	 0.269501315	 0.1645535292	-1.2118568813	 0.114742
H	 0.7539905048	-0.5539996879	 0.3044128822	 0.109898
H	-1.6719207936	-0.6635460921	 1.032950776	 0.147525
H	-2.1500929993	 0.1031064388	-0.4560216495	 0.122075
H	-3.5936499124	-1.9717948933	-0.2314001881	 0.112371
H	-3.9599538511	-4.3390246199	-1.1606855183	 0.118539
H	-3.3193890614	-3.2435529511	-2.3975324357	 0.131407
H	-2.2372692348	-4.3848334291	-1.6044062675	 0.146517
H	-2.2956497882	-4.4272307156	 0.9450539311	 0.094757
