16
gdb 44153	3.27631	1.35861	1.20478	5.0588	68.49	-0.2475	-0.0089	0.2386	1049.1939	0.12513	-437.841884	-437.834537	-437.833593	-437.874208	27.948	
O	-0.4519315781	 0.2433872561	 0.0806702563	-0.310383
C	-0.1395449261	 1.3849001008	 0.1134707497	 0.484647
O	-0.9881192142	 2.4887135302	 0.2896586494	-0.269282
C	 0.1237903774	 3.3888220665	 0.0250244072	 0.047484
C	 1.1682899067	 3.2716944031	 1.0740872328	-0.040397
C	 0.9726615055	 3.0079926703	 2.5381396326	-0.030497
C	 0.2713955853	 4.0138661091	 3.3820339781	-0.232701
N	-0.321102461	 2.6908831979	 3.1530178869	-0.317067
C	 1.0916849782	 2.2296313483	-0.0661721514	-0.310628
H	-0.069016386	 4.2105159522	-0.6504896055	 0.135794
H	 2.0095267881	 3.93898136	 0.8813485309	 0.119788
H	 1.8035777196	 2.4632060629	 2.9834256834	 0.103741
H	 0.611565456	 4.2041685322	 4.3961101029	 0.120652
H	-0.1649459514	 4.8745154444	 2.8799588974	 0.11135
H	-1.0637821201	 2.7477324389	 2.462803193	 0.254132
H	 1.9171027999	 2.0256581469	-0.7319746036	 0.133366
