21
gdb 110884	2.30375	1.59669	1.30164	2.7218	77.77	-0.2385	0.0684	0.307	1095.973	0.18388	-424.212891	-424.204358	-424.203414	-424.245946	33.176	
C	 0.0839643511	 0.7856878035	 0.6411327008	-0.246324
O	-0.4616065172	-0.3128291615	-0.0743125597	-0.251042
C	 0.3387267986	-0.6942924784	-1.1605916251	 0.120545
C	 1.4736484529	-1.6822507734	-1.0329592976	-0.104636
C	 1.5550649214	-2.573960667	 0.2024287462	-0.246703
C	 0.165125995	-3.2521420112	 0.3797954598	 0.115953
O	-0.6202552791	-2.6664288359	 1.398937787	-0.445496
C	-0.4984715708	-3.1734859955	-1.0229833366	-0.245054
C	 0.1911875163	-2.0477698189	-1.7834915983	-0.112351
H	 1.0778563914	 0.5518499358	 1.0436483292	 0.123707
H	 0.1648197319	 1.6708240262	-0.0053568024	 0.117146
H	-0.5994201937	 1.0065030479	 1.4637738934	 0.135076
H	 0.5050242073	 0.1302565445	-1.8553626939	 0.088418
H	 2.3944189556	-1.4591124054	-1.5625101969	 0.0811
H	 2.3278036026	-3.3315482527	 0.0285679757	 0.099393
H	 1.8244153214	-2.0445086557	 1.1216656288	 0.104838
H	 0.2881933165	-4.2937944335	 0.6900157182	 0.080924
H	-0.8102471796	-1.7644865273	 1.1014129756	 0.288315
H	-0.3382695965	-4.1068946539	-1.5745717541	 0.099402
H	-1.5793293125	-3.0412304225	-0.9161920996	 0.111837
H	 0.1623429975	-2.0826798953	-2.8676932103	 0.084952
