13
gdb 20638	7.45485	1.2817	1.10116	3.2044	69.94	-0.2547	-0.0325	0.2223	1021.7467	0.094477	-361.433783	-361.426471	-361.425527	-361.46548	26.439	
C	 0.0499769684	 1.5026986158	-0.0100126872	-0.498768
C	-0.0849927819	 0.0232270907	 0.0554321587	 0.4354
C	-1.1120078207	-0.8380139871	-0.1640298783	-0.425615
C	-0.5408448745	-2.1238328567	 0.0793050719	 0.240077
N	 0.7334431219	-2.0304025442	 0.4186765898	-0.20402
O	 1.0156950039	-0.6744852408	 0.40204496	-0.198923
C	-1.1835034442	-3.3849913553	-0.0083630365	 0.256304
C	-1.7625282616	-4.4352998762	-0.0932724531	-0.387927
H	 0.8121198146	 1.7934622281	-0.7401290554	 0.155067
H	-0.9003235496	 1.9543615355	-0.299678665	 0.144915
H	 0.3496996349	 1.9109685352	 0.9605170612	 0.155055
H	-2.1237542517	-0.6122547719	-0.4540012281	 0.128132
H	-2.2613646396	-5.370349813	-0.1643445482	 0.200302
