22
gdb 22559	2.11253	1.216	1.04639	0.5641	85.46	-0.2354	0.0152	0.2507	1320.3424	0.191401	-404.306852	-404.296265	-404.295321	-404.342789	38.911	
C	-1.834625077	 0.0686591208	-0.5936728516	-0.376545
C	-0.3663014835	 0.079948721	-0.1529829296	-0.263748
C	 0.5704491717	-0.5781357766	-1.1614935047	 0.308515
C	 1.8362858568	-1.2311948215	-0.6323803309	-0.31281
C	 0.6927102081	-2.0787430427	-1.132417397	-0.30113
C	 0.6912225992	 0.1310174924	-2.4764781799	 0.282644
C	 1.1007270828	 1.5821824204	-2.4806735175	-0.484126
N	 0.4551872865	-0.5466582895	-3.5356164728	-0.176964
O	 0.6194430397	 0.219214015	-4.7038341269	-0.400027
H	-1.9715904106	 0.604120352	-1.5386932202	 0.122871
H	-2.1904663525	-0.9554779126	-0.7446665377	 0.121407
H	-2.4741453346	 0.5433654562	 0.156936691	 0.109219
H	-0.0457647882	 1.1123985828	 0.0354936422	 0.09632
H	-0.2658628775	-0.4460637943	 0.803837967	 0.095118
H	 2.7286709774	-1.177710813	-1.2467732022	 0.114992
H	 2.0222171206	-1.1830211506	 0.4359265178	 0.107216
H	 0.0959476127	-2.6105601271	-0.3986145298	 0.106049
H	 0.812186721	-2.5924136662	-2.0771668019	 0.130303
H	 1.7267724245	 1.7958891	-3.3489644324	 0.149525
H	 0.2235142236	 2.2362942949	-2.5492983435	 0.141422
H	 1.6418637189	 1.8361062211	-1.5665759323	 0.125972
H	 0.4477686203	-0.4313735526	-5.3923392169	 0.303778
