19
gdb 47667	2.73843	1.43295	1.01184	3.2658	77.3	-0.2292	0.0049	0.2341	1169.6088	0.163035	-419.241409	-419.233219	-419.232275	-419.274228	31.596	
O	 0.0077449253	-0.2531805362	 0.266351968	-0.394922
C	 0.0230724069	 0.9279687538	-0.0351147285	 0.372784
N	-1.0264273942	 1.5240930316	-0.7412495094	-0.328559
C	-1.6927949522	 2.7696997519	-0.3228702144	-0.156298
C	-1.1974357738	 4.0736868744	-0.9973649166	-0.247087
C	-0.0505802041	 4.7570874545	-0.2897815437	-0.047655
C	 1.153317007	 4.2226730724	-0.0946790444	-0.038326
C	 1.5350537272	 2.8507259379	-0.5929130745	-0.225543
N	 1.0846648787	 1.7522020178	 0.2731062259	-0.302211
H	-1.6917082128	 0.7923768411	-0.9477982173	 0.243861
H	-2.7461768517	 2.6388888514	-0.5865083621	 0.110376
H	-1.6478584532	 2.887318645	 0.7665577896	 0.120299
H	-0.9413337269	 3.8399084405	-2.0381250749	 0.121104
H	-2.0445931992	 4.7658453791	-1.0380036979	 0.102363
H	-0.2551708855	 5.7441871571	 0.118638191	 0.091273
H	 1.9029590342	 4.7763294785	 0.4648331689	 0.089906
H	 1.1177068699	 2.689265792	-1.5929001218	 0.131541
H	 2.6226239671	 2.7745015105	-0.6836701548	 0.110646
H	 1.8082595075	 1.2340692667	 0.7478799471	 0.246448
