16
gdb 48730	3.15129	1.62821	1.34568	3.3356	69.63	-0.2513	-0.0337	0.2176	952.1747	0.125369	-437.822811	-437.816058	-437.815114	-437.85403	26.924	
O	-0.1005858719	 0.0349852958	 0.0734177042	-0.261267
C	 0.0461744305	 1.2166252065	-0.117986506	 0.08443
C	 1.3317137381	 1.9264790744	-0.0231095642	 0.247277
N	 1.364360868	 3.381498718	 0.3012659408	-0.362373
C	 1.7455426329	 2.9524030459	-1.0393702947	-0.095702
C	 3.2254312446	 2.5132486597	-1.1912111846	 0.064505
C	 3.7273354435	 2.3167044417	 0.2567202148	-0.237703
C	 2.679788312	 1.1887184078	 0.1322240418	 0.004336
O	 3.0726609988	 1.0564869375	-1.2818870677	-0.299539
H	-0.8150773297	 1.8786166283	-0.3803170115	 0.060433
H	 0.4107781193	 3.7481220043	 0.285619936	 0.238951
H	 1.1389068382	 3.2060956103	-1.9015890029	 0.115322
H	 3.8126142072	 2.9517664725	-1.9966384238	 0.090023
H	 4.7352854634	 1.904591798	 0.2569544304	 0.11725
H	 3.5942985932	 3.1054299052	 0.993690932	 0.13084
H	 2.6869914618	 0.2545588042	 0.6880401357	 0.103217
