19
gdb 37013	3.49661	1.12512	1.094	2.0942	75.65	-0.2518	0.0648	0.3166	1201.6106	0.158536	-422.971803	-422.96365	-422.962706	-423.004924	30.891	
C	 0.1818691018	 1.3315682312	 0.4622534822	-0.209409
C	 1.4941067571	 1.5591967839	-0.3503292067	-0.315238
C	 1.375187525	 0.1077882515	-0.8172620223	 0.373096
C	-0.0765348367	 0.0212513068	-0.3442085844	-0.315234
O	 1.8734366794	-0.4060016964	-2.0528408347	-0.307112
C	 2.3945991154	-0.933476021	-0.846429508	 0.237867
C	 3.8661576585	-0.9391772028	-0.448880105	-0.15399
O	 3.734986043	-2.299055442	 0.025671996	-0.27522
C	 2.3707541981	-2.4032654602	-0.4430489364	-0.153983
H	 0.3773251102	 1.1361582156	 1.5187790515	 0.111336
H	-0.5794610988	 2.1087806882	 0.384380255	 0.108827
H	 1.3559632033	 2.2566888747	-1.1815168735	 0.119358
H	 2.3946455862	 1.8408684897	 0.2013809233	 0.107235
H	-0.3748609732	-0.8710000487	 0.2121927388	 0.107235
H	-0.7742818635	 0.1707831613	-1.173207228	 0.119357
H	 4.5608125728	-0.8545549625	-1.2944498021	 0.115001
H	 4.1720959793	-0.2486746754	 0.3470043746	 0.107937
H	 1.6771132863	-2.6914062152	 0.356739581	 0.107937
H	 2.2680911058	-3.0992719286	-1.2855025014	 0.115001
