21
gdb 116031	2.42636	1.39022	1.00279	2.2665	80.06	-0.2495	0.0176	0.2671	1238.0142	0.18316	-424.230438	-424.221464	-424.220519	-424.263895	34.452	
C	-0.0688695889	 1.6178821541	-0.1234157024	-0.395741
C	-0.0073342348	 0.0820066461	-0.0199342087	-0.039837
C	 0.7169517827	-0.5050481031	-1.2098898519	-0.070155
C	 1.9426050236	-1.0147119156	-1.1175106208	-0.07061
C	 2.7045246058	-1.0258631404	 0.1777032043	-0.123113
O	 2.0913356507	-0.234915857	 1.1789210156	-0.278745
C	 0.6769499297	-0.4371509724	 1.2576211992	 0.085996
C	 0.2498387985	 0.214740467	 2.5674052801	-0.081158
O	 0.9008373188	-0.3908470889	 3.6671595704	-0.42691
H	 0.9292978857	 2.0460803328	 0.0050106805	 0.131043
H	-0.4402745561	 1.9206320616	-1.1076415227	 0.111367
H	-0.7339595187	 2.051767978	 0.6292280483	 0.117214
H	-1.0369669494	-0.3033970927	-0.020034293	 0.079213
H	 0.1998586678	-0.4842938411	-2.1662682232	 0.090113
H	 2.441851142	-1.450096618	-1.9791154269	 0.092677
H	 2.8323979832	-2.0656490408	 0.531746941	 0.100948
H	 3.7113382945	-0.6144694394	 0.0363202478	 0.117804
H	 0.4802383406	-1.5184959908	 1.3432294428	 0.074435
H	 0.4580810097	 1.2941944867	 2.5277317708	 0.094149
H	-0.827529666	 0.0832032984	 2.7146277997	 0.10456
H	 1.8368829606	-0.4028627245	 3.4330281591	 0.286751
