16
gdb 133650	2.50576	1.15787	1.06669	2.5013	58.21	-0.273	-0.0514	0.2216	1192.2841	0.118114	-569.41173	-569.402054	-569.401109	-569.447449	33.606	
C	-0.0502313674	 1.3795038637	 0.3112466508	-0.395154
C	-0.0467835611	-0.1280503514	-0.0312437709	-0.086158
C	-1.469704437	-0.6909789827	-0.124546317	-0.394672
C	 0.6878206894	-0.3190673501	-1.3489245437	 0.246998
O	 0.1853530035	-0.2345988325	-2.4372502978	-0.287347
C	 2.2049049034	-0.6412943972	-1.2354091894	 0.227071
F	 2.7941845744	-0.685990943	-2.4188576067	-0.044212
F	 2.8293479481	 0.2780301633	-0.479296192	-0.078596
F	 2.3586187467	-1.8321434928	-0.6325151855	-0.078175
H	 0.964024823	 1.7781212091	 0.3863042929	 0.13513
H	-0.588563393	 1.9427300411	-0.4571617731	 0.137249
H	-0.5536521718	 1.5374868197	 1.2691728578	 0.127286
H	 0.5125944561	-0.6563004895	 0.7486596371	 0.104419
H	-2.0156563209	-0.2140165456	-0.942282641	 0.142124
H	-1.4612662431	-1.7691150238	-0.3089686696	 0.125555
H	-2.0086479802	-0.5079885783	 0.8093104882	 0.118482
