14
gdb 32312	2.8008	1.61753	1.03202	3.4688	69.03	-0.2351	-0.0611	0.174	1080.7829	0.101239	-473.864863	-473.857221	-473.856277	-473.897329	27.734	
C	 0.04254178	 1.3727034291	 0.0639526633	-0.235409
O	 0.0984433369	-0.0547043488	-0.0098997343	-0.22368
C	 0.6286329531	-0.5714757245	-1.1141363589	 0.28921
N	 1.0748919222	 0.154528079	-2.0793615537	-0.34659
C	 1.6023176159	-0.5038157801	-3.1739359702	-0.087981
C	 1.6525933753	-1.8421672065	-3.2398429287	 0.038214
O	 1.1847596929	-2.6200294815	-2.2272061027	-0.203496
C	 0.6403927622	-2.0632931551	-1.0923390605	 0.384219
O	 0.2331833058	-2.7651831158	-0.2131071901	-0.315692
H	 1.0466260754	 1.8019190115	 0.0056605636	 0.14261
H	-0.5590095625	 1.7783471742	-0.7542154334	 0.142614
H	-0.4164309011	 1.5947343741	 1.0268866446	 0.142315
H	 1.9768185851	 0.1086152556	-3.9841463822	 0.126724
H	 2.0486026088	-2.4258378312	-4.0594369569	 0.14694
