20
gdb 40851	4.78546	1.29207	1.19412	1.553	83.38	-0.227	0.0884	0.3153	1098.1836	0.172216	-365.903094	-365.895952	-365.895008	-365.934603	29.307	
C	 0.0657579156	 1.4480565677	-0.5188677572	-0.217138
C	 1.3818541689	 1.6684653684	 0.2800139099	-0.307568
C	 1.3034106451	 0.1953821765	 0.7315212198	 0.418718
C	-0.1737809283	 0.1414097888	 0.28995651	-0.307568
C	 2.3418015031	-0.8647018177	 0.3842786793	-0.158277
C	 3.1893864423	-0.4070678345	 1.6099257561	 0.000273
C	 3.2820184529	-1.8106154508	 2.2145910981	-0.262825
C	 1.8765243863	-1.69579759	 1.6183113043	 0.000274
N	 1.7307468891	-0.230861264	 2.1275514819	-0.215948
H	-0.6970415148	 2.2256193009	-0.4440979572	 0.100212
H	 0.2542848985	 1.2491112495	-1.5770885909	 0.102048
H	 2.2693645257	 1.9839300496	-0.2752319383	 0.095007
H	 1.2409369209	 2.3432020197	 1.1302470914	 0.111973
H	-0.8402437043	 0.3002567276	 1.1435481794	 0.111974
H	-0.5092347746	-0.7436223996	-0.2574731607	 0.095007
H	 2.6956306857	-1.2314715779	-0.5863247588	 0.061465
H	 3.8949259003	 0.4233873501	 1.6592211638	 0.083197
H	 3.9688674139	-2.5134409586	 1.7359521189	 0.097455
H	 3.339970664	-1.8625579597	 3.3050709263	 0.108525
H	 1.0334769798	-2.385464066	 1.677498164	 0.083197
