20
gdb 73853	2.68848	1.30823	0.89936	3.9742	83.47	-0.2351	0.0198	0.2548	1302.4601	0.170939	-403.211245	-403.201663	-403.200719	-403.246538	34.633	
C	 0.1663252424	 1.5581762245	-0.1754675597	-0.481947
C	-0.0116832843	 0.0738219305	 0.0136888789	 0.205295
C	-1.1778777985	-0.5826090755	 0.0362580644	 0.189697
C	-2.5368062698	 0.0479500818	-0.1243199007	-0.478421
C	-1.2402631074	-2.0773173881	 0.2328117882	-0.404338
C	 0.0699939586	-2.8246809484	 0.4070228064	 0.392287
O	 0.1030350244	-4.0311710652	 0.570894189	-0.38321
N	 1.2011320272	-2.0695470964	 0.3693741111	-0.324852
C	 1.3070441256	-0.6381021361	 0.1828660723	-0.220402
H	 0.7841465002	 1.7675174445	-1.0584654425	 0.126262
H	-0.7751649637	 2.0923440133	-0.2974178087	 0.128561
H	 0.6908061604	 2.0003975193	 0.6815857253	 0.1262
H	-2.5088244405	 1.128094586	-0.2681944863	 0.123634
H	-3.0628582105	-0.3912983229	-0.9817672554	 0.128168
H	-3.1597033063	-0.1574247605	 0.7558595837	 0.128182
H	-1.8590331011	-2.3213998879	 1.1073515015	 0.13651
H	-1.7617167788	-2.5512274809	-0.6102754188	 0.13652
H	 2.0529807669	-2.5986994309	 0.4882627428	 0.24435
H	 1.9373243533	-0.4256398738	-0.6963275188	 0.11375
H	 1.8405440918	-0.1925760134	 1.0385630272	 0.113754
