21
gdb 84015	2.10565	1.69589	1.42397	1.8034	78.07	-0.2449	0.0842	0.3291	1072.96	0.183125	-424.216347	-424.207631	-424.206687	-424.249146	33.702	
C	-0.1995751699	 1.5255468268	-0.0886908648	-0.42196
C	 0.006560925	 0.0289265461	-0.0026488131	-0.075404
C	 1.3662145732	-0.6039482286	-0.2090637749	 0.045197
O	 2.4719674291	 0.2396716685	-0.400755955	-0.241427
C	 3.1716627177	 0.4983974282	 0.7897043707	 0.009025
O	 2.3516895182	 1.0830131066	 1.7625649376	-0.231096
C	 1.3888413959	 0.1534606935	 2.2519617753	-0.147956
C	 0.711683178	-0.661276434	 1.1559225688	 0.232544
C	 0.1516179138	-1.9839592486	 1.6409380187	-0.466845
H	 0.6644955702	 2.0727781278	 0.2886909557	 0.145892
H	-0.3675289538	 1.8290213718	-1.1275822229	 0.116741
H	-1.0778107951	 1.8299021917	 0.4913210794	 0.110084
H	-0.8148172424	-0.5524112834	-0.4168652515	 0.078347
H	 1.4373422415	-1.5164186385	-0.7981365652	 0.088139
H	 3.6193784757	-0.4331006282	 1.1825487552	 0.078169
H	 3.9514971713	 1.2214254156	 0.5435815757	 0.117609
H	 1.883948668	-0.5439850071	 2.9480719636	 0.092388
H	 0.6652648529	 0.7408437447	 2.8264083873	 0.115038
H	-0.6399977575	-1.8296904222	 2.3845578942	 0.119872
H	-0.2829113653	-2.5557005118	 0.8156573042	 0.119353
H	 0.9287428835	-2.6029938689	 2.1046490413	 0.116291
