19
gdb 89881	3.81257	0.90708	0.83536	3.6933	79.29	-0.2254	-0.0283	0.1971	1426.3605	0.157911	-419.157223	-419.148286	-419.147342	-419.191293	32.829	
C	 0.0969614381	 1.4651005499	 0.004816785	-0.320509
N	 0.0052107402	 0.0240743071	 0.0753323213	-0.066915
C	-1.2848925255	-0.5779009239	 0.4792313942	-0.236661
C	-0.4915919693	-1.5759843346	 1.3273525281	 0.330649
C	 0.7315540866	-0.6707879729	 1.1585636291	-0.247878
N	-0.9685656154	-2.2656516589	 2.494131359	-0.379338
C	-0.4993724729	-3.0699831478	 1.3313623305	-0.198544
C	-1.5687860032	-3.8285044222	 0.6286722878	 0.185182
O	-1.3724227307	-4.8129255873	-0.0384860586	-0.259583
H	 1.1239451354	 1.7603586466	-0.234165148	 0.12441
H	-0.5523470785	 1.8376837895	-0.7940571707	 0.126687
H	-0.1952079545	 1.9678838846	 0.9469376098	 0.091932
H	-1.9061745168	 0.0765596216	 1.1122774884	 0.097354
H	-1.891465002	-0.9557722393	-0.3501538492	 0.115251
H	 1.6807858451	-1.1294296504	 0.8598541648	 0.11411
H	 0.9006746385	-0.0438854482	 2.0520633202	 0.089826
H	-0.2690635028	-2.2799972882	 3.2329113653	 0.24334
H	 0.4645458374	-3.5708253091	 1.3797656148	 0.107167
H	-2.5864191998	-3.4023909066	 0.7733452783	 0.083519
