18
gdb 88518	2.16844	1.54472	1.17548	1.193	72.28	-0.2527	-0.0305	0.2221	1116.2929	0.145948	-439.048983	-439.039986	-439.039042	-439.083065	32.682	
C	 0.9497640817	 0.7463930358	-0.6290141448	-0.441879
C	 0.451589603	-0.4812445362	 0.0872267027	 0.097366
O	 1.4033180257	-1.5164358954	 0.4132468908	-0.27514
C	 0.7583065163	-0.8197683293	 1.4844062473	-0.048508
C	 1.6663261736	 0.0085779671	 2.3525112634	 0.181701
C	 2.8029032838	-0.6831058277	 3.0487073588	-0.273336
N	 3.0702427011	 0.2281499187	 1.9440749387	-0.344966
C	 1.0394442289	 1.16870311	 3.0474292763	 0.132682
O	-0.1467747677	 1.3859106947	 3.0604300228	-0.263685
H	 1.8442057662	 1.164933852	-0.1642218952	 0.143324
H	 1.1782064902	 0.5094782074	-1.673263213	 0.131524
H	 0.1686721215	 1.5137345843	-0.6227757979	 0.138618
H	-0.4822807003	-0.8857526756	-0.3057459114	 0.101264
H	 0.0247010239	-1.4102376989	 2.0329393646	 0.109874
H	 3.1293668401	-0.3408245963	 4.0270399719	 0.129539
H	 2.8828899418	-1.7537669535	 2.8795714368	 0.139278
H	 3.209604978	-0.320200282	 1.0951964772	 0.25421
H	 1.7708545122	 1.8263151449	 3.5664907508	 0.088132
