15
gdb 35072	4.04701	1.35929	1.28741	3.8376	77.53	-0.2326	-0.0627	0.1699	992.9897	0.111577	-379.483634	-379.476645	-379.475701	-379.51493	28.192	
C	-0.0810859931	-1.2385951319	-0.0375329744	-0.441604
C	-0.0659291375	-0.0392820645	 0.0299121824	 0.373194
C	-0.0095005964	 1.4144224979	 0.0642916117	-0.19751
N	-0.5073817858	 1.8965440406	 1.4007710302	-0.147735
C	 0.2609362055	 2.8682526928	 1.6893853608	 0.130324
N	 1.2862911428	 2.6046125936	 2.7179012016	-0.334642
C	 2.1287860688	 2.5248949187	 1.4003929242	-0.017321
C	 1.4221192454	 2.0220300788	 0.0663536395	-0.049283
C	 1.2510328961	 3.400566271	 0.598955734	-0.191223
H	-0.1031802194	-2.2992861249	-0.0844912039	 0.200064
H	-0.5664758733	 1.8177953292	-0.7957524109	 0.113416
H	 1.6242615902	 3.4875118671	 3.1184075274	 0.226016
H	 3.2099868024	 2.5001605849	 1.4961323391	 0.119346
H	 2.1082874989	 1.8022815372	-0.7479407862	 0.105718
H	 1.3643262455	 4.3781072894	 0.1498505545	 0.111239
