27
gdb 102496	1.92684	1.25298	0.95493	0.9242	92.29	-0.2424	0.0775	0.3199	1456.8998	0.248378	-390.696042	-390.683943	-390.682999	-390.732769	44.774	
C	 0.5326409343	 0.9728507903	-0.8165949973	-0.388379
C	 0.1339865499	-0.436724197	-0.3693571983	-0.187101
C	-1.3323360464	-0.53658165	 0.0742084271	 0.120314
O	-2.1601886625	-0.1851194154	-1.0408179688	-0.258245
C	-2.956218039	 0.9657577153	-0.8711384955	-0.238433
C	-1.7688130844	-1.9321709313	 0.614105465	 0.266771
C	-0.9291704756	-2.3123045373	 1.8482634677	-0.418397
C	-3.2486037997	-1.851420869	 1.037107083	-0.414558
C	-1.623118431	-3.0109362043	-0.475026285	-0.40954
H	 1.5822880801	 1.0031516237	-1.1247811452	 0.108799
H	-0.0754609975	 1.2972213329	-1.6651978254	 0.128494
H	 0.4045359669	 1.7013799851	-0.0075151812	 0.106778
H	 0.3012111325	-1.1373701922	-1.1946597391	 0.105519
H	 0.7826977908	-0.7539877507	 0.4536893078	 0.094897
H	-1.4971980482	 0.1911621778	 0.885004297	 0.05717
H	-3.5241859832	 1.1016459812	-1.7961535999	 0.121779
H	-3.6663659677	 0.8621933932	-0.037889232	 0.104387
H	-2.3507391141	 1.8674192705	-0.6979945787	 0.104676
H	-0.9593431921	-1.5258129582	 2.611726437	 0.105707
H	-1.3219646502	-3.2274670875	 2.3042493572	 0.109358
H	 0.1186707123	-2.4984838188	 1.596561338	 0.113756
H	-3.8878536663	-1.6013262675	 0.187030161	 0.123786
H	-3.5844679953	-2.8126187088	 1.4405796322	 0.10462
H	-3.4003418337	-1.09563867	 1.8167935916	 0.100121
H	-0.5757334368	-3.1924765145	-0.7351215324	 0.107083
H	-2.0423823122	-3.9615514575	-0.128210089	 0.102435
H	-2.1539728508	-2.71312973	-1.3830033367	 0.128202
