14
gdb 132588	3.11547	1.3092	0.9271	0.8042	68.02	-0.2495	-0.0334	0.2161	1142.7439	0.099768	-485.998463	-485.990902	-485.989958	-486.030893	28.032	
C	-0.0307314355	 1.5128209886	 0.0019209101	-0.485151
C	-0.0073192963	 0.0093859138	-0.0060253847	 0.202251
N	-0.0403723203	-0.63333577	-1.1761691299	-0.297996
C	-0.0203626888	-1.9672507002	-1.2005105538	-0.119359
C	 0.034340514	-2.7236266308	-0.038732318	 0.261509
F	 0.0527150291	-4.0552356074	-0.107280517	-0.07123
C	 0.0701818849	-2.0976704091	 1.199095216	-0.3491
C	 0.0480927738	-0.7151301068	 1.1886202365	 0.248585
F	 0.0803022966	-0.0498126816	 2.3471304398	-0.071413
H	 0.8596415925	 1.9220507979	 0.4913464849	 0.138162
H	-0.0717927964	 1.8752553058	-1.0255986585	 0.144008
H	-0.8980206395	 1.8943226595	 0.5515576351	 0.138201
H	-0.0483309572	-2.4587242114	-2.1684976101	 0.124711
H	 0.1131107031	-2.6583302384	 2.1242843194	 0.136821
