17
gdb 11557	4.6058	1.19578	1.04439	1.6912	65.15	-0.2136	-0.0229	0.1908	1132.639	0.140152	-400.963655	-400.954932	-400.953988	-400.9979	30.739	
O	 0.0646405391	 0.5872490811	 0.9894798877	-0.399838
C	-0.0618904316	 0.0803741749	-0.3243906821	-0.156054
C	-1.2480586013	-0.8682622367	-0.5634533139	 0.307064
O	-1.5407300919	-1.1689443862	-1.6991858452	-0.305108
C	-1.9529590225	-1.3942140829	 0.6841942681	-0.235334
N	-3.002687136	-2.38694091	 0.5916049132	-0.081691
C	-3.9960421722	-2.3806262376	-0.4762136656	-0.220471
C	-2.9720118677	-3.4641863015	-0.3901353928	-0.220293
H	-0.5590909184	 1.3110988651	 1.0994477014	 0.293794
H	-0.1029546854	 0.8669411505	-1.0898439821	 0.127171
H	 0.8459902759	-0.5032259512	-0.5231381613	 0.147584
H	-1.1693081883	-1.7729163503	 1.354957072	 0.143157
H	-2.3546439116	-0.5190559072	 1.2152167221	 0.120613
H	-5.0167651768	-2.5628005758	-0.1482432826	 0.108047
H	-3.8850804486	-1.6787468922	-1.2956322237	 0.131624
H	-2.2019140774	-3.4588617738	-1.1542457585	 0.130477
H	-3.2388750652	-4.4435640361	-0.0003792567	 0.109257
