15
gdb 9317	6.57887	0.86356	0.77445	4.1617	64.92	-0.2845	-0.0868	0.1977	1406.2859	0.115667	-399.805021	-399.795961	-399.795016	-399.839824	29.91	
C	-0.0282300515	 1.4823186943	 0.010437194	-0.386157
C	-0.0209057401	-0.0351392085	 0.0019588652	-0.036965
O	-1.3689067784	-0.4868261056	 0.0127833525	-0.227067
C	-1.4853202907	-1.8674508663	 0.0062853775	-0.158991
C	-2.9481187417	-2.2636782267	 0.0182856281	 0.283459
O	-3.8832825067	-1.5124038005	 0.0314271893	-0.235656
C	-3.1475482186	-3.7333767632	 0.0120874922	 0.20513
N	-3.2914724013	-4.8805605505	 0.0070436253	-0.292492
H	 0.9968009686	 1.8639983196	 0.0023752808	 0.12152
H	-0.5513300705	 1.8679638428	-0.8686390111	 0.135874
H	-0.5337343522	 1.8581531871	 0.9039384272	 0.135871
H	 0.4949928075	-0.4203247986	-0.8926042479	 0.096742
H	 0.512543458	-0.4301538369	 0.8818209014	 0.096741
H	-1.0213135843	-2.3362880509	-0.8830811587	 0.130998
H	-1.0041966781	-2.3460384662	 0.8812471142	 0.130994
