16
gdb 83730	2.70884	1.73117	1.27247	4.354	64.52	-0.2559	0.0121	0.2681	977.7949	0.126009	-475.035474	-475.028057	-475.027113	-475.067502	28.342	
O	 0.4761024314	 0.9999063598	 0.7888090513	-0.431286
C	 0.0318807046	-0.1547640262	 0.1419098646	 0.048457
C	-1.4626382958	-0.2004065988	-0.1595177569	 0.082668
O	-1.9921229356	 1.0208696534	-0.7147342275	-0.276403
C	-2.4252752483	 0.341726291	-1.9121008546	-0.078592
C	-1.6067570129	-0.9107389589	-1.5371226531	-0.066821
N	-0.2513273746	-0.9211008681	-2.0570646355	-0.309382
C	 0.6620457774	-0.3018454187	-1.2505951382	 0.361699
O	 1.7736290905	 0.0826966825	-1.5433096461	-0.38219
H	 1.2981580294	 1.2479237676	 0.3401270403	 0.297679
H	 0.290218798	-1.0627716339	 0.7175639841	 0.091028
H	-2.0812721197	-0.5755699861	 0.660987777	 0.089581
H	-3.5107646704	 0.1750662126	-1.9174723422	 0.106935
H	-2.1268630525	 0.8705814594	-2.8236651538	 0.112703
H	-2.0931334742	-1.8851224288	-1.6052518888	 0.098088
H	-0.0541388772	-1.0337372567	-3.0407141304	 0.255835
