15
gdb 127468	3.11099	1.3205	0.93328	1.5207	80.61	-0.209	-0.0145	0.1946	1201.9452	0.112931	-412.965914	-412.957185	-412.956241	-412.999648	31.651	
C	-0.020442096	 1.3945302441	-0.0539094144	-0.310609
N	-0.001538129	-0.0510336118	-0.0221809822	 0.128233
N	 0.0059662585	-0.7756254162	-1.1523018407	-0.303099
C	 0.0032936232	-2.0321608766	-0.7121322375	 0.235935
N	-0.0502362246	-3.1253341425	-1.5497074597	-0.606702
C	 0.0001366203	-2.0171336509	 0.7074404523	 0.159497
N	-0.0047409143	-0.730181622	 1.1038523616	-0.30003
C	 0.0111451941	-3.1237330621	 1.5806457167	 0.246321
C	 0.0297099978	-4.1113204746	 2.2706410196	-0.428788
H	 0.839810152	 1.7659030563	-0.6165174807	 0.151348
H	-0.9380116314	 1.7496581589	-0.5310494305	 0.152009
H	 0.0245152746	 1.7441187285	 0.9762152769	 0.164822
H	 0.2947423484	-2.9473129215	-2.4817973311	 0.259419
H	 0.3270921302	-3.9707106249	-1.1465649137	 0.259798
H	 0.0355289261	-4.9694648848	 2.8957447833	 0.191847
