20
gdb 46529	3.6433	1.16263	1.06167	3.2518	80.	-0.2534	0.0309	0.2842	1204.169	0.172961	-403.163598	-403.15564	-403.154696	-403.196324	31.11	
N	-0.057494023	 1.1615651704	 0.5877354601	-0.543845
C	-0.0335697746	-0.0126004175	 0.1256972867	 0.414524
C	-1.2350509114	-0.8856214612	-0.1636200907	-0.366843
C	-0.6405102077	-2.3007162464	-0.1804707117	 0.326846
C	-0.7902649827	-3.068370441	 1.1714911196	-0.262673
C	-1.9604248672	-3.8736521272	 0.5457339722	-0.209755
C	-1.4840809521	-3.4120774607	-0.8589109711	-0.291025
C	 0.7692633497	-2.0064579647	-0.693611611	-0.152056
O	 1.1059306879	-0.7000595755	-0.1962744997	-0.23982
H	 0.8917198346	 1.5306899714	 0.6712823622	 0.219785
H	-2.0278268473	-0.7254678184	 0.5680718318	 0.134034
H	-1.6343707919	-0.6209895258	-1.1513961765	 0.125119
H	 0.0790897351	-3.7005363323	 1.3756804013	 0.100388
H	-1.001159441	-2.4707930568	 2.0619253369	 0.109935
H	-1.9858534906	-4.9481924958	 0.7369460114	 0.102631
H	-2.9357862863	-3.4542750203	 0.8055574517	 0.109718
H	-2.2431986476	-3.0881537443	-1.5760557351	 0.100888
H	-0.8501060841	-4.1627397825	-1.3424465438	 0.101789
H	 1.5240317671	-2.7097804262	-0.3312740095	 0.114266
H	 0.8010891333	-1.9924175651	-1.7923258749	 0.106095
