19
gdb 75346	3.31912	1.33083	1.03509	2.0319	83.72	-0.2266	-0.0267	0.1999	1177.5683	0.160185	-385.886005	-385.878042	-385.877098	-385.918218	31.343	
C	 0.1359944053	 1.5112075476	 0.481554727	-0.480714
C	-0.0768876185	 0.0906622999	 0.0152863713	 0.295354
C	-1.2623354469	-0.5240653441	 0.1611236987	-0.164239
C	-1.5641939418	-1.9134520181	-0.3394877938	-0.295623
C	-0.6808483735	-2.9801587907	 0.28978677	 0.052286
O	-0.0238412799	-3.8770529479	-0.6114386847	-0.262862
C	 0.7717848095	-2.9140877864	 0.111341133	 0.013902
C	 1.4329944722	-1.8270020546	-0.6558362829	-0.107433
C	 1.076007777	-0.5342644913	-0.6519377	-0.116218
H	 0.9370144988	 1.5709393742	 1.2284393803	 0.128027
H	 0.4374390404	 2.1575207594	-0.3525883243	 0.125207
H	-0.7725543828	 1.9285074436	 0.9227141132	 0.121958
H	-2.069798368	 0.0197475636	 0.6453960119	 0.084324
H	-2.6184847587	-2.1577589911	-0.1805560219	 0.101872
H	-1.3800774877	-1.9650510689	-1.4199264532	 0.131571
H	-1.0655249158	-3.4572585974	 1.1913859069	 0.090816
H	 1.4060878668	-3.3811215509	 0.8682696878	 0.094643
H	 2.334235151	-2.1159425312	-1.1928636859	 0.098306
H	 1.7262494427	 0.1614583843	-1.1826957433	 0.088823
