13
gdb 11195	6.51651	1.31551	1.10198	3.7117	63.38	-0.2462	-0.0877	0.1586	990.6901	0.095612	-394.802386	-394.795153	-394.794209	-394.83432	25.562	
N	-0.0452139307	 1.2955351076	 0.0059770178	-0.543862
C	 0.0065305038	 0.028823081	 0.0005771668	 0.383488
C	-1.1824947185	-0.9312527974	 0.0027897211	-0.239882
N	-0.6335324563	-2.2913282553	-0.0065766179	-0.26395
C	 0.6387106018	-2.1543891625	-0.0125838904	 0.283069
N	 1.1029104027	-0.8402570975	-0.0085296695	-0.386614
C	 1.6264067441	-3.2793513503	-0.0229946349	 0.107382
O	 1.3257798056	-4.4407931775	-0.0278699036	-0.20948
H	 0.8826329929	 1.7218372276	 0.0030101277	 0.211803
H	-1.8135588002	-0.782511798	 0.8859206188	 0.15833
H	-1.8235470129	-0.7743359437	-0.8716751544	 0.158335
H	 2.0676030909	-0.5533702718	-0.0141502923	 0.261128
H	 2.6903105069	-2.9482111222	-0.0259795191	 0.080252
