16
gdb 17397	4.87983	1.64306	1.53308	2.201	63.56	-0.2467	0.0702	0.3169	850.9163	0.130527	-383.668322	-383.661592	-383.660648	-383.699602	25.376	
C	 0.0408816047	 1.5168300385	-0.1573159741	-0.128054
O	 1.4376132114	 1.5502923339	 0.2150004475	-0.274727
C	 1.4375796997	 0.1394247369	 0.5036277483	-0.140338
C	 0.0020053098	-0.0146722385	-0.0326142077	 0.293605
C	-1.0853985264	-0.8352403838	 0.7363803403	-0.347854
C	-1.3019156731	-1.656171972	-0.5428241201	 0.040823
O	-1.6579246835	-0.7316688649	-1.57812282	-0.246886
C	-0.2696095272	-0.8929446334	-1.2605414713	-0.051194
H	-0.5870246259	 2.0535657069	 0.5663148299	 0.101213
H	-0.136089024	 1.9259028704	-1.1585639743	 0.112816
H	 2.22532773	-0.396603587	-0.0418799367	 0.102729
H	 1.5491005403	-0.063525549	 1.5779796941	 0.097698
H	-0.6533030122	-1.4152867295	 1.5570295191	 0.11035
H	-1.9603642768	-0.2866999541	 1.094635598	 0.114661
H	-1.6350136994	-2.6807383719	-0.6569612096	 0.10872
H	 0.4017085225	-1.1661561426	-2.0675557236	 0.106441
