18
gdb 112284	2.73708	1.10864	0.8602	4.5257	68.95	-0.2565	0.0241	0.2807	1322.6053	0.147304	-476.229496	-476.220119	-476.219174	-476.264172	33.724	
O	-0.2682286923	 1.5199823989	-0.4030699908	-0.427094
C	 0.0088670155	 0.1851329841	-0.0035592217	-0.087322
C	-1.3342910545	-0.5152620752	 0.0947140117	 0.034073
N	-2.0125485521	-0.7010999203	-1.1979786723	-0.328572
C	-1.997214828	-2.0677617683	-1.1637137526	 0.44998
O	-2.2904642995	-2.9311314474	-1.9565478339	-0.386996
C	-1.3709607339	-2.0739033396	 0.246761183	-0.211818
C	-0.1090463401	-2.9369895624	 0.3109489801	-0.077198
O	-0.4554998668	-4.2881380364	 0.0864491778	-0.424603
H	 0.5660335849	 1.9848165109	-0.5161760594	 0.294069
H	 0.6497488344	-0.3238629111	-0.7373734084	 0.096206
H	 0.5123615503	 0.1487102437	 0.9753816454	 0.098052
H	-1.955147749	 0.0172692766	 0.8230577614	 0.099168
H	-2.2147291592	-0.0401802173	-1.9339337439	 0.258961
H	-2.0751148981	-2.4090127269	 1.0122074854	 0.113662
H	 0.6355175665	-2.5862519054	-0.4213639744	 0.088666
H	 0.3563981718	-2.887897947	 1.3011150845	 0.110168
H	-0.9740730301	-4.3135875769	-0.7306550419	 0.300598
