21
gdb 73982	2.93518	1.51297	1.34353	0.6674	91.16	-0.1958	-0.0227	0.1731	1086.6732	0.181923	-349.870123	-349.861717	-349.860773	-349.902518	33.332	
C	-0.1710735528	 1.3765216547	-0.3866564568	-0.470489
C	-0.0594631792	 0.0363339324	 0.2669318698	 0.262562
C	-1.0939893397	-0.8189062888	 0.4544573089	-0.09716
C	-1.782400311	-1.2964797643	-0.8408976371	-0.265697
C	-0.7330030836	-2.4549327157	-0.7175773287	-0.114748
C	 0.6614001524	-2.1672079691	-0.0112700549	-0.091859
C	 1.2437764641	-0.7625994714	 0.2112044964	-0.313699
C	-0.5999849728	-2.2508256206	 0.7671991703	 0.322426
C	-0.979199102	-3.1175990567	 1.9291964599	-0.514444
H	 0.3479343045	 1.4021630151	-1.3549669585	 0.120453
H	-1.2162096778	 1.660366166	-0.5385622022	 0.124999
H	 0.2948687625	 2.1563023292	 0.2306651744	 0.12776
H	-2.7914678979	-1.7143033732	-0.7430278508	 0.101004
H	-1.74896501	-0.616138174	-1.6977189989	 0.095519
H	-0.8389030068	-3.4155415258	-1.2197748626	 0.080422
H	 1.328418881	-3.0279449187	-0.056768835	 0.07024
H	 1.8494967463	-0.3758044838	-0.6184443803	 0.104119
H	 1.8907451026	-0.7504028576	 1.1009183084	 0.104266
H	-0.5658848634	-2.7311128757	 2.8681869308	 0.119851
H	-2.0671557566	-3.1752415434	 2.0489312319	 0.119202
H	-0.6025264498	-4.1371307887	 1.7938788549	 0.115273
