13
gdb 128703	7.31274	0.88786	0.79572	4.3642	70.02	-0.2752	-0.0686	0.2065	1334.8126	0.089333	-452.739343	-452.731557	-452.730613	-452.772079	27.432	
C	-0.0076411338	 1.4107875094	 0.0013824761	-0.24933
O	 0.0035856527	-0.023718022	-0.0003177219	-0.262666
C	 0.5967152894	-0.5990408495	-1.0403331654	 0.509653
N	 1.1511283655	 0.0736306876	-2.027749015	-0.224345
O	 1.6510226346	-0.8863094577	-2.8988005707	-0.221093
C	 1.3755955678	-2.1094820255	-2.3959984793	 0.37324
C	 0.7067113919	-2.0084237491	-1.2172545378	-0.461299
C	 1.804927354	-3.2366027886	-3.139531771	 0.252449
N	 2.1482167781	-4.1680937362	-3.7337652944	-0.318117
H	 1.0136025245	 1.802421304	 0.0008656713	 0.150331
H	-0.5361443776	 1.7913344226	-0.8773565316	 0.150345
H	-0.5271823499	 1.6990370512	 0.9145569937	 0.143807
H	 0.3486931227	-2.794308736	-0.5755539138	 0.157025
