21
gdb 59537	2.69747	1.20628	1.15547	1.5493	77.77	-0.2331	0.0669	0.3	1218.1824	0.181256	-424.182778	-424.173586	-424.172642	-424.216534	35.33	
C	 0.0684768157	 1.4119915293	-0.235445337	-0.392628
C	 0.1367743592	-0.0745551116	 0.1386583045	-0.004115
C	 0.6609880796	-0.2780049074	 1.5671098571	-0.395587
C	-1.2393980905	-0.715117427	 0.0057239171	 0.147187
O	-1.8431690648	-0.6173256694	-1.3322244663	-0.328494
C	-2.224173172	-2.0004898827	-1.2745392735	 0.013167
C	-0.9935337046	-2.8295546666	-1.3248091497	 0.126967
O	 0.1239741055	-2.4331222262	-2.05579998	-0.431912
C	-1.4271814543	-2.231395317	 0.0084916807	-0.216096
H	 1.0603122137	 1.8724602691	-0.187088241	 0.111217
H	-0.3229056639	 1.5459820861	-1.2477174001	 0.128714
H	-0.5872307643	 1.9596221944	 0.4524804188	 0.110496
H	 0.8154321178	-0.5882916306	-0.5495505114	 0.091489
H	 0.7348818217	-1.3401883114	 1.8210756085	 0.120835
H	 1.6568728489	 0.161605298	 1.6781521354	 0.117427
H	 0.0039458637	 0.2017593475	 2.3026647103	 0.111738
H	-1.9350420184	-0.2405194991	 0.7133099238	 0.082311
H	-3.2278399882	-2.2591801406	-1.5934936904	 0.10395
H	-1.1525114903	-3.9032647986	-1.3773674691	 0.110286
H	-0.0810337824	-1.5466473339	-2.3838713014	 0.293842
H	-1.6547817419	-2.8372687523	 0.8756547538	 0.099205
