19
gdb 65145	3.43778	1.14952	1.00931	4.0848	75.34	-0.2732	0.0106	0.2838	1224.8122	0.158577	-423.048738	-423.040152	-423.039208	-423.082195	32.561	
C	 0.0367029565	 1.54718988	 0.358922812	-0.467745
C	-0.0277721849	 0.0799603253	-0.0212046683	 0.334449
C	 1.1917716042	-0.5705183334	-0.6281157077	-0.310482
C	 0.7735193103	-0.9128067389	 0.7836590964	-0.304345
C	-1.3946203499	-0.3355662125	-0.5058116511	 0.058783
C	-1.8129139524	 0.0386653451	-1.9446644399	-0.429255
C	-1.870544355	-1.4734383642	-2.1475349523	 0.447228
O	-2.1367615253	-2.2435832833	-3.0115601108	-0.314543
O	-1.4812813388	-1.7620354128	-0.8606905738	-0.25257
H	 1.036391821	 1.8122310219	 0.714241652	 0.123997
H	-0.1948713371	 2.1963231482	-0.4939020303	 0.120095
H	-0.6740535707	 1.7828627498	 1.1600770575	 0.120694
H	 1.0510264698	-1.3366144343	-1.3819606631	 0.129943
H	 2.0717084622	 0.0470986821	-0.7723121578	 0.111869
H	 1.3676446878	-0.5325999392	 1.6077062159	 0.112177
H	 0.3469402032	-1.8959478472	 0.9447135798	 0.133896
H	-2.1574211355	-0.1146794956	 0.2480774114	 0.097216
H	-2.770500094	 0.5465691815	-2.0675576264	 0.142984
H	-1.0468887514	 0.5364167073	-2.5420742635	 0.145609
