17
gdb 125643	3.31653	1.56576	1.07776	2.1148	82.07	-0.2049	-0.0132	0.1917	1089.2786	0.138716	-380.905741	-380.898284	-380.89734	-380.937547	28.992	
C	-0.0188504301	 1.4942045383	-0.0732826437	-0.497296
C	-0.0070837855	 0.002842665	 0.043912114	 0.188067
N	-0.0312251578	-0.7562873246	-1.0605827735	-0.295275
N	-0.012287806	-2.0445549204	-0.6231765877	-0.353357
C	 0.0230496439	-2.110892183	 0.7244450693	 0.374051
C	 0.0276523477	-0.81120785	 1.1943002168	 0.167432
C	 0.0667763283	-0.8529623835	 2.6954144012	-0.430417
C	 0.0826041884	-2.351923139	 2.9663323287	-0.074583
C	 0.056943957	-3.0653537889	 1.8203860554	-0.198448
H	 0.8731976859	 1.9388322661	 0.3824424701	 0.124048
H	-0.049722106	 1.784633242	-1.1254174049	 0.140102
H	-0.8891914776	 1.9287540231	 0.4314698929	 0.124
H	-0.0257712387	-2.7843638772	-1.3030694884	 0.267553
H	 0.9526721759	-0.3665864138	 3.1260323498	 0.129299
H	-0.8012538737	-0.3768201904	 3.1714563612	 0.129308
H	 0.1109915764	-2.7668829532	 3.9658616999	 0.102322
H	 0.060960342	-4.1436196606	 1.7334455091	 0.103195
