16
gdb 75763	2.59216	1.31556	1.15927	1.5445	73.4	-0.2687	0.0054	0.2741	1119.8765	0.120942	-437.845524	-437.836114	-437.83517	-437.879707	34.159	
C	 0.2378746281	 1.3239351104	-0.1566095751	-0.422162
C	-0.0759379175	-0.1510378763	 0.0218531247	 0.165841
O	 0.7979814315	-0.9821842262	-0.859515758	-0.276573
C	 1.5035454804	-1.4638507334	 0.2116180031	 0.37661
N	 2.5781931559	-2.1066155007	 0.2869989218	-0.549646
C	 0.610419702	-0.8446528418	 1.2628048787	-0.025884
O	 1.2162782185	-0.0410557541	 2.2294354438	-0.41951
C	-1.4737651439	-0.474322824	-0.1846143076	 0.303972
C	-2.6378710502	-0.7371002273	-0.3246567965	-0.437519
H	 1.2967970424	 1.5113905339	 0.0323712562	 0.125316
H	-0.0108431193	 1.6394177445	-1.1725831513	 0.139654
H	-0.349119743	 1.9149500935	 0.5508206689	 0.145708
H	 2.9699106082	-2.3081167957	-0.6344530834	 0.235289
H	-0.0691130064	-1.5612085321	 1.7351142586	 0.124853
H	 2.1707222148	-0.1373161854	 2.1326958833	 0.306044
H	-3.6661026915	-0.9697571853	-0.4565478572	 0.208007
