15
gdb 9599	3.99033	1.21313	1.19463	2.0053	65.41	-0.2655	-0.0593	0.2061	1040.6311	0.116134	-399.793748	-399.785455	-399.784511	-399.82683	29.075	
C	-0.1568550758	 1.5994188588	 0.0122894471	-0.459074
C	 0.0273013827	 0.1011432502	-0.0231795957	 0.210202
N	 1.3177631681	-0.4347164622	-0.472372655	-0.349946
C	 0.9424840377	-0.6629722281	 0.9200162981	-0.162512
C	 1.7415019765	 0.0606245199	 1.9556982635	 0.173994
O	 1.7762443234	-0.2768117619	 3.1107220764	-0.246968
C	-1.1746253343	-0.6999465086	-0.4171398179	 0.129041
O	-2.2559071972	-0.2320646624	-0.657782101	-0.245453
H	 0.7931829319	 2.1091688142	 0.176089034	 0.132333
H	-0.5751656563	 1.939821309	-0.9386810371	 0.144481
H	-0.8587034638	 1.8820402526	 0.8013175115	 0.143953
H	 1.203422701	-1.2872592936	-1.0190121623	 0.248058
H	 0.6089230697	-1.6506349478	 1.2340101804	 0.114248
H	 2.3127591214	 0.9310988625	 1.5717687713	 0.097377
H	-0.9778161051	-1.7972696524	-0.4919412133	 0.070265
