16
gdb 4960	3.2577	2.20484	1.32579	1.5832	74.53	-0.2143	0.0056	0.22	899.0706	0.131985	-346.681057	-346.673905	-346.672961	-346.71202	27.851	
C	 0.0283481575	 1.5127322136	 0.0495270441	-0.538582
C	 0.0250778431	 0.0044292716	 0.014712476	 0.198437
C	-0.0433295815	-0.7004050553	-1.1882240847	-0.177801
C	-0.0463730318	-2.0917255706	-1.221102356	-0.122658
C	 0.0203981338	-2.8032993226	-0.0253541556	-0.108382
C	 0.089316889	-2.1274197335	 1.1868943888	-0.179596
C	 0.091701297	-0.7333965385	 1.207300653	 0.304713
O	 0.1612633036	-0.1307646558	 2.4310483767	-0.4398
H	 0.9413944856	 1.9152019132	 0.5096573918	 0.130513
H	-0.0293614004	 1.9250836745	-0.960398118	 0.134932
H	-0.8253305643	 1.916669004	 0.6111524784	 0.130471
H	-0.0952137176	-0.1387870112	-2.1166922228	 0.08706
H	-0.1003084928	-2.6135997763	-2.1699102332	 0.089809
H	 0.018983118	-3.8882616621	-0.033607409	 0.094636
H	 0.1420722617	-2.6579110135	 2.1309490722	 0.100222
H	 0.155868299	 0.8243573425	 2.3168715783	 0.296026
