14
gdb 129561	3.33909	1.1953	0.91081	3.6673	66.74	-0.2745	-0.0277	0.2468	1185.0584	0.102448	-432.85679	-432.848935	-432.847991	-432.890085	28.171	
N	 0.575449123	 1.5957705343	-0.157048364	-0.497522
C	 0.1211465653	 0.2155496713	 0.0270482778	-0.264852
C	 0.3189657168	-0.6406362683	-1.1680026598	 0.2682
N	 0.4777607819	-1.2743325981	-2.121585166	-0.321253
C	 0.7894268853	-0.392596948	 1.2318733557	 0.175786
C	 1.2741075486	 0.2592030851	 2.3227681106	-0.0023
O	 1.7732943723	-0.6139667616	 3.2051497088	-0.160138
N	 1.6266275718	-1.9039662371	 2.703347547	-0.127038
C	 1.0459993599	-1.7592440236	 1.5394490466	-0.053608
H	 1.5595001023	 1.6005541591	-0.4114311177	 0.24937
H	 0.0681334903	 2.0304046033	-0.9219162047	 0.250932
H	-0.9631144166	 0.2575071338	 0.1981267641	 0.154826
H	 1.3274390769	 1.3021100188	 2.5892486756	 0.17204
H	 0.832242172	-2.633612629	 0.9407634962	 0.155557
