21
gdb 101550	3.28449	0.75116	0.6783	1.1421	80.16	-0.2501	-0.0941	0.156	1722.7095	0.178568	-424.257283	-424.246459	-424.245514	-424.294386	37.763	
C	 0.0054047733	 1.4145818229	 0.2778664927	-0.392496
C	 0.1700195369	-0.0892965446	 0.0376924808	-0.176008
C	 0.8157841907	-0.458721379	-1.3111090183	 0.044357
C	 2.2490325803	 0.0768805475	-1.4460071847	-0.400105
C	 0.782426173	-1.9810424384	-1.5062604117	-0.314446
C	 1.0332081673	-2.4470823633	-2.9196759798	 0.279408
O	 1.1088315244	-1.7342694589	-3.8948601895	-0.279687
C	 1.1805644412	-3.9621946526	-3.1395710103	 0.097288
O	 1.156483962	-4.7732127147	-2.252150646	-0.219375
H	 0.9689373464	 1.9282975615	 0.3432550094	 0.120802
H	-0.5678369276	 1.8832821862	-0.5299579994	 0.116124
H	-0.5284065861	 1.6011758059	 1.2148097417	 0.114162
H	 0.7625425201	-0.5283787293	 0.8526975825	 0.094406
H	-0.8174876227	-0.5658170779	 0.0929566465	 0.091762
H	 0.2127141168	-0.0131679881	-2.1132281863	 0.089334
H	 2.8906886388	-0.3203358077	-0.6496733733	 0.108636
H	 2.6828865436	-0.2049110897	-2.4085748625	 0.129518
H	 2.2763904147	 1.1677582423	-1.3823912906	 0.119337
H	 1.4935360736	-2.4957304765	-0.8461547558	 0.136274
H	-0.1959664704	-2.3961881458	-1.2198126664	 0.133729
H	 1.3174505937	-4.2254648799	-4.210167119	 0.10698
