20
gdb 59278	3.12268	1.3401	1.0453	2.4069	79.75	-0.2273	0.0034	0.2307	1179.7011	0.171459	-403.124843	-403.116453	-403.115509	-403.157671	33.014	
C	 0.8762352463	-0.5100266283	-1.3560134764	-0.394148
C	 0.0503127398	 0.1018005732	-0.2314332185	 0.143573
O	-0.1033534852	 1.4830634211	-0.5263900026	-0.44463
C	-1.3361909713	-0.5438940538	-0.0875871148	-0.022414
C	-1.4081713367	-2.0097060857	 0.2866772983	-0.110597
C	-2.2378640094	-2.1942278937	 1.3136878655	-0.087465
C	-2.7446506194	-0.88147787	 1.8082366833	-0.068513
C	-1.6854725699	 0.022227985	 2.3397739949	-0.244932
N	-2.1469416418	 0.1634330494	 0.9462085907	-0.133664
H	 1.7984553995	 0.0631046823	-1.4830353008	 0.128557
H	 1.143542102	-1.5474977797	-1.1355952261	 0.111548
H	 0.3252021799	-0.4785155845	-2.3014335186	 0.121374
H	 0.5969993654	-0.0231351058	 0.7183222497	 0.060558
H	-0.834298673	 1.8044251526	 0.0152347764	 0.293058
H	-1.8451507677	-0.3771823913	-1.0493699809	 0.0963
H	-0.8633118605	-2.7857662665	-0.2367852435	 0.106867
H	-2.5066857444	-3.1421080015	 1.7633394409	 0.107189
H	-3.7829752007	-0.7634038466	 2.106232488	 0.098232
H	-1.9483247595	 0.866356642	 2.9715415716	 0.118052
H	-0.7171054134	-0.4260959981	 2.543878993	 0.121053
