20
gdb 110590	3.18463	1.35698	1.12271	1.2234	80.26	-0.2294	0.0765	0.3059	1162.6079	0.169872	-403.042508	-403.033945	-403.033	-403.075702	32.428	
C	 0.0179884089	 1.3817520305	-0.2593382979	-0.237286
O	-0.0471898015	 0.1248699487	 0.380686432	-0.260966
C	-1.2799009298	-0.5163198488	 0.2253164978	 0.100851
C	-1.5330776336	-1.3654984777	-1.029065477	-0.058007
C	-0.5985757303	-2.5192673091	-0.5629520408	-0.099181
C	-1.7541112335	-3.4928459104	-0.7537537418	-0.195573
N	-2.5098706424	-2.2722068387	-0.2308357588	-0.200115
C	-1.3068959524	-1.9608492314	 0.7222905797	 0.324144
C	-1.2469568534	-2.4648578195	 2.131756735	-0.529897
H	 0.9991389662	 1.8082031694	-0.0380069189	 0.12855
H	-0.0932205381	 1.2954210751	-1.3503135297	 0.108846
H	-0.7599040479	 2.0655865748	 0.1134533751	 0.108496
H	-2.1214928991	 0.1183541079	 0.543196796	 0.072965
H	-1.7755552749	-1.0785327399	-2.0535387085	 0.076592
H	 0.4736967416	-2.6352688168	-0.7421195558	 0.071612
H	-2.0348384868	-3.7670018486	-1.7762086799	 0.098536
H	-1.8216554019	-4.3662206994	-0.0969358515	 0.099101
H	-1.306696413	-3.5572125743	 2.1719998137	 0.124185
H	-0.3067504055	-2.1564541453	 2.6001406776	 0.135885
H	-2.0744578025	-2.0552973164	 2.7200013736	 0.131262
