21
gdb 59342	2.46755	1.22382	0.93915	0.996	79.86	-0.2492	-0.0296	0.2197	1343.4315	0.179427	-424.241087	-424.230919	-424.229975	-424.276418	36.799	
C	-0.0669004532	 1.3955291376	-0.3206749294	-0.395889
C	-0.0014326214	-0.1036592226	-0.0048507724	 0.014384
C	 0.8716856104	-0.4069625849	 1.2202619022	-0.402579
C	-1.4080027331	-0.6626742129	 0.2128271219	 0.021133
O	-2.2968675407	-0.5090200194	-0.9243551458	-0.318442
C	-2.5915223838	-1.9256219659	-1.027853664	 0.038102
C	-2.2909039518	-2.5252932245	-2.3893305712	-0.403339
C	-1.5981021918	-2.1817637467	 0.1149582415	 0.321459
O	-1.1294776571	-3.1448147329	 0.6442852147	-0.28892
H	 0.9310426885	 1.7884628456	-0.5402331767	 0.112755
H	-0.7106485818	 1.5836095651	-1.1837676154	 0.135156
H	-0.4677281072	 1.9568131239	 0.5317225321	 0.112665
H	 0.4243444106	-0.6202831636	-0.8756258376	 0.077792
H	 0.4919065273	 0.1113004119	 2.1086520536	 0.114715
H	 0.8945102035	-1.4783159556	 1.4387250209	 0.142155
H	 1.8982420406	-0.0673991336	 1.0522752825	 0.116089
H	-1.8518035285	-0.2308186342	 1.1236212468	 0.098772
H	-3.6299888998	-2.1334623544	-0.7303758831	 0.104884
H	-1.2522068993	-2.3429714894	-2.6779125388	 0.128104
H	-2.4642395041	-3.6055566141	-2.3645303197	 0.135824
H	-2.9442708574	-2.0861488395	-3.1487853721	 0.135181
