17
gdb 44535	3.47695	1.51202	1.42521	4.678	72.18	-0.2372	0.039	0.2762	959.7547	0.138813	-417.9777	-417.97095	-417.970006	-418.009049	27.274	
N	-0.032601201	 1.2248955876	 0.6615606052	-0.543783
C	-0.0116679753	 0.0944615636	 0.1048033416	 0.428143
C	-1.2385631086	-0.7626188882	-0.1808814094	-0.318327
C	-0.7005824244	-1.9768402532	-0.9386564673	-0.064179
C	-0.6891834954	-1.9461103208	-2.4796143489	-0.058107
N	-0.1773184871	-0.6130182885	-2.8534147727	-0.328932
C	 0.782073328	-1.6874851707	-2.5151186754	-0.074151
C	 0.8460859443	-1.7481072399	-0.9799143103	 0.09073
O	 1.139082744	-0.5488505531	-0.2881193406	-0.23687
H	 0.9128530512	 1.6014234971	 0.7445063532	 0.219497
H	-1.7090574568	-1.0390825032	 0.7663039272	 0.128689
H	-1.9579557091	-0.1773460267	-0.7554051853	 0.145616
H	-0.9997748988	-2.9395113855	-0.5250673899	 0.084805
H	-1.3070765366	-2.5234829378	-3.1553948109	 0.09997
H	-0.2014894125	-0.5380823996	-3.8688867206	 0.237455
H	 1.5379731449	-2.0036790756	-3.2226151651	 0.098137
H	 1.4730804131	-2.5543607952	-0.5948674208	 0.091306
