22
gdb 107340	3.24398	1.25322	1.04765	1.5821	87.13	-0.219	0.0089	0.2279	1240.235	0.196319	-367.213021	-367.204421	-367.203477	-367.246045	33.966	
C	 0.2848648241	 1.4107693129	 0.3722604972	-0.383812
C	-0.2400139395	 0.0888429783	-0.201439473	-0.231641
C	 0.58720371	-0.4398257737	-1.3628195399	 0.323767
C	 0.5099014124	 0.3680431635	-2.6523454099	-0.274139
C	 1.3164856583	-0.2180952034	-3.8283549791	-0.292134
C	 1.1566575836	-1.7115339893	-3.9480399521	-0.087169
C	 0.8967865708	-2.4764429322	-2.8852207411	-0.036809
C	 0.7593496482	-1.9166842597	-1.5181934863	-0.105194
N	 1.8483279404	-1.0702356665	-0.9448079668	-0.375176
H	 1.3321552645	 1.3038951623	 0.6711879648	 0.130739
H	 0.2195847092	 2.2289197404	-0.3523073593	 0.111852
H	-0.2909240085	 1.7083206178	 1.2539291471	 0.110072
H	-0.2361892425	-0.6674981816	 0.590564712	 0.102547
H	-1.2826238295	 0.2043856807	-0.5256915411	 0.090904
H	-0.5487294276	 0.4173744616	-2.9397991855	 0.106575
H	 0.8288134244	 1.4006967625	-2.4735835025	 0.103905
H	 1.0064087129	 0.273477358	-4.7571294428	 0.1067
H	 2.3813195505	 0.0349139831	-3.7160213433	 0.111627
H	 1.2777902468	-2.1603916273	-4.9297068594	 0.090708
H	 0.7856512918	-3.5516735989	-2.9932419207	 0.088429
H	 0.3057992595	-2.5721380893	-0.779064632	 0.082257
H	 2.5707922004	-0.9492744791	-1.6513607661	 0.225993
