12
gdb 131006	7.47053	0.8862	0.79222	6.1667	67.51	-0.2726	-0.0935	0.1791	1300.5997	0.076813	-468.812862	-468.805384	-468.80444	-468.845519	25.715	
O	-0.0490650488	-0.041400681	-0.0008580792	-0.220866
C	-0.0222760012	 1.1490760034	 0.0087754056	 0.202111
N	 1.1687460695	 1.9200693849	 0.0026898204	-0.014855
C	 1.2750312275	 3.2755442604	 0.0128745856	-0.129469
C	 2.6239328125	 3.5209337313	 0.0005861565	 0.195292
C	 3.3045065468	 4.8251916187	 0.0041122422	 0.099427
O	 4.4988231364	 4.9796268298	-0.0074386191	-0.241576
N	 3.2790866753	 2.3017096667	-0.016445193	-0.19366
N	 2.4271684185	 1.3479938261	-0.0150479288	-0.079836
H	-0.9093681675	 1.8067528393	 0.0233858036	 0.12112
H	 0.4163512484	 3.9268101671	 0.0273291192	 0.183037
H	 2.6023029924	 5.6883245031	 0.0184668872	 0.079275
