20
gdb 91579	2.94021	1.14449	0.96771	3.2006	81.63	-0.2531	0.0227	0.2758	1294.3444	0.170108	-403.117917	-403.108906	-403.107962	-403.152032	33.714	
C	-0.1488862312	 1.5865318906	-0.1614410808	-0.418714
C	 0.0575888298	 0.0777715013	-0.1622316616	-0.036899
C	 1.3001714419	-0.543503923	-0.8984016994	-0.250953
C	 1.6785177332	-1.2876316974	 0.3888104338	-0.131117
C	 1.9426303736	-0.2876624335	 1.4929770592	-0.341939
C	 0.5269446556	-0.6242793122	 1.1192729495	 0.427506
O	-0.3586792038	-1.220968264	 2.0159832451	-0.227525
C	-0.6871843743	-0.5092534069	 3.1199657678	 0.101431
N	-1.5531474583	-0.9586466219	 3.9190795914	-0.440557
H	 0.742680209	 2.1166423008	 0.1901232458	 0.114216
H	-0.373575745	 1.9508413084	-1.1696299218	 0.120504
H	-0.9863165119	 1.8704512515	 0.4856708961	 0.120181
H	-0.8499742873	-0.4237608893	-0.5120570264	 0.09314
H	 1.0202560254	-1.1971292518	-1.7265065063	 0.110331
H	 2.0461599033	 0.1756890942	-1.2526645829	 0.098425
H	 2.0284475045	-2.3093683292	 0.4587520771	 0.104018
H	 2.2701935014	-0.7293640891	 2.4287897145	 0.124205
H	 2.3804835572	 0.6839064247	 1.2755692534	 0.110456
H	-0.1260079318	 0.4290372809	 3.2107436286	 0.094133
H	-1.6717414913	-0.3133237341	 4.6974615568	 0.229157
