18
gdb 118633	1.75191	1.31299	0.8593	2.1392	70.77	-0.2552	-0.0368	0.2184	1372.7647	0.144888	-476.242123	-476.232005	-476.23106	-476.278569	34.111	
C	-0.3058104142	 1.2533911195	-0.3080261785	-0.228847
O	-0.0768716597	-0.1142108643	-0.0527912623	-0.235841
C	-1.2642630795	-0.8640713266	 0.0472898962	-0.084572
C	-0.8762009272	-2.3354927606	 0.242464087	-0.082819
N	-0.2318772116	-2.926462768	-0.9048092605	-0.264533
C	-0.9208996641	-3.2900200156	-2.0130226284	 0.155487
O	-2.1084591459	-3.0919815574	-2.1811023118	-0.335805
C	 0.0404035919	-2.465455836	 1.4463597961	 0.174242
O	 1.1106629436	-3.0154138254	 1.4173100452	-0.255985
H	 0.6702073936	 1.7385128053	-0.3785524079	 0.134052
H	-0.8497297872	 1.4024333993	-1.2528763843	 0.115112
H	-0.8826843399	 1.7279402499	 0.5010355839	 0.107817
H	-1.8721077718	-0.5310504259	 0.9071578625	 0.090573
H	-1.8823905936	-0.7774925937	-0.8563905863	 0.135179
H	-1.8074874146	-2.8780959516	 0.4661689036	 0.127558
H	 0.735850048	-3.1891299695	-0.7827058155	 0.265495
H	-0.2763310335	-3.789054288	-2.7620826607	 0.085089
H	-0.3576272345	-2.0075694914	 2.3756458114	 0.097797
