18
gdb 90549	4.25842	1.09741	1.00055	1.0174	73.23	-0.2381	-0.0373	0.2008	1207.2533	0.147062	-439.047363	-439.039141	-439.038197	-439.080458	30.678	
C	 0.3603319153	 1.540176476	-0.1956381629	-0.405299
C	 0.0431031965	 0.0824261993	 0.0353855081	 0.161223
O	 0.8578716649	-0.8279496571	-0.7779709549	-0.316141
C	 1.2079497444	-1.6157966423	 0.3604635889	 0.089631
C	 2.554574888	-1.1817739409	 1.0305721328	-0.08282
N	 1.8442119785	-0.1358961629	 1.8005065725	-0.329321
C	 0.5249523788	-0.6232572789	 1.3273349744	-0.073825
C	 3.1694087353	-2.2705388901	 1.8692578286	 0.138572
O	 3.08066126	-2.32191361	 3.0715896576	-0.248075
H	 1.3831114445	 1.7625962094	 0.1150424183	 0.141587
H	 0.2398569084	 1.7862170163	-1.2550768641	 0.125315
H	-0.3256878215	 2.1706814878	 0.3805475791	 0.115784
H	-1.0176313569	-0.1273697367	-0.1604072422	 0.078431
H	 1.0008966813	-2.6813067255	 0.2336960806	 0.08892
H	 3.297269785	-0.8120960933	 0.3114458821	 0.106286
H	 1.980633493	-0.2886301405	 2.7961115065	 0.236719
H	-0.2092851866	-0.8716093673	 2.093615977	 0.084833
H	 3.7091914611	-3.0547928632	 1.2932301276	 0.088181
