17
gdb 8873	3.37838	1.48223	1.1348	2.661	67.4	-0.2487	-0.0725	0.1762	1064.636	0.140119	-401.030529	-401.021201	-401.020257	-401.065417	31.58	
C	-0.1395111345	 1.6060764947	-0.1665034681	-0.37967
C	 0.1795873169	 0.1140166864	-0.0436930942	-0.151156
N	 0.7248115276	-0.4578589722	-1.2798041877	-0.091559
C	 2.1759395469	-0.4615914751	-1.4129574318	-0.368792
C	-0.1681486787	-0.8828673272	-2.2066870723	 0.309865
O	-1.3832196126	-0.8029325553	-2.0600368548	-0.378646
C	 0.2677693438	-1.5203564205	-3.5382192398	 0.105551
O	 1.3675694874	-1.6186336876	-4.0156937852	-0.247697
H	 0.7472361596	 2.1870680241	-0.439496008	 0.117941
H	-0.9093068169	 1.7632802318	-0.9254973429	 0.147627
H	-0.5132708761	 1.9900907309	 0.787680083	 0.121418
H	 0.917078944	-0.061360446	 0.7462246114	 0.104287
H	-0.7291781925	-0.4386825433	 0.2035474539	 0.140773
H	 2.4679738545	-0.8449344979	-2.3856888601	 0.188636
H	 2.5659817806	 0.5570119664	-1.2998777851	 0.13028
H	 2.6237504545	-1.0833864355	-0.6280659353	 0.129141
H	-0.6440133847	-1.8813014737	-4.0558183828	 0.122003
