15
gdb 3277	5.16742	2.51051	2.01118	2.8976	60.63	-0.2371	-0.019	0.2181	666.417	0.125672	-308.51084	-308.504739	-308.503795	-308.5411	23.079	
O	 0.1037871472	 0.0771527663	-0.6144914074	-0.297475
C	 0.0485590871	 1.1881404198	-0.1723224101	 0.407886
C	-1.1021118138	 2.065239741	 0.3655333727	-0.356245
C	-0.07499039	 3.2061185072	 0.6089472929	-0.021337
C	 0.600665547	 3.1857041648	 2.0049363476	-0.219218
C	 1.7253913656	 2.254189204	 1.4624638181	-0.228155
C	 1.0840197193	 2.2973860145	 0.037054284	-0.145905
H	-1.8280923081	 2.2853510011	-0.4249374146	 0.132967
H	-1.647366598	 1.6776240057	 1.2316351802	 0.124223
H	-0.3267103269	 4.1760851991	 0.1824656296	 0.074899
H	 0.9732791323	 4.1627466704	 2.3209335877	 0.106906
H	-0.0132132873	 2.7807164726	 2.8145122575	 0.101766
H	 2.7178284976	 2.7080466768	 1.4877313453	 0.114734
H	 1.797148193	 1.2598132953	 1.9097274052	 0.116227
H	 1.734874585	 2.5443468116	-0.8025207187	 0.088727
