20
gdb 114471	4.27807	1.04211	1.00943	2.4178	77.91	-0.2202	0.0716	0.2918	1242.6195	0.171906	-403.064731	-403.056735	-403.055791	-403.097283	31.543	
O	-0.0550753404	 1.414764258	-0.2168009276	-0.421729
C	-0.0167979	 0.0358628322	 0.1181096715	-0.106963
C	-1.4309163134	-0.5064382102	 0.030071358	 0.018173
C	-2.0197950117	-0.5584695022	-1.4206753686	-0.257011
C	-2.1001049771	-2.1047852699	-1.3283006947	 0.033905
C	-1.5181093902	-2.0614447075	 0.1021381959	-0.052267
C	-2.8379830552	-2.6989841882	 0.5645866727	-0.04287
C	-4.0373201054	-1.9481658794	 0.154354864	-0.245741
N	-3.378434318	-2.7911278816	-0.860886163	-0.152625
H	 0.8452505992	 1.752614152	-0.213404471	 0.287318
H	 0.6379018084	-0.5228152161	-0.5723275012	 0.08146
H	 0.3746364194	-0.1207835401	 1.1370266409	 0.086023
H	-2.0554563063	 0.0198904888	 0.7582315396	 0.079119
H	-2.959376385	-0.0284047138	-1.5926485489	 0.10897
H	-1.3031929365	-0.2185430363	-2.1729766762	 0.108166
H	-1.6569324892	-2.6856423686	-2.1368220464	 0.079316
H	-0.6174080522	-2.6074281552	 0.3852883708	 0.066006
H	-2.8967798983	-3.5481916455	 1.2392650183	 0.091655
H	-4.9990094485	-2.3558591785	 0.4529069144	 0.119287
H	-4.0293236293	-0.866542728	 0.0701373515	 0.119809
