13
gdb 132230	2.02216	1.83576	0.96223	1.3154	65.05	-0.235	-0.0218	0.2133	1090.9373	0.090802	-494.103521	-494.096273	-494.095329	-494.135454	27.53	
F	 0.0823010629	 0.0557988533	 0.0022120547	-0.049943
C	-0.0604115195	 1.3692930256	 0.0112771094	 0.420784
C	-1.2466615819	 1.9876056346	 0.0308710227	-0.353034
C	-1.2838023782	 3.4405965413	 0.0392293802	 0.412472
N	-2.3867948097	 4.0857936491	 0.0578814662	-0.539869
N	-0.0043166719	 4.0422112832	 0.0249395331	-0.448158
C	 1.2287796356	 3.4233728726	 0.0047366098	 0.495255
O	 2.286084409	 4.0106051833	-0.0065275726	-0.385054
N	 1.140187483	 2.0329947819	-0.0015728118	-0.45087
H	-2.1740678531	 1.4376237963	 0.0406021652	 0.14229
H	-2.2380330338	 5.0957645826	 0.0613183569	 0.206572
H	 0.04835164	 5.050697466	 0.0297169732	 0.265131
H	 2.0079122376	 1.5202742501	-0.0162084672	 0.284423
