19
gdb 106441	2.61938	1.30435	1.03783	1.1819	82.69	-0.2534	0.0434	0.2969	1201.0301	0.158371	-385.800009	-385.791272	-385.790328	-385.833469	33.549	
O	-0.0721983479	 1.4116386019	-0.0040109912	-0.42088
C	-0.0462219308	-0.0085291435	-0.0451088082	-0.223485
C	-1.4660751429	-0.4953902359	-0.0098198536	 0.36556
C	-2.5229021856	-0.2895837518	 1.1157345091	-0.264246
C	-3.2358867543	-1.135708192	 0.0243945927	-0.056855
C	-2.6041118316	-0.1833714302	-1.0292130169	-0.264962
C	-1.925813165	-1.9994723814	-0.0460884116	-0.223255
C	-1.6461618901	-2.8092654545	-1.2142649106	 0.304215
C	-1.3985032492	-3.5006683212	-2.1676216784	-0.446188
H	 0.8336108344	 1.7288960762	-0.0632309601	 0.289627
H	 0.4390808077	-0.3788915667	-0.9621864759	 0.097774
H	 0.5066703407	-0.4259603462	 0.8128982721	 0.085891
H	-2.3243022988	-0.779918168	 2.0735078276	 0.086236
H	-2.8826156728	 0.7317877853	 1.2509111453	 0.103531
H	-4.2536923456	-1.5251653574	 0.0434595309	 0.078923
H	-2.9689332032	 0.8454668497	-1.0342275144	 0.10048
H	-2.4794630264	-0.5774287311	-2.0392926888	 0.107098
H	-1.7065338016	-2.5554588485	 0.8720014112	 0.090057
H	-1.1873213469	-4.1093854347	-3.0115557692	 0.19048
