19
gdb 19427	3.90145	1.90003	1.60536	1.4827	74.6	-0.2245	0.0894	0.3139	871.5542	0.167972	-327.895642	-327.888884	-327.88794	-327.926227	27.704	
C	 0.0879478267	 1.4896953371	 0.0367445861	-0.259187
C	 1.3082755314	 0.6430252704	-0.0420275183	-0.092293
N	-0.0325165716	 0.0248564709	-0.0030629138	-0.098286
C	-0.2863532995	-0.5135138544	-1.3562474006	-0.149967
C	 0.7575195189	 0.0958485122	-2.3253227497	-0.337583
C	 1.9251559746	 0.4328092311	-1.3995426235	 0.409856
C	 3.142437384	 1.1864357921	-1.8616710552	-0.32517
C	 3.2515840036	-0.2790127181	-1.5105487976	-0.317878
H	-0.2002386346	 1.937515067	 0.9835232788	 0.112933
H	-0.1963005219	 2.0692366033	-0.8385558342	 0.10733
H	 1.9371413912	 0.5087814849	 0.8348550466	 0.084508
H	-0.1632308897	-1.6000400321	-1.2951362263	 0.108668
H	-1.3196138951	-0.3123657666	-1.6552635891	 0.103246
H	 1.0368380095	-0.596922746	-3.1234688721	 0.101673
H	 0.3704892097	 0.9997285474	-2.8080705019	 0.105495
H	 3.1999135331	 1.4677029723	-2.9082822532	 0.110796
H	 3.5866410428	 1.9083680481	-1.1841235134	 0.113134
H	 3.7684677926	-0.5469290274	-0.5942579339	 0.112372
H	 3.3817576643	-0.9907406723	-2.3193751487	 0.110354
