19
gdb 101762	4.27054	0.77901	0.70489	3.813	69.21	-0.2557	-0.0069	0.2489	1603.2654	0.156795	-497.332294	-497.322048	-497.321103	-497.368801	35.911	
C	-0.1365949368	 1.2944165233	 0.2588473516	-0.475701
C	-0.5238474825	-0.0749580864	-0.2375235813	 0.437002
O	-0.8084738638	-0.3335749502	-1.3873451918	-0.368979
O	-0.5027007548	-0.9716774152	 0.7573088109	-0.233276
C	-0.7066320689	-2.3690492536	 0.4337999191	-0.114877
C	-2.1345607945	-2.7246057169	 0.0086041731	 0.094445
O	-2.3251789379	-2.6485723911	-1.3915059734	-0.457457
C	-2.470550917	-4.1721680122	 0.3823422503	-0.050026
O	-3.7353758882	-4.5384193417	-0.1165858331	-0.425826
H	 0.9185710031	 1.2937005504	 0.5487279211	 0.157924
H	-0.2997030362	 2.0280425865	-0.529311047	 0.154253
H	-0.7178609852	 1.5526383339	 1.1474315793	 0.156568
H	-0.0066630756	-2.6638920756	-0.3539343759	 0.133732
H	-0.4426841765	-2.8789877147	 1.3634166631	 0.123301
H	-2.8317917616	-2.0552833744	 0.5398073294	 0.078745
H	-1.9180217263	-1.8216281197	-1.6934500942	 0.307277
H	-1.6748477191	-4.8320546138	-0.0055555535	 0.084512
H	-2.5009465429	-4.2840273387	 1.4716460996	 0.102271
H	-3.7549884354	-4.21499283	-1.0265659174	 0.296111
