20
gdb 61906	3.50678	0.82598	0.7096	3.7106	83.26	-0.237	0.0284	0.2654	1611.0333	0.167948	-403.147336	-403.136498	-403.135553	-403.184234	37.843	
C	-0.0899006346	 1.4965837114	 0.0996440492	-0.347044
N	 0.0016414125	 0.0515839734	 0.0082086803	-0.066018
C	 0.0791086025	-0.6839108899	 1.2650925887	-0.167346
C	-1.3051151795	-1.1749498506	 1.7495053654	-0.348809
C	-1.2303935583	-1.8225410878	 3.0513233833	 0.295528
C	-1.1294197924	-2.3440989652	 4.1296397848	-0.440496
C	-0.0318487625	-0.6781613951	-1.1546108929	 0.393556
C	-0.0802336078	 0.0806445424	-2.4737255517	-0.500657
O	-0.0170059276	-1.8992732602	-1.1299012357	-0.378996
H	-0.2187551513	 1.9416375707	-0.8849223456	 0.140801
H	-0.9458949214	 1.7977284651	 0.7172290174	 0.129686
H	 0.8154747031	 1.9213903892	 0.5525459323	 0.130688
H	 0.7290779283	-1.5483083111	 1.1222783757	 0.147984
H	 0.5271048275	-0.0306453732	 2.0193961075	 0.10893
H	-2.0014139711	-0.3277170084	 1.7965845064	 0.122598
H	-1.6946417514	-1.8711255838	 0.9993512723	 0.159456
H	-1.0567760261	-2.8148481678	 5.078436692	 0.194924
H	 0.7590524063	 0.7743134503	-2.5826435153	 0.136689
H	-0.0376520265	-0.6602942846	-3.2711564862	 0.150328
H	-1.0060555596	 0.6559231052	-2.5767895179	 0.138199
