15
gdb 10126	2.70639	1.6007	1.1866	0.8461	58.87	-0.2659	-0.0432	0.2227	1002.8468	0.117208	-436.962999	-436.95441	-436.953466	-436.996782	29.418	
O	 0.156858232	 0.9604137176	 0.350077423	-0.414891
C	-0.2615089656	-0.3493828203	 0.0268826979	-0.089196
C	-1.7805146466	-0.4152242834	-0.2339297978	-0.080207
N	-2.5562610774	-0.0417159743	 0.9312065131	-0.291605
C	-2.7754449085	-0.9107060517	 1.9564627687	 0.14906
O	-2.2271081876	-1.986372826	 2.0744428916	-0.31937
C	-2.1499417964	 0.5128038602	-1.3754117675	 0.173204
O	-2.987388906	 1.3747832829	-1.2922253102	-0.256516
H	-0.2916443455	 1.2097336326	 1.1658464722	 0.290342
H	 0.2757674126	-0.6344854402	-0.8841917796	 0.117822
H	-0.0174492082	-1.0769044039	 0.8101495333	 0.137285
H	-2.0192978669	-1.4464677378	-0.5380058782	 0.125448
H	-3.1789478499	 0.7449900439	 0.7951959218	 0.264901
H	-3.5045705874	-0.5160555916	 2.690242433	 0.089452
H	-1.5786209885	 0.3421150621	-2.3106845214	 0.104269
