18
gdb 75251	3.98813	1.14028	1.03191	0.9412	72.62	-0.2492	0.0228	0.272	1198.189	0.147663	-439.088752	-439.080462	-439.079518	-439.122388	30.252	
C	-0.176726106	 1.4567533679	 0.1655562331	-0.476571
C	-0.0097452762	-0.006747329	-0.0543283068	 0.392026
N	-0.218855559	-0.6450443282	-1.1316431856	-0.299949
C	 0.0847584222	-2.0495816518	-0.8443240577	-0.263082
C	 0.5165544967	-2.0820222171	 0.6405458253	 0.319307
C	-0.1349279854	-3.0739072265	 1.6253478552	-0.122183
O	 1.1305372386	-3.71343323	 1.8838489254	-0.269783
C	 1.8347559254	-2.7639721268	 1.059338357	-0.122187
O	 0.4156084096	-0.707299772	 1.0420699562	-0.278025
H	 0.7716006673	 1.9032554842	 0.4806607899	 0.146548
H	-0.5166351183	 1.9288845039	-0.7553965741	 0.154439
H	-0.9030122455	 1.6396157352	 0.9636937014	 0.146531
H	-0.7977430368	-2.6732343672	-1.029205487	 0.119611
H	 0.8775046681	-2.4095639927	-1.5105834081	 0.119609
H	-0.5556936633	-2.5951385294	 2.5178337305	 0.112361
H	-0.8692676558	-3.766453889	 1.1950304566	 0.104493
H	 2.4002166502	-3.2519920341	 0.2555097432	 0.104493
H	 2.5010957282	-2.1141447473	 1.6394328353	 0.112361
