19
gdb 63942	2.39394	1.59868	1.41461	1.8312	70.45	-0.2456	0.0494	0.2949	1023.514	0.156813	-460.125473	-460.116428	-460.115484	-460.159036	34.685	
C	 0.1239494375	 1.5539759134	-0.1493610127	-0.451706
C	 0.0597166086	 0.0381679935	-0.0422451385	 0.365595
O	-1.2769014301	-0.4104206823	-0.2059069522	-0.488805
C	 0.9831271402	-0.8224017521	-0.9654068751	-0.267847
C	 1.4882413164	-1.6229446873	 0.2602525629	 0.025868
O	 2.7399467491	-1.1161943419	 0.769667859	-0.285371
C	 2.0773193614	-0.2050370364	 1.6713822716	-0.142153
C	 0.6828355201	-0.6684531383	 1.2034032036	 0.281812
O	-0.2776776806	-0.9790062498	 2.1673723642	-0.48438
H	 1.1520870497	 1.9271586067	-0.1203756727	 0.112576
H	-0.3262237126	 1.8685637848	-1.0956810077	 0.128946
H	-0.4407451425	 2.0225762468	 0.6638820252	 0.117145
H	-1.6177712013	-0.6026993503	 0.6769224225	 0.290014
H	 0.3953932475	-1.3939208405	-1.6849371971	 0.116443
H	 1.7888664977	-0.2878354021	-1.4727285927	 0.10587
H	 1.4461887904	-2.7143897644	 0.2443301976	 0.079836
H	 2.2781307001	-0.4582591594	 2.7224907432	 0.092869
H	 2.3546698697	 0.8415260394	 1.5028620842	 0.10963
H	 0.0745769787	-1.6356723397	 2.7769226747	 0.293658
