15
gdb 71514	3.10836	1.62341	1.44622	5.3162	64.69	-0.2646	0.0032	0.2678	920.2301	0.113588	-457.753944	-457.747236	-457.746292	-457.784905	26.817	
O	-0.0525293886	 1.3713248319	-0.0271710674	-0.462475
C	 0.0412360247	 0.0021130556	-0.0341840496	 0.381243
C	 0.6093312936	-0.9507920616	-1.1172160123	-0.326894
C	 0.0170939862	-1.8787704389	-0.032267375	-0.083555
C	 0.5847502867	-0.9586151223	 1.0784543394	 0.04481
O	-0.3003013793	-0.944760959	 2.2006938255	-0.248874
C	-1.5437692642	-0.9121570802	 1.6048971442	 0.451457
O	-2.5751247184	-0.8987577933	 2.2032842902	-0.341778
C	-1.2174723599	-0.9137439505	 0.1271823575	-0.234461
H	 0.83078893	 1.7504707362	-0.0961933863	 0.292845
H	 0.0964833275	-0.9453271305	-2.0806079269	 0.116575
H	 1.6965659308	-0.9718799801	-1.2425925707	 0.098738
H	-0.0183962712	-2.9647482598	-0.0218536286	 0.10603
H	 1.6249057721	-0.9846610472	 1.3963279945	 0.101545
H	-2.0305814802	-0.8966912402	-0.5932596046	 0.104795
