19
gdb 72940	2.82211	1.73468	1.50158	2.1336	73.76	-0.2421	0.0626	0.3047	964.2602	0.159861	-422.967255	-422.959792	-422.958848	-422.998864	29.821	
C	 0.2445042621	 1.6352968737	 0.0521296065	-0.478581
C	 0.0513413464	 0.1419744706	 0.0580766733	 0.44347
O	-1.3220618188	-0.2458531717	 0.3051459181	-0.330131
C	-0.9305016677	-1.1289391886	 1.3926826718	-0.096277
C	 0.5582654379	-0.8577358913	 1.1434274041	-0.160037
C	 1.2130502533	-1.7148549449	 0.0154062507	 0.107543
O	 0.3749071738	-2.7465032109	-0.5393189588	-0.293154
C	-0.0457105044	-1.8801324625	-1.6311299286	-0.091722
C	 0.7557545221	-0.6992841514	-1.0640335084	-0.139671
H	 1.301368013	 1.8932230115	-0.0726037867	 0.117252
H	-0.3147160435	 2.0818611673	-0.7782249297	 0.130161
H	-0.1177835464	 2.0793211011	 0.9839462311	 0.124315
H	-1.3056338832	-0.7562099847	 2.3529606701	 0.099329
H	-1.2649947996	-2.1567093797	 1.2294162353	 0.122985
H	 1.1921952053	-0.5746348754	 1.9838035031	 0.073419
H	 2.2417757646	-2.0495250409	 0.174520156	 0.076319
H	 0.3241341155	-2.2583604821	-2.5912950555	 0.099399
H	-1.1312158847	-1.7556578412	-1.6644304239	 0.123383
H	 1.4328499842	-0.160549199	-1.7266648985	 0.071996
