23
gdb 119605	3.83242	0.93143	0.85239	1.1889	85.81	-0.2241	0.0862	0.3103	1490.3614	0.206277	-388.292225	-388.283015	-388.282071	-388.326435	35.233	
C	-0.023817225	 1.6021368641	-0.1575949787	-0.383481
C	-0.0463690662	 0.0726683657	-0.1101907373	-0.156587
C	-1.4552872703	-0.4961824576	 0.1100895888	-0.267265
C	-1.4842354068	-1.9988904907	 0.1901432455	 0.47817
C	-1.5136355342	-2.8813944153	-1.0372121682	-0.359272
C	-2.6789969318	-2.8773284647	-0.0570812587	-0.12922
C	-2.6607782278	-3.9222166235	 1.0458504679	-0.237871
C	-1.2225700907	-3.8076064375	 1.6001188224	-0.094689
O	-0.7754982693	-2.4852130001	 1.3121511239	-0.302079
H	 0.9907681825	 1.9813934109	-0.3149762248	 0.110044
H	-0.6516591316	 1.9853034899	-0.9704429299	 0.109057
H	-0.3981573881	 2.0332677875	 0.7777680586	 0.113214
H	 0.3620123635	-0.3341252903	-1.0439611085	 0.093516
H	 0.6064734417	-0.287236728	 0.6923700226	 0.115952
H	-1.87413817	-0.088247358	 1.0395318115	 0.098169
H	-2.1174066805	-0.1756771695	-0.7039334248	 0.091135
H	-1.6763113499	-2.3944672862	-1.9931322527	 0.109469
H	-0.8658619001	-3.7504952843	-1.0883826974	 0.111395
H	-3.630661484	-2.4659203567	-0.3742572764	 0.086215
H	-3.3988828618	-3.6582359731	 1.8108000111	 0.106627
H	-2.8813820843	-4.9381849824	 0.7038339862	 0.103039
H	-1.1578207411	-3.9575906993	 2.681582832	 0.107625
H	-0.5622774645	-4.5439900907	 1.1207333668	 0.096835
