18
gdb 78561	2.71391	1.49328	1.16636	1.0678	71.94	-0.2308	0.0661	0.2969	1079.5928	0.146854	-439.011336	-439.002879	-439.001935	-439.043966	33.02	
O	-0.1465710491	 1.3972610252	 0.0421607618	-0.439387
C	-0.1222601036	 0.0056689797	-0.0797716564	 0.05797
C	-1.3420032515	-0.8881689701	-0.0325779993	-0.275612
C	-2.4517744778	-0.1802328865	-0.7753575099	 0.351919
C	-3.9087347776	-0.2985875115	-0.6145785923	-0.322795
N	-3.2209929371	 0.9659713868	-0.2541344093	-0.375835
C	-1.627040035	-0.1219607561	-2.0760123595	-0.372889
C	-0.4659520433	-0.7750016363	-1.3103439563	 0.33147
O	 0.3454989135	-1.7590560645	-1.8432762164	-0.456538
H	-1.0098379835	 1.7196044498	-0.2450754437	 0.304589
H	 0.7313045892	-0.3992637067	 0.4572006792	 0.108849
H	-1.4555065962	-1.6978045295	 0.679443948	 0.096241
H	-4.5557914467	-0.2327841978	-1.4852415083	 0.123878
H	-4.2925887163	-0.9219373725	 0.1891387992	 0.118527
H	-3.1188526933	 1.0063361712	 0.7583859796	 0.236176
H	-2.023907245	-0.7949579543	-2.8398769762	 0.118986
H	-1.4517544244	 0.8671057857	-2.511018798	 0.103557
H	 1.1586844976	-1.3460537026	-2.154497292	 0.290895
