18
gdb 41650	3.15632	2.08319	1.68758	0.9852	73.09	-0.2041	0.0915	0.2957	847.0022	0.151387	-401.881912	-401.875923	-401.874979	-401.911863	26.016	
C	-0.0428546156	 1.4018785133	-0.1948012062	-0.080723
C	 1.3578954233	 1.997983167	-0.0132278661	-0.178774
N	 2.0453693319	 1.5368424756	 1.2020001253	-0.095879
C	 1.2974503708	 1.5368257737	 2.4678593808	-0.035933
C	 0.3471582245	 0.3196374222	 2.4889592718	-0.151142
C	 1.8162184672	 0.1965519771	 2.8708538315	-0.113991
C	 2.0971259158	 0.0475203676	 1.33829226	-0.073569
C	 0.6162306851	-0.4007383118	 1.1649048998	 0.145302
O	-0.0440219617	-0.009905142	-0.0138583713	-0.27351
H	-0.7458626043	 1.8697702497	 0.5104644217	 0.096231
H	-0.4137702437	 1.5836011712	-1.2079878656	 0.105155
H	 1.9944140214	 1.7199406814	-0.8620073754	 0.108738
H	 1.2943403774	 3.0926123327	 0.0063005958	 0.101466
H	 1.1261669562	 2.4292277135	 3.0568893699	 0.094817
H	-0.521590622	 0.2638472244	 3.1314517743	 0.088227
H	 2.3099376908	-0.1648552119	 3.7588783991	 0.102103
H	 2.9189698963	-0.4654168053	 0.8409290259	 0.073728
H	 0.4991424267	-1.4825134985	 1.2574172888	 0.087752
