19
gdb 89220	3.10632	1.58109	1.28152	2.5137	73.59	-0.2324	0.0682	0.3005	1028.491	0.160147	-422.994173	-422.986569	-422.985625	-423.025868	30.905	
C	-0.0321840299	 1.4734877856	 0.0836197298	-0.491006
C	 0.0164677441	-0.0277065851	-0.0555138088	 0.296896
C	 0.9984236812	-0.6776780994	-1.026069199	-0.323665
C	 0.3935085967	-2.0809228233	-1.3553851636	 0.164712
O	 1.3165736384	-3.1460441141	-1.3093633291	-0.446109
C	-0.7002520598	-2.2297374306	-0.2946067954	 0.043277
O	 0.0114784492	-2.2344514634	 0.995454543	-0.32844
C	-0.3516998098	-0.858523092	 1.1616062638	 0.0635
C	-1.2780539907	-0.8336838434	-0.0175071907	-0.203196
H	 0.9308263718	 1.8703322046	 0.4239152335	 0.124259
H	-0.2709691566	 1.9522327364	-0.8730410678	 0.121049
H	-0.7930935143	 1.7836417608	 0.8082475466	 0.117061
H	 1.1073826117	-0.0662491824	-1.9274997469	 0.100529
H	 1.9974800903	-0.8001966803	-0.5952692288	 0.104221
H	-0.0409893523	-2.0938925734	-2.3609319824	 0.085764
H	 1.5691671858	-3.225065208	-0.3793444663	 0.285492
H	-1.355033731	-3.0965361103	-0.3908354162	 0.085571
H	-0.4354824804	-0.4753789626	 2.172579814	 0.102981
H	-2.2874691944	-0.4693193593	-0.1490304756	 0.097104
