23
gdb 88441	2.12097	1.40782	1.08996	1.8774	86.48	-0.2342	0.0739	0.3081	1267.6906	0.204816	-384.428229	-384.418036	-384.417091	-384.463457	38.257	
C	-1.6790355005	-0.5182376418	 2.2673964127	-0.380067
C	-0.7561393995	-0.7598754926	 1.0984601447	 0.013249
N	-0.4119630269	 0.3975106553	 0.2575676121	-0.348682
C	 0.6637177448	-0.3131331527	 0.9757350751	-0.095969
C	 1.4868853598	 0.4820263379	 1.9581392484	 0.324989
C	 2.1542805615	 1.687532172	 1.3225993114	-0.459365
N	 0.9909142247	 0.6127188345	 3.3416116534	-0.365488
C	 2.1922017815	-0.2023326536	 3.0815471151	-0.038408
C	 2.0941313738	-1.6808898923	 3.372591538	-0.402118
H	-1.4482732453	 0.4226330273	 2.7633800207	 0.142728
H	-2.7168243036	-0.4964675991	 1.915078855	 0.102868
H	-1.5896838891	-1.3199097837	 3.0078096078	 0.110761
H	-0.9658779211	-1.689207494	 0.5657484256	 0.074378
H	-0.4108095624	 0.1486517025	-0.7275557972	 0.225269
H	 1.2910652734	-0.9645116702	 0.363790118	 0.078117
H	 1.3956543298	 2.3810811558	 0.9473499181	 0.140287
H	 2.7918380583	 2.2128197918	 2.0416385454	 0.103971
H	 2.7811589013	 1.3907474365	 0.4735835222	 0.114277
H	 1.24949052	 1.5233588154	 3.7136836863	 0.223318
H	 3.1479527449	 0.24266534	 3.3596053335	 0.074376
H	 1.122545575	-2.0768153882	 3.0701171465	 0.132429
H	 2.8759848204	-2.2363172075	 2.8423903867	 0.111398
H	 2.2169640592	-1.8703013532	 4.4444769605	 0.11768
