16
gdb 11760	4.75059	1.73533	1.5765	0.7203	75.7	-0.2307	0.0087	0.2394	844.8418	0.131162	-309.400561	-309.39403	-309.393086	-309.430815	26.983	
C	 0.0260778974	-1.2155735844	-0.0079589679	-0.343525
C	 0.0151454114	-0.0126450161	-0.0037641076	 0.032826
C	 0.0117773907	 1.4268710893	 0.012774293	 0.240369
C	-0.3005993175	 2.2680833237	 1.3132808545	-0.238806
C	 0.3641694398	 3.4000229278	 0.4607292763	-0.103584
C	 1.3347668202	 2.2876855271	-0.0595553979	-0.238806
C	-0.6224753828	 3.4768039589	-0.7134955857	-0.091186
C	-0.8555769843	 2.1975820321	-1.0094417563	-0.12684
H	 0.0346219878	-2.2771912665	-0.0129998664	 0.177167
H	-1.3525617659	 2.3837384906	 1.5809977687	 0.101237
H	 0.2969598227	 1.9527058282	 2.1733787581	 0.102948
H	 0.7263799427	 4.3252098267	 0.9054163086	 0.067918
H	 2.0827740807	 1.9741113049	 0.6742460809	 0.102948
H	 1.7789078132	 2.4212745339	-1.047769053	 0.101237
H	-1.0140378799	 4.3758881315	-1.1670990748	 0.104912
H	-1.4813121764	 1.7403156123	-1.7613672204	 0.111185
