16
gdb 46128	3.69962	1.00774	0.82407	4.8845	70.94	-0.265	0.0393	0.3043	1333.0788	0.124454	-437.903215	-437.894829	-437.893884	-437.93693	30.687	
O	-0.0079992692	-0.0577653082	-0.0377758358	-0.384235
C	-0.0391687926	 1.1393833612	-0.0264048925	 0.473289
N	-1.1120937923	 1.967186145	-0.2923108937	-0.364441
C	-0.8438730369	 3.3258716603	 0.1310941971	-0.212127
C	 0.7000167598	 3.3124054737	 0.1146844168	 0.135738
C	 1.3409869968	 4.1295076614	 1.2387989617	-0.375077
C	 2.7929509942	 4.2025744415	 1.1472710556	 0.29792
C	 3.9885605493	 4.2672289033	 1.0554202615	-0.421376
O	 1.0463063963	 1.9266599089	 0.2534355672	-0.24507
H	-2.0302026788	 1.5578148387	-0.2331245134	 0.26371
H	-1.2512622563	 4.067264853	-0.5618064262	 0.126402
H	-1.231745898	 3.5407992927	 1.1383732596	 0.110747
H	 1.0757609268	 3.6570707411	-0.8554874296	 0.111216
H	 0.9157393135	 5.141870937	 1.2068134507	 0.136486
H	 1.0410799974	 3.6906137363	 2.1982939063	 0.144345
H	 5.0468112898	 4.315628524	 0.9820276347	 0.202472
