18
gdb 80949	2.51371	1.34051	1.21717	2.5679	77.01	-0.2602	0.0146	0.2748	1126.8562	0.14602	-401.907589	-401.898907	-401.897963	-401.940606	32.792	
C	-0.046425846	 1.6172205874	 0.0094771494	-0.43803
C	-0.0322379017	 0.1015849435	-0.0044294268	-0.03164
C	 1.2129632146	-0.6329269122	-0.5651698927	 0.031221
O	 1.9934636845	-0.1970167596	 0.6065115083	-0.338244
C	 0.6902134372	-0.6543613692	 1.1588695433	 0.396931
C	 0.4744844169	-0.6041442574	 2.6364169325	-0.521359
C	 0.8362646231	-1.9162791354	 0.2337317855	-0.185234
C	-0.3246952375	-2.7112760639	-0.1223000021	 0.268383
N	-1.2524263956	-3.344886705	-0.3972644523	-0.340426
H	 0.9277879113	 2.0109166368	 0.3062125209	 0.140108
H	-0.2951344626	 2.0098602261	-0.9818605216	 0.123606
H	-0.8033725196	 1.9912699373	 0.7069752818	 0.121937
H	-0.9945577681	-0.3253326234	-0.3014530535	 0.103024
H	 1.6896593557	-0.5738388405	-1.5430448062	 0.109396
H	 0.4917803775	 0.431441515	 2.9888320293	 0.143123
H	-0.4966185941	-1.0412596385	 2.8878350904	 0.144909
H	 1.2560102386	-1.1631255591	 3.1590662226	 0.141922
H	 1.6981227659	-2.5352046321	 0.4857645112	 0.130373
