17
gdb 24276	3.95048	1.64719	1.2819	2.5317	78.32	-0.1711	0.0545	0.2256	968.5746	0.139873	-380.87952	-380.872965	-380.87202	-380.910223	27.403	
C	-0.0204153707	 1.4666714279	 0.1308636394	-0.323778
C	 1.310599929	 0.7408471878	-0.0108861084	-0.014293
N	 2.0611907998	 0.3318128913	 1.1643449291	-0.416371
C	 1.1919199892	-0.4664873581	 1.9378932494	 0.358552
C	 1.1112421117	-1.0596864522	 3.1737507941	-0.314393
C	-0.1449085457	-1.7537654065	 3.1871376027	-0.129809
C	-0.7778183796	-1.5511729589	 1.9832994305	-0.155907
N	 0.0654611437	-0.7671724362	 1.2203476511	 0.013876
C	 0.0155844593	-0.0395992496	-0.0112134862	-0.020059
H	-0.3005957189	 1.8717842287	 1.0969563789	 0.12951
H	-0.3500678751	 2.039600618	-0.7292156101	 0.119736
H	 1.8917277188	 0.8810273084	-0.9147242005	 0.108627
H	 2.4957618688	 1.0925479961	 1.6714493259	 0.242882
H	 1.8443539203	-1.0248066319	 3.9632739419	 0.086665
H	-0.5249821813	-2.3555923661	 3.9990527737	 0.089431
H	-1.7187304761	-1.9067311169	 1.5979922939	 0.110956
H	-0.3829076431	-0.5488174517	-0.8802503554	 0.114375
