23
gdb 103373	2.93904	1.36807	1.24771	1.3241	84.65	-0.253	0.0701	0.3232	1155.0772	0.207265	-388.288154	-388.279521	-388.278577	-388.320816	35.14	
C	 0.8248407534	-0.4637951614	 1.2882209707	-0.377066
C	 0.0403348016	-0.0456862538	 0.0390632174	-0.270837
C	-1.386803006	-0.602411348	-0.0013298069	 0.47642
O	-2.1092673053	-0.1251586365	 1.1237490173	-0.491307
C	-2.1092788586	-0.5424710176	-1.3961421884	-0.094223
C	-1.353888024	-1.860760065	-1.7333374059	-0.241351
C	-1.5592192622	-2.1375328219	-0.2157504532	-0.065559
C	-3.093586213	-2.2967808968	-0.1494467279	-0.210843
C	-3.5109722247	-1.0778176798	-1.043230593	-0.20701
H	 1.7985221657	 0.0341646265	 1.3242450442	 0.10753
H	 0.2730965189	-0.209163142	 2.1967827552	 0.123953
H	 1.0026573867	-1.5438994328	 1.3005395321	 0.118914
H	-0.0336167319	 1.0523332058	 0.0046991252	 0.08162
H	 0.5965510531	-0.3262723237	-0.8590803335	 0.103187
H	-1.9913372661	 0.8294946167	 1.1722317185	 0.273773
H	-2.0463531512	 0.340724005	-2.0353310645	 0.047577
H	-1.8496134062	-2.5464085506	-2.4256403362	 0.090512
H	-0.3155927405	-1.726846669	-2.0344270196	 0.096648
H	-0.9555143919	-2.8626755446	 0.3311906066	 0.056114
H	-3.4136329082	-3.2561576964	-0.565932099	 0.08648
H	-3.4766203754	-2.2137857163	 0.8681958723	 0.111248
H	-4.1052154618	-0.349374254	-0.4889104475	 0.097019
H	-4.0686020423	-1.3746991938	-1.9360084637	 0.087201
