19
gdb 63203	2.71924	1.6196	1.56161	1.5863	75.29	-0.2344	0.001	0.2355	974.4273	0.159403	-423.009042	-423.001095	-423.000151	-423.040812	32.167	
C	-0.0641045291	 1.5470873265	 0.0221120707	-0.450893
C	 0.0044486803	 0.0188807724	-0.007248243	 0.351665
O	-1.308783053	-0.5523013211	 0.0408871792	-0.475449
C	 0.7615433454	-0.4802755762	-1.2325772633	-0.113935
C	 1.8627502051	-1.2106894585	-1.0662819374	-0.069543
C	 2.2703630767	-1.4696051183	 0.3684484871	 0.038242
C	 1.0469241608	-2.0219561599	 1.1449334357	-0.251896
C	 0.7278204516	-0.5183427459	 1.2479607982	 0.071107
O	 2.1427932402	-0.2149827432	 1.1146598999	-0.299867
H	 0.9389254646	 1.9665272577	 0.1319422179	 0.144849
H	-0.4976971237	 1.9381801956	-0.9063230877	 0.101473
H	-0.686370944	 1.8789829127	 0.8596690925	 0.119158
H	-1.8358280826	-0.148792278	-0.6568968792	 0.277558
H	 0.3657933385	-0.2215990616	-2.2122531197	 0.086111
H	 2.4366317047	-1.6216816547	-1.8902756818	 0.095698
H	 3.2536167821	-1.927360732	 0.4900373503	 0.076229
H	 0.3475259755	-2.6710011968	 0.6197144613	 0.117818
H	 1.3252447562	-2.4352281733	 2.1158261399	 0.104796
H	 0.2886146007	-0.1203966854	 2.1665858893	 0.076877
