17
gdb 37948	3.35239	1.72553	1.32716	3.0226	73.36	-0.2437	0.0105	0.2542	947.6282	0.139663	-417.930627	-417.923998	-417.923054	-417.962071	26.203	
C	-0.0372120596	 1.5662231415	-0.1448711831	-0.125097
O	 1.1323745008	 2.3063760156	 0.2145568734	-0.221408
C	 1.8989901502	 1.9640514352	 1.2754470097	 0.115889
N	 2.0885725932	 0.8655974091	 1.8619373827	-0.289813
C	 1.5419118993	-0.3993697867	 1.4913532873	 0.109057
C	 1.22625306	-0.8485976267	 0.0195107073	-0.093461
N	 0.4225378374	-1.9632881181	 0.6665722139	-0.314187
C	 0.012231376	-0.6899045338	 1.3881519287	-0.084023
C	-0.0411809551	 0.0555197537	 0.0235678781	-0.010271
H	-0.8882864513	 1.9897223035	 0.4081413238	 0.116208
H	-0.1874678457	 1.8052232895	-1.2018684132	 0.12441
H	 2.4503841317	 2.8463775901	 1.6015318747	 0.122779
H	 2.0562465826	-1.1872369787	 2.0421927877	 0.100392
H	 1.9304649239	-1.0431779528	-0.7911825357	 0.085707
H	-0.3305129285	-2.2394428235	 0.0290930558	 0.207866
H	-0.7233081768	-0.6925348911	 2.1949685645	 0.084162
H	-0.8431573782	-0.3280530369	-0.6218003157	 0.071789
