16
gdb 100238	2.40988	1.22221	1.04524	3.9825	71.08	-0.2822	0.011	0.2933	1186.7423	0.120302	-437.850419	-437.840166	-437.839222	-437.885698	36.205	
O	 0.0434795858	 1.4194449149	 0.0124955727	-0.42044
C	 0.0577760754	 0.0086473139	-0.0808648932	-0.099555
C	-1.3964870234	-0.4896601196	-0.0045589128	 0.132645
O	-1.2873398101	-1.906063431	 0.031332202	-0.449014
C	-2.0939234083	 0.0496010491	 1.2821161138	-0.354142
C	-1.4289587664	-0.3950852787	 2.503241447	 0.270254
N	-0.898075884	-0.7343087119	 3.4717374102	-0.317566
C	-2.1760618569	-0.0493793092	-1.1663997684	 0.316941
C	-2.8558090009	 0.2658217741	-2.1057801031	-0.449472
H	 0.9449830691	 1.7248451958	 0.1450494676	 0.300643
H	 0.4886372774	-0.343291841	-1.0271337083	 0.112027
H	 0.6052722311	-0.4590871528	 0.7479713508	 0.129348
H	-2.1271142798	-2.2823444401	-0.2527536607	 0.29279
H	-2.0931664539	 1.142131936	 1.249310095	 0.179572
H	-3.1344965749	-0.2889679426	 1.2940533935	 0.14771
H	-3.43851499	 0.554596633	-2.9461384561	 0.208259
