17
gdb 75846	3.1627	1.2492	0.93985	2.1687	83.87	-0.2395	-0.0311	0.2084	1215.8374	0.134053	-384.699451	-384.690653	-384.689708	-384.733204	32.791	
C	-0.1181974191	 1.5772412213	 0.0196837913	-0.393426
C	 0.0260721022	 0.049368727	 0.0334781626	-0.229222
C	 0.8383081509	-0.4696058574	-1.1677141762	 0.398005
O	 0.6353261912	-0.1812701568	-2.3173066201	-0.310997
C	 1.9570246384	-1.3878030951	-0.6518181657	-0.370153
C	 1.8146435668	-1.2991119455	 0.8380349277	-0.190433
C	 0.7795171853	-0.5301036097	 1.2200561724	 0.178237
C	 0.3834674023	-0.2654456987	 2.5528050911	 0.231043
C	 0.0053712482	-0.0122155287	 3.6688399581	-0.414065
H	 0.8590424605	 2.0637023801	 0.0989875517	 0.12111
H	-0.5842570301	 1.8934836197	-0.9167840852	 0.139765
H	-0.7346206481	 1.914288227	 0.8569790823	 0.12975
H	-0.9792871332	-0.3919039323	-0.0280403728	 0.11757
H	 1.8166858482	-2.4047332234	-1.0434406383	 0.143692
H	 2.9313277123	-1.0520143519	-1.0293782643	 0.143326
H	 2.4758854227	-1.8096018462	 1.5274335574	 0.109638
H	-0.3150837984	 0.2014813006	 4.6584828981	 0.19616
