16
gdb 16682	4.32401	1.73802	1.62722	4.5408	64.16	-0.2599	0.0154	0.2753	842.7862	0.13209	-383.758402	-383.751873	-383.750929	-383.788896	25.666	
C	-0.1741933296	 1.5373133637	 0.0040647041	-0.440514
C	 0.0192469298	 0.028454141	 0.0298141563	 0.029103
C	 1.1586566385	-0.6090105683	-0.8122684025	 0.090724
C	 2.1558110549	-0.2286183936	 0.3020059909	-0.251507
C	 0.9095405395	-0.5845462499	 1.1860616573	-0.196964
C	 0.7735759251	-2.0525377429	 0.8092603922	 0.452201
O	 0.5627027412	-3.0395841783	 1.4452752676	-0.351323
O	 0.9502402148	-2.0325964867	-0.5583491422	-0.246872
H	 0.7507936649	 2.0971119676	 0.1619792608	 0.12403
H	-0.592741534	 1.8496192401	-0.958757146	 0.128502
H	-0.8813603144	 1.8392164167	 0.7831421848	 0.131908
H	-0.9440434061	-0.4714065067	-0.1125644352	 0.096796
H	 1.3147606764	-0.4505264227	-1.8773802006	 0.095957
H	 3.0468140094	-0.8520046859	 0.399480619	 0.122819
H	 2.421503945	 0.8270250844	 0.3303825739	 0.118024
H	 0.8074073545	-0.3331693586	 2.2384518396	 0.097115
