16
gdb 66003	2.87348	1.30843	1.17996	2.9256	64.49	-0.257	-0.004	0.253	1080.5644	0.124131	-475.006842	-474.998627	-474.997683	-475.039947	30.309	
N	-0.0946101703	 1.4544538267	 0.0886215054	-0.576037
C	-0.0121701816	 0.0236284555	 0.0132121188	 0.071988
C	 0.8994610597	-0.6930568215	-1.0356783599	-0.126451
O	 1.6501749664	-1.331603412	 0.0430060653	-0.242207
C	 0.9583870159	-0.6566155845	 1.017571494	 0.433486
O	 1.1394549103	-0.6763753143	 2.189731274	-0.315231
C	-1.4038820001	-0.5822955745	 0.1007735776	 0.069996
C	-2.469486347	 0.0363977925	 0.892077636	-0.17971
O	-2.4432579894	 0.1548786129	-0.54197966	-0.25102
H	 0.7961505697	 1.9044332131	-0.0826830266	 0.24097
H	-0.7823747084	 1.7948573517	-0.575752822	 0.251961
H	 0.4352760582	-1.4397873919	-1.6834513008	 0.1263
H	 1.5418817169	-0.0242191401	-1.6135347352	 0.118923
H	-1.4392152123	-1.6584896178	-0.0694046784	 0.105977
H	-3.2690996943	-0.5874142973	 1.2857572739	 0.125299
H	-2.2567020738	 0.9533939814	 1.4330188382	 0.145756
