20
gdb 93956	3.86617	1.07187	0.99948	2.9102	74.73	-0.2401	0.0821	0.3222	1271.3992	0.171749	-440.260415	-440.251668	-440.250723	-440.294894	32.153	
C	-0.4233856181	 1.06850912	-0.3813763663	-0.410284
C	 0.1844017328	-0.3047999535	-0.1656158718	 0.120983
C	 1.4651566025	-0.600246604	-0.9480677537	-0.096554
O	 2.1303796992	-1.5563138901	-0.1323026787	-0.277938
C	 1.7287618931	-1.326887661	 1.2092057034	 0.184798
O	 0.638965471	-0.4192822361	 1.1845480378	-0.277255
C	 1.3678179433	-2.6392744788	 1.8760252176	-0.009184
C	 0.7539794473	-3.7451658814	 1.1060595147	-0.234839
N	 2.1490949954	-3.8471007236	 1.5755039118	-0.328769
H	 0.3123647652	 1.8509632343	-0.1735281081	 0.126706
H	-0.7709988474	 1.1752756432	-1.4139440323	 0.119905
H	-1.2790096723	 1.2155200082	 0.2827198352	 0.134774
H	-0.5625316872	-1.0863602712	-0.3734257465	 0.079015
H	 1.2932453726	-1.0436476584	-1.9319456534	 0.11609
H	 2.0742441863	 0.3091276778	-1.061847444	 0.098919
H	 2.5429494407	-0.8357036398	 1.7656721001	 0.084214
H	 1.1120238317	-2.5215760762	 2.9267237339	 0.097259
H	 0.0538588048	-4.4156766325	 1.595646457	 0.116307
H	 0.5858129275	-3.5923265284	 0.044981165	 0.113948
H	 2.7619740716	-3.6411960386	 0.7881989083	 0.241905
