18
gdb 74082	2.9316	1.43097	1.04872	5.0189	81.97	-0.2106	-0.0232	0.1874	1160.854	0.14769	-401.984031	-401.975616	-401.974672	-402.01692	32.161	
C	 0.0137031756	 1.4907418955	 0.0842177013	-0.495845
C	-0.0328475288	 0.0034984014	-0.0391629776	 0.348429
C	-0.0637978032	-0.7521808442	-1.1730053488	-0.357005
C	-0.0342345032	-2.1565556373	-0.7982443571	 0.369405
O	-0.04791719	-3.1680800228	-1.4775123033	-0.387977
C	 0.004660154	-2.1492127587	 0.7188304879	 0.239071
C	-0.6622447619	-3.2682663244	 1.4796156333	-0.292375
C	 0.8362056656	-3.1685752114	 1.4583596213	-0.306675
N	-0.0872351694	-0.7644188577	 1.1080480045	-0.411408
H	 0.8945453571	 1.8100138578	 0.6548471241	 0.13483
H	 0.0556319537	 1.9607374743	-0.8993191742	 0.147031
H	-0.8689732466	 1.8635591902	 0.6152813081	 0.148375
H	-0.1100868185	-0.3778463634	-2.1840208685	 0.105518
H	-1.1822973129	-3.0076532424	 2.394466829	 0.117132
H	-1.1278134599	-4.0319132879	 0.8656583452	 0.144329
H	 1.3870193182	-3.8654501938	 0.8353280322	 0.144325
H	 1.343602433	-2.8476741409	 2.3627070798	 0.11087
H	 0.4093039171	-0.4442377543	 1.9271003129	 0.241972
