23
gdb 94612	3.36331	0.93571	0.81528	1.7207	85.86	-0.2376	0.0857	0.3233	1512.9871	0.205489	-388.2617	-388.252079	-388.251135	-388.297436	35.528	
C	-0.3706796149	 1.4126609614	-0.1676228133	-0.40406
C	 0.0568781243	-0.0464251914	-0.0648936334	-0.058224
C	 1.4608562463	-0.3843311183	-0.6135257865	-0.074008
O	 1.954490986	-0.7115956037	 0.6993963121	-0.289881
C	 0.6366181087	-0.562873007	 1.2852997084	 0.157052
C	 0.6332123087	 0.3271626414	 2.5195930536	-0.233165
C	 1.335629686	-0.310003374	 3.7016421765	 0.031298
C	 2.838808436	-0.2728632768	 3.8018129265	-0.237382
C	 1.9998213549	 0.545798689	 4.7515474038	-0.285687
H	 0.4163022886	 2.091145288	 0.1763861075	 0.122914
H	-0.5957329222	 1.6700409715	-1.2083312739	 0.115339
H	-1.2702744209	 1.6129454084	 0.4236673063	 0.118394
H	-0.7343421545	-0.6903659581	-0.4582256809	 0.074832
H	 1.5052899202	-1.2439219066	-1.2955075173	 0.094378
H	 2.0127960227	 0.4513830909	-1.0633691802	 0.095861
H	 0.2326916135	-1.551389932	 1.5540657017	 0.064643
H	 1.113371885	 1.282407508	 2.2781472615	 0.094003
H	-0.4102470988	 0.5517221132	 2.783003607	 0.094169
H	 0.8589928619	-1.2183359919	 4.0635207428	 0.07787
H	 3.3513758656	-1.1463551098	 4.1891987625	 0.10708
H	 3.3753941016	 0.2415977715	 3.0133563257	 0.121659
H	 1.9788622478	 1.6224362882	 4.6147079105	 0.10591
H	 1.9371295736	 0.2319242282	 5.7878255093	 0.107009
