20
gdb 76086	2.05358	1.52606	1.17819	0.3534	86.22	-0.2108	0.0439	0.2546	1165.882	0.169223	-365.925347	-365.915884	-365.91494	-365.959702	35.478	
C	 0.2137765225	 1.7403591953	-0.0389481486	-0.405337
C	-0.0100042822	 0.2449818607	-0.049950616	-0.055801
C	 1.1834634643	-0.7266836098	-0.0440589205	-0.255531
C	 2.533841688	-0.2566642559	-0.1110435818	 0.326458
C	 3.6777095136	 0.0991069797	-0.2419983856	-0.45273
C	 0.2210045496	-0.5988390971	 1.1630162849	 0.020657
N	 0.448323102	-0.0592196386	 2.4694930672	-0.088418
C	 1.3761280124	-0.7505626539	 3.3604498051	-0.224287
C	 1.6781887359	 0.6203974262	 2.8653268982	-0.23222
H	 1.1113172808	 2.0178889978	 0.5159631997	 0.13372
H	 0.3270947051	 2.1188497468	-1.0599040649	 0.120715
H	-0.6387293177	 2.2507767443	 0.4205941762	 0.123848
H	-0.8351849023	-0.0689453917	-0.6844372527	 0.091923
H	 1.0324406448	-1.642562493	-0.6106965398	 0.111085
H	 4.6872280211	 0.4139270121	-0.3351958849	 0.19325
H	-0.4286194125	-1.4671373237	 1.2445619285	 0.102749
H	 1.0231909261	-0.9104520018	 4.3755776656	 0.115045
H	 1.9692059082	-1.5619034267	 2.943235788	 0.118123
H	 2.4815427399	 0.7184940283	 2.145158235	 0.14369
H	 1.5274055503	 1.4790025708	 3.5146849966	 0.113062
