18
gdb 78657	2.50698	1.73288	1.40164	2.0037	70.85	-0.2539	0.0471	0.301	992.033	0.148072	-439.03154	-439.023589	-439.022645	-439.063494	31.487	
C	-0.0592119443	 1.4671532395	-0.0496711958	-0.511474
C	 0.0824956211	-0.0177448373	 0.0746477183	 0.284552
C	 0.8669487704	-0.8431618139	-0.8940816518	-0.111667
C	 1.0651203569	-2.2261144107	-0.3311004936	 0.109942
O	 2.1966730423	-2.4072822864	 0.5111945502	-0.440888
C	-0.341524894	-2.0364042736	 0.2789648812	-0.127552
C	-0.212018306	-0.8844692842	 1.2987170043	 0.114155
O	 0.6615028161	-0.9688855705	 2.3850618698	-0.44899
N	-0.6408665688	-0.9851932813	-0.8334640529	-0.203198
H	 0.7421216834	 1.9746807306	 0.4979201571	 0.133029
H	-0.0107634905	 1.7818960621	-1.0965544246	 0.128194
H	-1.0170590005	 1.8021389848	 0.3610317116	 0.128494
H	 1.3568403305	-0.4041538804	-1.7555316623	 0.097276
H	 1.0488712449	-2.9731816207	-1.1330518331	 0.093987
H	 2.2666370603	-3.3406831258	 0.738070837	 0.293045
H	-1.0187356525	-2.8749136174	 0.4292889142	 0.07952
H	-1.1980675968	-0.6182841619	 1.6925405878	 0.09487
H	 1.4914251276	-1.329075143	 2.0400196027	 0.286705
