13
gdb 42460	7.50571	0.6547	0.60669	1.4044	64.68	-0.3201	-0.0335	0.2867	1662.8898	0.087279	-452.789803	-452.780693	-452.779749	-452.826153	29.768	
O	-0.0788406548	-0.1975760475	 0.003033049	-0.31512
C	-0.0628006149	 0.9995037052	 0.0054468647	 0.483479
C	 1.1703029547	 1.8976159611	 0.0010207495	-0.480673
C	 2.4194640657	 1.1472269615	-0.0140851045	 0.294876
N	 3.4253001448	 0.5820283764	-0.0261264628	-0.285637
O	-1.1680498594	 1.7782168086	 0.0137144357	-0.239053
C	-2.4035956212	 1.0463746086	 0.0198319809	-0.205525
C	-3.4970668551	 2.0142169854	 0.0303583018	 0.271984
N	-4.3846233131	 2.7518402894	 0.0388181114	-0.278921
H	 1.1174198998	 2.560481218	-0.8696371003	 0.194914
H	 1.1317348747	 2.5484460028	 0.8815350566	 0.195009
H	-2.4686925157	 0.406450684	-0.8655535223	 0.182324
H	-2.4565778755	 0.4006378865	 0.9018100705	 0.182342
