19
gdb 87764	3.73883	1.19146	1.03932	1.8992	76.52	-0.2216	0.0619	0.2835	1198.786	0.156932	-422.963631	-422.954871	-422.953927	-422.99671	33.879	
C	 0.0322703342	 1.4358844486	-0.0510569514	-0.486087
C	 0.0806867389	-0.0493979746	 0.082427657	 0.465745
C	-0.8248421166	-0.9251844387	 0.8932680346	-0.343435
C	 0.6842927065	-1.0099920889	 1.0895365728	-0.272578
C	 1.275463583	-1.6800288827	-0.1185557995	 0.432856
C	 2.6772632964	-2.1525382037	-0.3428606797	-0.386321
C	 1.519014361	-3.1284684215	-0.3969906345	 0.004529
O	 1.4376893466	-4.04812875	 0.6531059279	-0.416416
O	 0.6100985577	-0.7951848185	-1.034720092	-0.349038
H	 1.0182750018	 1.839570686	-0.3003447534	 0.131253
H	-0.6653276087	 1.7262034967	-0.8449759763	 0.133278
H	-0.3094654251	 1.8931666431	 0.8819022142	 0.123756
H	-1.3560755001	-0.4304066582	 1.7007965553	 0.113422
H	-1.3668376966	-1.7343256136	 0.4110129695	 0.107474
H	 1.1788709316	-0.8299634168	 2.0340910318	 0.105589
H	 3.1563509969	-1.890953972	-1.280088526	 0.125323
H	 3.3320937247	-2.2140699064	 0.5201957655	 0.126408
H	 1.2396401956	-3.5014085198	-1.3829171157	 0.094417
H	 0.5108928821	-4.1316773489	 0.9023461297	 0.289825
