20
gdb 106717	2.59501	1.51554	1.23669	1.4055	79.67	-0.2325	0.0827	0.3152	1115.0806	0.169662	-403.07474	-403.065867	-403.064923	-403.108181	33.612	
C	 0.0600863796	 1.3199080194	-0.2794734105	-0.256889
O	 0.0245566404	-0.006241173	 0.2243076128	-0.28441
C	-1.2304871951	-0.5743814221	 0.2076768433	 0.386694
C	-1.8927195623	-1.0695068018	-1.0658545693	-0.39259
C	-1.6108569542	-2.0364861166	 0.0590012827	 0.257106
C	-0.8099055329	-3.2948876092	-0.0661590823	-0.494534
N	-2.7098810133	-1.9130453473	 1.0562374174	-0.147839
C	-2.0575135886	-1.5230105929	 2.321149549	-0.247389
C	-2.2668503714	-0.4716438693	 1.298568323	-0.117491
H	 1.1036370234	 1.6416486112	-0.2576671472	 0.1279
H	-0.3125660533	 1.3658585577	-1.311889217	 0.113717
H	-0.5358642007	 2.0052270978	 0.3394284487	 0.112791
H	-2.9175622965	-0.805152526	-1.3128337619	 0.11219
H	-1.2175686622	-1.1550815576	-1.9125995218	 0.113636
H	 0.0524692589	-3.136744455	-0.7199331508	 0.130137
H	-0.4369689781	-3.6299946929	 0.9074282028	 0.121996
H	-1.4176162228	-4.1013780909	-0.4910919858	 0.130481
H	-2.7350981002	-1.539732754	 3.1695495936	 0.118519
H	-1.0490688546	-1.872267406	 2.5285400708	 0.121878
H	-3.004316996	 0.3165746385	 1.4164905425	 0.094098
