16
gdb 46163	4.9031	1.01069	0.86487	4.7952	71.6	-0.2579	0.0318	0.2896	1265.0833	0.125222	-437.89835	-437.890061	-437.889117	-437.931638	30.54	
O	 0.0358670492	-0.0578601758	 0.1097209467	-0.389695
C	-0.011333648	 1.142578154	 0.0222637234	 0.457327
N	-1.1834146465	 1.8521745162	 0.0041672314	-0.372532
C	-1.3568821519	 3.2933110412	-0.0360856834	-0.154074
C	-0.0397755802	 3.9655858542	 0.381494259	-0.211429
C	 1.0910743092	 3.2532927011	-0.3748956069	-0.073273
O	 1.1401013387	 1.8694074923	-0.0340563549	-0.23968
C	-0.0500286197	 5.3955562327	 0.112553513	 0.301381
C	-0.0516761678	 6.5712465177	-0.1351398982	-0.428634
H	-1.9992401516	 1.2630261515	 0.0393888789	 0.262074
H	-1.6302851945	 3.6373338	-1.0430546892	 0.123163
H	-2.1650059497	 3.586285757	 0.6415747395	 0.128555
H	 0.121177348	 3.7915472122	 1.4531558511	 0.130268
H	 0.9502535811	 3.3719881546	-1.4570920234	 0.123834
H	 2.0667029627	 3.6619934362	-0.1070428098	 0.137406
H	-0.0527035189	 7.6135055647	-0.340228957	 0.205311
