13
gdb 130963	3.46308	1.12381	0.89598	2.1788	60.87	-0.2611	-0.0498	0.2112	1196.9122	0.088733	-486.064048	-486.05608	-486.055136	-486.098135	27.198	
O	 0.0956941184	-0.1354854848	 0.2781074557	-0.218175
C	 0.0979973827	 0.9165772217	-0.2966438685	 0.161544
C	 1.1760929313	 1.9764291874	-0.0724516539	-0.251918
N	 1.2401284108	 2.9449883031	-1.1364010426	-0.082185
N	 1.6353781708	 2.6170372407	-2.3989653863	-0.109607
N	 1.5963365747	 3.6640714608	-3.1162367046	-0.05882
N	 1.1738017812	 4.6913870289	-2.3340324489	-0.309931
C	 0.9242613021	 4.2961771842	-1.0317068768	 0.525829
O	 0.543977044	 4.9207200871	-0.0683170458	-0.409853
H	-0.6933984523	 1.2076976734	-1.0217409155	 0.101485
H	 0.9272225665	 2.5410509222	 0.8342408018	 0.185587
H	 2.1415760269	 1.4863596775	 0.0777631655	 0.166379
H	 1.0820043729	 5.6172668779	-2.7168102302	 0.299664
