16
gdb 29864	3.29161	1.36809	0.97235	6.1242	78.08	-0.2035	-0.0185	0.1851	1159.1687	0.126079	-437.950461	-437.942564	-437.94162	-437.983501	29.547	
C	-0.0154241637	 1.4873646086	 0.0224150818	-0.345976
N	 0.0001635806	 0.0303789426	 0.0025352952	-0.066408
C	-0.031713706	-0.6621024765	-1.1639436088	 0.033912
C	-0.0192899951	-2.027947311	-1.2096712663	-0.295101
C	 0.0287188516	-2.8011912079	-0.0031113939	 0.320752
O	 0.0451778989	-4.037628568	 0.1097903861	-0.450829
C	 0.0616577097	-2.0048325917	 1.2287685534	 0.197581
O	 0.106626199	-2.7299328391	 2.3547503691	-0.427014
C	 0.047102192	-0.6481563367	 1.2063607751	-0.093486
H	 0.8847506922	 1.8757910189	 0.5095061072	 0.150788
H	-0.049252571	 1.8622005893	-1.0007229979	 0.147357
H	-0.8939720353	 1.8564672951	 0.5613540756	 0.150771
H	-0.0678261408	-0.0569790707	-2.061742496	 0.130132
H	-0.0457975494	-2.5359735175	-2.1652657355	 0.113283
H	 0.1043059226	-3.6500338425	 2.00394853	 0.302957
H	 0.0708215048	-0.0431150728	 2.1028441546	 0.131281
