23
gdb 90346	2.82511	1.376	1.11668	0.3134	92.24	-0.2244	0.031	0.2553	1211.3718	0.208307	-351.16679	-351.158508	-351.157563	-351.199218	33.673	
C	-0.1993551684	 1.5271941445	-0.1557422714	-0.391164
C	-0.0268571695	 0.0179777807	-0.0313854868	-0.018356
C	 1.174636632	-0.5441639662	-0.8795197518	-0.336887
C	 1.9717279327	-0.5469027221	 0.4068613939	 0.357613
C	 3.202857082	-0.2601372586	 0.8078713418	-0.238683
C	 3.4868290277	 0.0025119089	 2.2702137311	-0.227647
C	 2.2534183224	-0.1914411296	 3.1810524213	-0.202359
C	 0.9430199006	 0.3159979638	 2.54153191	-0.235584
C	 0.725570987	-0.4833019169	 1.2603142547	-0.035654
H	 0.7540327933	 2.049666321	-0.0203720899	 0.119132
H	-0.582243607	 1.7905383115	-1.1476638883	 0.110905
H	-0.9037595833	 1.9150612977	 0.5878325424	 0.11321
H	-0.9833277355	-0.4817591919	-0.210758579	 0.063059
H	 0.967978584	-1.5499602294	-1.2623321479	 0.102699
H	 1.5387874354	 0.0752725549	-1.7049867693	 0.101016
H	 4.0219087119	-0.1408280302	 0.1013345161	 0.075793
H	 4.3060866925	-0.6369874576	 2.625392598	 0.100515
H	 3.8639386326	 1.0316509675	 2.3700574767	 0.101904
H	 2.136680838	-1.2599295989	 3.4032919259	 0.098164
H	 2.4290988138	 0.3064342757	 4.1406760318	 0.089382
H	 0.1098916388	 0.2084866961	 3.245203541	 0.086918
H	 1.0360171757	 1.3843569096	 2.3126398406	 0.09498
H	 0.3595128233	-1.4888801505	 1.5092001191	 0.071043
