19
gdb 115174	2.55217	1.37412	1.05056	5.0374	71.84	-0.261	0.0165	0.2775	1194.4987	0.158551	-460.202235	-460.193089	-460.192145	-460.23647	32.927	
C	 0.2058259621	 1.3484445684	 0.2444199792	-0.239815
O	 0.001804094	-0.0346005636	 0.0576033816	-0.239239
C	 0.565821083	-0.5533156574	-1.1280605626	 0.088408
C	 2.0699604744	-0.84953731	-0.971188695	-0.10307
O	 2.1537818896	-2.154644133	-0.3823056686	-0.223617
C	 0.9848371308	-2.8339760507	-0.5539650771	 0.45676
O	 0.8191442505	-3.942549107	-0.137504103	-0.343192
C	 0.0113239732	-1.9660000311	-1.35308461	-0.172203
C	-1.4526172968	-2.2188002253	-1.010360438	-0.404833
H	 1.2697019212	 1.608147714	 0.3474488803	 0.109423
H	-0.2129920796	 1.9325014028	-0.5894238326	 0.110856
H	-0.3087353433	 1.6261032819	 1.1667409419	 0.138443
H	 0.3735985549	 0.1248327672	-1.9715772537	 0.073096
H	 2.5827780059	-0.8555293221	-1.9408878196	 0.112979
H	 2.5766597741	-0.1472905505	-0.3061092692	 0.126363
H	 0.1934458326	-2.2217003012	-2.4069237514	 0.112694
H	-1.6740921792	-1.8862571713	 0.0046172124	 0.145305
H	-2.1139723316	-1.6863106218	-1.699692771	 0.111477
H	-1.6607276158	-3.2891455395	-1.0787542237	 0.140166
