18
gdb 33995	3.40435	1.32968	1.11296	2.1058	83.51	-0.2378	0.0135	0.2513	1120.3622	0.1487	-364.769509	-364.761602	-364.760658	-364.80167	31.361	
C	 0.0071737242	-1.2050018493	 0.4807816346	-0.402728
C	 0.0269640899	-0.0316401929	 0.2191494138	 0.288914
C	 0.0370895423	 1.3632610766	-0.1476696589	 0.073331
C	-0.9807020694	 1.7402053311	-1.2223000166	-0.335359
C	-0.7484694351	 3.0915055183	-1.839963758	-0.05688
C	 0.3985647056	 3.7640237224	-1.7598512239	-0.076823
C	 1.6125785134	 3.2583925851	-1.0296000509	-0.283933
C	 1.3112882176	 2.1451511607	-0.045304342	-0.043722
N	 0.2703579268	 2.3107475435	 0.9750965905	-0.358812
H	-0.0042480746	-2.2372204231	 0.7292258392	 0.190067
H	-0.9593826491	 0.9684154199	-2.0039182485	 0.130592
H	-1.9901657328	 1.6863988054	-0.7926389171	 0.121009
H	-1.5821579927	 3.5138578622	-2.3949698814	 0.091711
H	 0.4904932937	 4.7302797417	-2.2486872432	 0.093
H	 2.3574337841	 2.8974203349	-1.7539279103	 0.123309
H	 2.1042548815	 4.0858869549	-0.4986370184	 0.115882
H	 2.185756403	 1.6152584529	 0.3245232462	 0.099843
H	-0.2533387884	 3.1636651457	 0.7789312949	 0.230598
