20
gdb 94374	2.95594	1.38739	1.21754	2.6543	78.33	-0.2329	0.0761	0.3091	1107.6592	0.171148	-403.08191	-403.073664	-403.07272	-403.115095	31.825	
C	-0.3954344262	 1.3826992312	 0.0361701788	-0.405698
C	 0.1089699631	-0.0439880007	-0.0289491668	 0.113854
O	 1.3360274104	-0.1614232928	-0.8005351229	-0.30093
C	 2.0343356046	-0.759411037	 0.3054420211	-0.148133
C	 0.7948537727	-0.6615839179	 1.2109779802	 0.315857
C	 0.8897577028	 0.0186518834	 2.6203851383	-0.313803
C	 0.3034980575	-1.2581318013	 3.2312474809	-0.035257
N	-1.0140927203	-1.4535913664	 2.5772488271	-0.338524
C	 0.2279791335	-1.9051421016	 1.8951329861	-0.146111
H	 0.3564618804	 2.0479875608	 0.4718332948	 0.114733
H	-0.6274980252	 1.7434506049	-0.9710259724	 0.122533
H	-1.3061010004	 1.4340979913	 0.6413975407	 0.128514
H	-0.6693570275	-0.699893605	-0.4432902409	 0.073691
H	 2.3732288873	-1.7804560674	 0.0798236852	 0.094301
H	 2.9017406364	-0.1629087082	 0.6191138193	 0.095804
H	 1.9294615282	 0.195900905	 2.9089565601	 0.10349
H	 0.3047413316	 0.9280170747	 2.7771589277	 0.110337
H	 0.5070182742	-1.686518505	 4.2045794892	 0.094676
H	-1.4372298543	-2.2811387161	 2.9980595195	 0.228519
H	 0.3566377011	-2.9399580718	 1.598850724	 0.092147
