18
gdb 17552	3.22497	2.11621	1.64521	1.7424	71.92	-0.2222	0.0816	0.3039	860.251	0.15267	-347.747307	-347.739813	-347.738869	-347.778565	29.508	
C	-0.0568576531	 1.5878728614	 0.0561590629	-0.497494
C	 0.0208517667	 0.0914394314	 0.0030346965	 0.179135
C	-0.8705244725	-0.8520545808	 0.7987865851	-0.347529
C	 0.6195666277	-0.9425609964	 0.9300302275	 0.059917
O	 1.1774981329	-1.7074950594	-0.1467580596	-0.321911
C	 0.6886895297	-0.7285792862	-1.0811037599	 0.437402
C	 0.2699317992	-1.0948862006	-2.46403122	-0.337467
C	 1.5326799716	-0.27201972	-2.222056783	-0.348024
H	 0.9042087587	 2.0465391051	-0.1999609252	 0.12473
H	-0.8113651748	 1.9755241624	-0.6393485041	 0.121662
H	-0.3348369639	 1.9287215494	 1.0583402012	 0.121966
H	-1.3867590429	-0.3835882346	 1.6321337223	 0.108442
H	-1.4126857189	-1.6572158641	 0.310714468	 0.114752
H	 1.1913227299	-0.8711917925	 1.8479094713	 0.103318
H	 0.4015577643	-2.1298161522	-2.7603170003	 0.125457
H	-0.5965872021	-0.6038767918	-2.8950632625	 0.115062
H	 1.5233860225	 0.7797338526	-2.4897969254	 0.114711
H	 2.4875389449	-0.7683125537	-2.356891045	 0.125871
