20
gdb 23474	2.69934	1.31487	1.0362	0.8819	82.75	-0.2384	0.0056	0.244	1214.3843	0.170357	-403.085702	-403.076951	-403.076006	-403.119376	33.587	
C	 0.2480601622	 1.5730576249	-0.2325756908	-0.403687
C	 0.0365112739	 0.093479214	 0.0477519092	 0.043815
C	 0.6708194915	-0.9611522932	-0.9136353783	-0.253768
C	 1.289920234	-1.7172076283	 0.2941115123	-0.018062
C	 2.7621815453	-1.3254400771	 0.6066394071	-0.33536
C	 2.2226643027	-0.183944933	 1.4505092151	 0.437855
N	 2.72531857	 0.7485746837	 2.1462199738	-0.247306
O	 4.1321492185	 0.7316310129	 2.0650893277	-0.394325
C	 0.773411779	-0.5722075968	 1.2562191216	-0.152487
H	 1.3112642196	 1.8127088096	-0.3309164234	 0.122697
H	-0.2531272844	 1.8674886972	-1.1615381949	 0.110185
H	-0.1544436014	 2.1916137512	 0.5768989911	 0.119081
H	-1.0346361601	-0.1077789895	 0.1539994356	 0.075734
H	-0.0527247093	-1.534454444	-1.4977722618	 0.100709
H	 1.4156258853	-0.5536314016	-1.6051287785	 0.096917
H	 1.0146784675	-2.7630629244	 0.4232376062	 0.070139
H	 3.3033787911	-2.0597834384	 1.2134527542	 0.12493
H	 3.3968612732	-1.0535295358	-0.2424717586	 0.119189
H	 4.376076265	 1.4633190755	 2.641746886	 0.305044
H	 0.1910512465	-0.735950657	 2.1645126664	 0.078701
