16
gdb 44643	3.07388	1.69988	1.51651	4.904	67.67	-0.2469	0.0243	0.2713	904.6021	0.126027	-437.853808	-437.847069	-437.846125	-437.884996	26.691	
O	-0.0032555786	 0.006420865	 0.0003760066	-0.348899
C	 0.017733138	 1.2031159319	-0.002518552	 0.44115
N	-0.9887635763	 2.1586259425	-0.0057180742	-0.32575
C	-0.1038657736	 3.3187379381	-0.0064393846	 0.005434
C	 0.3752528903	 3.8838066504	 1.3795063148	-0.104412
C	-0.1165406057	 3.1469053394	 2.6328960787	-0.08895
O	 0.9179406631	 2.1391598937	 2.4969903431	-0.279094
C	 1.5164810144	 2.8375040059	 1.3876510708	 0.119326
C	 1.095968779	 2.3164769064	-0.0261251682	-0.239922
H	-1.9775159074	 2.0655014862	 0.1796909354	 0.249458
H	-0.291304863	 4.0457868883	-0.7973121018	 0.092691
H	 0.5359995983	 4.9596390376	 1.4257987209	 0.083129
H	 0.0044517206	 3.714641186	 3.5632152171	 0.107748
H	-1.1217663535	 2.7125013226	 2.5979787189	 0.101779
H	 2.5758502716	 3.0546845772	 1.5429733544	 0.087697
H	 1.8509903028	 2.2898293486	-0.8093501099	 0.098615
