18
gdb 18372	3.11781	2.2333	1.58752	1.0392	66.15	-0.243	0.0624	0.3054	842.8827	0.155478	-384.927746	-384.920583	-384.919639	-384.959286	27.733	
O	-0.0266045657	 1.4572831102	 0.1281401522	-0.42688
C	 0.0161528634	 0.042867236	 0.0667044528	 0.098079
C	 0.540549346	-0.6285216245	 1.3561170404	-0.130135
O	-0.034997518	-1.9233626604	 1.3752413339	-0.255309
C	-1.3453735573	-1.817488597	 0.8341300207	 0.118919
C	-2.425043363	-1.1943681145	 1.7672702227	-0.244871
C	-2.4850976926	 0.0659920101	 0.8563440649	-0.2305
C	-1.3938247885	-0.5471913796	-0.0695617143	-0.056181
H	 0.8773193646	 1.7854775744	 0.1566860981	 0.286912
H	 0.6251756522	-0.2894013836	-0.7866407732	 0.072942
H	 1.6282880472	-0.7443085461	 1.3868213259	 0.100488
H	 0.2310720475	-0.0219425428	 2.2227945331	 0.095007
H	-1.5954257516	-2.7862227759	 0.396921017	 0.076435
H	-3.3532244956	-1.7682818115	 1.8222522114	 0.099152
H	-2.0660018493	-1.0250224455	 2.7856806783	 0.106946
H	-3.44500928	 0.2126744038	 0.3573880963	 0.100332
H	-2.1963217682	 1.0078128441	 1.3251957806	 0.118201
H	-1.6846294212	-0.6825117772	-1.1116403808	 0.070464
