22
gdb 86361	2.334	1.12827	0.96012	3.6358	84.09	-0.245	0.0311	0.2761	1361.2607	0.193827	-404.373417	-404.363464	-404.36252	-404.409107	36.524	
C	 0.6824303009	 1.4887954082	-0.5374434173	-0.412592
C	 0.0674272352	 0.1762143316	-0.0606958568	 0.004683
C	 0.5246658461	-1.0977329431	-0.8342929559	-0.249575
C	 1.3841421457	-1.5504270321	 0.3850632013	 0.00468
C	 2.8936650603	-1.4108530014	 0.2111377072	-0.412596
C	 0.6723117594	-0.4493797208	 1.2409767157	 0.032088
N	 1.4601562396	 0.3786694239	 2.1212780307	-0.280729
C	 1.2031176994	 0.5261975139	 3.4513705797	 0.150405
O	 0.2992215244	-0.0061098474	 4.0588825097	-0.321456
H	 1.7698571981	 1.4203457145	-0.6583238175	 0.108011
H	 0.2697397443	 1.7706461603	-1.5118402148	 0.121454
H	 0.4733015433	 2.3041528214	 0.1630385791	 0.120317
H	-1.0181766836	 0.2995606497	-0.0026709567	 0.076852
H	-0.2950872223	-1.7822230735	-1.0642080681	 0.102629
H	 1.0824244913	-0.9106293489	-1.757094795	 0.094208
H	 1.1648989812	-2.5631583292	 0.7363821498	 0.076851
H	 3.1792627152	-0.4278462748	-0.1811971018	 0.108014
H	 3.419280392	-1.5589748487	 1.1603514817	 0.120316
H	 3.2657865287	-2.1581554454	-0.4975701726	 0.121455
H	-0.106873776	-0.8813884938	 1.8691902123	 0.120027
H	 2.2473624291	 0.8815852243	 1.7443466337	 0.244556
H	 1.9332637674	 1.2073928313	 3.9332943559	 0.070403
