16
gdb 29346	1.9931	1.87915	0.97406	1.3214	81.73	-0.185	0.0184	0.2034	1165.3856	0.123201	-400.756886	-400.747896	-400.746952	-400.790237	33.602	
C	-0.0489940332	 1.493236328	 0.0231104191	-0.514445
C	 0.0018150423	 0.0005553539	 0.0111763968	 0.172474
C	-0.0043598951	-0.8249611163	-1.0581437002	-0.139255
O	 0.0547331947	-2.1491644197	-0.655788235	-0.176891
C	 0.0929811911	-2.1460333275	 0.6871810875	 0.289866
N	 0.2230020983	-3.3652402283	 1.3081607724	-0.605468
C	 0.0597687638	-0.8619234935	 1.1808639093	-0.010451
C	 0.0705653976	-0.5012049586	 2.5418538382	 0.19099
C	 0.0717702533	-0.2049252709	 3.712004912	-0.443526
H	 0.8345972904	 1.9154656406	 0.5144966192	 0.136905
H	-0.0982220491	 1.8950539701	-0.992351101	 0.122565
H	-0.9227190889	 1.8553906833	 0.5762233567	 0.1359
H	-0.044456391	-0.6691429097	-2.1222537563	 0.135143
H	-0.2380964666	-4.1275531391	 0.8304133886	 0.260335
H	-0.0007034686	-3.3302799268	 2.2930938842	 0.266772
H	 0.085715541	 0.0630167444	 4.7387659285	 0.179087
