18
gdb 22444	2.15155	1.25146	0.82321	6.7235	80.28	-0.1661	-0.028	0.138	1374.4106	0.146276	-472.353932	-472.343768	-472.342824	-472.389221	36.302	
C	-0.2163846103	 1.3192644005	-0.1407309721	-0.346501
N	 0.1973428791	-0.0589172085	-0.0202760312	-0.301609
H	-0.0213650183	-0.6017934314	 0.8074337472	 0.264198
C	 0.6460942622	-0.8303500081	-1.0279789984	 0.400912
N	 0.9538539807	-0.2638924583	-2.218434893	-0.56869
C	 0.822801914	-2.2182916743	-0.8406838086	 0.167112
C	 1.4494913424	-3.0877233537	-1.8897701274	-0.213224
O	 0.8740488893	-2.9072045268	-3.2055062918	-0.425377
N	 0.3839894849	-2.6807583615	 0.360907644	-0.106704
O	 0.5158929249	-3.8934179699	 0.6114685633	-0.377135
H	 0.6224441537	 1.9749168996	-0.4075408833	 0.1384
H	-1.0159149173	 1.4559598566	-0.8827631248	 0.131759
H	-0.5974420264	 1.6531823617	 0.8253028372	 0.152397
H	 0.7027266585	 0.6908265785	-2.4064675099	 0.260417
H	 1.0083310755	-0.9093472408	-2.9996082606	 0.284273
H	 2.5129896531	-2.8660564331	-2.03354775	 0.11573
H	 1.35743805	-4.1235319952	-1.5473385814	 0.138521
H	-0.0500113558	-3.1740263454	-3.1440591891	 0.285522
