18
gdb 69425	4.64049	0.93319	0.8462	2.1506	78.46	-0.2122	0.0448	0.257	1354.6223	0.145344	-401.850251	-401.841393	-401.840449	-401.883837	33.787	
O	-0.2423660668	 1.428789168	 0.10467166	-0.4599
C	-0.0780200098	 0.0601375145	 0.0414179183	 0.376247
C	-0.1868513289	-0.7402090081	-1.2312536487	-0.361617
C	-1.1546242607	-0.9908261235	-0.0827220955	-0.068581
N	-0.5735345418	-1.7653572032	 1.0124316646	-0.07365
C	-0.2594273991	-3.1680739553	 0.7592296981	-0.31502
C	 0.3957895461	-3.7904231125	 1.906069929	 0.310773
C	 0.9570712126	-4.2961820939	 2.8402525938	-0.436105
C	 0.5541298044	-0.7926086569	 1.149257092	-0.24561
H	 0.491996975	 1.843980585	-0.3605061581	 0.288257
H	-0.6288259639	-0.1935293956	-2.0587948989	 0.117181
H	 0.5712743664	-1.4662075172	-1.5144600921	 0.106755
H	-2.2290625483	-0.8980671388	-0.1955090034	 0.104099
H	-1.2048403403	-3.6855954218	 0.5511222587	 0.134739
H	 0.3761972242	-3.3169481486	-0.1343104889	 0.107269
H	 1.4423470579	-4.7476488076	 3.6697425594	 0.196544
H	 1.5523691254	-1.1989910034	 0.9420649166	 0.099041
H	 0.5521978576	-0.3111887911	 2.1312373452	 0.119578
