23
gdb 58752	2.41616	1.31783	1.1445	1.3964	85.35	-0.2468	0.0727	0.3196	1232.8428	0.205033	-388.249009	-388.23952	-388.238576	-388.283054	36.945	
C	-0.1138202842	 1.5043575072	 0.0547697198	-0.393178
C	 0.048280312	-0.022688398	 0.0405875532	-0.103657
C	 0.7291287094	-0.4989268556	-1.2510574296	-0.394993
C	 0.7863670068	-0.5224749194	 1.2643807232	 0.331628
C	 2.273866467	-0.2819067444	 1.681368495	-0.262396
C	 1.6880266543	-1.1744175689	 2.810175497	-0.103391
C	 0.4308399997	-0.2590144489	 2.76809016	-0.310472
C	 1.045457415	-2.0167957931	 1.6694096424	 0.150944
O	-0.0144182231	-2.9029029303	 1.9001727003	-0.45503
H	 0.8617841373	 2.0029400629	 0.0227447609	 0.114116
H	-0.688297963	 1.8436003107	-0.8133994996	 0.11013
H	-0.6342014543	 1.8455732213	 0.955197438	 0.112656
H	-0.9557312626	-0.4711381061	 0.0753698833	 0.073725
H	 1.7366057755	-0.0770645403	-1.3418757494	 0.113804
H	 0.8167824035	-1.5892233465	-1.2787085294	 0.121158
H	 0.1575375074	-0.1858799691	-2.1306610733	 0.109855
H	 3.0463137776	-0.7289466609	 1.048736146	 0.091026
H	 2.5339684126	 0.738778816	 1.9704399352	 0.094588
H	 2.2096276182	-1.539197789	 3.6956945044	 0.071812
H	 0.5656334011	 0.7646054768	 3.1276336178	 0.095298
H	-0.5154321911	-0.6586769011	 3.1497606651	 0.071987
H	 1.7508317708	-2.5598639213	 1.0341539467	 0.079153
H	-0.6503226102	-2.4896632019	 2.492811033	 0.281237
