17
gdb 55735	3.11068	1.05764	0.97738	4.9781	69.94	-0.2426	-0.0232	0.2194	1256.5634	0.134395	-455.180505	-455.170986	-455.170042	-455.215961	34.174	
N	-0.2150790398	 1.4750536697	 0.4965507184	-0.568698
C	-0.0693316409	 0.0934026395	 0.5279719029	 0.43759
O	 0.7861607699	-0.4671509224	 1.1831544484	-0.383365
N	-1.017995641	-0.5842904746	-0.2144383039	-0.427967
C	-1.0594746189	-2.0094526899	-0.2723961426	 0.254477
C	-1.3036665802	-2.8033178388	 1.0069557543	-0.247947
C	-2.390428783	-2.7052589691	-0.0026988729	-0.305233
C	-0.1622937294	-2.6536230858	-1.27717461	 0.131979
O	-0.1206222813	-3.8410115517	-1.4877666353	-0.271709
H	 0.5930697471	 1.9528903813	 0.8655364608	 0.26417
H	-0.593447175	 1.8972979372	-0.3380735959	 0.246605
H	-1.7637194247	-0.0675381568	-0.6510928476	 0.243135
H	-0.7597969206	-3.7372535011	 1.0814974319	 0.146009
H	-1.3682651582	-2.2170355431	 1.9139805292	 0.141729
H	-3.2364760609	-2.0592119246	 0.2047646113	 0.120031
H	-2.5948044416	-3.5710686278	-0.6219225472	 0.143434
H	 0.4788592987	-1.9335607721	-1.8318988317	 0.075762
