18
gdb 84533	3.26702	1.2793	1.20164	3.7279	77.72	-0.2471	-0.008	0.239	1109.5082	0.147865	-401.952698	-401.944636	-401.943692	-401.985428	30.484	
C	-0.1452741813	 1.3910811881	-0.0711462467	-0.399529
C	 0.0053434325	-0.1180065812	 0.1701276915	-0.046109
C	 0.682129576	-0.8402559095	-0.9796218057	-0.085523
C	 1.8384144842	-1.4078521947	-0.6305264118	-0.070347
C	 2.1129938348	-1.212622988	 0.8257015599	-0.075363
C	 0.9323421898	-0.4177036518	 1.3578057079	-0.071033
N	 1.1510453854	-1.7904080101	 1.7466092699	-0.072395
C	 0.3432332385	-2.8934794748	 1.5632906671	 0.152835
O	 0.6918993364	-3.9387100129	 1.0729131649	-0.298008
H	 0.8322617332	 1.8586685118	-0.2263906511	 0.126022
H	-0.7550551395	 1.5852857351	-0.9585354776	 0.122129
H	-0.6273355262	 1.8782309362	 0.7830962163	 0.118876
H	-0.9940424141	-0.5401513326	 0.3489689991	 0.095186
H	 0.2290082199	-0.8935719845	-1.9635995614	 0.104595
H	 2.495518314	-1.9707847858	-1.2807356748	 0.113887
H	 3.1258798212	-1.106936066	 1.2016446071	 0.106532
H	 1.0363432545	 0.3253933151	 2.1440983582	 0.101028
H	-0.6630269693	-2.7321563744	 2.0008453573	 0.077217
