13
gdb 21262	5.61418	1.65878	1.29087	3.9531	62.53	-0.24	-0.0585	0.1815	881.6608	0.097121	-394.790538	-394.783906	-394.782962	-394.821568	23.602	
C	-0.0281452652	 1.4160702682	 0.031369389	-0.243182
O	 0.0150682355	-0.016366687	-0.0259408922	-0.252734
C	 0.6162901752	-0.5653892984	-1.0781097472	 0.441123
C	 0.6679227114	-1.9756047938	-1.1507831666	-0.051539
N	 1.2473040103	-2.5836014936	-2.163759644	-0.164762
N	 1.7972712029	-1.8424215773	-3.1424548735	-0.204334
C	 1.7201100372	-0.5263135813	-3.0236748024	 0.106708
N	 1.1506477066	 0.1742349555	-2.0292864788	-0.341838
H	 0.9817854322	 1.8332518711	 0.0472451549	 0.147312
H	-0.5642916052	 1.8217058971	-0.8301776036	 0.147309
H	-0.5546348934	 1.6510515519	 0.9559836785	 0.142101
H	 0.231274909	-2.5939629635	-0.3733638852	 0.136893
H	 2.1722705436	 0.0482113511	-3.8276352291	 0.136945
