19
gdb 81248	2.90343	1.57582	1.43861	0.4606	75.02	-0.2421	0.078	0.3201	992.2294	0.161087	-422.950506	-422.943113	-422.942169	-422.982155	29.871	
O	-0.1406805541	 1.4040075626	-0.097624116	-0.45145
C	-0.0104266215	 0.0073965907	 0.0246619165	 0.131405
C	-0.0130216723	-0.6505615209	 1.4270171358	-0.172152
C	-1.5219198676	-0.199306235	 1.5483429549	-0.329451
C	-1.3643171651	-0.7671312445	 0.0990904995	 0.290196
C	-2.0377931678	-1.3510802316	-1.1176111382	-0.39545
C	-0.9609471767	-2.4422419118	-1.4898090769	-0.071057
O	-0.0426146536	-2.6186616587	-0.3763879503	-0.292065
C	-0.5965360706	-1.9223446229	 0.7190871012	 0.125431
H	 0.7368011334	 1.79225851	-0.0313842589	 0.28418
H	 0.7276300736	-0.3898565577	-0.6768624006	 0.082873
H	 0.749146077	-0.5933894899	 2.2056063389	 0.070646
H	-2.1507663392	-0.7775252289	 2.2302810166	 0.094029
H	-1.6843952743	 0.871532846	 1.6428407329	 0.122771
H	-2.9962288285	-1.8174986215	-0.8702769181	 0.110587
H	-2.1976287791	-0.6476630145	-1.9382950112	 0.115665
H	-1.4334952546	-3.4043081942	-1.7186647478	 0.106281
H	-0.3674604838	-2.1388209831	-2.3584879254	 0.11049
H	-1.1493930252	-2.5959490442	 1.3853427673	 0.06707
