15
gdb 129610	3.27771	1.27041	0.95431	3.5094	73.16	-0.2116	-0.0059	0.2057	1168.2272	0.112234	-416.760861	-416.752485	-416.75154	-416.794279	30.966	
N	-0.1557405264	 1.304836058	-0.5493907986	-0.616857
C	-0.0522420166	-0.0352226516	-0.1656310626	 0.063606
C	-1.0298334164	-0.9719790944	 0.0157021471	 0.382414
C	-2.5187418388	-0.9786987253	-0.1560918105	-0.474048
C	-2.9761168163	-0.1361395772	-1.259427292	 0.295367
C	-3.3507783612	 0.5672149858	-2.1593829449	-0.441398
O	-0.4801995624	-2.1203951084	 0.4839638014	-0.219797
N	 0.8850298688	-1.9575573795	 0.6129527697	-0.142139
C	 1.1287326176	-0.7275815091	 0.2323618806	-0.00571
H	 0.6452375427	 1.6221753713	-1.0798075505	 0.247098
H	-1.0059488985	 1.4922577359	-1.0676941835	 0.25424
H	-2.8383093598	-2.0140857857	-0.3252316878	 0.165671
H	-3.0144589437	-0.6580698696	 0.7718788098	 0.158836
H	-3.7012913109	 1.1682877631	-2.9620205305	 0.207291
H	 2.1454882619	-0.3592982534	 0.2485367222	 0.125426
