21
gdb 67583	2.23821	2.1356	1.48478	0.2635	85.28	-0.2076	0.0948	0.3024	1001.45	0.183355	-349.927263	-349.919368	-349.918424	-349.95897	32.312	
C	 0.0399140119	 1.5320938084	 0.0753102139	-0.516127
C	-0.0071396248	 0.0377336637	-0.0285187957	 0.298474
C	 1.0550530516	-0.8413183626	-0.6648088482	-0.124818
C	 0.4292036419	-1.9236841077	-1.5231560316	-0.237714
C	-0.8451240514	-2.1326366515	-0.7279262137	-0.124818
C	-0.5968997911	-1.9004711669	 0.7555755172	-0.138449
C	 0.6808582242	-1.0321219657	 0.7980197142	-0.138447
C	-1.3007639565	-0.8413887416	-0.0714789699	 0.298475
C	-2.7111130636	-0.3374556053	-0.016042105	-0.516127
H	 1.0656770498	 1.8769010994	 0.2439882519	 0.117241
H	-0.3231490712	 2.0144150977	-0.8408412865	 0.116135
H	-0.5713639238	 1.901108439	 0.9072642071	 0.116717
H	 2.017533462	-0.4041543008	-0.9068595986	 0.076778
H	 0.2316831101	-1.5830147597	-2.5465044874	 0.093956
H	 1.0459421026	-2.8287683947	-1.5731973226	 0.095255
H	-1.5936325349	-2.8582205971	-1.0268116286	 0.076778
H	-0.9858675264	-2.5279226679	 1.5465546786	 0.078299
H	 1.3706763848	-0.9264406632	 1.6248338471	 0.078299
H	-2.8673111832	 0.3408224056	 0.8310240814	 0.116717
H	-2.9843492004	 0.2059125996	-0.929209813	 0.116135
H	-3.4156906813	-1.1685600785	 0.0951790394	 0.117241
