20
gdb 122278	2.70295	0.84476	0.71586	3.6669	76.51	-0.2478	-0.0243	0.2235	1606.3597	0.168944	-440.26213	-440.252002	-440.251058	-440.298189	35.787	
O	 0.0011573824	 1.336903052	 0.24434644	-0.42052
C	-0.0203105369	-0.0158765161	-0.1820714165	-0.074065
C	-1.4091005829	-0.5724907148	 0.1021882626	-0.170938
C	-1.5327116378	-2.0554968697	-0.2741556273	-0.306017
C	-2.9105607312	-2.6269252474	-0.0084916678	 0.227905
C	-3.0552255029	-4.0203728197	 0.5309373475	-0.28032
N	-3.3807912216	-2.8773220088	 1.3761227822	-0.342147
C	-4.0171471032	-2.1690716799	-0.903913561	 0.147494
O	-3.8550881973	-1.5496086673	-1.9256332943	-0.267373
H	 0.8586816071	 1.7101123715	 0.0211949584	 0.286006
H	 0.1983901156	-0.1008269554	-1.259001562	 0.090575
H	 0.7389729009	-0.6136958666	 0.3509431742	 0.078338
H	-1.6275975291	-0.4284260464	 1.1675603983	 0.102537
H	-2.1438514113	 0.0146170157	-0.4566652867	 0.133519
H	-1.3125270978	-2.1810329123	-1.3406265166	 0.123826
H	-0.7887184693	-2.6449863095	 0.2770970076	 0.090121
H	-3.9032920059	-4.6364445131	 0.2433752526	 0.128177
H	-2.1309222484	-4.5676106725	 0.6965898408	 0.125195
H	-2.6203498283	-2.6832223185	 2.0237627879	 0.241352
H	-5.027361462	-2.4661011012	-0.5450353798	 0.086337
