16
gdb 90059	4.06002	1.33417	1.22613	0.4276	71.05	-0.2501	-0.0105	0.2396	1009.3299	0.124952	-437.768259	-437.761188	-437.760244	-437.799673	28.248	
O	 0.3420499306	 1.3165868236	-0.3525819706	-0.416473
C	 0.085000415	-0.0105013679	-0.0341630646	 0.105903
C	 0.1746721707	-0.4262336285	 1.5009214654	-0.358954
C	-1.3586065801	-0.4183367688	 1.4864735591	 0.113841
N	-1.9082020001	 1.0044961647	 1.2565208913	-0.354287
C	-2.7225443457	 0.1793241381	 0.305904114	-0.174669
C	-1.4243534361	-0.5565375198	-0.0690837057	-0.04093
C	-2.8407559087	-0.9078506171	 1.4853747433	 0.352398
O	-3.606050879	-1.6389969926	 2.0144483632	-0.294843
H	-0.31394803	 1.8248586485	 0.1468598399	 0.290305
H	 0.7194676577	-0.6257408855	-0.6759743462	 0.100769
H	 0.5950161723	-1.426521967	 1.6281689932	 0.122124
H	 0.6659128734	 0.2787870541	 2.1738626369	 0.120743
H	-2.4515751069	 1.321486411	 2.0616578157	 0.232857
H	-3.5170041122	 0.603539132	-0.3088178429	 0.101764
H	-1.5193783308	-1.5519860948	-0.503266022	 0.099452
