22
gdb 13408	4.21227	1.14245	1.07149	0.8984	78.74	-0.2425	0.0841	0.3267	1241.0349	0.201055	-350.220958	-350.212099	-350.211155	-350.255589	32.383	
C	-0.5922028935	 1.48122205	 0.2859197827	-0.382274
C	-0.2061538175	 0.0127511756	 0.2105860588	-0.035968
O	-1.3580350154	-0.7348879693	-0.1161550138	-0.261991
C	-1.137336234	-2.1331968976	-0.2654998003	 0.148455
C	-1.0536657161	-2.8630766087	 1.105966851	-0.221553
C	-2.4475316292	-3.5120741989	 1.3382384684	-0.194555
C	-3.3565507952	-2.9224629648	 0.2420397168	-0.191956
C	-2.3910314296	-2.7125212072	-0.9330261635	-0.218213
H	 0.2806932529	 2.0945794168	 0.5291779776	 0.111732
H	-1.0008889422	 1.8195301441	-0.6704923733	 0.124727
H	-1.3526298055	 1.6384841515	 1.0563148257	 0.12417
H	 0.5741245988	-0.14379549	-0.5543910307	 0.082102
H	 0.2215676375	-0.3160524893	 1.1719794923	 0.083926
H	-0.2309121769	-2.2884102036	-0.8693969302	 0.052275
H	-0.2583420166	-3.6144100614	 1.1061066768	 0.094024
H	-0.807850724	-2.1419126528	 1.8900377229	 0.104729
H	-2.3788122625	-4.5988059559	 1.215982369	 0.095491
H	-2.8309623074	-3.3315670491	 2.3460294983	 0.094455
H	-4.204810379	-3.5681577821	-0.0015785824	 0.087702
H	-3.7543852382	-1.952586739	 0.5585504459	 0.110581
H	-2.7676900498	-2.0468631252	-1.7130654289	 0.101546
H	-2.1425156467	-3.6762955829	-1.3942693728	 0.090593
