19
gdb 79739	2.51339	1.77768	1.43416	1.742	73.93	-0.2324	0.0769	0.3092	995.081	0.159345	-422.986375	-422.978472	-422.977528	-423.01818	31.949	
C	-0.0477891973	 1.4820241579	-0.0110755456	-0.471204
C	 0.0878970786	-0.0127879673	 0.0372162901	 0.347954
O	-1.0710228511	-0.7122986171	-0.4121831173	-0.313212
C	-1.4643916439	-1.6912487307	 0.5361235783	 0.076921
C	-0.732781982	-3.0084971937	 0.593460808	-0.337387
C	-0.3545229707	-1.8754288399	 1.533218147	-0.063909
C	 0.6974651038	-0.8638036957	 1.1424980375	-0.176901
C	 1.343399234	-0.782307109	-0.2485416985	 0.066268
O	 1.3409477573	-1.8020214177	-1.197939689	-0.430838
H	 0.8871623041	 1.9582693316	 0.2982821385	 0.119566
H	-0.2797668945	 1.8204299266	-1.0266104389	 0.129621
H	-0.8474896897	 1.8256928599	 0.6536063227	 0.123375
H	-2.5182345036	-1.6343527895	 0.7888508385	 0.09944
H	-1.2878396838	-3.8301734579	 1.0356510064	 0.109196
H	-0.0421288125	-3.2897618557	-0.1870529836	 0.144737
H	-0.5527660949	-1.9810786879	 2.5931801154	 0.093149
H	 1.2557993991	-0.4003728692	 1.9482858959	 0.089333
H	 2.2720512054	-0.2150289504	-0.2679522279	 0.099168
H	 0.4823348717	-1.7496385742	-1.6402720775	 0.294725
