20
gdb 72279	3.20369	1.58213	1.33731	0.8179	78.26	-0.227	0.0851	0.3122	1028.8286	0.173239	-403.115219	-403.107687	-403.106742	-403.146735	30.442	
C	-0.1145463954	 1.5494846268	 0.057221815	-0.490113
C	 0.055660777	 0.0617757589	-0.0478184764	 0.333784
C	-0.2320935664	-0.738774772	-1.317465589	-0.314416
C	-0.8426935081	-1.8224990118	-0.3921966407	 0.018841
C	-0.0224276074	-3.0927099642	-0.2641674744	-0.092421
O	 1.3617180888	-2.7855539175	-0.2194249809	-0.242277
C	 1.673564946	-1.913276018	 0.8493734122	-0.115821
C	 0.7252577369	-0.7401469508	 1.004661002	-0.062116
N	-0.7355017521	-0.9178110924	 0.8262172048	-0.206226
H	 0.7125939884	 2.0702770265	-0.4401549805	 0.121633
H	-1.0477135431	 1.87221699	-0.4173651221	 0.121208
H	-0.1369536619	 1.8704215805	 1.1027770679	 0.126832
H	-0.9916308452	-0.2488298256	-1.9314873581	 0.102379
H	 0.6156389657	-1.0212840333	-1.9445946591	 0.112778
H	-1.8929842213	-2.0525714212	-0.5822083123	 0.080821
H	-0.3309177584	-3.6499020722	 0.6366786584	 0.096124
H	-0.1625737321	-3.7398629128	-1.1357041114	 0.109826
H	 1.6695751322	-2.471871093	 1.8022535177	 0.095542
H	 2.696152746	-1.561059031	 0.675801502	 0.113593
H	 0.9334478806	-0.1790930167	 1.9154025549	 0.09003
