17
gdb 128579	2.61268	1.36557	0.90714	2.427	72.63	-0.2028	0.0463	0.2491	1248.9556	0.13587	-455.157678	-455.148466	-455.147522	-455.192518	32.517	
C	-0.6178276273	 0.4705732315	 0.5954109553	-0.24903
O	 0.3043417128	 0.8102927191	-0.4313818946	-0.264193
C	 0.5820153118	-0.1742807912	-1.3034218744	 0.523036
C	 0.1485152378	-1.4844958729	-1.416075731	-0.496829
C	 0.8419475811	-1.9424499859	-2.5578992878	 0.449493
O	 0.744277018	-3.1858360537	-3.0740763413	-0.431387
N	 1.6232592591	-1.0280718512	-3.1039624915	-0.390394
N	 1.4515944465	 0.0770389979	-2.3079156294	-0.064243
C	 2.1579504493	 1.3006697425	-2.5960417552	-0.329038
H	-1.5875797818	 0.1838588291	 0.1718359892	 0.134343
H	-0.2346266839	-0.3530484483	 1.2092879979	 0.134342
H	-0.7351593977	 1.363368486	 1.2104649493	 0.139991
H	-0.542544833	-2.0231101416	-0.7932197617	 0.110829
H	 1.3251621373	-3.2112952802	-3.8451793325	 0.300044
H	 1.8933627844	 1.6689617838	-3.5920479575	 0.140497
H	 1.8799825265	 2.0446949164	-1.8493870458	 0.152067
H	 3.2391671991	 1.1353938786	-2.5592944891	 0.140472
