19
gdb 106140	2.48785	1.60433	1.26303	2.6056	75.61	-0.22	0.06	0.2801	1070.2063	0.158259	-422.957538	-422.948914	-422.94797	-422.990755	32.572	
C	-0.5459791098	 1.2218960702	 0.2746483847	-0.510408
C	-0.1676252201	-0.2074199857	 0.095091442	 0.435906
O	 0.9785164119	-0.5432402046	-0.7028790539	-0.331966
C	 0.5058665357	-1.916720973	-0.6665565122	-0.003641
C	 0.7555008483	-2.351759856	 0.8002148925	-0.239144
C	-0.3314785583	-1.3343484903	 1.1446350147	-0.198285
C	-0.938965743	-1.4346970097	-0.2558627061	 0.27008
C	-2.3254748131	-1.6890345129	-0.7417169704	-0.251072
O	-3.2003186762	-0.8956946449	 0.0526458583	-0.418371
H	 0.2091339378	 1.7582158273	 0.8593435333	 0.125749
H	-0.6473343988	 1.7202986261	-0.694684979	 0.125834
H	-1.505430432	 1.2839411481	 0.7941008376	 0.142962
H	 0.8078408015	-2.5056739738	-1.5308712077	 0.082222
H	 0.4199426527	-3.3763392256	 0.9839086857	 0.098761
H	 1.7713808787	-2.2049751981	 1.180433553	 0.098138
H	-0.8541949893	-1.1784247257	 2.0794286781	 0.094913
H	-2.4059233412	-1.4249073337	-1.8092444735	 0.095619
H	-2.5716062458	-2.7607426337	-0.6525773088	 0.090939
H	-4.096924089	-1.0252556441	-0.2699056385	 0.291763
