17
gdb 33032	4.79268	0.87157	0.78427	1.3207	76.94	-0.2506	-0.0404	0.2102	1423.0376	0.13818	-418.057519	-418.049351	-418.048407	-418.091385	29.507	
O	 0.1193087801	 1.4291982164	 0.1751614523	-0.412345
C	 0.0530300622	 0.017448619	 0.2385265149	-0.056861
C	-1.3453627101	-0.520802816	-0.1251407202	-0.305294
C	-1.3957169098	-2.0220931437	-0.0503167427	 0.318018
N	-0.7791505174	-2.6969193986	-1.0335014986	-0.294301
C	-0.7969613851	-4.026089714	-0.951234953	 0.0678
N	-1.3613796753	-4.7723097235	-0.0001161949	-0.250099
C	-1.9703585652	-4.0900483999	 0.9733094966	 0.025762
C	-2.0158072005	-2.7025256969	 0.9981741591	-0.181161
H	 0.0411400223	 1.6881294436	-0.7486422693	 0.285009
H	 0.8008531421	-0.4618649942	-0.4084675423	 0.11364
H	 0.293571996	-0.2479783563	 1.2734657416	 0.115404
H	-2.0853776011	-0.071164829	 0.5433472401	 0.112197
H	-1.5805347168	-0.2151455385	-1.1513487845	 0.114447
H	-0.295968201	-4.5646221433	-1.7528029258	 0.119439
H	-2.4395829147	-4.6786134968	 1.7587935192	 0.120033
H	-2.5176485857	-2.1694754485	 1.7976959375	 0.108312
