18
gdb 11838	6.62138	1.11826	1.08986	0.7388	79.37	-0.2521	0.0514	0.3035	1129.3792	0.15304	-310.610457	-310.602611	-310.601667	-310.642653	30.408	
C	-0.8180559068	-0.8899105505	-0.959891413	-0.457436
C	-0.3822382442	 0.1067671101	-0.4459381647	 0.313317
C	 0.1570318963	 1.2899901794	 0.1895658928	-0.152398
C	 0.0692902192	 1.4092947796	 1.751081386	-0.303824
C	 1.5072306278	 1.9404691801	 1.739739162	 0.383204
C	 1.9410838823	 3.2817131337	 2.2576968793	-0.316835
C	 2.4923554801	 2.0081012909	 2.8632081828	-0.336377
C	 1.7144081707	 1.434872264	 0.3074507565	-0.303777
H	-1.2060647101	-1.7653330329	-1.4182865695	 0.191936
H	-0.2637599322	 2.1876730706	-0.2740229448	 0.103417
H	-0.7132735875	 2.0625421203	 2.1451097982	 0.104481
H	-0.0155505767	 0.4251261217	 2.2204986962	 0.111757
H	 2.6028293401	 3.8813183726	 1.640119735	 0.111224
H	 1.2325689405	 3.8598983846	 2.8429741528	 0.111221
H	 2.1564486232	 1.7278216329	 3.8567934867	 0.111933
H	 3.5257740051	 1.7490369766	 2.6545260063	 0.111929
H	 2.2080762222	 0.4596950868	 0.2692412444	 0.11175
H	 2.1951009002	 2.1077641293	-0.4070711968	 0.104479
