21
gdb 57491	2.98415	1.22114	1.07398	0.7774	73.99	-0.2527	0.073	0.3257	1216.9987	0.181305	-461.368204	-461.35863	-461.357686	-461.402464	35.828	
C	-0.0279043058	 1.5300425978	 0.0217803288	-0.421707
C	 0.0033530223	-0.005879715	 0.0054362289	 0.327487
C	 0.6515497459	-0.5512199792	 1.2783883325	-0.411945
O	-1.3261783779	-0.5203778656	-0.0276658657	-0.469685
C	 0.7547785711	-0.5021876201	-1.2470117336	 0.11059
C	 0.8728118873	-2.0232282412	-1.4006353177	-0.135026
O	 0.8508158316	-2.2013542196	-2.8126086424	-0.238763
C	-0.0558029177	-1.246804538	-3.2878826043	 0.022973
O	-0.0054824278	-0.1288977568	-2.4082381474	-0.299411
H	 0.9794883092	 1.9488389733	 0.1176337558	 0.109674
H	-0.4663807922	 1.9142634638	-0.9036021208	 0.12665
H	-0.6308482511	 1.8763607479	 0.8655771741	 0.119402
H	 0.1230773771	-0.1687025933	 2.1558593946	 0.127458
H	 0.6030930374	-1.6430640932	 1.3081316636	 0.125255
H	 1.6992902284	-0.2428238837	 1.3468622152	 0.114371
H	-1.6811485176	-0.2611255357	-0.8876549176	 0.28101
H	 1.7453308593	-0.029080987	-1.3007960972	 0.075251
H	 1.8084529667	-2.4365104487	-1.0214230647	 0.119603
H	 0.0193955833	-2.5233312781	-0.9224131325	 0.113173
H	 0.2456461739	-0.9484517824	-4.2984053417	 0.115546
H	-1.0868220834	-1.6410342953	-3.3032924879	 0.088095
