15
gdb 25026	5.11778	0.98943	0.87345	3.9397	67.77	-0.2225	0.0086	0.2311	1264.5263	0.114351	-453.965611	-453.958015	-453.957071	-453.998394	28.117	
O	 0.3670907101	 0.0239638452	 0.5684637699	-0.395427
C	 0.1013777908	 1.1542922608	 0.2709562692	 0.488703
N	-0.9706949836	 1.9415187278	 0.6286408339	-0.433983
C	-0.8818534965	 3.2047187445	 0.0265874422	 0.291926
C	 0.2587321952	 3.178335607	-0.6808612383	-0.115095
O	 0.8748052475	 1.9543941128	-0.5572549777	-0.206057
C	-1.894824141	 4.25185483	 0.2268863628	-0.130252
C	-2.104599273	 5.2944770521	-0.8075322235	-0.231305
N	-3.1332594527	 4.2666830019	-0.5932966262	-0.308392
H	-1.7236720582	 1.5972867384	 1.1985814424	 0.28053
H	 0.759642737	 3.9201458473	-1.2771387829	 0.156738
H	-2.0848659567	 4.5151891613	 1.2658001195	 0.11238
H	-2.3842741238	 6.2976298917	-0.5012298154	 0.130759
H	-1.5022482743	 5.2456152901	-1.709992362	 0.121584
H	-3.0553842908	 3.562050909	-1.3241902938	 0.237893
