18
gdb 126224	2.97948	1.20846	0.92386	1.2166	75.07	-0.2093	0.0326	0.2419	1276.2555	0.148454	-435.29013	-435.280452	-435.279508	-435.32562	34.572	
C	 0.2272518354	 1.5546267401	-0.2457669436	-0.36778
C	-0.0192581048	 0.0559693519	 0.0065076518	-0.301359
C	 0.6063067115	-0.4534591069	 1.2633857885	 0.382216
C	 0.0308101347	-0.7393018622	 2.4919737199	-0.034867
N	-1.3492954192	-0.6308049883	 2.8145791074	-0.623137
C	 1.1184383324	-1.1755880456	 3.2890476511	 0.37187
O	 1.0156861843	-1.5796043981	 4.5755510302	-0.437388
N	 2.2691805592	-1.1694250888	 2.6393727601	-0.340224
N	 1.9307574739	-0.711215826	 1.4016730048	-0.291959
H	 1.2959720535	 1.7754093356	-0.3348607002	 0.112621
H	-0.2613762793	 1.8772383113	-1.170278697	 0.11607
H	-0.1678453083	 2.1570582027	 0.5774400739	 0.125499
H	-1.0941860617	-0.1322893937	 0.0874431182	 0.135856
H	 0.3442290941	-0.5241525158	-0.8514432721	 0.104046
H	-1.5381927379	 0.2099700828	 3.3533073609	 0.23848
H	-1.6348466101	-1.4097304284	 3.399889822	 0.24225
H	 1.8977215104	-1.8531365723	 4.8566090353	 0.300894
H	 2.6507299619	-0.6234171583	 0.7068650888	 0.26691
