19
gdb 63096	2.65976	1.41068	1.23317	2.4008	76.4	-0.2413	-0.0222	0.219	1108.3892	0.157815	-423.036642	-423.027865	-423.026921	-423.069871	33.089	
C	 0.0821245099	 1.555130202	-0.1105136462	-0.461172
C	 0.0547722199	 0.0430861924	-0.0174823908	 0.268171
C	-1.2306889017	-0.5890571811	-0.5224440178	-0.45022
C	 1.3024066864	-0.7660248487	-0.1830101918	 0.056213
O	 2.534887793	-0.0794434108	-0.1788366431	-0.263126
C	 2.8677514699	 0.3351300573	 1.1383995234	-0.193989
C	 1.6795887742	-0.011325012	 2.0468867658	 0.3714
O	 1.6360620533	 0.1772060082	 3.2362100421	-0.319191
C	 0.6728682135	-0.7052260699	 1.1905957233	-0.2494
H	 1.0611313898	 1.9747358408	 0.1239913308	 0.133138
H	-0.1679409495	 1.8676935153	-1.1305161566	 0.123049
H	-0.6545965114	 2.0020556141	 0.565195305	 0.12717
H	-1.4194354359	-0.2924234258	-1.5602340426	 0.124717
H	-1.1868726026	-1.6819177323	-0.4871461833	 0.118878
H	-2.0880624557	-0.2689591368	 0.0797267618	 0.128003
H	 1.3172685125	-1.6622733318	-0.7957769128	 0.104689
H	 3.7598406173	-0.1983468544	 1.4947726121	 0.134678
H	 3.0842844399	 1.4096531612	 1.1645684884	 0.134715
H	 0.0965123671	-1.5019432176	 1.6443948222	 0.112277
