20
gdb 66311	4.72898	0.63321	0.60848	2.7699	78.69	-0.2606	0.0233	0.2838	1853.2238	0.16843	-440.262585	-440.252336	-440.251392	-440.299796	35.457	
C	 0.3218768703	 1.5544714205	-0.3527581801	-0.462704
C	-0.0375468285	 0.0958834798	-0.1608859085	 0.414464
C	-1.4875854453	-0.2979907346	-0.3853553915	-0.27504
C	-2.409262372	 0.2301912311	 0.7089949371	-0.073725
O	-3.7312666076	-0.2250257285	 0.414979355	-0.182453
C	-4.6270816614	-0.1622252466	 1.4174644627	 0.126887
N	-5.8389154352	-0.442245265	 1.2019940556	-0.4389
C	 1.0097494869	-0.9263190001	-0.3071394916	-0.227842
O	 0.5619206756	-0.5262769849	 0.9905135128	-0.277857
H	 1.3819169712	 1.7160599712	-0.1437950557	 0.131008
H	 0.1154834168	 1.8715093906	-1.3805213131	 0.12636
H	-0.2544047485	 2.1996392538	 0.3181681213	 0.128221
H	-1.8309581882	 0.0733140593	-1.3574888816	 0.117344
H	-1.5747937465	-1.3882426139	-0.4042104304	 0.118946
H	-2.0801174441	-0.1482709432	 1.6847834659	 0.125964
H	-2.4026227263	 1.3273555187	 0.74521028	 0.10915
H	-4.1871978947	 0.1328952639	 2.3808887345	 0.084245
H	-6.3700165598	-0.3661541722	 2.0669733513	 0.22837
H	 0.7418908927	-1.9395274176	-0.6042276344	 0.114831
H	 2.0246423946	-0.6236729523	-0.5631326092	 0.11273
