15
gdb 17885	4.05197	2.08291	1.8677	2.4472	59.77	-0.244	0.0133	0.2572	741.5895	0.121192	-399.78125	-399.775078	-399.774134	-399.811154	24.69	
O	-0.0584495641	 1.3718398287	-0.056506779	-0.435165
C	 0.0163402245	-0.0343527631	-0.0309318528	 0.111151
C	 0.1585736982	-0.6180962588	 1.4085996115	 0.067455
C	-1.3677320325	-0.4105272755	 1.5602444914	-0.25192
C	-1.4113390791	-0.6482652971	 0.0196573642	-0.006443
N	-1.3011897934	-2.0902261349	-0.2389579371	-0.262559
C	-0.3811367844	-2.6482361165	 0.4303578672	 0.109845
O	 0.4534559275	-2.0269857428	 1.3044148759	-0.239604
H	 0.8196348802	 1.7250908988	 0.1220134526	 0.288264
H	 0.6934299395	-0.4369471132	-0.7943936036	 0.079831
H	 0.8715809832	-0.1969447478	 2.1181646399	 0.084142
H	-1.9171402361	-1.1067719835	 2.1955805698	 0.110123
H	-1.5907002562	 0.6239546303	 1.8170996286	 0.126765
H	-2.1957492743	-0.1974960857	-0.5864747649	 0.086049
H	-0.1734079931	-3.713063489	 0.3695900562	 0.132067
