17
gdb 69441	3.96148	1.1807	1.01846	5.9452	72.87	-0.2465	0.0259	0.2724	1169.9978	0.136197	-418.001118	-417.992885	-417.991941	-418.033894	30.889	
C	 0.0718339172	 1.444141649	-0.1800102065	-0.488717
C	-0.0329797161	-0.0349646124	 0.0595369188	 0.412044
C	-1.2918164441	-0.7964789639	-0.3259269488	-0.226883
N	-1.1156893609	-2.1130382565	 0.2949659621	-0.306595
C	-0.2847681114	-1.9703551902	 1.4929113768	-0.153034
C	 0.4653173688	-3.2041745831	 1.7749527585	 0.300527
N	 1.0457820183	-4.1675385164	 2.0376075235	-0.322124
C	 0.5984467417	-0.7689831714	 1.1629139599	-0.029832
O	 1.159544869	-0.8144655208	-0.1432810729	-0.268065
H	 1.024384973	 1.8241743096	 0.1959776608	 0.139406
H	 0.0170546135	 1.6651309869	-1.2512513349	 0.137816
H	-0.743436947	 1.9800203355	 0.3166400868	 0.127204
H	-2.1625833339	-0.2333407514	 0.0506235881	 0.09418
H	-1.4018607684	-0.9015957257	-1.4115423398	 0.123198
H	-1.982353744	-2.6012763613	 0.4738872932	 0.237806
H	-0.8436512376	-1.7140612702	 2.4113782466	 0.109452
H	 1.2016408518	-0.3170220576	 1.9448390976	 0.113617
