18
gdb 29271	4.00855	1.11611	0.94176	1.7045	80.53	-0.2046	0.0401	0.2446	1274.0472	0.14911	-398.146885	-398.138493	-398.137549	-398.181286	31.011	
C	 0.0893995724	 1.5200036609	-0.0404554241	-0.487572
C	 0.0205571755	 0.0278881085	-0.0603497362	 0.282002
C	-0.3136972556	-0.797618977	-1.1024835561	-0.19227
N	-0.2234757584	-2.0819981048	-0.6002966511	-0.29344
C	 0.1541588187	-1.9790615728	 0.7006198741	 0.406787
N	 0.3109648541	-0.7254685801	 1.0619962282	-0.358393
N	 0.3227706157	-3.1489804925	 1.4606466771	-0.211483
C	 1.3900060111	-3.1023684405	 2.480583675	-0.21695
C	-0.0304771532	-3.0407041251	 2.8905775221	-0.216921
H	 1.0957869107	 1.8664411796	 0.2193680232	 0.129555
H	-0.1733604445	 1.9376893331	-1.0163299404	 0.115095
H	-0.5956646923	 1.9378101047	 0.7055071315	 0.129565
H	-0.5976998498	-0.5996655498	-2.1225557773	 0.122991
H	-0.3994217067	-2.9487080065	-1.0795894993	 0.265535
H	 1.9534987274	-4.0245961694	 2.586088839	 0.118003
H	 1.9608406837	-2.1810111215	 2.5382755003	 0.144712
H	-0.4072898434	-2.0782243678	 3.2218188013	 0.144799
H	-0.5230966855	-3.9171153589	 3.3009310329	 0.117984
