20
gdb 69537	3.08053	1.52795	1.40157	1.3853	78.18	-0.2266	0.0812	0.3077	1036.7447	0.171181	-403.095998	-403.088047	-403.087103	-403.127756	32.468	
C	 0.032073873	 1.4719962569	 0.0224027832	-0.500682
C	 0.0388359892	-0.0285318322	-0.0067930619	 0.354917
N	-0.8653531975	-0.8453246626	 0.8432990544	-0.381918
C	 0.6101616845	-0.9251930676	 1.0178453999	-0.146735
C	 1.3196809801	-1.9596204432	 0.1049921481	 0.423481
C	 2.2565735171	-2.9648311851	 0.711095561	-0.508007
C	 0.2589578004	-2.2772761577	-0.9797149331	-0.276813
C	 0.545666356	-0.7909556275	-1.2628122571	 0.009675
O	 1.9436080507	-1.0354925496	-0.8772302377	-0.340016
H	 0.969559522	 1.8625497495	-0.3872075635	 0.139244
H	-0.7932462538	 1.8831367296	-0.5706182852	 0.123612
H	-0.0700956951	 1.8487030335	 1.0459696207	 0.113383
H	-1.2389572917	-0.2426276028	 1.5769073796	 0.223504
H	 1.0760060729	-0.5789531437	 1.9340301628	 0.088397
H	 1.7063362675	-3.641738709	 1.3726897726	 0.127989
H	 2.7476435402	-3.5571675308	-0.0653137713	 0.12833
H	 3.0303603654	-2.4637441335	 1.3028266793	 0.126007
H	 0.6878686165	-2.9093442033	-1.7574603935	 0.099716
H	-0.7396263035	-2.5899922755	-0.6832694302	 0.124448
H	 0.434484756	-0.3202669955	-2.239636188	 0.071467
