20
gdb 101388	3.9986	0.96626	0.92476	2.0562	75.02	-0.252	0.0199	0.2719	1353.6309	0.171158	-440.303784	-440.294578	-440.293634	-440.338296	33.654	
C	 0.0424129509	 1.5643473441	 0.0641666404	-0.383786
C	-0.076086065	 0.0431727645	-0.0511770136	-0.194207
C	 0.7850739125	-0.5373430073	-1.1808625752	 0.114851
O	 2.158570221	-0.2067592336	-1.0328715528	-0.434287
C	 0.6214988638	-2.052902528	-1.3274831016	 0.08342
C	 1.4351100028	-2.6972099402	-2.4793121035	-0.204639
N	 2.2561344985	-3.7417497053	-1.8402456949	-0.253799
C	 2.0457583451	-3.6298851183	-0.5992943092	 0.109896
O	 1.1734929065	-2.6937704929	-0.1364962909	-0.25182
H	 1.0847555998	 1.859318396	 0.2093460441	 0.130258
H	-0.3181054719	 2.0581746985	-0.8451314721	 0.11351
H	-0.5449889888	 1.943214988	 0.9056053455	 0.111592
H	 0.2190644676	-0.4349447201	 0.8915576528	 0.106468
H	-1.1213158912	-0.2428680161	-0.2258579358	 0.094843
H	 0.4810324591	-0.0822265483	-2.1333194784	 0.091533
H	 2.4670101547	-0.6649966555	-0.2413990621	 0.286579
H	-0.4413299067	-2.3155459962	-1.3698512914	 0.089545
H	 0.7953387437	-3.1395783376	-3.2476994126	 0.115975
H	 2.093621056	-1.9663945642	-2.9604624871	 0.132792
H	 2.5083667717	-4.2283607176	 0.1780333584	 0.141276
