17
gdb 35140	4.42684	0.95314	0.87372	0.2969	86.38	-0.2499	0.0066	0.2565	1328.2369	0.134662	-347.493907	-347.485275	-347.484331	-347.527448	32.885	
C	-0.0297437233	-1.2729472539	-0.0675350508	-0.465555
C	-0.0044589783	-0.0711419196	-0.0498849495	 0.31321
C	 0.0296722873	 1.3864484825	-0.0208519502	-0.19111
C	-0.6628333418	 2.0029790804	 1.2313353005	-0.234498
C	 0.152274243	 3.2907905597	 1.5631635902	-0.218259
C	 1.4943784349	 3.002633247	 0.9017290049	-0.079369
C	 1.4282268639	 1.9825339821	 0.0541488203	-0.060108
C	-0.4501998896	 4.5174065475	 1.0401554864	 0.342748
C	-0.9421307357	 5.5225970473	 0.6001607416	-0.491905
H	-0.0531094352	-2.3342629319	-0.0866108793	 0.1956
H	-0.4590681418	 1.755477784	-0.9351803357	 0.120518
H	-1.7222963919	 2.2046614924	 1.0701823342	 0.120276
H	-0.5690328632	 1.301255231	 2.0633589503	 0.120201
H	 0.2591741728	 3.4016363934	 2.6495238007	 0.109556
H	 2.3645827779	 3.6211461475	 1.0854255457	 0.109923
H	 2.2394746701	 1.6088242317	-0.5587210736	 0.111477
H	-1.3759599691	 6.4123281389	 0.2160039645	 0.197296
