23
gdb 89580	4.09363	1.003	0.95853	1.4456	86.13	-0.2326	0.0808	0.3133	1369.3584	0.206706	-388.300353	-388.291515	-388.29057	-388.334085	34.431	
C	-1.0213041088	 0.9637740973	 0.1591263399	-0.405224
C	 0.1396286058	-0.0157665533	 0.0828886242	 0.056817
C	 1.3012231906	 0.276953334	-0.9107521513	-0.308249
C	 2.3042410927	-0.2128334072	 0.1602913343	 0.461166
C	 1.1892345721	-0.0222330388	 1.2302239178	-0.297371
C	 2.8310218881	-1.6461336664	 0.0091837097	-0.27606
C	 4.1073822834	-1.6099610016	 0.8592152379	-0.235247
C	 4.6199340882	-0.1968389494	 0.5617153447	-0.069333
O	 3.4609815656	 0.601896771	 0.3247810554	-0.31293
H	-0.6604919389	 1.9858648581	 0.3214423896	 0.11256
H	-1.608085367	 0.9607151962	-0.7665329846	 0.112132
H	-1.6998061881	 0.7154736727	 0.9832044644	 0.111941
H	-0.2429393991	-1.0296733565	-0.0799937781	 0.066678
H	 1.3016723004	-0.2309186033	-1.8797734215	 0.087609
H	 1.4244667483	 1.3524590597	-1.0708539897	 0.105778
H	 1.2831539365	 0.9671104876	 1.6880576144	 0.102363
H	 1.0973744111	-0.7750445968	 2.0192165431	 0.085324
H	 2.1093517301	-2.400976568	 0.3304004305	 0.102281
H	 3.0798708184	-1.8424222538	-1.0406649966	 0.100498
H	 3.8629579616	-1.7127758668	 1.9220736928	 0.107617
H	 4.8294589243	-2.3884589722	 0.6012434243	 0.10014
H	 5.189818532	 0.2409173449	 1.388614856	 0.100599
H	 5.2624310527	-0.1899591475	-0.331896367	 0.090912
