23
gdb 122539	4.548	0.55598	0.52763	0.7444	84.26	-0.251	0.078	0.329	2142.9261	0.203713	-425.392688	-425.381682	-425.380738	-425.430239	38.425	
C	-0.0659119244	 1.4003350166	-0.2996255566	-0.227377
O	-0.0351852402	 0.0517743955	 0.0964537216	-0.23173
C	-1.2782876379	-0.5964955678	-0.0640711122	-0.041755
C	-1.1354408009	-2.0439647406	 0.3948279882	-0.232353
C	-2.4417068704	-2.8032030682	 0.2746231217	-0.012193
C	-2.8478584757	-3.4730891234	-1.0179980611	-0.282694
C	-2.5314576118	-4.3111607262	 0.1956765898	-0.003783
C	-1.3201449228	-5.2054697107	 0.2205910467	-0.097014
O	-1.6734192646	-6.4319496155	-0.409228362	-0.421164
H	 0.9325850837	 1.8141473163	-0.1373753015	 0.12473
H	-0.3264024442	 1.5098230299	-1.3648509315	 0.101572
H	-0.7917604536	 1.9845081442	 0.2890904327	 0.101216
H	-2.058033972	-0.0824393569	 0.5259323749	 0.080452
H	-1.6006490211	-0.5610276134	-1.1189595366	 0.088164
H	-0.3492976872	-2.5152280297	-0.2036882924	 0.105358
H	-0.7831917135	-2.0437441822	 1.4338153367	 0.105195
H	-3.2551147909	-2.3420215423	 0.8314110237	 0.081631
H	-3.8767256391	-3.402988117	-1.3527945835	 0.109596
H	-2.1192123035	-3.4817352527	-1.8234553483	 0.11114
H	-3.3844905681	-4.7543451277	 0.7024861461	 0.08889
H	-0.4771293326	-4.7260942769	-0.2991591747	 0.083243
H	-1.0042324608	-5.3775956112	 1.2625983391	 0.085192
H	-0.9275900082	-7.0334859702	-0.3250062107	 0.283681
