16
gdb 12141	5.15016	1.53535	1.41876	3.3815	65.21	-0.247	0.076	0.323	912.1671	0.128853	-383.679946	-383.67273	-383.671786	-383.71114	27.686	
C	 0.0795202556	 1.5193932169	-0.0254283547	-0.500974
C	-0.0825138607	 0.0428868973	 0.1248261296	 0.419557
C	-1.3791759266	-0.7954762139	 0.0386766121	-0.395274
C	-0.7185452242	-1.761399343	 1.0532088863	 0.46882
C	-1.3349269927	-2.4796336017	 2.1677265285	-0.271319
O	-0.7824946673	-3.1700802574	 1.0360926735	-0.261927
C	 0.548907699	-0.9331238461	 1.0437175595	-0.149937
O	 0.9655994768	-0.8208640825	-0.3290579564	-0.279705
H	 1.0962478162	 1.8204507495	 0.2398498203	 0.137128
H	-0.1076235578	 1.8255889426	-1.0607482133	 0.135033
H	-0.6272488947	 2.0554408898	 0.6159916058	 0.126052
H	-2.2705054382	-0.3011103274	 0.4337025557	 0.110407
H	-1.5824960392	-1.2093658272	-0.9510439032	 0.123498
H	-0.7914496615	-2.610754334	 3.1029873156	 0.11757
H	-2.4205254452	-2.5106237867	 2.2522917197	 0.117598
H	 1.3102614604	-0.8177402561	 1.807196591	 0.103472
