18
gdb 66116	2.67318	1.47109	1.32133	3.3589	75.06	-0.2467	0.021	0.2677	1041.6317	0.149845	-398.114937	-398.10686	-398.105916	-398.147318	31.393	
N	-0.0545695892	 1.4345990527	 0.0804936795	-0.53426
C	 0.0023766002	-0.0301865603	 0.0196525152	 0.11476
C	 0.6543576352	-0.6209318844	 1.302259973	-0.281302
C	-0.1034891699	-1.9447439179	 1.5359897101	-0.163057
N	-1.4425222181	-1.8217748028	 0.9281449626	-0.088651
C	-2.1534677442	-0.5893543415	 1.2963314974	-0.261981
C	-1.3967859106	-0.663191724	 0.022966323	-0.024595
C	 0.728902646	-0.501059437	-1.1837921115	 0.2415
N	 1.3054921125	-0.8229273273	-2.1335186808	-0.342218
H	 0.8875953803	 1.816197691	 0.0464634726	 0.242614
H	-0.533456112	 1.7963144311	-0.740350156	 0.243001
H	 1.7307186946	-0.7667097133	 1.1934452146	 0.124984
H	 0.4932375521	 0.0976584336	 2.1088657682	 0.127165
H	 0.402878863	-2.7742050751	 1.0322714345	 0.127985
H	-0.1895261447	-2.2002111363	 2.5960756252	 0.116264
H	-3.2356442394	-0.672556639	 1.2750850957	 0.123991
H	-1.7634297661	 0.0413501564	 2.0899270348	 0.125897
H	-1.9064430799	-0.7569336959	-0.9313187581	 0.107903
