17
gdb 15538	3.43577	1.80653	1.32644	3.9913	73.1	-0.2586	0.0062	0.2647	932.2969	0.143462	-326.75984	-326.752252	-326.751308	-326.791728	28.429	
C	 0.4306733788	 1.5691845832	-0.2408879671	-0.395033
C	 0.0002661239	 0.1184789667	 0.0307785487	-0.043806
C	 0.3110691075	-0.7924462391	-1.1375929733	-0.063071
C	 1.3340175258	-1.6100869703	-0.9014078669	-0.072265
C	 1.8946017353	-1.4394943659	 0.4888860632	-0.265238
C	 0.7827350872	-0.5997362732	 1.188714482	-0.155597
C	 1.2813593905	 0.2853683859	 2.2348364322	 0.272405
N	 1.6776747819	 0.9869872852	 3.0640891617	-0.338186
H	 1.5018065566	 1.6312420288	-0.4573448155	 0.126394
H	-0.1084277827	 1.9658953243	-1.1068081824	 0.116371
H	 0.2189416839	 2.2132022458	 0.617068699	 0.139285
H	-1.069811852	 0.1203162042	 0.2682625648	 0.090522
H	-0.2251065437	-0.7122701447	-2.0769009262	 0.10108
H	 1.7615548676	-2.3054596693	-1.6146465276	 0.103249
H	 2.0688830725	-2.3847656173	 1.0122054587	 0.12187
H	 2.8552351396	-0.9095694989	 0.4720409635	 0.13121
H	 0.0886777972	-1.3019359753	 1.6628000853	 0.13081
