18
gdb 37458	2.82065	2.15663	1.82893	1.2713	72.62	-0.2223	0.0786	0.3009	833.95	0.151679	-401.898689	-401.892726	-401.891782	-401.928614	25.993	
C	 0.0806537055	 1.5181436932	-0.2081007535	-0.272672
C	 1.287211478	 0.6664493176	-0.0474644594	-0.021602
C	 1.9471157316	 0.4660465659	 1.2950147504	-0.0952
C	 1.2743246048	 0.7995909155	 2.6248053258	 0.082587
O	 0.0393875394	 1.473848946	 2.6870567218	-0.261079
C	-0.9787750334	 0.5411650239	 2.2881743353	-0.097746
C	-0.2682363272	-0.4585719513	 1.3709043975	-0.028823
C	 1.1214704569	-0.5674173711	 2.048879157	-0.125613
N	-0.0473171949	 0.0521671021	-0.0157465628	-0.111475
H	-0.1677135942	 2.1974088857	 0.597067484	 0.14785
H	-0.2141174027	 1.8497591592	-1.2008191867	 0.108533
H	 1.9090344981	 0.4311513709	-0.909301663	 0.086251
H	 3.0308053579	 0.421723442	 1.319299264	 0.087306
H	 1.9156885475	 1.0165251612	 3.4728473544	 0.102778
H	-1.392602226	 0.0367277436	 3.173060076	 0.100288
H	-1.7786930199	 1.0963694826	 1.7906901867	 0.119341
H	-0.7953557767	-1.4126141924	 1.3088857268	 0.087761
H	 1.4878800954	-1.4877372846	 2.4863929958	 0.091516
