17
gdb 52733	5.80463	0.60682	0.57371	6.1608	75.92	-0.266	0.0132	0.2793	1886.2365	0.132363	-458.95256	-458.942012	-458.941068	-458.990318	35.113	
C	-0.3488934534	 1.3476010526	 0.1799140827	-0.499655
C	-0.0259303559	-0.0668683944	 0.0667993298	 0.078101
C	 0.2520539328	-1.2369319063	-0.0040212287	 0.029722
C	 0.5432471243	-2.661768745	-0.1431855572	-0.043477
O	-0.5767776842	-3.4862084842	 0.1688377145	-0.416246
C	 1.0558436373	-2.9677898577	-1.5623656637	-0.096644
O	 1.4710818327	-4.3257215384	-1.6550196676	-0.174618
C	 0.5487209699	-5.2390977674	-2.0306896272	 0.187
O	 0.779008589	-6.4091497775	-2.0521743591	-0.274857
H	 0.5174753142	 1.9204608114	 0.5273912864	 0.159084
H	-0.6615555436	 1.7651073733	-0.7830384047	 0.153909
H	-1.1622132619	 1.5089946277	 0.8954344349	 0.158159
H	 1.3278412266	-2.9617403745	 0.561776271	 0.132905
H	-1.3681311976	-3.0317814776	-0.1406121634	 0.288573
H	 0.2689531738	-2.7462384413	-2.2950811324	 0.111976
H	 1.9300311838	-2.3551188754	-1.7935737761	 0.134801
H	-0.4100557078	-4.7800176653	-2.3330443892	 0.071267
