23
gdb 95302	2.55473	1.65303	1.43251	1.3983	83.09	-0.2382	0.0729	0.3111	1062.3875	0.209746	-388.325245	-388.317393	-388.316449	-388.357058	32.458	
C	-0.1801882132	 1.5577309476	 0.0890521123	-0.401195
C	 0.0111291303	 0.0404241656	-0.0320641819	 0.027282
C	 0.755451311	-0.3634290311	-1.3289547153	-0.221403
C	 2.2823112755	-0.1838937867	-1.2068299524	-0.206464
C	 2.777685597	-0.7012929666	 0.1509577553	 0.103815
C	 2.3841683801	-2.1726275056	 0.4249978853	-0.227082
C	 1.0073211872	-2.0408255002	 1.1318545255	-0.239147
C	 0.7827471846	-0.5106273758	 1.1853056282	 0.102655
O	 2.1092352389	 0.0283898819	 1.1866696854	-0.265623
H	 0.783108691	 2.0699419804	 0.1580653028	 0.130503
H	-0.7229773771	 1.9561550879	-0.7743532321	 0.104531
H	-0.7520852208	 1.8100027209	 0.9889318431	 0.107251
H	-0.981231949	-0.4303221918	-0.0428510113	 0.063296
H	 0.5371739498	-1.4141160143	-1.5533750315	 0.095362
H	 0.3708010084	 0.2111659309	-2.1787516611	 0.09176
H	 2.7939964443	-0.7041564182	-2.0253064681	 0.089391
H	 2.5528038719	 0.8750641048	-1.282581189	 0.102743
H	 3.8493848321	-0.5203650616	 0.2695700083	 0.070509
H	 2.3363562399	-2.7649944248	-0.4926658641	 0.099209
H	 3.1176373156	-2.6443749301	 1.082838089	 0.103159
H	 0.2044885085	-2.5577796758	 0.5992887991	 0.099088
H	 1.0479155829	-2.4519029394	 2.1432006673	 0.102707
H	 0.3052244112	-0.1868019678	 2.115040535	 0.067654
