13
gdb 131262	3.41758	1.77763	1.16977	7.1432	65.01	-0.2028	0.0136	0.2164	939.665	0.091602	-448.933455	-448.926443	-448.925499	-448.964716	26.529	
O	-0.1216454676	 1.3624010305	 0.0054074944	-0.423309
C	 0.0504876769	 0.0253463128	 0.0040597309	 0.343331
C	 1.1356952372	-0.7919559712	 0.0095354103	-0.225008
N	 0.6856931463	-2.1256367255	 0.0721208591	-0.42049
C	-0.681319639	-2.1032039175	 0.0326660701	 0.518572
N	-1.696892951	-2.9330077841	 0.0111184628	-0.363224
N	-2.8188711481	-2.1181645995	-0.0065237785	-0.219311
C	-2.4536293617	-0.8587302101	 0.0004849913	-0.023387
N	-1.0758808274	-0.7856198585	 0.0238420161	-0.073486
H	 0.7376566133	 1.795560343	-0.0251524592	 0.315497
H	 2.1834210777	-0.5462019178	 0.0247792859	 0.139784
H	 1.2397036152	-2.9329499647	-0.1507617374	 0.280631
H	-3.1029977518	-0.0005666074	-0.0010598157	 0.1504
