21
gdb 59182	2.59857	1.32366	1.04684	1.8621	79.35	-0.2551	0.079	0.3341	1226.5981	0.181403	-424.171863	-424.162642	-424.161698	-424.205788	35.756	
C	 0.1351353702	 1.4313139833	-0.0619721275	-0.400217
C	 0.1341985987	-0.0851775122	 0.1525390584	 0.058903
O	 0.6144218211	-0.4192994122	 1.4543351016	-0.432535
C	-1.273585746	-0.6598754188	 0.0866634565	 0.059642
C	-2.114955006	-0.6643228347	-1.2298187565	-0.080202
C	-1.2418245377	-1.839395511	-1.7562968191	-0.300129
C	-1.5512744314	-2.1517298924	-0.2541064074	 0.385705
O	-1.0981115523	-3.20302102	 0.5158196549	-0.46682
C	-3.0258856708	-1.7275413668	-0.5521344766	-0.290456
H	 1.1467282739	 1.8379355248	 0.0537663009	 0.101003
H	-0.2135106123	 1.6902158595	-1.0671075947	 0.115322
H	-0.5137324906	 1.9217457306	 0.67078049	 0.122165
H	 0.7787616397	-0.5479398301	-0.6086784087	 0.06365
H	 1.5123405114	-0.0821600067	 1.53298453	 0.278149
H	-1.8253195091	-0.3033176829	 0.9642410567	 0.071755
H	-2.4492243055	 0.2022310779	-1.7956336859	 0.078958
H	-1.7170855669	-2.494290595	-2.4930469455	 0.082371
H	-0.2082795361	-1.6280316521	-2.0323421385	 0.096277
H	-1.4173173063	-4.0245159565	 0.1266956984	 0.280761
H	-3.6220447277	-1.3953091731	 0.3015157844	 0.093837
H	-3.5972024063	-2.3729589315	-1.2258519814	 0.081861
