19
gdb 93748	1.97094	1.70316	0.9747	1.4432	88.44	-0.223	-0.0193	0.2037	1233.8112	0.156867	-385.88086	-385.871261	-385.870317	-385.915264	35.191	
C	 0.1293582006	 1.5777864895	-0.0824610616	-0.390295
C	 0.0036424255	 0.0634708036	 0.0566883762	 0.022514
O	 0.5878373381	-0.5817414838	-1.0779276031	-0.278068
C	 1.507971623	-1.5799878718	-0.6666150691	-0.147095
C	 1.6046163362	-1.4671107507	 0.8299235908	 0.166014
C	 2.5241129765	-2.3130676404	 1.6427328526	-0.515018
C	 0.7403328938	-0.5291750052	 1.2472361429	 0.081598
C	 0.4850424605	-0.1223796997	 2.5753632791	 0.239044
C	 0.2375322988	 0.2498798411	 3.6952815436	-0.441498
H	 1.1822332023	 1.8715311414	-0.1254455947	 0.116616
H	-0.3643344636	 1.9103421021	-0.9996591857	 0.124372
H	-0.3414735424	 2.0779606594	 0.7691867557	 0.123851
H	-1.0658294239	-0.2008446153	 0.109663518	 0.08485
H	 1.1579519948	-2.5819183756	-0.9715420259	 0.103133
H	 2.4790043134	-1.419700091	-1.1618432817	 0.107149
H	 2.3136067953	-3.3794117924	 1.4911913513	 0.13355
H	 3.5689244089	-2.1557557642	 1.346531553	 0.133835
H	 2.4286347283	-2.0899074348	 2.7075059647	 0.143334
H	 0.0260336038	 0.5723477378	 4.6845230339	 0.192114
