15
gdb 1714	3.62069	2.52138	1.96169	3.0523	57.32	-0.2551	-0.0306	0.2245	706.9559	0.12345	-345.640098	-345.632751	-345.631807	-345.672014	25.478	
C	 0.0293925922	 1.6876367619	-0.2242451277	-0.475687
C	 0.017881927	 0.170385955	-0.0559038745	 0.177792
C	 1.1817687588	-0.6089181748	-0.743976516	-0.107282
O	 1.5910813719	-1.1806917476	 0.5056999184	-0.267328
C	 0.6043927688	-0.4232158765	 1.2414055872	-0.112243
C	-1.3319496823	-0.3918295435	-0.4460478864	 0.117807
O	-2.0161120766	-1.1078073529	 0.2378300559	-0.243691
H	 1.0307659365	 2.0869499516	-0.0385164142	 0.132963
H	-0.2645209629	 1.9760101902	-1.2400516674	 0.126323
H	-0.6635056064	 2.1689563614	 0.4741241836	 0.134607
H	 0.8955024394	-1.3724743818	-1.4790222041	 0.109278
H	 1.9521250142	 0.0389996855	-1.1841312883	 0.102111
H	 1.0678521084	 0.3097410844	 1.9132167891	 0.097798
H	-0.0797962212	-1.0669074812	 1.8019606814	 0.130291
H	-1.6623457477	-0.0893996716	-1.4682508071	 0.077261
