20
gdb 121955	2.17652	0.93976	0.73601	4.0419	76.25	-0.2684	0.0311	0.2995	1575.8054	0.168675	-440.292041	-440.28146	-440.280515	-440.329296	36.854	
C	-0.0974153656	 1.5317756289	-0.0320806405	-0.406129
C	-0.0668743901	 0.0032980028	-0.0006513477	 0.138217
C	 0.570397872	-0.5145407899	 1.3017404113	-0.347226
C	 0.7224982815	-1.9675736001	 1.3062166152	 0.268097
N	 0.8576103628	-3.1147760366	 1.2978543785	-0.306226
O	-1.3696219594	-0.5540497189	-0.0479022158	-0.270028
C	-1.9219382416	-0.716102168	-1.3474506889	-0.081222
C	-3.3404415148	-1.2277869786	-1.1522059948	-0.063308
O	-4.128354239	-0.3042371554	-0.4273637113	-0.420107
H	 0.916479183	 1.9436166577	-0.0114778439	 0.123092
H	-0.5850148921	 1.8907685346	-0.9419526892	 0.133291
H	-0.6511052948	 1.9213515939	 0.8280395179	 0.128065
H	 0.5226757957	-0.3727664983	-0.8501072522	 0.092252
H	 1.5523472122	-0.0530524231	 1.4488784371	 0.151019
H	-0.0616764024	-0.2192159082	 2.1466189362	 0.156957
H	-1.9470519159	 0.2430407575	-1.8847622909	 0.099371
H	-1.3239877537	-1.4316275779	-1.9326538465	 0.101078
H	-3.8180473703	-1.3648866599	-2.1276261077	 0.111399
H	-3.3003701724	-2.2076194726	-0.6518416449	 0.104478
H	-3.6331646753	-0.111244118	 0.3768699982	 0.28693
