18
gdb 17470	4.12996	1.91123	1.63271	1.0957	69.97	-0.241	0.0786	0.3196	838.3757	0.155311	-347.779702	-347.772927	-347.771983	-347.810045	28.17	
O	 0.0115250769	 1.3786753433	-0.0394240413	-0.465289
C	 0.0314020838	-0.0192286606	 0.0109273015	 0.400286
C	-0.4306755763	-0.7884436576	-1.1968660258	-0.360944
C	-1.2673202873	-0.782462058	 0.0748819016	-0.082911
C	-1.125936883	-1.9018429215	 1.0857807336	-0.032174
C	-0.1521790352	-3.026570499	 0.830484093	-0.297458
C	 0.2824438774	-1.8420370868	 1.6552124963	-0.027721
C	 1.0155867947	-0.6711799127	 0.9970310272	-0.311845
H	 0.6844905447	 1.6634290661	-0.6669580739	 0.280024
H	-0.8206478143	-0.1879275769	-2.0127424837	 0.108476
H	 0.0879222813	-1.6863841375	-1.5142156038	 0.109444
H	-2.2096297886	-0.2488807033	 0.0381287014	 0.092008
H	-1.9817933696	-2.1012988776	 1.7200242863	 0.082101
H	-0.3240922808	-3.9552611554	 1.3649056641	 0.107036
H	 0.2552598764	-3.1732569786	-0.1637389973	 0.108458
H	 0.4624342865	-2.0093767768	 2.7114138987	 0.083665
H	 1.9583916788	-0.9696749089	 0.5226067196	 0.094702
H	 1.2562622949	 0.0829041019	 1.7529533025	 0.112143
