18
gdb 99599	2.23051	1.23803	0.99999	2.036	71.79	-0.282	0.0196	0.3016	1248.634	0.145481	-439.074439	-439.064699	-439.063755	-439.109527	34.784	
C	 0.1039616908	 1.4686915836	-0.546269635	-0.479569
C	 0.0306585095	 0.0151761182	-0.1349387277	 0.408839
C	 1.2166423338	-0.8466288078	-0.2448675995	-0.224524
O	 0.7885542655	-0.3396091379	 1.024875448	-0.276613
C	-1.3482846826	-0.6573737535	-0.1481703307	-0.219708
C	-2.3302132134	-0.0418256602	 0.8843886635	-0.078707
O	-3.5302257221	-0.7734811761	 0.970946437	-0.41498
C	-1.9542431307	-0.6278242234	-1.4815661711	 0.257919
N	-2.4682464006	-0.5800676538	-2.5163280838	-0.329402
H	 1.1387961398	 1.8155662257	-0.5092954415	 0.13585
H	-0.2758712911	 1.604562607	-1.5635098763	 0.149523
H	-0.4864732541	 2.1002870211	 0.1245229755	 0.136173
H	 1.1005740071	-1.9204004869	-0.3837138445	 0.121847
H	 2.147191815	-0.4273175146	-0.6233131007	 0.124061
H	-1.2163573643	-1.7067580238	 0.1362601888	 0.139971
H	-1.8521425008	-0.0970719446	 1.8656662831	 0.142472
H	-2.5111839935	 1.0152135358	 0.647090432	 0.10798
H	-4.0190840383	-0.6520840087	 0.1490383028	 0.298869
