17
gdb 41381	2.55474	1.89069	1.77928	0.653	66.06	-0.2538	0.0363	0.29	875.0681	0.137315	-458.89972	-458.892897	-458.891953	-458.930737	27.208	
C	 0.1228535563	 1.5484571121	-0.1665811698	-0.15388
O	 1.4759219287	 1.5476853506	 0.3893493868	-0.338398
C	 1.4252839962	 0.1184763717	 0.5697442077	 0.312736
C	 0.7823649928	-0.3722813961	 1.8840186493	-0.142003
O	-0.5289102261	-0.4402214589	 1.2418536523	-0.332908
C	 0.0306003397	 0.0134933814	-0.0048116815	 0.3247
C	 0.1271354479	-0.9947974954	-1.1335687072	-0.161733
O	 1.3504007167	-1.7034290916	-0.86507524	-0.264162
C	 2.2939459319	-0.7907262492	-0.2842223811	-0.154779
H	-0.5784338443	 2.1117100272	 0.4555981769	 0.120564
H	 0.1140463325	 1.9308389701	-1.1934562064	 0.110399
H	 1.1059137806	-1.3605986586	 2.2288998012	 0.115433
H	 0.8073972063	 0.3478400163	 2.7075600896	 0.116261
H	-0.6819716023	-1.7277629222	-1.1442234307	 0.128942
H	 0.1758388405	-0.489160357	-2.1098107756	 0.096724
H	 2.8077448277	-0.1899776065	-1.04926796	 0.106479
H	 3.0276067848	-1.3926671838	 0.2573060682	 0.115625
