19
gdb 81364	2.54963	1.65533	1.30342	1.7639	75.46	-0.2353	-0.0014	0.2339	1044.881	0.159766	-423.005396	-422.997317	-422.996373	-423.037565	31.807	
C	-0.0749504483	 1.5234349904	-0.0137359901	-0.433499
C	-0.03464428	 0.0027146781	-0.0404983087	 0.02742
C	 1.1980875022	-0.6072020308	-0.772405606	 0.029338
O	 1.9557210066	-0.5189119222	 0.4781882523	-0.303009
C	 0.6858075525	-0.6295511508	 1.1736745291	 0.072606
C	 0.3619762154	-2.1247137306	 1.3266603779	 0.065179
O	-0.9792902242	-2.2085362175	 1.8065180485	-0.438198
C	 0.5394061144	-2.8024151502	-0.0216256314	-0.105142
C	 0.9357102384	-2.0690861344	-1.0611361917	-0.059627
H	 0.9029668635	 1.9324468208	 0.2574043068	 0.13082
H	-0.3546991426	 1.9268113037	-0.9930150318	 0.112383
H	-0.8099725492	 1.8807770534	 0.7155220424	 0.119037
H	-1.0030836752	-0.4273307679	-0.3014016791	 0.085705
H	 1.6737751787	-0.0549935692	-1.5862849845	 0.072067
H	 0.6730905544	-0.103317348	 2.1323488857	 0.077285
H	 1.0565948086	-2.5629771178	 2.0613216101	 0.076962
H	-1.2062310524	-3.1377776864	 1.9118068637	 0.284938
H	 0.3316075257	-3.867312659	-0.0957171079	 0.089122
H	 1.0628853414	-2.4707992315	-2.0610453052	 0.096611
