21
gdb 112794	1.9476	1.43599	0.98919	2.1571	79.29	-0.2459	-0.0292	0.2167	1297.0983	0.179821	-424.225959	-424.215901	-424.214957	-424.26198	35.808	
C	-0.2067120662	 1.4049194002	 0.2129537985	-0.387616
C	-0.0569684418	-0.1094512799	 0.0328327332	-0.179035
C	 0.879006002	-0.6942661385	 1.0778452105	 0.145401
O	 0.3608898067	-0.5347655482	 2.4262246649	-0.306885
C	 0.4626731475	-1.9416579369	 2.722000828	 0.150078
C	-0.8685090377	-2.5360469903	 3.1462510667	-0.410771
C	 1.0052655928	-2.225431105	 1.2873166537	-0.20818
C	 0.2649464922	-3.2190598044	 0.4323380431	 0.141538
O	-0.1585526084	-3.0263417152	-0.6790491204	-0.244867
H	 0.7540291066	 1.9175609685	 0.0887736914	 0.110292
H	-0.9036150569	 1.8197515682	-0.5209722981	 0.112324
H	-0.5839578111	 1.6380156003	 1.2127837668	 0.134074
H	-1.03465983	-0.5953945002	 0.1051666845	 0.103354
H	 0.3346326977	-0.3474052444	-0.9617123535	 0.111107
H	 1.8625226289	-0.2091210433	 0.9963727914	 0.074701
H	 1.2141412002	-2.118604624	 3.5033860084	 0.079683
H	-1.6233920104	-2.4297767333	 2.3609045533	 0.130401
H	-0.7664621073	-3.5973131743	 3.3971296292	 0.118294
H	-1.2300357587	-2.0108558149	 4.035673225	 0.135015
H	 2.0454989746	-2.5731089372	 1.3099641884	 0.109287
H	 0.1559713391	-4.2195118472	 0.9140594051	 0.081804
