17
gdb 26575	2.35507	1.82981	1.04287	1.2482	80.68	-0.2267	-0.0436	0.1831	1117.5635	0.136056	-418.058035	-418.049427	-418.048483	-418.091601	31.408	
C	 0.1166840808	 1.5206171588	-0.1649701458	-0.469843
C	-0.0404612404	 0.0301031118	-0.0951244105	 0.204472
C	-1.2115386003	-0.6437732579	 0.0485239421	 0.16337
C	-2.5808856709	-0.0374089518	 0.1661401139	-0.48079
C	-1.1804672472	-2.1020529923	 0.0980205337	 0.337701
N	-2.2095280999	-2.8318215702	 0.2291835871	-0.532437
O	 0.0856017924	-2.6920560232	-0.0096288959	-0.214819
C	 1.1694002815	-1.9081387893	-0.1483090916	 0.120997
N	 1.1892304904	-0.6387193611	-0.1961860034	-0.325021
H	 0.7830270368	 1.855020986	 0.6377605506	 0.14451
H	 0.6061668081	 1.7918905878	-1.1067885215	 0.144512
H	-0.8245291136	 2.0625624844	-0.0891614393	 0.128203
H	-2.5627069863	 1.0510997126	 0.1250114146	 0.118013
H	-3.229421342	-0.4110804018	-0.632879924	 0.147563
H	-3.0524617629	-0.3483753563	 1.1039992333	 0.147564
H	-1.9573351743	-3.8199491797	 0.2391755553	 0.223903
H	 2.0761358477	-2.5018596678	-0.2191955986	 0.142102
