16
gdb 132143	3.1622	1.31289	0.93312	6.0157	78.91	-0.1926	-0.0062	0.1864	1190.0156	0.125008	-442.073451	-442.065308	-442.064364	-442.106054	30.854	
C	 0.0121071855	 1.4970087951	-0.0903831661	-0.493623
C	-0.0286106838	 0.000551605	 0.0124811264	 0.391106
C	-1.1496171279	-0.7485638923	-0.1208656555	-0.245121
C	-1.1604752787	-2.2011917186	-0.0156403517	 0.208116
N	-2.2450313301	-2.8875445041	-0.1474903304	-0.569685
C	 0.1674207477	-2.7478820665	 0.2479569293	 0.154879
F	 0.268023499	-4.0783286433	 0.3629018893	-0.083711
C	 1.2694749045	-1.9856013945	 0.3771026739	-0.10428
N	 1.1792531563	-0.6165591771	 0.2610220684	-0.395898
H	 0.6772770965	 1.8217972163	-0.8996737089	 0.136265
H	-0.9839344821	 1.8931748483	-0.2904175552	 0.151146
H	 0.3788454131	 1.9494289282	 0.8389840875	 0.136462
H	-2.09955443	-0.2664870095	-0.316156068	 0.108122
H	-2.0333562607	-3.8810918761	-0.0386961347	 0.207549
H	 2.2469744792	-2.4061521771	 0.5724255004	 0.13803
H	 2.0108653116	-0.0606145136	 0.3599921855	 0.260643
