18
gdb 22383	4.15943	1.07529	0.94933	1.8518	75.1	-0.2444	0.0086	0.253	1251.7418	0.146441	-439.050402	-439.04193	-439.040986	-439.083384	32.519	
C	-0.1256439339	 1.5002027012	 0.0652840463	-0.485541
C	-0.0695005794	-0.0018353277	 0.0909524157	 0.414025
C	-1.200504611	-0.8284995411	-0.505970886	-0.364287
C	-0.9839783187	-2.2140542624	 0.0744610911	 0.397619
C	-0.0277658303	-2.1705128799	 1.2517647269	-0.331085
C	 0.612256609	-0.8046679479	 1.1229856321	-0.024414
O	 1.2152659719	-0.5979535183	-0.1630935824	-0.297246
N	-1.5529734077	-3.2327271422	-0.4285357147	-0.216821
O	-1.2274699706	-4.40258826	 0.2820556804	-0.394485
H	 0.7482125753	 1.9249104197	 0.5653731795	 0.131704
H	-0.139454739	 1.8694001532	-0.9660943933	 0.130712
H	-1.0294969373	 1.8660007384	 0.5638391537	 0.12234
H	-2.1708912149	-0.4221004342	-0.1916120331	 0.118748
H	-1.1858638774	-0.834050584	-1.5994466225	 0.132912
H	-0.5691074042	-2.2718326076	 2.2015099999	 0.124465
H	 0.6940475068	-2.990829248	 1.2045572527	 0.143035
H	 1.1360871601	-0.3539096299	 1.9626387905	 0.091692
H	-1.6802100889	-5.0817272094	-0.2289115167	 0.306628
