17
gdb 84308	2.33353	1.72452	1.05992	5.8887	78.35	-0.2378	-0.0429	0.1949	1116.6765	0.136525	-418.052829	-418.044442	-418.043498	-418.086039	30.887	
C	-0.0437955202	 1.5778098342	 0.0806935444	-0.391885
C	 0.0481930553	 0.0436808613	 0.0758417439	-0.038002
C	 0.7915352024	-0.4833216438	-1.1223039738	-0.084367
C	 1.8574684293	-1.1884472451	-0.7505396703	-0.186049
C	 1.9433663881	-1.2443603394	 0.7347157802	 0.409945
O	 2.7648706749	-1.808054865	 1.4099107833	-0.338935
N	 0.8299359555	-0.4952647453	 1.1915462617	-0.110084
C	 0.3886370938	-0.3558675207	 2.5004447791	 0.083177
N	 1.031289533	-0.750710269	 3.5205961495	-0.419993
H	 0.9564625326	 2.0188267341	 0.0614909331	 0.13993
H	-0.5969361822	 1.9227768614	-0.7983192937	 0.126592
H	-0.5669239979	 1.9407107959	 0.9695060731	 0.128897
H	-0.970056892	-0.3734716693	 0.0995081607	 0.109636
H	 0.465839963	-0.2614485611	-2.1306546574	 0.124384
H	 2.5909838454	-1.6819730948	-1.3718175681	 0.132561
H	-0.5925742809	 0.1367228434	 2.5305560144	 0.087808
H	 0.49086286	-0.5485081967	 4.3605081798	 0.226385
