21
gdb 64186	2.15923	1.50564	1.33817	3.5924	78.5	-0.2369	-0.026	0.2109	1121.3145	0.178896	-424.223996	-424.213957	-424.213012	-424.258503	37.259	
C	-0.2041048247	 1.5160041774	-0.0041977401	-0.447499
C	-0.0227930062	-0.0016895811	-0.0191039172	 0.221036
C	-1.3343725895	-0.6990399897	-0.3758001803	-0.474981
C	 1.2339850047	-0.4388181889	-0.8126512658	-0.106019
O	 1.9900329525	-0.6452945399	 0.3963543548	-0.303744
C	 0.8120100916	-0.5614068043	 1.2115751801	 0.289915
C	 1.017691538	 0.2934294518	 2.4549937154	-0.465584
C	 0.331489654	-1.9469526532	 1.633874718	 0.119932
O	 0.7775874355	-2.9839700758	 1.2213626465	-0.249613
H	 0.7405178461	 2.0390172091	 0.1667071725	 0.12907
H	-0.5956020984	 1.848873165	-0.9720720021	 0.119234
H	-0.9159319974	 1.8316834833	 0.7660336252	 0.117638
H	-1.6800544357	-0.3638133177	-1.3599966029	 0.120381
H	-1.2266557999	-1.7862434841	-0.4163934166	 0.138648
H	-2.1250264539	-0.459666417	 0.3443379595	 0.118315
H	 1.1116130017	-1.3724054038	-1.375689713	 0.109411
H	 1.6921638734	 0.31979493	-1.4574209322	 0.100546
H	 1.337525495	 1.3023231901	 2.1924557093	 0.132341
H	 0.0978244967	 0.3593328521	 3.0454825696	 0.122111
H	 1.7943240317	-0.154110335	 3.0844676904	 0.139665
H	-0.5033965152	-1.9277614982	 2.3748931189	 0.069196
