21
gdb 107050	3.85205	1.08448	0.9679	2.5388	77.96	-0.235	0.0831	0.3182	1291.1041	0.182732	-424.215483	-424.206505	-424.205561	-424.249068	34.455	
C	 0.0602338845	 1.5391875746	-0.0337098799	-0.400592
C	 0.072691656	 0.0130562298	 0.0617082282	-0.000427
C	 0.8053152675	-0.6664410691	-1.1211759332	-0.109718
O	 1.3443798537	-1.8929280235	-0.6335401286	-0.312432
C	 1.5421184901	-1.7711690061	 0.762005832	 0.428303
C	 1.62169188	-3.1272780241	 1.4024243612	-0.141274
O	 2.7249667086	-3.8778377269	 0.9235706547	-0.418272
C	 2.3187507772	-0.5738696717	 1.2447635653	-0.357594
C	 0.7951276023	-0.5745994501	 1.2698711483	-0.134712
H	 1.0788010511	 1.9411732525	-0.0154899862	 0.118942
H	-0.4182726214	 1.8750050133	-0.9603125765	 0.115635
H	-0.4893431952	 1.9826515494	 0.8022204475	 0.118859
H	-0.9624741887	-0.3501993527	 0.091869324	 0.080165
H	 0.1468483366	-0.8975275972	-1.9633227824	 0.110425
H	 1.6108896562	-0.0165352436	-1.4942750817	 0.094998
H	 1.7553609977	-3.0217866611	 2.4834808585	 0.104796
H	 0.6735170141	-3.6608148623	 1.2276634894	 0.08885
H	 2.664869134	-3.8606492645	-0.0382809454	 0.292268
H	 2.8266387243	-0.6684631194	 2.198440552	 0.117981
H	 2.8419307799	 0.0459878961	 0.5242899686	 0.115307
H	 0.2846313016	-0.5814396634	 2.2268141341	 0.088493
