12
gdb 131409	3.13568	1.54898	1.03681	3.3412	61.9	-0.2581	-0.0629	0.1952	1032.1747	0.076921	-505.910675	-505.903197	-505.902253	-505.943816	27.125	
O	-0.0654438712	 1.2898112114	-0.2568892661	-0.377282
C	 0.075037853	-0.0219771564	-0.0729110816	 0.525455
N	 1.1844586933	-0.5161237581	 0.3148445922	-0.264785
O	 1.2144986082	-1.9223924089	 0.475601959	-0.275897
C	 0.1177044209	-2.7047015748	 0.2310155816	 0.367318
N	 0.1619051604	-3.9564064834	 0.3807192025	-0.46259
C	-1.1388439818	-2.0338040896	-0.2202805834	 0.334286
N	-2.1987110324	-2.6543623589	-0.4720076341	-0.450102
O	-1.0766063461	-0.6496571861	-0.352110475	-0.215486
H	 0.7840917567	 1.7023235305	-0.0456523316	 0.329792
H	 1.0926380879	-4.2435755605	 0.6921213289	 0.242207
H	-2.9376936489	-2.0120893653	-0.7644003023	 0.247085
