20
gdb 97072	3.90849	0.99927	0.83942	2.4653	79.03	-0.2426	0.0209	0.2635	1390.3647	0.171171	-440.297908	-440.288678	-440.287734	-440.332128	34.109	
C	 0.0389418323	 1.4622937512	-0.1432451832	-0.325663
N	 0.0152131575	 0.0101138569	-0.1111740575	-0.282921
C	-1.0701878281	-0.6026803778	 0.0907536055	 0.394532
C	-1.1311458042	-2.1137211188	 0.067294394	-0.292096
C	-2.1171228202	-2.6993441903	 1.0875353234	-0.217067
C	-3.4583668024	-1.9932259494	 0.9510329799	 0.101079
O	-4.3320166783	-2.484628995	 1.9542873612	-0.427638
C	-3.2394341903	-0.4880086401	 1.1260655976	-0.1032
O	-2.2740363143	 0.0525619218	 0.2199544749	-0.261198
H	 0.9436148157	 1.8101383426	 0.3658485161	 0.119527
H	 0.1104280242	 1.8019570239	-1.1842133132	 0.124632
H	-0.8384281521	 1.936733433	 0.3097289274	 0.116063
H	-1.4479999738	-2.4101222163	-0.9425975623	 0.121503
H	-0.1189762478	-2.4941137275	 0.2091415273	 0.131317
H	-2.237649994	-3.7761571741	 0.9383099356	 0.109499
H	-1.7504277317	-2.5518982159	 2.1108089675	 0.113558
H	-3.8654229456	-2.1821741885	-0.0556066921	 0.074076
H	-5.2104895531	-2.1228626944	 1.7987214596	 0.286612
H	-4.1608031572	 0.0729943571	 0.9394655878	 0.104228
H	-2.9291869868	-0.3009303084	 2.1636427305	 0.113158
