18
gdb 86636	2.97079	1.15035	0.85449	10.9883	79.79	-0.1973	-0.0044	0.193	1326.965	0.147856	-439.080688	-439.071916	-439.070972	-439.11444	32.13	
C	-0.8175402706	 1.2267163138	-0.0174908506	-0.428609
C	 0.158356619	 0.0609532807	-0.022113578	 0.018076
C	 1.1049070356	-0.0706303638	-1.2087109142	-0.332
C	 2.3645321855	-0.7933216442	-0.6347597209	 0.324824
O	 3.1842406177	-1.3452127408	-1.3432280085	-0.358907
C	 2.3203983441	-0.6577371076	 0.7860856427	-0.054349
N	 1.1294198109	 0.1517785072	 1.1574500917	-0.29819
H	 1.3512774443	 1.1412923028	 1.3196644919	 0.288998
H	 0.6962042026	-0.1842299476	 2.020502532	 0.293639
C	 3.1124939985	-1.1523343124	 1.8556854399	 0.058454
O	 4.1299068703	-1.8181531455	 1.7971418481	-0.30826
H	-0.2963985505	 2.1817664849	-0.1478906102	 0.13621
H	-1.5156979897	 1.1178630214	-0.8513568083	 0.15845
H	-1.405624132	 1.2697068421	 0.9061049962	 0.127228
H	-0.3651791406	-0.8859089834	 0.1367856986	 0.13195
H	 0.671643589	-0.6472465409	-2.0271649998	 0.138337
H	 1.391776729	 0.9123235722	-1.6037834208	 0.120284
H	 2.6845348667	-0.870580869	 2.8657194603	-0.016134
