23
gdb 80617	2.32506	1.79476	1.35407	0.2023	88.88	-0.2571	0.0917	0.3488	1080.7962	0.207979	-351.13668	-351.128735	-351.127791	-351.168525	33.284	
C	-0.106331045	 1.5394512895	-0.049007299	-0.414067
C	 0.052624151	 0.0204826867	-0.0179603588	-0.049306
C	 0.9914493506	-0.5640320955	-1.1048355903	-0.019684
C	 2.4121403708	-0.3354323375	-0.5042198166	-0.231952
C	 1.9028737443	-1.3612699379	 0.5491654639	-0.082593
C	 1.1485498353	-2.0390141624	-0.6325793294	-0.236907
C	 0.7783972282	-0.5771993682	 1.2212904202	 0.424302
C	 0.9731292773	 0.1377137446	 2.5280153121	-0.341304
C	 0.0694613282	-1.0754125371	 2.4464977531	-0.341706
H	 0.8549831595	 2.0539245469	 0.0442137831	 0.116946
H	-0.5695586261	 1.8589091602	-0.9891166483	 0.108927
H	-0.748578006	 1.8909796354	 0.7656906125	 0.111509
H	-0.942338491	-0.4313738464	-0.1202517963	 0.067124
H	 0.7561880083	-0.3122743236	-2.1402179352	 0.053532
H	 3.2013653275	-0.7412389861	-1.1417543713	 0.091779
H	 2.6860311749	 0.6647739561	-0.1586120245	 0.090858
H	 2.5807503582	-1.9123763728	 1.2032330511	 0.050422
H	 0.2419712211	-2.6076617427	-0.404528927	 0.088137
H	 1.8107552558	-2.6209079203	-1.2782048806	 0.090996
H	 1.9284180445	 0.0292594691	 3.0330441497	 0.105628
H	 0.5093255567	 1.1083215319	 2.6695137567	 0.107516
H	-1.0018125364	-0.9141492431	 2.5228734512	 0.104828
H	 0.4105581723	-1.9999355172	 2.9028433034	 0.105013
