25
gdb 101696	2.18534	1.23457	0.8854	0.9804	89.58	-0.2411	0.0853	0.3264	1450.011	0.226065	-389.483919	-389.473014	-389.472069	-389.519828	41.095	
C	 0.9528887001	 1.4636597899	 0.1077012493	-0.389897
C	 0.8651695524	-0.0606810187	 0.0251363717	-0.161006
C	 1.2595841296	-0.6418965502	-1.3381544049	 0.125993
C	 1.24414608	-2.1728403452	-1.3058684666	-0.394458
O	 0.3238687269	-0.1469569672	-2.3047096385	-0.306706
C	 0.8264229512	 0.2360785119	-3.5567564299	 0.446573
C	 1.2398193517	-0.8910645962	-4.4809018007	-0.450721
C	 0.1287444001	 1.4322974011	-4.1334653534	-0.31109
C	 1.5573436104	 1.5571842689	-3.6378491371	-0.318596
H	 1.9761102682	 1.8145649061	-0.0699036265	 0.10905
H	 0.3005510714	 1.9285136084	-0.6361271509	 0.128701
H	 0.6480052657	 1.8226941371	 1.0955373443	 0.108328
H	 1.5079855764	-0.5136992188	 0.7897990213	 0.09087
H	-0.1594074195	-0.3860656688	 0.2451622837	 0.102401
H	 2.2664363578	-0.2853014769	-1.6019602182	 0.069459
H	 0.2380720742	-2.5314305945	-1.0653800845	 0.121442
H	 1.5345172916	-2.6025523868	-2.2669116967	 0.114716
H	 1.9343473472	-2.5493524506	-0.5434763399	 0.108827
H	 0.431122329	-1.6228725118	-4.5775837259	 0.122585
H	 1.4714939843	-0.5030588185	-5.4772295986	 0.112658
H	 2.1319512688	-1.4105937943	-4.1159614197	 0.117424
H	-0.0583287852	 1.4595847813	-5.2014248613	 0.107428
H	-0.647652516	 1.8776873445	-3.5225199607	 0.120475
H	 1.7153333335	 2.1019670862	-2.7149294682	 0.117922
H	 2.3520641102	 1.664788633	-4.3687743682	 0.107623
