21
gdb 111834	2.74755	1.33005	1.19397	1.1877	84.04	-0.2302	0.0135	0.2438	1173.9031	0.183611	-387.080019	-387.0715	-387.070556	-387.113299	32.873	
C	-0.3838852918	 1.4118108557	 0.2073388388	-0.373303
C	 0.2479813426	 0.0532343336	-0.118492346	-0.191716
C	 0.9019349204	-0.58064956	 1.0903823625	-0.040339
C	 0.083271828	-1.3013962287	 2.1348243016	 0.074007
O	-1.2885620734	-1.4325248817	 1.8822998341	-0.257925
C	-1.7260207522	-2.7504903108	 1.5707322746	-0.116386
C	-0.8806273851	-3.4189953494	 0.5161442602	-0.077355
C	 0.3982730264	-3.0806266236	 0.3588379242	-0.074434
C	 1.0286866251	-2.0951793877	 1.2722108677	-0.142468
H	 0.3566821047	 2.1111817664	 0.6116654003	 0.106299
H	-0.818574116	 1.8693034366	-0.6872681263	 0.105438
H	-1.1775403665	 1.2945705377	 0.9509032712	 0.132485
H	-0.5170341644	-0.6198992736	-0.5141180587	 0.106765
H	 0.999615995	 0.1711676999	-0.909621531	 0.089401
H	 1.743900981	-0.0177407284	 1.4886936354	 0.080732
H	 0.3162561763	-1.1533005487	 3.1882224092	 0.083099
H	-1.7587912113	-3.3725535353	 2.4823086211	 0.102639
H	-2.7588020622	-2.6391437471	 1.2245038595	 0.115295
H	-1.354111766	-4.1760466891	-0.1019712874	 0.093755
H	 1.0119134572	-3.5394131252	-0.4117147696	 0.091689
H	 1.9541036022	-2.4307783306	 1.7336242287	 0.092324
