20
gdb 6941	4.95691	0.98243	0.91573	2.462	73.02	-0.2526	0.0861	0.3387	1352.6093	0.17361	-386.117509	-386.107739	-386.106795	-386.152272	34.438	
C	-0.297088088	 1.3405105092	-0.026261723	-0.223962
O	-0.1741530369	-0.0596415575	-0.0865701963	-0.232456
C	 0.7973329293	-0.4839578637	-1.0184024707	-0.089647
C	 0.8309703483	-1.9900629431	-0.9978592747	-0.000801
O	 0.0015416501	-2.6950559771	-1.9283886309	-0.292885
C	 1.4278784052	-2.8349856367	-2.0481622212	 0.394851
C	 2.0406906605	-2.2483614779	-3.3036537037	-0.456544
C	 1.9558453653	-4.2030957662	-1.6669871447	-0.451257
H	 0.6489975081	 1.8224679063	 0.2696275561	 0.101226
H	-0.6091800943	 1.7665568198	-0.9930709582	 0.10548
H	-1.0592218555	 1.5697747196	 0.722284459	 0.129251
H	 0.5543994775	-0.1177293734	-2.0265967748	 0.096684
H	 1.7905807126	-0.0831348184	-0.7450870479	 0.086057
H	 0.8031331273	-2.3932541715	 0.0163765199	 0.090551
H	 1.5852979139	-1.2945564937	-3.5735293001	 0.126766
H	 3.1181823598	-2.0980403248	-3.1748356969	 0.120099
H	 1.9008166579	-2.937846042	-4.1434210714	 0.125855
H	 1.7915897713	-4.9153868579	-2.4830848178	 0.123954
H	 3.0323889148	-4.1656936076	-1.467546246	 0.118119
H	 1.4480288729	-4.5808219634	-0.776527967	 0.128659
