17
gdb 77036	2.53813	1.14728	0.91644	4.7305	74.51	-0.2611	-0.0071	0.2539	1281.7494	0.134554	-418.015784	-418.006434	-418.00549	-418.050754	32.544	
C	 0.155269886	 1.4532237076	 0.4171215676	-0.412512
C	-0.1315083075	 0.0255738244	 0.0120360113	-0.020511
C	 0.3929095614	-0.6215601936	-1.2539391062	-0.031545
C	 1.2592376812	 0.1412717479	-2.2489080021	-0.367126
C	 2.1437568176	-0.7481707034	-3.0032732849	 0.266965
N	 2.8359697988	-1.4628546654	-3.5904024674	-0.296551
N	 0.8921088226	-0.9934773324	 0.0488558895	-0.05917
C	 2.1673767857	-0.9199427862	 0.569830193	 0.128886
O	 2.4461138293	-0.403852134	 1.6258145091	-0.299876
H	 1.1227096087	 1.8112776186	 0.060080957	 0.130579
H	-0.6276538859	 2.1147693289	 0.032904363	 0.127002
H	 0.1693116166	 1.5311310856	 1.5070810367	 0.159026
H	-1.1057515538	-0.3345671717	 0.3419695513	 0.11339
H	-0.2334274847	-1.376195124	-1.7274522767	 0.12356
H	 0.6123109608	 0.6702779668	-2.9587747028	 0.166358
H	 1.8709150399	 0.8961877086	-1.7468713563	 0.163559
H	 2.9002943531	-1.4584386678	-0.0602798021	 0.107965
