20
gdb 103256	2.32054	1.57448	1.19573	3.8037	79.05	-0.2421	-0.0082	0.2339	1128.5129	0.169392	-403.141477	-403.132337	-403.131393	-403.175195	34.532	
C	-0.4678536596	 1.324133393	-0.1502110868	-0.385912
C	 0.198177868	-0.0428203586	 0.0637091037	-0.268149
C	 0.8445908179	-0.6094716653	-1.1940979061	 0.327076
C	 2.0982057069	 0.118861248	-1.6419253686	-0.451
C	 0.7634459811	-2.0318809837	-1.5856994037	-0.078825
C	-0.5283249043	-2.7374864662	-1.1797064131	-0.395273
C	-1.2319398233	-1.5685092365	-1.8874312071	 0.404895
O	-2.3616979539	-1.2401504551	-2.0805369994	-0.306669
N	-0.0117163698	-0.9692140646	-2.3911731815	-0.219637
H	 0.2502053959	 2.0814913255	-0.4774556394	 0.120048
H	-1.2571549934	 1.2571926641	-0.9040006557	 0.151079
H	-0.9176948915	 1.676418174	 0.7824435904	 0.117139
H	 0.9796443662	 0.0378198344	 0.8295370084	 0.102199
H	-0.5447170222	-0.7387778968	 0.4634709342	 0.112108
H	 2.8690078249	 0.0531258043	-0.866290028	 0.119851
H	 2.4897829581	-0.3138313763	-2.5651347864	 0.131792
H	 1.891939206	 1.1755565558	-1.830445109	 0.136096
H	 1.6016468304	-2.5373068562	-2.0528520416	 0.105573
H	-0.6849731415	-3.6727821514	-1.7241786861	 0.143295
H	-0.7397602062	-2.9017974584	-0.1209056141	 0.134315
