20
gdb 104376	2.157	1.58655	1.37966	1.8419	76.13	-0.2512	0.0208	0.272	1085.2126	0.170694	-440.300892	-440.291697	-440.290753	-440.334507	34.38	
C	-0.1373825689	 1.2747853225	 0.109766559	-0.251939
O	-0.0373372592	-0.1236242395	-0.110586332	-0.29656
C	 0.7688353481	-0.552711277	-1.2171677292	 0.303678
C	 2.2010622379	-0.0415594438	-1.1460662688	-0.460782
C	 0.6130324406	-2.0793027861	-1.230265623	-0.265
C	-0.7356124853	-2.2571566718	-1.9311952239	-0.092623
O	-0.8166925066	-1.1630754658	-2.8681067629	-0.247985
C	 0.0469624435	-0.1735073292	-2.5139945598	 0.398998
N	 0.2059172416	 0.9100887727	-3.1464856074	-0.54345
H	 0.8045921524	 1.6994038037	 0.4809129874	 0.109341
H	-0.4335201989	 1.8150577587	-0.7962599047	 0.138125
H	-0.9038893022	 1.404749857	 0.8778049662	 0.122766
H	 2.6329633622	-0.270294878	-0.1671091422	 0.119099
H	 2.8116639919	-0.515859729	-1.9190242412	 0.121588
H	 2.2382717682	 1.0360868309	-1.3170155108	 0.147441
H	 1.4148385699	-2.5336485487	-1.8194620285	 0.111511
H	 0.6308176775	-2.4913318596	-0.2203149711	 0.120993
H	-0.8259098842	-3.1855495154	-2.4990422889	 0.11738
H	-1.5709135828	-2.1793213491	-1.2284431003	 0.126208
H	-0.4186822057	 0.9495911976	-3.9549580578	 0.221212
