23
gdb 118249	4.83259	0.67309	0.61948	0.2259	84.16	-0.2376	0.0854	0.323	1873.1806	0.202663	-425.391805	-425.380972	-425.380027	-425.428889	38.432	
C	-0.5729773269	 1.5289550242	-0.7085978457	-0.223928
O	-0.5819627157	 0.1240313332	-0.7796828957	-0.234358
C	-0.6688783648	-0.4896757482	 0.4862960336	-0.070867
C	-0.6506193635	-2.0051223781	 0.2932968455	 0.113996
C	 0.6409537107	-2.4903110172	-0.3617975662	-0.397862
O	-0.8539312276	-2.5393678671	 1.5988721275	-0.267259
C	-1.2677053738	-3.8689463611	 1.6360169741	 0.153973
C	-0.2610767887	-4.9739243708	 1.8448058734	-0.283691
C	-1.1904690129	-4.5470445247	 2.9646755349	-0.297053
H	-0.5042881581	 1.9088557545	-1.7309310223	 0.125921
H	-1.4921145869	 1.9204939262	-0.244569466	 0.104647
H	 0.2870856945	 1.9034179356	-0.1309712176	 0.104556
H	 0.1756530289	-0.1898142828	 1.1299362531	 0.089945
H	-1.5974535691	-0.2024397846	 1.0040639919	 0.092619
H	-1.5056457965	-2.2731473051	-0.3480144501	 0.074745
H	 1.4966967552	-2.2788276532	 0.2883971644	 0.113249
H	 0.6100499113	-3.5651377229	-0.5551602904	 0.119445
H	 0.7862913046	-1.967094096	-1.31012497	 0.133339
H	-2.1284125069	-4.082433242	 1.0004422713	 0.081999
H	-0.426127846	-5.930484739	 1.3603599167	 0.109793
H	 0.7778337983	-4.678946015	 1.9330005448	 0.119449
H	-0.7552405375	-3.969699982	 3.7724441596	 0.124297
H	-1.9993740788	-5.2055606339	 3.2600285129	 0.113046
