14
gdb 16473	3.3183	2.84744	1.86383	0.2713	55.93	-0.2465	0.052	0.2984	696.2013	0.107735	-419.5982	-419.592398	-419.591453	-419.627774	23.75	
O	 0.1555756257	 1.36331202	 0.1273747786	-0.477856
C	 0.0784903543	-0.0069790641	 0.0801244238	 0.390401
C	 0.9239856355	-0.7880375495	 1.0692380635	-0.13368
O	 0.5773821356	-2.1432582156	 0.7136480602	-0.275141
C	-0.3407758345	-1.9750780797	-0.3402178503	 0.105057
C	-1.2856381939	-0.7731714969	-0.076343242	-0.056287
O	-1.3242486662	-0.4447831672	-1.5092562115	-0.335606
C	 0.0807463533	-0.8087916959	-1.2724574296	-0.056287
H	-0.4390756778	 1.6916083181	-0.5616570628	 0.294812
H	 1.9992233113	-0.6234559252	 0.937824739	 0.1191
H	 0.6568322402	-0.5884637773	 2.1129296992	 0.119099
H	-0.7105273426	-2.917547357	-0.7345376639	 0.110425
H	-2.2089996822	-0.6971737353	 0.49751953	 0.097982
H	 0.7733502915	-0.7749203244	-2.1131964541	 0.097982
