19
gdb 70125	2.63923	1.67107	1.21056	1.8118	82.49	-0.2298	-0.0306	0.1992	1068.8276	0.159985	-385.889042	-385.881127	-385.880182	-385.921017	31.554	
C	-0.1680977462	 1.4727606434	-0.2290276349	-0.468743
C	 0.0783421012	 0.000923988	 0.0018137505	 0.404518
C	-0.7342570388	-0.9637948769	-0.8600624997	-0.335602
C	-2.0298835361	-1.3865273007	-0.2175263289	-0.080006
C	-2.0872900179	-2.0620901292	 0.9396768559	-0.069799
C	-0.9326508567	-2.4679276166	 1.739091234	-0.074203
C	 0.2402397673	-1.8251766523	 1.8573332142	-0.111658
C	 0.5497787033	-0.479868754	 1.3066978072	-0.031793
O	 1.4535305226	-0.3735625741	 0.1844039905	-0.306155
H	 0.4196656135	 2.0850093878	 0.4591601307	 0.125641
H	 0.1039106563	 1.7494746685	-1.2536822142	 0.125234
H	-1.2291689278	 1.7075010509	-0.0880026399	 0.12393
H	-0.9150527139	-0.5220970853	-1.8449798509	 0.098167
H	-0.1014511664	-1.8468339655	-1.0097522962	 0.133372
H	-2.9555999913	-1.1623949627	-0.7404578188	 0.092942
H	-3.0573450349	-2.3937822431	 1.3034518076	 0.090904
H	-1.057659971	-3.3906929062	 2.303803403	 0.094418
H	 1.0098472416	-2.2554789767	 2.4949461066	 0.098489
H	 0.7546636653	 0.2715272146	 2.0738812735	 0.090343
