17
gdb 46114	3.46298	1.01103	0.81928	4.3231	74.56	-0.266	0.0123	0.2783	1361.5607	0.135319	-421.845049	-421.836537	-421.835593	-421.878894	31.411	
O	 0.0298905836	-0.0209712474	 0.1634269189	-0.329876
C	-0.0485123099	 1.171100337	 0.1331425749	 0.42919
C	-1.3001411687	 2.0426085488	 0.072867097	-0.362731
C	-0.7891953762	 3.4266747681	 0.4771596769	-0.25351
C	 0.6895449906	 3.3671968487	 0.0541996341	 0.135408
C	 1.6318038894	 4.1904570852	 0.9370017215	-0.37114
C	 3.0091624083	 4.2132014539	 0.462589839	 0.299183
C	 4.1387661063	 4.2373204389	 0.0552634144	-0.425032
O	 1.0520725593	 1.9762846514	 0.1425616638	-0.224867
H	-1.6733630817	 2.0248619608	-0.9576047146	 0.142474
H	-2.0808631278	 1.6296194826	 0.712324772	 0.143
H	-1.317802163	 4.2553640026	 0.002099906	 0.118888
H	-0.8585645945	 3.5590397061	 1.5625030689	 0.118111
H	 0.810128717	 3.6751749583	-0.9917924033	 0.102797
H	 1.2385394475	 5.214613538	 0.9846733103	 0.135495
H	 1.5871935279	 3.7875284771	 1.9564429476	 0.141798
H	 5.140414312	 4.2497205097	-0.2969525974	 0.200812
