21
gdb 78318	2.98889	1.38564	1.21215	1.6767	82.09	-0.2401	0.0743	0.3144	1146.4977	0.182112	-387.041046	-387.032666	-387.031722	-387.073355	33.44	
C	-0.0828900168	 1.4300197424	 0.0036908037	-0.428794
C	 0.0541338549	-0.0775263568	 0.0546048842	-0.014428
C	 1.4108622687	-0.6539647564	-0.2536328854	-0.083393
C	 0.8523409395	-0.6612466138	 1.1833127342	-0.103646
C	 0.8386801396	-2.209847858	 1.14920384	 0.442945
C	 1.4166815593	-2.9327602156	 2.3357985513	-0.479457
O	-0.3961893717	-2.8175843364	 0.6568959873	-0.337465
C	 0.1488552078	-2.9474891215	-0.6818933571	-0.115953
C	 1.431882282	-2.1987757985	-0.2782826455	-0.13235
H	 0.8333129585	 1.9257036172	 0.3423432314	 0.113641
H	-0.2891188664	 1.7727941962	-1.0159923221	 0.118032
H	-0.902555325	 1.7719638988	 0.644538126	 0.12071
H	-0.8344790041	-0.618495143	-0.2560597133	 0.101135
H	 2.1958841479	-0.0313477688	-0.6671817046	 0.082406
H	 1.1485822578	-0.0677400155	 2.0420119508	 0.074168
H	 0.7455759341	-2.8370894729	 3.1972078748	 0.12885
H	 1.5461583617	-3.9973351721	 2.120847403	 0.121026
H	 2.3866102285	-2.5071105334	 2.6132829781	 0.11923
H	 0.3060081904	-4.001644726	-0.9429582452	 0.098183
H	-0.4900845541	-2.4816020645	-1.4410153523	 0.099931
H	 2.3956450476	-2.6538937315	-0.5044193996	 0.07523
