19
gdb 105754	2.29016	1.50275	1.21977	1.1553	76.56	-0.2579	0.0392	0.2971	1135.2947	0.157313	-422.995045	-422.985611	-422.984667	-423.029891	34.294	
C	 0.0632624798	 1.550466608	 0.1559969933	-0.392879
C	 0.0128487331	 0.0288353917	 0.0116830603	-0.231975
C	 0.7197871107	-0.4913139048	-1.2375266179	 0.229674
O	 2.0919580958	-0.1476172426	-1.1838955167	-0.256071
C	 2.7731099608	-1.1126642225	-1.9764644791	-0.115648
C	 1.8473065609	-2.3560183055	-1.9307974999	-0.110669
O	 0.6921532365	-1.9092702797	-1.226455464	-0.26825
C	 0.111729439	 0.015179481	-2.4919855708	 0.367807
C	-0.3769667057	 0.4152627813	-3.5147949621	-0.487148
H	 1.097312077	 1.9019778347	 0.2014596448	 0.135094
H	-0.4269696957	 2.0446246103	-0.6878154965	 0.128614
H	-0.4453217115	 1.8617745245	 1.0727706468	 0.113365
H	 0.5004825083	-0.4614986616	 0.859731746	 0.111118
H	-1.0218583982	-0.3261686385	-0.0248143038	 0.116987
H	 2.9043994245	-0.7510744785	-3.0038326621	 0.112383
H	 3.7550918182	-1.2825170077	-1.5291430576	 0.119405
H	 1.583661265	-2.6984271237	-2.9385600617	 0.111264
H	 2.2776917862	-3.1924719659	-1.37332108	 0.11762
H	-0.8123315845	 0.7702580194	-4.416556349	 0.199309
