21
gdb 66423	2.72763	1.53276	1.23504	0.1018	87.61	-0.2105	0.0896	0.3001	1137.112	0.180168	-349.865669	-349.85668	-349.855736	-349.898514	35.12	
C	 0.0313149431	 1.5089432277	 0.0127172587	-0.522215
C	 0.006631715	 0.0161145353	 0.0029117129	 0.374178
C	 0.8651339166	-0.9810834907	-0.7641713693	-0.216679
C	 0.8616861006	-0.9909982249	 0.7608342659	-0.216654
C	-0.3161157131	-2.0165277419	 0.7530282023	 0.310928
C	-0.7101151618	-3.0834311256	 1.721145646	-0.525659
C	-1.1746748321	-1.0062646911	-0.0066996194	-0.281972
C	-0.3123330934	-2.0069822136	-0.7747291558	 0.310932
C	-0.7014126262	-3.0618118272	-1.7579470216	-0.525663
H	 1.0634920042	 1.8772424301	 0.0180097456	 0.118714
H	-0.4652427249	 1.9264148453	-0.8716378287	 0.117941
H	-0.4701919399	 1.9148481507	 0.899661258	 0.117948
H	 1.684410388	-0.8009966695	-1.4495321859	 0.076733
H	 1.6778767097	-0.8198963853	 1.4521544272	 0.076734
H	-0.9409426992	-2.6654222646	 2.708611434	 0.11935
H	-1.6026550843	-3.6151929715	 1.3728103258	 0.11842
H	 0.087430535	-3.8250537805	 1.8519327729	 0.117962
H	-2.2513829695	-0.8829496367	-0.0086262982	 0.073266
H	-0.9267282159	-2.6316213685	-2.7414452162	 0.119348
H	 0.0965619981	-3.8021180434	-1.8935005312	 0.117966
H	-1.59603371	-3.5974083043	-1.4210137429	 0.118422
