18
gdb 63099	2.76079	1.41781	1.25918	2.1319	73.61	-0.2495	0.0238	0.2732	1067.3986	0.147824	-439.091629	-439.083375	-439.082431	-439.124051	32.109	
C	-0.0759772095	 1.5740465134	 0.0932882534	-0.472957
C	 0.0363447649	 0.0718811416	-0.0239474309	 0.400663
O	-1.0837452708	-0.6238220748	 0.4556606589	-0.466053
C	 0.6537063388	-0.6350429404	-1.1867443522	-0.122054
C	 1.5867674655	 0.1495525447	-2.0898229107	-0.117816
O	 2.639124586	 0.6625747114	-1.2521524137	-0.249875
C	 2.6150133047	 0.0804648171	-0.0052409987	 0.409048
N	 3.5368945355	 0.1956752953	 0.8510152841	-0.55274
C	 1.3551053734	-0.6841419673	 0.1624226925	-0.200812
H	 0.7949134187	 2.0888832511	-0.3163648236	 0.145552
H	-0.9714251874	 1.9214330706	-0.4317062912	 0.12868
H	-0.1657425451	 1.8662724941	 1.1461552998	 0.119972
H	-1.1667655589	-0.4369672105	 1.3978676007	 0.285759
H	 0.1359071652	-1.4982029091	-1.5855947867	 0.112965
H	 2.0291990757	-0.4999762809	-2.8538551834	 0.120569
H	 1.1124815182	 1.0008214041	-2.5887857929	 0.120064
H	 4.3119445631	 0.7392516968	 0.46742694	 0.221157
H	 1.3561594121	-1.5525564772	 0.8060710347	 0.117876
