19
gdb 96414	2.02192	1.67215	1.20082	4.9588	74.7	-0.2382	0.0244	0.2627	1104.1359	0.161463	-419.221138	-419.212619	-419.211675	-419.254042	32.708	
O	-0.1153335573	 1.4329452404	 0.0111488995	-0.42062
C	-0.0240182462	 0.0240350223	-0.0093439922	 0.124666
C	-1.4382940732	-0.5421927118	 0.0856569492	-0.206844
C	-1.4212108456	-2.0759407183	 0.0050122744	-0.210591
C	-0.6708276237	-2.5444686698	-1.2506403814	-0.168063
N	 0.6773332734	-1.9751035804	-1.3854970969	-0.282413
C	 0.6931293761	-0.5128787221	-1.2837732802	-0.198379
C	 0.1043173709	 0.0778767682	-2.5003568979	 0.325894
N	-0.3606588674	 0.5355046115	-3.4536064216	-0.332306
H	 0.7713936783	 1.8081249033	-0.0116321924	 0.287139
H	 0.5682136671	-0.3465380318	 0.8452958929	 0.066042
H	-1.896456116	-0.1959894234	 1.0170088153	 0.109467
H	-2.0311065129	-0.1244414331	-0.7371352126	 0.130664
H	-0.9298636994	-2.4896239204	 0.8965388038	 0.091573
H	-2.4450459948	-2.4662796832	 0.0000603471	 0.105265
H	-0.5729431248	-3.6340006923	-1.2668665824	 0.107993
H	-1.2377862661	-2.2633512343	-2.1468685462	 0.132422
H	 1.2868260681	-2.3515427211	-0.6661416984	 0.224215
H	 1.7434832734	-0.1940174437	-1.2567849098	 0.113875
