23
gdb 41991	3.13407	1.36137	1.01497	0.1967	91.77	-0.222	0.029	0.251	1243.4766	0.209938	-351.199694	-351.191816	-351.190872	-351.231957	32.198	
C	-0.057933775	 1.533732599	-0.1999341786	-0.212423
C	 1.39678217	 2.0169219527	-0.0351062783	-0.232584
C	 2.2241291013	 0.7983721584	-0.4835619136	-0.031467
C	 3.6960972676	 0.7385053933	-0.0755338841	-0.225178
C	 4.2484390266	-0.6689887688	-0.3510639599	-0.208564
C	 3.4909814613	-1.745381337	 0.4472514164	-0.233491
C	 2.0061062267	-1.4878102604	 0.5234863778	-0.208411
C	 1.4361125835	-0.3646598715	 0.0933704202	 0.364719
C	-0.0248980795	 0.0402169381	 0.2191933813	-0.309013
H	-0.7726937858	 2.1207271066	 0.3828393481	 0.094002
H	-0.3543352859	 1.6211526452	-1.2515221289	 0.098006
H	 1.6158174992	 2.9237984908	-0.6068666593	 0.089808
H	 1.6063906835	 2.2328573351	 1.0207898089	 0.094666
H	 2.1672834214	 0.7505073179	-1.5841460371	 0.072757
H	 4.282055029	 1.4932827242	-0.6125137203	 0.086592
H	 3.7847962173	 0.9674552281	 0.9952255748	 0.091289
H	 4.1513352466	-0.8791630347	-1.4240694104	 0.096106
H	 5.3180177683	-0.7173473052	-0.1202799026	 0.088365
H	 3.6803292185	-2.7352378014	 0.0109616525	 0.098571
H	 3.8913804263	-1.8033729545	 1.4712043678	 0.101765
H	 1.3994060823	-2.261861378	 0.9917520496	 0.069574
H	-0.3695968031	-0.0893897557	 1.2516771039	 0.108969
H	-0.6841106202	-0.5727338821	-0.4052708485	 0.105941
