19
gdb 87260	3.73106	0.86582	0.81852	5.2004	73.49	-0.2702	0.0093	0.2794	1463.1445	0.155752	-460.173254	-460.163177	-460.162233	-460.209017	35.281	
C	 0.6146129054	 1.1636454094	-0.3878753153	-0.426749
C	 0.2719201753	-0.1910837513	 0.1755818838	 0.029576
O	 1.3549345561	-1.0394214801	 0.5836817437	-0.293107
C	 0.4281724142	-0.5884409109	 1.5889899769	 0.370476
C	 0.9839288402	 0.3266198015	 2.6557476384	-0.471255
C	-0.4653590544	-1.7035034624	 2.0969553614	-0.158281
O	 0.2336392989	-2.5420493987	 3.0261391919	-0.183369
C	 0.9349781954	-3.577835172	 2.5108657606	 0.178717
O	 1.5970111109	-4.2993134081	 3.1927203756	-0.273595
H	 1.3687750808	 1.6793771155	 0.2083280638	 0.132556
H	 1.0029551321	 1.0552373746	-1.405726385	 0.137347
H	-0.2824943205	 1.7900586392	-0.437894092	 0.126478
H	-0.4952911916	-0.7213890232	-0.3947984081	 0.085626
H	 0.1803552127	 0.9068369622	 3.1224326381	 0.123323
H	 1.4669380582	-0.2666833897	 3.4369274117	 0.153146
H	 1.7215795163	 1.0156761497	 2.2440977155	 0.133501
H	-1.3216902056	-1.3040798801	 2.6474487674	 0.126897
H	-0.835639774	-2.2999878837	 1.2556384732	 0.116283
H	 0.8141171697	-3.6759414221	 1.4169936184	 0.092429
