17
gdb 31269	2.07493	1.64177	0.95495	1.1744	71.82	-0.2081	0.0029	0.211	1210.8789	0.136779	-455.155769	-455.146702	-455.145758	-455.191208	31.493	
C	-0.2458685441	 1.3225050175	-0.1785364124	-0.240001
O	-0.1676292682	-0.1010973965	-0.1500971994	-0.278258
C	 0.5870015834	-0.6734753651	-1.1080822147	 0.285154
C	 0.7654194304	-2.0140146673	-1.2861241371	 0.19227
C	 0.2517129029	-3.2409293631	-0.5997413163	-0.280184
N	-1.1759286982	-3.2161504084	-0.2579585326	-0.499245
O	 1.6101340742	-2.1391298952	-2.3713401914	-0.171235
C	 1.8751598525	-0.8813123267	-2.7606619559	 0.061751
N	 1.2959248729	 0.03883642	-2.0527203837	-0.341643
H	 0.7425618908	 1.7752445144	-0.0538932139	 0.136871
H	-0.6765481965	 1.6770175949	-1.120464049	 0.133809
H	-0.89204462	 1.5997900552	 0.6554937779	 0.129827
H	 0.4503018685	-4.1030153839	-1.2456043616	 0.127617
H	 0.8067814154	-3.4207514731	 0.330053499	 0.12574
H	-1.3554321268	-2.410758175	 0.3359554173	 0.241104
H	-1.7161834826	-3.0524358284	-1.1036884109	 0.225693
H	 2.5286851655	-0.7545911792	-3.6090013952	 0.15073
