18
gdb 105829	2.19237	1.45576	1.14945	3.2129	72.41	-0.2434	0.0073	0.2508	1141.4998	0.147073	-439.073344	-439.06436	-439.063415	-439.107235	33.121	
C	 0.18113275	 1.7022301836	 0.3921780553	-0.425062
C	 0.044202721	 0.1974524342	 0.4491948489	-0.06095
C	 1.0369563497	-0.7865939054	-0.1061428329	-0.062142
N	 2.4279136992	-0.3616832085	 0.0870126177	-0.341875
C	 2.2529978497	-0.216214421	 1.4742170393	 0.357218
O	 2.9853583879	 0.1754295004	 2.339254162	-0.346702
C	 0.8160313137	-0.731768431	 1.3984605497	 0.113206
C	 0.1827135683	-1.7128366883	 2.3539721641	-0.193444
O	-1.1447486343	-2.0718920153	 2.0004715743	-0.408457
H	 1.2227240654	 2.0235014703	 0.4758074209	 0.12914
H	-0.2172849716	 2.0885909968	-0.5521690681	 0.123307
H	-0.374481675	 2.1762482688	 1.2076656122	 0.126713
H	-0.9768732548	-0.1641233836	 0.3315924818	 0.098864
H	 0.7992148682	-1.5934296801	-0.7872931094	 0.117985
H	 2.9032956172	 0.3273015725	-0.4854804074	 0.241723
H	 0.75642864	-2.6462039825	 2.3578301186	 0.127629
H	 0.2328715643	-1.3031489381	 3.3733654252	 0.114301
H	-1.7255949288	-1.3519259926	 2.2646237079	 0.288547
