16
gdb 5070	3.28231	1.98808	1.25728	1.6174	68.17	-0.1824	0.0394	0.2218	939.2789	0.130847	-379.94572	-379.937202	-379.936258	-379.978614	30.963	
C	-0.1519553949	 1.5775167668	 0.098836771	-0.523692
C	-0.0251829745	 0.0897090275	 0.0369198753	 0.196331
C	 0.0152542284	-0.6893807754	-1.0801844548	 0.215915
N	-0.0168962333	-0.3387807615	-2.4338217775	-0.596928
O	 0.0889195642	-2.010309675	-0.7505437922	-0.177261
C	 0.1016983977	-2.0773379722	 0.621971137	-0.10819
C	 0.0412756225	-0.8243142162	 1.15108285	 0.129227
N	-0.0583763268	-0.4385381001	 2.4971875972	-0.606062
H	 0.770210763	 2.0640619046	 0.4445164046	 0.113122
H	-0.3824833156	 1.975497825	-0.8927424227	 0.139301
H	-0.9505280226	 1.8787285959	 0.7868055687	 0.129897
H	 0.9114706198	-0.2304319845	-2.8318321766	 0.245803
H	-0.5076834374	-1.0392255743	-2.9793534998	 0.244956
H	 0.119248301	-3.0654142978	 1.0496877632	 0.11469
H	 0.2062393058	-1.1762911328	 3.1373689107	 0.240201
H	 0.488756843	 0.388223	 2.7035743159	 0.242691
