14
gdb 10117	2.71974	1.48325	1.08818	3.0608	61.02	-0.278	-0.0086	0.2694	1060.9599	0.103908	-419.649043	-419.64027	-419.639326	-419.683267	29.897	
O	 0.2144541942	 1.5149990282	-0.0566677997	-0.407588
C	 0.2428586934	 0.1191791597	-0.2007374503	-0.065462
C	-1.1317155963	-0.5211105176	 0.0486506174	-0.117124
O	-1.4543119174	-0.1683492943	 1.4184525929	-0.200593
C	-2.462511148	-0.8434128294	 2.0145103555	 0.180416
O	-2.8013756159	-0.6194964423	 3.1356486309	-0.264469
C	-2.1639144023	-0.0578000693	-0.8716536068	 0.372061
C	-3.0181620539	 0.3015237255	-1.6354063114	-0.458964
H	-0.1109278528	 1.7030689804	 0.831438628	 0.300559
H	 0.5534185273	-0.0964078055	-1.2268911402	 0.128196
H	 0.9580928785	-0.3572884616	 0.4869518569	 0.105655
H	-1.0295526622	-1.6127337805	-0.0223984838	 0.119027
H	-2.9152708913	-1.6097629669	 1.3590934532	 0.093917
H	-3.7707867931	 0.6293805736	-2.3100575427	 0.21437
