21
gdb 120102	3.88206	0.88035	0.8075	1.4764	82.21	-0.2048	0.0792	0.284	1477.572	0.182503	-386.997626	-386.988884	-386.98794	-387.031693	33.714	
O	 0.1083157062	 1.4382301813	-0.6329483781	-0.422234
C	-0.0079427581	 0.025018317	-0.6143049951	-0.099337
C	-1.2867400145	-0.3317948972	 0.1384480316	-0.208942
C	-1.4756815566	-1.849079018	 0.1966930624	-0.010468
C	-1.9250449551	-2.7498796773	 1.3228970576	-0.096767
C	-3.2067668171	-2.338565239	 2.100013257	-0.051242
C	-3.8614661217	-1.0595968703	 1.6520958012	-0.302985
C	-3.9863576054	-2.2913007856	 0.7962851266	-0.051268
C	-2.7083868999	-2.7024869622	 0.0129286096	-0.096736
H	 0.9129917172	 1.6685565716	-1.1061675945	 0.285106
H	-0.0545614381	-0.3873074333	-1.6360609446	 0.086229
H	 0.8566992046	-0.4421931977	-0.1140285391	 0.086223
H	-1.2176941601	 0.1027108658	 1.1405669842	 0.119096
H	-2.1227228222	 0.1573882698	-0.3710813669	 0.119122
H	-0.6528642381	-2.3552693678	-0.3135748717	 0.082757
H	-1.2907337789	-3.5495995094	 1.686293171	 0.082087
H	-3.4850554167	-2.8259815756	 3.0254843705	 0.085704
H	-4.7700831789	-0.8309822235	 2.2036833688	 0.107492
H	-3.3118406758	-0.1791922956	 1.3554223963	 0.118372
H	-4.948275971	-2.7372130615	 0.5785919416	 0.085707
H	-2.7532810799	-3.4611531814	-0.7593210887	 0.082087
