22
gdb 60261	3.80584	0.88545	0.76034	1.4198	83.28	-0.2474	0.0219	0.2693	1545.9559	0.194494	-404.372671	-404.363088	-404.362144	-404.408062	35.016	
C	-0.0670648829	 1.5777990903	-0.2913917546	-0.383403
C	 0.0343633949	 0.0626345805	-0.0626494861	 0.040614
C	 0.7502868927	-0.6123791679	-1.2420606848	-0.388971
C	 0.7350723099	-0.3013145467	 1.2609014695	-0.182899
C	-0.0733857478	-0.0677204181	 2.5453466619	 0.008384
C	 0.6157181099	-0.6597260958	 3.8091902821	-0.125855
O	 0.691111822	 0.4509266912	 4.7353782707	-0.221789
C	 0.1911308121	 1.5102779447	 4.0574499281	 0.121692
N	-0.2508641723	 1.3625056265	 2.8809489317	-0.26201
H	 0.93359461	 2.0196804787	-0.3769355962	 0.102848
H	-0.6018724426	 1.7912601567	-1.2233555524	 0.098703
H	-0.5791443584	 2.0752237914	 0.5333438144	 0.148358
H	-0.9867840099	-0.3443111781	-0.0156405183	 0.068642
H	 1.7886702069	-0.2674972884	-1.3182471289	 0.111071
H	 0.7691079008	-1.7023944668	-1.1342061376	 0.104332
H	 0.2553294391	-0.37679318	-2.189863401	 0.109897
H	 0.987535339	-1.370708363	 1.2368035868	 0.089403
H	 1.6889231236	 0.2385996741	 1.3403151533	 0.096056
H	-1.0707033886	-0.5055473473	 2.4088908296	 0.087316
H	 0.0509044003	-1.4637280887	 4.2869535067	 0.12038
H	 1.6353352211	-1.0071116918	 3.6116447092	 0.115248
H	 0.2092323402	 2.4425476185	 4.6116259561	 0.141981
