21
gdb 37331	3.11017	1.79427	1.71867	0.1401	83.37	-0.2498	0.0967	0.3465	920.0119	0.187677	-349.92902	-349.92285	-349.921906	-349.958938	28.375	
C	-0.0169519852	 1.5243317646	 0.1264288362	-0.300166
C	 1.3037022716	 0.8097924403	-0.0257022058	-0.024502
C	-0.0006934016	 0.0220111073	-0.0171335428	-0.024502
C	-0.0291990614	-0.6611469428	-1.4153248738	-0.043588
C	 1.4828926814	-0.9775098379	-1.5667436544	-0.224641
C	 1.9081250572	 0.5088875641	-1.4280534478	-0.043588
C	 1.0499851162	 1.2041446736	-2.488739338	-0.019133
C	 0.6060794617	 0.4508906174	-3.7187670018	-0.338282
C	-0.2553377515	 0.4158044217	-2.4801637568	-0.019133
H	-0.2379988312	 1.9011503091	 1.1208757629	 0.09954
H	-0.4000513179	 2.1500140942	-0.6687024465	 0.111445
H	 1.9792485921	 0.7850009516	 0.8225248866	 0.076976
H	-0.2850028536	-0.5824739112	 0.8374028136	 0.076976
H	-0.7074777289	-1.5149815354	-1.4666567727	 0.054594
H	 1.8532290989	-1.581656098	-0.7350154418	 0.089698
H	 1.7715517139	-1.4656217039	-2.5002209473	 0.088718
H	 2.9789926507	 0.711436702	-1.4908767108	 0.054594
H	 1.0567964268	 2.2879318662	-2.5212420292	 0.084431
H	 0.2251242761	 1.0729322985	-4.5225416609	 0.105912
H	 1.1336030187	-0.4264384663	-4.0736933323	 0.110219
H	-1.218010734	 0.914077035	-2.5062919265	 0.084431
