19
gdb 39103	3.3895	1.65839	1.42682	2.0601	73.51	-0.2395	0.0757	0.3153	957.2283	0.162419	-422.99136	-422.984562	-422.983618	-423.023287	27.865	
C	-0.1026147906	 1.5565462434	 0.0968156835	-0.310727
C	 1.421851281	 1.3899018415	 0.0085746348	 0.064997
O	 1.7239741134	 0.6844424824	 1.2452178694	-0.287276
C	 0.6947657849	-0.3443516014	 1.3007580027	-0.146203
C	 0.0077780014	-0.0168687777	-0.0164611055	 0.403284
O	-0.9517640595	-0.8034268022	-0.6242888184	-0.320788
C	-0.8057694838	-0.6157334941	-2.0497581442	-0.08644
C	 0.4944690354	 0.2210109699	-2.3148532235	-0.314562
C	 1.2177363368	 0.1967427081	-0.9606776026	-0.02764
H	-0.4983141996	 1.983119544	 1.0202217925	 0.101577
H	-0.5666782873	 2.0170637615	-0.7741186148	 0.103441
H	 2.1374593034	 2.1990776223	-0.1198663915	 0.081093
H	 1.1499430512	-1.3404346724	 1.3160042084	 0.105824
H	 0.0758623105	-0.2095539546	 2.1943567263	 0.104215
H	-0.7554989983	-1.609571661	-2.506492195	 0.112521
H	-1.6961302198	-0.1088532638	-2.4388178276	 0.108534
H	 1.0984149979	-0.2324656718	-3.1033716409	 0.111918
H	 0.2403879547	 1.2301546113	-2.6470267621	 0.115454
H	 2.0105832282	-0.5539551552	-0.9180683916	 0.080779
