21
gdb 64648	3.08755	1.2341	1.09959	0.636	88.19	-0.2568	0.057	0.3138	1202.4023	0.181965	-349.865504	-349.856774	-349.85583	-349.898892	34.634	
C	-0.0117114969	 1.6132439456	-0.1451174803	-0.482554
C	 0.0135000388	 0.0835193096	-0.0589837713	 0.388966
C	-1.430500381	-0.4120303887	-0.3384609474	-0.443479
C	-2.3390203764	-0.165718157	 0.7767602009	 0.334906
C	-3.0669159829	 0.0392799159	 1.7118809632	-0.474866
C	 1.1917454319	-0.7135075673	-0.7376872038	-0.097577
C	 2.1351134158	-0.1681775074	 0.3750846744	-0.236645
C	 0.8255300945	-0.5983290097	 1.1050691397	-0.069604
C	 0.9041982306	-1.892295101	 0.2429808615	-0.233016
H	 0.9177887424	 2.0957757459	 0.155468804	 0.11662
H	-0.2336731268	 1.931799471	-1.1706251287	 0.112613
H	-0.8075800348	 2.0044312442	 0.496821285	 0.132781
H	-1.8051784828	 0.1124867997	-1.2275121301	 0.123787
H	-1.46119588	-1.4742883157	-0.591681764	 0.128048
H	-3.720167008	 0.2163496841	 2.529794235	 0.19363
H	 1.4059593687	-0.7810597674	-1.8068450626	 0.065113
H	 3.0131079342	-0.7826592327	 0.5885268919	 0.089882
H	 2.4032746749	 0.8863918383	 0.3577269303	 0.093259
H	 0.6103443811	-0.53039748	 2.1724944586	 0.074646
H	-0.0003902894	-2.4834601999	 0.1093360409	 0.093658
H	 1.7548990362	-2.5459205675	 0.4506859929	 0.089831
