20
gdb 128315	3.11044	1.2087	0.88637	1.9314	84.2	-0.1844	0.0424	0.2268	1345.7364	0.170954	-399.360615	-399.350356	-399.349412	-399.396218	36.193	
C	 0.1037190604	 1.4409739896	-0.0374793915	-0.309718
N	-0.0983170148	 0.0009831682	-0.0737227625	-0.375449
C	 0.565099871	-0.7222494629	-1.0569810275	 0.350465
N	 1.1636066787	-0.124745498	-2.0819791774	-0.323094
N	 1.6177738478	-1.1618067362	-2.8364322136	-0.286563
C	 1.3327934434	-2.379639718	-2.3105830373	 0.312164
C	 1.7631096596	-3.6496766445	-2.9691708709	-0.5032
C	 0.6385659258	-2.143400462	-1.137717364	 0.037208
C	 0.0657928803	-3.1247965836	-0.1649411635	-0.529108
H	 1.1568274713	 1.7328526085	 0.09099823	 0.111879
H	-0.2422951719	 1.8774074829	-0.9776855575	 0.144119
H	-0.4867459059	 1.8607731195	 0.780963266	 0.108942
H	-0.0409754452	-0.4364195207	 0.8346361079	 0.23145
H	 2.1018720184	-0.9617390265	-3.693456907	 0.260305
H	 2.8014820002	-3.9083587665	-2.7283080385	 0.136912
H	 1.134869031	-4.4835643801	-2.6464062603	 0.139208
H	 1.685002371	-3.5800176682	-4.0595394088	 0.127587
H	 0.6082642826	-3.13560851	 0.7906852201	 0.117745
H	-0.9811985981	-2.8926436381	 0.0650170257	 0.129503
H	 0.0972205244	-4.1455239136	-0.5574062392	 0.119643
