19
gdb 105696	2.64557	1.09652	0.90265	4.9899	73.48	-0.2676	0.0136	0.2811	1335.7236	0.15668	-460.154141	-460.144477	-460.143532	-460.189404	34.356	
C	 0.3772818729	-0.4862088963	 1.4051677896	-0.253207
O	-0.2622921713	-0.0228390393	 0.2286889098	-0.283385
C	-1.4504862968	-0.6858812423	-0.1025497733	 0.439738
C	-2.6531798676	-0.2376551803	 0.6920552791	-0.174405
O	-3.0085249132	 1.1133083693	 0.3691759682	-0.172441
C	-2.4422654402	 2.0951659324	 1.0972702284	 0.183668
O	-2.6053346329	 3.2526858475	 0.8553672177	-0.278024
C	-1.6207647147	-0.9825367687	-1.5605545605	-0.29972
C	-1.3675591805	-2.1143090807	-0.5879441978	-0.333923
H	 1.3046667341	 0.0823952771	 1.5008207054	 0.137694
H	-0.2280332291	-0.3190710255	 2.307569703	 0.105757
H	 0.6152084265	-1.556375072	 1.3430883305	 0.112973
H	-3.5264346527	-0.8449928869	 0.444644622	 0.125266
H	-2.474971064	-0.3267271512	 1.7715067489	 0.111902
H	-1.8410268303	 1.7123127527	 1.943693011	 0.073315
H	-2.6078671905	-0.8723321877	-1.9947938219	 0.126272
H	-0.8008994952	-0.6869867764	-2.2037579524	 0.133914
H	-0.3838583632	-2.569055141	-0.6027007278	 0.126427
H	-2.1766662812	-2.7975831808	-0.3527617198	 0.118179
