16
gdb 32611	2.87655	1.26595	0.93664	3.0477	67.3	-0.196	0.048	0.244	1225.5782	0.123302	-475.077111	-475.068134	-475.06719	-475.111658	31.801	
C	-0.0397851554	 1.5808886768	 0.1667450947	-0.376605
C	-0.0650708325	 0.0714907076	-0.0836179133	-0.159159
N	-1.3971754227	-0.5004272854	 0.0026669286	-0.121436
C	-2.1600173543	-0.6978913876	 1.1790822334	-0.262822
C	-3.3226061153	-1.2157131749	 0.7695097729	 0.401492
O	-4.4150733121	-1.6030893883	 1.4381188468	-0.418767
O	-3.343647429	-1.352115863	-0.5913431664	-0.257005
C	-2.1138253417	-0.8924216677	-1.0901813258	 0.487742
O	-1.8339218854	-0.8851029211	-2.2597392627	-0.412577
H	 0.9860365278	 1.9552142864	 0.0971796618	 0.124358
H	-0.6495105629	 2.105356846	-0.5741406429	 0.139191
H	-0.4227597529	 1.8267670088	 1.1620367719	 0.123344
H	 0.2939642792	-0.1576003957	-1.0896870337	 0.15108
H	 0.5847649086	-0.4479338021	 0.6305608346	 0.1165
H	-1.7956244267	-0.4643446654	 2.1619035131	 0.147927
H	-5.0484436845	-1.9502467244	 0.7985592471	 0.316737
