18
gdb 91105	3.23881	1.70194	1.37645	2.1686	76.62	-0.223	-0.0132	0.2098	955.6221	0.149564	-401.878834	-401.87182	-401.870876	-401.909853	28.864	
O	-0.2862158375	 1.3835937267	-0.1768905893	-0.427767
C	 0.0017159469	 0.0091613725	-0.0842715566	 0.078865
C	 0.3341383702	-0.4966983278	 1.3846247543	-0.269089
C	-0.1568643498	-1.9662705737	 1.4402626248	-0.020394
C	-0.8433407349	-2.2586567782	 0.1622733723	-0.105358
N	-1.5765257389	-2.5125165621	 1.3937301666	-0.122856
C	-2.7493390868	-1.6088339105	 1.3566332176	-0.189444
C	-2.3852178709	-0.5165312671	 0.3654473703	-0.123493
C	-1.2311446199	-0.8444729624	-0.2293113995	 0.078853
H	 0.5301323387	 1.8724344514	-0.0354435776	 0.287294
H	 0.815173634	-0.2747376272	-0.7687740496	 0.073663
H	 1.4084417062	-0.4747365689	 1.6065956821	 0.094516
H	-0.1717360095	 0.1778505644	 2.0821422539	 0.113218
H	 0.4940242945	-2.6866861583	 1.9241325082	 0.097904
H	-0.6296402494	-3.0515139652	-0.5483963678	 0.086675
H	-3.6254716077	-2.221495764	 1.1046618275	 0.116251
H	-2.9427775542	-1.1632932718	 2.3406447502	 0.116894
H	-2.7747223609	 0.4922495722	 0.4331923328	 0.114267
