21
gdb 39572	2.37127	1.96262	1.50978	0.388	86.86	-0.2219	0.016	0.2379	988.4932	0.187067	-349.985963	-349.978861	-349.977917	-350.017176	29.964	
C	-0.0182020149	 1.5374568876	-0.0052572521	-0.258484
C	 1.3579817616	 2.1541888035	-0.0376143768	-0.035019
C	 2.4800849536	 1.4450608501	-0.1388948065	-0.065829
C	 2.4512338405	-0.0723663133	-0.2021777877	-0.083793
C	 1.1374720983	-0.5288706885	-0.8622133437	-0.23614
C	-0.0313332602	-0.0117227104	-0.0082677878	-0.001545
C	 0.0383780936	-0.653889241	 1.4000079292	-0.258469
C	 1.4364278654	-0.8925728968	 1.9135847903	-0.034934
C	 2.5340529006	-0.6483137394	 1.2010015799	-0.065941
H	-0.5721251606	 1.9164138042	 0.8641506838	 0.100586
H	-0.579260199	 1.9016477616	-0.8791155324	 0.102827
H	 1.4020522581	 3.2400784974	 0.0100762855	 0.080149
H	 3.448397204	 1.9382641563	-0.1443557083	 0.081125
H	 3.3069507034	-0.4255883929	-0.7885547803	 0.06575
H	 1.072498076	-0.1321549366	-1.8814240175	 0.090521
H	 1.1108087484	-1.6222503011	-0.9268916267	 0.090524
H	-0.9792254664	-0.3253614546	-0.4591920406	 0.063922
H	-0.5197600611	-0.0410231518	 2.1205643999	 0.100641
H	-0.490231554	-1.6188639961	 1.3798219073	 0.102832
H	 1.5187052837	-1.3019302139	 2.918093112	 0.080149
H	 3.5195125591	-0.8254560244	 1.6233500224	 0.081128
