18
gdb 77609	2.10546	1.61964	1.28483	3.8573	78.29	-0.2567	0.0164	0.273	1079.3927	0.146852	-401.940649	-401.931726	-401.930781	-401.9739	33.409	
C	-0.0011655219	 1.5667555615	 0.0561487586	-0.490848
C	 0.0422324931	 0.069132279	 0.0187832369	 0.253741
C	 0.5977397755	-0.7747987888	-1.1377022007	-0.285957
C	 1.2334412371	-1.779551355	-0.1243571999	-0.298822
C	 0.6738180503	-0.9431039419	 1.0323894373	 0.129599
C	 1.2735994642	-0.7170045544	 2.3007245764	 0.180621
N	 1.7456439057	-0.5449234874	 3.3452236823	-0.363325
C	-0.8384338584	-0.7919291637	 0.8667924782	 0.021868
O	-1.5161012451	-0.1162638071	 1.8716953561	-0.415764
H	 0.9837569024	 1.9958114457	-0.153587736	 0.125204
H	-0.6987808308	 1.9416481959	-0.7024333212	 0.128183
H	-0.3402480747	 1.9212470479	 1.0309228091	 0.152765
H	-0.1515497141	-1.179432294	-1.8251892963	 0.108321
H	 1.3524884096	-0.240238436	-1.7177504643	 0.118691
H	 0.8786761246	-2.8140078219	-0.1642522617	 0.110542
H	 2.3235453122	-1.7787390763	-0.1582628812	 0.13025
H	-1.3821712385	-1.6295977959	 0.4195943854	 0.090632
H	-1.4295135811	-0.6093511877	 2.695686471	 0.304298
