16
gdb 67797	3.33384	1.99086	1.59039	1.3602	71.39	-0.2281	-0.029	0.1991	856.2617	0.126323	-396.903725	-396.897157	-396.896212	-396.934248	26.712	
C	-0.0068565283	 1.5100032819	-0.0542602937	-0.473864
C	-0.1189236756	 0.0104950595	-0.0739697755	 0.320727
N	 0.7401167798	-0.6949109486	-0.9847615209	-0.214057
C	 0.1764743088	-1.8091287735	-1.232545561	-0.002103
N	-1.0807707022	-2.0854422597	-0.5285503792	-0.183393
C	-0.4462922033	-2.7661504035	 0.6117478677	 0.006496
N	-0.1196559959	-2.0344717589	 1.6017103987	-0.168572
C	-0.5540085312	-0.7087946956	 1.282825629	-0.06276
C	-1.4072437982	-0.7496169034	 0.048596309	-0.110922
H	 1.0026444666	 1.8170015111	 0.2335218771	 0.141416
H	-0.2151462849	 1.9203999571	-1.0477669197	 0.13249
H	-0.7159172276	 1.9499978334	 0.6526638854	 0.120659
H	 0.6014391494	-2.5859331066	-1.8581868126	 0.140053
H	-0.219041579	-3.8223642172	 0.524939169	 0.14094
H	-0.7342576628	-0.0386363858	 2.1130203074	 0.111023
H	-2.4142387656	-0.3665198101	-0.0741941607	 0.101868
