19
gdb 73711	2.74121	1.9539	1.3627	1.7885	74.43	-0.2414	0.0736	0.315	961.3782	0.161495	-422.981391	-422.974361	-422.973417	-423.012287	29.592	
O	-0.0285005239	 1.4209438449	 0.105736677	-0.491418
C	 0.0296328505	 0.0194005234	-0.00854677	 0.464054
C	 1.0462927444	-0.5977831064	 0.950729828	-0.320779
C	 1.349009531	-2.0321947418	 0.5109653335	-0.072886
O	 0.1680040359	-2.6942594316	 0.0871965354	-0.276331
C	-0.6545680418	-1.8778522934	-0.7021432674	 0.15448
C	-1.3688450535	-0.6528995636	-0.0532453643	-0.125004
C	-1.5310505573	-0.1072660765	-1.5000450357	-0.252836
C	-0.0711633545	-0.6334923693	-1.4468539291	-0.188643
H	 0.8667071454	 1.7669769258	 0.0292270903	 0.275893
H	 1.9775095725	-0.0155310272	 0.948357364	 0.086135
H	 0.6474132263	-0.5621639742	 1.970957696	 0.114521
H	 2.0750859809	-2.0137204607	-0.3168950841	 0.092308
H	 1.7787302467	-2.6321020379	 1.3176033174	 0.108099
H	-1.296367856	-2.5340269237	-1.2929635404	 0.084918
H	-2.1062473152	-0.6652816567	 0.7507469926	 0.071637
H	-2.218558797	-0.6549244377	-2.1504414256	 0.088157
H	-1.6466732092	 0.9696445029	-1.5934238181	 0.120375
H	 0.6684411947	-0.6173075361	-2.2496829694	 0.067319
