19
gdb 34519	4.0768	1.17885	1.07068	0.9459	90.55	-0.2194	-0.0157	0.2037	1173.6399	0.161101	-348.726525	-348.719011	-348.718066	-348.758171	30.933	
C	 0.0838742528	-1.2026667401	 0.0295463549	-0.39505
C	-0.0142829768	-0.0010972952	 0.018296141	 0.19097
C	-0.0643475018	 1.417192395	 0.003176533	 0.146792
C	-1.2101920779	 2.120424114	 0.0285166641	-0.151304
C	-1.1343520456	 3.6266987846	 0.0087517161	-0.051933
C	-0.1138359356	 4.0507670726	-1.0951173765	-0.217239
C	 0.9895563274	 3.7024641273	-0.0543074761	-0.022718
C	-0.0513075569	 4.0756787795	 1.0408558634	-0.217238
C	 1.2518675832	 2.1878129734	-0.0443047233	-0.302818
H	 0.1507730757	-2.2620508295	 0.0400359738	 0.188064
H	-2.1728444928	 1.6214428929	 0.0624974214	 0.095355
H	-2.1158852823	 4.1012796957	 0.0319578128	 0.061225
H	-0.1330519167	 3.499597272	-2.038743543	 0.096699
H	-0.1532343731	 5.1256875154	-1.2905345418	 0.095995
H	 1.9268533064	 4.2628013567	-0.0882798558	 0.061838
H	-0.0799438402	 5.1548874843	 1.2131412501	 0.095996
H	-0.0149230809	 3.5466605623	 1.9965769122	 0.096698
H	 1.871346806	 1.9096489249	 0.8182250086	 0.114335
H	 1.8200510191	 1.889181924	-0.9348545647	 0.114333
