19
gdb 54625	3.53688	1.21345	1.05445	3.2376	83.21	-0.2371	-0.0494	0.1877	1192.3344	0.159911	-385.883657	-385.875694	-385.87475	-385.916583	30.802	
C	-0.0238570135	 1.4911856349	-0.0065925723	-0.491668
C	-0.0041978532	-0.0278703425	 0.0006281182	 0.241264
O	 0.0162818612	-0.6572313451	 1.0421658505	-0.313435
C	-0.0108104419	-0.7105014636	-1.3065362225	 0.28338
C	 0.0039135314	-2.0370680172	-1.5326651599	-0.161093
C	-0.0125964063	-2.1521556983	-3.0522034815	-0.068292
C	 1.0350829804	-1.0403315416	-3.4241257792	-0.209824
C	-0.0353780254	-0.1285737903	-2.7332151428	-0.144324
C	-1.0976226838	-1.0683347429	-3.3988239139	-0.209825
H	 0.8448063947	 1.8860743193	-0.5459892792	 0.13566
H	-0.9154118525	 1.8633183749	-0.5243984774	 0.135674
H	-0.0160593576	 1.8592386904	 1.0197777048	 0.138715
H	 0.0230484307	-2.8383243641	-0.8078869188	 0.131181
H	-0.0049661329	-3.1423698331	-3.5051057449	 0.070367
H	 2.0221583415	-1.1028376666	-2.9602340705	 0.100156
H	 1.1187047809	-0.8749261887	-4.502541456	 0.098605
H	-0.0511130953	 0.9525106856	-2.8626876918	 0.064696
H	-1.2111057558	-0.9055156587	-4.4749010502	 0.098605
H	-2.0714374325	-1.1565844623	-2.9116722525	 0.100158
