20
gdb 91130	2.8261	1.6381	1.42702	0.7921	77.75	-0.2068	0.0596	0.2664	1008.1171	0.172389	-403.066418	-403.058823	-403.057879	-403.098467	30.225	
C	-0.0280820085	 1.589681097	-0.1303347818	-0.425608
C	 0.0295421254	 0.0747357071	-0.0352306121	 0.090876
C	 0.8694324378	-0.7983448303	-1.0173549784	-0.298449
C	 1.2640680366	-1.63569868	 0.2228784294	 0.020793
C	 2.6606567561	-1.4234435546	 0.8628558595	 0.096574
O	 3.5433601029	-0.544025443	 0.150445414	-0.286955
C	 3.0561741875	 0.6034858085	 0.8884923926	-0.104971
C	 2.0273663633	-0.2578130004	 1.6675035232	-0.052473
N	 0.6626231003	-0.6063831097	 1.1539191203	-0.169449
H	 0.9416288101	 2.0568265895	-0.310564392	 0.120479
H	-0.6883777516	 1.8789575912	-0.9551373931	 0.122436
H	-0.4450829982	 2.0111716373	 0.7909613016	 0.127192
H	-1.00699701	-0.2866333698	-0.0369997986	 0.087041
H	 0.3188671089	-1.3140734372	-1.8073550428	 0.097631
H	 1.7284770038	-0.2823935169	-1.4539561308	 0.121697
H	 0.8478446764	-2.6465653932	 0.2843764042	 0.069664
H	 3.17565874	-2.2928712189	 1.2784907472	 0.079832
H	 3.8406995381	 1.004891133	 1.5436196454	 0.106879
H	 2.7023826415	 1.4006839473	 0.2324314437	 0.109103
H	 2.0501847995	-0.1453700869	 2.7523732786	 0.087708
