21
gdb 92976	2.92787	1.32808	1.08078	1.7352	83.09	-0.2385	0.0254	0.2639	1192.614	0.183032	-387.077576	-387.068996	-387.068052	-387.110991	32.962	
C	 0.0624843951	 1.5954857218	-0.0110336143	-0.383747
C	 0.0555653649	 0.0607518119	-0.0068184028	-0.007529
C	 0.9076281035	-0.4922445841	-1.1844298519	-0.263765
C	 2.2358070629	-0.8005976139	-0.5381119943	-0.07871
C	 2.14961472	-0.8232939484	 0.7892330519	-0.051005
C	 0.7355843153	-0.5582010359	 1.2638394194	-0.067209
C	 0.5861284618	 0.255735865	 2.5321801017	 0.072903
C	 1.537268834	 0.2135376372	 3.6506563173	-0.192195
O	 1.4973282887	 1.3333895194	 2.7644693556	-0.228491
H	 1.0820647092	 1.9842511008	 0.0661680572	 0.136119
H	-0.3785831023	 1.9697675343	-0.9406983179	 0.104341
H	-0.5126505393	 2.012634852	 0.8203151856	 0.115526
H	-0.9808771659	-0.2841089126	-0.0823621018	 0.06409
H	 0.4665338915	-1.4035711883	-1.6133498461	 0.100698
H	 0.9865964334	 0.2277640349	-2.0075936347	 0.099935
H	 3.1333729673	-1.0105908817	-1.1094603276	 0.091206
H	 2.9659964292	-1.0554250433	 1.4626377028	 0.091329
H	 0.2489845561	-1.5250612629	 1.4786049386	 0.083171
H	-0.4482174202	 0.4987707557	 2.7863028421	 0.088386
H	 1.184931085	 0.405775946	 4.6635354152	 0.111406
H	 2.4324682497	-0.4022961878	 3.5866728841	 0.113541
