19
gdb 13486	3.09589	1.67046	1.15275	2.4038	72.44	-0.2418	-0.0245	0.2172	1061.8015	0.164264	-365.064134	-365.055448	-365.054504	-365.097339	31.985	
C	-0.0108408159	 1.4948398016	-0.1396929988	-0.398295
C	 0.0418871025	-0.0253954782	 0.049428625	 0.048055
C	 0.8257738596	-0.4272957763	 1.3057340167	-0.402465
C	-1.3740774774	-0.6088196701	 0.0967785721	-0.086156
N	-2.1958770072	-0.4314176849	-1.1388551201	-0.329969
C	-2.5573468292	-1.8725501596	-1.2070862479	-0.281253
C	-1.5369732843	-2.1291085642	-0.0877340116	 0.384471
O	-1.040725643	-3.0997367444	 0.40209659	-0.289695
H	 0.9973694762	 1.9103609404	-0.2371578659	 0.11348
H	-0.5753200199	 1.7548893094	-1.0398162598	 0.125601
H	-0.4889840668	 1.9815278178	 0.7195189082	 0.105793
H	 0.5373600284	-0.4599137408	-0.8289608776	 0.078272
H	 0.3744172102	 0.0096919143	 2.2049310283	 0.108524
H	 0.8431181093	-1.5132027059	 1.4319526917	 0.142453
H	 1.8585261462	-0.069256858	 1.2479244497	 0.111891
H	-1.8792060466	-0.2763816873	 1.0189930073	 0.087088
H	-2.9926961695	 0.1813692188	-1.0158381157	 0.224817
H	-3.5805628523	-2.1268342705	-0.8970281319	 0.122967
H	-2.3552919403	-2.3516196021	-2.1713497397	 0.134422
