16
gdb 54741	2.79563	1.2876	1.23659	3.2248	70.09	-0.2516	-0.0408	0.2108	1090.3685	0.12214	-437.866166	-437.857743	-437.856798	-437.900619	30.383	
C	-0.0772649729	 1.5414393987	 0.2825313719	-0.483555
C	 0.1021987873	 0.077741139	-0.0744537017	 0.377431
O	 1.1917600341	-0.4160720056	-0.25144118	-0.299447
C	-1.1943214933	-0.7056055289	-0.1403529773	-0.10123
C	-2.0077805266	-0.8991087738	-1.3889522906	-0.186897
N	-1.3929384241	-2.0654532515	-0.6131963334	-0.145967
C	-0.4268552608	-2.3140972274	-1.7569023142	-0.290375
C	-1.1116330995	-1.2003452999	-2.5650260669	 0.404446
O	-1.1116011053	-0.8598825918	-3.7108073032	-0.294176
H	 0.893225743	 2.0380435826	 0.2814908748	 0.15232
H	-0.7494666626	 2.0311760425	-0.4301890837	 0.152095
H	-0.5358579892	 1.6370066486	 1.2734603621	 0.14624
H	-1.826876063	-0.4925170779	 0.7219009705	 0.125767
H	-3.0708188588	-0.6841709929	-1.4167270296	 0.126373
H	 0.6250192886	-2.2160574848	-1.5003227978	 0.173744
H	-0.6354254869	-3.292313397	-2.1985584509	 0.143231
