20
gdb 67101	2.55801	2.06487	1.74469	1.456	82.23	-0.213	0.086	0.2989	913.8913	0.172759	-365.917363	-365.910258	-365.909314	-365.948299	29.743	
C	-0.1084304107	 1.5060386161	-0.087995683	-0.533462
C	-0.0359221354	 0.0091659326	-0.0398089535	 0.383011
C	 0.8390740616	-0.9578342958	-0.8870753902	-0.148493
C	 1.9751466058	-0.9608726601	 0.1927983821	-0.370479
C	 0.6645978822	-0.9062548545	 1.0170127434	 0.285505
C	-0.1477366601	-0.8480572508	 2.2882690252	-0.378603
C	-1.5586766203	-0.8481714777	 1.5429666091	-0.164882
N	-1.258726234	-0.8825679554	 0.069402527	-0.196409
C	-0.0821472585	-1.818913161	 0.0073410222	-0.014205
H	 0.896395637	 1.9409933047	-0.1155081624	 0.124358
H	-0.6483087782	 1.8373233681	-0.980888121	 0.133763
H	-0.6266041637	 1.9111469828	 0.7882675633	 0.122084
H	 0.9393464796	-0.9915258258	-1.9723484057	 0.075852
H	 2.5712404038	-1.8749883227	 0.2699410279	 0.09916
H	 2.6245618841	-0.0808893351	 0.2271799879	 0.098985
H	-0.0243549154	-1.7139736135	 2.9442859246	 0.102543
H	 0.0095476575	 0.0592788722	 2.8787482006	 0.101057
H	-2.155380752	-1.7257051209	 1.8067963043	 0.104888
H	-2.1475150756	 0.0428646805	 1.7762402158	 0.104493
H	-0.1821715278	-2.9054529938	 0.0454730523	 0.070833
