13
gdb 24328	4.15344	1.67302	1.19263	2.4651	73.17	-0.2268	-0.074	0.1528	928.2649	0.093416	-415.656533	-415.650753	-415.649809	-415.686635	23.027	
O	-0.0309203587	 1.3383864177	 0.0095003082	-0.119015
C	 1.2207536968	 1.8394539062	 0.0003086417	-0.128795
C	 2.1203866424	 0.8026539327	-0.0139338019	 0.162872
C	 3.5309579999	 0.6342392328	-0.0283689039	-0.059273
N	 4.0653104417	-0.5563490389	-0.0398294652	-0.268361
C	 3.2093019698	-1.6430679599	-0.037445948	 0.050921
N	 1.9061007289	-1.6542539459	-0.0250476163	-0.324069
C	 1.3345573612	-0.4129380802	-0.0129261072	 0.219195
C	 0.0203399481	-0.0181908343	 0.001690153	-0.096757
H	 1.3025696368	 2.9133430122	 0.0053427977	 0.159103
H	 4.2054030891	 1.4900020163	-0.0301777588	 0.124975
H	 3.7126706177	-2.6064791317	-0.0474440064	 0.120596
H	-0.9227919336	-0.5354735071	 0.0078782472	 0.158608
