17
gdb 81417	3.44235	1.19075	1.06221	4.3416	77.84	-0.2457	-0.058	0.1877	1148.9004	0.136391	-421.804511	-421.79688	-421.795936	-421.836678	29.642	
O	 0.0054019321	 1.3735065511	-0.1072956572	-0.43493
C	 0.002618346	-0.0218757347	-0.015408814	 0.163413
C	 0.0335857875	-0.6366194875	 1.4627549943	-0.12765
C	-1.4692654953	-0.1897406814	 1.5316863685	-0.220885
C	-1.4471235617	-0.6173469481	 0.0274644781	-0.149278
C	-1.0838974526	-2.093328521	 0.1553829497	 0.258064
C	-1.6110134633	-3.2164001339	-0.6024356388	 0.031819
O	-2.4441332516	-3.1312888934	-1.4800543311	-0.279906
C	-0.1156949825	-2.0959206805	 1.098217249	-0.171007
H	 0.9177728229	 1.6773229636	-0.1387049019	 0.290245
H	 0.6945606281	-0.4845093555	-0.7306792505	 0.073331
H	 0.7759375021	-0.3409844964	 2.2033574437	 0.067671
H	-2.1244118144	-0.7486076499	 2.2033962907	 0.098092
H	-1.5789298002	 0.8865545834	 1.6675117599	 0.122217
H	-2.2100973368	-0.3314345059	-0.6922539547	 0.094117
H	-1.1812567662	-4.2014261056	-0.3096828022	 0.064423
H	 0.462936086	-2.9302081443	 1.4733163363	 0.120263
