20
gdb 91015	2.70536	1.57142	1.344	2.3914	78.05	-0.2146	0.061	0.2756	1051.267	0.171009	-403.075813	-403.067622	-403.066678	-403.107981	32.853	
C	 0.1048710417	 1.5429351157	 0.100264357	-0.492433
C	-0.0727062492	 0.0572207262	-0.0100766109	 0.366263
C	-0.9352237274	-0.7307651005	 0.8842479252	-0.293366
N	 0.5285680782	-0.9232762747	 1.0073447012	-0.195834
C	 1.0140293627	-1.7587242682	-0.1638596282	 0.039654
C	 0.1187384145	-2.88074185	-0.754494927	-0.299951
C	-0.3880452917	-1.8709824671	-1.8494407933	 0.099148
O	-1.7660067075	-1.5817633967	-1.9325923321	-0.422463
C	 0.4729330912	-0.752451729	-1.2049335239	-0.117631
H	 1.1146282433	 1.8486662013	-0.1956944623	 0.117558
H	-0.6088854934	 2.065063028	-0.5483694073	 0.124165
H	-0.0621713282	 1.8762187745	 1.1287091567	 0.126246
H	-1.337272064	-0.2109575466	 1.7499420999	 0.111716
H	-1.5808702013	-1.5096202543	 0.4990327513	 0.125099
H	 2.0747833021	-1.9770341961	-0.0468912145	 0.078112
H	 0.6913013756	-3.7161442988	-1.1664130046	 0.099566
H	-0.6497639071	-3.2849832451	-0.0916363995	 0.110188
H	 0.0099246877	-2.1389275009	-2.8379079393	 0.072245
H	-2.2017954096	-2.3204349434	-2.3694193857	 0.28553
H	 1.1219457223	-0.1810029844	-1.8682541928	 0.066189
