16
gdb 77365	2.9044	1.31117	0.96765	0.6404	66.27	-0.242	-0.0451	0.197	1156.9289	0.123391	-475.038492	-475.030046	-475.029102	-475.072036	30.664	
O	 0.3410036256	 0.8239098029	 0.7154364986	-0.434998
C	 0.0809091636	-0.3226229655	-0.0322732377	 0.026165
C	-1.4176064933	-0.6573118475	-0.282778587	-0.083245
N	-1.4427286707	-1.4569711144	-1.5064798871	-0.31256
C	-0.2909920506	-1.1083848062	-2.3413198993	-0.271735
C	 0.586336656	-0.2145580757	-1.4717820405	 0.351583
O	 1.4578592665	 0.5470737685	-1.8032662741	-0.315878
C	-2.0002666552	-1.410931569	 0.8884483821	 0.139752
O	-2.2119700992	-2.5983030495	 0.8672143749	-0.252413
H	 1.0155263132	 1.3172731871	 0.2226454477	 0.297624
H	 0.5577246453	-1.2159428921	 0.4128387244	 0.108392
H	-1.9586909285	 0.2939411285	-0.3961458832	 0.107649
H	-1.4742967978	-2.4380005672	-1.2534889593	 0.243903
H	 0.2695944351	-1.9868318636	-2.6812999735	 0.141498
H	-0.5804404788	-0.5475749066	-3.2398645549	 0.143744
H	-2.1889398012	-0.7989628996	 1.7935251888	 0.110518
