17
gdb 28676	3.37591	1.10347	0.84025	3.1955	80.77	-0.2087	0.0349	0.2436	1340.0829	0.135774	-380.88787	-380.878933	-380.877989	-380.923163	32.4	
C	-0.7078161864	 1.2416397611	 0.1652806696	-0.507397
C	-0.0739438469	-0.0930649098	-0.0316381381	 0.292246
C	 1.0185146234	-0.5060526118	-0.7508183352	-0.172759
N	 1.2171259263	-1.8634704581	-0.6236246356	-0.318394
C	 0.2548431969	-2.2787688254	 0.1665477633	 0.368307
C	 0.0455127393	-3.7043912964	 0.6070331727	-0.474571
C	-1.1055085219	-3.8772563353	 1.4867968307	 0.286572
C	-2.0590568658	-3.9920630739	 2.2099132284	-0.4362
N	-0.5528473573	-1.2504049206	 0.5528191818	-0.331347
H	-0.7127583521	 1.5476255964	 1.218776553	 0.129235
H	-0.153268138	 1.9981178104	-0.3949780291	 0.14181
H	-1.7464395172	 1.2640738128	-0.187219246	 0.129221
H	 1.674045825	 0.103953091	-1.354864516	 0.101074
H	-0.0678307742	-4.3390085552	-0.2809516434	 0.162452
H	 0.9536897267	-4.0590793632	 1.1105333891	 0.162447
H	-2.8958182973	-4.1236880404	 2.8506587025	 0.203194
H	-1.3525978103	-1.3431756614	 1.1587107324	 0.26411
