18
gdb 117064	4.40136	0.80218	0.68728	1.7485	72.14	-0.2467	-0.0397	0.207	1650.2276	0.145621	-476.288697	-476.278282	-476.277338	-476.325644	34.927	
C	 0.1165179565	 1.4689515602	 0.037690092	-0.391484
C	-0.0271520957	-0.0393357535	 0.0602113388	-0.047435
O	 0.7498884526	-0.5339083037	 1.174729647	-0.213839
C	 0.7412383102	-1.8473874649	 1.350751819	 0.387495
O	 0.1439634359	-2.6439868852	 0.6621802186	-0.382767
C	 1.6017517889	-2.2615865097	 2.5659038672	 0.282217
O	 2.2020332603	-1.4658621463	 3.2585471426	-0.358814
N	 1.575011607	-3.6050898774	 2.7220378242	-0.299281
C	 2.2893719657	-4.2872195782	 3.7790839992	-0.332989
H	 1.1631859119	 1.7586619661	-0.0874806592	 0.137677
H	-0.4598570843	 1.8816389255	-0.7955563043	 0.124411
H	-0.2536938319	 1.909374512	 0.9672513924	 0.137677
H	-1.0665131526	-0.3555671646	 0.1928344167	 0.126946
H	 0.3445201038	-0.5056576876	-0.8575390937	 0.126947
H	 1.0212566825	-4.117078151	 2.0512269296	 0.268378
H	 2.8079205078	-3.5297389372	 4.3686726038	 0.170192
H	 1.6023553038	-4.8394495189	 4.4296232401	 0.132332
H	 3.0247737376	-4.9895778758	 3.371589766	 0.132337
