18
gdb 69266	2.74678	1.54298	1.14731	4.5785	72.17	-0.2623	-0.009	0.2534	1085.9401	0.148903	-439.103628	-439.095593	-439.094649	-439.136349	30.663	
C	 0.0107235315	 1.5258782476	-0.0718606785	-0.455883
C	-0.0095824221	 0.0158880442	 0.0148266968	 0.320332
C	-1.2038379569	-0.6937515776	-0.625940714	-0.303426
C	-1.8570349097	-1.6624666913	 0.3502415311	-0.081624
O	-0.9116702544	-2.5546831739	 0.9657512284	-0.235751
C	 0.1120101685	-1.9958696988	 1.6717452832	 0.413023
O	 0.6204966841	-2.6018782522	 2.5739277112	-0.322661
C	 0.6050628781	-0.6606949209	 1.2018532112	-0.194405
N	 1.3047770689	-0.619647783	-0.109069051	-0.355635
H	 0.9188822884	 1.9243315551	 0.3864297816	 0.135961
H	-0.0102851857	 1.8494473398	-1.1185028187	 0.126151
H	-0.8586050024	 1.958830481	 0.434823762	 0.119184
H	-1.953834478	 0.038766433	-0.942004026	 0.117011
H	-0.8836227971	-1.2246719963	-1.5304424837	 0.118248
H	-2.3824692556	-1.11106007	 1.1404177789	 0.118171
H	-2.5805262435	-2.3129276678	-0.1458457288	 0.127757
H	 1.0937494804	-0.0868501774	 1.9826055962	 0.116285
H	 1.2236869755	-1.5251135916	-0.5690184298	 0.237264
