15
gdb 10107	3.19059	1.23929	0.93019	2.821	63.09	-0.2654	-0.0421	0.2233	1181.2115	0.115779	-399.802765	-399.793704	-399.79276	-399.837691	29.912	
C	 0.2804734485	 1.525526367	 0.0198523355	-0.253651
O	-0.0681698996	 0.1499212169	 0.079744312	-0.231276
C	 0.5705249637	-0.5661255141	 1.1089738392	-0.041732
C	-0.0838670441	-1.9540177538	 1.1821831529	-0.293958
C	-1.5438688709	-1.8794493419	 1.5967801295	 0.148597
O	-2.0714169027	-2.6874208088	 2.3147509114	-0.230876
C	 2.0269354349	-0.6865092597	 0.8665039647	 0.280003
N	 3.1619916349	-0.7708570965	 0.66779631	-0.314303
H	 1.3487332239	 1.6598656317	-0.1929027034	 0.141201
H	-0.3060131872	 1.9598319644	-0.791096606	 0.145574
H	 0.0354919835	 2.0396654015	 0.9602505482	 0.119111
H	 0.4486074305	-0.0442112198	 2.0735107492	 0.122973
H	-0.03596187	-2.3960900182	 0.1788212482	 0.157975
H	 0.452106856	-2.6106851458	 1.8708213416	 0.148362
H	-2.1053535213	-1.021038003	 1.1720165571	 0.102001
