15
gdb 128747	7.16694	0.73295	0.67309	6.125	76.56	-0.2295	-0.0341	0.1955	1589.4837	0.113148	-450.115401	-450.10692	-450.105976	-450.150207	28.764	
C	 0.0165339991	 1.3700736769	-0.1540768002	-0.254346
O	-0.1068780341	-0.0440503235	 0.0016717653	-0.183627
C	 0.6182790782	-0.5925160313	 0.9775438839	 0.131566
N	 0.4962189864	-1.8293106966	 1.2328172088	-0.336485
C	 1.3061879501	-2.3994841765	 2.1927527805	 0.381787
C	 2.5410486751	-2.1420402498	 2.7662617751	-0.136015
N	 2.8250002865	-3.1267687648	 3.6591224304	-0.184277
N	 1.8452141278	-3.9882538657	 3.6802087047	-0.118163
N	 0.9318275769	-3.5599066799	 2.7904870726	-0.23599
H	 1.0638589258	 1.6650111451	-0.2831212529	 0.13775
H	-0.5435189516	 1.626123117	-1.0531621238	 0.157416
H	-0.411960625	 1.8990754356	 0.7041542458	 0.140569
H	 1.2933227623	 0.0938261894	 1.5056653439	 0.106289
H	 3.235138878	-1.3415529714	 2.568645877	 0.11127
H	 0.0819262346	-4.0790218046	 2.6341145591	 0.282255
