21
gdb 103313	3.09008	1.27641	1.10258	3.1631	82.73	-0.237	0.0151	0.2521	1191.2173	0.181678	-387.060565	-387.051599	-387.050655	-387.094064	34.71	
C	-1.4562345118	-0.6298111707	 0.1601834587	-0.381057
C	-0.0602819211	-0.0155723801	-0.0116755942	-0.265278
C	 0.7066525698	-0.5311590424	-1.2431131624	 0.357652
C	 0.1653937645	 0.1309741863	-2.5133933325	-0.480238
C	 2.287266843	-0.626525281	-1.1249244477	-0.218785
C	 2.0825783071	-1.8821026202	-0.2068205083	-0.258134
C	 1.0168865343	-2.0853238433	-1.3379034856	-0.206797
C	 2.1768088962	-1.6628376842	-2.2537263057	 0.445719
O	 2.7246273469	-1.994677956	-3.2592810209	-0.337994
H	-2.0871577642	-0.4720024225	-0.7199107671	 0.121432
H	-1.3936164301	-1.7088893108	 0.3344453976	 0.119797
H	-1.9711368407	-0.184151174	 1.016894613	 0.115867
H	-0.1541296069	 1.0724033599	-0.1175136293	 0.099578
H	 0.5056312801	-0.1678097053	 0.9106142508	 0.101384
H	 0.3114537622	 1.2160270405	-2.4700343966	 0.119831
H	 0.6570319571	-0.2356236355	-3.4184996018	 0.140827
H	-0.9082201624	-0.0496604524	-2.6263535337	 0.12205
H	 2.9977015751	 0.1887191608	-0.9974192359	 0.086951
H	 2.9027101011	-2.6011756659	-0.1692333165	 0.115256
H	 1.6878584327	-1.6908317324	 0.7884690056	 0.114063
H	 0.3110076573	-2.9060406809	-1.4518259575	 0.087875
