19
gdb 88059	2.20838	1.41722	1.06	1.8168	77.03	-0.2358	-0.0299	0.2059	1201.1395	0.1583	-419.16412	-419.154992	-419.154048	-419.198522	33.222	
C	-0.1071094736	 1.3506033917	-0.2417864709	-0.395567
C	-0.0555088578	-0.1259944433	 0.0610615616	-0.068061
N	 1.2646457995	-0.7863860928	-0.0586253658	-0.380959
C	 0.6456219828	-0.6756174374	 1.2450853965	 0.317693
C	 1.2396666151	 0.0184951966	 2.4719760359	-0.234243
N	 0.4881235685	-0.9403678945	 3.3293079443	-0.332979
C	 0.1857587938	-1.8212713806	 2.1816277876	-0.14047
C	-1.2650537208	-2.2164591128	 2.037923185	 0.152173
O	-1.6585327059	-3.0141527612	 1.2228868648	-0.261018
H	 0.7932768969	 1.8530066845	 0.1217498836	 0.127155
H	-0.1743950413	 1.5217701349	-1.3211422261	 0.125786
H	-0.9800375926	 1.8147480988	 0.229687407	 0.120761
H	-0.9141033687	-0.7014089385	-0.2820031076	 0.106458
H	 1.1663779004	-1.7310793421	-0.4243280078	 0.239177
H	 2.3319370363	-0.0822238202	 2.5112277228	 0.107334
H	 0.9710406118	 1.0670158079	 2.6389223739	 0.112207
H	 1.0346519871	-1.3729881172	 4.0645425662	 0.226718
H	 0.8204750654	-2.712417872	 2.0724884735	 0.090665
H	-1.9525832069	-1.6632306719	 2.7160406953	 0.087169
