22
gdb 58525	2.47975	1.44889	1.23051	1.9357	80.87	-0.2441	0.0283	0.2724	1153.2235	0.193774	-404.378695	-404.3692	-404.368256	-404.412722	36.145	
C	-0.2287952079	 1.550728318	 0.0167076178	-0.406112
C	-0.0185343632	 0.0298298476	-0.0557152384	 0.000378
C	 0.6308307228	-0.3379207058	-1.3994923286	-0.405503
C	 0.7727957876	-0.5314154188	 1.1500309019	 0.375585
C	 0.261602905	-0.0369851339	 2.5015499666	-0.447294
C	 0.9180123909	-2.0862864377	 1.1285553095	-0.236322
N	 2.3598619286	-2.3554447753	 1.0232350011	-0.265612
C	 2.9147249453	-1.2170844723	 0.9779128928	 0.112198
O	 2.1709450739	-0.0907033552	 1.0314330519	-0.256113
H	 0.7326552958	 2.0701158965	 0.0863883918	 0.130177
H	-0.7349505109	 1.9049007602	-0.8866581067	 0.111653
H	-0.8397795206	 1.8483461312	 0.8724752778	 0.114224
H	-1.004309271	-0.4553088734	-0.0060753866	 0.07683
H	 1.5882323877	 0.1782614507	-1.5152856642	 0.127049
H	 0.8145635584	-1.4105814647	-1.5031379482	 0.123842
H	-0.0177176619	-0.0316560971	-2.2256938369	 0.111655
H	-0.7983431166	-0.285695863	 2.6213522088	 0.119274
H	 0.8176756487	-0.5194054187	 3.3106213903	 0.124819
H	 0.3791082056	 1.0431841005	 2.6066563097	 0.131117
H	 0.5229911004	-2.5408421099	 2.043773825	 0.11059
H	 0.3894526308	-2.5492458061	 0.2885554803	 0.112692
H	 3.9829745007	-1.0451850928	 0.8964256746	 0.134873
