23
gdb 120606	3.15976	0.7821	0.70163	2.7646	88.48	-0.2462	-0.0191	0.2271	1724.218	0.202878	-388.305486	-388.294599	-388.293655	-388.342169	38.773	
C	-0.1460954293	 1.4213011096	 0.1494522573	-0.382829
C	-0.1651545445	-0.085014443	-0.1216333312	-0.155675
C	 0.9161219822	-0.5276676993	-1.1191645568	-0.210419
C	 0.8891165936	-2.0211892564	-1.364532178	-0.007879
C	 0.0332925727	-2.6407953303	-2.4170119311	-0.311681
C	 1.5520403993	-2.6694115528	-2.5890856634	 0.2027
C	 2.2211972817	-1.8480613643	-3.673299488	-0.487633
C	 2.1860988054	-3.9870683501	-2.3089794506	 0.100017
O	 1.7779429246	-4.7971726555	-1.5092909378	-0.275614
H	 0.8179357161	 1.7379608947	 0.5630441573	 0.114784
H	-0.3132184531	 1.9925192214	-0.7707384917	 0.11301
H	-0.9242226198	 1.7072225491	 0.8638425763	 0.113945
H	-0.0302526278	-0.6308817029	 0.8209497766	 0.100418
H	-1.1492568288	-0.3817785822	-0.5053948862	 0.101409
H	 0.7771352121	 0.0177131798	-2.0602451739	 0.092982
H	 1.9025059615	-0.2328251004	-0.7358335484	 0.098791
H	 1.0049932182	-2.6275088842	-0.4690389833	 0.107287
H	-0.4439675666	-3.59024188	-2.2017985331	 0.133248
H	-0.5093994365	-1.9842463921	-3.0904580396	 0.111418
H	 1.6753904737	-0.9255458192	-3.8800577147	 0.125602
H	 3.2450048804	-1.571358506	-3.3962702031	 0.123928
H	 2.2727877006	-2.4118744757	-4.6116675357	 0.123682
H	 3.1048759845	-4.1935351202	-2.905085761	 0.068509
