15
gdb 51104	4.63739	0.93079	0.8525	2.6585	66.66	-0.2633	-0.0407	0.2226	1296.7115	0.110483	-457.766519	-457.758376	-457.757432	-457.800595	29.049	
O	 0.1118959732	-0.0719153292	 0.0642628864	-0.227999
C	 0.046380239	 1.110132795	-0.1440845665	 0.157089
C	 1.2309079392	 2.0601670883	-0.0102911256	-0.386551
C	 1.3594245509	 2.9737920643	-1.1881342956	 0.452842
C	 2.0016017945	 2.749269294	-2.5068469073	-0.325152
C	 2.4247379329	 3.947886018	-1.6356827321	-0.336963
C	 1.2973815685	 4.9434384958	-1.6592392478	 0.468203
O	 1.141709251	 6.1093135172	-1.8064861568	-0.315964
O	 0.3218567854	 3.9927564778	-1.3549702128	-0.299081
H	-0.9061274883	 1.5986769346	-0.4422878139	 0.107223
H	 1.0738231624	 2.6663560068	 0.8925897437	 0.145709
H	 2.1392962222	 1.4671240278	 0.1228234687	 0.137994
H	 2.7478769556	 1.9615932593	-2.5536981702	 0.141373
H	 1.4384113019	 2.9119431706	-3.4197406766	 0.145144
H	 3.4402975314	 4.1154567297	-1.3085214537	 0.136133
