17
gdb 90317	2.82153	1.60578	1.08257	2.9908	77.07	-0.2091	-0.0177	0.1914	1090.4503	0.136991	-417.989941	-417.98217	-417.981226	-418.022148	29.745	
C	-0.1298868442	 1.454165651	-0.1141884294	-0.327134
N	-0.0799217636	 0.0206013064	 0.1145853829	-0.090776
C	-1.2770078061	-0.6188196447	 0.756996666	-0.228245
C	-0.2847823723	-1.4403631829	 1.5526819373	 0.059229
C	 0.2278428469	-2.6752496264	 1.4652078205	-0.076524
N	 1.6243687491	-2.6039272402	 1.3333916414	-0.319286
C	 2.0637711474	-1.3125948453	 1.0209099951	 0.412487
O	 3.202163635	-0.9962302756	 0.7802135648	-0.35996
C	 0.8001419982	-0.4486824919	 1.2289349031	-0.122912
H	 0.844545035	 1.7959339728	-0.4755563196	 0.138107
H	-0.8745672601	 1.673504004	-0.8860484175	 0.123791
H	-0.388766978	 2.034031733	 0.7908976602	 0.09522
H	-1.8603252608	 0.0955416015	 1.359004617	 0.096906
H	-1.9448371088	-1.1419013784	 0.0660782571	 0.114243
H	-0.267705083	-3.6316602928	 1.3621571909	 0.128106
H	 2.2536270289	-3.3904767218	 1.340713172	 0.261432
H	 1.0224206165	 0.3408408014	 1.9614059583	 0.095314
