21
gdb 62041	4.39293	0.72843	0.67158	4.8965	84.15	-0.2361	0.0334	0.2696	1693.4966	0.182092	-383.25738	-383.247325	-383.246381	-383.293746	36.374	
C	-1.2605077122	 0.8835912559	-0.9245190996	-0.394423
C	-0.2949606924	 0.0587161234	-0.0474328955	-0.108388
N	-0.7933158976	-1.2367567334	 0.4014600027	-0.273889
C	-1.447206807	-1.2945672101	 1.7067102415	-0.193609
C	-2.797688679	-0.6115096084	 1.849224048	 0.03272
C	-4.0409145643	-1.2928930478	 1.3307293052	-0.26527
C	-3.8129989268	-1.1659830077	 2.8162407426	-0.273875
C	 0.9766572327	-0.1349940714	-0.7810387442	 0.288444
N	 1.9583033615	-0.2747085372	-1.3743678873	-0.324713
H	-0.8061479901	 1.8331279376	-1.22195242	 0.137383
H	-1.5101065967	 0.3302693783	-1.8351326518	 0.134079
H	-2.1833623758	 1.0865379581	-0.3779447727	 0.130603
H	-0.0476584741	 0.6413955998	 0.8487074581	 0.128295
H	-1.363720638	-1.6675634116	-0.3171600633	 0.223451
H	-1.5663378649	-2.3564630228	 1.9565078979	 0.105422
H	-0.7453249002	-0.8865471218	 2.4451259202	 0.113859
H	-2.7765488289	 0.471906586	 1.7640429062	 0.082435
H	-4.814878756	-0.6868854151	 0.8731525663	 0.114808
H	-3.9320283719	-2.278180594	 0.8871856955	 0.110972
H	-3.5481491038	-2.0636257615	 3.3660834028	 0.115507
H	-4.4275820144	-0.4701223562	 3.3760338274	 0.116188
