17
gdb 44376	3.4533	1.61158	1.34718	4.0471	71.38	-0.2278	0.0259	0.2537	954.1804	0.13902	-418.000527	-417.993746	-417.992802	-418.031717	27.51	
O	 0.0099985015	-0.0975375408	-0.372134123	-0.37639
C	 0.0202014811	 1.0846470357	-0.0888088472	 0.389711
C	-1.2727876611	 1.8328238956	 0.2664556495	-0.28322
N	-1.2656925233	 3.3015050991	 0.2226516286	-0.088841
C	-0.6350727636	 4.114879706	 1.2494373343	-0.04273
C	 0.6015225067	 3.4455909978	 1.863335573	-0.266013
C	 1.14434834	 3.2096156323	 0.4057353843	-0.022937
N	 1.1525031446	 1.8468276315	-0.0784649386	-0.302517
C	-0.0574073128	 4.0082202026	-0.1366217158	-0.054642
H	-2.0273771955	 1.4697491517	-0.4371946391	 0.145936
H	-1.5906712678	 1.4970473286	 1.2599100148	 0.13751
H	-1.219599667	 4.9127688669	 1.6922435113	 0.10125
H	 1.2224483786	 4.1531682161	 2.418439802	 0.112637
H	 0.4431343309	 2.5534329725	 2.476752864	 0.10676
H	 2.1205987156	 3.6615013105	 0.2309408511	 0.095432
H	 2.0198273472	 1.3530102054	-0.2267504749	 0.249505
H	-0.059752365	 4.6900576485	-0.9798163142	 0.098552
