21
gdb 33072	4.2358	0.80276	0.70964	3.2608	87.19	-0.2064	0.0386	0.245	1673.6044	0.18297	-383.332853	-383.323043	-383.322099	-383.368547	35.321	
C	 0.0113196169	 1.565038309	 0.0336771356	-0.380798
C	-0.0253124778	 0.040770998	 0.1610349834	-0.148919
C	-1.4317216727	-0.5451565254	-0.0565978886	-0.299682
C	-1.4610121829	-2.0400907311	 0.005782362	 0.285601
C	-2.0861036774	-2.851455708	 0.9150256182	-0.203136
N	-1.7843586601	-4.1430760355	 0.5287119737	-0.274227
C	-0.9981302757	-4.0665838272	-0.5860376468	 0.338749
C	-0.4718026351	-5.267196424	-1.2998131278	-0.498963
N	-0.7873089197	-2.812709543	-0.9225118804	-0.340962
H	 1.0221471751	 1.9546924325	 0.1909877266	 0.107986
H	-0.3180384471	 1.8872707537	-0.9607296008	 0.112776
H	-0.6469408414	 2.0432476306	 0.7684505798	 0.107636
H	 0.6549598105	-0.4157310887	-0.5661777312	 0.117309
H	 0.3369693578	-0.2605902259	 1.1520465722	 0.08907
H	-2.1232546756	-0.1363588088	 0.6904904708	 0.089026
H	-1.8011915661	-0.2171123266	-1.0374616686	 0.105195
H	-2.7011050329	-2.6421276071	 1.7747561757	 0.119833
H	-2.0952476216	-4.9852115724	 0.9826384391	 0.258632
H	-1.2786147667	-5.9068905624	-1.6764456157	 0.129063
H	 0.1254264762	-4.9320861673	-2.148570915	 0.156866
H	 0.1630796462	-5.8833802504	-0.6524024321	 0.128945
