17
gdb 31820	4.65069	1.00463	0.88903	2.1903	78.81	-0.2417	-0.0378	0.204	1316.7495	0.137078	-418.069077	-418.060805	-418.05986	-418.102845	30.633	
C	 0.0323456435	 1.5192396593	 0.0969170912	-0.375713
C	-0.0187434484	-0.0073483128	-0.085027029	-0.251586
C	-1.4311073957	-0.5302620341	-0.0370794654	 0.339411
N	-1.994578881	-0.6660770936	 1.1731474539	-0.27139
C	-3.2485131997	-1.0997255296	 1.2215835907	-0.04807
C	-3.9697445604	-1.407213427	 0.0669066013	 0.30553
O	-5.2478545127	-1.8503621314	 0.1811577631	-0.433342
C	-3.2982189527	-1.2309471824	-1.1390702037	-0.114957
N	-2.040737408	-0.7960762937	-1.1977711807	-0.269815
H	 1.0660756057	 1.8772887721	 0.0816245329	 0.1134
H	-0.514953364	 2.0261237442	-0.7042070827	 0.121832
H	-0.4166255436	 1.8068010058	 1.0521441959	 0.13048
H	 0.4217486587	-0.2864020418	-1.0455097209	 0.112711
H	 0.5575679865	-0.486533352	 0.7126662164	 0.113733
H	-3.7127313132	-1.2155540688	 2.1985130424	 0.122796
H	-5.6094383396	-2.0180078932	-0.6964045356	 0.30362
H	-3.7920911155	-1.449709301	-2.0872869296	 0.101358
