23
gdb 112813	2.6432	1.03592	0.82179	3.1578	81.76	-0.2452	0.0608	0.306	1477.121	0.205108	-425.414535	-425.40429	-425.403346	-425.449721	38.225	
C	-0.0950905683	 1.6341444017	-0.1400565153	-0.383461
C	 0.0297140296	 0.1181555807	 0.0481169955	-0.195091
C	-1.3235229605	-0.5863628751	 0.0517921747	 0.035267
C	-2.1487574018	-0.6571603754	-1.2670588936	-0.28194
C	-2.5952612197	-2.0801568497	-0.8480492309	 0.12666
O	-2.5915318875	-3.1123396967	-1.8221719959	-0.438069
C	-1.4076182176	-2.1479578055	 0.1482920167	-0.084693
C	-0.2070820135	-2.9269114062	-0.395652058	-0.061708
O	-0.4664403188	-4.318481524	-0.4320265005	-0.4356
H	 0.8866991755	 2.1174874504	-0.1385806337	 0.112876
H	-0.5838678283	 1.8774821687	-1.0897073851	 0.117895
H	-0.6900807791	 2.0844253697	 0.6625175558	 0.113181
H	 0.6631975193	-0.2947960002	-0.7462172783	 0.098827
H	 0.5481005048	-0.0903775866	 0.9932134431	 0.097883
H	-1.9432049226	-0.1498422924	 0.8444117258	 0.06967
H	-2.922764058	 0.094802571	-1.4399158524	 0.09238
H	-1.4963395318	-0.7072143518	-2.144725537	 0.105465
H	-3.5563506362	-2.0571396699	-0.3174340715	 0.07221
H	-3.3536681618	-3.0057203261	-2.3988793312	 0.289053
H	-1.6526949949	-2.5536692175	 1.1338365814	 0.072404
H	 0.0831624046	-2.552382572	-1.3892791218	 0.084818
H	 0.6551972198	-2.7876297193	 0.2652977007	 0.101492
H	-1.2174534133	-4.4249088939	-1.0292569085	 0.29048
