17
gdb 107741	4.19676	1.37371	1.19833	1.973	73.41	-0.239	-0.0463	0.1927	1030.9573	0.136978	-417.899338	-417.892081	-417.891137	-417.930979	28.684	
O	 0.0080296642	 1.2272877781	 0.6404569269	-0.410688
C	 0.0087226527	 0.0954193566	-0.2073253529	-0.137308
C	-1.3727157956	-0.5218943252	-0.2972159517	 0.202769
C	-2.6174917752	 0.3895354859	-0.6508627823	-0.29337
C	-3.264486271	-0.6794979228	 0.1952228106	 0.150547
N	-3.8673209591	-1.6595658613	-0.3525503919	-0.195968
C	-2.8962255133	-2.7799156686	-0.2525636822	-0.190992
C	-1.6030500553	-2.013978023	 0.0614372613	-0.087993
N	-2.0153079066	-0.9587387973	 0.9864003338	-0.176631
H	-0.3814264684	 0.9367323097	 1.4751702235	 0.296173
H	 0.3352686481	 0.441329807	-1.1934099873	 0.121387
H	 0.7267351377	-0.6657291026	 0.1339819448	 0.09855
H	-2.4284216071	 1.3658258558	-0.1995719541	 0.140671
H	-2.9901962479	 0.4648697927	-1.6709835137	 0.132225
H	-3.1008479094	-3.5117325795	 0.5423829771	 0.12274
H	-2.9055165819	-3.3085195637	-1.2105179524	 0.126008
H	-0.7028151319	-2.5667843917	 0.3215472704	 0.101881
