19
gdb 78707	3.06338	1.6032	1.24168	0.9801	79.69	-0.2166	0.0151	0.2317	1044.9346	0.159742	-385.858039	-385.850364	-385.84942	-385.889547	31.473	
C	 0.0096280026	 1.4705608685	-0.0107320838	-0.49784
C	-0.0111352879	-0.03851251	 0.043636202	 0.313604
C	-1.2571793387	-0.7925777813	-0.3212376464	-0.152445
C	-1.2274513178	-2.0139844412	 0.2188559212	-0.104927
C	 0.1239539127	-2.2216562129	 0.8609528558	-0.156281
C	 0.6513595989	-0.7828640456	 1.1733674836	-0.095688
C	 1.3413018045	-0.7584250399	-0.1742321851	-0.105546
C	 1.1970391241	-2.2648139949	-0.3092214783	 0.120315
O	 2.4202179271	-2.8569991979	 0.0796561312	-0.43814
H	 0.952927219	 1.8690314866	 0.376220714	 0.118669
H	-0.1066117959	 1.8350868119	-1.0377451592	 0.119342
H	-0.8037731219	 1.8951458319	 0.5882361028	 0.120153
H	-2.0376812859	-0.3770892808	-0.9476926071	 0.093849
H	-1.9582309042	-2.8007851155	 0.0764233523	 0.094729
H	 0.2242655402	-3.0125909338	 1.6040355973	 0.062576
H	 0.9406056342	-0.3580260911	 2.1273848828	 0.083526
H	 2.2123390382	-0.1999367731	-0.4966413689	 0.088302
H	 0.842033918	-2.6750510589	-1.2662191314	 0.055962
H	 2.2754039928	-3.8067133322	 0.1459249374	 0.27984
