19
gdb 102245	1.91966	1.17506	0.85174	3.99	77.84	-0.2646	0.0073	0.2718	1424.9553	0.1572	-419.263579	-419.252891	-419.251947	-419.300989	36.516	
C	-0.0021410965	 1.5743610326	-0.2797798803	-0.392244
C	 0.0064571624	 0.0599657966	-0.0697773395	-0.177845
C	 0.7940667234	-0.6881109895	-1.1688647211	-0.119697
N	 2.200328504	-0.3217711375	-1.2205156628	-0.316424
C	 2.7474283616	 0.2764653139	-2.3312387939	 0.419904
C	 4.2521406298	 0.4684791269	-2.2724996731	-0.493137
O	 2.0730170189	 0.6121865399	-3.2851827769	-0.360406
C	 0.6566483034	-2.1448676057	-0.9987592173	 0.271115
N	 0.5557589634	-3.283682353	-0.8304197614	-0.318785
H	 1.0121710124	 1.9824005841	-0.2656089856	 0.126108
H	-0.4545424321	 1.8394913174	-1.2403367178	 0.135993
H	-0.5744108619	 2.0653560085	 0.5121084071	 0.122295
H	 0.4363410585	-0.1919885277	 0.9071469129	 0.109888
H	-1.0164280191	-0.3319451167	-0.0676697021	 0.126166
H	 0.3949594807	-0.4143714066	-2.1522139604	 0.168902
H	 2.8037927196	-0.6415946067	-0.4797907565	 0.255979
H	 4.7406240656	-0.3918188433	-2.7420811725	 0.159693
H	 4.5144108524	 1.3589504284	-2.8445707925	 0.158681
H	 4.6302715134	 0.5623660884	-1.2509048565	 0.123814
