20
gdb 120024	2.01488	1.46181	1.03933	3.1006	76.76	-0.2168	-0.0162	0.2007	1243.2994	0.168427	-440.258277	-440.248455	-440.247511	-440.293295	34.898	
C	-0.1855928708	 1.4569347664	-0.1809835649	-0.228888
O	 0.005638811	 0.0656165424	-0.0557742318	-0.232395
C	 0.5648346534	-0.5240622211	-1.2110232446	-0.09364
C	 0.6416314758	-2.0327720183	-1.0119021506	-0.123332
N	 1.3635103272	-2.565584048	 0.1715846731	-0.07978
C	 2.3938090369	-1.7916424691	 0.8321843318	-0.330653
C	 0.1251152273	-2.893891996	 0.9069220146	-0.283184
C	-0.642210484	-2.6348061291	-0.3944165229	 0.413485
O	-1.7520834399	-2.8259392847	-0.7870345076	-0.297267
H	 0.7657500079	 1.9839682396	-0.3525143926	 0.107635
H	-0.8685694533	 1.6973995021	-1.0096609764	 0.113477
H	-0.6236955231	 1.8117253474	 0.754477983	 0.132695
H	-0.0599027548	-0.3211878709	-2.096658613	 0.108694
H	 1.5666626102	-0.1076683368	-1.4120988223	 0.097055
H	 0.9625155307	-2.4881144309	-1.9588697566	 0.098397
H	 2.0357671505	-0.8282635092	 1.2292271049	 0.11224
H	 2.805204621	-2.3762969496	 1.6616852391	 0.122107
H	 3.2151149891	-1.5967368339	 0.134121432	 0.118282
H	 0.0803675179	-3.9053235774	 1.3271809252	 0.120945
H	-0.1605414429	-2.163150463	 1.6806555797	 0.124129
