21
gdb 17132	5.48175	1.12728	1.05478	0.9486	79.83	-0.2288	0.0822	0.311	1206.959	0.188947	-329.087525	-329.079249	-329.078305	-329.120444	31.473	
C	-0.2920332854	 1.4715830995	-0.075197531	-0.389837
C	-0.0054296495	-0.0271854814	-0.0472192081	 0.028537
C	 1.2616764815	-0.4605663669	-0.8455738053	-0.251758
C	 2.0476041139	-0.5364960663	 0.488853481	 0.08983
C	 0.6972196076	-0.529371191	 1.2507948633	-0.251758
N	 2.8796778041	-1.7102087375	 0.674370812	-0.063212
C	 4.2814403327	-1.5717625071	 0.2854168257	-0.224134
C	 3.8947403143	-1.6188998382	 1.7216060341	-0.224134
H	 0.597873123	 2.0571184578	 0.183631765	 0.111265
H	-0.6199372281	 1.7924908838	-1.0703233995	 0.11188
H	-1.0800927567	 1.7363999383	 0.6386740341	 0.11188
H	-0.9150326785	-0.5745313135	-0.3100984006	 0.067712
H	 1.1564572722	-1.457899955	-1.2800602301	 0.106197
H	 1.6316230142	 0.226424338	-1.6120302258	 0.08861
H	 2.6128870365	 0.393564051	 0.671583986	 0.048185
H	 0.6214342565	 0.1032867579	 2.1397676456	 0.08861
H	 0.4046904809	-1.5495370344	 1.51196948	 0.106197
H	 4.7267919953	-2.4374002524	-0.196325833	 0.114804
H	 4.6082201522	-0.6111022963	-0.1101793729	 0.108161
H	 3.9631379462	-0.6897355279	 2.2856316488	 0.108161
H	 4.0525512756	-2.5195878085	 2.3077798162	 0.114804
