15
gdb 27397	1.92901	1.84209	0.94395	5.0002	74.54	-0.1935	0.0056	0.1991	1155.3498	0.113888	-453.981087	-453.973173	-453.972229	-454.013168	30.949	
O	-0.1387579437	 1.3349267615	-0.0262700806	-0.429826
C	 0.0448816187	-0.0074436693	-0.0333593658	 0.473687
C	 1.2161765789	-0.6704866916	-0.0537918309	-0.327013
C	 1.2635342686	-2.1298178667	-0.012161038	 0.341622
N	 2.4076044265	-2.7287677505	-0.0334727387	-0.571114
C	-0.0501853948	-2.7746722231	 0.0280570349	-0.334319
C	-1.1843759197	-2.0517239716	 0.0474679233	 0.457803
O	-2.4167144287	-2.6138426061	 0.1498862851	-0.42878
N	-1.1725851476	-0.6665533104	-0.0255562218	-0.45338
H	 0.7240566691	 1.7607187628	 0.0204269413	 0.313906
H	 2.1559896213	-0.1340069297	-0.1078083561	 0.096275
H	 2.2704867279	-3.7409446515	-0.0000252093	 0.195434
H	-0.124828357	-3.8548869831	 0.0185651671	 0.104245
H	-3.0382445559	-2.129208454	-0.4070228227	 0.301327
H	-1.9521499834	-0.1600660068	 0.3698968724	 0.260131
