19
gdb 32913	4.21179	0.8449	0.73912	2.6622	80.32	-0.1953	0.0255	0.2208	1572.9824	0.15977	-419.250775	-419.24144	-419.240496	-419.285781	33.703	
C	 0.1573286153	 1.4774814886	 0.13668871	-0.381002
C	 0.1664132152	-0.0505506342	 0.0603528896	-0.16501
C	 0.5725380658	-0.5671158932	-1.3337431795	-0.293524
C	 0.6004997226	-2.0507753912	-1.4357180168	 0.375685
N	-0.146182078	-2.841728699	-2.1290371874	-0.296195
C	 0.2935628718	-4.1291998137	-1.8205300265	-0.197997
C	 1.3186997216	-4.0365449067	-0.9347686586	 0.334074
N	 2.201706835	-4.9272945502	-0.3439651867	-0.598206
O	 1.5353097897	-2.7183854876	-0.6733609637	-0.205084
H	 1.1474174593	 1.8916902165	-0.0844905623	 0.115592
H	-0.548383991	 1.9063535283	-0.5833339555	 0.117953
H	-0.1329264851	 1.8227150162	 1.1336420496	 0.113819
H	 0.8583144108	-0.4578223469	 0.8065439073	 0.106541
H	-0.8260640195	-0.4445304802	 0.3091931208	 0.107941
H	-0.1322336903	-0.2114504006	-2.0905953948	 0.130245
H	 1.5599520063	-0.1619629976	-1.5926997358	 0.114471
H	-0.15315326	-5.008835799	-2.2539635968	 0.10544
H	 1.8755971816	-5.882691917	-0.3975675103	 0.258065
H	 2.425540609	-4.6840193723	 0.6135230672	 0.257193
