21
gdb 78521	2.32454	1.81966	1.18355	1.3175	84.18	-0.2078	0.0824	0.2903	1123.1904	0.180967	-383.164517	-383.155534	-383.154589	-383.197423	34.968	
C	-0.638387986	 1.4261838734	-0.4301639518	-0.328948
N	-0.4339073918	 0.0146618602	-0.1275021468	-0.115259
C	-1.2450444203	-0.5897322891	 0.9690110317	-0.132871
C	-0.1463424782	-1.6784833926	 1.2186497318	 0.355899
C	 0.0243385354	-3.0000329941	 0.5372709227	-0.529745
N	-0.0456622275	-1.4600118582	 2.6957634584	-0.40919
C	-0.3358086314	-0.0811929516	 2.167543204	 0.336446
C	-0.4563092248	 1.0769633278	 3.1172423493	-0.531693
C	 0.5813767629	-0.3355874418	 0.9082544421	-0.100867
H	 0.1920650534	 1.7812474934	-1.0499591609	 0.119669
H	-1.5571755212	 1.5343413988	-1.0166991608	 0.118508
H	-0.7155843496	 2.0898814247	 0.4449192202	 0.097991
H	-2.3316490246	-0.7072030829	 0.921989006	 0.069602
H	-0.0241134979	-2.8602524068	-0.5466475965	 0.140673
H	 0.9901947258	-3.4460513281	 0.7944166909	 0.129454
H	-0.7633534958	-3.7030942558	 0.8301096186	 0.116696
H	-0.8770723976	-1.8357343161	 3.1632192948	 0.196322
H	 0.4443200066	 1.1436409033	 3.7365928503	 0.13531
H	-0.590374262	 2.0277875253	 2.5972787306	 0.130719
H	-1.3124918964	 0.9360752948	 3.7876415599	 0.120544
H	 1.6523883611	-0.1581372144	 0.7957216255	 0.080738
