17
gdb 48776	3.53462	1.37758	1.22258	2.6857	72.44	-0.2491	-0.0265	0.2226	1036.0704	0.135945	-421.80106	-421.793724	-421.79278	-421.832774	28.949	
O	-0.1148160265	 0.1184630665	-0.5287300867	-0.276874
C	 0.0375716795	 1.1485542976	 0.0858931039	 0.065153
C	 1.2655056439	 1.9712967176	 0.0500036591	 0.221743
C	 2.2932450182	 1.6842387277	-1.0397252283	-0.367703
C	 2.6227126875	 1.2937626076	 0.356960806	 0.083089
O	 3.3772085199	 2.1395437449	 1.1730187915	-0.252632
C	 2.6463525859	 3.294689554	 1.5174738241	 0.110098
C	 2.3484855914	 4.3238723481	 0.4603880284	-0.33583
C	 1.3120352386	 3.2733999997	 0.8129046008	-0.172467
H	-0.7622348028	 1.538663829	 0.7551397011	 0.073388
H	 2.0097175726	 0.8750856617	-1.7046816284	 0.147304
H	 2.8097360151	 2.5149492204	-1.5022353044	 0.126867
H	 2.6896850192	 0.2467200561	 0.6334432926	 0.124278
H	 2.7989968787	 3.5873621493	 2.550324335	 0.109083
H	 2.1529863296	 5.3321589414	 0.8108636575	 0.120774
H	 2.8678802549	 4.2789698052	-0.4883905025	 0.126379
H	 0.3964269343	 3.580334443	 1.3060501705	 0.09735
