20
gdb 88599	2.96885	1.11225	1.04289	2.8214	76.18	-0.228	0.0775	0.3055	1259.7999	0.169829	-440.222932	-440.213855	-440.212911	-440.257047	34.697	
C	 0.4418468964	 1.46530517	-0.5393814748	-0.41698
C	-0.0047474264	 0.1287510144	 0.0051715087	 0.025249
C	 0.975890313	-0.9563145139	 0.2837887391	-0.226768
N	 0.2737593394	-0.2902151342	 1.3849435263	-0.117776
C	 1.006445122	 0.55828851	 2.2881499936	-0.089982
C	 0.6540555076	 0.3019632399	 3.7473966435	 0.025514
O	-0.208988772	-0.7752214096	 3.9612469006	-0.434646
C	 2.0173882833	-0.0913029689	 3.229942918	 0.08552
O	 2.2870876576	-1.4491263038	 3.1235161237	-0.430253
H	 1.487653554	 1.6797545608	-0.3036785752	 0.127393
H	 0.3409969521	 1.4677890067	-1.629547428	 0.127725
H	-0.1740182519	 2.2833388739	-0.1488476997	 0.127519
H	-1.001475552	-0.1661664694	-0.3198967029	 0.09481
H	 0.71916177	-1.9999964544	 0.1267200346	 0.117499
H	 2.0291968066	-0.7216413987	 0.1546429066	 0.124086
H	 1.1953053801	 1.5827443154	 1.9804440235	 0.08882
H	 0.5223053398	 1.1220803249	 4.4467729271	 0.096017
H	-0.5856433431	-0.9584205435	 3.0781514469	 0.290035
H	 2.8867432275	 0.4982542939	 3.5086727004	 0.097519
H	 1.529568226	-1.8901622437	 3.5399642381	 0.288699
