13
gdb 43258	2.38694	2.04272	1.18687	2.8696	66.73	-0.2517	-0.1046	0.1471	958.6491	0.088795	-456.578745	-456.571523	-456.570579	-456.610695	26.542	
O	 0.0310485663	-0.0157355295	-0.0463982886	-0.306333
C	 0.0091313033	 1.1893716172	-0.0168235634	 0.319833
C	-1.1966190874	 2.0702467996	-0.0113176379	-0.175557
C	-0.8479114764	 3.3687211689	-0.0096695924	-0.175558
C	 0.636918362	 3.527046794	-0.0138565292	 0.319834
O	 1.259633467	 4.5591077445	-0.0405919284	-0.306334
C	 1.1983416786	 2.12307763	 0.0345155276	 0.207694
C	 2.4690225093	 1.7809899345	 0.7025668329	-0.221098
O	 2.3702742523	 1.80929943	-0.7095563027	-0.248199
H	-2.2004313595	 1.6627687657	-0.001835768	 0.148632
H	-1.51254451	 4.2242371516	 0.0014154322	 0.148632
H	 3.0435343883	 2.5900027637	 1.1498473803	 0.144228
H	 2.5606754462	 0.79194805	 1.1475632676	 0.144228
