15
gdb 48866	2.54738	1.73911	1.32845	3.9821	70.31	-0.2473	-0.0358	0.2114	964.4625	0.111893	-420.60015	-420.592828	-420.591884	-420.632355	27.498	
O	-0.8332419534	 0.9205529149	-0.5359383704	-0.248917
C	 0.152243126	 0.8735147611	 0.1595376247	 0.040211
C	 1.3017528768	 1.8001820613	 0.0345931346	 0.094603
C	 1.7878957647	 2.7133625175	 1.2109506204	-0.292246
C	 2.3256530949	 3.6319016627	 0.1082800209	-0.066061
C	 2.9604376438	 2.7447453411	-0.9757117129	-0.197033
C	 1.4410550897	 3.0331174275	-0.9319448617	-0.116352
C	 2.6710001778	 1.3360501261	-0.5845736936	 0.415438
O	 3.1445598541	 0.2657155941	-0.8223907308	-0.325055
H	 0.2638642531	 0.1056566927	 0.9570430418	 0.086464
H	 0.9480657789	 3.174646843	 1.7367357683	 0.125468
H	 2.4914057769	 2.2773533094	 1.9277800768	 0.116005
H	 2.6479255071	 4.6611226931	 0.200437092	 0.112077
H	 3.6932349092	 3.1213669994	-1.6754745019	 0.121479
H	 0.8088804104	 3.413931076	-1.7175847283	 0.133918
