19
gdb 80044	2.71993	1.60205	1.36408	1.7424	81.06	-0.2281	0.0013	0.2293	1029.7562	0.159669	-385.865661	-385.857835	-385.85689	-385.897725	31.117	
C	-0.1010607017	 1.5606904392	 0.0394980117	-0.412146
C	 0.058423585	 0.0575156837	 0.0650634944	-0.007544
C	 1.3515979996	-0.693128339	-0.231626755	-0.119145
C	 2.632405667	 0.0668394174	-0.107473467	-0.085359
C	 2.8438062261	 0.482522179	 1.144204148	-0.167106
C	 1.7436640939	 0.024901516	 2.0450399018	 0.447507
C	 1.9229228187	-0.2477942631	 3.4798910546	-0.253412
O	 1.2606017603	 0.9397484346	 3.0505989277	-0.28715
C	 0.7559821313	-0.710677869	 1.1684335901	-0.170659
H	 0.8027167848	 2.0789896927	 0.3642247274	 0.132453
H	-0.344938536	 1.9042376038	-0.9719635561	 0.109748
H	-0.9144913938	 1.868029406	 0.7044898102	 0.124813
H	-0.8164996253	-0.470734262	-0.3086862061	 0.087617
H	 1.3063607093	-1.5584568756	-0.8837058442	 0.088135
H	 3.2756082793	 0.2739147068	-0.9551595724	 0.102024
H	 3.6568775144	 1.1056213214	 1.4965251315	 0.103779
H	 1.2884893753	-0.9918699236	 3.9628964126	 0.110905
H	 2.8991603926	-0.1033336539	 3.9428843135	 0.109375
H	 0.2713675593	-1.5930493046	 1.5695655073	 0.086163
