19
gdb 111223	2.94082	0.99252	0.86108	2.5089	71.98	-0.2387	0.0621	0.3008	1382.6174	0.158052	-460.066447	-460.057361	-460.056416	-460.100997	33.426	
O	 0.3266997923	 1.2286054966	 0.1499012202	-0.421404
C	 0.1677272428	-0.1628241867	 0.4062367972	-0.112015
C	-1.2853745569	-0.591516984	 0.2956693236	-0.001502
C	-1.8846579308	-0.8702105702	-1.1150582425	 0.021965
O	-1.0282260428	-2.0786681684	-1.209133057	-0.312944
C	-1.616724595	-2.1041337521	 0.1533171218	-0.014596
C	-2.9893927307	-1.76913689	-0.4940970765	 0.059024
C	-4.1793505844	-1.2236636107	 0.269215895	-0.138288
O	-5.0569631919	-0.6574242508	-0.6959855693	-0.417589
H	 0.1677997706	 1.3710559928	-0.7883630069	 0.28354
H	 0.7898706072	-0.7755576177	-0.2559458355	 0.112055
H	 0.5170392399	-0.3130142119	 1.4339232708	 0.105794
H	-1.9097963857	-0.0101632583	 0.9777252	 0.078581
H	-1.9417369197	-0.2265111874	-1.9935878639	 0.09452
H	-1.3412437416	-2.9395984474	 0.7989974009	 0.093027
H	-3.3041828239	-2.545299545	-1.1952420049	 0.095074
H	-4.6617170315	-2.0536266869	 0.8105752356	 0.091275
H	-3.8824763301	-0.4775343978	 1.0188845734	 0.093577
H	-5.8505737878	-0.3583711539	-0.2424992718	 0.289906
