20
gdb 64345	2.47556	1.51292	1.21378	2.3008	76.58	-0.2559	0.0206	0.2765	1120.7748	0.170345	-440.314856	-440.30591	-440.304966	-440.348284	34.41	
C	 0.1238658856	 1.4631462423	 0.0420683558	-0.411268
C	-0.0768751482	-0.0417625157	-0.0405066904	 0.418681
C	-1.5593492777	-0.4322844003	-0.0783414535	-0.420184
O	 0.6244552043	-0.4727939833	-1.1785962275	-0.264012
C	 0.7840663677	-1.881477725	-1.2795081846	-0.114048
C	 1.5498351626	-2.3903321537	-0.0602347585	-0.263476
C	 0.9386716158	-1.8722825386	 1.2173722398	 0.367844
N	 0.927801487	-2.5585535919	 2.2809972892	-0.506313
O	 0.4943975637	-0.5801590257	 1.1821658436	-0.2851
H	 1.1926766717	 1.6852871036	 0.0550826285	 0.132365
H	-0.3289435312	 1.9472722289	-0.8263621799	 0.126916
H	-0.3350779092	 1.8546368609	 0.9522218669	 0.127685
H	-2.0199178026	-0.0571703308	-0.9960429546	 0.127846
H	-1.6955935093	-1.5154717646	-0.0336845436	 0.126388
H	-2.0756403389	 0.0007626102	 0.7814474513	 0.131065
H	-0.1867183355	-2.3867034742	-1.3752585532	 0.105456
H	 1.341568413	-2.055793679	-2.2026029716	 0.118562
H	 1.5898152473	-3.4798704926	-0.0186180667	 0.131583
H	 2.5778007367	-2.0118509854	-0.1137952376	 0.134078
H	 0.503839887	-2.016460875	 3.0375872068	 0.215933
