13
gdb 9459	2.9948	1.80401	1.66804	1.3948	61.14	-0.2723	-0.0054	0.2669	836.4222	0.093542	-398.546925	-398.539182	-398.538238	-398.57896	28.125	
O	 0.0675074168	 1.4176604838	 0.0544221637	-0.442945
C	 0.0493791431	 0.00835591	 0.0356847112	 0.095746
C	-1.3935441486	-0.5277287729	-0.1477130131	-0.102288
O	-1.0370401002	-1.0743181029	-1.4556828606	-0.250336
C	 0.2508938157	-0.6053677865	-1.3607033751	 0.395886
N	 1.2160755647	-0.6295042487	-2.1546270048	-0.546175
C	 0.8401140324	-0.5900621848	 1.1021825471	 0.304008
C	 1.5051997004	-1.0700274838	 1.9800624079	-0.474678
H	 0.9763550586	 1.6965350413	-0.1112759065	 0.300136
H	-1.7097383915	-1.3136033135	 0.5384683632	 0.135875
H	-2.138211419	 0.2648407973	-0.2359318338	 0.139412
H	 0.9775706149	-1.0840931823	-3.0375106114	 0.235871
H	 2.0964747726	-1.495566587	 2.753468702	 0.209489
