18
gdb 68910	2.75225	1.47045	1.15963	3.643	72.42	-0.2374	0.0267	0.2641	1089.2909	0.147137	-439.119656	-439.111129	-439.110185	-439.152301	33.281	
C	-0.0192001336	 1.5479626514	 0.0633243394	-0.46741
C	-0.0055695697	 0.0428276774	 0.0667287469	 0.291023
C	 1.2540934122	-0.7545922883	-0.2571775558	-0.394379
C	 0.6561641389	-0.7865179176	 1.1373763625	 0.358904
O	 1.315334183	-0.1184525689	 2.1689788074	-0.469038
C	-0.2916385278	-1.9195366058	 1.4910885675	-0.417806
C	-1.4327805268	-1.810626967	 0.4645716334	 0.394701
O	-2.3249849103	-2.6053281162	 0.2760549948	-0.369762
N	-1.2466660581	-0.6303937353	-0.2179373529	-0.34836
H	 0.9118179158	 1.931297818	 0.4860644176	 0.138593
H	-0.1237267575	 1.9448983595	-0.9526696053	 0.117726
H	-0.8507477144	 1.9256121692	 0.666342663	 0.130448
H	 1.1681536011	-1.6255942365	-0.8993447269	 0.115738
H	 2.1754304526	-0.1901191269	-0.3575648724	 0.117403
H	 2.1026419753	-0.623801615	 2.3985527171	 0.28702
H	 0.1470666248	-2.9201919575	 1.4459805469	 0.127891
H	-0.6932441492	-1.7735668789	 2.4992765325	 0.139922
H	-1.7780350463	-0.4585927715	-1.0586256357	 0.247384
