15
gdb 29761	4.7993	1.27455	1.16891	2.5444	71.05	-0.219	0.0075	0.2266	1029.7115	0.114509	-416.763381	-416.756638	-416.755694	-416.79445	26.605	
O	 0.1221648331	 1.2476346085	 0.0596595996	-0.425422
C	-0.0184828808	-0.1279272738	-0.0561225533	 0.099026
C	-1.4469888251	-0.592099618	-0.0122009663	-0.047254
C	-0.6798037238	-0.667712293	-1.3360333576	-0.255162
C	-0.7577663388	-2.1631681659	-1.1536055224	 0.292299
N	-0.1191006064	-3.2996413203	-1.2779939071	-0.334103
C	-0.4948881391	-3.9866970937	-0.1293791767	-0.075019
C	-1.2693415027	-3.2192874062	 0.7162915902	-0.16832
N	-1.5062372812	-2.0658078896	-0.0061253568	-0.00074
H	 0.9303950756	 1.511241093	-0.3934498022	 0.29974
H	 0.746960851	-0.734502786	 0.429194796	 0.121942
H	-2.2831945194	 0.0291576897	 0.2769855158	 0.131096
H	-0.8077203937	-0.0627143714	-2.2219431413	 0.1217
H	-0.2059588463	-5.0183187987	 0.0121179175	 0.110228
H	-1.7388930423	-3.4457689745	 1.6589373645	 0.129988
