14
gdb 23743	3.32871	2.21896	1.33312	1.5553	68.05	-0.204	0.0048	0.2088	850.8177	0.10894	-386.755728	-386.749183	-386.748238	-386.786086	26.018	
N	-0.0068442245	 1.418360932	 0.1500172719	-0.59649
C	-0.0248962663	 0.0288074779	 0.0506053385	 0.20172
C	-1.2066527558	-0.7198991731	 0.0354980285	-0.187157
C	-1.1709268366	-2.1112887417	-0.0046607158	-0.095927
C	 0.043758912	-2.7903614791	-0.030682249	-0.129784
C	 1.2339778596	-2.0622232273	-0.0202535871	-0.22319
C	 1.180304768	-0.6830432426	 0.0188673066	 0.243869
F	 2.3213571521	 0.0362608849	 0.0167633436	-0.100789
H	 0.859771956	 1.8374760963	-0.1542826108	 0.254525
H	-0.8124477105	 1.8802431039	-0.2453372516	 0.248826
H	-2.1582724741	-0.1974780865	 0.0603484421	 0.088181
H	-2.1033834045	-2.6653266592	-0.01549259	 0.093692
H	 0.0723811527	-3.8731852146	-0.0609339001	 0.096317
H	 2.2034763518	-2.5463683509	-0.0458786469	 0.106207
