20
gdb 82768	2.74949	1.94674	1.53798	2.0216	77.69	-0.205	0.0906	0.2956	944.2852	0.174137	-403.115866	-403.108987	-403.108043	-403.146712	28.9	
C	-0.0937337741	 1.4677825115	 0.0238247284	-0.330874
N	 0.0838854473	 0.0270896288	-0.0146829566	-0.052419
C	 0.9294509022	-0.4939754135	-1.1016680197	-0.053221
C	 2.3836926031	-0.1045431175	-0.6997217578	-0.270837
C	 2.1077092598	-1.0760639557	 0.4672784367	-0.074238
C	 1.2679683846	-1.9242601011	-0.522964265	 0.150408
O	 0.2529807598	-2.6162069943	 0.1605187487	-0.278363
C	 0.0480012262	-1.9026100495	 1.3949269436	-0.060761
C	 0.7896776564	-0.5866427646	 1.1511054275	-0.048655
H	 0.8319208826	 2.0566160859	 0.1476717716	 0.093672
H	-0.5734558958	 1.7927614341	-0.9056743223	 0.120046
H	-0.7642741771	 1.7269473531	 0.8498489694	 0.118613
H	 0.5192638796	-0.326017612	-2.0979346159	 0.067798
H	 3.1357780564	-0.5000693218	-1.387177252	 0.102037
H	 2.5988053323	 0.9421980586	-0.4813104327	 0.101403
H	 2.8846810926	-1.4975556233	 1.1043365969	 0.06875
H	 1.7917775456	-2.5892145696	-1.2087494234	 0.084734
H	-1.0230759075	-1.74623255	 1.5463129092	 0.109178
H	 0.4596279391	-2.4815797955	 2.2355253782	 0.083427
H	 0.8764184268	 0.0774904263	 2.0120285753	 0.069303
