21
gdb 82396	2.39146	1.68717	1.10649	1.7294	84.28	-0.2322	0.0293	0.2615	1156.2458	0.182966	-387.099003	-387.090367	-387.089423	-387.132036	33.649	
C	 0.6110591879	 1.5829071899	-0.1210660787	-0.393823
C	 0.1445655947	 0.1239223587	 0.0677502467	-0.120664
C	 0.4610754908	-0.6607962425	-1.1901994763	 0.053208
O	 1.8496880894	-0.8110482265	-1.5102383641	-0.264866
C	 1.1025130714	-1.9798503767	-1.1550868697	 0.045664
C	 1.4553172675	-2.6259149615	 0.161071595	-0.298906
C	 1.2554459628	-1.7267378739	 1.3475296879	-0.155459
C	 0.6885984137	-0.5181742738	 1.333710899	 0.333672
C	 0.5150149884	 0.2654120649	 2.6109832053	-0.480509
H	 1.700699077	 1.6222903129	-0.2052915881	 0.136709
H	 0.1863038686	 2.0012469009	-1.0395237235	 0.112167
H	 0.29959956	 2.2210616924	 0.7090528317	 0.114944
H	-0.9540985066	 0.1411577501	 0.1568735808	 0.081416
H	-0.1606882807	-0.4074737817	-2.0511463915	 0.082818
H	 0.933976575	-2.6632746208	-1.9884171524	 0.084585
H	 0.844522835	-3.533856077	 0.2777287485	 0.110045
H	 2.4956430445	-2.9795731442	 0.1225980759	 0.118067
H	 1.5993739276	-2.128042858	 2.2989512155	 0.076008
H	 0.7986965318	-0.3326698842	 3.4807714171	 0.118433
H	 1.1244786064	 1.1764473393	 2.6190365508	 0.129431
H	-0.5267105949	 0.5854358618	 2.7443827698	 0.117059
