24
gdb 119968	2.98863	0.77733	0.72631	0.6197	86.56	-0.2131	0.0751	0.2882	1710.6368	0.215281	-405.511572	-405.500358	-405.499414	-405.548642	40.041	
C	-0.2070417119	 1.5062598545	 1.5980003895	-0.380065
C	-0.0720020856	 0.4487050072	 0.494322132	-0.198775
C	-1.350627598	-0.3441806606	 0.2937038482	-0.008255
C	-1.3927508874	-1.6944036073	-0.3500662642	-0.031942
C	-0.1576198235	-2.4051240054	-0.8669039942	-0.201754
C	-0.3665861587	-3.9120458939	-0.9894292002	-0.071252
O	 0.8120257721	-4.4663425925	-1.553739211	-0.422644
N	-1.718941527	-1.5319261249	 1.0732089346	-0.103953
C	-0.8353511457	-2.0502734369	 2.1048860197	-0.317975
H	 0.7081091517	 2.0991023269	 1.6909799117	 0.111688
H	-1.0316821699	 2.1946372912	 1.3833357296	 0.117438
H	-0.4088737277	 1.0443794047	 2.5696732169	 0.121741
H	 0.1709092533	 0.9446604498	-0.4546888209	 0.101856
H	 0.7749203457	-0.2064722245	 0.7148362998	 0.099526
H	-2.2085746163	 0.3067824327	 0.1121908548	 0.079908
H	-2.2783409934	-1.9193736967	-0.9481025868	 0.08032
H	 0.0890763843	-2.0149062434	-1.8623815255	 0.109565
H	 0.7190629168	-2.2258520548	-0.2401961115	 0.106876
H	-0.5770392327	-4.3435629261	 0.0020238863	 0.09115
H	-1.2465134288	-4.1118591422	-1.6228164876	 0.086272
H	 0.6905132625	-5.4169947337	-1.6309262479	 0.285701
H	 0.2431331576	-1.9843690085	 1.9016875319	 0.102305
H	-1.0315964073	-1.5105880899	 3.0374020833	 0.122152
H	-1.0772661802	-3.1046918556	 2.2767709417	 0.120117
