14
gdb 19041	4.35781	2.23345	1.90607	4.6489	60.03	-0.2594	0.0083	0.2678	709.9905	0.109764	-382.551572	-382.546113	-382.545169	-382.581023	22.139	
O	-0.0134193737	 0.0045747659	-0.2294515431	-0.348583
C	 0.0053522828	 1.1803796877	-0.0114655808	 0.450254
O	-1.1355102565	 1.9208539326	 0.1750712134	-0.232737
C	-0.752528257	 3.255209833	 0.5345262879	 0.073467
C	-0.0903041361	 3.2403669763	 1.9442532673	-0.24926
C	 1.2550075691	 3.1142800671	 1.2326542152	-0.06957
C	 0.6484824533	 3.5186800966	-0.0899182843	-0.089561
C	 1.1711160726	 2.1192225092	 0.0606746831	-0.203034
H	-1.5887670737	 3.9211035642	 0.3392348533	 0.103054
H	-0.1819441381	 4.2123935379	 2.4356941841	 0.115371
H	-0.4173084585	 2.4454397085	 2.6207221779	 0.117041
H	 2.2298550652	 3.3599286858	 1.6345464414	 0.105734
H	 0.9447387315	 4.235090671	-0.8433426461	 0.107302
H	 2.1037970391	 1.8072154542	-0.3882438991	 0.120522
