21
gdb 96259	2.27131	1.48054	1.02152	0.7554	79.5	-0.2366	0.0056	0.2421	1210.1197	0.184029	-424.213547	-424.204969	-424.204025	-424.246343	33.874	
O	-0.1894663846	 1.4572383697	-0.2383530357	-0.435412
C	 0.0007185087	 0.0537826858	-0.0565815532	 0.111227
C	-1.4210566053	-0.5124679186	 0.0592769667	-0.187048
C	-1.541633814	-2.0490327435	 0.0005553324	-0.269769
C	-0.61318841	-2.7606559239	 0.9489184679	-0.035904
C	 0.6420103172	-3.1047049409	 0.657759083	-0.062618
C	 1.317196754	-2.8394430686	-0.6706669861	-0.125116
O	 1.8050080603	-1.5080772434	-0.8192619595	-0.241893
C	 0.865164245	-0.5236815717	-1.2087320019	-0.105324
H	 0.6623155082	 1.8899945748	-0.1223408226	 0.281635
H	 0.5548491201	-0.1425228714	 0.8717422287	 0.079649
H	-1.8530002445	-0.1345208193	 0.9927238021	 0.105049
H	-2.0149765908	-0.0787908442	-0.7541880389	 0.10855
H	-2.580176407	-2.3209336774	 0.2178393205	 0.102007
H	-1.3480319917	-2.3825067723	-1.024908546	 0.105333
H	-0.9913667276	-2.95242357	 1.9515162109	 0.089922
H	 1.2554538927	-3.5712213996	 1.4244807504	 0.089974
H	 2.2004436395	-3.4772356915	-0.7697762605	 0.106376
H	 0.6447009969	-3.0817863171	-1.5074920971	 0.097015
H	 0.2342475516	-0.8864048803	-2.0361003947	 0.08947
H	 1.4659353212	 0.3023024435	-1.6057917163	 0.096876
