17
gdb 109079	3.60872	1.23103	1.17165	1.7217	68.68	-0.2368	0.0094	0.2462	1096.8341	0.136911	-458.940563	-458.932979	-458.932035	-458.972946	28.932	
O	 0.0023343126	 1.409423983	-0.0797884233	-0.412325
C	-0.0181612544	-0.0022242531	 0.0247876555	-0.205899
C	-1.425636905	-0.469704147	 0.1150371112	 0.363022
C	-2.5735833995	 0.2117137435	 0.1055272236	-0.201733
C	-3.6575453826	-0.8521919302	 0.0267995381	-0.028528
C	-3.5508442969	-1.4740538869	-1.4038089046	-0.077847
O	-2.2913675234	-2.1551908036	-1.330935502	-0.274464
C	-1.8663205071	-1.9339189237	 0.0370253279	 0.045808
O	-3.0671759627	-1.942465392	 0.7666728859	-0.229461
H	 0.9200173947	 1.696139607	-0.0833311177	 0.291607
H	 0.4572633848	-0.4823355341	-0.8491392583	 0.110419
H	 0.543384975	-0.3485126129	 0.9107572531	 0.101256
H	-2.7161449531	 1.2778832619	 0.0123589652	 0.121946
H	-4.6575766108	-0.6210923758	 0.3869455468	 0.092819
H	-4.3502751207	-2.2007931888	-1.5823044742	 0.109353
H	-3.5398395358	-0.7243265661	-2.2007374181	 0.106009
H	-1.1871816553	-2.7300732413	 0.337908031	 0.088018
