23
gdb 81038	2.10145	1.73964	1.4772	1.6276	83.94	-0.2325	0.0785	0.3111	1083.7798	0.207025	-388.299822	-388.291092	-388.290148	-388.332502	34.927	
C	-0.1568838712	 1.6290301763	-0.0271980536	-0.439333
C	 0.0453818273	 0.1227553386	 0.0108836852	-0.002572
C	 1.0780229539	-0.6115039298	-0.8734020749	 0.075164
C	 2.3953538669	 0.1588568932	-1.0103496288	-0.226326
C	 3.0791833349	 0.2435266557	 0.3784417902	-0.18727
C	 2.0728746476	 0.1889843493	 1.5569967371	-0.262025
C	 0.8195272878	-0.6050061041	 1.1464489559	 0.404591
C	 0.0513415332	-1.1975470723	 2.3056025497	-0.475364
O	 1.2294651771	-1.6191119165	 0.1682792097	-0.334406
H	 0.7753820115	 2.1900260017	 0.0799652142	 0.121079
H	-0.6165722697	 1.9324809403	-0.9745589181	 0.117276
H	-0.8291044505	 1.9503948196	 0.7763402173	 0.117512
H	-0.9200663649	-0.3808246623	-0.1060648601	 0.074467
H	 0.7330780693	-1.0463096026	-1.8161276286	 0.067124
H	 3.0595058895	-0.3529468587	-1.7142547166	 0.09917
H	 2.1989586656	 1.150524243	-1.4344510597	 0.096693
H	 3.7415183598	-0.6198348299	 0.4724568016	 0.115021
H	 3.7137819505	 1.1321002732	 0.4491557987	 0.089436
H	 2.5492397649	-0.2893755162	 2.4197756458	 0.094871
H	 1.7748955703	 1.1909935548	 1.8864441434	 0.097286
H	-0.2746796616	-0.4101979323	 2.9944709359	 0.115441
H	-0.8301024788	-1.7391798367	 1.9509642172	 0.118467
H	 0.6817151067	-1.8958719844	 2.8664011585	 0.123699
