23
gdb 112118	2.70453	1.20301	0.98315	1.3984	87.22	-0.2432	0.0195	0.2627	1328.6806	0.206739	-388.312619	-388.303204	-388.302259	-388.346634	36.337	
C	 0.0601909704	 1.5702668027	 0.1412297462	-0.394769
C	 0.0224934918	 0.0452712038	 0.0039744021	-0.173994
C	-1.3998356941	-0.5441452394	-0.0866647471	-0.037176
C	-2.0970096952	-0.1987770166	-1.3864833742	-0.05798
C	-2.9373785854	-1.0185057361	-2.0218957766	-0.074462
C	-3.3188631901	-2.3857997302	-1.5163947523	-0.260295
C	-2.8154539159	-2.6374000157	-0.0847683254	-0.222998
C	-1.4012453809	-2.0745865685	 0.1113051757	 0.104714
O	-0.4626885064	-2.7222991985	-0.7460644377	-0.444549
H	 1.0908670775	 1.9284218186	 0.2269183114	 0.113916
H	-0.3881625912	 2.0753133939	-0.7206097886	 0.117164
H	-0.4817070764	 1.9011828116	 1.034548205	 0.112964
H	 0.6027033052	-0.268675898	-0.8704935113	 0.097715
H	 0.5225633663	-0.4050360293	 0.8702758325	 0.096562
H	-1.980240368	-0.1125152252	 0.7445375387	 0.079891
H	-1.8800822915	 0.7738493422	-1.8215330582	 0.085143
H	-3.3786867824	-0.7053844212	-2.9659184962	 0.084807
H	-4.4077031352	-2.5102535601	-1.5635656396	 0.107328
H	-2.9162374702	-3.1502206917	-2.1971618401	 0.111323
H	-3.4874614999	-2.1531019044	 0.6343323848	 0.096109
H	-2.8187484176	-3.7089156658	 0.1369722421	 0.099253
H	-1.0521074224	-2.3022529315	 1.1248093509	 0.076734
H	-0.6343956083	-2.4127021508	-1.6428148419	 0.2826
