13
gdb 24505	4.03965	1.81529	1.25247	3.6183	72.78	-0.2456	-0.0571	0.1885	897.0873	0.094869	-411.870658	-411.865009	-411.864065	-411.900561	22.703	
N	-0.0392107156	 1.3353523087	 0.0097801886	-0.368356
C	 1.2765164147	 1.7394914983	-0.00039009	 0.029722
N	 2.1421123357	 0.7593156667	-0.0140379534	-0.312623
C	 1.3623118499	-0.3814413841	-0.0130925732	 0.332575
C	-0.014817419	-0.0398557542	 0.0018222809	 0.395924
N	-1.0201481318	-0.8961653043	 0.006504099	-0.345343
C	-0.6001244185	-2.1681913404	-0.0046002836	-0.040118
C	 0.757029401	-2.5301420942	-0.0194407373	-0.038224
N	 1.7620652104	-1.6497221361	-0.0239836274	-0.313206
H	-0.8584957047	 1.9204616733	 0.0207994678	 0.279477
H	 1.5334096751	 2.789812147	 0.0030802249	 0.148158
H	-1.3676233056	-2.9363085352	-0.0016679311	 0.116578
H	 1.0286547284	-3.5821335254	-0.0279077854	 0.115436
