16
gdb 23221	2.87646	1.52605	1.20642	1.9437	68.18	-0.2434	-0.006	0.2374	1024.4423	0.124603	-474.941962	-474.934414	-474.93347	-474.973932	29.572	
O	-0.1018950861	 1.3160250313	-0.1547468029	-0.379718
N	 0.0186301229	-0.0759299963	-0.0518059573	-0.276451
C	-1.1127505088	-0.6431615761	-0.0037798368	 0.419482
C	-1.3416117833	-2.1314912606	 0.0880431741	-0.014479
C	-2.4003809756	-2.3509898446	-1.0231987798	-0.245737
C	-3.2106125967	-1.5300605312	-0.002266852	 0.024826
O	-2.4397306893	-2.1747153621	 1.0745038135	-0.314619
C	-2.5618105313	-0.1223063369	 0.0105796741	 0.078445
O	-2.9002234477	 0.6071683659	 1.1649819301	-0.433666
H	 0.818470775	 1.600961863	-0.1709025665	 0.308983
H	-0.5064091861	-2.7962317561	 0.2945560868	 0.104163
H	-2.2128902944	-1.9373930867	-2.017100538	 0.112773
H	-2.733099116	-3.3884788709	-1.070560194	 0.123408
H	-4.2905449282	-1.5910847298	 0.123428397	 0.096036
H	-2.8072456853	 0.5027435579	-0.8511023148	 0.109076
H	-2.7141153891	 0.0212522333	 1.9109919967	 0.28748
