23
gdb 109604	2.32086	1.06026	0.95003	1.0527	93.89	-0.2316	0.0585	0.2901	1433.3126	0.202485	-351.121845	-351.110766	-351.109822	-351.157663	40.868	
C	-0.5125389909	 0.5365788025	-2.6561495637	-0.375948
C	-0.231514517	-0.462986771	-1.5261448839	-0.206362
C	-1.496738916	-0.8633204642	-0.7928312473	-0.040336
C	-2.3693676345	-2.0289781807	-1.1920372381	-0.045896
C	-2.0740099893	-2.9431696675	-2.3618766747	-0.419327
C	-1.5793829499	-2.0911668403	 0.1217130022	 0.082971
C	-0.3922073237	-3.0330654955	 0.2834664774	-0.459153
C	-2.3461825287	-1.9308112738	 1.3308476134	 0.27865
C	-2.977322706	-1.8057594805	 2.3484018726	-0.460695
H	 0.4126177751	 0.8333682487	-3.1599596475	 0.111309
H	-1.1830213556	 0.1066629891	-3.407392977	 0.119366
H	-0.9885399968	 1.4443816768	-2.2698685906	 0.11714
H	 0.2784126431	-1.3382872409	-1.9393636206	 0.09568
H	 0.4699135027	-0.0148113286	-0.8105677014	 0.102613
H	-2.0442654794	-0.0057099327	-0.408902237	 0.090139
H	-3.4329701143	-1.8643438069	-1.0439612235	 0.093503
H	-1.0057056015	-3.0913140829	-2.5333161369	 0.117993
H	-2.5224533018	-3.9305208697	-2.2070567207	 0.123056
H	-2.4980179375	-2.5301497463	-3.2840221035	 0.120997
H	 0.1780510024	-3.149799289	-0.6393040891	 0.11398
H	 0.2888658157	-2.6582050036	 1.0538130137	 0.127217
H	-0.7332083026	-4.0247975748	 0.5964721278	 0.126255
H	-3.5369356535	-1.6928573181	 3.2432406784	 0.186847
