19
gdb 119030	3.56161	0.84485	0.74793	1.1155	77.21	-0.2574	0.0472	0.3046	1524.7011	0.155873	-422.962223	-422.952084	-422.95114	-422.998159	36.326	
O	-0.5484836617	 1.48874874	-0.6684661252	-0.421161
C	-0.4437697508	 0.081844871	-0.8261559938	-0.073848
C	-1.5527337202	-0.5471517914	 0.0152571226	-0.249427
C	-1.6279300501	-2.0583747646	-0.1107205868	 0.389507
C	-0.453428571	-2.824869539	 0.5087129069	-0.441077
C	-0.5547492059	-4.2763398732	 0.4409679084	 0.30877
C	-0.6259489812	-5.4750890131	 0.4001504054	-0.435515
C	-2.9359072867	-2.7075655748	-0.2738242438	-0.227329
O	-2.0570860635	-2.5285963039	-1.3918018991	-0.268647
H	 0.1080730915	 1.9041123229	-1.2349986838	 0.287229
H	-0.5755279606	-0.2208143526	-1.8753406081	 0.109317
H	 0.5454718143	-0.2758421225	-0.4989346337	 0.084434
H	-1.4119820818	-0.2635428574	 1.0651473357	 0.107114
H	-2.502779575	-0.1134473372	-0.3106067186	 0.114478
H	 0.4719784175	-2.507807503	 0.0112657411	 0.141773
H	-0.3547219771	-2.5120142458	 1.556789814	 0.137954
H	-0.685858564	-6.5342842095	 0.3555541731	 0.197711
H	-3.0671851423	-3.7388776923	 0.0446111716	 0.128442
H	-3.8359653214	-2.0945153537	-0.2854978857	 0.110275
