19
gdb 85557	2.84094	1.34806	1.01618	3.5168	79.48	-0.2057	0.0172	0.223	1202.9415	0.160532	-419.275982	-419.266974	-419.26603	-419.309743	33.938	
C	 0.1745633192	 1.5989506241	-0.0984721676	-0.38394
C	-0.0160518023	 0.0768662556	 0.061593852	-0.062863
N	 0.4032738377	-0.6497638478	-1.1398003852	-0.354973
C	 1.6254368729	-1.2369283602	-1.3492736631	 0.447039
O	 2.022442143	-1.6087735572	-2.4381201658	-0.412063
N	 2.367699667	-1.4088525937	-0.1893107605	-0.371273
C	 1.8492464404	-1.1541955368	 1.0781373171	-0.070053
C	 0.7167772848	-0.472059199	 1.2680883451	 0.256552
C	 0.1445701889	-0.2101048457	 2.6299883187	-0.483145
H	 1.2344025432	 1.840414796	-0.2220165228	 0.129813
H	-0.3684339699	 1.9643237228	-0.977015408	 0.111274
H	-0.2054041112	 2.1363295716	 0.7758931149	 0.118841
H	-1.091879041	-0.1123789578	 0.1927497398	 0.088055
H	-0.0829591869	-0.4498253979	-2.0004714817	 0.248696
H	 3.1947531076	-1.969854634	-0.3032946128	 0.258877
H	 2.433184341	-1.5505730543	 1.9014672392	 0.109091
H	 0.7702685907	-0.6485387695	 3.4124206932	 0.121958
H	 0.0542742238	 0.8630010365	 2.842067151	 0.124637
H	-0.8636315086	-0.6342330927	 2.7304557766	 0.123479
