19
gdb 109073	3.54103	1.23232	1.18636	1.7656	76.04	-0.2375	0.0067	0.2443	1146.1934	0.160541	-423.021837	-423.014031	-423.013087	-423.054573	30.186	
C	 0.1713563665	 1.5204522444	-0.190858295	-0.375188
C	-0.0818906358	 0.0354282895	 0.124544712	-0.312305
C	 0.6166217541	-0.4349246377	 1.3574793265	 0.38223
C	 0.1495363417	-0.9670099264	 2.4916756665	-0.235623
C	 1.380843485	-1.3989250612	 3.2721321826	-0.024149
C	 1.9865731998	-2.6070218612	 2.4862028754	-0.076783
O	 2.4384960472	-1.9729720929	 1.2841298836	-0.276757
C	 2.137754877	-0.5707482411	 1.5067647589	 0.063293
O	 2.3473231733	-0.3994571072	 2.8861707015	-0.229718
H	 1.2377635412	 1.7248097667	-0.3302283427	 0.121254
H	-0.3459083639	 1.8137584587	-1.1092509843	 0.11646
H	-0.1860677674	 2.1591785253	 0.6222974431	 0.125923
H	-1.1582180335	-0.143170942	 0.2241639326	 0.106062
H	 0.2571698406	-0.5734345377	-0.7251814875	 0.118995
H	-0.8736013425	-1.199418077	 2.7553608119	 0.103568
H	 1.3186152932	-1.4989328741	 4.3535559715	 0.091711
H	 2.8410879507	-3.0386764519	 3.0180553859	 0.109062
H	 1.2524905921	-3.3870305793	 2.2611563083	 0.102477
H	 2.8060850508	 0.040026345	 0.9029870193	 0.089487
