13
gdb 48146	4.14305	0.85791	0.71074	5.3149	71.28	-0.2663	-0.0958	0.1706	1451.4119	0.08651	-452.732672	-452.723657	-452.722713	-452.767605	30.934	
N	 0.2030323986	 1.4573037738	 0.0055318882	-0.438415
C	 0.024407642	 0.2010564299	 0.0017611451	 0.297394
N	-1.2160891095	-0.430620343	 0.0101870671	-0.390356
C	-2.4855678461	 0.1499686782	 0.0265415819	 0.313696
O	-2.709003922	 1.3330714406	 0.0362579146	-0.287015
C	-3.5341780527	-0.8629237735	 0.0305361038	 0.189641
C	-4.4211236338	-1.6747434704	 0.034222372	-0.384031
C	 1.1796628473	-0.787389098	-0.0130227477	 0.102346
O	 2.3244945842	-0.4269887623	-0.0217187961	-0.223233
H	 1.2143076831	 1.6230938253	-0.0027474878	 0.248189
H	-1.2083940775	-1.4404137394	 0.0042194576	 0.262358
H	-5.2182718287	-2.3784310639	 0.0377884193	 0.219923
H	 0.9091349251	-1.8680122972	-0.014707298	 0.089502
