26
gdb 5889	3.81752	0.84754	0.83576	0.0303	89.15	-0.296	0.0764	0.3724	1595.5845	0.244064	-315.494427	-315.48342	-315.482476	-315.530094	40.802	
C	 0.1686360437	 1.5743500904	 0.00869481	-0.380949
C	 0.0547976098	 0.0475638673	 0.0016984311	-0.157953
C	-1.3964059437	-0.44957648	 0.0130275975	-0.18249
C	-1.4951343024	-1.9804655739	 0.0058865469	-0.179405
C	-2.9152147049	-2.6018747332	 0.0159771374	 0.263218
C	-3.7110559916	-2.1780017754	-1.2324052588	-0.399274
C	-2.7601354417	-4.1346547796	 0.0060331206	-0.400419
C	-3.6871571732	-2.1918974016	 1.2838565379	-0.39928
H	 1.2140248383	 1.8989310774	 0.0003601251	 0.109467
H	-0.3225632869	 2.0118736657	-0.8677455208	 0.112278
H	-0.3055698144	 2.0025084234	 0.8990095102	 0.112277
H	 0.5680261525	-0.3546966169	-0.8819501919	 0.09274
H	 0.5848908592	-0.3639898691	 0.8709951676	 0.092739
H	-1.9027097305	-0.0421505489	 0.8973980811	 0.093566
H	-1.9195838501	-0.0328739512	-0.8570878689	 0.093571
H	-0.9625767502	-2.3602584934	-0.8776128138	 0.084484
H	-0.9460286339	-2.369531506	 0.8751059295	 0.084485
H	-3.174334771	-2.4405448877	-2.151247904	 0.105404
H	-4.6833995466	-2.6822404974	-1.2609430206	 0.105947
H	-3.9011784769	-1.1005011808	-1.25165796	 0.110961
H	-2.2042552562	-4.4825347912	 0.883928517	 0.105819
H	-3.7376690744	-4.6296073988	 0.0125183761	 0.104677
H	-2.2209562437	-4.4727491581	-0.8859896611	 0.10582
H	-3.8768394294	-1.1147100799	 1.3185607696	 0.110958
H	-4.6587990193	-2.696589843	 1.3253318317	 0.105953
H	-3.1330705624	-2.464434988	 2.1893854205	 0.105406
