16
gdb 73189	2.47019	1.44814	1.32342	2.8641	68.67	-0.2642	0.0143	0.2785	1027.5177	0.123808	-437.857882	-437.84977	-437.848826	-437.890891	30.098	
O	 0.3191275785	 1.3103166485	-0.058291263	-0.468713
C	 0.0263049823	-0.0435103905	-0.0148997636	 0.333652
C	 0.1273489303	-0.8811131507	-1.3085191161	-0.145459
O	-1.2450832095	-1.3248436772	-1.1719942825	-0.281503
C	-1.4297586877	-0.5739289412	 0.0396390094	 0.074567
C	-1.1067929986	-1.4055175697	 1.3054219246	-0.257526
C	 0.3506262663	-0.8160764777	 1.3179144773	-0.218857
C	 1.4754549517	-1.7320273082	 1.3198599161	 0.264895
N	 2.3736842079	-2.4602797395	 1.2804304821	-0.332416
H	 1.2522704939	 1.4252678667	-0.2742864476	 0.293811
H	 0.2616480953	-0.2598425985	-2.2019746223	 0.112521
H	 0.8415650776	-1.7117356042	-1.3167396149	 0.12991
H	-2.3230435559	 0.0527449576	 0.0282057719	 0.097435
H	-1.6772046222	-1.1431532452	 2.1976724388	 0.124146
H	-1.1679142331	-2.4796572395	 1.1304783129	 0.139057
H	 0.4719297633	-0.0853543809	 2.1212343369	 0.134481
