13
gdb 26058	3.39511	1.1489	1.05474	2.3676	64.22	-0.2702	-0.0345	0.2357	1120.5469	0.090037	-452.770344	-452.762591	-452.761647	-452.80359	27.248	
O	-0.233572223	 1.3538237197	 0.0727024684	-0.394542
C	 0.0063124226	-0.0391169554	-0.0076390769	-0.144224
C	 0.7916826855	-0.3724589747	-1.2199590831	 0.26412
N	 1.4115010834	-0.6126436066	-2.1645813544	-0.313413
C	 0.6483265115	-0.6028986132	 1.2171590313	 0.353799
C	 0.2713589393	-1.4702985007	 2.1865730296	-0.190181
N	 1.2917609573	-1.5851540573	 3.1214777144	-0.250747
C	 2.2132576679	-0.7945790306	 2.6810150541	 0.085464
O	 1.9077519358	-0.157059519	 1.5266006724	-0.185077
H	 0.6155266983	 1.7961949289	 0.192843456	 0.304248
H	-0.9783763575	-0.5067402855	-0.1082887775	 0.162822
H	-0.6520802021	-2.0194454161	 2.2800433208	 0.142819
H	 3.1796415709	-0.5817881496	 3.110144405	 0.164913
