17
gdb 47736	2.57361	1.66663	1.13516	3.6098	68.52	-0.2419	-0.0366	0.2053	1058.4245	0.13602	-458.95458	-458.946811	-458.945867	-458.987177	29.449	
O	 0.0243091046	 0.0463061255	 0.3712260219	-0.29972
C	 0.0081537567	 1.2135508255	 0.067144052	 0.305543
C	-1.305887117	 1.9564046819	-0.1924757612	-0.189879
O	-1.1975510817	 3.0530062868	-1.0742890594	-0.239053
C	-0.1935137938	 3.9722877109	-0.6789476744	-0.089748
C	 1.1897701929	 3.3317587968	-0.8098391419	-0.30119
C	 1.264170892	 2.0640430736	 0.0194636975	 0.315574
C	 2.1526117546	 1.9528138259	 1.2023690052	-0.211547
O	 2.4883712493	 1.3389407719	-0.0307213568	-0.257041
H	-2.0259776087	 1.2535240071	-0.6169546065	 0.145297
H	-1.6912818839	 2.2790771	 0.7931239103	 0.115695
H	-0.2872681078	 4.8366010897	-1.3410943208	 0.120215
H	-0.3706724385	 4.3145833497	 0.3548549502	 0.092086
H	 1.3535796406	 3.0724569006	-1.862145901	 0.130801
H	 1.9792288499	 4.0312321826	-0.5156350536	 0.108672
H	 2.7535127698	 2.8166976727	 1.4853849032	 0.119034
H	 1.884482261	 1.2661383887	 2.0031407254	 0.135262
