20
gdb 60155	4.23806	0.7345	0.72766	4.4314	76.81	-0.245	0.0366	0.2815	1624.7514	0.169644	-440.312098	-440.302381	-440.301437	-440.347387	35.71	
C	-0.009001122	 1.5975897351	 0.073211099	-0.403979
C	-0.0457873679	 0.0760504921	-0.06011873	 0.133335
O	 0.8900381672	-0.5473436943	 0.8191885175	-0.429216
C	-1.4590985314	-0.4934429861	 0.1305084306	-0.215187
C	-1.5225353673	-2.0094242683	-0.0099146581	 0.070342
C	-2.9343373556	-2.6619893367	-0.097007273	-0.416131
C	-2.4831520187	-3.1930730466	-1.4800529474	 0.429975
O	-2.9412930159	-3.9130183838	-2.3251347648	-0.357426
N	-1.2850165254	-2.5234901275	-1.3724233136	-0.330043
H	 1.0122148181	 1.9657010542	-0.0563696921	 0.127404
H	-0.6500512561	 2.0771583679	-0.6732665064	 0.121856
H	-0.3634446922	 1.9085249562	 1.0642697257	 0.107993
H	 0.3050749049	-0.1987825035	-1.0631063991	 0.089026
H	 0.6935052397	-0.2494069368	 1.7146323405	 0.277802
H	-1.825363719	-0.2164793906	 1.1299932127	 0.090199
H	-2.1365916281	-0.0316182634	-0.5985044109	 0.101467
H	-0.870063354	-2.4798412511	 0.7317973709	 0.094154
H	-3.1398030614	-3.4482024631	 0.6313939038	 0.131389
H	-3.772164561	-1.9624350952	-0.1296454957	 0.126334
H	-0.4306977238	-2.6368320886	-1.8988511595	 0.250707
