22
gdb 60964	3.24551	0.92618	0.79175	2.8776	84.1	-0.2247	-0.0224	0.2024	1513.9427	0.191942	-404.337042	-404.326934	-404.32599	-404.372724	36.485	
C	-1.4444738506	-0.4333138901	-0.1393385012	-0.410275
C	 0.0269606833	 0.0053403593	-0.0681301511	-0.03526
C	 0.0560671709	 1.5271187668	 0.0043674046	 0.16299
O	 0.2688902561	 2.2563779447	-0.9282628516	-0.249149
N	 0.663942844	-0.5294669497	 1.1170581965	-0.077766
C	 2.1287491776	-0.385866689	 1.2684379039	-0.183764
C	 2.1681283965	-1.7869350216	 1.9334474653	 0.008166
C	 2.1822640819	-1.7714947544	 3.4570896873	-0.392778
C	 0.7653665314	-1.9936098456	 1.2994347033	-0.177764
H	-1.9955854628	-0.0815899791	 0.7385978673	 0.128626
H	-1.9177419077	-0.034269726	-1.0401412852	 0.134381
H	-1.5152579477	-1.5243849574	-0.1700559455	 0.128827
H	 0.5408917235	-0.2921764262	-1.0013713911	 0.068855
H	-0.1708128647	 1.9203364252	 1.0223717375	 0.08057
H	 2.662548552	-0.3610403793	 0.3047538712	 0.091561
H	 2.4481719835	 0.4721657115	 1.8711013414	 0.101935
H	 2.9433318204	-2.4524124336	 1.5481988585	 0.075954
H	 1.4064265585	-1.1034126772	 3.8449700852	 0.128049
H	 2.0014610823	-2.7726459453	 3.8630484872	 0.114575
H	 3.1488969161	-1.4258305059	 3.8389857423	 0.115715
H	-0.0147715877	-2.4368413211	 1.9284697633	 0.100421
H	 0.8160057131	-2.5496682659	 0.3493143908	 0.08613
