19
gdb 66427	2.74484	1.55516	1.24307	1.4135	79.79	-0.2127	0.0782	0.2909	1082.4272	0.156637	-385.78694	-385.778349	-385.777405	-385.819365	33.893	
C	 0.0107247378	 1.4403215585	 0.060077437	-0.524175
C	 0.0084457261	-0.0505243161	-0.04864013	 0.311379
C	 0.8580641413	-1.0173397356	-0.9322666065	-0.261546
C	-0.2938919409	-2.0353129162	-0.9136742177	-0.210381
C	 0.7723623957	-2.0846050679	 0.1515426451	 0.400653
O	 1.5928094137	-3.1413854419	 0.4463166509	-0.452888
C	-0.0671398072	-1.1107521721	 1.0512407848	-0.312509
C	-1.1402170207	-1.0585938955	-0.0376298841	 0.316052
C	-2.6180391179	-0.8700026456	 0.0800431224	-0.525669
H	 0.989422665	 1.8174835665	 0.3806984661	 0.118749
H	-0.2314417088	 1.9152314023	-0.8982368598	 0.119783
H	-0.7284927787	 1.7788857931	 0.7944016497	 0.119896
H	 1.5996223307	-0.851003989	-1.7032339578	 0.08442
H	-0.5593914993	-2.7721656763	-1.6601623082	 0.088196
H	 2.437639123	-2.7936965033	 0.7555598987	 0.286509
H	-0.1739102933	-0.9834946133	 2.1219192843	 0.079999
H	-2.8543667634	-0.085416948	 0.8073353433	 0.118869
H	-3.0652321074	-0.5804090343	-0.8785099475	 0.119327
H	-3.1126207456	-1.7895983254	 0.4147780194	 0.123335
