19
gdb 63106	2.21153	1.68484	1.20307	1.8761	83.91	-0.2266	0.0164	0.243	1108.5096	0.156512	-385.818997	-385.809856	-385.808912	-385.85215	35.18	
C	 0.0077737366	 1.5373684241	-0.0200391511	-0.465544
C	 0.0166754546	 0.0224816185	-0.0544621509	 0.249013
C	-1.2276228638	-0.6312181871	 0.5197762912	-0.464578
C	 0.6406220117	-0.763608264	-1.1942450396	-0.226974
C	 1.9243625687	-0.1075134857	-1.6766277989	-0.11671
O	 2.4387795113	-0.0050683011	-0.3218362164	-0.323436
C	 1.3099034387	-0.738541386	 0.1859576846	 0.25151
C	 1.5317347775	-1.7255293583	 1.1831410512	 0.258794
C	 1.7193706674	-2.5466665045	 2.0428708406	-0.42765
H	 0.9866107172	 1.9522038428	-0.2657624491	 0.139807
H	-0.7321730749	 1.9387573531	-0.7217261845	 0.11397
H	-0.2590663267	 1.8901755463	 0.9820500661	 0.120335
H	-2.1148671439	-0.3233033402	-0.0448037938	 0.118376
H	-1.1674810962	-1.7224910628	 0.4874844525	 0.126164
H	-1.3731978684	-0.3372552933	 1.5644634796	 0.125585
H	 0.1267124715	-1.5807960971	-1.6835385685	 0.105737
H	 2.5558853593	-0.7748478758	-2.2733128135	 0.116246
H	 1.8488006387	 0.8687033283	-2.1685281972	 0.107029
H	 1.8900862008	-3.2738170473	 2.7977532677	 0.192325
