18
gdb 62098	3.61382	0.69841	0.62723	3.6642	70.44	-0.2493	-0.022	0.2272	1716.5443	0.144937	-476.26639	-476.256132	-476.255187	-476.303124	35.628	
N	 0.1311574547	 1.2471135375	-0.1503772399	-0.517898
C	 0.084970473	-0.0982851431	-0.0044957966	 0.385182
O	 1.0762239156	-0.7914896064	 0.156886706	-0.373907
C	-1.3073897753	-0.7523584233	-0.0185022466	 0.030209
O	-1.1378830595	-2.1399833433	-0.1178992376	-0.431665
C	-2.0968484066	-0.3816494589	 1.2546340398	-0.210193
C	-3.4606463782	-1.0886293272	 1.2967093265	-0.270254
C	-4.1477702574	-0.8999791752	 2.6273559441	 0.154235
O	-5.2401371716	-0.4174684309	 2.7818066873	-0.239141
H	 1.0298489043	 1.7014667508	-0.1680860901	 0.271837
H	-0.6870251532	 1.7875594434	-0.3707066259	 0.269163
H	-1.8629227713	-0.3919793486	-0.8989541318	 0.086501
H	-0.185922634	-2.2803897034	 0.0316236913	 0.295553
H	-1.4966485313	-0.6761904315	 2.1248056818	 0.115918
H	-2.2328698819	 0.7051933232	 1.3095468536	 0.099664
H	-4.1250257857	-0.7333308465	 0.5031602328	 0.115642
H	-3.2837859032	-2.1620607712	 1.1498347294	 0.147567
H	-3.5480288085	-1.2478586054	 3.5022054463	 0.071588
