15
gdb 23536	2.02364	1.79787	1.06745	2.2615	75.77	-0.236	0.0001	0.2361	1097.3678	0.110935	-416.66844	-416.660216	-416.659272	-416.701314	31.125	
O	-0.0653493721	 1.2807258896	 0.0273620328	-0.384597
N	 0.0627617827	-0.1109129147	-0.0918154419	-0.263032
C	-1.0525967781	-0.6895212009	 0.0391580985	 0.481124
C	-1.4299026989	-2.1203379844	-0.1155284682	-0.171613
N	-2.2472193481	-2.4594212317	 1.095855233	-0.31722
C	-2.8797145062	-1.7497366174	-0.0217533186	-0.053704
C	-2.53427289	-0.2447563812	 0.1467081512	-0.300679
C	-3.0136683617	 0.4521114429	 1.3223951174	 0.363033
C	-3.4355373233	 1.0306589209	 2.2870320094	-0.454242
H	 0.8436658197	 1.5797288982	-0.0832562499	 0.310171
H	-0.9291470662	-2.8880988793	-0.688961008	 0.115659
H	-2.4936223737	-3.4458701156	 1.0067050018	 0.237811
H	-3.7300043658	-2.1521617865	-0.556048781	 0.111633
H	-2.783238584	 0.3144853524	-0.7633787849	 0.129962
H	-3.7945521143	 1.5367355578	 3.1484996282	 0.195696
