15
gdb 123558	4.00329	1.65377	1.27858	5.7282	70.13	-0.226	-0.0053	0.2208	933.0258	0.116784	-412.947699	-412.941552	-412.940608	-412.978107	24.785	
C	 0.0258526401	 1.4590245724	 0.010028075	-0.244563
C	 1.2742666389	 0.6573611392	 0.0363234454	-0.015533
C	 1.9902128636	 0.3786007819	 1.3859751563	-0.386396
C	 0.8957861604	-0.3671522037	 2.0825202294	 0.324607
C	-0.190902082	-0.5552558427	 1.2740826923	 0.331731
N	-1.1599656346	-1.2313944519	 1.9257655172	-0.290087
N	-0.7177057497	-1.4818879268	 3.1344794983	-0.124694
N	 0.5348832749	-0.953795351	 3.2400859536	-0.325154
N	-0.0640526485	-0.0214422855	-0.0370147166	-0.175606
H	-0.2990760906	 1.9455050361	 0.9262543811	 0.125677
H	-0.2665268991	 1.959937484	-0.9078250815	 0.128215
H	 1.8744141916	 0.593510754	-0.8648127052	 0.108196
H	 2.8887436415	-0.2289670709	 1.2270410551	 0.132126
H	 2.3047926688	 1.2980564117	 1.8923510973	 0.131629
H	 1.0339479148	-1.0731095868	 4.1066774122	 0.279849
