16
gdb 4919	6.68392	1.21765	1.03923	0.8689	67.97	-0.1616	0.071	0.2326	1096.6561	0.130996	-379.939887	-379.931549	-379.930605	-379.972288	30.745	
C	-0.0045294427	 1.4094959404	 0.1033727788	-0.316949
N	 0.0255579523	-0.0142561696	-0.1723838124	-0.381381
C	-1.1882775596	-0.7054567706	-0.0706460944	 0.326971
C	-2.4535252895	-0.1708364096	 0.011689563	-0.188605
N	-3.3517434864	-1.2401270947	 0.0219762453	-0.309597
C	-2.6610946525	-2.4061934427	-0.0360647792	 0.411792
O	-3.3722236985	-3.5635413569	-0.0244011712	-0.438016
C	-1.3148098933	-2.13561013	-0.0975664892	-0.420809
H	 1.0111578143	 1.8102925981	 0.0560992567	 0.114541
H	-0.6001571665	 1.9180208907	-0.6634787879	 0.126846
H	-0.4396931424	 1.662458051	 1.085494232	 0.10146
H	 0.7702176813	-0.4852105796	 0.3229208379	 0.226091
H	-2.8024436282	 0.8452817725	 0.0527399472	 0.104621
H	-4.3520589978	-1.1770725496	 0.0754910515	 0.260503
H	-2.753778787	-4.2959171231	-0.0997020472	 0.305487
H	-0.5140781434	-2.8557079864	-0.1698368107	 0.077046
