23
gdb 104668	2.07404	1.25824	1.16912	1.4569	82.77	-0.2325	0.0684	0.3009	1277.1976	0.202522	-425.399261	-425.387992	-425.387048	-425.435237	40.438	
C	 1.7623589949	 0.6213991106	 1.2426059935	-0.239261
O	 0.9802325719	-0.3476724789	 0.5566170301	-0.295066
C	 1.3147753698	-0.5671465417	-0.784550881	 0.41325
C	 1.0642349717	 0.5918499787	-1.7202355373	-0.154426
O	 2.1099490862	 1.5530718073	-1.5891716124	-0.42047
C	 2.4460011037	-1.5317893287	-1.0997728727	-0.065126
C	 3.3251615914	-2.124858342	-0.0199242962	-0.419581
C	 0.9971385089	-1.9612150759	-1.2777459508	-0.098976
C	 0.330630973	-2.9787297481	-0.3765342265	-0.407149
H	 2.8354162091	 0.411104111	 1.1585652432	 0.112543
H	 1.5842329612	 1.6330004251	 0.8641319413	 0.11918
H	 1.4651267772	 0.5665659368	 2.2933798464	 0.113285
H	 1.0152415843	 0.2135569669	-2.7523662094	 0.085439
H	 0.0860251262	 1.0341515063	-1.4763819132	 0.093628
H	 1.8787537005	 2.3179737671	-2.1249635392	 0.285847
H	 2.9763494658	-1.3145585636	-2.023768026	 0.082106
H	 2.8079451039	-2.1784195283	 0.9401170045	 0.1296
H	 3.6426931098	-3.1391201024	-0.2873252208	 0.112317
H	 4.2296948541	-1.523669258	 0.1197266871	 0.118014
H	 0.6602658449	-2.0120166674	-2.3107535184	 0.075971
H	 0.5558424655	-2.7957386373	 0.6746311986	 0.134003
H	-0.7579171138	-2.9342431226	-0.4890434791	 0.114357
H	 0.6491125399	-3.9959206749	-0.6300478816	 0.110515
