13
gdb 129222	3.49702	1.46315	1.03819	0.6806	76.06	-0.2651	-0.1022	0.1629	1050.331	0.091218	-445.051471	-445.044174	-445.04323	-445.085106	26.356	
N	-0.1484578232	 1.0149350213	 1.0509443607	-0.488906
C	 0.021085445	 0.1278635224	 0.155010612	 0.448243
N	-1.1777492104	-0.5168666243	-0.2543247591	-0.232548
N	-1.585447736	-1.2938999616	-1.2653909526	-0.043245
N	-0.8601217386	-1.7829831027	-2.1638816832	-0.278266
C	 0.5473680836	-1.633210878	-2.2872552989	 0.339172
N	 1.1229536202	-2.1589484033	-3.300834496	-0.429431
C	 1.4812758685	-0.9544626851	-1.3483032501	 0.031531
N	 1.2796288078	-0.2140822858	-0.3330481735	-0.289274
H	 0.7612691484	 1.3829814011	 1.3266415311	 0.249409
H	-1.9682797447	-0.2012282074	 0.2929930351	 0.288832
H	 0.4084057725	-2.5990031974	-3.8898920105	 0.247412
H	 2.5184974868	-1.1320509291	-1.6334094851	 0.157071
