19
gdb 47521	2.54547	1.74082	1.28112	1.9487	74.65	-0.2362	-0.0143	0.2219	1019.6	0.16143	-423.0321	-423.024728	-423.023784	-423.063808	29.708	
O	-0.0025776607	-0.0392844633	-0.2916808108	-0.318898
C	 0.012112378	 1.1435669917	-0.033897975	 0.391674
C	-1.2908067907	 1.9319340287	 0.1102215893	-0.320488
C	-1.3227487202	 3.3134149383	-0.564643961	-0.08681
O	-0.4902068352	 4.304476361	 0.0107627221	-0.263899
C	 0.8937779614	 4.0337664737	 0.136201369	 0.134322
C	 1.5063514973	 3.0387596159	-0.8881774354	-0.273088
C	 1.3178112652	 1.8905344211	 0.1622916217	-0.104941
C	 1.2491685512	 3.0078001603	 1.2499202491	-0.257636
H	-2.0879950176	 1.3077879684	-0.3032259256	 0.124929
H	-1.4991915174	 2.0581282295	 1.1807646759	 0.130587
H	-1.1127433158	 3.2013102771	-1.6383308848	 0.102087
H	-2.334113153	 3.7214554754	-0.4801796286	 0.117712
H	 1.3656666956	 5.0159767594	 0.2113612051	 0.086086
H	 1.0457819519	 2.9375768304	-1.8724204166	 0.115801
H	 2.5696411133	 3.2472885167	-1.0274423796	 0.115762
H	 2.1197445946	 1.1551485612	 0.2318402266	 0.088238
H	 2.240532356	 3.2037701923	 1.666386912	 0.109812
H	 0.5352056361	 2.8989933321	 2.0688118666	 0.108752
