20
gdb 37447	2.46186	1.91724	1.90295	1.63	76.05	-0.2357	0.0716	0.3073	896.9609	0.176081	-403.134148	-403.127541	-403.126596	-403.164667	28.321	
C	-0.0456845857	 1.5616161708	 0.0356763121	-0.202781
C	 1.4051277772	 2.1250980894	 0.022101005	-0.208025
C	 2.3850793444	 0.9489132532	-0.0662261158	 0.099721
O	 2.2055316923	 0.0914408729	 1.0757863316	-0.284542
C	 0.8856489771	-0.4608079683	 1.1541273783	-0.053989
C	 0.0171742372	 0.023645176	-0.0252651189	-0.059456
C	 0.7496433283	-0.4319564434	-1.2854783914	-0.023718
N	 1.1186138267	 0.6080692814	-2.2659379828	-0.345978
C	 2.1315893796	 0.1056165079	-1.3123049964	-0.044302
H	-0.570293572	 1.8570709624	 0.9501673906	 0.088199
H	-0.6143104481	 1.9438979872	-0.813435163	 0.112621
H	 1.5550577731	 2.7982313435	-0.8247897029	 0.111627
H	 1.6240966344	 2.6780304793	 0.939973578	 0.095144
H	 3.4223391974	 1.285723744	 0.0005887305	 0.069797
H	 0.965609374	-1.5572842991	 1.1577533099	 0.088772
H	 0.4342567208	-0.1560996429	 2.1088880176	 0.092218
H	-0.9828496313	-0.4143626615	 0.0488580007	 0.062809
H	 0.5557658226	-1.4383745829	-1.6458699754	 0.084199
H	 1.2714733741	 0.1732396817	-3.1721248102	 0.231247
H	 2.9493742077	-0.5017475216	-1.6874660176	 0.086439
