18
gdb 35099	2.29264	1.74451	1.11637	1.0929	82.46	-0.2401	0.0141	0.2542	1099.4073	0.147825	-364.758296	-364.750146	-364.749202	-364.791444	31.757	
C	-0.0949758561	-1.2728331069	-0.0844508778	-0.463667
C	-0.0316462816	-0.0732761849	-0.0243165579	 0.326534
C	 0.0266070954	 1.3830144431	 0.0307817702	-0.304333
C	-0.6107639226	 1.9982983077	 1.2676385338	-0.065298
C	 0.1237124629	 2.9881152897	 1.7681030762	-0.081035
C	 1.3930292906	 3.2181070978	 0.9894912243	-0.319531
C	 1.451432328	 2.0015405016	 0.0574009718	 0.333054
C	 2.6674942251	 1.1649595107	-0.0669789363	-0.282076
N	 2.2691573914	 2.0847445246	-1.1535697709	-0.366677
H	-0.1533655683	-2.3323274129	-0.1272682986	 0.197959
H	-0.4989468244	 1.7664106384	-0.8605621426	 0.114489
H	-1.5706187961	 1.6583246619	 1.6362492393	 0.107886
H	-0.1559820432	 3.5942136878	 2.6225613541	 0.10055
H	 1.3480129034	 4.14975954	 0.4091484107	 0.120784
H	 2.2804679933	 3.2925362311	 1.6282662413	 0.111423
H	 3.5701055856	 1.4551435817	 0.4651138548	 0.111665
H	 2.541741747	 0.0970853574	-0.2155340962	 0.127021
H	 1.8349596296	 1.5503714811	-1.9038570363	 0.231253
