20
gdb 18641	2.69417	2.10362	1.68618	1.4592	73.67	-0.2245	0.0791	0.3036	900.5966	0.17806	-348.994377	-348.986403	-348.985459	-349.026363	30.484	
C	-0.0384743082	 1.7956724803	-0.2212338069	-0.419039
C	 0.1288165973	 0.2938436732	-0.1307375843	-0.041372
C	 1.4303752021	-0.4214245762	-0.3947227776	 0.08125
O	 2.6232033432	 0.3217030914	-0.3530739081	-0.261163
C	 2.8437157149	 0.8249548696	 0.965868228	-0.097181
C	 1.8359180924	 0.1398695194	 1.9241791522	 0.00043
C	 1.2743602786	 1.0782158238	 2.9967800297	-0.405122
C	 0.8251387058	-0.49768534	 0.9769185987	-0.111265
H	 0.8854404786	 2.3361692282	-0.011642123	 0.129945
H	-0.3469820652	 2.0740548236	-1.2350089533	 0.118193
H	-0.809249303	 2.1569047467	 0.4682437726	 0.116103
H	-0.7342805282	-0.2485242636	-0.5138312661	 0.083554
H	 1.4935408668	-1.251998974	-1.0899149363	 0.092654
H	 3.886025935	 0.6226159417	 1.2387831066	 0.102948
H	 2.7081716247	 1.9148880838	 0.9763657381	 0.096012
H	 2.3463481897	-0.6885077339	 2.4317416988	 0.078928
H	 0.7466685144	 1.9255418876	 2.5493855891	 0.12216
H	 0.5710734633	 0.5513016252	 3.6493307542	 0.115789
H	 2.0757207631	 1.4768987215	 3.6289290756	 0.11344
H	 0.3300325548	-1.3982331882	 1.3240950319	 0.083736
