19
gdb 80828	1.99166	1.77366	1.6206	2.8152	74.59	-0.2275	-0.0162	0.2112	1007.529	0.158151	-423.034234	-423.025695	-423.024751	-423.067052	32.721	
C	-0.1672298843	 1.6409122225	-0.0335753423	-0.443703
C	 0.0224429331	 0.1326732518	 0.0082002545	-0.020398
C	 1.1856005713	-0.6067291312	-0.7046764656	 0.053452
C	 2.4753382593	 0.0674681312	-0.2084868563	-0.346949
C	 2.0644193665	 0.0932271594	 1.2796768232	 0.417078
O	 2.6445816439	 0.5253983429	 2.2367564408	-0.332149
C	 0.6886384575	-0.6035836972	 1.2117979711	 0.281524
C	 0.0103316016	-1.0029314372	 2.48513786	-0.509587
O	 1.0428197153	-1.6868350428	 0.2759170027	-0.333443
H	 0.7371711561	 2.1925513412	 0.2397923632	 0.131117
H	-0.4677860674	 1.9650873864	-1.0354798122	 0.1259
H	-0.9578464325	 1.9459271915	 0.6597715426	 0.130023
H	-0.9097746465	-0.3920477865	-0.2203870054	 0.092631
H	 1.1280793517	-0.9380237472	-1.7408572265	 0.086537
H	 3.3521729228	-0.5635539196	-0.3723302874	 0.137315
H	 2.6794622987	 1.0680633479	-0.5987880008	 0.124006
H	-0.1671017595	-0.1173098171	 3.1028259208	 0.137671
H	-0.9441492422	-1.4974415898	 2.287523515	 0.12603
H	 0.6484857647	-1.6830982363	 3.0570380925	 0.142944
