20
gdb 19281	3.18968	1.71772	1.35671	1.1172	74.09	-0.2504	0.0752	0.3256	982.9183	0.177215	-348.969269	-348.960969	-348.960025	-349.001642	31.727	
C	-0.3662342181	 1.5710786504	 0.1555512646	-0.409531
C	-0.0629974014	 0.078033223	 0.0939528935	 0.014293
C	 0.4108135508	-0.5348112878	-1.2357081436	-0.052668
C	 1.7683602712	-0.0229122515	-1.6247415781	-0.283457
C	 1.6709429804	-1.0856580481	-0.5632095025	-0.077375
C	 1.2337236654	-0.5019099354	 0.7858357808	 0.011252
C	 2.1905872632	 0.4204639616	 1.5192202579	-0.095781
O	 1.5514068797	 0.8357511143	 2.7223450809	-0.422952
H	 0.4316948132	 2.1738117051	-0.2900484333	 0.105781
H	-1.2890214922	 1.7996896085	-0.3890221115	 0.106432
H	-0.4864675916	 1.8945418203	 1.1934228802	 0.128616
H	-0.930046813	-0.4728313252	 0.4700683587	 0.07348
H	-0.2330551605	-1.0238205895	-1.9574377258	 0.079336
H	 2.1314588885	-0.3738914501	-2.5857104201	 0.108379
H	 2.0804806314	 0.9905062835	-1.3881857055	 0.103212
H	 2.1369269665	-2.055454933	-0.6933715213	 0.080501
H	 0.9491408978	-1.2961038715	 1.4823508578	 0.07933
H	 3.1249268956	-0.1249131014	 1.7331465538	 0.083688
H	 2.4571160428	 1.2872421582	 0.8970473701	 0.082223
H	 2.12259685	 1.4718179787	 3.1625386137	 0.285242
