20
gdb 18020	4.35138	1.36628	1.22989	1.2576	74.31	-0.2584	0.0768	0.3352	1051.533	0.178037	-348.969384	-348.961447	-348.960502	-349.002088	30.142	
O	-0.0687508295	 1.4158264404	-0.2455875492	-0.423386
C	 0.0468965892	 0.0102059393	-0.057284577	-0.101536
C	-1.355935293	-0.5550002545	 0.0269490828	 0.059123
C	-2.2469562853	-0.5727473309	-1.2513937512	-0.247154
C	-2.6766942515	-2.0356821019	-0.9318242767	-0.004007
C	-1.9179782727	-3.1239707569	-1.7248461719	-0.217388
C	-0.7425810155	-3.0399310026	-0.7039723181	-0.233122
C	-1.5813675071	-2.0794430195	 0.1969402677	-0.053634
H	 0.8139980364	 1.7754637193	-0.3719534137	 0.284865
H	 0.5969318141	-0.4502015535	-0.8929785019	 0.079914
H	 0.6002851471	-0.2253605536	 0.8677674301	 0.080933
H	-1.8776703613	-0.0238735084	 0.8305573866	 0.078906
H	-3.0485854786	 0.1679932236	-1.2681545799	 0.102466
H	-1.6836422858	-0.4795232969	-2.1861215022	 0.092229
H	-3.7387843754	-2.1905657777	-0.7363979057	 0.059222
H	-2.4201401908	-4.0952170633	-1.6989821798	 0.096473
H	-1.6874406657	-2.8880743114	-2.7685692758	 0.091783
H	-0.4949312209	-3.9903778829	-0.2255699394	 0.100249
H	 0.1858807683	-2.619688246	-1.0991822338	 0.096617
H	-1.7745091519	-2.4405054427	 1.208758949	 0.057448
