15
gdb 3391	5.58865	1.95061	1.85729	2.032	56.23	-0.2407	0.0659	0.3067	726.0892	0.125458	-345.594203	-345.587602	-345.586658	-345.625074	24.295	
O	 0.100169661	 1.3047981161	 0.3213468559	-0.419392
C	 0.0518233528	-0.0098596883	-0.2154616447	-0.091967
C	-1.336559823	-0.6009143729	-0.1284666244	-0.053736
C	-1.6676134543	-2.0849400362	-0.1314506801	-0.157494
C	-0.6752176954	-2.8585521918	 0.7326656214	-0.092506
O	-0.85149881	-1.9323904754	 1.8396983762	-0.285914
C	-1.8784143383	-1.2478949834	 1.112022856	 0.075011
H	-0.1116880265	 1.234575675	 1.2581410239	 0.286323
H	 0.3544578491	 0.0855231755	-1.2634659689	 0.109797
H	 0.7775262629	-0.6659468967	 0.2814312787	 0.101616
H	-2.0929041804	-0.0194779669	-0.6526709567	 0.098395
H	-2.3824193669	-2.5253643575	-0.8130763559	 0.101985
H	-1.0401421406	-3.8534590535	 1.0112553521	 0.112763
H	 0.3676700766	-2.9289042567	 0.4039593464	 0.109701
H	-2.7664010071	-0.9461022173	 1.6559992702	 0.105417
