19
gdb 37807	2.45691	2.15603	1.68071	0.732	72.91	-0.2269	0.0742	0.301	893.8466	0.163181	-423.013769	-423.007193	-423.006249	-423.044397	27.68	
C	 0.0169232425	 1.557006278	-0.063033012	-0.242243
C	 1.4817946741	 1.9451168823	 0.0572756336	-0.134158
C	 2.1662069751	 0.6684961078	 0.4949751727	 0.039146
O	 1.221773099	-0.3448468552	 0.7145819647	-0.260527
C	 0.0234909695	 0.0058622836	 0.0035302677	 0.077807
C	 0.022514409	-0.6873192988	-1.3710680506	-0.220748
C	 1.4029091739	-0.6418534231	-2.0306732028	-0.06726
O	 1.935443158	 0.6747150734	-2.0945004312	-0.260856
C	 2.4086659324	 1.2185375461	-0.8977280818	 0.066827
H	-0.5421144011	 1.9741037253	 0.7799995293	 0.105432
H	-0.4458238697	 1.9145570286	-0.9870287219	 0.112529
H	 1.7395703263	 2.9262001983	 0.4389986089	 0.086051
H	 2.9819793181	 0.6166336778	 1.207093822	 0.10048
H	-0.8146236982	-0.3660237378	 0.5998751549	 0.085385
H	-0.2632089277	-1.7394178068	-1.2521963173	 0.099856
H	-0.7291407098	-0.2175173741	-2.0155539814	 0.101864
H	 2.0925213665	-1.3021021629	-1.4911341583	 0.111181
H	 1.3402587996	-0.9862519572	-3.0671878691	 0.103521
H	 3.3875309224	 1.6724916448	-1.0383328573	 0.095713
