16
gdb 30978	2.58922	1.35172	0.93466	4.6623	68.78	-0.1782	0.0552	0.2334	1213.5115	0.124526	-471.238235	-471.229022	-471.228077	-471.272427	33.031	
C	 0.2489244551	 1.0948816111	-0.2782048176	-0.250286
O	-0.196063823	 0.1532455482	 0.7058136457	-0.274359
C	-1.2808193818	-0.5697810353	 0.345725113	 0.296107
C	-1.3670399134	-1.8592192144	-0.0368488281	 0.203121
N	-0.4088290231	-2.8759054279	-0.1492660427	-0.611653
N	-2.7219621318	-2.1184024871	-0.2922691285	-0.378835
C	-3.5109732387	-1.0105698695	 0.008354514	 0.435823
O	-4.7220656062	-0.929011956	 0.0007471712	-0.424682
N	-2.5813455234	-0.0224920678	 0.3250436972	-0.411076
H	 1.1237759722	 1.5938378968	 0.1425488012	 0.13569
H	 0.5227271884	 0.5852671169	-1.2096007352	 0.120306
H	-0.5265853429	 1.8386974443	-0.4945148128	 0.126935
H	-0.2191016394	-3.1300635935	-1.1152975836	 0.246755
H	 0.4608025061	-2.5845459249	 0.2812283478	 0.255222
H	-3.1193085892	-3.0409355313	-0.3517159663	 0.265734
H	-2.8636986988	 0.8007587802	 0.8307799848	 0.265197
