19
gdb 127103	2.62974	1.44426	1.01845	1.8761	79.2	-0.1823	0.0391	0.2214	1193.1573	0.160876	-415.390227	-415.38103	-415.380086	-415.423851	34.544	
C	-0.0369373027	 1.568235239	 0.5267569139	-0.324029
N	-0.0955619676	 0.2225447445	-0.0143735174	-0.170137
C	 0.9694219578	-0.6362372913	 0.5040066421	-0.344008
C	-1.3758233749	-0.3658645383	 0.0170612483	 0.178003
C	-2.5113356127	-0.0066097651	 0.7214558801	-0.116425
N	-3.4801721575	-0.8873155073	 0.365945834	-0.209945
N	-3.058489489	-1.804285352	-0.5388044147	-0.303548
C	-1.7865556929	-1.4934349744	-0.7509973356	 0.304286
N	-0.9675995494	-2.247966283	-1.5959314655	-0.595846
H	 0.9497579541	 1.9980684827	 0.3271991162	 0.117248
H	-0.7927621626	 2.1937415562	 0.043286984	 0.123272
H	-0.2026639628	 1.6061615108	 1.6199799158	 0.094724
H	 0.9188223304	-0.7554600397	 1.6005802568	 0.098117
H	 0.8983292729	-1.6260917969	 0.0483203158	 0.147668
H	 1.9421225603	-0.2017056104	 0.2502554233	 0.110583
H	-2.695599682	 0.791279108	 1.4220893179	 0.124741
H	-4.4439941743	-0.8910939602	 0.6454819084	 0.268706
H	-1.5169070198	-2.8560338202	-2.1910247557	 0.248295
H	-0.3649658673	-1.6562272123	-2.1562483176	 0.248296
