23
gdb 71011	3.56469	1.39187	1.25513	0.1106	90.26	-0.2559	0.0889	0.3448	1122.3415	0.208141	-351.120699	-351.113017	-351.112073	-351.152036	32.982	
C	-0.0084590301	 1.561315542	-0.0253794381	-0.494162
C	-0.0201917342	 0.0494283422	-0.0019043243	 0.350664
C	 0.3152982332	-0.7957556782	-1.306416875	-0.366119
C	-0.4056675582	-1.8989947567	-0.498057502	 0.356965
C	-0.8190361362	-3.3831691226	-0.4149857206	-0.349157
C	-0.3589321174	-3.3224393204	 1.0927259002	-0.275278
C	 0.5493895563	-2.1202807103	 0.6795772346	 0.045577
C	 0.7458767245	-0.6617727639	 1.1643419275	-0.308128
C	-1.3375690357	-0.7753242095	 0.0305372542	-0.285718
H	 1.0097908138	 1.9490185785	-0.1467837514	 0.113543
H	-0.6150277468	 1.9549932285	-0.8479071174	 0.110836
H	-0.4068013378	 1.97201991	 0.9100647607	 0.112825
H	-0.230720095	-0.4006477153	-2.1680451002	 0.089646
H	 1.3647588092	-0.9670716172	-1.5666511657	 0.084624
H	-1.8606584104	-3.6368909234	-0.6278651968	 0.094171
H	-0.1663716642	-4.0413194361	-0.9968714574	 0.102362
H	-1.1818095287	-3.0424724327	 1.7544798924	 0.105065
H	 0.136505692	-4.2059764848	 1.5015276979	 0.093025
H	 1.4987604272	-2.5352978198	 0.3222237783	 0.067324
H	 1.8011634462	-0.3769353309	 1.2253336401	 0.087267
H	 0.2815128162	-0.4244702262	 2.127708773	 0.095119
H	-1.8386826846	-0.9010985713	 0.9951845601	 0.083572
H	-2.0596023992	-0.4541568119	-0.7261938098	 0.085976
