25
gdb 104732	2.07057	1.37195	1.04666	1.0863	89.46	-0.2329	0.0764	0.3093	1335.4353	0.225843	-389.479543	-389.468354	-389.46741	-389.514979	41.858	
C	-0.6154690124	 1.5379773796	 0.6752739496	-0.373203
C	-0.0398791121	 0.2421694642	 0.0905219766	-0.260541
C	 0.8825608964	-0.4735188576	 1.0651988978	 0.408679
C	 0.3009436799	-1.3608226352	 2.1306335	-0.384094
C	 1.1275137692	-1.9812378832	 1.0134368102	 0.26155
C	 0.4260399458	-2.8479780141	-0.0179004889	-0.456353
C	 2.5023782932	-2.5048639006	 1.3930677998	-0.452313
O	 1.9414143627	 0.3247473508	 1.5425611151	-0.281345
C	 2.881408458	 0.7176013752	 0.5597616362	-0.251132
H	 0.1814585248	 2.2302240658	 0.959512288	 0.127171
H	-1.265024611	 2.0397981357	-0.0483668396	 0.105132
H	-1.2050713549	 1.3313154665	 1.5744626283	 0.118039
H	-0.8582451954	-0.4268832189	-0.1878940464	 0.098996
H	 0.4956157521	 0.4613017212	-0.8422891892	 0.09398
H	 0.7528344327	-1.2982494163	 3.1148083711	 0.114801
H	-0.7732069239	-1.5195268252	 2.1333490684	 0.101828
H	-0.6001929491	-2.5290305388	-0.2139179829	 0.114099
H	 0.9654211054	-2.8484928963	-0.9728170861	 0.111925
H	 0.3810870042	-3.8864062983	 0.3321984094	 0.113944
H	 2.4134768028	-3.4831132087	 1.8803987222	 0.110053
H	 3.1364322978	-2.639600184	 0.5083674825	 0.106802
H	 3.013326367	-1.8275384052	 2.0792596849	 0.12962
H	 3.2641540388	-0.1405379127	-0.0085265388	 0.108863
H	 2.4643626002	 1.4463949633	-0.1489404543	 0.109666
H	 3.7123062278	 1.1898589028	 1.0901639761	 0.123831
