19
gdb 82049	2.77954	1.45236	1.23766	2.2086	74.17	-0.246	0.0724	0.3184	1078.7327	0.158521	-422.960324	-422.952133	-422.951189	-422.993375	30.984	
C	-0.0822908849	 1.5603801031	-0.2093735181	-0.413231
C	 0.0309931092	 0.0489542158	-0.080780297	-0.104243
C	 1.1298193593	-0.6534604386	-0.8997128521	 0.024649
O	 2.3922429021	-0.191099755	-0.4013889325	-0.249734
C	 1.722411882	-1.2430449747	 0.3088192818	-0.060518
C	 0.6880298829	-0.5691234377	 1.2116705208	 0.280716
C	 1.1277069674	 0.2205283498	 2.4558409167	-0.130319
O	 0.408805541	-0.6780082082	 3.3308859976	-0.275581
C	-0.1357010081	-1.4019096219	 2.2116961372	-0.144185
H	 0.899430279	 2.0277360416	-0.0926357377	 0.135311
H	-0.47805586	 1.839482925	-1.1918725486	 0.117061
H	-0.7544092318	 1.9762430327	 0.5485172635	 0.119762
H	-0.9379272094	-0.4348819421	-0.2516344188	 0.078007
H	 1.1040857959	-1.0098082559	-1.9232073833	 0.104638
H	 2.2674111418	-2.1679767553	 0.463993957	 0.107476
H	 2.2048309302	 0.2306664681	 2.6596677679	 0.110022
H	 0.7430121697	 1.2465655278	 2.520394128	 0.101538
H	-1.2244794421	-1.2771781661	 2.128617249	 0.0972
H	 0.094700436	-2.4746199683	 2.2590160885	 0.101432
