15
gdb 129814	3.22637	1.39802	0.97732	5.0204	75.68	-0.1939	-0.016	0.1779	1129.1617	0.115387	-450.140635	-450.132776	-450.131832	-450.172659	30.738	
N	 0.1089424963	 1.3639898495	 0.1597963775	-0.590713
C	-0.021965708	-0.020405336	 0.0471384812	 0.428788
C	-1.1976660135	-0.7042086833	 0.0204881012	-0.253639
C	-1.2143852489	-2.1457574297	-0.003059153	 0.236247
N	-2.2977625597	-2.8421577817	-0.0255145134	-0.562374
C	 0.1528853085	-2.7167830436	-0.0124109642	 0.369112
O	 0.215853449	-4.0636556579	-0.0338567394	-0.40865
N	 1.2589919577	-2.057556058	 0.0046476191	-0.317496
N	 1.1679688037	-0.6950012537	-0.0065107683	-0.305681
H	 0.7709821977	 1.7653705244	-0.493622024	 0.253596
H	-0.7792755177	 1.8417240863	 0.0947775447	 0.262168
H	-2.142825495	-0.1766290503	 0.0003297035	 0.098054
H	-2.0676101148	-3.8357853953	-0.0520132071	 0.220393
H	 1.1516378469	-4.3069769048	-0.0358136868	 0.303113
H	 2.0163763277	-0.233091106	 0.2772180189	 0.267082
