27
gdb 101608	2.50253	0.86765	0.77996	1.299	92.29	-0.2618	0.0739	0.3357	1668.3891	0.248889	-390.700547	-390.688525	-390.687581	-390.737533	44.88	
C	-0.6748786722	 1.7109726259	 1.7401967614	-0.403859
C	-0.5618568419	 0.529505693	 0.7664584051	 0.049925
C	 0.2638377775	-0.5990297578	 1.3887122728	-0.07956
O	 1.5812424508	-0.1189425281	 1.6207401746	-0.424839
C	-1.9530606481	 0.013475543	 0.3198862158	-0.224062
C	-2.1687115285	-0.2486663052	-1.1945903455	 0.268542
C	-1.1492778391	-1.2623222108	-1.745328673	-0.401584
C	-3.5869782711	-0.8216947521	-1.377360517	-0.401752
C	-2.0630755234	 1.0679781394	-1.9872070664	-0.400573
H	 0.3134660802	 2.0295446432	 2.0797149414	 0.129714
H	-1.1720172825	 2.5635727908	 1.266293973	 0.106396
H	-1.2638767284	 1.4320772883	 2.6228867007	 0.10505
H	 0.001183701	 0.8737099222	-0.1094373161	 0.081644
H	-0.214660573	-0.9191983379	 2.3302751278	 0.079737
H	 0.277354833	-1.4702684045	 0.7167304907	 0.084359
H	 2.0806925135	-0.8095635871	 2.0652454995	 0.285055
H	-2.1860483361	-0.9115892719	 0.8666056176	 0.082444
H	-2.7153259482	 0.7360959192	 0.6368186322	 0.087694
H	-1.2122597582	-2.2180597378	-1.2127975103	 0.105238
H	-1.3398434483	-1.4621399772	-2.8057230695	 0.105583
H	-0.1212741521	-0.8958952993	-1.6617933554	 0.117484
H	-4.3458963903	-0.1303912784	-0.9941418613	 0.107121
H	-3.8053878695	-1.0030650331	-2.435613107	 0.105697
H	-3.7019202892	-1.772610818	-0.8452830531	 0.105875
H	-1.0698112361	 1.5197226155	-1.9025543251	 0.114724
H	-2.2540949093	 0.8947854381	-3.0519451515	 0.10702
H	-2.7958718305	 1.8012800606	-1.6323215714	 0.106925
