18
gdb 105840	2.13457	1.54456	1.2589	4.5693	72.64	-0.2392	0.0103	0.2494	1103.6559	0.146825	-439.07592	-439.067011	-439.066067	-439.109627	33.096	
C	 0.0496151547	 1.5261287063	 0.1683833545	-0.378596
C	 0.0481035151	 0.0079578169	-0.0651069615	-0.298508
C	-1.3463618375	-0.5555292089	-0.0533802056	 0.133758
C	-2.0791465044	-1.0395807089	 1.1826004518	 0.055961
O	-3.304754394	-0.4716524067	 1.5247769712	-0.412306
C	-1.9173411559	-1.9849774642	 0.0248222384	-0.143097
N	-2.8466857136	-1.6731778487	-1.0638474293	-0.341477
C	-2.4137718346	-0.3320754269	-1.1238983554	 0.395714
O	-2.765763902	 0.5904036585	-1.800748503	-0.341236
H	 1.066439651	 1.9268031271	 0.1193453405	 0.11018
H	-0.5584366817	 2.0296305293	-0.5879667252	 0.151154
H	-0.367026593	 1.7722720102	 1.1503482261	 0.121093
H	 0.5195156169	-0.2174737616	-1.0293746258	 0.112805
H	 0.6529828441	-0.4937102405	 0.7001668426	 0.097901
H	-1.4077423568	-1.2295542646	 2.0238202375	 0.09502
H	-3.7860401246	-1.0990168602	 2.0755503374	 0.290691
H	-1.3867364481	-2.9289902051	 0.045682108	 0.111151
H	-3.8346806554	-1.896892362	-1.0111621421	 0.239791
