18
gdb 38832	2.73226	1.99659	1.73997	1.3893	69.38	-0.2267	0.0796	0.3064	867.6585	0.151469	-439.05607	-439.049667	-439.048723	-439.086558	26.729	
C	-0.0596561777	 1.4047632024	-0.2136872876	-0.248077
C	 1.2594510605	 0.7321424161	-0.0196985784	-0.034965
C	 2.0373601725	 0.8213758644	 1.2933209326	 0.043521
C	 1.4851291878	 1.8186047999	 2.3145719801	-0.104445
O	 0.3512054209	 1.1212306132	 2.83305605	-0.281667
C	 0.4979967925	-0.2500334623	 2.4414863032	 0.181673
C	-0.4304300991	-0.5965819098	 1.2677774092	-0.179911
N	 0.0006639118	-0.0397400572	-0.0211288248	-0.091673
O	 1.8372500891	-0.4003653943	 2.0295483545	-0.247945
H	-0.4546537379	 2.0159235925	 0.5928643859	 0.130628
H	-0.3552248442	 1.7228434281	-1.2108664678	 0.112406
H	 1.8784029457	 0.5487810622	-0.8951508697	 0.094799
H	 3.1069065066	 0.9293543761	 1.1100643035	 0.089129
H	 2.2169233072	 2.0042123881	 3.110604346	 0.107171
H	 1.1679860189	 2.7715902247	 1.8846994579	 0.110935
H	 0.3191506834	-0.8971194961	 3.3058740382	 0.092107
H	-0.4343931398	-1.6883082029	 1.1669044085	 0.112764
H	-1.4526370881	-0.2745647852	 1.4895487487	 0.11355
