19
gdb 116345	2.99921	1.28125	0.99129	1.5476	70.84	-0.2487	0.0683	0.317	1197.7099	0.160147	-460.136737	-460.128411	-460.127467	-460.169854	31.443	
O	-0.0590598634	 1.4165946943	 0.0053279962	-0.424731
C	 0.0069907189	-0.0019018541	 0.0422799404	-0.090601
C	-1.4215272366	-0.5383979932	-0.0114546137	-0.024503
C	-2.1442714496	-0.1131121765	-1.3005129948	-0.094669
O	-3.4256844616	-0.7133709251	-1.386010721	-0.251143
C	-3.3671933925	-2.1103708051	-1.5980264661	-0.102755
C	-2.4007876081	-2.8289255429	-0.671466767	 0.018022
O	-1.0121999426	-2.783394384	-1.0334348641	-0.261564
C	-1.4406430976	-2.0466024859	 0.1195934736	 0.034568
H	 0.8373687775	 1.7602272486	-0.0451108468	 0.289608
H	 0.5765902485	-0.4019355132	-0.8104822049	 0.10472
H	 0.4992167014	-0.3548469786	 0.9630600597	 0.086062
H	-1.974817517	-0.1248666819	 0.8421774971	 0.093258
H	-2.3012153392	 0.9659422422	-1.3036132567	 0.12669
H	-1.5311774522	-0.3798493899	-2.1755723069	 0.096547
H	-4.3823385186	-2.4845571277	-1.4319833802	 0.111017
H	-3.0866539162	-2.3363894561	-2.6405386614	 0.102936
H	-2.7254009414	-3.801611348	-0.3023775452	 0.096778
H	-1.0838654096	-2.4541099929	 1.0668354316	 0.089761
