22
gdb 5797	3.2904	1.27217	1.16817	2.4565	78.49	-0.2408	-0.0111	0.2297	1183.5107	0.196122	-350.243116	-350.232693	-350.231749	-350.279646	37.846	
C	-0.1640271601	 1.590016503	 0.0050747084	-0.467809
C	 0.1113190891	 0.0931126945	 0.0082128491	 0.37479
O	 1.2453335825	-0.3314536289	 0.0041493183	-0.291825
C	-1.1300144725	-0.7940047851	 0.0162557143	-0.309798
C	-0.948368448	-2.3287689957	 0.0004874681	 0.264717
C	-0.1824509435	-2.7995250133	 1.2516854531	-0.409723
C	-2.3540708041	-2.9603009916	 0.0075415576	-0.400084
C	-0.2055843036	-2.7758619645	-1.2731146381	-0.409765
H	 0.7791542072	 2.1372874963	 0.0187303369	 0.141368
H	-0.7388205878	 1.870794234	-0.8846510072	 0.137663
H	-0.7678803697	 1.8728026791	 0.8744577381	 0.136663
H	-1.7205256926	-0.5001679664	 0.8970329966	 0.113663
H	-1.7452455973	-0.4845899646	-0.8418258707	 0.112869
H	-0.702202128	-2.4961668038	 2.1683735369	 0.097511
H	-0.1078189362	-3.8924179961	 1.2629972874	 0.104834
H	 0.8267914967	-2.3856011776	 1.2751092717	 0.141646
H	-2.9349306333	-2.6550206359	-0.8703959899	 0.104391
H	-2.2854836428	-4.0533544598	-0.0023546165	 0.110629
H	-2.9191392824	-2.670102883	 0.9007645936	 0.104421
H	 0.8036413291	-2.3624340776	-1.3067923764	 0.141259
H	-0.1320469724	-3.8683542324	-1.306778615	 0.105051
H	-0.7413568902	-2.4546805705	-2.1743814462	 0.097527
