16
gdb 112477	2.48269	1.50872	1.04177	4.4704	67.13	-0.2325	-0.0102	0.2223	1117.2285	0.125393	-475.067354	-475.059212	-475.058268	-475.100696	30.235	
O	 0.0858464324	 1.4395188692	 0.0805021331	-0.418527
C	 0.0921920276	 0.0345891907	 0.1764437218	-0.056474
C	-1.3173371384	-0.5527835587	 0.0209109689	 0.039109
O	-1.8418980217	-0.083967411	-1.2573979358	-0.279131
C	-1.7475514727	-0.8113191089	-2.3962370536	 0.47278
O	-1.941758225	-0.3112973367	-3.4724697515	-0.37555
N	-1.4569644574	-2.1516966363	-2.2258829701	-0.383909
C	-1.4043828524	-2.7714260532	-0.9791406891	 0.014799
C	-1.3629970214	-2.043897759	 0.1343669125	-0.150935
H	-0.3668339163	 1.6593425908	-0.7427029384	 0.297765
H	 0.7548985638	-0.4328973413	-0.5702147083	 0.096325
H	 0.4785138754	-0.2213649075	 1.1688519873	 0.113018
H	-1.9688208303	-0.0708072837	 0.7572965143	 0.115673
H	-1.5003228012	-2.6957087466	-3.0714601348	 0.271096
H	-1.4163728996	-3.8541965861	-0.9971500498	 0.130268
H	-1.342103623	-2.5037003817	 1.1127438634	 0.113693
