16
gdb 33633	3.06582	1.56362	1.3667	4.9215	81.4	-0.2345	-0.0561	0.1784	974.8085	0.12564	-363.528028	-363.521169	-363.520225	-363.559186	27.431	
N	-0.4644662212	-1.2369574557	 0.1143252401	-0.359792
C	-0.2700712394	-0.0988807479	 0.0274139641	 0.15654
C	-0.0357785939	 1.2968514715	-0.0802617717	 0.217139
C	-0.5347999945	 2.4508321557	 0.763062876	-0.118843
C	 0.9223106247	 2.7683911582	 1.2681703029	-0.262167
C	 1.3094426521	 2.0720364338	-0.045461068	-0.003235
C	 1.4240315613	 2.8634714724	-1.1294063119	-0.085793
C	 0.097677054	 2.9228493287	-1.8768797218	-0.26816
C	-0.8248482577	 2.3559279686	-0.7805915992	-0.102544
H	-1.394354636	 2.399704795	 1.4264227627	 0.118677
H	 1.2325712729	 3.8099056787	 1.381142925	 0.112941
H	 1.1025900001	 2.2120790266	 2.1938075843	 0.125787
H	 2.0926462505	 3.7194792633	-1.1415687153	 0.111091
H	-0.1059785974	 3.9667307503	-2.1414974967	 0.122071
H	-0.0011049198	 2.3322292518	-2.7976899254	 0.128891
H	-1.8775527357	 2.181250939	-0.9924413151	 0.107397
