20
gdb 103985	2.69699	1.33862	1.20659	2.686	74.75	-0.2277	0.0553	0.2829	1134.8414	0.169608	-440.236306	-440.227039	-440.226095	-440.269758	35.584	
C	 0.011622542	 1.5415965353	 0.0994204818	-0.511398
C	-0.011509083	 0.0465595147	-0.0394091615	 0.311408
C	-0.9008642392	-0.8254932936	 0.7551480362	-0.284941
N	 0.5501193087	-0.9079467737	 1.0139471296	-0.173057
C	 1.0737453007	-1.7766135964	-0.0973191203	-0.224217
C	 0.5995364346	-0.7632569272	-1.1853349324	 0.359877
O	-0.343128557	-1.2037372538	-2.1371081506	-0.494524
C	 1.7536359876	-0.0721986374	-1.9002032315	-0.1576
O	 2.2691942964	-1.0310882625	-2.8215377904	-0.436818
H	 1.0037590981	 1.9606400331	-0.0992109525	 0.118584
H	-0.698051643	 2.0055698893	-0.595367614	 0.129333
H	-0.273022024	 1.8316549196	 1.1148125455	 0.130406
H	-1.4517040036	-0.3536573576	 1.5635533169	 0.113908
H	-1.4042887795	-1.6671109954	 0.2865784048	 0.12457
H	 2.157507252	-1.8868584189	-0.0264389298	 0.109093
H	 0.6052062255	-2.7640844655	-0.1433133908	 0.104724
H	 0.1731904612	-1.5591314011	-2.8731109277	 0.284394
H	 1.3758764636	 0.815398233	-2.4281941461	 0.097673
H	 2.5208217384	 0.2482269575	-1.1816313422	 0.102486
H	 2.8762877104	-0.5889271494	-3.421114635	 0.296096
