21
gdb 94735	2.72148	1.53421	1.25822	2.1176	77.9	-0.2442	0.0716	0.3158	1103.7442	0.182751	-424.224757	-424.216169	-424.215224	-424.257572	33.197	
C	 0.1830910077	 1.6294548735	 0.0133430085	-0.409808
C	 0.1803894301	 0.1137360336	-0.0520651943	 0.117612
O	 1.0890544209	-0.3185506782	-1.0700705835	-0.268131
C	 1.3492707903	-1.6919002051	-0.8288831867	-0.140208
C	 1.4463639742	-1.843014569	 0.695331169	 0.259849
C	 1.1268505745	-3.2287881727	 1.2260571381	-0.492409
C	 2.6631426709	-1.1135054204	 1.3163281975	-0.110876
O	 1.8412427873	-0.0273353503	 1.7911410509	-0.28986
C	 0.6546305964	-0.6075343485	 1.215001674	 0.066004
H	 1.1604785737	 1.9843679169	 0.3460985815	 0.14119
H	-0.0363355106	 2.0502889721	-0.9712615883	 0.123756
H	-0.5766512015	 1.9821724249	 0.7176709005	 0.113907
H	-0.8333859142	-0.2596846795	-0.2876205633	 0.058345
H	 0.5306921043	-2.3217189873	-1.2183753171	 0.084046
H	 2.2700633	-1.9595735599	-1.3563089075	 0.107792
H	 1.8509076767	-3.9673482892	 0.8620114436	 0.121633
H	 1.1532449467	-3.2514874864	 2.3198851202	 0.125669
H	 0.1317648506	-3.5563407919	 0.9057665268	 0.119779
H	 3.1533937281	-1.6417300776	 2.1439076243	 0.096223
H	 3.4224179907	-0.7708968536	 0.6026910286	 0.105068
H	-0.1359818971	-0.7498229013	 1.9600136374	 0.07042
