21
gdb 39423	2.34727	1.88059	1.31552	2.2469	81.41	-0.2369	0.0689	0.3058	1040.5115	0.187203	-383.224858	-383.217411	-383.216467	-383.256361	30.784	
C	-0.0173496511	 1.5126553548	-0.0898943966	-0.188535
C	 1.3618000921	 2.2101157857	-0.1231697662	-0.216294
C	 2.3284221311	 1.9238652829	 1.0210331631	-0.017406
N	 1.8587326624	 1.0958547399	 2.143960651	-0.329298
C	 2.8794831625	 0.5534311916	 1.2346947175	-0.026548
C	 2.5268012192	-0.5468941286	 0.2801238498	-0.010287
N	 1.7633456696	-1.7240724308	 0.7297777123	-0.340571
C	 1.154411678	-0.7903127293	-0.2421446417	-0.038427
C	-0.0436162982	 0.0017082284	 0.2429536319	-0.195162
H	-0.653427469	 2.0215499526	 0.6423765862	 0.102462
H	-0.4822158954	 1.6916468497	-1.0674484955	 0.087462
H	 1.8739809865	 1.9573629158	-1.0609260781	 0.099395
H	 1.184179339	 3.2913733466	-0.1675344081	 0.093472
H	 2.9955262523	 2.7495783057	 1.2636130001	 0.078229
H	 2.2937367232	 1.3862014322	 3.0144806871	 0.230798
H	 3.894537323	 0.4905173648	 1.624703999	 0.075707
H	 3.3362808761	-0.7312498238	-0.427264504	 0.074838
H	 2.1053421838	-2.5572387146	 0.2575275863	 0.224998
H	 1.111198699	-1.1252508693	-1.2783869971	 0.073259
H	-0.0857614927	-0.121189574	 1.3238185553	 0.142511
H	-0.9572500112	-0.4399704105	-0.1735369921	 0.079397
