18
gdb 49236	3.43298	1.24372	1.01528	3.7697	80.08	-0.2299	-0.0563	0.1735	1172.6522	0.148862	-401.946745	-401.939005	-401.93806	-401.979234	29.659	
O	 0.0752100279	-0.0235125106	 0.4052623651	-0.273571
C	 0.2139679733	 1.1755838993	 0.4970358769	 0.092303
C	 1.3263256136	 1.9343014439	-0.0996409812	 0.203357
C	 1.3873016614	 3.2600212971	 0.0857776549	-0.146177
C	 2.4769072823	 4.1079130946	-0.4931618611	-0.284776
C	 3.7153201891	 3.3085860554	-0.8732133943	-0.006834
C	 4.3185236597	 2.3609590329	 0.1049150278	-0.247759
N	 3.6454911899	 1.8626034908	-1.0928390336	-0.096412
C	 2.357779252	 1.1876022731	-0.910828044	-0.254553
H	-0.5173518191	 1.7998764594	 1.0600836464	 0.067781
H	 0.6118303923	 3.7545748455	 0.6683929994	 0.103981
H	 2.0856421548	 4.6174611966	-1.3868797087	 0.131637
H	 2.745050423	 4.9128453697	 0.2035252262	 0.123599
H	 4.378432691	 3.8220713266	-1.5668153065	 0.093147
H	 5.3933312195	 2.2044975129	 0.1370182484	 0.116951
H	 3.8125593336	 2.2528683429	 1.0626430567	 0.112494
H	 2.535002422	 0.2061547414	-0.4592401609	 0.136659
H	 1.9478527139	 0.9856884486	-1.9093116516	 0.128171
