15
gdb 29767	3.16485	1.24016	0.89606	5.6659	77.27	-0.2163	-0.0079	0.2084	1228.7749	0.113414	-416.859005	-416.850452	-416.849508	-416.892777	30.729	
C	-0.0579333186	 1.4755737019	 0.0005744909	-0.336194
N	-0.0030731791	 0.0272221395	 0.0014640946	 0.019468
C	 0.0748224777	-0.7546413443	-1.1403565537	-0.180865
C	 0.1088485811	-2.0677757812	-0.7431753193	 0.225131
O	 0.1842537387	-3.1361629202	-1.5690839016	-0.437
C	 0.0497057848	-2.0853057244	 0.6887810291	 0.039772
C	-0.0181634231	-0.7595469372	 1.1019827868	-0.181865
C	 0.0615420102	-3.254446216	 1.4763106488	 0.180772
N	 0.0758192721	-4.2576942963	 2.0594502022	-0.373431
H	 0.8386184293	 1.8965903617	-0.4648795712	 0.150249
H	-0.9378527183	 1.8289378797	-0.545795783	 0.150266
H	-0.1184099291	 1.830286061	 1.0303851699	 0.149001
H	 0.0989154769	-0.3173442928	-2.1235401559	 0.133726
H	 0.1929449106	-3.9405009579	-1.0367689237	 0.3119
H	-0.0752376633	-0.3456251035	 2.0951224261	 0.149069
