19
gdb 41375	2.36983	1.93508	1.8271	1.1177	73.04	-0.2501	0.0769	0.327	909.8487	0.160534	-422.991546	-422.984305	-422.983361	-423.023048	29.324	
C	 0.0328553528	 1.3597901843	-0.4049416628	-0.301785
C	 1.4789281141	 1.4934998449	 0.2041958381	-0.301778
C	 1.395658787	 0.0083781197	 0.6609460044	 0.369579
C	 0.8608370832	-0.3413416773	 2.0743195425	-0.293308
C	-0.585179	-0.474958411	 1.465294117	-0.293308
C	-0.0028956464	-0.1209139479	 0.0718931715	 0.369581
O	 0.0650276923	-1.160382433	-0.8784793671	-0.308082
C	 1.4530257511	-1.3270240832	-1.1511577754	-0.012263
O	 2.186162428	-0.9642361399	 0.0148450458	-0.308085
H	-0.7286476896	 2.0115644792	 0.0298439631	 0.102884
H	-0.0053770948	 1.456369006	-1.4923440048	 0.111846
H	 2.2625519337	 1.6661362493	-0.5369939041	 0.111847
H	 1.59107984	 2.2260151658	 1.0070522405	 0.102885
H	 1.2747875384	-1.2750592371	 2.4575029101	 0.11702
H	 0.984009559	 0.4399334012	 2.8276537936	 0.101386
H	-0.996035152	-1.4848710537	 1.5011521941	 0.117021
H	-1.3265392494	 0.2264736484	 1.8544634078	 0.101387
H	 1.6477252725	-2.3778407016	-1.3827464006	 0.122343
H	 1.752088	-0.6905182241	-2.0010025036	 0.090829
