16
gdb 1245	7.00683	1.14697	1.04479	4.0705	61.71	-0.284	0.0397	0.3237	1088.6368	0.135535	-325.799404	-325.791167	-325.790223	-325.832138	28.936	
C	 0.0200466251	 1.5567250892	 0.067734759	-0.411006
C	-0.0068581156	 0.0301954236	 0.0256898952	 0.132421
O	 0.691316836	-0.537315699	 1.1321591261	-0.42654
C	-1.4370765991	-0.5201907718	-0.0664633491	-0.191352
C	-1.4474250346	-2.0593330406	-0.1287504769	-0.336713
C	-2.7968108262	-2.6159520083	-0.1088689753	 0.253377
N	-3.8723701119	-3.0385837443	-0.0904066907	-0.308094
H	 1.0500281649	 1.914469402	 0.1444943547	 0.131271
H	-0.4326180604	 1.987448154	-0.8308173869	 0.124093
H	-0.53986301	 1.9313647499	 0.9340035729	 0.11265
H	 0.5573801861	-0.3131251281	-0.851259642	 0.094263
H	 0.3275437265	-0.152550533	 1.9379237794	 0.281117
H	-2.0118257824	-0.187336735	 0.8072689201	 0.110814
H	-1.9387146807	-0.1074699789	-0.9483976179	 0.119677
H	-0.9399115408	-2.4056494949	-1.0369019816	 0.149218
H	-0.8788211271	-2.4561093148	 0.7180284132	 0.164803
