18
gdb 124546	2.6011	1.28295	1.05682	0.8796	73.77	-0.2302	0.0012	0.2314	1207.449	0.148271	-435.282647	-435.273553	-435.272609	-435.31752	33.218	
C	-0.0909883086	 1.5813247944	 0.0125390686	-0.379761
C	-0.0503426563	 0.042829111	-0.0129611967	-0.089565
C	-1.4689707047	-0.5519539799	 0.0422192277	-0.379753
C	 0.7077674803	-0.4635235373	-1.2073751262	 0.259082
N	 0.3344535241	-0.2386966364	-2.4712571733	-0.271351
N	 1.2584377678	-0.8463461806	-3.1958814457	-0.091604
N	 2.2307501227	-1.466607248	-2.52056108	-0.306717
C	 1.8914171831	-1.2302604417	-1.2592852091	 0.288926
O	 2.6016059526	-1.6758791908	-0.2044532645	-0.428248
H	 0.9177920518	 2.0049399471	 0.0178936451	 0.114832
H	-0.6125315962	 1.9655672713	-0.8694637295	 0.129783
H	-0.6163694626	 1.9379395761	 0.9044402463	 0.108269
H	 0.4999650552	-0.3003684708	 0.8709185057	 0.093872
H	-2.044883312	-0.2517666258	-0.8385767422	 0.129756
H	-1.4401124832	-1.6453838765	 0.0685999466	 0.114841
H	-1.9987397112	-0.2022406082	 0.9342590223	 0.108279
H	 1.2344652122	-0.8441079442	-4.2012316992	 0.29097
H	 3.3569665049	-2.16925335	-0.5465675358	 0.308392
