20
gdb 110495	4.75284	1.12832	1.09716	1.5106	83.36	-0.213	-0.005	0.208	1195.7604	0.172332	-365.931527	-365.923955	-365.923011	-365.963611	30.527	
C	 0.0848194719	 1.582537106	-0.001694701	-0.371642
C	-0.1584328755	 0.069483988	 0.0551001742	-0.230585
C	 0.6236060772	-0.5887964913	 1.1802378434	 0.082318
C	 0.9186749637	-2.0962607675	 1.2363093617	-0.096811
C	 2.0208325633	-1.872463237	 0.1512623804	-0.040668
C	 3.2184090152	-2.7353401337	 0.4877805978	-0.09129
C	 3.291352273	-2.6409201305	 1.8159304115	-0.097264
C	 2.1298158879	-1.7316748116	 2.1513639426	-0.026494
N	 2.1606741649	-0.6077259912	 1.0663827443	-0.162381
H	 1.1465999715	 1.7955512348	-0.1552719067	 0.137583
H	-0.4819697035	 2.0460563187	-0.814762331	 0.107865
H	-0.2172471919	 2.0653872298	 0.9342879105	 0.112417
H	-1.2254940839	-0.1309506709	 0.2195870366	 0.096574
H	 0.0876293414	-0.3797358954	-0.9127808102	 0.096358
H	 0.3195186018	-0.1479842228	 2.1389888579	 0.062557
H	 0.2286601929	-2.9456320806	 1.3338868991	 0.057853
H	 1.7728140824	-1.6851046522	-0.8915237526	 0.073032
H	 3.8525027696	-3.2581759772	-0.2136089353	 0.109512
H	 4.0002392991	-3.0640417054	 2.5127739263	 0.11095
H	 1.9718407193	-1.38515925	 3.1736683605	 0.070117
