15
gdb 130331	3.06561	1.46698	1.04993	4.424	68.49	-0.235	-0.0213	0.2137	1089.7391	0.113733	-450.052272	-450.044606	-450.043662	-450.084925	28.612	
N	 0.1224719676	 1.2785208519	 0.3767521387	-0.594096
C	 0.0530968795	-0.0620057795	 0.0676101829	 0.297441
N	-1.0461919749	-0.7556090948	-0.0452618786	-0.168915
O	-0.6337470549	-2.0546410566	-0.2961753033	-0.174197
N	 0.7311044636	-2.1449446461	-0.3390091278	-0.158478
C	 1.1744698958	-0.9385460468	-0.1195096084	 0.328938
N	 2.5057035269	-0.5357928045	-0.1433777038	-0.174076
C	 3.244513392	-0.4975660183	 1.134299207	-0.231532
C	 3.5368170936	-1.5390271961	 0.1129039852	-0.218354
H	 0.9173915377	 1.7433928053	-0.0403404263	 0.26611
H	-0.7425065717	 1.7792720344	 0.2273172299	 0.267267
H	 3.9046982967	 0.355107038	 1.2541731422	 0.130381
H	 2.7091528762	-0.805968083	 2.027675422	 0.141117
H	 3.2015652899	-2.5519121127	 0.3115245507	 0.156298
H	 4.419098012	-1.4509953712	-0.5125376304	 0.132097
