23
gdb 77934	2.58202	1.42797	1.05409	1.331	86.76	-0.2511	0.0752	0.3263	1243.1331	0.204197	-388.231171	-388.221204	-388.22026	-388.265535	38.302	
C	-0.0072005575	 1.6130190035	-0.0787295484	-0.448081
C	 0.0793487755	 0.086973594	-0.1565129441	 0.060891
C	 1.2392459698	-0.727916556	-0.8298245575	-0.177549
C	 2.1499639472	-0.4316773195	 0.4071293588	 0.066789
C	 2.8964828086	 0.8932574711	 0.5823563616	-0.457511
C	 0.7191676085	-0.7666490154	 0.9843847636	-0.148713
C	 0.7065751604	-1.9713578398	-0.0103787209	 0.472991
C	-0.5843106323	-2.68913649	-0.4015092522	-0.486473
O	 1.6505746004	-2.9763253165	 0.3340874884	-0.48157
H	 0.1552267036	 2.0740099945	-1.059997799	 0.114238
H	-1.0159875988	 1.8951664785	 0.241919207	 0.10948
H	 0.6859100491	 2.0692988299	 0.6257795587	 0.126488
H	-0.9052954821	-0.2619971855	-0.4683158983	 0.059379
H	 1.5277731748	-0.7127721473	-1.885174284	 0.052283
H	 2.8459755873	-1.2414690733	 0.6119691198	 0.097298
H	 2.8408147979	 1.2554231789	 1.6155548986	 0.1155
H	 3.9572404958	 0.7354173424	 0.3597740199	 0.109241
H	 2.5544345531	 1.6947072244	-0.072273687	 0.121154
H	 0.4199880437	-0.7969425039	 2.0354762176	 0.06018
H	-0.3933908832	-3.3373125393	-1.2671185966	 0.104434
H	-0.902321572	-3.3327809877	 0.4243185886	 0.128418
H	-1.4161515438	-2.0389113689	-0.6693514201	 0.126394
H	 1.6867863938	-3.605641424	-0.3931587246	 0.27474
