18
gdb 80670	2.65017	1.77824	1.30691	1.8307	70.88	-0.2198	-0.0358	0.1841	986.3666	0.149399	-439.069862	-439.062538	-439.061594	-439.101599	29.411	
O	 0.2437510331	 1.0637686592	 0.630815556	-0.446425
C	 0.0049307157	-0.1814357942	 0.0266665304	 0.061267
C	-1.4947338797	-0.4610258418	-0.1208019925	-0.046901
C	-1.6496157024	-1.8258387625	-0.824848571	-0.186866
N	-1.5148670297	-1.1380510539	-2.157982164	-0.113559
C	-1.9987621176	 0.1185966393	-1.4631708096	-0.195623
C	-0.084154818	-0.9826895174	-2.4590566852	-0.278576
C	 0.6667097079	-0.2137295272	-1.3662220727	 0.348414
O	 1.6667321566	 0.4373250794	-1.5697047789	-0.327617
H	 1.0710891986	 1.386580572	 0.243127574	 0.292846
H	 0.4576335049	-0.9988555172	 0.6206668209	 0.087531
H	-2.0349035838	-0.2535523268	 0.8060889564	 0.082861
H	-0.9049597901	-2.604569923	-0.6250353022	 0.100807
H	-2.6510307196	-2.2545912203	-0.7275573018	 0.114947
H	-3.0877920797	 0.1772999806	-1.5332928936	 0.114799
H	-1.562549289	 1.0566078289	-1.8208171176	 0.119158
H	 0.3672114331	-1.9728066043	-2.5981802802	 0.13428
H	 0.0510759197	-0.4351788705	-3.3978577284	 0.138658
