15
gdb 16882	4.0361	2.02702	1.58342	4.9154	60.95	-0.2437	0.0462	0.2899	800.8403	0.121599	-399.83037	-399.823932	-399.822988	-399.860973	24.926	
O	-0.0220387446	-0.0321197998	 0.2049680897	-0.381984
C	-0.0218834965	 1.1508296363	-0.0192823165	 0.444584
N	-1.1626398606	 1.9180268667	-0.0862452167	-0.361772
C	-1.1677504448	 3.3510765889	 0.0404018644	 0.022936
C	-0.3060380283	 4.0334688887	 1.0841471574	-0.312691
C	 0.0972453587	 4.0288163961	-0.3736529047	-0.048786
C	 1.1695511248	 3.0872712289	-0.8690984584	-0.092965
O	 1.1521388031	 1.8185820375	-0.2029128361	-0.244034
H	-1.9709266346	 1.4176677099	 0.2520819203	 0.258339
H	-2.1244469948	 3.7883725069	-0.2209596693	 0.108476
H	-0.6564956165	 4.9670613117	 1.5097577276	 0.120046
H	 0.2455181131	 3.3965669736	 1.7670052749	 0.138968
H	 0.0278726677	 4.9593725439	-0.9280428275	 0.101487
H	 1.046671687	 2.9258603522	-1.9486791058	 0.119255
H	 2.1749939764	 3.4810867986	-0.6971269994	 0.128141
