23
gdb 101669	3.97542	0.62137	0.61362	3.2245	78.67	-0.2563	0.0599	0.3161	1896.1222	0.203193	-462.554048	-462.54268	-462.541736	-462.591311	40.856	
C	-0.1077925414	 1.5939755919	 0.0843176017	-0.398507
C	-0.0195809396	 0.0661698518	-0.0189459246	 0.046162
C	-1.4115518838	-0.5653952833	 0.0450798431	-0.081363
O	-1.9967854571	-0.2392715134	 1.2969434116	-0.42209
C	 0.7089714551	-0.4059224552	-1.2895537961	-0.23243
C	 2.1887596956	-0.0273348937	-1.3584685022	 0.088263
O	 2.9292966126	-0.5140363804	-0.230173144	-0.436315
C	 2.870265959	-0.5167468648	-2.6394827283	-0.059163
O	 4.2455760154	-0.2047547168	-2.6304615404	-0.425509
H	 0.8800759228	 2.0512334919	 0.1861404315	 0.119959
H	-0.5873582258	 2.0195361943	-0.8063324567	 0.10324
H	-0.7032220002	 1.8750004273	 0.9553919708	 0.135976
H	 0.5385925026	-0.3054353801	 0.8493992867	 0.090216
H	-2.0260871856	-0.1900880601	-0.7910306853	 0.081523
H	-1.3276826813	-1.6580255648	-0.0763210353	 0.078158
H	-2.9035477259	-0.558239056	 1.2994891451	 0.287006
H	 0.6304163295	-1.5013099006	-1.3702952772	 0.082557
H	 0.2060078395	-0.0003884413	-2.1786155547	 0.10079
H	 2.3094210107	 1.0599405572	-1.3071477178	 0.102427
H	 2.7494309327	-1.4587418383	-0.1487054783	 0.281532
H	 2.7033178556	-1.6060004412	-2.7417439909	 0.068045
H	 2.425676261	-0.0356287766	-3.517903962	 0.105454
H	 4.5342148286	-0.3677039779	-1.7225181067	 0.284067
