27
gdb 57420	2.40482	1.08573	1.0431	0.0621	96.33	-0.2542	0.0733	0.3276	1424.3446	0.24926	-353.559116	-353.547759	-353.546814	-353.59483	43.961	
C	 0.6265303391	 2.2244082994	-0.7733057788	-0.421433
C	-0.0316964072	 0.8507450227	-0.5526591522	 0.230862
C	 0.1613961175	 0.4317347427	 0.9188413373	-0.397202
C	-1.5421831962	 0.9951534313	-0.8416056806	-0.39106
C	 0.4857726718	-0.2845297445	-1.4495281356	-0.00039
C	 0.9301566074	-0.1538059256	-2.8893768878	-0.359648
C	 1.9005877405	-0.6722894956	-1.8471807576	 0.322604
C	 3.1247593583	 0.1622680795	-1.5114572566	-0.461979
C	 2.1997352046	-2.1632636029	-1.8548687188	-0.444261
H	 1.663729903	 2.2478578707	-0.4328242574	 0.115934
H	 0.601223426	 2.5270094815	-1.8248245659	 0.110271
H	 0.0827416322	 2.9859782898	-0.2035829132	 0.106943
H	-0.2672654272	 1.1755517712	 1.6000097415	 0.103998
H	-0.3267548996	-0.5276237853	 1.1230521562	 0.105664
H	 1.2234235274	 0.3244625877	 1.1620764168	 0.112277
H	-1.7157448914	 1.295001048	-1.880383433	 0.112409
H	-2.0708732818	 0.0505175149	-0.6737441069	 0.105232
H	-1.9941642422	 1.7516131009	-0.1905538024	 0.10309
H	-0.1278456342	-1.1695608114	-1.2818435308	 0.071509
H	 0.5239743676	-0.8408357135	-3.6257131858	 0.100356
H	 1.1148068788	 0.8426955952	-3.2783132494	 0.104858
H	 2.9733799536	 1.2271347314	-1.689770577	 0.11832
H	 3.430143208	 0.0326245664	-0.4660480656	 0.11112
H	 3.9692546273	-0.1536555558	-2.1360342745	 0.109901
H	 2.9896794881	-2.4007616645	-2.5779555108	 0.109883
H	 2.5412121534	-2.5044735402	-0.8699209669	 0.111427
H	 1.3160366749	-2.7507453541	-2.1226360145	 0.109315
