16
gdb 25914	4.40296	1.07917	0.87642	2.6651	73.49	-0.2299	-0.0209	0.209	1278.2538	0.12559	-434.148486	-434.140067	-434.139123	-434.181885	30.87	
C	-0.0737885413	 1.499172788	 0.0531181329	-0.484874
C	 0.0350233859	 0.0124161578	-0.0236471737	 0.261408
C	-0.0517190032	-0.7976735016	-1.1176091038	-0.16872
N	 0.1069828594	-2.0970291234	-0.6508610721	-0.091396
C	 0.2962580485	-1.9906769919	 0.7122198241	 0.005821
N	 0.2586868947	-0.7529652105	 1.1165779361	-0.315231
C	 0.0893113429	-3.2448654047	-1.4825565948	 0.482902
N	 0.0312813121	-4.4291099518	-0.7956940901	-0.561571
O	 0.1532020117	-3.1535107325	-2.6850519563	-0.358387
H	 0.8374510503	 1.9361433709	 0.4750770373	 0.13743
H	-0.2368586658	 1.933053266	-0.9366592004	 0.122948
H	-0.9040132117	 1.7988883022	 0.701622518	 0.135506
H	-0.2083729463	-0.6123772436	-2.1656241228	 0.15696
H	 0.4967643854	-2.8492290619	 1.3351481054	 0.133367
H	-0.4000626706	-4.4631076429	 0.1132554886	 0.268252
H	-0.1016149819	-5.2383442903	-1.3814591383	 0.275586
