19
gdb 107731	4.07899	1.19348	1.12661	0.8545	75.35	-0.2142	0.0823	0.2965	1162.566	0.15718	-422.950251	-422.941726	-422.940781	-422.983236	32.65	
C	 0.1950211252	 1.2722883157	 0.2370434128	-0.258283
O	-0.1643076669	-0.0419269978	-0.1641247437	-0.280795
C	 0.5205075704	-0.4825807911	-1.2662024308	 0.38767
C	 0.3403768384	-0.0884123776	-2.7347711092	-0.341389
C	 1.2097275863	-1.3482228145	-3.0222824263	 0.418725
C	 1.2544476998	-2.0426592176	-4.3466037556	-0.5013
O	 2.5272527931	-0.9675937729	-2.4982817702	-0.328022
C	 1.9485224759	-1.0746325141	-1.2008111754	 0.018443
C	 0.7951843535	-1.9323080144	-1.6102702708	-0.28106
H	 1.2667126645	 1.3411082111	 0.4672280754	 0.114458
H	-0.0441609175	 2.0102710323	-0.5406782484	 0.11742
H	-0.3845870882	 1.4998879888	 1.1339624209	 0.128951
H	-0.6950675077	-0.2304746141	-3.0556661691	 0.105162
H	 0.7388883884	 0.8640322399	-3.0983858989	 0.096815
H	 1.6781268667	-1.3754803457	-5.1050875644	 0.133556
H	 1.8772698138	-2.9398438997	-4.2917440688	 0.132679
H	 0.2480280796	-2.3306139765	-4.6645404607	 0.12407
H	 2.5796774661	-1.0791771497	-0.3219552453	 0.108786
H	 0.3881139486	-2.872263712	-1.2644365516	 0.104117
