12
gdb 35598	3.99902	1.05976	0.91306	4.038	66.56	-0.3052	-0.0793	0.2259	1188.1387	0.078409	-431.686754	-431.679182	-431.678238	-431.71985	26.247	
N	-0.3540382846	-1.1651062329	-0.2649560963	-0.294545
C	-0.1374807291	-0.0387591221	-0.1305999087	 0.284863
C	 0.0849585216	 1.39651738	 0.0537660566	-0.063654
C	-0.4898345852	 1.9587183611	 1.3994327466	-0.209574
N	 0.6851914691	 2.4317716264	 2.1337276109	-0.283532
C	 1.6820058928	 2.2237438743	 1.3804770935	 0.332816
O	 1.5058785822	 1.6607884799	 0.1511863827	-0.242225
C	 3.0403258419	 2.5489135616	 1.7075315025	 0.297034
N	 4.1342484373	 2.8135506242	 1.9654392246	-0.29744
H	-0.291384536	 1.9318209538	-0.8213871599	 0.158654
H	-1.180578682	 2.7888164849	 1.2290250818	 0.153099
H	-1.0133538279	 1.1945313887	 1.9787302258	 0.164505
