20
gdb 6903	4.50493	1.01054	0.94441	0.2327	86.26	-0.2229	0.0573	0.2803	1343.7332	0.174514	-311.847603	-311.837768	-311.836824	-311.883189	35.119	
C	 0.0929283964	 1.4951066418	 0.0143258016	-0.498798
C	 0.0400598522	 0.0400613971	 0.0288252584	 0.080575
C	 0.0005187771	-1.1650338744	 0.043688925	 0.072634
C	-0.0313599509	-2.5989024455	 0.0460452728	-0.237465
C	-0.5290716137	-3.3676015151	 1.2667803202	-0.321162
C	-1.3441453087	-3.3851519988	 0.0031820989	 0.347525
C	-2.6503803736	-2.6185941828	-0.0220686035	-0.451486
C	-1.3432899146	-4.6565638785	-0.8233529236	-0.448332
H	 1.1158421803	 1.8526017439	-0.1499229616	 0.146158
H	-0.5339267823	 1.9146844672	-0.7809092236	 0.143825
H	-0.2527902639	 1.9175192881	 0.9647136835	 0.144363
H	 0.7928696042	-3.0664130449	-0.4871074285	 0.100273
H	 0.0187745265	-4.2603472346	 1.5503408483	 0.108854
H	-0.8905706158	-2.775771772	 2.1003306497	 0.116573
H	-2.5818046746	-1.6908040963	 0.5505301482	 0.125817
H	-2.9305746602	-2.3549418151	-1.048508177	 0.115211
H	-3.4606400366	-3.224720304	 0.3996155371	 0.110416
H	-2.1036080638	-5.3582493969	-0.4599384536	 0.11507
H	-1.5644220045	-4.4437171138	-1.8757186976	 0.117615
H	-0.3748116634	-5.1648914852	-0.7803913046	 0.112334
