20
gdb 126461	2.85849	1.22275	0.93055	3.1916	82.58	-0.2369	0.0035	0.2404	1325.6888	0.169443	-403.173012	-403.163072	-403.162128	-403.20845	35.143	
C	 0.1056791852	 1.5499641321	 0.1484289998	-0.37814
C	-0.088332713	 0.0467280733	-0.1142769739	-0.289833
C	 0.7029651367	-0.4499137104	-1.2873511763	 0.331138
N	 0.1068977653	-0.661686193	-2.435750578	-0.218744
O	 1.105361827	-1.0923774246	-3.307176067	-0.221187
C	 2.2810265045	-1.131961226	-2.6496573892	 0.360718
C	 3.4618896939	-1.5807563308	-3.4358556005	-0.493731
C	 2.1061543697	-0.7358742084	-1.3571336733	-0.005328
C	 3.1157368161	-0.633561014	-0.2573630434	-0.518889
H	 1.1530079261	 1.7914567645	 0.3551141097	 0.119612
H	-0.2082788005	 2.1357793753	-0.7201761711	 0.133714
H	-0.487998906	 1.8695231665	 1.010150234	 0.117141
H	 0.1972513177	-0.5218777345	 0.779079144	 0.106427
H	-1.145320015	-0.1614882066	-0.3037484545	 0.127827
H	 3.2927213022	-2.5740059572	-3.8644289425	 0.149144
H	 3.6658029353	-0.8954690504	-4.2656728098	 0.148909
H	 4.3499508777	-1.6240902251	-2.8022597793	 0.13634
H	 3.3035533486	 0.4063175689	 0.0343571638	 0.135054
H	 2.7832520932	-1.1637367178	 0.6423004129	 0.132922
H	 4.0745641653	-1.0664158216	-0.5554667455	 0.126906
