21
gdb 115476	4.8401	0.80332	0.73853	3.1782	82.09	-0.2304	0.014	0.2444	1592.583	0.182048	-424.233108	-424.223449	-424.222504	-424.268443	35.062	
C	-0.419126111	 1.4407675078	-0.1585884268	-0.375932
C	 0.1241378463	 0.007886991	-0.010634859	-0.292273
C	 0.9117877704	-0.4627843853	-1.1957714283	 0.31332
C	 2.2014246606	-0.7876743282	-1.2621044565	-0.235843
C	 2.5684830315	-1.2441785085	-2.6429911808	 0.066673
C	 3.01915816	-2.7058728692	-2.7402451034	-0.051925
O	 3.1576632577	-3.1015087292	-4.0889369505	-0.423763
O	 1.3554639085	-1.1030099003	-3.40364192	-0.294214
C	 0.2970910186	-0.6510866166	-2.5628535188	-0.159839
H	 0.3968909618	 2.1539627083	-0.309873237	 0.124978
H	-1.1018427505	 1.5278013599	-1.0094192306	 0.122625
H	-0.9687329661	 1.7378262494	 0.7394602547	 0.118541
H	 0.7518214045	-0.0551222787	 0.8845927861	 0.108629
H	-0.721429359	-0.6747303173	 0.1537506723	 0.108893
H	 2.9101767334	-0.759730176	-0.4432045557	 0.100985
H	 3.3415860456	-0.6153360978	-3.1121404367	 0.087598
H	 3.9972614305	-2.8332391651	-2.2626109909	 0.100892
H	 2.2925309384	-3.3361944107	-2.2017082228	 0.080228
H	 2.3389974335	-2.8289011059	-4.5217765218	 0.289914
H	-0.5216109788	-1.389060823	-2.5476736869	 0.102804
H	-0.120071806	 0.2815787755	-2.9723560665	 0.107708
