18
gdb 110662	3.47916	1.31259	1.20552	1.6547	77.71	-0.2131	-0.0457	0.1674	1076.8122	0.147683	-401.808952	-401.801358	-401.800414	-401.841038	29.998	
O	 0.6105673694	 0.5025675132	-0.4150160339	-0.415407
C	-0.2503080697	 0.4046715006	 0.7102691257	-0.086876
C	-1.599399478	-0.1802526852	 0.3297166788	-0.049253
C	-1.7438260971	-1.6955882893	-0.1368944524	-0.053076
C	-3.0624553762	-1.8153789821	 0.5109284286	-0.086794
N	-2.0794822418	-2.8193250389	 0.8513955238	-0.117538
C	-1.8660127281	-2.6468353447	 2.3172128854	-0.176468
C	-2.0514513229	-1.1478629841	 2.5332186795	-0.11414
C	-2.5980004857	-0.6419257706	 1.4085954881	-0.01663
H	 0.2471784144	 1.1651798663	-1.0111368772	 0.283543
H	 0.2596981861	-0.2535252453	 1.4202621699	 0.109598
H	-0.3846307613	 1.3800368152	 1.2044598578	 0.095452
H	-2.04242664	 0.4178331152	-0.4804313991	 0.076533
H	-1.4342849458	-2.0571572637	-1.111130914	 0.112172
H	-4.0484480531	-2.0338123826	 0.1179848138	 0.092917
H	-2.5601780047	-3.3316708005	 2.8213840078	 0.119527
H	-0.8490850168	-2.9233611396	 2.6196896036	 0.120979
H	-1.3614345586	-0.5975310438	 3.1656978237	 0.10546
