15
gdb 3756	3.91657	3.29111	1.82934	2.6165	63.26	-0.228	0.0294	0.2575	692.9022	0.126405	-304.728655	-304.721661	-304.720717	-304.759781	24.677	
C	 0.0217503762	 1.4028543067	-0.0062216853	-0.327004
N	 0.0078413391	-0.0428455059	 0.0320437436	-0.00076
N	-0.0277704494	-0.7402962568	-1.1262129872	-0.270458
C	-0.0324590517	-2.0149847093	-0.7491542524	-0.003619
C	-0.0001633316	-2.1454343203	 0.6525966814	-0.30107
C	 0.0254069582	-0.8480022144	 1.1308008532	 0.362999
C	 0.0647110612	-0.3124864999	 2.5241353327	-0.503298
H	 0.9249695757	 1.803172746	 0.4664443073	 0.135137
H	 0.0044852574	 1.6971348946	-1.0547879002	 0.162777
H	-0.8541755612	 1.821530551	 0.5007837693	 0.135147
H	-0.0588277918	-2.7924377884	-1.4987559426	 0.106421
H	 0.0042898322	-3.0486577224	 1.2417508901	 0.096149
H	 0.9593293229	 0.2948838281	 2.7072609225	 0.133872
H	-0.8053378349	 0.3162178102	 2.7488306773	 0.133839
H	 0.0715991077	-1.1377321191	 3.2390777103	 0.139868
