18
gdb 102271	2.25874	1.17064	0.8572	2.933	70.23	-0.2611	-0.043	0.2182	1359.4588	0.144118	-476.22794	-476.217694	-476.21675	-476.264252	35.331	
C	-0.3383859211	 1.4854905178	 0.1691950789	-0.445435
C	-0.0736573408	 0.0225220859	-0.0361845682	 0.408973
N	 1.0561934785	-0.4155305389	-0.4011109498	-0.510066
O	-1.2129144126	-0.6954066321	 0.2352197234	-0.26777
C	-1.1773676991	-2.1130663401	 0.0973737367	-0.025983
C	-2.4927362155	-2.6244417915	 0.6976541026	-0.083988
O	-3.6139810216	-2.0932402509	 0.0256474026	-0.418846
C	-1.076781918	-2.520323614	-1.374263041	 0.160259
O	-0.7187853705	-3.6140844697	-1.719573439	-0.24317
H	 0.5669243771	 2.0522864044	-0.0414019134	 0.155508
H	-1.1454652578	 1.8206263732	-0.4898695347	 0.14029
H	-0.6608168393	 1.6706023591	 1.1984776168	 0.142265
H	 1.1011759537	-1.4283356622	-0.4988737478	 0.231523
H	-0.3340481589	-2.5490686481	 0.648042518	 0.113848
H	-2.5294045462	-3.7112085031	 0.5826664503	 0.139483
H	-2.5021005418	-2.3863107646	 1.7713862556	 0.107508
H	-3.5638057585	-1.1347591467	 0.1134142625	 0.294932
H	-1.3883393575	-1.7345906086	-2.0948922936	 0.100668
