18
gdb 71310	3.27494	1.47444	1.17251	4.0077	80.83	-0.2968	0.0279	0.3247	1062.5455	0.148177	-364.76084	-364.753218	-364.752274	-364.792713	30.01	
C	 0.049066316	 1.4972993667	-0.1337988083	-0.531343
C	 0.0493960651	-0.0070644707	-0.103863556	 0.347072
C	 0.5770691518	-0.9715393268	-1.1916443571	-0.308995
C	 0.059762357	-1.906617064	-0.0868942918	-0.055328
C	 0.5557026525	-0.9558785173	 1.0514823415	-0.082126
C	-0.8264457223	-1.0028180041	 1.7545938326	-0.179747
C	-1.2388430303	 0.1095284778	 2.5974208779	 0.273786
N	-1.5697017247	 0.9877878457	 3.2738896505	-0.34468
C	-1.1516831069	-0.9724660876	 0.2379513933	-0.082137
H	 1.0713844856	 1.879170537	-0.2306249629	 0.122994
H	-0.5247645482	 1.8636534622	-0.9921913093	 0.122987
H	-0.3878412541	 1.9232827311	 0.7732458714	 0.153872
H	 0.0332339178	-0.9827030517	-2.1419373913	 0.097089
H	 1.6577408073	-0.9669332823	-1.3678991613	 0.09709
H	 0.0492958994	-2.9960528002	-0.0427171753	 0.07969
H	 1.5409300815	-0.9500612757	 1.5185410741	 0.087494
H	-1.0568525757	-1.9477065706	 2.257416803	 0.114787
H	-2.1350044952	-0.9857800495	-0.2329537526	 0.087496
