25
gdb 121845	3.93569	0.70558	0.69553	2.1449	86.76	-0.2541	0.0765	0.3306	1820.7576	0.225484	-426.634145	-426.622382	-426.621438	-426.671359	42.591	
C	-0.0701306428	 1.4685487316	-0.276584215	-0.387621
C	-0.019437089	-0.0361200502	-0.0740575813	-0.028189
O	-1.3428497016	-0.5236519537	 0.0363877841	-0.266246
C	-1.4284047443	-1.9270360947	 0.2059148451	-0.090681
C	-2.9158831585	-2.3104153192	 0.1500499424	 0.355018
C	-3.6650346873	-1.7018400089	 1.3472905072	-0.425049
O	-3.4547811774	-1.8050068545	-1.0720983205	-0.477486
C	-3.0428613	-3.8409393843	 0.0893763194	-0.182678
C	-4.4789410168	-4.3528088895	-0.0584778056	-0.39613
H	 0.9418198624	 1.8748424457	-0.3641923903	 0.118276
H	-0.6221918357	 1.7158511444	-1.1880128922	 0.125795
H	-0.5671973954	 1.9538608911	 0.5681185211	 0.12837
H	 0.4928326882	-0.5258566826	-0.9186913209	 0.090893
H	 0.5495872868	-0.2855790954	 0.8366270248	 0.090099
H	-0.8864794011	-2.4372205114	-0.6059133456	 0.088161
H	-0.9768496902	-2.2302875725	 1.1642313811	 0.085554
H	-3.4630970964	-0.6292320582	 1.4072235898	 0.121101
H	-4.7416378676	-1.8441458712	 1.2336421219	 0.121965
H	-3.3492248703	-2.1609992082	 2.2906823136	 0.103447
H	-3.1203671069	-0.9028010644	-1.1497950091	 0.280944
H	-2.4519061733	-4.1869929929	-0.7668864379	 0.097621
H	-2.5812241261	-4.2684549329	 0.9884590365	 0.088262
H	-4.9612354455	-3.8911020232	-0.9235535819	 0.138867
H	-4.4854344077	-5.4378305426	-0.200549959	 0.106423
H	-5.0855700433	-4.1342663022	 0.8255546422	 0.113283
