14
gdb 131658	3.64474	1.14574	0.90918	2.3847	68.21	-0.2536	-0.0727	0.1809	1202.4527	0.100538	-473.806992	-473.799152	-473.798208	-473.840043	28.406	
O	 0.0627318135	 1.4289895095	 0.0870138016	-0.402287
C	 0.0497407055	 0.0264230946	-0.0727689449	-0.147729
C	-1.3501751485	-0.5332698657	-0.1247671462	 0.42143
C	-1.8809946792	-1.2846907981	-1.1107129871	-0.36425
C	-3.2463659359	-1.7530887651	-0.9917101961	 0.376887
O	-3.8509041571	-2.4465442824	-1.7918648734	-0.354826
C	-3.8857059016	-1.2766196208	 0.2609834509	-0.054845
N	-3.356579576	-0.5546192467	 1.1811270893	-0.044247
O	-2.0281170153	-0.1783063619	 0.9892873084	-0.285588
H	-0.383167917	 1.6341223926	 0.9162108106	 0.301758
H	 0.5533518413	-0.1956471202	-1.0164313746	 0.138313
H	 0.6012594027	-0.4830042955	 0.7335889666	 0.122006
H	-1.2973129776	-1.5348106795	-1.9877857944	 0.13346
H	-4.920626535	-1.5540956708	 0.4447584194	 0.159917
