14
gdb 25607	7.43971	0.74428	0.67945	2.702	64.5	-0.2302	-0.0353	0.1949	1516.7307	0.099668	-473.840965	-473.832768	-473.831823	-473.876058	27.642	
O	-0.1794347974	 0.1880206727	 0.5462006662	-0.234365
C	 0.0653965133	 1.1104534982	-0.1834424415	 0.139873
C	 1.3776046618	 1.871416418	-0.1425816907	-0.159797
O	 1.306315506	 2.8815612103	-1.1407170615	-0.280741
C	 2.3793608858	 3.6802888427	-1.2684861391	 0.35513
C	 2.5337637833	 4.703824196	-2.1500395547	-0.154543
O	 3.7804389974	 5.235624659	-1.9215660464	-0.134466
C	 4.2908571149	 4.5005143899	-0.9228142023	 0.088662
N	 3.5113622626	 3.5592689088	-0.4873499513	-0.336634
H	-0.652480268	 1.4807774946	-0.9479212619	 0.099598
H	 1.5258003986	 2.3022834695	 0.855312623	 0.15206
H	 2.2116516247	 1.1829262872	-0.3265452255	 0.151751
H	 1.9354375773	 5.1472238037	-2.923372923	 0.154013
H	 5.2814963397	 4.7531263294	-0.5798781015	 0.159459
