19
gdb 100225	2.47131	1.19531	1.05275	1.0592	83.47	-0.2561	0.0314	0.2875	1246.7606	0.153885	-385.810867	-385.800178	-385.799233	-385.846195	39.062	
C	-0.0591092242	 1.3605431558	-0.0908805487	-0.251044
O	-0.0295821669	-0.0503855589	 0.0138139151	-0.252371
C	 0.6473235133	-0.5994227465	 1.1370442458	 0.143418
C	 0.4970719531	-2.1181608493	 0.9807015765	-0.413819
C	 2.1575322128	-0.1904364254	 1.1683485873	-0.397206
C	 2.8671058772	-0.494484432	-0.0656896452	 0.33198
C	 3.4564465554	-0.7382613367	-1.0843928219	-0.462163
C	 0.0307238407	-0.1552853462	 2.4009676812	 0.346505
C	-0.4611333	 0.2104786189	 3.4352665733	-0.478649
H	 0.9270715455	 1.7787007431	-0.3331653673	 0.114971
H	-0.7418981113	 1.590620152	-0.9119122155	 0.129731
H	-0.4352242497	 1.8297920412	 0.82746007	 0.117948
H	 0.9857329159	-2.434295795	 0.0565131313	 0.140242
H	 0.9494025742	-2.6397741811	 1.8276185964	 0.120535
H	-0.5626554814	-2.3752079081	 0.9305010696	 0.133897
H	 2.2335929188	 0.8795248065	 1.3888855963	 0.138429
H	 2.6250947519	-0.7069346083	 2.0141508974	 0.1419
H	 3.9782136071	-0.9530852031	-1.9839132484	 0.196752
H	-0.9065983024	 0.5252388431	 4.346971767	 0.198943
