17
gdb 35171	3.80301	1.2196	1.09989	1.8115	79.8	-0.2555	0.0174	0.2729	1132.3327	0.135144	-384.575687	-384.568104	-384.56716	-384.607744	30.033	
C	-0.1098460372	-1.2193887753	 0.0851326234	-0.425917
C	-0.0417912279	-0.0194664373	 0.0551470353	 0.351446
C	 0.0243066899	 1.4139140231	-0.0113463299	-0.356887
O	 0.6126308967	 2.1063134295	 1.1378897738	-0.308699
C	 1.2981728678	 2.1348822622	-0.0807647375	 0.590969
C	 2.7574135089	 1.7561778892	-0.3569865613	-0.155287
C	 2.5075953257	 2.314754807	-1.7931906366	-0.221056
C	 1.8294407695	 3.354692068	-0.8466276005	-0.15659
C	 3.0957088823	 3.225516075	 0.0632247304	-0.227856
H	-0.1685641284	-2.2792844537	 0.1202694769	 0.202793
H	-0.8704184232	 1.9049841924	-0.3922925944	 0.121305
H	 3.27642645	 0.8416581188	-0.0757888039	 0.089471
H	 3.3966091532	 2.6709139712	-2.3178946937	 0.099768
H	 1.8545473671	 1.7328993298	-2.4479362307	 0.102392
H	 1.2938357641	 4.2620966371	-1.1228481701	 0.083521
H	 2.9727626706	 3.4768097506	 1.1181606683	 0.115142
H	 4.0201074306	 3.6360459724	-0.3505885095	 0.095485
