17
gdb 30107	3.89751	1.13996	1.01175	2.3146	76.2	-0.2311	0.0021	0.2332	1201.158	0.137433	-418.013856	-418.005993	-418.005049	-418.047036	29.258	
C	 0.3181301827	 1.491413278	-0.483794673	-0.407148
C	 0.0705124078	 0.07225833	-0.040113399	 0.009102
N	 1.2182394561	-0.8364992381	-0.0207251571	-0.318631
C	 0.5728101866	-0.4899992878	 1.2592468631	-0.168834
C	 1.3547422851	 0.2751058668	 2.245379661	 0.446482
N	 2.2914861925	 1.1580772253	 2.0853125715	-0.309062
C	 2.6337662447	 1.5441350896	 3.3737351382	-0.10941
C	 1.8727381777	 0.8623284131	 4.2595492301	-0.050209
O	 1.0428378185	 0.0399370523	 3.5505276044	-0.179438
H	 1.2684829216	 1.8559962934	-0.0909934857	 0.166904
H	 0.3453266547	 1.5430970121	-1.5774423779	 0.117826
H	-0.4851930195	 2.1489299142	-0.1341637645	 0.112608
H	-0.8833982098	-0.348033902	-0.3603583395	 0.086728
H	 0.9496375791	-1.7779422757	-0.2943525249	 0.236183
H	-0.0577896511	-1.2360552718	 1.735797753	 0.097846
H	 3.401080872	 2.2782929934	 3.5614018303	 0.124508
H	 1.7874916315	 0.827046487	 5.33161249	 0.144544
