16
gdb 98012	4.54679	0.6107	0.57327	3.271	80.78	-0.267	-0.0686	0.1983	1928.1919	0.121052	-437.902249	-437.89164	-437.890696	-437.940611	34.513	
C	-0.0235784548	 1.4095234027	 0.3044029199	-0.341282
N	-0.1523222161	-0.0330995598	 0.2271395656	-0.312294
C	-1.1886215716	-0.640294817	-0.4141829364	 0.264967
O	-2.1006065026	-0.057301237	-0.9719737293	-0.350696
C	-1.122189553	-2.0980773593	-0.3751634309	-0.053289
C	-1.1132275916	-3.3060310368	-0.3830593649	 0.133806
C	-1.1014715997	-4.7620414858	-0.4003184115	 0.242727
C	-2.3092595564	-5.4271904622	 0.2213044364	-0.480353
O	-0.175829744	-5.3724332938	-0.8880828822	-0.266815
H	 0.8555219042	 1.761015557	-0.2469557637	 0.13602
H	-0.9184676379	 1.8433559414	-0.14222558	 0.176859
H	 0.0573144448	 1.7393465068	 1.3452093597	 0.133491
H	 0.5692677355	-0.6176958926	 0.6171493034	 0.261443
H	-3.2177717457	-5.1193644681	-0.3076075058	 0.157592
H	-2.1946431755	-6.5108374626	 0.1718303028	 0.147766
H	-2.4226698657	-5.1064527627	 1.262515397	 0.150061
