15
gdb 4148	3.32006	1.53024	1.11568	0.9885	71.35	-0.2476	0.0006	0.2482	1034.6524	0.116847	-362.572085	-362.564007	-362.563063	-362.604856	29.646	
O	-0.136271401	 1.3623559656	 0.035831893	-0.390232
N	 0.0240588667	-0.0336992563	 0.0723559879	-0.230201
C	-1.0935553287	-0.6197542949	 0.0069527459	 0.418817
C	-2.541142358	-0.2183282811	-0.1763234316	-0.320648
C	-2.8569970569	-1.7125868744	-0.4901735626	-0.230974
C	-1.4031304396	-2.116877897	-0.0301204833	-0.260714
C	-0.620295819	-2.9813283347	-0.888944534	 0.329409
C	 0.0102679248	-3.7006815601	-1.6167037115	-0.448416
H	 0.7758110443	 1.6709198039	 0.0661834591	 0.309089
H	-3.0024120093	 0.1547604949	 0.7437160268	 0.128812
H	-2.7283429034	 0.5086752204	-0.9699155214	 0.134706
H	-3.6682842076	-2.1731423275	 0.0742950083	 0.113081
H	-3.0052457451	-1.8990534811	-1.5541704728	 0.126832
H	-1.4236598544	-2.5221506606	 0.989555848	 0.123327
H	 0.5774219373	-4.3309353771	-2.2557599018	 0.197112
