21
gdb 61596	2.49497	1.08394	0.85819	1.8503	79.63	-0.2343	0.0674	0.3017	1412.0383	0.182201	-420.33318	-420.323628	-420.322684	-420.36843	35.051	
O	 1.8058771601	 1.5645654355	 0.5422861576	-0.426768
C	 0.8466118049	 0.6157040457	 0.0900630205	 0.083699
C	 1.2967408159	-0.0358003753	-1.2298794052	-0.169498
N	 0.1519318226	-0.6183208021	-1.9253906234	-0.062235
C	-0.4751177437	 0.2125889966	-2.9525745083	-0.22459
C	 0.3515103741	-0.9674374065	-3.3265631343	-0.216884
C	 0.5412945176	-0.4043962855	 1.1732540441	 0.001197
C	-0.7001168997	-0.3075222755	 1.9792299653	-0.241404
N	-0.5276728674	-1.3935048764	 1.0026091239	-0.310339
H	 2.5853801689	 1.0802324818	 0.836133577	 0.281076
H	-0.0568189062	 1.2012809197	-0.120349665	 0.088716
H	 1.8122427759	 0.7300369487	-1.8344360699	 0.088664
H	 2.0175067722	-0.8385576117	-1.025336894	 0.100275
H	-1.5587784708	 0.1656340362	-3.0058003249	 0.119724
H	-0.0499793142	 1.1976084427	-3.1386085976	 0.117283
H	 1.3289279316	-0.7687095999	-3.7630367789	 0.112519
H	-0.1165263845	-1.8902426621	-3.656452018	 0.122398
H	 1.439685349	-0.8110067126	 1.6438540508	 0.073712
H	-0.7077897701	-0.6243383868	 3.0185715167	 0.113842
H	-1.3829966262	 0.5081351645	 1.7517537388	 0.109337
H	-1.0184535502	-1.2033686869	 0.131785535	 0.239274
