21
gdb 103148	1.97318	1.48851	1.19445	4.0728	78.06	-0.2619	0.0168	0.2786	1198.9486	0.180765	-424.271549	-424.261586	-424.260642	-424.306169	36.567	
C	-0.0145530622	 1.6483162666	 0.0863558014	-0.398432
C	-0.0226445222	 0.1368886899	-0.1788959466	-0.236271
C	-1.4188840924	-0.5026326383	-0.1047529451	 0.080288
C	-2.4026768692	 0.095077527	-1.1149126771	-0.455849
C	-1.4869407863	-2.0600952697	-0.002908829	 0.107085
C	-0.2390656486	-2.9143502747	-0.0270715395	-0.413244
O	-2.0388496934	-1.9415222431	 1.3595884431	-0.265643
C	-1.9938592104	-0.5747676572	 1.3172042401	 0.45505
O	-2.3221564224	 0.1894530406	 2.1706527931	-0.343455
H	 1.0137671083	 2.0190991821	 0.1275419174	 0.115347
H	-0.532685594	 2.2043147056	-0.7001447766	 0.119377
H	-0.5001764695	 1.8776730229	 1.0389764537	 0.151365
H	 0.4036182376	-0.0726418803	-1.1689334763	 0.099269
H	 0.6362527822	-0.3474491773	 0.5492288057	 0.107137
H	-2.0081657469	 0.0065879317	-2.1332714702	 0.119888
H	-3.3690003143	-0.4171947895	-1.0785258168	 0.127085
H	-2.5822021435	 1.1527875859	-0.9088776729	 0.142821
H	-2.2571327892	-2.4863614811	-0.6534934277	 0.092686
H	 0.5165611175	-2.5519359226	 0.6734310044	 0.13323
H	-0.4883770242	-3.9439118567	 0.2459916691	 0.135764
H	 0.1929409932	-2.926141162	-1.0331326501	 0.126502
