20
gdb 126504	3.03503	0.99076	0.79653	4.7342	81.96	-0.2365	0.0069	0.2434	1484.4626	0.171122	-399.349776	-399.340062	-399.339118	-399.38625	34.052	
C	-0.0657836448	 1.6617424957	-0.1694027871	-0.381804
C	-0.0073286086	 0.1330802908	-0.1497935981	-0.156734
C	-1.390590567	-0.5094094873	 0.0829222195	-0.315659
C	-1.3628990826	-2.0026559012	 0.120668813	 0.263778
C	-1.3216471455	-2.9205019744	 1.1525311484	 0.224556
C	-1.3096831535	-2.6996052086	 2.630207976	-0.499153
N	-1.284596066	-4.1764547206	 0.6139692671	-0.247453
N	-1.2978951711	-4.0964366853	-0.684666973	-0.127529
N	-1.3412264494	-2.7865241692	-0.9894488903	-0.230682
H	 0.9255729223	 2.0934532334	-0.3354368535	 0.119636
H	-0.7252095164	 2.0246370447	-0.9657574512	 0.116216
H	-0.446421083	 2.0557547712	 0.7793735644	 0.119293
H	 0.4073989723	-0.2368622392	-1.0957152538	 0.09901
H	 0.6780835426	-0.2076515497	 0.6348228549	 0.111636
H	-1.8004127962	-0.1458999898	 1.0320353763	 0.120103
H	-2.0836585592	-0.1675350438	-0.6973921433	 0.108161
H	-1.8869200269	-1.8130002245	 2.9104610762	 0.122086
H	-1.7416851321	-3.5663456009	 3.1359220216	 0.147794
H	-0.2923999569	-2.5659266485	 3.0164622065	 0.133264
H	-1.3764522482	-2.5084069029	-1.9574604536	 0.273482
