13
gdb 123682	4.07222	1.60764	1.25207	3.9847	63.88	-0.256	-0.0506	0.2054	915.5032	0.089859	-452.693462	-452.686989	-452.686045	-452.724388	24.497	
C	-0.0634036594	 1.5162815566	-0.0000674991	-0.382878
C	 1.4372414807	 1.8780206474	-0.0288920372	 0.060768
O	 2.1841531851	 1.4454688851	 1.1059733045	-0.233508
C	 2.2837471878	 0.6553883972	-0.0919581452	-0.136818
C	 1.3005277306	-0.4572041953	-0.073610866	 0.418961
C	 0.0251088182	 0.0188505241	 0.0079920101	 0.222042
N	-0.7918176049	-1.0681463113	 0.1009544128	-0.171592
N	-0.1681953215	-2.1385059579	 0.0567471318	-0.038898
O	 1.3463519159	-1.7552507895	-0.0625991878	-0.266517
H	-0.5464920954	 1.9350060338	 0.8885943247	 0.148667
H	-0.5752911572	 1.917445239	-0.8815374661	 0.133391
H	 1.7559360745	 2.8227976177	-0.45970807	 0.117142
H	 3.2610016457	 0.591374503	-0.5555414524	 0.129241
