17
gdb 107238	3.05761	1.41384	1.11012	2.4765	67.52	-0.2502	0.0418	0.292	1098.0671	0.133134	-458.866041	-458.857663	-458.856719	-458.898828	31.883	
C	-0.1375298977	 1.5549198727	 0.2419663739	-0.514442
C	 0.1123656192	 0.0952295873	 0.0586915673	 0.360931
O	-0.7817809921	-0.8599657012	 0.6293630073	-0.257829
C	 0.6102879682	-0.971129012	 0.9322698169	-0.106209
C	 1.3271603382	-1.6620373873	-0.2915959526	-0.105361
O	 0.3294302711	-1.9513992757	-1.2824748721	-0.274834
C	 0.8341438473	-0.6125038663	-1.1794403321	 0.334528
C	 1.4040701189	-0.0076286613	-2.4281662789	-0.184166
O	 2.1770463448	-0.9457466121	-3.1436042657	-0.41214
H	 0.761265942	 2.1370719521	 0.013408821	 0.129876
H	-0.9403053776	 1.90007497	-0.4190033734	 0.138731
H	-0.4329003095	 1.7603640575	 1.2741882782	 0.141759
H	 0.9173835854	-0.9708498927	 1.9710442687	 0.113624
H	 2.2451643334	-2.2354518472	-0.2977503108	 0.121541
H	 0.5801162959	 0.3959042746	-3.04175273	 0.101817
H	 2.0597950749	 0.8332554923	-2.1744167737	 0.117519
H	 1.6633803075	-1.7637207508	-3.1461710539	 0.294652
