17
gdb 10492	2.6549	1.67476	1.24257	3.3331	68.28	-0.2789	0.035	0.3139	1008.5782	0.141463	-363.861286	-363.852718	-363.851774	-363.894692	30.903	
O	 0.1788445504	-1.1579731922	 1.62077608	-0.424703
C	 0.0512566629	-0.5473989126	 0.3420451172	-0.157364
C	-1.4070834253	-0.5836972851	-0.0491938487	 0.380508
C	-2.3284353785	 0.166594344	 0.9094263182	-0.413035
C	-2.0792309392	 1.6101497535	 0.9143746225	 0.265422
N	-1.8624932091	 2.7454173947	 0.9073428756	-0.318723
C	-1.7498027813	-0.602156781	-1.5164016069	-0.310793
C	-1.9437664974	-1.8437189915	-0.6806268172	-0.311342
H	 1.0381034618	-0.923963585	 1.9831787282	 0.293088
H	 0.4019108908	 0.4953647879	 0.3657725523	 0.11361
H	 0.6452997137	-1.0810369924	-0.4159737432	 0.087697
H	-3.3773739988	-0.0024906012	 0.6451879832	 0.142866
H	-2.1789312029	-0.215156146	 1.9248532784	 0.168885
H	-2.6294472605	-0.0553234801	-1.8383399175	 0.122614
H	-0.9341779758	-0.5841975779	-2.2312392975	 0.120313
H	-1.2548000691	-2.6699214084	-0.8159134461	 0.124734
H	-2.9572092517	-2.1469013066	-0.4405795287	 0.116223
