20
gdb 62658	2.6241	1.62943	1.47612	2.056	78.96	-0.236	0.0839	0.3199	1018.7834	0.169787	-403.06282	-403.054395	-403.05345	-403.095028	33.658	
C	-0.1714669817	 1.6456151535	-0.0157075477	-0.461027
C	-0.0244175954	 0.1397766809	-0.0055787697	 0.404316
O	-1.2700689203	-0.4289990857	-0.3284680775	-0.495567
C	 1.2049869932	-0.516984182	-0.6565229966	-0.075619
C	 2.1493218429	-0.2369878458	 0.5471289396	-0.122812
C	 2.4879837823	-1.723484241	 0.5937098822	-0.199806
N	 1.0125848627	-1.7896009064	 0.2193295727	-0.22761
C	 0.7394879498	-0.5509436615	 1.1500782007	 0.302465
C	 0.3235287023	-0.7236619163	 2.579466686	-0.526938
H	 0.7697186807	 2.1432468468	 0.2319472492	 0.116439
H	-0.4958452433	 1.9844268893	-1.0041635587	 0.128755
H	-0.9316967178	 1.9543966997	 0.7082613814	 0.127714
H	-1.134662149	-1.3866309079	-0.3337492901	 0.291702
H	 1.4793892824	-0.6211680093	-1.7086302709	 0.078201
H	 2.779769149	 0.6398559065	 0.7241633418	 0.066687
H	 3.1483597975	-2.1258400151	-0.1814640915	 0.101981
H	 2.7197764859	-2.1801555048	 1.5612951912	 0.101286
H	 1.0024416138	-1.3893659718	 3.1222543678	 0.125908
H	 0.3118056906	 0.2424707505	 3.0952682418	 0.127483
H	-0.6848962954	-1.1465960995	 2.6278790185	 0.136441
