16
gdb 75735	2.59601	1.64537	1.01423	4.6417	77.09	-0.2302	-0.0582	0.172	1115.6755	0.125559	-434.131945	-434.123323	-434.122378	-434.165031	31.909	
C	-0.0371019793	 1.4287247733	 0.071364983	-0.338619
N	-0.014686184	-0.0159905881	 0.0317638849	-0.135215
C	-0.020688044	-0.7774936103	-1.1556925822	 0.422494
O	-0.0764524665	-0.3024419803	-2.2676714223	-0.375864
C	 0.0424729987	-2.1907277213	-0.742229231	-0.368552
C	 0.0850742217	-2.242223484	 0.6054223587	 0.313204
N	 0.1855862656	-3.300507563	 1.460347445	-0.600359
C	 0.0749917326	-0.8312052763	 1.1383626751	 0.335687
N	 0.1383223733	-0.3890144446	 2.3324641136	-0.545514
H	 0.8618231799	 1.8194089136	 0.5578279186	 0.138917
H	-0.0818696976	 1.7763117191	-0.9616599433	 0.158836
H	-0.9101404188	 1.7901839182	 0.6229720396	 0.137408
H	 0.0355952025	-3.0037560338	-1.4519065693	 0.115644
H	-0.0029204521	-4.2166460943	 1.0848512121	 0.268463
H	-0.1570309281	-3.1680699933	 2.3994567708	 0.258223
H	 0.2340882761	-1.1445380347	 3.0094579667	 0.215247
