21
gdb 94864	2.85736	1.67027	1.34177	1.3278	82.86	-0.2416	0.0874	0.329	1038.9253	0.184852	-387.01919	-387.011733	-387.010789	-387.050697	30.84	
C	-0.1600484993	 1.6053756801	-0.2178369934	-0.404203
C	-0.0298836295	 0.1078135338	 0.0291797659	 0.105312
O	 0.6134862352	-0.5106882993	-1.124150201	-0.292982
C	 1.4765641362	-1.5944500454	-0.7341324724	-0.21142
C	 1.9647419728	-1.1106115729	 0.6057618415	 0.324332
C	 2.440085885	-1.4677342861	 2.0459522932	-0.312118
C	 1.9736977448	 0.0400060626	 2.0854507464	-0.090167
C	 2.7529497591	 0.2282902134	 0.7639362569	-0.243335
C	 0.731672264	-0.4395829452	 1.2534562029	-0.030103
H	 0.8048822655	 2.1121879471	-0.2763881399	 0.124131
H	-0.6901747777	 1.7790951742	-1.1589417084	 0.126353
H	-0.7398501014	 2.0639093178	 0.5898920339	 0.114742
H	-1.0492733864	-0.3016753741	 0.0917525827	 0.069417
H	 0.923555151	-2.5437882628	-0.6567944826	 0.090096
H	 2.2389580976	-1.6877085206	-1.5126296363	 0.108159
H	 1.8340523815	-2.1855840923	 2.6047336531	 0.096007
H	 3.5098992581	-1.6424982399	 2.186964187	 0.094186
H	 1.9802491889	 0.6899962318	 2.9621188084	 0.072159
H	 3.8409560803	 0.1333527403	 0.8254695834	 0.085801
H	 2.469250833	 1.0538479803	 0.1162979565	 0.107271
H	 0.0918289615	-1.1250447927	 1.8181546323	 0.066363
