16
gdb 34480	3.82648	1.48996	1.24125	0.7945	87.01	-0.2079	-0.0688	0.1391	997.0757	0.123901	-363.457658	-363.450562	-363.449618	-363.488926	28.7	
C	-0.2262416836	-0.9816919047	 0.3580261983	-0.453209
C	-0.1606862081	 0.1812818624	 0.0367184786	 0.293531
C	-0.0322475827	 1.5155176694	-0.3822991998	 0.055699
C	-1.0575800394	 2.4020383158	-0.5331872695	-0.066552
C	-1.8094638106	 2.7032843289	 0.7713192424	-0.272215
C	-0.7173301145	 3.8484161738	 0.8855331751	-0.04156
C	-0.4773167754	 3.8350088064	-0.5723301998	-0.081159
N	 0.6778424614	 3.6822282807	 0.2829194309	-0.111594
C	 1.2213920097	 2.3420141752	-0.0439809984	-0.226889
H	-0.297848968	-2.002582277	 0.6413707487	 0.202239
H	-2.7870600173	 3.1889406404	 0.6828629241	 0.116768
H	-1.8468985746	 1.8975756703	 1.507558675	 0.120167
H	-0.8032460551	 4.7065885153	 1.5439685797	 0.111251
H	-0.5755528365	 4.598082454	-1.335112217	 0.096826
H	 1.7256879375	 1.8764742925	 0.808598658	 0.132382
H	 1.9585875971	 2.4755193767	-0.8449925662	 0.124315
