15
gdb 42713	2.65595	2.05689	1.68419	3.0206	69.91	-0.2463	-0.0125	0.2338	845.1326	0.113245	-420.547505	-420.541054	-420.540109	-420.578065	26.198	
O	 0.1415779216	 0.0643134949	 0.2286683328	-0.305314
C	 0.043067478	 1.2345767188	 0.0919773729	 0.42312
C	-1.0673301212	 2.3252319987	-0.0836698834	-0.264209
C	-0.731283729	 3.0334328614	 1.2477135267	-0.089837
C	 0.6212916702	 3.1342765971	 1.3227481241	-0.22423
C	 1.0310512394	 2.5081784714	 0.0237592439	 0.140099
C	 1.9520950764	 2.3759045964	-1.1840150291	-0.198095
O	 0.7526636382	 2.4219157023	-2.0413793311	-0.310344
C	 0.0000592376	 3.0445591664	-0.9639600555	 0.150846
H	-2.1123175497	 2.1408767671	-0.3274416843	 0.090035
H	-1.4604179505	 3.2462424285	 2.0161494802	 0.121037
H	 1.2249619192	 3.458131231	 2.1581323168	 0.122706
H	 2.6083751663	 3.2314328225	-1.3826145283	 0.117823
H	 2.4952007278	 1.4354893887	-1.3035478255	 0.13528
H	-0.1330379443	 4.1206443647	-1.1086556803	 0.091083
