19
gdb 63253	2.62129	1.32033	1.09858	4.6677	75.8	-0.2302	-0.0857	0.1445	1176.225	0.157097	-423.075412	-423.066417	-423.065472	-423.108911	34.253	
C	 0.1842369851	 1.4306880731	 0.1666667335	-0.418836
C	-0.0712673969	-0.0777190587	-0.007976298	 0.248159
C	-1.5724087275	-0.3475122828	-0.1377338756	-0.431562
C	 0.7267996668	-0.5994962205	-1.2345674642	-0.357092
C	 2.1376426411	-0.8442843009	-0.7260614467	 0.315325
O	 3.1620196105	-0.9073162016	-1.3487941005	-0.280311
C	 2.0326327725	-1.006117321	 0.8252373592	 0.315326
O	 2.9656175948	-1.2099953506	 1.5526235256	-0.280312
C	 0.5633249343	-0.8514182085	 1.1804563684	-0.357093
H	 1.2533057701	 1.6547205455	 0.2624052295	 0.126208
H	-0.1943941938	 1.99304078	-0.6930592673	 0.12213
H	-0.3134211285	 1.8096238882	 1.065262868	 0.12213
H	-1.992459717	 0.1771817063	-1.0028535186	 0.118947
H	-1.7752294081	-1.4166131558	-0.2629856235	 0.113548
H	-2.1113048196	-0.0059615746	 0.7528349277	 0.118947
H	 0.324487852	-1.5673681039	-1.5669397833	 0.130159
H	 0.7146624961	 0.0706574703	-2.0975760273	 0.132084
H	 0.4269279386	-0.37275925	 2.1532453323	 0.132084
H	 0.1337880594	-1.8612358845	 1.2502262508	 0.130159
