19
gdb 88478	3.15537	1.15628	1.09769	1.7051	71.29	-0.2306	0.0471	0.2778	1180.1952	0.15806	-460.112197	-460.103418	-460.102473	-460.145923	33.547	
O	 0.2543292663	 1.3611640949	 0.1050434557	-0.434333
C	 0.0410949938	-0.0127791733	 0.0251433901	 0.132904
C	-0.4628556114	-0.8275553809	 1.1895362936	-0.356021
C	-1.3402873215	-0.6235905402	-0.0373443814	-0.082247
C	-2.5857196785	 0.225758817	 0.0268916579	 0.306788
O	-2.3789200405	 1.267697142	 0.9665482824	-0.481285
C	-3.1546312701	 0.6264399482	-1.3622289427	-0.122529
O	-4.2183101318	-0.3372958267	-1.237359219	-0.269068
C	-3.9128457569	-0.5688756185	 0.1511442141	-0.12059
H	-0.5196125604	 1.7436450522	 0.5407851422	 0.290515
H	 0.8015239829	-0.4649881873	-0.6040732618	 0.103294
H	-0.0463168521	-1.8117819331	 1.3754090702	 0.110044
H	-0.7441451175	-0.275205772	 2.0793855188	 0.127403
H	-1.4655413591	-1.4731856469	-0.7032135298	 0.096962
H	-3.1505137162	 1.8439468582	 0.9652569359	 0.289868
H	-3.5307024622	 1.660636166	-1.3986141923	 0.087806
H	-2.5215403127	 0.443226565	-2.2363362386	 0.11872
H	-3.842339015	-1.634213315	 0.3944402703	 0.113972
H	-4.640415437	-0.0901874796	 0.8244194241	 0.087798
