20
gdb 110237	1.94585	1.61322	1.05756	2.6695	80.96	-0.2266	-0.0175	0.2092	1223.2785	0.168867	-403.128982	-403.119695	-403.118751	-403.163359	34.693	
C	 0.3111904403	 1.4091211517	 0.2022521593	-0.37465
C	-0.2536376298	 0.0139558492	-0.0477536142	-0.133043
N	 0.4886281765	-0.6378031348	-1.1308139125	-0.111958
C	 1.7725217286	-1.3049841628	-0.9115582362	-0.230732
C	 1.7449935911	-2.1351258181	 0.3531538043	 0.418936
O	 2.5218438327	-2.3029390088	 1.2496344479	-0.31282
C	 0.4445154238	-2.8679258327	-0.0703855553	-0.424402
C	 0.5099596674	-2.0515703991	-1.3813684121	 0.322045
C	 0.1827934283	-2.5813444095	-2.7456656905	-0.482474
H	 1.3484034961	 1.352383835	 0.547667497	 0.129116
H	 0.2897514226	 2.0041639052	-0.7148558671	 0.126869
H	-0.2718914705	 1.9262081065	 0.9698903206	 0.116307
H	-0.254515547	-0.5559677705	 0.8918326323	 0.102266
H	-1.2955854382	 0.0840050557	-0.3811275787	 0.107365
H	 2.6471498581	-0.9549745949	-1.4499518605	 0.106634
H	 0.6563140611	-3.9327113558	-0.2097783362	 0.131039
H	-0.4474255965	-2.7622167205	 0.5520327086	 0.121281
H	-0.8958061085	-2.7493981624	-2.8475758021	 0.127759
H	 0.4858627991	-1.8650451745	-3.5131678998	 0.136305
H	 0.6867545148	-3.535947799	-2.9283426148	 0.124158
