16
gdb 133666	2.64503	1.20585	1.01044	1.0211	57.5	-0.2532	0.0711	0.3242	1164.7969	0.1213	-565.539747	-565.530889	-565.529945	-565.574375	31.963	
N	-0.0759159294	 1.8269066956	-0.6478434459	-0.510478
C	-0.1859590986	 0.4498505263	-0.1796397484	-0.163516
C	-1.637481793	 0.0249563243	-0.1000807832	 0.039198
C	-2.1084115975	-0.8075479606	 1.033550568	-0.240488
N	-2.5066731296	 0.6049084355	 0.9262565497	-0.321228
C	 0.6079560145	-0.5386718621	-1.0431290858	 0.270563
F	 1.8993382247	-0.1700955953	-1.1233220618	-0.084274
F	 0.5737752781	-1.7817279996	-0.5454429482	-0.071608
F	 0.129916672	-0.5863975709	-2.2985472451	-0.085669
H	 0.9014667671	 2.076650478	-0.7664272215	 0.240401
H	-0.5158701561	 1.9180096197	-1.5594587369	 0.239668
H	 0.2607525485	 0.3921310652	 0.8210633271	 0.101901
H	-2.1200963765	-0.0918813631	-1.0686348008	 0.104428
H	-2.9108459536	-1.5235924527	 0.8836493191	 0.125693
H	-1.3804262105	-1.0969038066	 1.7870308466	 0.116136
H	-1.9557665901	 1.1860673565	 1.5539313069	 0.239274
