20
gdb 95980	2.27768	1.57116	1.11165	3.1619	74.47	-0.2329	0.0301	0.263	1149.2149	0.17204	-440.333293	-440.324257	-440.323313	-440.36761	34.009	
C	-0.0002341632	 1.6496145131	-0.5281981159	-0.406278
C	 0.2277883467	 0.1565187871	-0.3024901499	-0.005492
C	 1.6217040354	-0.3576580248	-0.7000140521	-0.226516
C	 1.6866394185	-1.6891070254	 0.0387145767	-0.080587
O	 1.0139915888	-1.4642107345	 1.282541813	-0.286042
C	 0.104392968	-0.363399647	 1.1628062737	 0.025717
C	 0.3854979201	 0.6975020043	 2.2377305078	 0.362571
N	 1.5825993165	 0.559123179	 2.8695582368	-0.518368
O	-0.4113287811	 1.5894403622	 2.4617518124	-0.372281
H	 0.7654789393	 2.2513659756	-0.0297800844	 0.126641
H	 0.035863383	 1.8739315561	-1.5991290335	 0.105193
H	-0.9679837778	 1.9688296428	-0.13573963	 0.141475
H	-0.5140966943	-0.3991651983	-0.8896293954	 0.08307
H	 1.7448344221	-0.4615151162	-1.7809993802	 0.104787
H	 2.3953937317	 0.3245855495	-0.329303754	 0.109745
H	 1.1734144852	-2.482079919	-0.5254757005	 0.098658
H	 2.7015728567	-2.0318588988	 0.26086338	 0.1065
H	-0.9164498527	-0.7118231884	 1.3569620752	 0.106326
H	 2.0620128791	-0.3215104047	 2.7733528795	 0.267454
H	 1.7565817879	 1.1371102075	 3.6758119807	 0.257426
