14
gdb 131180	3.36807	1.44655	1.01194	3.6787	66.65	-0.2034	-0.0104	0.193	1075.9944	0.102879	-470.019606	-470.012282	-470.011338	-470.052365	27.369	
O	-0.4647981319	 0.9943684271	-0.8778393738	-0.436564
C	-0.1511112849	-0.2299743995	-0.4722241575	 0.345131
C	 0.1630313855	-1.4333025974	-1.1037519374	 0.115066
O	 0.2691429407	-1.813649877	-2.43742528	-0.217155
C	 0.0681133989	-1.0046419613	-3.4634699097	 0.141217
N	-0.2479253777	 0.2266078292	-3.3872597494	-0.498346
C	 0.3948440897	-2.355675036	-0.0631690571	-0.06412
N	 0.2443461574	-1.8013661613	 1.1294579529	-0.239323
N	-0.0867112546	-0.5127250248	 0.8498607645	-0.248075
H	-0.4446044651	 0.9443646947	-1.8774941711	 0.328143
H	 0.2162564529	-1.5592804671	-4.3915291954	 0.1305
H	-0.3492752461	 0.6447519488	-4.306379145	 0.24722
H	 0.6639460168	-3.3969072361	-0.1603843136	 0.118179
H	-0.2587464517	 0.1399682405	 1.5954436925	 0.278127
