16
gdb 26931	2.36567	1.65768	0.97744	5.0409	77.61	-0.1735	-0.015	0.1585	1138.807	0.125662	-434.114688	-434.105974	-434.10503	-434.1475	33.07	
N	 0.069815223	 1.3687343686	 0.1618437159	-0.601175
C	 0.0021239484	-0.0144798864	 0.0274338798	 0.264262
C	-1.1002734673	-0.8797957276	-0.0200100062	 0.105209
C	-2.4832255096	-0.5143122462	-0.024151532	 0.051615
O	-3.4275189058	-1.2944566281	-0.0161593832	-0.336094
C	-0.5713062566	-2.2311971989	-0.0506804661	 0.186906
N	-1.3749820292	-3.3543802451	-0.182258146	-0.613272
C	 0.7928617675	-2.1369010879	-0.0214262773	-0.184164
N	 1.1202545663	-0.7680918338	 0.0201704476	-0.300959
H	 0.7153534192	 1.8122654436	-0.4807935654	 0.253371
H	-0.8366970947	 1.8101563293	 0.0938323728	 0.261545
H	-2.6867898738	 0.5838183676	-0.0295326716	 0.035919
H	-2.3434154689	-3.1555870808	 0.0376221728	 0.266877
H	-1.0246888778	-4.1909685366	 0.2597565112	 0.237834
H	 1.5660124542	-2.8843174722	-0.0652104877	 0.111672
H	 2.0453484451	-0.4069153256	 0.1757086352	 0.260454
