18
gdb 53212	3.3238	0.89379	0.8034	4.0157	82.19	-0.2421	0.0277	0.2698	1482.3652	0.145661	-401.952608	-401.942535	-401.941591	-401.989592	34.675	
C	 0.1147980238	 1.5376210882	 0.0570481107	-0.49897
C	 0.070810922	 0.0827972303	 0.0475274039	 0.051891
C	 0.0317001313	-1.1212888722	 0.0420229306	 0.124253
C	 0.0065509262	-2.5745980188	 0.0252066537	-0.179378
N	 0.2058731252	-3.2345043015	 1.327949953	-0.317281
C	-1.0303894581	-3.831619704	 1.3859144296	 0.432146
O	-1.5773834145	-4.4985087375	 2.222213307	-0.363093
C	-1.4037893542	-3.290632355	-0.0171569144	-0.155246
C	-2.6630731907	-2.4437223086	-0.0967394498	-0.405796
H	 1.1049441356	 1.9086093889	-0.2291626585	 0.151786
H	-0.6135896683	 1.9591995009	-0.6442150143	 0.15369
H	-0.1154228787	 1.934019461	 1.0518989083	 0.153912
H	 0.6955119274	-2.9510253489	-0.7400056206	 0.106728
H	 0.9219726315	-3.1047123149	 2.0280681446	 0.251685
H	-1.4188682297	-4.0894962421	-0.7642205474	 0.104459
H	-2.6348923403	-1.6211895991	 0.6226631678	 0.13183
H	-2.7899661233	-2.0161047119	-1.0957588762	 0.121437
H	-3.5359824052	-3.0640023247	 0.1265192619	 0.135945
