25
gdb 102586	2.00015	1.14222	0.77945	2.0497	88.56	-0.2405	0.0741	0.3146	1559.0651	0.228119	-389.476129	-389.465496	-389.464552	-389.512409	38.656	
C	 1.132594131	-0.1679946036	-1.2759242495	-0.391074
C	 0.2103333372	-0.0342597051	-0.0588589709	-0.175435
C	 0.7530015151	-0.6147100989	 1.2625088135	 0.005248
C	-0.2024750263	-0.3105348577	 2.4376709138	-0.175578
C	-0.3387179658	 1.1725446212	 2.80085988	-0.393491
C	 1.0001165379	-2.1232181112	 1.1809500241	-0.003629
C	 2.2323593245	-2.6874808606	 0.4312626054	-0.10394
O	 2.6098906201	-3.4922237962	 1.5645611092	-0.277219
C	 1.6336622194	-2.8385743682	 2.3986937526	-0.097016
H	 1.2888421973	-1.2111307028	-1.5660935199	 0.123335
H	 0.7037827456	 0.347040735	-2.1414608827	 0.111467
H	 2.1154048126	 0.2759513621	-1.0826515908	 0.115446
H	-0.0084795994	 1.0286789127	 0.089658598	 0.097747
H	-0.754841804	-0.5117590461	-0.2794831814	 0.09221
H	 1.7177467485	-0.1289212209	 1.4801653634	 0.064663
H	-1.1933871605	-0.725511844	 2.2061716027	 0.09314
H	 0.1483744768	-0.8504439887	 3.3256258595	 0.098516
H	 0.6391395444	 1.6159438089	 3.0204496838	 0.11471
H	-0.795465011	 1.7573596194	 1.9971800977	 0.120293
H	-0.9653103813	 1.2971440218	 3.6895993683	 0.113302
H	 0.0804882857	-2.6280426565	 0.8646854857	 0.075977
H	 2.0446713671	-3.2968679051	-0.460411422	 0.101267
H	 2.9996876546	-1.9375111437	 0.1940746808	 0.09539
H	 2.1089194535	-2.1578438575	 3.1208741062	 0.092265
H	 1.011253287	-3.5555308342	 2.9461329025	 0.102408
