21
gdb 36839	4.16977	0.98661	0.94686	1.6799	83.35	-0.2631	0.0927	0.3559	1330.6016	0.183339	-387.018797	-387.010706	-387.009762	-387.052272	31.474	
C	-0.0113851961	 1.556008556	 0.2629528015	-0.377236
C	-0.1022110961	 0.0488189395	 0.3179011146	 0.103769
C	-1.2336083307	-0.6946490194	-0.2481379273	-0.182119
O	 0.022813978	-0.6473704525	-0.9268346652	-0.233772
C	 1.4058775491	 2.04887524	 0.0780990614	 0.372628
C	 2.3595525612	 1.7527239787	-1.1222938762	-0.235415
C	 3.1684706569	 2.6697801546	-0.1631425189	-0.044092
C	 1.8828338609	 3.5309961591	-0.0127834437	-0.267417
C	 2.6376792917	 1.7975395694	 1.0088213681	-0.252574
H	-0.6369565227	 1.9203291419	-0.5611349071	 0.102946
H	-0.4271100549	 1.9701645983	 1.1920410891	 0.100278
H	 0.4481755305	-0.4202549968	 1.1357899664	 0.092646
H	-1.5088612282	-1.6653792521	 0.1623565577	 0.112217
H	-2.0450124621	-0.149182899	-0.7291345682	 0.111375
H	 2.7017102269	 0.7205635169	-1.2303539594	 0.09889
H	 2.0717921447	 2.180254329	-2.087150196	 0.086023
H	 4.1880016531	 3.031106383	-0.2997950042	 0.069182
H	 1.5609316652	 4.0937634229	-0.89433163	 0.086088
H	 1.7943844342	 4.1307845434	 0.8984610364	 0.08357
H	 2.6077403728	 2.2665224261	 1.9973679609	 0.083436
H	 3.0124838156	 0.7712586212	 1.0635617701	 0.089577
