15
gdb 45923	2.86677	1.45583	0.99842	1.8655	69.68	-0.2654	-0.0743	0.1911	1109.3386	0.114054	-454.010282	-454.002591	-454.001647	-454.043075	28.635	
N	-0.0827017749	 1.270244808	-0.2717037113	-0.46471
C	-0.0247711808	 0.0256262675	-0.0245273356	 0.287628
N	 1.1449004261	-0.7162093176	 0.171879679	-0.381789
C	 1.2919500256	-2.0968590885	 0.2791337034	 0.400001
O	 2.3888808535	-2.590822077	 0.3992963109	-0.339125
C	-0.0004904699	-2.8882526359	 0.2135545205	-0.335363
C	-1.1950123759	-2.1156225676	 0.7900532908	-0.329253
C	-1.3326408877	-0.758089436	 0.1284642005	 0.368716
O	-2.3772857389	-0.2973947613	-0.2463422142	-0.266008
H	 0.8470923651	 1.6914653678	-0.3412288628	 0.220327
H	 2.025193767	-0.2139725107	 0.1670928797	 0.255662
H	-0.1832116963	-3.1332448088	-0.8407514913	 0.150084
H	 0.1672904423	-3.8323094991	 0.7343364165	 0.149808
H	-2.1340324639	-2.6585039957	 0.6699190593	 0.141427
H	-1.0386988914	-1.9498686051	 1.8649543948	 0.142596
