21
gdb 95084	2.25957	1.94283	1.30331	1.4787	77.85	-0.2423	0.0678	0.3101	1043.4247	0.183157	-424.220962	-424.212635	-424.211691	-424.253191	33.579	
C	 0.0520144525	 1.5357497287	-0.0743761959	-0.385342
C	-0.0104861588	 0.0201080155	 0.0565807301	 0.074575
O	 0.5429912777	-0.5102686149	-1.1492638901	-0.272581
C	 1.0702732196	-1.8288597565	-1.0813044056	-0.068292
C	 1.6776098304	-2.1195748055	 0.2934262462	-0.040959
C	 2.2206527015	-0.7907378717	 0.8953704962	-0.260736
C	 0.7504809781	-0.52639504	 1.2938073507	 0.387981
O	 0.5531622877	 0.2454095931	 2.4518328885	-0.483614
C	 0.5499605941	-2.062748231	 1.357658919	-0.293207
H	 1.090598785	 1.8779892639	-0.1005074081	 0.12375
H	-0.4356536304	 1.8423883897	-1.0034160843	 0.120521
H	-0.447687605	 2.0216509025	 0.766372477	 0.109083
H	-1.0683074451	-0.2932516913	 0.1438753789	 0.054209
H	 0.2917499533	-2.5748818012	-1.3127969448	 0.08659
H	 1.8293316411	-1.8826488711	-1.8700022908	 0.105096
H	 2.3266548945	-2.9968818242	 0.2703868466	 0.070233
H	 2.8316390682	-0.9648527825	 1.7833744139	 0.105084
H	 2.7110081269	-0.0806117801	 0.2268316046	 0.105858
H	-0.3857566411	 0.2319455932	 2.6697271057	 0.27682
H	-0.4317670244	-2.4695109406	 1.0912018036	 0.08498
H	 0.8714004944	-2.458772386	 2.3243622486	 0.09995
