20
gdb 18975	3.99497	2.13247	1.74207	0.2265	78.17	-0.2795	0.0906	0.3701	831.6364	0.181448	-311.840567	-311.834465	-311.833521	-311.87036	26.115	
C	-0.0571072975	 1.6369306724	 0.0101958865	-0.233685
C	 1.4442845593	 1.2486064238	-0.0055113909	-0.047748
C	 1.1116271841	 0.1716044572	 1.073713423	 0.040121
C	 2.0686492553	-1.0087846909	 1.2370227747	-0.243778
C	 2.0755766562	-1.8781337421	-0.0279482759	-0.192683
C	 2.0458015867	-0.9953117567	-1.2832185696	-0.243776
C	 1.092006292	 0.1831682493	-1.089975326	 0.040117
C	-0.0324224593	 0.0864025729	 0.0016700315	-0.071984
H	-0.4302100937	 2.1148689735	 0.9207204861	 0.084065
H	-0.4466270777	 2.1245522464	-0.8882383729	 0.084063
H	 2.3049222245	 1.9226239875	-0.0097152513	 0.057883
H	 0.7999580491	 0.5880242461	 2.0377791903	 0.054948
H	 3.0760800965	-0.6246257002	 1.4489219275	 0.093226
H	 1.7823484342	-1.6118518338	 2.1063582137	 0.091677
H	 2.9300702805	-2.5624624285	-0.039353176	 0.08718
H	 1.1742954441	-2.5035746633	-0.0231213018	 0.098507
H	 3.0492614633	-0.6088049844	-1.509221534	 0.093227
H	 1.7437372345	-1.5890787205	-2.153620713	 0.091677
H	 0.7629432714	 0.6098354728	-2.0437244211	 0.054948
H	-0.8958582632	-0.5825942416	 0.0059255393	 0.062016
