21
gdb 105634	1.98154	1.38271	1.19608	1.8775	84.65	-0.2486	0.0264	0.275	1229.1518	0.17962	-387.045463	-387.03529	-387.034346	-387.080558	37.522	
C	 0.3852649243	 1.5794902777	 0.1218397463	-0.392804
C	 0.1429063636	 0.0754227909	-0.0318232118	-0.219934
C	 0.6898549742	-0.4792835805	-1.3542341136	 0.214719
O	 2.1407363152	-0.3187307702	-1.4101665381	-0.314534
C	 2.3584522614	-1.7403451591	-1.3105590812	-0.085355
C	 0.8551614522	-2.0393340299	-1.4627713166	-0.077886
C	 0.1735507135	-2.9651373826	-0.4685394878	-0.419942
C	 0.0325293583	 0.1327852212	-2.5049721673	 0.321799
C	-0.5295831636	 0.6084344129	-3.4558308417	-0.462963
H	 1.4520584993	 1.8013145812	 0.0312432707	 0.136751
H	-0.1466265419	 2.1467597233	-0.6471370984	 0.128623
H	 0.0430983814	 1.927262377	 1.1008567915	 0.108396
H	 0.6345828876	-0.4585071725	 0.788260005	 0.098094
H	-0.9281188495	-0.151683118	 0.0297707941	 0.102656
H	 3.0187263338	-2.1101608245	-2.102621795	 0.106589
H	 2.7816158318	-2.0201140733	-0.3355412203	 0.095003
H	 0.620278307	-2.3557957213	-2.4812835478	 0.095052
H	 0.4045979605	-2.7041967566	 0.5681030928	 0.121595
H	-0.9145503462	-2.9478859949	-0.589226177	 0.126188
H	 0.5044699915	-3.9968690685	-0.6299226008	 0.121
H	-1.0159756544	 1.0363910077	-4.297479693	 0.196951
