15
gdb 3254	6.00353	2.36675	2.13143	2.0118	60.79	-0.2577	0.082	0.3398	655.9084	0.125608	-308.463553	-308.457705	-308.456761	-308.492955	23.043	
C	-0.0012682862	 1.4244919976	 0.1672890169	-0.278175
C	 1.3177430906	 0.7438385332	-0.0392735717	-0.037513
C	 1.7623017202	 0.0568393015	 1.2629572802	-0.33239
C	 0.4581609134	-0.7667111965	 1.2002746013	 0.474815
C	 0.2406762499	-2.1519729164	 1.6094885354	-0.275208
O	-0.3805678121	-1.0615605084	 2.3071087837	-0.273373
C	 0.0097246767	-0.0675504305	-0.0578902353	-0.137397
H	-0.2658462011	 1.8283737035	 1.1412557919	 0.119451
H	-0.3682993244	 2.0065339252	-0.671922595	 0.113885
H	 1.9660609421	 0.9727073945	-0.8744982729	 0.091683
H	 2.6555727267	-0.5639662088	 1.1573160773	 0.109443
H	 1.8786508879	 0.7090725244	 2.1340712537	 0.109812
H	-0.4380027699	-2.7882897687	 1.0415246583	 0.113303
H	 1.0159480533	-2.6821853541	 2.162476971	 0.112341
H	-0.506176127	-0.5276177865	-0.891627465	 0.089324
