21
gdb 94221	3.23696	1.02655	0.95402	1.4471	83.95	-0.2446	0.0456	0.2902	1336.742	0.179634	-387.046244	-387.036182	-387.035238	-387.081417	37.293	
C	-0.450155751	 1.4000891553	-0.0668294304	-0.411298
C	 0.1896453519	 0.0270185972	-0.0471825931	 0.119788
O	 1.4691022565	-0.0018237379	-0.7192944056	-0.295098
C	 2.0682470967	-0.7589370133	 0.3507517729	-0.104217
C	 0.8249729441	-0.564736055	 1.2525797945	 0.260903
C	 1.0430490052	 0.4237219341	 2.3946758031	-0.459778
C	 0.1543739542	-1.8622698453	 1.7444493944	-0.427746
C	 0.9631739009	-2.6049246382	 2.705082749	 0.306208
C	 1.6540940039	-3.2038390106	 3.485869597	-0.445582
H	 0.1943980142	 2.1550587378	 0.3893836755	 0.122604
H	-0.6406809681	 1.6983173931	-1.1027842218	 0.129646
H	-1.4095521539	 1.3876903154	 0.4618889042	 0.115039
H	-0.4984194634	-0.696622208	-0.5141885022	 0.062099
H	 2.2641247587	-1.80045877	 0.0616490937	 0.097935
H	 3.0026865048	-0.3060614824	 0.7012259029	 0.101892
H	 1.5723991127	 1.3174541245	 2.053383818	 0.124105
H	 0.0917576269	 0.7412607105	 2.8363628813	 0.113731
H	 1.6406079357	-0.0411186665	 3.1846292027	 0.133495
H	-0.8184314302	-1.6194220061	 2.193860701	 0.12868
H	-0.0587922012	-2.5069349071	 0.8823707546	 0.130557
H	 2.2532983414	-3.7419552875	 4.1778509284	 0.197037
