20
gdb 99135	3.85279	0.79095	0.69934	3.897	78.45	-0.2304	0.0379	0.2683	1653.7375	0.169238	-440.300737	-440.290554	-440.28961	-440.337254	36.458	
C	 0.0570614245	 1.4319154574	 0.1945451175	-0.366045
C	-0.0529386402	-0.0590216155	-0.1287086746	-0.29947
C	-1.5072350655	-0.5077320218	-0.2655628549	 0.424724
O	-2.3823651819	 0.2200003085	-0.7031164909	-0.383084
N	-1.7480455258	-1.7950740973	 0.1163716596	-0.334429
C	-3.0526482502	-2.3707986181	 0.0744508408	 0.056257
C	-3.3373377482	-3.5437976819	-0.8478144695	-0.335912
C	-3.1976643264	-3.7501549822	 0.6429103078	 0.055106
O	-2.0142026131	-4.3072052964	 1.1477638779	-0.426276
H	 1.098432764	 1.7636964533	 0.1576144032	 0.106281
H	-0.527543143	 2.0108951731	-0.5231541067	 0.145233
H	-0.3346745122	 1.6486898839	 1.1930959539	 0.119806
H	 0.4355088055	-0.2673872814	-1.0899838276	 0.126653
H	 0.4682502675	-0.6667437891	 0.6200309483	 0.097123
H	-1.0243295941	-2.3531829095	 0.5416929637	 0.254089
H	-3.8399722788	-1.6439569148	 0.2323417918	 0.128299
H	-4.3202079405	-3.6278973619	-1.2983800232	 0.121438
H	-2.5113955496	-3.8815419448	-1.4648851552	 0.116482
H	-4.0898099693	-3.9776197328	 1.2241079711	 0.098331
H	-1.9638035926	-5.2242214586	 0.8598071671	 0.295395
