19
gdb 53181	3.03516	1.11161	1.02532	0.2427	89.1	-0.2158	0.0201	0.2358	1283.5669	0.159488	-348.730788	-348.722086	-348.721142	-348.765581	32.185	
C	 0.0533274119	 1.5228643976	-0.0618715111	-0.498931
C	 0.0020652854	 0.0680862857	-0.0400390251	 0.061061
C	-0.0464550756	-1.1363734379	-0.030764981	 0.108158
C	-0.065104459	-2.5689963703	-0.0166639747	-0.223146
C	-0.4585586265	-3.3696103614	 1.2178706933	-0.06362
C	-1.2180009445	-2.6515423818	 2.3330234542	-0.279102
C	-2.5255545205	-2.2584499203	 1.6771315551	-0.060547
C	-2.6027663159	-2.6866930783	 0.4153498994	-0.074123
C	-1.3609961106	-3.3975030241	 0.0018744683	-0.091537
H	 0.9054739065	 1.9046901138	 0.5121020114	 0.14391
H	 0.1469260865	 1.9048383319	-1.0848826262	 0.145134
H	-0.8554636981	 1.9576992555	 0.3692796079	 0.146117
H	 0.7322631607	-3.0310869155	-0.5942226975	 0.104734
H	 0.1716181951	-4.2138620272	 1.4711002164	 0.087446
H	-1.3764820134	-3.31158552	 3.1957549091	 0.104267
H	-0.6727675696	-1.7736019401	 2.7033167857	 0.119007
H	-3.2753507288	-1.6637777548	 2.1863315189	 0.091675
H	-3.4330471364	-2.5166068426	-0.2597822164	 0.09233
H	-1.409393987	-4.2449136003	-0.6733461378	 0.087167
