19
gdb 121202	2.4842	0.98894	0.76375	2.5052	77.42	-0.2536	0.0209	0.2745	1482.6706	0.157059	-422.958398	-422.948566	-422.947622	-422.994408	34.817	
O	-0.0038775975	 1.4434572537	 0.099927698	-0.418557
C	 0.0470808889	 0.0278638339	 0.033150729	-0.077723
C	-1.3869954269	-0.4884049668	 0.0099013019	-0.197588
C	-1.4534991473	-2.0066723807	-0.0462734392	-0.061616
C	-1.136366103	-2.7994717218	 1.2409804289	-0.07794
O	-2.4255617665	-3.4463045141	 1.2270294455	-0.276341
C	-2.8505703622	-2.7034739	 0.0570428981	-0.077357
C	-4.015835925	-1.8665496352	 0.2957183027	 0.359547
C	-4.9833783743	-1.177157075	 0.480273542	-0.465367
H	 0.8974418923	 1.7774241966	 0.1257383469	 0.286581
H	 0.5791738859	-0.3114457778	-0.8714256092	 0.08439
H	 0.5838095681	-0.3926654885	 0.9001321578	 0.087424
H	-1.912172979	-0.1193029158	 0.8973938575	 0.121005
H	-1.9006367883	-0.0576042063	-0.8572479593	 0.114958
H	-0.9002465888	-2.3791885269	-0.9133410538	 0.08419
H	-0.3162609304	-3.5241932862	 1.1810830552	 0.103013
H	-1.0025115838	-2.1812356265	 2.1387823026	 0.104166
H	-3.0617406824	-3.387574817	-0.7751297075	 0.104155
H	-5.83901334	-0.5703997156	 0.6475878128	 0.20306
