17
gdb 55493	5.87558	0.54587	0.5167	2.4084	83.71	-0.2456	-0.0152	0.2304	2091.0919	0.130898	-384.645667	-384.634937	-384.633993	-384.685308	36.113	
C	-0.1225943331	 1.5359975262	 0.2299684194	-0.478038
C	 0.0926858243	 0.0336813481	 0.1716630559	 0.390687
O	 1.1342063271	-0.4855776163	 0.4802864062	-0.267513
C	-1.1262833125	-0.7740638938	-0.3147224846	-0.486639
C	-0.9460561127	-2.214969176	-0.2981276762	 0.064616
C	-0.7962552516	-3.4070905705	-0.2789265886	 0.145822
C	-0.5960103715	-4.85686915	-0.2524922374	-0.492245
C	-1.7899714506	-5.6078723507	 0.1414156817	 0.31711
C	-2.7623552632	-6.2346503875	 0.4620960868	-0.446531
H	 0.8079387523	 2.0294339062	 0.5113897727	 0.146739
H	-0.4686654982	 1.9181084925	-0.7366815163	 0.138193
H	-0.8996754947	 1.7771492222	 0.964474773	 0.143063
H	-1.9901833414	-0.4815958065	 0.2987444391	 0.149178
H	-1.3677795297	-0.4206853655	-1.3278039948	 0.149394
H	-0.2626466356	-5.2007727169	-1.2414085071	 0.160399
H	 0.2265000237	-5.0968564756	 0.4353780271	 0.16635
H	-3.6239981528	-6.7855635958	 0.7472592631	 0.199414
