16
gdb 85585	2.83015	1.4279	1.09628	2.4528	65.57	-0.2608	-0.0025	0.2583	1088.5902	0.124713	-475.094485	-475.086115	-475.085171	-475.128097	30.282	
C	 0.4847296523	 1.3440626382	-0.2867056792	-0.404645
C	-0.0804464789	-0.0075847937	 0.1495183951	 0.00735
O	-0.076015747	-0.9380916379	-0.9561217412	-0.228231
C	 0.9804993607	-1.7348246162	-1.2019109189	 0.425718
O	 1.0542438547	-2.3603554727	-2.2219326462	-0.318444
C	 2.0640116434	-1.8052560052	-0.1318433143	-0.314219
N	 1.5804192335	-1.4516768546	 1.1871849842	-0.32379
C	 0.6190527321	-0.5172648432	 1.4085234832	 0.39545
O	 0.3218028008	-0.0903527033	 2.5061128149	-0.370024
H	 1.5450432704	 1.2683392386	-0.5492261839	 0.124846
H	-0.0619149109	 1.7122235359	-1.1579642788	 0.142722
H	 0.3812889828	 2.0596800332	 0.5325253976	 0.154473
H	-1.1351112295	 0.1007766588	 0.4085450211	 0.139229
H	 2.4355298314	-2.8316495651	-0.1324107002	 0.161645
H	 2.8957246526	-1.1629595053	-0.460015322	 0.147061
H	 2.0966826115	-1.7553767475	 2.0004464388	 0.260858
