17
gdb 9096	6.00975	0.79978	0.73034	0.9035	66.57	-0.2503	-0.0411	0.2092	1467.5956	0.138517	-401.000899	-400.991393	-400.990449	-401.036547	31.788	
C	 0.0360859046	 1.3924170557	-0.3607555998	-0.395507
C	-0.0053943937	-0.098697431	-0.0159504071	-0.045245
N	 0.7329924411	-0.5156361589	 1.1750519485	-0.316451
C	 2.184096989	-0.5018815144	 1.0749567538	-0.227765
C	 2.8040709618	-1.3170631107	 2.2009065121	 0.151662
O	 3.870382255	-1.0790963606	 2.7025387045	-0.232174
C	-1.4358248687	-0.6193690471	 0.1229248106	 0.151009
O	-2.4194223651	-0.0269526523	-0.2350833953	-0.237388
H	 1.0578087385	 1.7196708357	-0.5707666935	 0.119185
H	-0.586361357	 1.5988391512	-1.2345356337	 0.142117
H	-0.3562598669	 1.9889384937	 0.4695506953	 0.122592
H	 0.4157383298	-0.6775600658	-0.8548236565	 0.110057
H	 0.436277297	 0.0408472064	 1.9712835146	 0.227066
H	 2.4652891419	-1.0089221814	 0.139564897	 0.13473
H	 2.6598523324	 0.4900685655	 1.0572278471	 0.12008
H	 2.1746454832	-2.1783320922	 2.5194181887	 0.087453
H	-1.4885751029	-1.6237280937	 0.5983374437	 0.088579
