15
gdb 56934	2.31692	1.21999	0.96765	3.8493	70.06	-0.3183	-0.0211	0.2972	1225.7209	0.111277	-416.807851	-416.798946	-416.798002	-416.84231	31.114	
C	 0.2255310531	 1.345581769	 0.2047169193	-0.399426
C	-0.2616575635	-0.0948476791	-0.0557116811	-0.189165
C	-1.7220765131	-0.1511284682	-0.179436664	 0.267113
N	-2.8705171945	-0.1833801594	-0.3007883251	-0.306419
C	 0.3702301039	-0.6567596493	-1.3224476713	 0.082382
O	 1.7618367127	-0.9299974975	-1.2563792438	-0.230073
C	 0.8751387607	-2.0426499818	-1.4244219928	-0.105746
C	 0.7795624128	-2.960921141	-0.3104990531	 0.312826
N	 0.6984809505	-3.7021863804	 0.5723243487	-0.318829
H	 1.3141319316	 1.344727467	 0.2947639602	 0.151242
H	-0.0616506783	 2.0100200378	-0.6147792388	 0.141973
H	-0.2068629484	 1.7334637635	 1.1292116132	 0.14891
H	 0.0301316445	-0.7303474594	 0.7879296377	 0.157749
H	 0.0423830224	-0.1857373867	-2.2497663589	 0.133698
H	 0.9106398556	-2.5197570343	-2.40141289	 0.153766
