15
gdb 129449	4.51972	1.04497	0.85015	4.7068	70.12	-0.2182	-0.0069	0.2113	1274.6591	0.114614	-450.183136	-450.174399	-450.173454	-450.216899	31.567	
N	-0.1475000359	 1.3176768507	-0.0254109573	-0.540914
C	 0.0333980028	-0.0304621903	-0.0057648293	 0.337362
O	 1.1267493955	-0.5702341102	-0.0156813918	-0.375535
C	-1.2285469902	-0.8182411362	 0.0267797453	 0.28052
N	-2.4230270987	-0.2302121738	 0.0461487153	-0.319667
N	-3.2943355359	-1.2629703493	 0.0685130521	-0.239913
C	-2.6825038788	-2.479976619	 0.0530926281	 0.401015
N	-3.4241191773	-3.6587402156	 0.1359553178	-0.608535
C	-1.32576386	-2.2275516188	 0.0267723688	-0.369358
H	 0.6608380388	 1.9149521129	-0.0303155434	 0.25705
H	-1.0746147754	 1.7071241259	-0.0000465893	 0.271027
H	-4.280269059	-1.0780543656	 0.149314578	 0.271405
H	-4.1517634293	-3.7312518977	-0.5657671799	 0.252773
H	-2.8306702232	-4.4756970698	 0.084061313	 0.261464
H	-0.5140596536	-2.9338950736	-0.0035472375	 0.121307
