19
gdb 128461	3.63158	1.08179	0.8723	3.6361	78.21	-0.2298	0.0287	0.2586	1339.6047	0.160108	-419.221374	-419.212297	-419.211353	-419.256138	32.73	
C	-0.9107781277	 1.5562771758	 0.2900038295	-0.238279
O	-0.589670985	 0.2158824478	 0.5903757234	-0.261176
C	-1.2258858699	-0.7507275861	-0.2418382825	 0.006092
C	-0.5439048032	-0.8762617412	-1.6080813195	-0.396143
C	-1.2032747982	-2.0456603899	 0.5217405409	 0.385063
C	-1.4953617563	-3.3522757762	 0.1736707269	-0.326812
C	-1.3067935727	-4.087101442	 1.363316184	-0.003518
N	-0.9236174219	-3.3106820736	 2.3739933073	-0.237259
N	-0.8767082932	-2.0785815814	 1.8351349935	-0.233891
H	-0.4248499934	 2.177663487	 1.0458881493	 0.132554
H	-0.5460617831	 1.8637344522	-0.6997437625	 0.114564
H	-1.996826144	 1.730756073	 0.3298065047	 0.11131
H	-2.2748324883	-0.4435345722	-0.3958892286	 0.087216
H	-0.5972894065	 0.0644626904	-2.1631522911	 0.116828
H	 0.5053055576	-1.1540658361	-1.4788367096	 0.134992
H	-1.0365371238	-1.646488746	-2.2081979029	 0.127737
H	-1.8050513152	-3.7189211153	-0.7914909901	 0.097349
H	-1.4319667293	-5.1483989949	 1.5215090753	 0.107614
H	-0.5797611458	-1.2858094012	 2.3785471119	 0.275758
