14
gdb 130371	7.06197	0.83388	0.74934	6.4556	71.91	-0.1973	-0.017	0.1802	1411.0086	0.102826	-466.241127	-466.232714	-466.23177	-466.274501	30.045	
N	-0.0391293157	 1.349600795	 0.0849942344	-0.49195
C	-0.073773001	 0.0093259165	-0.0626707626	 0.138546
N	-1.1370953505	-0.672472374	 0.1797156078	-0.369287
C	-1.033636091	-2.0418451651	 0.1173158045	 0.483239
N	 0.037781367	-2.7803185875	 0.2203796693	-0.306347
N	-0.4364445193	-4.073656676	 0.0758133166	-0.303327
C	-1.8058909955	-4.1644508555	-0.0525904797	 0.456867
O	-2.5161994773	-5.1420014333	-0.1519756107	-0.427999
N	-2.1627707551	-2.8115965903	-0.0457526193	-0.415909
H	 0.738205074	 1.8834332323	-0.2589776995	 0.273332
H	-0.8881797845	 1.8359802015	 0.3249349274	 0.272144
H	 0.8682333094	-0.4461799451	-0.3801787059	 0.141019
H	 0.1771224741	-4.8525054398	 0.236542608	 0.2747
H	-3.1039560847	-2.4708126887	-0.1329961303	 0.274971
