22
gdb 22357	3.09661	1.04799	0.87666	1.0093	85.47	-0.236	0.0146	0.2505	1397.5279	0.19352	-404.336631	-404.327022	-404.326078	-404.370939	36.841	
C	-0.4356505112	 1.4879871219	-0.0671646479	-0.416186
C	-0.0137088348	 0.0232073044	 0.0210330133	 0.033756
C	 0.917004979	-0.4460046675	-1.1181109382	-0.301173
C	 1.5251164151	-1.7163516148	-0.5682149061	 0.410251
C	 1.3319185242	-1.7811023373	 0.9327661428	-0.307059
C	 0.7412603905	-0.4032008737	 1.314976852	-0.005606
C	 1.8375973676	 0.5776372642	 1.7531002596	-0.396236
N	 2.0718914817	-2.5804838796	-1.3245331502	-0.235573
O	 2.5498624706	-3.6770277087	-0.5757986275	-0.398163
H	 0.4308831865	 2.1567655644	-0.0853672539	 0.117661
H	-1.0125333495	 1.6727168717	-0.9794574663	 0.114227
H	-1.0627188447	 1.7742336228	 0.7842765047	 0.112592
H	-0.9206188624	-0.5957030434	-0.0256737925	 0.075305
H	 0.4054630844	-0.6050387998	-2.0704198916	 0.116886
H	 1.7016792729	 0.3017517847	-1.2982769563	 0.114752
H	 0.6395221653	-2.6000801299	 1.1649870312	 0.12246
H	 2.2668472925	-2.0195065335	 1.4489115318	 0.122668
H	 0.0292327317	-0.5052303682	 2.1413022612	 0.06701
H	 2.5902619233	 0.7277122625	 0.9707350677	 0.117904
H	 1.4261638437	 1.5574423163	 2.0124547815	 0.115733
H	 2.3590404239	 0.19322809	 2.6356695065	 0.115294
H	 2.9258186097	-4.2384692163	-1.2616660015	 0.303497
