15
gdb 49450	2.72239	1.35727	1.18423	4.0593	72.44	-0.2471	-0.0728	0.1743	1063.4108	0.112712	-420.647324	-420.639918	-420.638973	-420.679625	27.798	
O	 0.0589533883	-0.077666963	-0.2997061133	-0.260117
C	 0.0215680816	 1.0627671078	 0.0940690439	 0.151225
C	 1.2244649782	 1.9398811673	 0.1013664717	-0.112796
C	 1.1941638577	 3.4494250024	-0.1629749121	-0.112723
C	-0.1302861535	 4.1357917751	-0.0248952153	-0.069979
C	-0.5724000052	 4.1269081038	 1.2398850142	-0.195698
C	 0.4107701293	 3.4280070249	 2.117973649	 0.39061
O	 0.3545108933	 3.2823584869	 3.3148387823	-0.320847
C	 1.5393067059	 2.9639962507	 1.2059439031	-0.190071
H	-0.9198011844	 1.5107837693	 0.4669199416	 0.090392
H	 2.0986101126	 1.4240159872	-0.2847387319	 0.125253
H	 1.9316544739	 3.8386449918	-0.8549727089	 0.119196
H	-0.6557990887	 4.5494612504	-0.8779420988	 0.129592
H	-1.5096586598	 4.5177636781	 1.6128248097	 0.127781
H	 2.5444101707	 2.9473969071	 1.6067709149	 0.128183
