16
gdb 36391	2.17833	1.35737	1.07313	3.7053	72.61	-0.2683	0.0031	0.2714	1156.3158	0.124112	-396.91739	-396.908597	-396.907653	-396.951755	31.124	
N	-1.7994748938	 1.6541938157	 0.0513127006	-0.305307
C	-1.0271510048	 2.5032147406	-0.082992241	 0.265864
C	-0.0206650585	 3.5564078811	-0.2328572216	-0.387823
C	 1.3975670421	 2.9956186925	-0.185303864	 0.021572
C	 2.5091393466	 3.7888279835	 0.4166727449	-0.2735
N	 2.051470602	 2.5535111738	 1.042081817	-0.083293
C	 1.3851202393	 2.5484387189	 2.3416115024	-0.271643
C	 0.8375808296	 3.833305546	 2.8140068634	 0.250869
N	 0.4465364802	 4.8699690758	 3.1452641336	-0.316076
H	-0.1720376334	 4.0493262972	-1.2001405728	 0.163612
H	-0.1863733018	 4.3137111672	 0.5379443559	 0.18517
H	 1.6214768072	 2.3449259016	-1.0282827862	 0.121526
H	 3.5078379876	 3.7587047816	-0.0094297863	 0.132553
H	 2.2383285503	 4.7329714593	 0.8867204557	 0.143011
H	 0.5809199464	 1.8055144158	 2.3231885066	 0.183921
H	 2.1146848411	 2.2121472395	 3.0869119917	 0.169546
