18
gdb 61271	4.72836	0.81221	0.77757	4.0243	72.2	-0.262	0.0236	0.2856	1453.5745	0.146861	-439.068029	-439.058756	-439.057812	-439.103263	32.629	
O	-0.3713398764	 1.3277168873	 0.1145376955	-0.412171
C	-0.0494933059	-0.0452589442	 0.0273544538	 0.094375
C	 0.7504373318	-0.3646522361	-1.2591169542	-0.373054
C	 0.0600365833	 0.0570813284	-2.4747983121	 0.2734
N	-0.4867413232	 0.3780273935	-3.440322708	-0.298841
C	 0.6818279437	-0.5711532236	 1.2651769359	-0.051811
C	 1.9579924069	 0.1764007853	 1.7238793007	-0.094792
O	 1.3379527243	 0.5822986357	 2.9528471579	-0.264901
C	 0.1154981203	-0.1170671415	 2.6296499224	-0.09531
H	 0.4406122538	 1.8399370823	 0.2023052915	 0.29255
H	-1.0198907658	-0.55048634	-0.0413780151	 0.117412
H	 1.7291845357	 0.130159634	-1.2200669694	 0.147313
H	 0.9436254274	-1.4418287276	-1.3188530275	 0.154131
H	 0.8165494152	-1.6520687188	 1.1741474197	 0.088288
H	 2.8403109917	-0.4541378794	 1.8888610099	 0.110244
H	 2.2694946701	 1.0389519789	 1.1140416546	 0.084257
H	-0.7394126186	 0.5642271942	 2.5690191629	 0.124394
H	-0.0977502943	-0.9195518083	 3.3450561917	 0.104519
