16
gdb 23214	2.98272	1.522	1.19025	2.9816	74.36	-0.2321	-0.0541	0.178	1036.1225	0.125417	-437.839754	-437.832476	-437.831532	-437.871477	28.567	
O	-0.0859934364	 1.2960550726	-0.0235889209	-0.359309
N	 0.0143789009	-0.0894122959	-0.0027728497	-0.268803
C	-1.1177283124	-0.6698740154	 0.0170681807	 0.340657
C	-1.3163815323	-2.1645019182	 0.0424362375	-0.10274
C	-2.4636353253	-2.3227847178	-1.0097470431	-0.242626
C	-3.2924481234	-1.5227957226	 0.0510810073	-0.137583
C	-2.4434427048	-2.2893046828	 1.120625149	-0.242625
C	-2.5621563467	-0.1788960003	 0.023031965	 0.37416
O	-3.0088864921	 0.9353363526	 0.0097889409	-0.316958
H	 0.8389344098	 1.5675819551	-0.036612112	 0.312671
H	-0.4243101305	-2.7861249384	 0.0437505803	 0.089922
H	-2.3218432308	-1.8829343051	-1.9998511121	 0.11608
H	-2.8070398664	-3.3563182301	-1.0942761108	 0.115486
H	-4.379070237	-1.4858445396	 0.0607999039	 0.090099
H	-2.7848751511	-3.3195698963	 1.2440792731	 0.115487
H	-2.2830448015	-1.8186039077	 2.0935551209	 0.116081
