15
gdb 129737	3.33849	1.13551	0.87419	2.5955	71.05	-0.2132	0.0136	0.2268	1256.7779	0.114211	-450.126832	-450.118393	-450.117448	-450.160786	30.183	
N	-0.1485564142	 1.3620858828	 0.2568773586	-0.612257
C	-0.099541869	-0.0175367961	 0.0715616994	 0.296053
C	-1.0980660908	-0.9320781894	-0.2151365578	 0.182472
O	-2.3945809969	-0.5769748073	-0.5104608919	-0.23106
C	-3.3768769359	-1.1225636825	 0.2567782832	 0.104862
N	-4.5811986554	-0.8859500876	-0.0231504821	-0.43451
C	-0.4706629751	-2.1960718188	-0.2192960725	-0.085214
N	 0.8250525782	-2.0907690838	 0.0498849958	-0.230571
N	 1.0244699455	-0.7592594799	 0.2252499318	-0.24365
H	 0.5072557443	 1.8714617311	-0.3251871217	 0.255399
H	-1.0841897126	 1.7067560187	 0.0757883398	 0.267164
H	-2.9816083164	-1.7359621958	 1.075305441	 0.102243
H	-5.1912148436	-1.3542079373	 0.6435771905	 0.234861
H	-0.9103442931	-3.1622234216	-0.4182876225	 0.119759
H	 1.940477305	-0.4297732724	 0.4776013883	 0.274449
