17
gdb 93453	2.93899	1.42527	0.99464	3.5525	71.21	-0.253	-0.0179	0.2351	1154.2313	0.136746	-455.185174	-455.17693	-455.175986	-455.218398	30.795	
C	-0.1654098197	 1.5364344177	-0.0387564279	-0.403427
C	 0.0661728316	 0.0311888722	 0.0182858007	-0.053927
N	 0.8140267776	-0.4319116401	-1.1499219505	-0.313435
C	 0.8914234872	-1.8801180173	-1.1802198335	-0.309138
C	 1.5262457131	-2.4238043911	 0.0847041928	 0.43343
O	 2.0287410088	-3.5031922259	 0.1772075475	-0.298503
O	 1.4875026264	-1.6139876663	 1.1961414437	-0.237255
C	 0.8567582778	-0.376827776	 1.2436923796	 0.449489
N	 0.9325593786	 0.3265318773	 2.2840847295	-0.495312
H	 0.7878694909	 2.0620161939	-0.1306835015	 0.140065
H	-0.7919588862	 1.7854571426	-0.9016901021	 0.107814
H	-0.6623933153	 1.8793175047	 0.8687926968	 0.151975
H	-0.9168861179	-0.4787941636	 0.0969666479	 0.085657
H	 0.3824455796	-0.0828745908	-1.9981591302	 0.233543
H	-0.0917821087	-2.3836148504	-1.2687869044	 0.122161
H	 1.5057407103	-2.2207807105	-2.0165877435	 0.150428
H	 1.490113146	-0.1444916965	 2.999074905	 0.236436
