16
gdb 46628	2.99383	1.63783	1.11773	1.6763	69.79	-0.2507	-0.0434	0.2073	1039.2643	0.1262	-437.9173	-437.910212	-437.909268	-437.949128	27.073	
O	-0.196323166	-0.0163741803	 0.1831396042	-0.286875
C	-0.0746067587	 1.1688230772	 0.0458312071	 0.341081
C	-1.2353518444	 2.160192542	-0.2141625976	-0.193281
O	-0.7374926648	 3.4810294226	 0.0755330162	-0.252266
C	 0.5509206119	 3.3690459222	 0.4696248327	 0.42869
N	 1.2214724609	 4.1707224223	 1.1777028201	-0.299624
C	 2.5162441828	 3.4941587045	 1.4218986686	-0.15888
C	 2.3034562495	 1.9714454362	 1.1161338509	-0.260801
C	 1.1639477308	 2.0443610858	 0.094443521	-0.223809
H	-1.5674763827	 2.1098734183	-1.2572817963	 0.148017
H	-2.0857811275	 1.9394137894	 0.4375604319	 0.15487
H	 3.288587611	 3.9255673789	 0.7712910887	 0.111537
H	 2.8301310221	 3.6717161919	 2.4540077645	 0.118522
H	 3.2005314085	 1.475609033	 0.7424945458	 0.115916
H	 1.9741975097	 1.4445416665	 2.0168852775	 0.124717
H	 1.5419151969	 2.0993463694	-0.9391799953	 0.132187
