19
gdb 35287	3.38608	0.88215	0.79575	4.7603	80.56	-0.2692	0.0164	0.2857	1475.1538	0.159816	-382.042306	-382.033431	-382.032486	-382.077012	32.608	
N	-0.1064406651	-1.1400293529	 0.2867829359	-0.336231
C	-0.012257402	 0.01232123	 0.2776488551	 0.330413
C	 0.0890197756	 1.4513272598	 0.2274936868	-0.206613
N	 0.9370712828	 2.0939249143	 1.2541664327	-0.307469
C	 1.3680764196	 2.1408028247	-0.1429731076	 0.00809
C	 2.63086734	 1.3895514856	-0.5025162058	-0.235456
C	 3.8785865758	 2.2193459289	-0.2737595117	 0.025168
C	 4.4614655993	 2.3423495883	 1.1122540184	-0.251224
C	 5.1869000573	 1.5470992257	 0.0550209093	-0.279269
H	-0.8384454569	 1.9399688879	-0.0588487694	 0.13084
H	 0.5094748315	 2.9689416833	 1.5453418369	 0.245242
H	 1.2250832453	 3.0816663384	-0.674623486	 0.097786
H	 2.6765418248	 0.4742265473	 0.0968613023	 0.12381
H	 2.5715724347	 1.0787839498	-1.5538835897	 0.109548
H	 3.9470655774	 3.1063750839	-0.8998036756	 0.07896
H	 4.8794450526	 3.2961365752	 1.4149946013	 0.108397
H	 3.9677380605	 1.7990194175	 1.9101690551	 0.129399
H	 5.1906687145	 0.4657962165	 0.1458185264	 0.116674
H	 6.0968744023	 1.9587369856	-0.3671805844	 0.111936
