16
gdb 48484	2.08832	1.63362	1.19769	4.0179	69.7	-0.2695	-0.0579	0.2116	1073.4342	0.123681	-437.905956	-437.897479	-437.896535	-437.939971	30.151	
O	-0.3871094702	 0.8230766563	 0.9878568076	-0.229726
C	 0.4126893515	 0.8591742447	 0.0964899318	 0.141638
C	 1.4297993673	 2.0109951796	-0.1130574218	 0.159033
C	 1.5635678333	 2.9239777009	 1.1272434368	-0.289182
C	 2.8128251266	 2.3549297944	 1.8201634494	-0.232254
C	 3.6375711084	 1.8673992008	 0.6304737022	-0.077512
O	 2.6799483641	 1.3427207388	-0.3000395422	-0.290338
C	 1.0592235592	 2.7474442759	-1.332912147	 0.247185
N	 0.7367192238	 3.3056541169	-2.2923792695	-0.324437
H	 0.5392620513	 0.0404147178	-0.638985841	 0.122826
H	 1.7185490638	 3.9597342272	 0.8185840129	 0.132404
H	 0.6583566826	 2.8657208193	 1.7328181737	 0.152761
H	 3.3353731191	 3.0991147508	 2.4245368423	 0.119705
H	 2.5440728574	 1.5130191748	 2.4651953399	 0.127906
H	 4.1956354267	 2.6914110874	 0.1641763242	 0.11383
H	 4.3349650549	 1.0602963244	 0.8662003906	 0.126161
