20
gdb 15994	3.34902	1.51018	1.187	1.2465	75.19	-0.2602	0.0763	0.3365	1068.1005	0.176779	-348.972548	-348.964099	-348.963155	-349.005738	31.735	
O	-0.0793928737	 1.4375308323	-0.2006855558	-0.422943
C	 0.0423060838	 0.0370843053	 0.0090544181	-0.098772
C	-1.3550977904	-0.5459878758	 0.0521963689	-0.025818
C	-2.1640677197	-0.5805048932	-1.2781618328	-0.215531
C	-2.5692533117	-2.0542775683	-0.9819549847	-0.301563
C	-1.5164186464	-2.0759586775	 0.135530039	 0.359018
C	-0.4126855559	-3.0900737586	 0.2692240252	-0.321981
C	-1.4707433646	-2.9620785937	 1.342223347	-0.324779
H	 0.8046669181	 1.808959656	-0.2715226269	 0.285171
H	 0.6154613275	-0.4402192129	-0.8022681474	 0.08212
H	 0.5704786707	-0.1785276511	 0.9537078726	 0.079582
H	-1.9188971073	-0.0415351947	 0.8452488409	 0.075859
H	-2.9735692355	 0.1444444679	-1.3775924101	 0.101028
H	-1.5117915403	-0.4921264863	-2.1515078525	 0.099809
H	-3.592013129	-2.1452031434	-0.6020001984	 0.099108
H	-2.4383562288	-2.7738775079	-1.7952272162	 0.095446
H	-0.4429214771	-3.9597244138	-0.3802281279	 0.108452
H	 0.590971429	-2.7489462174	 0.5026609833	 0.108966
H	-1.1799272034	-2.5230794763	 2.2920885435	 0.108067
H	-2.2151148855	-3.7480447406	 1.4262356041	 0.10876
