17
gdb 97044	4.22523	1.0571	0.89205	1.8407	72.6	-0.2479	0.011	0.2589	1281.9	0.136542	-455.182957	-455.174176	-455.173231	-455.217448	31.158	
C	-0.2141271337	 1.4245923618	 0.1189637841	-0.326558
N	-0.2438628	-0.007131061	-0.1403380618	-0.301846
C	 0.622254501	-0.5141394997	-0.9032040054	 0.432156
C	 0.5868827612	-1.9905109901	-1.2336214961	-0.28216
N	 1.9352483695	-2.5186335751	-1.3763154255	-0.312038
C	 2.8857028625	-1.8518971481	-2.0851214811	 0.390087
O	 3.9594346732	-2.3127158485	-2.4132944331	-0.361834
C	 2.4584338942	-0.4310666739	-2.4501840824	-0.203801
O	 1.6327756285	 0.2046784292	-1.469944837	-0.249248
H	 0.1878220627	 2.0144487959	-0.7129382643	 0.120856
H	-1.2293279397	 1.7631409342	 0.343368045	 0.122661
H	 0.4021877037	 1.631374486	 1.0029750182	 0.129784
H	 0.0678682616	-2.499721506	-0.4227020194	 0.157174
H	-0.0041086427	-2.143947894	-2.1506406829	 0.13238
H	 2.1203979386	-3.488731399	-1.1684224323	 0.259645
H	 3.35331986	 0.1823730048	-2.5494882874	 0.157551
H	 1.9442644293	-0.4512357164	-3.4219694885	 0.135191
