17
gdb 114301	2.20953	1.5299	1.16874	3.5408	72.23	-0.2625	0.0011	0.2636	1094.5331	0.136377	-417.958805	-417.950433	-417.949489	-417.992076	31.003	
O	 0.8221145895	-1.276745654	-0.8678447123	-0.416664
C	 0.2280769398	-0.2985351762	-0.0310413722	-0.105936
C	-1.2864829489	-0.359087428	-0.125998575	 0.060931
C	-2.2404806822	 0.6037203068	 0.6324498565	-0.317988
C	-2.8971781957	 0.8493815365	-0.7254206509	-0.019651
C	-1.9440524954	 1.4526075201	-1.6865964391	-0.151176
C	-0.9317991652	 2.3969906712	-1.2835837905	 0.301861
N	-0.1476498774	 3.1948387662	-0.9875195907	-0.344245
N	-1.913999607	-0.0241052456	-1.4729605481	-0.181759
H	 0.5293978681	-1.1010927198	-1.7688541398	 0.293971
H	 0.5229726946	-0.5477635342	 0.994982026	 0.115994
H	 0.6122528814	 0.7056581719	-0.2450779135	 0.127955
H	-1.5817860134	-1.3964458945	 0.0540032718	 0.111587
H	-2.8808223964	 0.100461374	 1.3568762257	 0.12443
H	-1.7987162492	 1.4878750205	 1.099695122	 0.136239
H	-3.9610871501	 0.8279770887	-0.9377332465	 0.11666
H	-2.3390800723	 1.6688642363	-2.6755316334	 0.147792
