17
gdb 86967	2.61328	1.38772	1.13476	3.4144	72.99	-0.2661	-0.0007	0.2654	1121.9349	0.137103	-418.034718	-418.026532	-418.025588	-418.067749	30.375	
C	-0.010011922	 1.5856214813	 0.0158609921	-0.389569
C	 0.069197289	 0.0595195083	 0.0492096011	 0.045217
C	 0.6763447609	-0.5172960215	-1.2359677015	-0.248814
C	 0.9662462194	-2.0114993637	-1.0447707486	-0.037674
O	 1.7601482023	-2.2409297582	 0.1231259968	-0.22712
C	 1.5590459443	-1.3787288423	 1.167102377	 0.129223
N	 0.8276173146	-0.3559219165	 1.2333730146	-0.260869
C	-0.2748611363	-2.8051165445	-0.9622080661	 0.289798
N	-1.2538848063	-3.4166270992	-0.9191195148	-0.317459
H	 0.9887345429	 2.0219006538	-0.0890295438	 0.120205
H	-0.6278378283	 1.9272290169	-0.8206557427	 0.113098
H	-0.4431458377	 1.956302637	 0.9478674639	 0.134026
H	-0.9501609122	-0.3340797	 0.1651892178	 0.114919
H	 0.0181112082	-0.3752967526	-2.0975331257	 0.129402
H	 1.6282471551	-0.0202198998	-1.453131908	 0.122253
H	 1.5555884167	-2.4031521966	-1.8790783965	 0.145046
H	 2.1641960194	-1.7027703023	 2.0109272044	 0.138318
