17
gdb 3506	6.11934	1.78972	1.74052	2.0404	64.08	-0.233	0.083	0.316	798.4652	0.14855	-309.647349	-309.640699	-309.639754	-309.678049	25.307	
C	 0.0116682784	 1.5840795662	-0.0269327294	-0.371944
C	 0.1601586291	 0.0624111451	-0.1552231941	-0.235554
C	 0.7436445915	-0.5666436837	 1.1015852177	 0.06777
C	-0.0720305652	-0.8229437977	 2.4060287542	 0.040468
C	-0.8078987121	-2.0108384364	 1.7410731007	-0.228457
C	 0.7022549018	-2.0912877573	 1.4114541784	 0.022246
O	 0.9891053499	-1.7670446836	 2.8293522908	-0.310305
H	 0.9742725486	 2.0583255506	 0.1927335343	 0.11904
H	-0.3738291818	 2.0238160219	-0.9516743661	 0.114491
H	-0.6784556466	 1.8488270176	 0.7813776997	 0.117694
H	-0.8097697312	-0.3784479707	-0.4082055339	 0.098652
H	 0.8261005134	-0.1676691752	-0.9971685001	 0.102322
H	 1.7271077139	-0.1480632365	 1.3379080911	 0.079487
H	-0.4348944183	-0.1147451171	 3.1520342966	 0.089985
H	-1.1612307617	-2.7720912629	 2.4372838249	 0.107943
H	-1.5186529598	-1.8144070647	 0.9364112035	 0.096641
H	 1.2703546503	-2.9058354457	 0.9597929317	 0.08952
