23
gdb 65248	3.08187	1.21934	1.01504	0.2988	90.82	-0.2354	0.0263	0.2618	1282.0139	0.206587	-351.15958	-351.150666	-351.149722	-351.193228	35.102	
C	 0.0248548265	 1.5037806722	 0.397137473	-0.457198
C	 0.0370969368	 0.0327725427	 0.0195183093	 0.360767
C	 1.0957067847	-0.4311871243	-0.9517387509	-0.294561
C	 1.2066587421	-0.7832015148	 0.5150818162	-0.317451
C	-1.3578926267	-0.591983574	-0.0521404817	-0.077641
C	-2.2539008488	 0.0323297769	-1.1643885369	-0.216472
C	-3.1501026486	-1.1165533549	-1.688794064	-0.261168
C	-2.4009531903	-2.3515221811	-1.2520892021	-0.075742
C	-1.4398806116	-2.0713104897	-0.3739662607	-0.08216
H	 1.0408581403	 1.9073343929	 0.4500067553	 0.108974
H	-0.5316250662	 2.1031798921	-0.3319298268	 0.11636
H	-0.4445859356	 1.6543359688	 1.3771627362	 0.110965
H	 0.8363715206	-1.2293845806	-1.6394819582	 0.112724
H	 1.7831014262	 0.3031052344	-1.3587708789	 0.103034
H	 1.9601697734	-0.2741913559	 1.1075223351	 0.103261
H	 1.0512986552	-1.8164517537	 0.8033941351	 0.107451
H	-1.8267665111	-0.4283207255	 0.9328684741	 0.072098
H	-2.8304468084	 0.8912003052	-0.8123746792	 0.095074
H	-1.6050222805	 0.382894651	-1.9743316006	 0.106076
H	-4.1505200883	-1.0951321805	-1.2328678302	 0.103923
H	-3.3089241753	-1.0681586192	-2.7722359586	 0.100611
H	-2.6674489812	-3.3485468746	-1.586743437	 0.089395
H	-0.8183814231	-2.8133801175	 0.1144915215	 0.091679
