23
gdb 92082	2.44548	1.52846	1.22527	1.2871	84.73	-0.2384	0.0772	0.3156	1156.6622	0.206641	-388.289302	-388.280401	-388.279456	-388.322262	35.37	
C	-0.3255919315	 1.6056379057	 0.0417099934	-0.401448
C	-0.0549233737	 0.0943678129	-0.023587265	 0.013387
C	 0.5764154113	-0.3682805202	-1.363957452	-0.252057
C	 2.0986904107	-0.3667596048	-1.3894894332	-0.037644
C	 2.9532223301	 0.8694383873	-1.1989738864	-0.312112
C	 2.8527753907	-0.1565932121	-0.1011131042	 0.098419
O	 2.1301457829	 0.195058366	 1.0431957373	-0.270286
C	 0.8353503746	-0.4064361608	 1.1306464938	 0.146089
C	 0.3088929167	-0.104729104	 2.5263183201	-0.411861
H	 0.5993082716	 2.1795870155	 0.1388797362	 0.132165
H	-0.8434330119	 1.942765022	-0.8618595105	 0.10761
H	-0.9595625113	 1.8589415631	 0.8967294334	 0.112925
H	-1.0212396885	-0.4187891958	 0.0660991682	 0.068963
H	 0.2559559042	-1.4024300861	-1.5413417841	 0.097062
H	 0.17262169	 0.2215130696	-2.1959622791	 0.096085
H	 2.522666241	-1.1079367884	-2.0610899229	 0.084925
H	 3.8775717219	 0.9363576564	-1.7630227278	 0.106451
H	 2.4647966611	 1.8199095981	-1.0210777364	 0.120345
H	 3.7186969641	-0.779511441	 0.1173213391	 0.083224
H	 0.9418543177	-1.499112162	 1.0215163246	 0.058955
H	 0.2710897182	 0.9727321161	 2.7063495875	 0.127485
H	-0.6971276368	-0.5159876825	 2.6553955474	 0.110559
H	 0.9653842069	-0.5485807749	 3.2794581306	 0.120759
