19
gdb 53442	4.3854	0.81519	0.73056	1.3306	87.05	-0.2374	0.0169	0.2544	1587.27	0.159183	-385.869665	-385.860444	-385.8595	-385.907053	32.938	
C	 0.0443800196	 1.4998929747	-0.0305500453	-0.497799
C	 0.0220350905	 0.0439205428	-0.0200728676	 0.058129
C	 0.0045848038	-1.1603590671	-0.0212236358	 0.062635
C	-0.0114423709	-2.6211000384	 0.0108263168	-0.217475
C	 0.7309791589	-3.1558099355	 1.2565307966	-0.088147
O	 0.5838556007	-4.5569483371	 1.3653200855	-0.246145
C	-0.7518136624	-4.9479730631	 1.621330869	-0.117556
C	-1.7541924993	-4.2256657266	 0.7650637994	-0.087637
C	-1.4241196863	-3.1798873985	 0.0134407592	-0.050135
H	 1.0711237506	 1.8822906466	-0.0363762744	 0.147943
H	-0.4614150603	 1.8990629382	-0.9167638413	 0.147973
H	-0.4577875609	 1.9134250277	 0.8510400546	 0.147545
H	 0.5154545045	-2.9970378602	-0.8792697247	 0.115343
H	 1.8027792442	-2.957213335	 1.1837838741	 0.114911
H	 0.3427581266	-2.6448299477	 2.1511984445	 0.098481
H	-0.7933539117	-6.0273796293	 1.4324662848	 0.118361
H	-0.999718566	-4.8032696844	 2.6894934109	 0.099449
H	-2.7744090732	-4.5998313525	 0.7888544204	 0.094857
H	-2.1567210185	-2.6775151146	-0.6103053966	 0.099269
