19
gdb 70639	2.43858	1.56034	1.1753	2.974	79.04	-0.2469	0.0318	0.2787	1102.6823	0.160768	-382.078626	-382.070353	-382.069409	-382.111315	31.854	
C	-0.2964400199	 1.3768222419	-0.01973637	-0.482274
C	-0.046543919	-0.1075921346	 0.0546459911	 0.340502
C	-0.6838091292	-0.9687116849	 1.0856945603	-0.292954
N	 0.750147821	-0.6444449395	 1.171381006	-0.132795
C	 1.6318059761	-1.696181343	 0.6369141643	-0.163621
C	 1.1052725059	-2.1061939499	-0.7577883357	-0.265526
C	 0.3768205187	-0.8242913572	-1.2417249009	-0.194002
C	-0.7357378757	-1.0883040846	-2.1503319308	 0.274775
N	-1.624592979	-1.2951031362	-2.8601660431	-0.330616
H	 0.5774451228	 1.9031141644	-0.4203366004	 0.120681
H	-1.1510697323	 1.5940802413	-0.6692705337	 0.137891
H	-0.5073896602	 1.778995304	 0.9737284084	 0.134199
H	-1.2950022657	-0.5069324101	 1.8553650165	 0.122558
H	-0.98675331	-1.9786693814	 0.8210856058	 0.119288
H	 2.6374261241	-1.2690941701	 0.5598071846	 0.115251
H	 1.6829154022	-2.5402509184	 1.3309344791	 0.117213
H	 1.9017244426	-2.405622977	-1.4415567551	 0.12309
H	 0.4025346383	-2.9398048006	-0.6969905846	 0.132207
H	 1.0859148194	-0.1725453542	-1.7674823117	 0.124133
