20
gdb 9737	3.16606	1.59321	1.49632	2.7968	74.19	-0.2429	-0.0164	0.2265	975.7123	0.177012	-349.036161	-349.0276	-349.026656	-349.069507	31.455	
C	-0.3841103032	 1.6713986108	 0.1001420553	-0.44215
C	 0.0890853881	 0.2204149186	 0.0244093746	 0.182998
C	 1.0624076397	-0.0545722586	-1.1577083706	-0.237115
C	 1.8711511327	-1.3144193362	-0.775936005	-0.21144
C	 1.7988450629	-1.4186273676	 0.7751139729	-0.211376
C	 0.9487211963	-0.2170628823	 1.2450902005	-0.237173
C	-1.1011122368	-0.7162441492	-0.0951862178	 0.152377
O	-2.255679232	-0.3712775691	-0.1267970019	-0.261639
H	 0.472844346	 2.3469633377	 0.1863504198	 0.104819
H	-0.9550454956	 1.9476272972	-0.7905908638	 0.125379
H	-1.0379347074	 1.8291066676	 0.9623040169	 0.125369
H	 0.5440069461	-0.1537455907	-2.1168703191	 0.105648
H	 1.7257516262	 0.813193281	-1.2461730177	 0.10475
H	 1.4414914411	-2.2072759103	-1.2395635918	 0.105816
H	 2.9008519991	-1.2467882487	-1.136752708	 0.103229
H	 1.3351529999	-2.363382496	 1.0737089876	 0.105804
H	 2.7902571692	-1.4045671704	 1.2354970956	 0.103257
H	 1.59456944	 0.6270397712	 1.5119418249	 0.104769
H	 0.3429604751	-0.441713943	 2.128918529	 0.10565
H	-0.8402829173	-1.7987363719	-0.1556281813	 0.071028
