23
gdb 120134	2.60981	1.04239	0.87998	1.441	85.69	-0.2481	0.0766	0.3247	1428.6406	0.205542	-388.254671	-388.244951	-388.244007	-388.289634	36.596	
C	 0.922237771	 2.091640173	 3.1414549899	-0.418123
C	 0.4608060687	 0.7152417872	 2.6714766616	 0.050387
C	-0.1576273453	 0.5095013578	 1.2455586008	-0.265072
C	 0.7857478035	-0.682937288	 1.0252461764	-0.089579
C	 2.2303894573	-0.2771593694	 1.0779275382	 0.006855
C	 2.8362626177	 0.9699800811	 0.4648447116	-0.220969
C	 4.1316292926	 1.387333193	 1.1519033692	-0.06173
O	 4.6291520383	 2.5382834562	 0.4841374638	-0.42347
C	 1.4680237258	-0.4111784423	 2.3772930089	-0.096917
H	 1.6142123464	 2.5678214581	 2.4423649785	 0.126913
H	 0.065662458	 2.7639214725	 3.2673553129	 0.110629
H	 1.42808429	 2.0196540781	 4.1112524764	 0.110088
H	-0.2582974297	 0.3304069854	 3.4029944542	 0.074982
H	-1.2122465424	 0.2283153678	 1.2805990149	 0.098854
H	-0.0512014662	 1.3407043375	 0.5410549234	 0.097298
H	 0.4799429354	-1.6338185291	 0.6045963586	 0.080251
H	 2.8768236412	-1.1456924033	 0.9443886913	 0.08123
H	 3.0536875264	 0.7817572543	-0.5941559909	 0.102049
H	 2.1441903678	 1.8153862264	 0.4865891487	 0.109068
H	 3.9358259764	 1.594278235	 2.2156727703	 0.089616
H	 4.8574673752	 0.5580890263	 1.1116828855	 0.079333
H	 5.4421988168	 2.8102063338	 0.9193852241	 0.283861
H	 1.7890382151	-1.1326358312	 3.1215793817	 0.074445
