17
gdb 108389	2.3738	1.43643	1.10358	5.3027	73.81	-0.2408	0.0284	0.2693	1138.4957	0.135563	-417.956614	-417.947951	-417.947007	-417.990351	31.545	
C	-0.2993096318	 1.4441237053	 0.121736261	-0.334103
N	 0.2509109532	 0.1038854536	-0.0819196237	-0.373074
C	 0.8081684237	-0.4938672628	 1.0685358362	 0.268214
C	 2.2855924849	-0.4118943768	 1.469793678	-0.124806
O	 2.2531315406	-1.7903544388	 1.9492433056	-0.27142
C	 0.9065182652	-1.9130021136	 1.5344423791	 0.024741
C	 0.0006098133	-0.9669083479	 2.3125548186	-0.275366
C	 0.2935882505	-0.5515563982	 3.6525807905	 0.306654
N	 0.540599408	-0.188147876	 4.723462015	-0.348236
H	 0.4999115377	 2.1208204506	 0.4394669249	 0.138407
H	-0.6952921917	 1.8164992296	-0.8262336593	 0.128133
H	-1.0971165732	 1.4856241082	 0.8801006499	 0.113247
H	-0.4251230035	-0.5054880929	-0.5259366145	 0.231388
H	 2.938008248	-0.3247720037	 0.5967748989	 0.128114
H	 2.5768208135	 0.2913021322	 2.2548568894	 0.134666
H	 0.5683235779	-2.8625250464	 1.1333047556	 0.124157
H	-1.0554553463	-1.0940127224	 2.0903685046	 0.129285
