17
gdb 6789	7.69741	0.70957	0.65781	1.2513	61.94	-0.2657	0.0582	0.3239	1622.0677	0.140879	-438.174716	-438.165127	-438.164183	-438.210452	32.507	
N	-0.1848036666	 1.2881758483	 0.1221556808	-0.563432
C	 0.0540276783	-0.0554743938	 0.0335339642	 0.492055
O	 1.146502181	-0.5702613588	-0.016108694	-0.397626
O	-1.1204429386	-0.7327947263	 0.0451102135	-0.260657
C	-0.9961488593	-2.1626298775	 0.0137563771	-0.055558
C	-2.4014796406	-2.7407806535	 0.0232688304	-0.190644
C	-2.3954909952	-4.2642312158	-0.0058745119	-0.072991
O	-3.7464418304	-4.697020087	 0.001767445	-0.419686
H	 0.5909643708	 1.8897661146	-0.0945234287	 0.267793
H	-1.1123821829	 1.6277058403	-0.0676666215	 0.263863
H	-0.439425866	-2.4564690201	-0.8827314374	 0.118816
H	-0.4133820687	-2.4919873893	 0.8809345502	 0.119634
H	-2.934592988	-2.4031609027	 0.9183753465	 0.117421
H	-2.9602350595	-2.3701468559	-0.8427894172	 0.115581
H	-1.8672541747	-4.6196488478	-0.9059119627	 0.088921
H	-1.8463077893	-4.6532728087	 0.8672290622	 0.08948
H	-3.7540219904	-5.658350726	-0.0131448367	 0.287031
