18
gdb 36602	5.2793	0.79173	0.77702	4.7119	77.17	-0.2498	0.0356	0.2854	1470.5692	0.14739	-401.900446	-401.89215	-401.891206	-401.93429	30.856	
N	-0.0347646003	-1.1060217291	-0.1339694284	-0.304728
C	-0.0261305372	 0.0478447023	-0.0718322525	 0.257426
C	 0.0074334376	 1.5050954826	 0.0114788728	-0.341556
C	 1.4461424744	 2.057449905	 0.0887572694	-0.348517
C	 1.451934576	 3.5576389994	 0.1260626459	 0.43729
C	 0.7718228238	 4.5465908392	 1.1176200795	-0.259583
C	 1.3079202029	 5.330583708	-0.0998504421	 0.055662
C	 2.6378227619	 4.5478293804	-0.0215011188	-0.269867
O	 0.7676073307	 4.2740868341	-0.9890423641	-0.34825
H	-0.4980184428	 1.9285587874	-0.8623490794	 0.177288
H	-0.5672315158	 1.817426551	 0.8905163369	 0.154055
H	 1.9528036908	 1.6712971104	 0.9795576892	 0.130397
H	 2.0164531902	 1.7180329817	-0.782080153	 0.136949
H	-0.3151426687	 4.4788367014	 1.1793765987	 0.108669
H	 1.2475030865	 4.7081894713	 2.0882609445	 0.100061
H	 1.1284576355	 6.3650461298	-0.3888312182	 0.103011
H	 3.2848050118	 4.7098799976	 0.8442710856	 0.099561
H	 3.1864676827	 4.4707150874	-0.9609475061	 0.112131
