16
gdb 28944	2.89609	1.27639	1.00655	1.0348	76.6	-0.1835	0.036	0.2196	1178.3832	0.123463	-400.736029	-400.727268	-400.726324	-400.770511	32.307	
O	 0.3130152272	 1.3522530715	 0.1177880479	-0.442316
C	 0.1621943309	 0.0110938343	-0.0461167061	 0.374311
C	 0.1320861968	-0.802481266	-1.1519605656	-0.308559
C	-0.0534111904	-2.1338950024	-0.6637034383	-0.144872
C	-0.1265599048	-2.0766368962	 0.7014396629	-0.110442
N	 0.0150881769	-0.7501569633	 1.0825180851	-0.029425
C	-0.0498830706	-0.2363590487	 2.4407560819	-0.332302
C	-1.4088932357	-0.1581869551	 2.9784288845	 0.325707
C	-2.5196879143	-0.1002539969	 3.4310889974	-0.455378
H	 0.443057293	 1.7481739285	-0.7486065107	 0.309237
H	 0.2368849386	-0.4878473571	-2.1787866733	 0.086534
H	-0.1188566051	-3.0292205909	-1.2624703629	 0.094327
H	-0.2720265864	-2.8416627619	 1.4461109601	 0.116675
H	 0.5658358243	-0.8746014311	 3.0852179667	 0.145982
H	 0.4085097709	 0.7563236373	 2.4410170828	 0.166764
H	-3.5046226314	-0.0462332119	 3.8245484777	 0.203757
