18
gdb 16584	3.13227	1.80816	1.48108	3.2223	72.54	-0.234	-0.0076	0.2263	937.3896	0.153059	-347.802642	-347.794621	-347.793677	-347.83481	30.088	
C	-0.0238593605	 1.5665904409	-0.0345999917	-0.418662
C	 0.0821127749	 0.0547956757	-0.0681773781	-0.016602
C	 0.6746030974	-0.764275812	-1.1609731013	-0.066246
C	 1.3509472931	-0.7354711979	 0.2471595104	-0.199398
C	 2.5487818376	-0.1097866522	-0.3976132801	 0.41412
O	 3.6775490238	 0.0786141134	-0.0354169462	-0.330643
C	 1.8917115311	-0.0753884857	-1.8073387249	-0.123312
C	 2.6771385602	-0.9199062992	-2.8098595466	-0.406968
H	 0.8540212596	 2.0612578372	-0.4556142895	 0.131965
H	-0.9017318169	 1.9033942227	-0.596786079	 0.121487
H	-0.1335827183	 1.9163293754	 0.9969104968	 0.12676
H	-0.7765606367	-0.433994206	 0.3900372529	 0.098604
H	 0.1624982925	-1.6122910463	-1.5991902383	 0.098999
H	 1.3701795114	-1.4725551942	 1.0411832554	 0.105273
H	 1.6994078238	 0.9188769986	-2.2231778358	 0.089179
H	 2.858564579	-1.928201856	-2.422670516	 0.121453
H	 2.1340804481	-1.0118049463	-3.7558322434	 0.117074
H	 3.6480047902	-0.4596352582	-3.0123352945	 0.136916
