19
gdb 40327	4.20068	1.26747	1.24456	0.1402	82.44	-0.2098	0.0837	0.2935	1086.5355	0.159429	-348.624931	-348.617706	-348.616762	-348.656852	29.482	
C	-0.0707977658	 1.4777557106	-0.0768096509	-0.270546
C	 1.2926210835	 0.8367585936	 0.0061621382	-0.270568
C	 0.0504255691	-0.0224127524	 0.0613620835	-0.149272
C	-0.3442537411	-0.6998242174	 1.3126404283	 0.415311
C	-0.2302517322	-0.2662984829	 2.8131096364	-0.170836
C	-0.1007379805	-1.7250028596	 3.2258273477	-0.085546
C	-1.4749120886	-1.0769012076	 3.1427484821	-0.085558
C	-1.592077601	-1.5115317056	 1.6523315938	-0.161236
C	-0.2137543959	-2.1611242546	 1.7355171162	-0.161275
H	-0.4201050635	 2.0358632104	 0.785507902	 0.113549
H	-0.3960611752	 1.8822373295	-1.0289576106	 0.109378
H	 1.9036497903	 0.8010335079	-0.8890245028	 0.109383
H	 1.8565865437	 0.9655685803	 0.9240109854	 0.113545
H	-0.1668964693	-0.6006231069	-0.8338023636	 0.080018
H	 0.1600957388	 0.6225995441	 3.2913584606	 0.082986
H	 0.4098357405	-2.154253636	 4.0773414329	 0.084147
H	-2.2114000409	-0.9179743454	 3.918857906	 0.084145
H	-2.4371622062	-1.7647015036	 1.0257049465	 0.081189
H	 0.1870901843	-3.0014716645	 1.1840936583	 0.081186
