16
gdb 49533	2.77247	1.60774	1.20856	2.4188	70.5	-0.247	0.0039	0.251	1016.731	0.123691	-437.800527	-437.793147	-437.792203	-437.832544	28.237	
O	 0.2267005993	 0.1217118731	 0.6580800837	-0.306955
C	 0.1581523117	 1.2699275529	 0.2844003119	 0.136888
N	 1.1369328924	 1.9246683032	-0.4328962928	-0.075498
C	 2.6161540537	 1.7072364925	-0.2276916072	-0.136371
C	 2.8264007055	 2.9737335883	-1.1137149494	-0.226313
C	 1.6545427435	 3.3180801191	-0.1464415029	-0.156702
C	 2.5074651111	 2.6769813612	 0.9751807668	 0.545543
C	 2.4410152549	 2.5596536471	 2.419512151	-0.307266
O	 3.5282742122	 3.2469509033	 1.7323396142	-0.294559
H	-0.7536368456	 1.892463144	 0.3952394785	 0.076356
H	 3.0692348741	 0.722374733	-0.2995749154	 0.121429
H	 3.7552670443	 3.5226719323	-0.961651953	 0.129558
H	 2.5479902311	 2.8619314183	-2.1614202623	 0.117503
H	 1.0029266736	 4.1901724476	-0.1316400761	 0.106306
H	 1.7845009057	 3.2098538168	 2.9943207987	 0.129393
H	 2.7209117724	 1.6266415973	 2.9030136843	 0.140685
