23
gdb 122284	4.69478	0.75544	0.73786	0.9542	87.43	-0.2461	0.0923	0.3385	1683.2565	0.205742	-388.243732	-388.234489	-388.233545	-388.278628	34.937	
C	-0.054989919	 1.4722441267	-0.0560083901	-0.382709
C	 0.0328089266	-0.0523716769	 0.0462192414	-0.183587
C	 0.7747565303	-0.5077225893	 1.2947077912	-0.06857
O	 0.8077296	-1.9274446162	 1.3075434921	-0.299346
C	 1.4537853682	-2.4771522433	 2.3897126921	 0.453726
C	 1.086486506	-2.3648826293	 3.9088342334	-0.280797
C	 2.3057920382	-3.3250280623	 3.8129055393	-0.051596
C	 1.6059722464	-3.999825567	 2.5963194872	-0.27222
C	 2.9549254111	-2.3267950146	 2.8129384302	-0.280794
H	 0.9405209533	 1.9285115218	-0.09262382	 0.116107
H	-0.5914456453	 1.775234336	-0.9596738279	 0.117322
H	-0.5835123099	 1.9007851402	 0.8028163841	 0.11611
H	-0.9710626455	-0.4921067677	 0.0581845045	 0.107162
H	 0.5432577477	-0.4645751946	-0.8317330169	 0.107153
H	 1.8000353183	-0.1047629002	 1.3010369867	 0.091156
H	 0.2710594439	-0.1321078634	 2.1996092984	 0.091107
H	 1.2618164701	-1.4026902211	 4.3973596396	 0.087747
H	 0.1348597292	-2.8084812331	 4.2137207676	 0.090736
H	 2.8013503979	-3.8264582988	 4.6403137782	 0.079995
H	 0.6886516582	-4.5572155182	 2.8032618455	 0.09141
H	 2.2506924491	-4.525419111	 1.8870372499	 0.091395
H	 3.698517747	-2.735797875	 2.1236436921	 0.090731
H	 3.2664420882	-1.3618252028	 3.2216067015	 0.087763
