18
gdb 47812	2.24186	1.95349	1.1926	3.968	73.04	-0.2385	-0.0016	0.2369	1038.3216	0.149571	-439.08408	-439.076479	-439.075535	-439.116164	29.408	
O	 0.0069511329	 0.037632234	 0.7210667115	-0.331495
C	-0.0169163352	 1.1197502416	 0.1818394778	 0.342363
C	-1.3122297829	 1.8647483534	-0.1718857418	-0.157749
O	-1.6004980245	 2.8945075351	 0.7602809492	-0.241974
C	-0.8275872088	 4.0748791601	 0.6486806058	-0.068327
C	 0.6200028279	 3.8982975045	 1.136682571	-0.237126
C	 1.4871260062	 3.1508373168	 0.1451352918	-0.017865
C	 2.3207172022	 1.9685318793	 0.5613577455	-0.25352
N	 1.1288323429	 1.7932064371	-0.2321771589	-0.074623
H	-1.2485329152	 2.2683470814	-1.1942487149	 0.10178
H	-2.1353676184	 1.1513116897	-0.1079006736	 0.132467
H	-0.8393625211	 4.4475775129	-0.3895403319	 0.091689
H	-1.3390405436	 4.8110705476	 1.2756953422	 0.11523
H	 1.0619237327	 4.8839613662	 1.3243574746	 0.109009
H	 0.586793095	 3.3672663855	 2.0948508849	 0.122178
H	 1.8508574908	 3.7518874177	-0.688138794	 0.101549
H	 3.2637791697	 1.7670311025	 0.0605913717	 0.128472
H	 2.2713182193	 1.6517892546	 1.600519399	 0.137941
