19
gdb 103955	3.33609	1.23949	1.12314	1.7337	70.46	-0.2393	0.0561	0.2954	1136.8488	0.15797	-460.110783	-460.10204	-460.101096	-460.143719	34.087	
C	-0.1850342104	 1.6448275001	 0.2015225801	-0.454986
C	-0.0237105338	 0.1357921719	 0.1824407192	 0.361408
C	-1.3110212737	-0.5754375585	-0.2507771131	-0.080006
O	-1.6433799238	-0.250267689	-1.5844913144	-0.42009
O	 1.0272751796	-0.331583221	-0.7621385054	-0.359291
C	 1.576900461	-1.18388913	 0.2558927275	 0.010091
C	 2.1820292731	-0.328357685	 1.3080504253	 0.121029
O	 2.7892582354	 0.8872243468	 1.0059918171	-0.433697
C	 0.6798952058	-0.5820184389	 1.3354294872	-0.236337
H	 0.7509496304	 2.1463711306	 0.4454180591	 0.132911
H	-0.5580790978	 1.9898567795	-0.7664732089	 0.135644
H	-0.9234796725	 1.918138808	 0.9630523218	 0.122579
H	-1.1847245302	-1.6609141654	-0.1176065326	 0.086151
H	-2.1496276667	-0.2541113088	 0.3767295995	 0.10788
H	-0.8601581359	-0.4666970495	-2.1061398677	 0.291119
H	 1.8451906005	-2.1965954921	-0.0235886028	 0.105167
H	 2.7123185916	-0.8605458375	 2.0935315936	 0.114389
H	 2.6398497854	 1.0293951464	 0.061433921	 0.29539
H	 0.177233982	-1.0467865676	 2.1745583935	 0.10065
