20
gdb 118564	1.57081	1.23382	0.76872	3.1204	73.	-0.2484	0.0332	0.2815	1496.6223	0.169333	-477.435538	-477.424759	-477.423815	-477.472501	37.258	
O	 0.2148215261	 1.1222471339	 0.0707201817	-0.425447
C	 0.097553877	-0.2931152738	 0.0031516023	-0.083683
C	-1.3901247955	-0.6217362707	 0.0071186928	-0.162264
C	-1.6899469186	-2.1293690659	-0.0017057169	 0.017006
C	-3.1865212333	-2.4138998182	 0.1228463062	-0.102186
O	-3.808546609	-1.9469567795	-1.0702637263	-0.426284
N	-1.20021894	-2.7930422762	-1.2066418271	-0.268902
C	-0.0556949933	-3.5173568251	-1.2510977709	 0.155916
O	 0.7209086386	-3.6598715378	-0.327181526	-0.338892
H	 1.150225264	 1.3433174208	 0.0466561595	 0.28524
H	 0.5697042173	-0.6879096659	-0.908012806	 0.094034
H	 0.591597728	-0.7795453852	 0.8581860354	 0.098742
H	-1.8357095308	-0.1808745769	 0.9071832798	 0.103408
H	-1.8718468371	-0.142468554	-0.8512326408	 0.116434
H	-1.1749714071	-2.6053202423	 0.8387143284	 0.114937
H	-3.3413077131	-3.4951873045	 0.2494378548	 0.098117
H	-3.5861884398	-1.9015262296	 1.0099201415	 0.098598
H	-4.7403116633	-2.1811151095	-1.0439237902	 0.295836
H	-1.7925436799	-2.7417631016	-2.0215293293	 0.255452
H	 0.1030344797	-3.9765234682	-2.2474243787	 0.073937
