14
gdb 19218	3.15298	2.02424	1.44892	3.1826	68.36	-0.2381	-0.0173	0.2208	855.907	0.106103	-345.356661	-345.349608	-345.348664	-345.387967	26.736	
O	-0.0753282469	 0.024308852	-0.1243156372	-0.303368
C	-0.1010511537	 1.2085400582	 0.0232720962	 0.410357
C	-1.1607868658	 2.2560180958	-0.0540210006	-0.173569
C	-1.0081173719	 3.2187195937	 1.1234775529	-0.283576
C	-0.0638228997	 3.3505184486	-0.0109386837	-0.049552
C	 1.0531856331	 2.2900169574	 0.1136881322	-0.31494
C	 1.9283252501	 2.318142405	 1.2646007591	 0.330722
C	 2.6319389581	 2.326543599	 2.2398858959	-0.454078
H	-2.0812620247	 2.1988096024	-0.6207850651	 0.117366
H	-1.8020312537	 3.9556665248	 1.1808388706	 0.131549
H	-0.6579227854	 2.8569140802	 2.0849592975	 0.142117
H	-0.001864908	 4.2265111908	-0.6419121214	 0.114239
H	 1.6294161078	 2.2030875753	-0.8151610394	 0.132129
H	 3.2610270808	 2.3332228268	 3.095321653	 0.200604
