15
gdb 34715	3.14152	1.72943	1.5361	4.2687	72.35	-0.2494	-0.0197	0.2296	884.2162	0.114868	-379.630403	-379.623915	-379.622971	-379.661232	25.945	
N	-0.059525418	-1.2063799359	-0.1030262364	-0.325314
C	-0.0168387246	-0.0548347844	-0.0135708674	 0.302213
C	 0.0108807913	 1.4030957278	 0.0798712009	-0.109349
C	-0.3019468333	 2.1178048486	 1.4596272318	-0.125287
C	 0.2528080099	 1.2303438381	 2.5428234197	-0.101319
C	 1.5856806237	 1.1868116174	 2.4182137804	-0.068026
C	 2.0117516398	 2.1252111544	 1.3505643866	-0.057379
C	 0.8888065137	 3.0284162626	 1.0371687516	-0.04815
N	 1.3343149075	 2.0808541739	-0.0380574582	-0.161229
H	-0.6181853392	 1.8212084896	-0.709801123	 0.140917
H	-1.3047440288	 2.5193032299	 1.5843061672	 0.091826
H	-0.3609676004	 0.5926129303	 3.1655428998	 0.122115
H	 2.2689667008	 0.541875029	 2.9540991247	 0.117894
H	 3.039761038	 2.4443437134	 1.2375637652	 0.112181
H	 0.9136214097	 4.1068301553	 0.9252368271	 0.108907
