14
gdb 28176	5.33377	1.2884	1.04229	3.1443	70.29	-0.188	0.0166	0.2046	1061.8958	0.104018	-432.891531	-432.884369	-432.883425	-432.923108	27.278	
N	 0.1352463151	 1.3714176924	 0.1062295713	-0.605955
C	-0.0210438465	-0.0244720638	 0.0161278218	 0.305707
C	-1.1334710324	-0.8391138211	 0.0262245926	-0.378198
C	-0.6297368642	-2.1809120793	 0.0402527145	 0.250117
C	 0.7331818124	-2.095262423	 0.0380540453	 0.376009
N	 1.1510637208	-0.8011163277	-0.0125474616	-0.43244
O	 1.2966247758	-3.3185728579	-0.0500100289	-0.215188
C	 0.1699540187	-4.135759585	-0.0722478794	 0.026601
N	-0.9717215653	-3.5309076898	-0.028809057	-0.339008
H	 0.3242005082	 1.8033428033	-0.7941558312	 0.247157
H	-0.695346442	 1.8029529063	 0.4916371138	 0.251361
H	-2.1570615567	-0.5001547479	 0.0046979151	 0.09909
H	 2.0567598607	-0.4294095314	 0.2178461195	 0.270034
H	 0.3741097854	-5.193461955	-0.1024911956	 0.144713
