19
gdb 4131	3.24448	1.47986	1.10408	0.533	75.22	-0.2338	0.0151	0.249	1111.5379	0.16318	-365.015586	-365.006211	-365.005266	-365.050654	33.64	
C	 0.1290695977	 1.5088388763	-0.4898347383	-0.390004
C	-0.0155468007	 0.0824413325	-0.0045431653	 0.002084
C	 1.1487953705	-0.876597967	-0.0566365495	-0.290073
C	 0.5624278819	-0.4544398368	 1.2828473693	-0.078065
C	 1.3825476223	 0.2983248383	 2.2717346981	 0.338627
C	 2.3243322349	-0.4887731999	 3.148847768	-0.466368
N	 1.2395974414	 1.5667252265	 2.3540509562	-0.174922
O	 2.0902360861	 2.1154552438	 3.3323592168	-0.401827
H	 1.1246198518	 1.9065282401	-0.287801316	 0.123896
H	-0.0463119742	 1.5527229813	-1.5710615763	 0.102366
H	-0.591040803	 2.1709868791	-0.0001798804	 0.121217
H	-0.9776630574	-0.3599936553	-0.253405328	 0.083214
H	 0.9967782218	-1.8965706139	-0.3926940253	 0.108449
H	 2.1134456214	-0.4553499209	-0.3226453387	 0.114899
H	-0.0339006907	-1.2288260214	 1.7637316998	 0.093646
H	 3.3616161623	-0.1958087545	 2.9542810375	 0.144836
H	 2.1347168752	-0.2726754609	 4.2045417248	 0.145801
H	 2.2236477251	-1.5608507086	 2.9711798583	 0.118371
H	 1.8643322236	 3.0503143515	 3.290532629	 0.303852
