19
gdb 62842	2.64958	1.81854	1.48848	0.7932	77.62	-0.2085	0.0525	0.261	965.6764	0.158348	-419.027556	-419.019445	-419.0185	-419.059407	32.885	
C	-0.0724096502	 1.5155557157	 0.0502202103	-0.49659
C	 0.0071394215	-0.0021488028	-0.0460211146	 0.47172
O	-1.2441204978	-0.5354174665	-0.3885295235	-0.464544
C	 1.2498519605	-0.6455191315	-0.7107056929	-0.140214
N	 2.0660216001	-0.0730489035	 0.4796362772	-0.410577
C	 0.8107089101	-0.7653687046	 1.0753479492	 0.198149
C	 0.088737691	-1.7036212215	 2.0796562446	-0.27187
N	-0.150951371	-2.596691325	 0.870333593	-0.330229
C	 1.0217688891	-1.950600951	 0.1981076101	 0.000681
H	 0.8761154134	 1.9530056498	 0.3553632975	 0.154845
H	-0.3489333508	 1.9385239921	-0.9247909008	 0.105504
H	-0.8492764569	 1.7966971745	 0.7697304521	 0.118155
H	-1.7330708559	 0.156750973	-0.8433142914	 0.277963
H	 1.6397591881	-0.5251015704	-1.7271228085	 0.073842
H	 2.8613998111	-0.6974209156	 0.6426114002	 0.211267
H	 0.7481476353	-2.1446110994	 2.8383363082	 0.103058
H	-0.8270158804	-1.3279090747	 2.5444637596	 0.119919
H	-0.015778798	-3.5869026064	 1.0485287407	 0.218142
H	 1.960215391	-2.5030300822	 0.3439391292	 0.06078
