19
gdb 103721	2.98677	1.20364	1.00714	2.009	79.74	-0.2362	0.0324	0.2686	1240.388	0.154102	-422.957817	-422.947399	-422.946455	-422.992633	38.381	
C	 0.2127121246	 1.2049355109	 0.3180281576	-0.243895
O	-0.2490852755	-0.0016375655	-0.2573096808	-0.271429
C	 0.537643082	-0.492461715	-1.2970321459	 0.394814
C	 0.3837051555	 0.2406503798	-2.6118533361	-0.456359
C	 1.8641267725	-1.1200475602	-0.9278070503	-0.41599
C	 0.6690601548	-2.0091121799	-1.2864868806	 0.148248
O	 0.0087486721	-2.6529675467	-0.2350314572	-0.43673
C	 0.6904539685	-2.7433999346	-2.5266378298	 0.304105
C	 0.7168065798	-3.4042850276	-3.5319550441	-0.478418
H	 1.2480347532	 1.1148585722	 0.676249622	 0.10647
H	 0.1596550147	 2.049916925	-0.3826860588	 0.108693
H	-0.4405667507	 1.4150734672	 1.1678026164	 0.131147
H	 0.7764855637	 1.260025903	-2.5377928027	 0.116984
H	 0.9204430025	-0.2694689838	-3.4138401423	 0.131807
H	-0.6742260888	 0.2969861847	-2.8855343635	 0.132586
H	 2.6950482715	-1.0546253887	-1.6212915042	 0.119905
H	 2.1212488425	-1.1304140885	 0.1254997753	 0.124922
H	 0.4558918188	-3.4947178652	-0.0908664835	 0.286719
H	 0.7262828983	-3.9780888673	-4.4254403115	 0.19642
