20
gdb 114804	2.64319	1.30668	1.15676	3.7372	74.62	-0.2246	0.0595	0.2842	1168.5317	0.170803	-440.234312	-440.225444	-440.2245	-440.267852	33.718	
C	 0.0266775747	 1.6461073718	 0.1004311281	-0.514136
C	 0.0286254883	 0.1405476503	 0.0243716991	 0.263765
N	-1.272789776	-0.5520841698	 0.2602818254	-0.350816
C	-0.6784280608	-1.3832746576	 1.3497275551	-0.189919
C	 0.7237466167	-0.8538387921	 0.9949422982	 0.06906
O	 1.3553180652	-1.54476202	-0.0990233566	-0.335117
C	 0.8603831966	-0.5730107773	-1.073560909	 0.102284
C	 0.1890277346	-1.2733614667	-2.2381984239	-0.082948
O	 1.0947289935	-2.1787508952	-2.8504978473	-0.425761
H	 1.0368806257	 2.0506243396	-0.0146456343	 0.130262
H	-0.5966551081	 2.0710061337	-0.6958379679	 0.13144
H	-0.3723987101	 1.9938125178	 1.0597122786	 0.118602
H	-1.9979617823	 0.0769597766	 0.5847456415	 0.217735
H	-0.9951834892	-1.0934365367	 2.3595628831	 0.098199
H	-0.8242587794	-2.4604572152	 1.2221209347	 0.112025
H	 1.4237410756	-0.6072724039	 1.7968022529	 0.08141
H	 1.7003199926	 0.0378317243	-1.4333694044	 0.074641
H	-0.7215054389	-1.7734405477	-1.8860074012	 0.107759
H	-0.0965286416	-0.5426022008	-3.0034921713	 0.100073
H	 1.4104800629	-2.7536528608	-2.1431152306	 0.291441
