15
gdb 9818	2.91211	1.86233	1.4654	2.297	62.1	-0.2448	-0.0956	0.1491	893.9453	0.116452	-399.785113	-399.776753	-399.775809	-399.818547	29.15	
C	-0.3217260812	 1.4375019316	 0.0218952977	-0.493745
C	-0.0339251365	-0.0481224865	-0.0433208543	 0.233401
C	 0.9439625176	-0.5868518856	-1.0156110206	-0.272118
N	 1.2629806362	-0.5811935246	 0.4253668306	-0.343075
C	-1.1360815536	-0.986235562	 0.3962330664	 0.257501
O	-1.5965715639	-1.8697533654	-0.287026944	-0.276358
C	-1.6684311842	-0.8583565935	 1.8336475719	 0.094192
O	-1.3475253627	 0.000631631	 2.6109304925	-0.218897
H	 0.5487375503	 2.0003098323	-0.3309777422	 0.120031
H	-1.1696175614	 1.7024376907	-0.6194164687	 0.133114
H	-0.5512403638	 1.7477804824	 1.0432674009	 0.159725
H	 0.7885102046	-1.5707159987	-1.4456019253	 0.139848
H	 1.4481076163	 0.1266000545	-1.6618294229	 0.117798
H	 1.8845904812	 0.1900673473	 0.659815393	 0.237482
H	-2.4006785389	-1.6583786235	 2.074082295	 0.111102
