19
gdb 38438	3.78776	1.30813	1.19454	1.6821	80.58	-0.2332	0.0184	0.2516	1090.4795	0.160372	-385.86104	-385.853635	-385.852691	-385.892999	29.628	
C	 0.0302598493	 1.5776178226	 0.0338150481	-0.336451
C	 1.5554280656	 1.5280401768	-0.0990364949	 0.041158
O	 2.0534048091	 0.7854552705	 1.0225902412	-0.250886
C	 1.5591943468	 0.0591802489	-0.1070569421	-0.033227
C	 0.0117952444	-0.0029651002	 0.0230502642	 0.324857
C	-0.5747449176	-0.7606688721	 1.2359813878	-0.291149
C	-1.1888955152	-2.06610464	 0.6677627234	-0.26503
C	-1.3145515636	-1.7679925521	-0.8075666901	-0.076162
C	-0.6746690744	-0.6507201506	-1.1504687149	-0.139767
H	-0.3403849308	 2.0614445569	 0.941323771	 0.10731
H	-0.4724099987	 2.0016100101	-0.8397083986	 0.105845
H	 2.2308084214	 2.2413516012	-0.5565564359	 0.10193
H	 2.2280077988	-0.6556662048	-0.5748053886	 0.096177
H	 0.1756539769	-0.9279335133	 2.0117751891	 0.113973
H	-1.366428601	-0.1504792637	 1.6832369139	 0.103991
H	-0.5377617216	-2.936179615	 0.831568293	 0.10818
H	-2.1489323096	-2.3153953784	 1.1337760289	 0.104365
H	-1.8447508319	-2.4183383249	-1.4951838389	 0.093684
H	-0.5971135779	-0.2532685217	-2.1573766266	 0.091203
