20
gdb 8138	3.95174	1.61255	1.35066	0.2425	81.41	-0.2145	0.0294	0.2439	1008.7128	0.177271	-311.883322	-311.875361	-311.874417	-311.914963	31.324	
C	 0.0454330551	 1.4988928495	 0.0722845791	-0.486832
C	-0.0103193038	 0.0053961206	 0.0064069154	 0.316405
C	-0.0784085519	-0.7602037247	-1.0882490886	-0.245982
C	-0.0485662984	-2.2245642237	-0.7817278595	 0.3449
C	-0.8826786012	-3.183197888	-1.5981537399	-0.483135
C	 1.2468511713	-2.6817416083	-0.1342174495	-0.316929
C	 0.0785035232	-2.2807123893	 0.7348025493	-0.083791
C	 0.0276454219	-0.8500213337	 1.2636307347	-0.31838
H	 0.97987001	 1.8456872816	 0.5324855181	 0.122706
H	-0.0271038577	 1.9494287408	-0.9215481415	 0.121242
H	-0.7695663291	 1.900592232	 0.6888353297	 0.120836
H	-0.1222220201	-0.3830468581	-2.1056240766	 0.079383
H	-0.5453796035	-3.2162220342	-2.6412404827	 0.114518
H	-0.8164879118	-4.2007898732	-1.2000695263	 0.112415
H	-1.9392309503	-2.8916921015	-1.6006664717	 0.115638
H	 1.480130595	-3.7418808703	-0.1756917521	 0.101534
H	 2.1112545912	-2.0273183955	-0.1926154362	 0.10375
H	-0.4182015529	-3.063855356	 1.2968496486	 0.078392
H	 0.8897473105	-0.6029881281	 1.8985771727	 0.10292
H	-0.8644034576	-0.6768337198	 1.882622847	 0.100411
