18
gdb 68340	2.86872	1.51208	1.17453	4.5311	84.01	-0.2461	-0.047	0.1991	1076.6991	0.148931	-364.809715	-364.80197	-364.801025	-364.841754	30.554	
C	-0.0513315812	 1.547192936	 0.0307834683	-0.510178
C	 0.0153907319	 0.0391683956	 0.0325857403	 0.229308
C	 0.9501519258	-0.7896959643	-0.9208014756	-0.244236
C	 0.6209697367	-1.9290863949	 0.1053383708	-0.074876
C	 0.6633755867	-0.7998526153	 1.1927514589	-0.244237
C	-0.8856637426	-2.051742293	-0.0995117237	-0.187047
C	-1.2960582517	-0.7731901372	-0.1494191111	 0.22136
C	-2.5869190951	-0.2343991554	-0.3221530951	 0.165023
N	-3.6320163569	 0.2490137869	-0.4620640003	-0.361115
H	 0.9443826795	 1.9797262132	 0.1679187812	 0.118326
H	-0.4568942354	 1.924531282	-0.9138197592	 0.134184
H	-0.6943373627	 1.9161163028	 0.8367485893	 0.134176
H	 0.6261922397	-0.92832247	-1.9549108921	 0.104295
H	 1.9935499399	-0.4625215266	-0.8786290851	 0.101877
H	 1.2094062367	-2.8412814863	 0.1808054771	 0.075586
H	 1.6798839735	-0.4736798839	 1.4332125555	 0.101879
H	 0.075756628	-0.9478037747	 2.101796961	 0.10429
H	-1.4671224327	-2.958468035	-0.1826236002	 0.131384
