14
gdb 123383	3.61659	1.04264	0.95614	4.4092	68.38	-0.2448	-0.0353	0.2095	1215.0063	0.100534	-432.777129	-432.769101	-432.768157	-432.81111	28.831	
C	 0.3201808647	-0.1053307195	-1.2086695788	-0.44115
C	 0.1232435311	 0.5540817588	-0.2237837561	 0.309435
C	-0.0807230115	 1.3771392344	 0.9716757289	-0.33838
N	 1.0393583034	 2.2494895727	 1.320591153	-0.364803
C	 1.4051231327	 3.2609815959	 0.4600912943	 0.398811
N	 2.6176130861	 3.7594121054	 0.4297831784	-0.192331
O	 2.5652348617	 4.7903839151	-0.4836169116	-0.150637
N	 1.3262944988	 4.9131498635	-1.0235146964	-0.060633
C	 0.5953762102	 3.9903520918	-0.4658695873	-0.084152
H	 0.492459429	-0.6906737088	-2.078405071	 0.211641
H	-0.9779738467	 1.9952632692	 0.851440203	 0.152509
H	-0.274560587	 0.7369045359	 1.8381823712	 0.153098
H	 1.838888537	 1.761535759	 1.701570224	 0.261095
H	-0.4424690196	 3.8687474866	-0.7309044616	 0.145498
