18
gdb 57062	2.68344	1.2424	0.9241	4.718	72.28	-0.2632	0.0046	0.2678	1256.5927	0.146243	-439.069192	-439.059657	-439.058713	-439.104697	33.607	
C	-0.3052168018	 1.5131852453	-0.1166339052	-0.412577
C	 0.0102485231	 0.0237161321	-0.078147392	-0.055543
C	 1.3491654918	-0.4392257645	-0.6997826502	-0.076576
O	 1.7974533442	-0.9938937891	 0.5596862647	-0.283822
C	 0.5802386041	-0.6165025404	 1.2187170589	 0.114791
C	 0.8416379109	 0.2963209847	 2.4274452419	-0.044951
O	-0.3687847553	 0.7314979138	 3.0201569007	-0.410651
C	 1.7073686471	-0.3890446314	 3.4069150625	 0.268749
N	 2.3360039432	-0.9465883524	 4.1999106571	-0.312419
H	 0.5586475212	 2.1222325002	 0.1695478725	 0.120959
H	-0.588530748	 1.8106565038	-1.1314471826	 0.119908
H	-1.129591099	 1.7619929581	 0.5564786459	 0.141077
H	-0.845095354	-0.5430804519	-0.4531991275	 0.090733
H	 1.2807697015	-1.2071116921	-1.4783118025	 0.110576
H	 2.0104361665	 0.3646817648	-1.0462774458	 0.10774
H	 0.0216773156	-1.4968574761	 1.5705362836	 0.08071
H	 1.3589400222	 1.2007004161	 2.0950762347	 0.142145
H	-0.7924544931	-0.0275302709	 3.4380551733	 0.299153
