13
gdb 14638	5.84018	0.69396	0.62505	5.2812	79.87	-0.2681	-0.0412	0.2268	1678.834	0.093646	-324.289287	-324.280381	-324.279436	-324.32494	29.139	
C	 0.0524000155	 1.5064843403	 0.0477742953	-0.496932
C	 0.0250630441	 0.0537129732	-0.0318906735	 0.086762
C	 0.0013791921	-1.1465097624	-0.0975659058	 0.071955
C	-0.0283322001	-2.6068868737	-0.1773568182	-0.512959
C	-1.3719434715	-3.1632057748	-0.0307416214	 0.137148
C	-2.4796121788	-3.6270585851	 0.0898293422	 0.016023
C	-3.732599524	-4.1521758866	 0.2261957844	 0.215528
N	-4.7978636723	-4.6006433721	 0.342016014	-0.33639
H	 0.6796262958	 1.8462494429	 0.8787413646	 0.154488
H	 0.4493604882	 1.9466434771	-0.8731177256	 0.154486
H	-0.95409849	 1.9092411724	 0.2031494642	 0.158459
H	 0.3883210567	-2.9444379057	-1.1369809352	 0.175716
H	 0.6186396143	-3.0438388255	 0.5965421051	 0.175716
