14
gdb 22645	3.94259	0.99225	0.79805	3.2907	81.54	-0.2144	-0.07	0.1444	1317.5721	0.101761	-432.847015	-432.839007	-432.838062	-432.87979	29.439	
O	-0.0412034175	 1.3198926607	-0.0089547127	-0.389814
N	 0.0583685758	-0.0790278866	-0.0295448423	-0.24874
C	-1.1014594614	-0.621172047	 0.0199877823	 0.400301
C	-1.2726512611	-2.1349858868	 0.0042220785	-0.250741
N	-2.7249602286	-2.3055218517	-0.1803715514	-0.37921
C	-3.3197687136	-1.05850327	-0.0011302223	 0.271638
C	-2.4282745002	-0.0385406689	 0.0739159035	-0.319003
C	-4.7387709644	-0.9539928356	 0.0416658898	 0.23394
N	-5.8932669597	-0.8883483236	 0.0946954251	-0.321989
H	 0.8813165511	 1.5912720861	-0.0609725922	 0.310323
H	-0.7128155751	-2.6094476197	-0.8061207197	 0.148671
H	-0.9424764241	-2.577773049	 0.9526138094	 0.139331
H	-3.1626288217	-3.0920050063	 0.2775518616	 0.258718
H	-2.6553222095	 1.0131078382	 0.1058400805	 0.146575
