19
gdb 94180	2.42805	1.34633	1.16906	3.0104	71.87	-0.2404	-0.0265	0.214	1162.5823	0.155307	-460.161554	-460.15144	-460.150496	-460.197327	35.988	
C	 0.0990471731	 1.6303232873	 0.0194288962	-0.399324
C	-0.0595389906	 0.1302142274	 0.1098166299	 0.139812
O	 0.6595904112	-0.5758463698	-0.9266850133	-0.288388
C	 1.3006501215	-1.4307605853	 0.0324723205	-0.11104
C	 0.7270012408	-0.6368381091	 1.2293833096	 0.190166
O	 1.6390656944	 0.2085752654	 1.8987120973	-0.470598
C	-0.1715069304	-1.4269571437	 2.1849350518	 0.320374
C	-0.1567548653	-1.0348482737	 3.6472255938	-0.47622
O	-0.877937498	-2.3107549836	 1.7536891543	-0.303046
H	 1.1477813592	 1.9164954685	 0.1110352084	 0.134421
H	-0.2819955648	 1.9720682301	-0.9480168421	 0.128543
H	-0.4727038986	 2.1283765602	 0.8092764429	 0.117509
H	-1.1168697567	-0.1625657797	 0.0995610687	 0.090504
H	 0.9419264912	-2.4635474019	-0.0248208668	 0.12194
H	 2.3949979069	-1.3985178593	-0.0478609326	 0.093888
H	 2.41453818	-0.30649725	 2.144280814	 0.286501
H	 0.8265640723	-1.236360555	 4.0865580192	 0.133553
H	-0.3233063994	 0.0407745947	 3.7603599864	 0.15069
H	-0.9195604768	-1.6024797624	 4.1808260718	 0.140715
