22
gdb 117780	1.90252	1.11028	1.02625	3.8242	83.15	-0.2425	0.0313	0.2737	1399.8025	0.193175	-400.531649	-400.520588	-400.519644	-400.567837	39.947	
C	 0.0505226617	 1.6271298491	 0.1471001182	-0.38701
C	 0.0078724002	 0.1076270615	 0.0106979466	-0.130028
N	 0.762877426	-0.5174774739	 1.0998048761	-0.309706
C	 0.7770131296	-1.9855038955	 1.1688935813	 0.076812
C	 1.457367207	-2.6828854712	-0.0307696364	-0.417108
C	 1.5130946675	-2.3696781248	 2.495913137	-0.171623
N	 0.9429753725	-1.844421293	 3.7207834609	-0.502824
C	-0.6156210568	-2.4639748924	 1.2778069926	 0.305341
N	-1.6899308654	-2.8774744247	 1.3825589678	-0.355116
H	 1.0768575203	 2.0042815805	 0.0669319077	 0.112272
H	-0.5379909191	 2.1008274595	-0.6438267073	 0.121604
H	-0.3490508395	 1.9383437768	 1.1161536612	 0.130326
H	-1.0280863005	-0.2411138173	 0.0808011708	 0.134238
H	 0.371803736	-0.1810133049	-0.9896671924	 0.086606
H	 1.7290765482	-0.2024986369	 1.0673495712	 0.217742
H	 2.5046739598	-2.3671266395	-0.0838374227	 0.11813
H	 1.4311792166	-3.7707875457	 0.079307742	 0.136142
H	 0.9696623747	-2.4268925394	-0.9738256311	 0.137401
H	 1.5722072359	-3.4604044813	 2.5617165473	 0.118704
H	 2.542988081	-2.0007929999	 2.3914842756	 0.103026
H	 0.7385203743	-0.8577615638	 3.5832236746	 0.23444
H	 0.05182584	-2.2958420032	 3.9072960891	 0.240631
