19
gdb 61985	3.65352	0.80244	0.74257	6.0934	77.43	-0.2599	0.0139	0.2738	1566.5858	0.157532	-419.265796	-419.255128	-419.254184	-419.303251	36.483	
C	-0.5012386379	 1.2541914137	 0.0089026784	-0.394337
C	 0.2243429723	-0.0819549223	-0.2270533969	-0.133928
C	 1.2821009114	-0.006897022	-1.3624153933	-0.166516
N	 0.7075259963	 0.366818642	-2.6401539772	-0.310042
C	-0.0045756953	-0.5307783178	-3.3887943555	 0.401814
C	-0.4514471389	-0.0373742076	-4.7544488609	-0.486119
O	-0.2424090111	-1.6544995258	-2.98313794	-0.367847
C	 0.8752189012	-0.5436604451	 1.0010750538	 0.267137
N	 1.4085678924	-0.8905391814	 1.9661698738	-0.321868
H	 0.2008568178	 2.0316696569	 0.3259423796	 0.130277
H	-0.9866759603	 1.5757870599	-0.9156534761	 0.123868
H	-1.2656922227	 1.1517442718	 0.7823286601	 0.142813
H	-0.5009677471	-0.8460448499	-0.5266069997	 0.159977
H	 2.0522682558	 0.7244145271	-1.1024518287	 0.120891
H	 1.7557349748	-0.9873005515	-1.4603325964	 0.151045
H	 0.8887414251	 1.2852272264	-3.0067429644	 0.251941
H	-1.477198426	-0.3671743248	-4.929056428	 0.157625
H	-0.394444305	 1.0485672249	-4.8667328326	 0.115392
H	 0.1786480072	-0.4999251345	-5.520557416	 0.157878
