18
gdb 19051	3.53097	2.23509	2.05182	1.6928	69.34	-0.2217	0.0867	0.3085	769.1526	0.155761	-347.77349	-347.767075	-347.766131	-347.803672	26.346	
C	-0.1331138348	 1.572466461	 0.0130567332	-0.39443
C	 0.0279775899	 0.0479917873	-0.0110837397	 0.014116
C	 0.8481761034	-0.4786417974	-1.234254823	-0.22685
C	 2.1698336748	-0.915731211	-0.6161590829	 0.093283
O	 2.7774663263	 0.2654167028	 0.0165935709	-0.309376
C	 2.2833835654	-0.1891446631	 1.2779558149	 0.099783
C	 1.8366968098	-1.5211318678	 0.7681048357	-0.164678
C	 0.8001229339	-0.5009972646	 1.1954049917	-0.084626
H	 0.8458864816	 2.0577972389	-0.0165615699	 0.136629
H	-0.7159559446	 1.9213623938	-0.8463323521	 0.106206
H	-0.6528153869	 1.8991366236	 0.9205045315	 0.104871
H	-0.9687144786	-0.4078420166	-0.0192805473	 0.068901
H	 0.3545047732	-1.3338531555	-1.7105638018	 0.094523
H	 1.0007490101	 0.2915363162	-1.9963672341	 0.106141
H	 2.8809460208	-1.4257120523	-1.2683806945	 0.077349
H	 2.8122220635	 0.1187202845	 2.1724826419	 0.100302
H	 1.969168726	-2.5332345937	 1.123112346	 0.094549
H	 0.2886334161	-0.6453726061	 2.1416609796	 0.083308
