16
gdb 123441	4.94818	0.97615	0.87797	1.5402	69.74	-0.2474	-0.0283	0.2191	1287.5988	0.126233	-434.037743	-434.030173	-434.029229	-434.071085	27.388	
C	-0.0475927252	 1.5456605546	 0.4191407975	-0.355778
C	-0.1755057179	 0.0383498247	 0.260688147	 0.03072
C	-1.3664250555	-0.5375891103	-0.411265711	-0.245229
N	-0.0469743347	-0.5852003667	-1.06156888	-0.305243
C	 1.3495534372	 2.0212272688	 0.1790674003	 0.384341
N	 2.1380123222	 2.4355326859	 1.1350975359	-0.173474
O	 3.3297114752	 2.7515136923	 0.4650162693	-0.151659
C	 3.1087185667	 2.487995359	-0.8216878044	 0.112393
N	 1.923153184	 2.0402279517	-1.0807714949	-0.304939
H	-0.7067458075	 2.0474417763	-0.2985315685	 0.122672
H	-0.3552591663	 1.8449738052	 1.4252789212	 0.137536
H	 0.3021191271	-0.5316545332	 1.0552719105	 0.104752
H	-1.7592530546	-1.5008828849	-0.0987927662	 0.121552
H	-2.1159556686	 0.1541134179	-0.7891821903	 0.110847
H	 0.033039789	 0.1335063281	-1.7772154961	 0.242251
H	 3.921169179	 2.6725315007	-1.5093098401	 0.169258
