16
gdb 78994	3.05417	1.80154	1.4746	1.5231	66.01	-0.2201	0.05	0.2701	894.6362	0.124475	-437.784523	-437.777462	-437.776517	-437.815687	28.447	
O	 0.0574031553	 1.5008322181	 0.0086808535	-0.448672
C	 0.0240163507	 0.1034468222	 0.0074344162	 0.171791
C	-1.329337275	-0.6612837292	-0.0179246778	-0.215634
C	-1.958802054	-0.3061796479	-1.3755546067	-0.055029
C	-1.51348086	-1.5376198587	-2.0639752619	-0.103351
N	-0.7452217289	-0.2739820205	-2.2851576619	-0.166275
C	 0.3325658312	-0.6759120275	-1.2823087456	-0.141934
C	-0.6222431447	-1.8374713557	-0.8349381049	 0.394996
O	-0.3237614268	-3.1026886401	-0.3930424126	-0.474381
H	-0.3341112233	 1.7965769994	-0.8218206622	 0.295823
H	 0.6531636955	-0.2396520281	 0.8367643405	 0.08482
H	-1.9666684435	-0.8070421725	 0.8517025997	 0.077982
H	-2.7750742456	 0.3671801131	-1.6061293953	 0.1019
H	-1.9290485481	-2.1362516927	-2.8650677258	 0.105255
H	 1.321676407	-0.7655696793	-1.7282848885	 0.081441
H	 0.1493706502	-3.0474279207	 0.4446533433	 0.291268
