19
gdb 74244	3.09909	1.26325	1.03934	1.0954	87.3	-0.225	0.0206	0.2456	1208.8821	0.158771	-348.723474	-348.714975	-348.714031	-348.756346	33.229	
C	-0.0953945163	 1.5183946714	 0.0994928801	-0.495318
C	-0.0199063605	 0.0257940215	 0.0251183436	 0.32681
C	 0.09306875	-0.7250825243	-1.0743575829	-0.193783
C	 0.1087676125	-2.2204704158	-0.7687965847	-0.217761
C	 1.2228201763	-2.9345089103	-1.3909262116	 0.340458
C	 2.14008086	-3.5142128542	-1.9089073606	-0.486711
C	 0.1139458606	-2.256369983	 0.7710500968	-0.04352
C	 1.2581958798	-1.6036875193	 1.4952595918	-0.281298
C	-0.0234013318	-0.8271976761	 1.2560576432	-0.134583
H	 0.7319408804	 1.9257570661	 0.6938515154	 0.130449
H	-0.0632481759	 1.974525485	-0.8933147011	 0.124934
H	-1.0211837122	 1.8415067604	 0.5922565899	 0.126147
H	 0.1933133756	-0.3535828936	-2.087399856	 0.097413
H	-0.824351815	-2.6769646822	-1.1328478517	 0.10764
H	 2.9492210915	-4.0300541294	-2.363066568	 0.19176
H	-0.4046341776	-3.0719087102	 1.2594114314	 0.09177
H	 1.4550534029	-1.9512006665	 2.5041328466	 0.109451
H	 2.1395852013	-1.3173361232	 0.9310714823	 0.122582
H	-0.6459715518	-0.5557592362	 2.1023987356	 0.083561
