18
gdb 128208	2.55195	1.33986	0.88961	3.2359	76.68	-0.1923	0.0454	0.2378	1286.5036	0.148357	-435.281621	-435.272326	-435.271381	-435.315803	33.726	
C	-0.1222412002	 1.4013881466	 0.0637967084	-0.323008
N	-0.1145269091	-0.0509129973	-0.0314581667	-0.400632
C	 0.6118701928	-0.6087431455	-1.0759003672	 0.469871
C	 1.2899164297	-0.0213932286	-2.1343157971	-0.434227
C	 1.7629538203	-1.1263309359	-2.8727097129	 0.444475
O	 2.4913243129	-1.0469540114	-4.0079544656	-0.43469
N	 1.4318825364	-2.2918994672	-2.3467825807	-0.392836
N	 0.6974744912	-1.9545668652	-1.2350117294	-0.042422
C	 0.1564842701	-2.9833112157	-0.3848160571	-0.337554
H	 0.8809748494	 1.8399770278	 0.1758955035	 0.119485
H	-0.5770811738	 1.8207847755	-0.8383000749	 0.143893
H	-0.7325201129	 1.6970068204	 0.9202096266	 0.125648
H	 0.0633257076	-0.4970029468	 0.8585125118	 0.239349
H	 1.4313970828	 1.0248683344	-2.3394229337	 0.102735
H	 2.6710993253	-1.9543774912	-4.2844589921	 0.298524
H	 0.8280231271	-3.2372491888	 0.4466621449	 0.125508
H	-0.804970353	-2.6550566644	 0.0209004714	 0.139181
H	 0.0033889933	-3.8772741968	-0.9905533193	 0.1567
