20
gdb 96459	2.50133	1.6725	1.14622	3.2543	75.56	-0.2466	0.0659	0.3125	1109.6894	0.172729	-440.255785	-440.247694	-440.246749	-440.288304	31.565	
C	 0.4786751416	 1.5870501654	-0.0666095073	-0.39956
C	-0.0397684096	 0.1513591013	-0.0533152948	 0.108552
O	 0.4140504702	-0.4424221806	-1.2575463065	-0.231218
C	-0.0888191459	-1.7085499123	-1.5697987801	 0.020052
O	 0.6185040076	-2.7688128866	-0.9907140988	-0.214643
C	 0.2597997798	-3.0956072376	 0.3318042654	-0.104797
C	 0.5465739896	-2.0411017364	 1.3841381479	-0.044537
N	 1.7346218591	-1.1904053826	 1.2433644139	-0.317531
C	 0.4020447104	-0.571978969	 1.2128277632	-0.026304
H	 1.5720139183	 1.5826979694	-0.0459242792	 0.139245
H	 0.1490884518	 2.0976031016	-0.9746938073	 0.122519
H	 0.1110901497	 2.1432462229	 0.8009176876	 0.107874
H	-1.1451675647	 0.1628880908	-0.0515628274	 0.064717
H	-1.1613710209	-1.773294185	-1.3054880546	 0.068507
H	 0.0391915843	-1.8231231501	-2.6490318166	 0.112472
H	-0.8127975988	-3.3535452772	 0.3892906276	 0.087586
H	 0.8265022701	-4.0018283566	 0.5730731787	 0.114407
H	 0.310516609	-2.4132502981	 2.383247214	 0.080875
H	 2.18565243	-1.0430311789	 2.1413578452	 0.231843
H	 0.0787852484	-0.0352032502	 2.106462599	 0.079941
