17
gdb 50288	2.89823	1.32871	1.15018	3.4542	72.81	-0.2478	-0.0348	0.213	1093.6889	0.136505	-421.83728	-421.829689	-421.828745	-421.869884	28.774	
O	 0.0532130226	-0.0778088103	 0.0202414779	-0.249908
C	 0.0503715332	 1.1219662686	 0.1160263011	 0.14559
C	 1.2888765361	 1.9858698509	 0.1081190662	-0.075125
C	 1.2528220907	 3.0846823574	-1.0302131638	-0.260496
C	 1.3926207439	 4.3672245742	-0.1841245193	-0.131417
C	 2.477210621	 3.9427283843	 0.8602554373	-0.251483
C	 1.3992046201	 2.9155685464	 1.347068776	-0.158445
C	 0.417986836	 4.0487336625	 0.9662378537	 0.433699
O	-0.5480898716	 4.5545988291	 1.4514118037	-0.320295
H	-0.9049440943	 1.689992939	 0.2122852405	 0.089089
H	 2.1579907981	 1.3303308119	 0.0207117081	 0.100303
H	 2.0795070652	 2.9535829708	-1.7316349939	 0.122992
H	 0.319325086	 3.0642467535	-1.6012958315	 0.122619
H	 1.4019846755	 5.3271391734	-0.6950031392	 0.092775
H	 3.4001801418	 3.5191263011	 0.4579532957	 0.114874
H	 2.6927396252	 4.7158902581	 1.5993115471	 0.12608
H	 1.4176569407	 2.458152469	 2.3337019005	 0.099147
