22
gdb 13888	3.67025	1.37387	1.08621	1.4481	77.58	-0.2586	0.0741	0.3327	1155.8204	0.201179	-350.226462	-350.217633	-350.216689	-350.260529	33.399	
C	 0.1075475742	 1.4962920783	-0.0813668533	-0.40461
C	-0.0278942084	-0.0249610996	 0.0096350554	 0.123988
O	 0.7396202305	-0.5323955838	 1.1010312319	-0.432681
C	-1.4877875465	-0.4969600575	 0.0823521245	 0.037501
C	-2.3265481754	-0.1001627514	-1.1634210351	-0.218564
C	-3.2831050103	-1.280260444	-1.3954126878	-0.201605
C	-2.4125540161	-2.4984860297	-1.0527628768	-0.193296
C	-1.6243737244	-2.0482234848	 0.1942323574	-0.223604
H	 1.1634551065	 1.7791753654	-0.1022604591	 0.121513
H	-0.3767533339	 1.8948102741	-0.97780836	 0.119451
H	-0.3574439348	 1.9771207698	 0.7891756605	 0.102638
H	 0.4370532489	-0.4789823366	-0.8761238529	 0.083055
H	 0.381247611	-0.1491474094	 1.909572501	 0.272767
H	-1.9304415235	-0.0302362546	 0.9739641922	 0.051788
H	-2.8424977723	 0.8561005716	-1.0406987317	 0.092957
H	-1.6655193175	 0.0036710313	-2.0345116641	 0.095615
H	-4.1315227878	-1.2197179213	-0.7015933902	 0.093773
H	-3.6931076958	-1.3065803093	-2.4095293448	 0.090735
H	-2.9895720278	-3.4123473931	-0.884245759	 0.090694
H	-1.7255292042	-2.7010944736	-1.8839409151	 0.094965
H	-0.6469660655	-2.5285969538	 0.2801524599	 0.112211
H	-2.179536047	-2.3097292179	 1.1010201871	 0.090708
