23
gdb 36947	4.33255	0.84501	0.75258	1.631	86.39	-0.2403	0.0862	0.3264	1585.0342	0.206598	-388.263711	-388.254598	-388.253654	-388.298794	33.803	
C	 0.0141388009	 1.5397458824	-0.2057223334	-0.235842
C	-0.0724090596	 0.0268940444	-0.0433421448	 0.065053
C	 0.2475762143	-0.6213713499	 1.3355010918	-0.200013
C	-0.9157079135	-1.6195844819	 1.093187677	-0.21537
C	-1.474699616	-0.6418106118	 0.0239766908	-0.238149
C	 1.435065972	 2.0764360206	-0.1846247975	 0.168068
C	 1.6426768844	 3.6064716918	-0.1125218799	-0.300511
C	 2.4427027398	 3.2934496727	 1.1669935078	-0.058169
O	 2.091584675	 1.896965626	 1.0984073214	-0.287755
H	-0.4437390634	 1.8355356402	-1.1613370632	 0.092127
H	-0.5623976158	 2.0317462258	 0.5895069337	 0.088576
H	 0.5259517547	-0.458759699	-0.8248242626	 0.064668
H	 1.2522791758	-1.019318799	 1.4901618176	 0.099316
H	 0.0269278835	 0.0715953795	 2.1523202141	 0.101001
H	-0.5642147774	-2.5525855132	 0.6423309284	 0.097598
H	-1.5603635687	-1.8680294804	 1.9397597924	 0.091838
H	-2.2154201604	 0.0409942051	 0.4544678757	 0.094066
H	-1.8869867578	-1.0617112926	-0.8975728577	 0.089822
H	 2.0263203199	 1.5969282123	-0.9797721295	 0.067414
H	 2.1964431815	 4.0619331699	-0.9347308395	 0.107355
H	 0.7210329907	 4.1680525423	 0.0559010612	 0.108067
H	 3.5268779026	 3.4460405063	 1.0833224085	 0.098264
H	 2.0926335276	 3.7607290886	 2.0948791878	 0.102579
