16
gdb 84550	3.80574	1.32498	1.11553	2.1115	71.11	-0.262	-0.012	0.25	1067.7504	0.12578	-437.888172	-437.880846	-437.879902	-437.920025	28.477	
O	 0.280444453	 1.2170298535	-0.3460714889	-0.423803
C	 0.0121687332	-0.1391054124	-0.0099913427	 0.070875
C	 0.6027459758	-0.5455166997	 1.3201844416	-0.119999
C	-0.3262113813	-0.8681668046	 2.2238067835	-0.077077
C	-1.7207934905	-0.8236799737	 1.6552377579	-0.219172
C	-1.4883818789	-0.4287561837	 0.1737868751	 0.063632
O	-1.8664929225	-1.7840018841	-0.2423008727	-0.264211
C	-2.1808283178	-2.1449763793	 1.0527972606	 0.442527
N	-2.675272241	-3.1975420563	 1.5158423999	-0.544021
H	 0.1782207066	 1.7406407844	 0.4564960538	 0.280984
H	 0.3972221533	-0.7315547661	-0.8472627992	 0.114143
H	 1.672978956	-0.5385937837	 1.4929787483	 0.111215
H	-0.1331401998	-1.1784953581	 3.244000987	 0.120656
H	-2.460813518	-0.3022440807	 2.2641712398	 0.109585
H	-2.1308136644	 0.3164596082	-0.2969746662	 0.103858
H	-2.8571162838	-3.8817174138	 0.7793847621	 0.230805
