21
gdb 72467	2.60591	1.79594	1.45781	1.5758	82.32	-0.2321	0.017	0.2491	1008.9558	0.184959	-387.117211	-387.109586	-387.108642	-387.148683	31.613	
C	-0.0140481014	 1.5029086573	 0.0514371424	-0.468188
C	 0.0072091814	-0.0125175893	-0.030919272	 0.370259
C	 0.7583468344	-0.6073642706	-1.232806995	-0.24734
C	 0.8732541902	-2.0590994138	-0.7386149277	-0.060084
C	 1.2235123598	-1.8265358136	 0.7537021217	-0.074646
O	 0.785903464	-0.5038290238	 1.0817173368	-0.298344
C	-0.4928649079	-2.753528069	-0.8985509528	-0.260877
C	-1.6064904351	-1.8765190929	-0.3772665349	-0.073484
C	-1.3898205093	-0.6234915566	 0.0215364251	-0.072509
H	 1.0042434798	 1.900264555	 0.0282552159	 0.118378
H	-0.5777287299	 1.9255982306	-0.7861454834	 0.116028
H	-0.4883862341	 1.828143416	 0.9826636676	 0.12366
H	 0.2170894949	-0.5104060337	-2.177312291	 0.097307
H	 1.7403291545	-0.1337067876	-1.332161268	 0.094057
H	 1.6526834758	-2.6316024604	-1.2476801653	 0.067065
H	 0.7326441375	-2.5620739861	 1.4048804836	 0.093424
H	 2.3041060434	-1.8814416801	 0.9338005293	 0.097108
H	-0.6734744039	-3.0028896427	-1.9550130376	 0.103373
H	-0.4954119572	-3.7137510591	-0.3650663903	 0.104637
H	-2.60359531	-2.3079156846	-0.3283901884	 0.087591
H	-2.1956683166	-0.0152100152	 0.4237426939	 0.082583
