19
gdb 119290	2.13237	1.31161	0.95778	2.4083	76.8	-0.2407	0.0176	0.2583	1301.3077	0.158338	-419.183523	-419.173976	-419.173032	-419.218572	34.048	
C	 0.0151843397	 1.5489291652	-0.0522688839	-0.384775
C	-0.0635657512	 0.0334111769	-0.0147095917	-0.071965
O	 0.7273685121	-0.469084839	-1.0923529021	-0.286727
C	 0.7461827092	-1.86126128	-1.2383078833	 0.285558
C	-0.5440450713	-2.4992849476	-1.8586320058	-0.221573
N	 0.1120089464	-2.4932564752	-3.1839531828	-0.310806
C	 1.4379587723	-2.2411155151	-2.5777819816	-0.20799
C	 1.2651454087	-2.5328888123	-0.0363591238	 0.233342
N	 1.6678197561	-3.0652664776	 0.9076174711	-0.349311
H	 1.0510351568	 1.8813033615	 0.0568243773	 0.133767
H	-0.3723093651	 1.9324409045	-1.0001042696	 0.131202
H	-0.5747439599	 1.9757503292	 0.7640090928	 0.121861
H	 0.3169309866	-0.3562174991	 0.9399569672	 0.119632
H	-1.1047700517	-0.3046488672	-0.1209259877	 0.098044
H	-0.7613556548	-3.4905840809	-1.4427800534	 0.114811
H	-1.4431202555	-1.8778339604	-1.7976726338	 0.12082
H	 0.0377286233	-3.3631541255	-3.6969751333	 0.228108
H	 1.9941557188	-1.4124077249	-3.0251700592	 0.130467
H	 2.0896554494	-3.1172754825	-2.4827839665	 0.115536
