18
gdb 33419	2.55795	1.00166	0.78717	3.7381	82.34	-0.2801	0.0149	0.2949	1459.85	0.146143	-364.775422	-364.766014	-364.76507	-364.810411	34.166	
C	 0.0911047551	-1.2103822874	-0.012778871	-0.413527
C	 0.0673788667	-0.0104223718	-0.0085394045	 0.314814
C	 0.087067348	 1.452281582	 0.0071282627	-0.317675
C	 1.5206506721	 2.0162733684	-0.2343328858	-0.218924
C	 1.5880074887	 3.520417658	-0.1095431053	 0.015575
C	 1.7056120589	 4.1632258814	 1.2522454344	-0.260609
C	 2.8768161855	 4.1836123584	 0.3013107499	-0.283313
C	-0.8617544785	 2.0001449115	-0.9770865342	 0.298226
N	-1.588558368	 2.4555699094	-1.7508186446	-0.330444
H	 0.0975237801	-2.2726070338	-0.0186799227	 0.208253
H	-0.2449922349	 1.8031231885	 0.993883753	 0.158701
H	 2.1766264263	 1.5428056943	 0.5035110905	 0.11688
H	 1.8583632233	 1.6877827508	-1.2227481624	 0.129602
H	 0.9877505288	 4.0571389767	-0.8387014959	 0.113237
H	 1.1701032237	 5.0879947999	 1.4340033642	 0.121632
H	 1.7738659344	 3.5126575884	 2.1187692997	 0.111548
H	 3.7251285788	 3.5467445722	 0.530108503	 0.115226
H	 3.1423065409	 5.1223590931	-0.171282401	 0.1208
