18
gdb 53586	4.47652	0.66881	0.61834	4.3959	86.29	-0.2522	0.0246	0.2768	1800.8842	0.146232	-364.79558	-364.785658	-364.784713	-364.832651	34.205	
C	-0.0255100827	 1.4136846483	-0.3237419525	-0.4969
C	-0.0380635757	-0.0114960226	-0.025833758	 0.099246
C	-0.0366139881	-1.1897008833	 0.2212164845	 0.044374
C	-0.0611093637	-2.6189035696	 0.5190142398	-0.393507
C	-1.4135446455	-3.2464636917	 0.2128958079	 0.011176
C	-1.7397328239	-3.731357213	-1.1630324725	-0.272829
C	-1.5360153563	-4.745103743	-0.0426178501	-0.190582
C	-0.3665100247	-5.5776704942	-0.0434846487	 0.288644
N	 0.5781535671	-6.2465153314	-0.0391919633	-0.343953
H	 0.8007945949	 1.6724854141	-0.9949468196	 0.149872
H	-0.9562629119	 1.7265767947	-0.809758175	 0.147466
H	 0.088669348	 2.0108986209	 0.5876202531	 0.148758
H	 0.7200411661	-3.1373569152	-0.0507274983	 0.14698
H	 0.1827219259	-2.784797893	 1.5765172064	 0.139043
H	-2.2362679507	-2.8265499981	 0.7831717948	 0.112286
H	-2.7482749239	-3.6175300022	-1.5425898713	 0.13115
H	-0.9614101686	-3.6737659851	-1.9155358286	 0.143621
H	-2.4214955864	-5.2356774258	 0.3468631313	 0.135157
