19
gdb 57215	2.55507	1.38614	1.04124	2.0741	71.64	-0.2305	0.0316	0.2621	1179.9331	0.159267	-456.356199	-456.346937	-456.345993	-456.3904	35.279	
C	 0.7589365605	 1.401924354	 0.1567355583	-0.463573
C	 0.1480187339	 0.0238744361	 0.0257574127	 0.295708
C	 0.7668157153	-0.9254994291	-0.9366974706	-0.274872
N	 0.8947947851	-1.1494676092	 0.5177030746	-0.370415
C	-1.3632911334	-0.138984055	 0.2866850349	-0.013651
O	-1.7015222598	-1.5130380784	 0.3308652791	-0.449839
C	-1.8392683119	 0.6136491211	 1.5512402277	 0.349878
N	-2.4022474483	-0.1889363287	 2.4878963549	-0.511168
O	-1.717291995	 1.8207212586	 1.665647119	-0.376599
H	 1.8147406433	 1.3710544168	-0.1332508951	 0.098023
H	 0.2462521987	 2.1157702425	-0.4945701204	 0.135347
H	 0.6739328818	 1.7865766968	 1.1739853672	 0.151528
H	 0.1590565972	-1.6624659137	-1.4517685359	 0.131815
H	 1.6411241084	-0.5831928079	-1.4831221949	 0.11773
H	 1.81368251	-0.8908164604	 0.8633055608	 0.23884
H	-1.9095618908	 0.3185405967	-0.5478799988	 0.117973
H	-0.8967205015	-1.9440713844	 0.676331101	 0.296304
H	-2.6102860777	-1.1416249989	 2.2372144317	 0.268592
H	-2.8456422557	 0.2407567931	 3.2827076838	 0.258381
