17
gdb 42817	3.06811	1.50755	1.34195	4.0712	72.11	-0.2385	-0.0092	0.2293	995.4752	0.136888	-421.805463	-421.798415	-421.797471	-421.836921	28.198	
O	 0.0615339615	 0.0117245922	-0.0211589583	-0.316205
C	 0.0151346197	 1.2025406379	-0.0583015747	 0.439123
C	-1.081496146	 2.284884378	 0.0319891711	-0.147706
C	-0.0563777348	 2.9856092504	 0.9879228077	-0.253492
C	 1.0300242179	 2.3687977736	 0.0370040097	-0.229306
C	 0.7046139593	 3.104303483	-1.2593664103	 0.488163
C	 1.5470597279	 4.1222862968	-1.8869834974	-0.280583
O	 1.4341125592	 2.7998177985	-2.437475229	-0.285974
C	-0.8424037393	 3.058858072	-1.2867929844	-0.31378
H	-2.1041162434	 2.0569699277	 0.3232383102	 0.090868
H	-0.0985627401	 4.076628028	 1.0237792034	 0.112007
H	-0.0352082011	 2.5627515376	 1.9930966926	 0.124797
H	 2.0740990644	 2.2367669103	 0.308655578	 0.092433
H	 1.0881562032	 4.9134827996	-2.4793590256	 0.116586
H	 2.5185822528	 4.3672436869	-1.4590436	 0.117521
H	-1.2001193274	 2.5277688124	-2.1724412972	 0.132393
H	-1.2985746938	 4.0528201053	-1.2651040656	 0.113154
