21
gdb 121318	3.22125	1.01901	0.82001	2.3224	79.85	-0.2211	-0.0209	0.2002	1460.8288	0.181637	-424.256547	-424.24705	-424.246106	-424.291811	34.577	
C	-0.1516408639	 1.4902432696	 0.0254494692	-0.385148
C	 0.1121132267	-0.0045132883	 0.0687823268	-0.050202
O	 0.5902748521	-0.4025525485	-1.2136662987	-0.25737
C	 0.8314780817	-1.7751623731	-1.3559396807	 0.049313
C	 0.9297238297	-2.1860639746	-2.8278419073	-0.249701
C	 1.7255423026	-3.5071694691	-2.7931681477	-0.223933
C	 2.7948070479	-3.2755199113	-1.7092721083	-0.312276
C	 2.1747963578	-2.2539140965	-0.7533104354	 0.3828
O	 2.6582262476	-1.8577555747	 0.2765806592	-0.314049
H	 0.7711470722	 2.0356060376	-0.1917143352	 0.128495
H	-0.8841000476	 1.7323442746	-0.7501729103	 0.121353
H	-0.5379040896	 1.8344247647	 0.9895657092	 0.114606
H	 0.849259412	-0.2524938261	 0.8400956332	 0.125546
H	-0.8156154345	-0.5558628619	 0.2992795168	 0.079866
H	 0.0367515153	-2.3668009661	-0.8610766937	 0.082084
H	-0.04678115	-2.2797239209	-3.3072461963	 0.107268
H	 1.4914506067	-1.4101069183	-3.3611964645	 0.117688
H	 1.065814945	-4.3325886048	-2.5018313235	 0.107904
H	 2.1517271172	-3.7647753295	-3.7652154784	 0.10858
H	 3.1191539993	-4.1722484575	-1.1752035315	 0.129089
H	 3.6976310117	-2.8148885652	-2.130401883	 0.138085
