17
gdb 33042	4.45846	0.88236	0.75655	5.2192	73.2	-0.188	0.0446	0.2326	1482.5195	0.136108	-455.193684	-455.184666	-455.183722	-455.228353	32.328	
C	-0.2005994532	 1.3862129932	 0.1053034695	-0.393286
C	 0.321524033	-0.0445174083	 0.0558768024	-0.129952
N	 0.5010627491	-0.4751252667	-1.3390542556	-0.400928
C	 0.8066632956	-1.7981235699	-1.5782747697	 0.421292
C	 1.7096150909	-2.4249514541	-2.3520951238	-0.238233
N	 1.3984507219	-3.7973648307	-2.2670280595	-0.36243
C	 0.3493343868	-3.9999994025	-1.4156817207	 0.483129
O	-0.1881924009	-5.0118023376	-1.0555843314	-0.404456
O	-0.0275806936	-2.7256048835	-0.9929533686	-0.233746
H	 0.5102423743	 2.0859317506	-0.3498829812	 0.112773
H	-1.1498457463	 1.4702259657	-0.4308295229	 0.134627
H	-0.3542428506	 1.7000339739	 1.1415359655	 0.125105
H	 1.2586946064	-0.1300907365	 0.6292514319	 0.096375
H	-0.3977500207	-0.7272272679	 0.5145567837	 0.14425
H	 1.1119735702	 0.1421806478	-1.8587837566	 0.236556
H	 2.5159177023	-2.0445644673	-2.9523801246	 0.134816
H	 1.8726538947	-4.5563204463	-2.7212940984	 0.27411
