21
gdb 39646	4.33754	1.01043	0.97407	1.604	83.51	-0.2386	0.0807	0.3193	1309.8477	0.184634	-387.013824	-387.006086	-387.005142	-387.046969	30.102	
C	-0.1447670908	 1.225985762	-0.2951056747	-0.058707
C	 1.3516440687	 1.4532477784	-0.0083534287	-0.29678
C	 1.2478367249	 0.1403614869	 0.8061264872	 0.09569
O	-0.1220579554	-0.0589729085	 0.3585495065	-0.295962
C	 2.1369360165	-1.0071195978	 0.3913570304	 0.066867
C	 3.5909436522	-1.1724688589	 0.9471142449	-0.064425
C	 2.9815277086	-1.6743372914	 2.2902243358	-0.226459
C	 2.1526669556	-2.3658146462	 1.167797477	-0.052574
C	 3.5104312348	-2.6494431532	 0.4602864198	-0.218385
H	-0.8230556441	 1.9284405742	 0.2075311796	 0.097438
H	-0.4392999915	 1.146205204	-1.3480932756	 0.102603
H	 1.9965346626	 1.3763842671	-0.8867191541	 0.107144
H	 1.6122377575	 2.3522862679	 0.5518533334	 0.107474
H	 1.2655412598	 0.3105966301	 1.8889740706	 0.069604
H	 2.0610537523	-1.1285964812	-0.6961712653	 0.058956
H	 4.4267216781	-0.482435774	 0.8172307252	 0.067729
H	 3.6191257247	-2.3321576557	 2.8873427108	 0.089227
H	 2.4760465534	-0.948962132	 2.9289949631	 0.095518
H	 1.3164650674	-3.0545323803	 1.2909118604	 0.07759
H	 3.4787786461	-2.8109396819	-0.620781753	 0.08904
H	 4.1782698987	-3.3599750096	 0.9546376267	 0.088415
