21
gdb 126709	3.09119	1.09454	0.87468	1.8592	87.73	-0.2175	0.034	0.2516	1422.0346	0.182228	-383.314796	-383.304762	-383.303818	-383.350475	35.756	
C	-0.0583264709	 1.5296455974	-0.2373682722	-0.370884
C	-0.0649284147	 0.0469770543	 0.138787293	-0.138779
N	-1.3872835273	-0.5465741816	 0.0589851384	 0.053278
C	-1.8909580127	-1.3508882806	-0.9106584238	-0.120111
C	-3.2093891325	-1.6070653776	-0.5930967879	 0.120357
C	-4.1941636492	-2.4518749739	-1.3407561718	-0.508276
C	-3.4157758816	-0.891131074	 0.6155264347	 0.289939
C	-4.6660497507	-0.8098374565	 1.4329273859	-0.493795
N	-2.3097950324	-0.2523243506	 0.9977100758	-0.335691
H	 0.9498969053	 1.9424154974	-0.132936491	 0.115818
H	-0.3852393326	 1.6727060594	-1.2717066033	 0.122209
H	-0.7331919054	 2.0852497268	 0.418015198	 0.147067
H	 0.5897364738	-0.5274698361	-0.5233238606	 0.11457
H	 0.2965931881	-0.0860490322	 1.1628144732	 0.128705
H	-1.2827787986	-1.6816800856	-1.7391804781	 0.122045
H	-4.567253492	-3.2824565379	-0.7293451388	 0.12539
H	-5.0706533926	-1.8733907514	-1.6569875181	 0.12528
H	-3.7446398974	-2.8831188088	-2.2398063535	 0.119539
H	-4.9857971604	-1.7991339393	 1.7813772735	 0.12329
H	-4.4997355399	-0.1760172927	 2.3064966284	 0.137154
H	-5.4987067962	-0.3901505366	 0.8560920184	 0.122895
