16
gdb 87548	2.63693	1.6195	1.20234	3.8944	70.87	-0.2329	-0.035	0.1979	1039.2217	0.122383	-437.813278	-437.805271	-437.804327	-437.845918	29.785	
C	-0.0990230036	 1.5017097404	-0.0007081789	-0.318284
N	 0.0119774048	 0.0487066153	 0.0528490526	-0.119977
C	 1.322280067	-0.5378198188	-0.1866433415	-0.318385
C	 0.717543421	-0.5176884457	 1.1766931029	 0.24634
C	 1.25768496	 0.1408526774	 2.4409748987	-0.098212
O	 0.1502900899	 0.229738877	 3.3391654359	-0.23369
C	 0.8687089067	-1.0209464408	 3.2805575953	-0.113585
C	 0.3219745302	-1.7333681928	 2.0336452987	 0.36908
O	-0.0857224592	-2.8287980783	 1.7953867542	-0.301896
H	 0.8124480607	 2.0257487031	 0.3297156274	 0.100381
H	-0.3133674005	 1.8010878752	-1.0304563936	 0.133088
H	-0.930337904	 1.8182195282	 0.635001532	 0.144081
H	 1.3355791031	-1.464942042	-0.7528995574	 0.139688
H	 2.167095023	 0.1302002165	-0.3579865845	 0.115369
H	 2.0935416212	 0.8131115404	 2.5866598974	 0.127637
H	 1.2996519296	-1.4040536653	 4.1970628307	 0.128366
