19
gdb 7375	3.79957	1.08867	0.88605	15.2714	72.95	-0.1663	-0.0183	0.1479	1299.7867	0.16451	-402.163264	-402.153604	-402.15266	-402.198749	33.398	
C	-0.005864755	 1.5873652728	 0.0166732325	-0.348143
N	 0.0395073899	 0.0966440944	-0.0094157226	-0.243996
H	 0.601596787	-0.2573807814	 0.7676364087	 0.307329
H	-0.895750483	-0.2957918269	 0.1235344443	 0.308385
C	 0.6246249674	-0.5250374067	-1.2943425254	-0.173537
C	 0.6287823263	-2.0269716583	-1.2301834576	-0.156584
C	-0.745511576	-2.6811793079	-1.3260992723	-0.399235
C	 1.6491844525	-2.519104453	-2.4061292904	 0.368363
O	 2.5622694853	-1.7004053084	-2.6239928033	-0.479578
O	 1.3713862446	-3.6225209017	-2.877413	-0.44349
H	 1.0086788429	 1.9605116304	-0.1240526064	 0.193769
H	-0.6362429199	 1.9258928366	-0.8057271958	 0.187257
H	-0.410114796	 1.934434393	 0.9689212856	 0.168625
H	 0.0037982202	-0.1341626625	-2.1059474092	 0.138724
H	 1.6506970669	-0.1678938761	-1.4055025731	 0.175322
H	 1.1332065268	-2.3366712884	-0.3001057809	 0.067353
H	-1.3718780561	-2.5616509158	-0.4263511152	 0.050979
H	-1.3064722146	-2.2913640751	-2.1841213257	 0.111341
H	-0.5942420793	-3.7473061949	-1.5060893132	 0.167117
