22
gdb 5963	3.16263	1.13873	1.04142	0.6978	84.39	-0.2565	0.0625	0.319	1285.0812	0.197133	-313.050104	-313.039773	-313.038829	-313.084779	38.272	
C	-0.0874533941	 1.6409292554	 0.0117269013	-0.38084
C	 0.0248222971	 0.1123765146	 0.0024284352	-0.191773
C	-1.3533803963	-0.5612077351	 0.0120096509	-0.166882
C	-1.3707733094	-2.1192625532	 0.0038280851	 0.05242
C	-0.6968095352	-2.6812651187	-1.2697933788	-0.402841
C	-0.6724991225	-2.6947973968	 1.258152804	-0.402841
C	-2.7768972744	-2.5428072753	 0.0151157909	 0.346684
C	-3.9308263394	-2.8816114174	 0.0242225756	-0.498192
H	 0.9001029869	 2.1125722665	 0.0048054918	 0.111125
H	-0.636594759	 2.002911295	-0.864504827	 0.115424
H	-0.6196739561	 1.9934079136	 0.9021590389	 0.115425
H	 0.5921311834	-0.1996738415	-0.8821832493	 0.099626
H	 0.6089416669	-0.209113238	 0.8726028587	 0.099629
H	-1.9100309998	-0.2234650974	 0.8950784528	 0.100572
H	-1.9268076987	-0.2140698157	-0.8565624172	 0.10057
H	 0.3688303534	-2.4353459261	-1.2858387206	 0.114299
H	-0.7938549209	-3.7698650963	-1.3049330682	 0.12161
H	-1.1610567098	-2.271165929	-2.1713866311	 0.119903
H	-1.1192950113	-2.2944463506	 2.1728493916	 0.119902
H	-0.7689249597	-3.7837251979	 1.2834799226	 0.121608
H	 0.3932668835	-2.4489116097	 1.2563294298	 0.114294
H	-4.9487503545	-3.1833065063	 0.0318311429	 0.190277
