14
gdb 23538	2.04659	1.80112	1.07396	1.8744	71.69	-0.2514	-0.011	0.2404	1076.2056	0.0982	-436.550743	-436.542635	-436.54169	-436.583592	30.293	
O	-0.0474388038	 1.2851307142	 0.0219296069	-0.378765
N	 0.0647176955	-0.1039460491	-0.094983131	-0.254209
C	-1.056201054	-0.6739842562	 0.0231595913	 0.446107
C	-1.4381146732	-2.1115109449	-0.1121884639	-0.090361
O	-2.2384107992	-2.4287429245	 1.0489229983	-0.222129
C	-2.870357744	-1.7479376001	-0.0201912983	 0.02897
C	-2.5404617322	-0.2317508424	 0.1256899888	-0.333977
C	-3.0194521232	 0.4522202443	 1.3080420302	 0.353226
C	-3.4374484015	 1.0112548384	 2.2857166291	-0.445796
H	 0.8663147166	 1.575375627	-0.0757656916	 0.313057
H	-0.9298535426	-2.923669244	-0.6138937547	 0.127272
H	-3.742837152	-2.1960768059	-0.4791034171	 0.123953
H	-2.8013868457	 0.3229784594	-0.7842029511	 0.132818
H	-3.7950237908	 1.5036792637	 3.1558223831	 0.199834
