18
gdb 8693	2.69818	1.63675	1.30594	4.2495	67.85	-0.2439	0.0313	0.2751	1012.8363	0.155013	-377.292502	-377.283077	-377.282133	-377.325998	34.386	
N	 0.1803481491	 1.4581971868	 0.0715295434	-0.505751
C	 0.0307744989	 0.0163666363	-0.0124072447	-0.172339
C	-1.4291331917	-0.5185748678	-0.0944255683	 0.071616
N	-2.0719532492	 0.0590017146	-1.2806438916	-0.522826
C	-1.4477039098	-2.0709419052	-0.0783485636	-0.181452
N	-2.8176430542	-2.5592390337	-0.224215354	-0.520311
C	-2.1655752302	-0.0479236296	 1.0981188239	 0.308112
N	-2.7194853397	 0.2805935167	 2.0581674648	-0.353505
H	-0.4085998983	 1.8922332791	-0.6345322097	 0.241945
H	-0.166160704	 1.7881053044	 0.9680930984	 0.241685
H	 0.544301072	-0.3431040871	-0.9150535461	 0.104845
H	 0.5325776873	-0.4460450342	 0.8436732358	 0.118742
H	-1.5139558866	-0.1972904735	-2.0928623392	 0.228046
H	-2.9699193498	-0.4053739182	-1.4028943959	 0.25004
H	-0.8665635338	-2.4095509139	-0.9441343668	 0.104326
H	-0.9294025153	-2.4305077594	 0.8252363051	 0.1006
H	-2.8207710387	-3.5458656667	-0.4575390513	 0.238405
H	-3.317676796	-2.4635487486	 0.6549037497	 0.247821
