16
gdb 8045	3.50472	1.85685	1.51824	5.4159	70.08	-0.2539	0.0252	0.2791	870.1023	0.131502	-342.734867	-342.727733	-342.726789	-342.766043	27.244	
C	-0.0081287777	 1.4753953044	 0.0525305335	-0.514395
C	 0.015008654	-0.0207616809	-0.0305189174	 0.330839
C	 0.6101511285	-0.9570235982	-1.1265315939	-0.279718
C	 0.0889373513	-1.8569679315	 0.0214596677	-0.022373
N	 0.6462781884	-0.89449107	 1.0514370519	-0.337282
C	-1.2099507743	-1.0011332363	 0.0354284998	-0.171046
C	-2.0331478834	-0.9925785415	 1.2320152923	 0.283122
N	-2.7435001194	-0.9769284516	 2.1438432151	-0.33229
H	 1.0094468441	 1.8793770406	 0.0328958349	 0.128639
H	-0.5589531588	 1.9020660315	-0.7915833835	 0.130558
H	-0.4888209503	 1.7959220255	 0.9813497393	 0.153863
H	 0.1121028213	-1.0046330085	-2.1008309705	 0.099934
H	 1.6973983563	-0.9163268503	-1.2319521622	 0.101685
H	 0.1596380203	-2.9373343353	 0.1409122946	 0.1033
H	 1.6663155066	-0.8571571246	 0.9566013545	 0.209057
H	-1.8266274269	-1.0517117334	-0.8637065662	 0.116105
