16
gdb 16817	3.58349	2.00607	1.48299	4.2656	64.94	-0.2319	0.0222	0.2542	855.9073	0.132596	-379.939646	-379.932626	-379.931682	-379.970734	27.052	
C	-0.0789055322	 1.5833481666	 0.0528197838	-0.396767
C	 0.0274808319	 0.0589488723	 0.0118925595	 0.043796
N	 0.8148871674	-0.430106058	-1.1166955045	-0.328158
C	 1.8241542311	-1.3123478047	-0.8282657466	 0.454986
O	 2.5223291341	-1.8983082096	-1.6255069812	-0.387122
C	 1.8640707983	-1.405748122	 0.6824919736	-0.170736
N	 2.1675501096	-0.0817613031	 1.292307721	-0.326845
C	 0.7747260259	-0.5478491851	 1.2021164541	-0.050978
H	 0.9145513268	 2.0227805201	 0.1651537125	 0.148786
H	-0.5379693007	 1.9689720609	-0.8633439409	 0.113504
H	-0.7039747575	 1.8980758596	 0.8948079953	 0.116878
H	-0.9827550529	-0.3754375098	-0.0217555195	 0.084415
H	 0.6549847485	-0.1319104971	-2.0656577843	 0.249688
H	 2.2149440735	-2.31687664	 1.1497914151	 0.11169
H	 2.5076542016	-0.2378750616	 2.2391939693	 0.238764
H	 0.2231550447	-0.7820637084	 2.1052827129	 0.0981
