20
gdb 94326	2.55418	1.29814	1.07316	4.2366	84.09	-0.2739	0.0308	0.3048	1209.7443	0.170908	-366.013104	-366.004186	-366.003242	-366.046894	33.714	
C	-0.6279876108	 1.1830471529	 0.0356086039	-0.422543
C	 0.1335726523	-0.1253314147	-0.1041027559	-0.021284
C	 1.5333375255	-0.1113410769	-0.7932851704	-0.232616
C	 2.0783645687	-1.0619724538	 0.3126171895	-0.306308
C	 0.823808741	-0.7382392169	 1.130312083	 0.353307
C	 0.7875722242	-0.201408834	 2.521340936	-0.342436
C	 0.1995318246	-1.5789663511	 2.2297531012	-0.251055
C	-1.2238775595	-1.7570966882	 2.2435803809	 0.293725
N	-2.3738406795	-1.8907591258	 2.2289237574	-0.350157
H	-0.008032577	 1.9549379106	 0.5048304308	 0.112691
H	-0.9379018648	 1.5545161744	-0.9469285296	 0.12022
H	-1.5323054431	 1.0552801417	 0.6401134257	 0.135629
H	-0.5106406877	-0.878698339	-0.5717923859	 0.091486
H	 1.5816645276	-0.4702171833	-1.8231547938	 0.104333
H	 1.9947976411	 0.8790162872	-0.7447164917	 0.105545
H	 2.1112917639	-2.1068506235	-0.0099934879	 0.1116
H	 3.0400447121	-0.8040173018	 0.76364855	 0.105649
H	 1.705092614	-0.1832727114	 3.1006777334	 0.125376
H	 0.0877221967	 0.5939479939	 2.7531859094	 0.138791
H	 0.7632705808	-2.4405840404	 2.5736983938	 0.128047
