18
gdb 119818	6.21615	0.75339	0.68051	3.5662	76.42	-0.2077	0.0012	0.2088	1612.7425	0.146763	-439.119405	-439.110186	-439.109242	-439.154318	32.623	
C	-0.003200311	 1.3949916893	-0.0145703772	-0.224779
O	-0.0028197715	-0.012212696	 0.0067819627	-0.230964
C	 0.6394130594	-0.5778710647	-1.11228154	-0.15834
C	 0.5971070958	-2.0640195812	-1.0122065242	 0.218218
C	 0.0489400322	-2.7922781016	-0.033784885	-0.088477
N	 0.2000996643	-4.1682556572	-0.2770370315	-0.328332
C	 0.8738681742	-4.4079888754	-1.4594614367	 0.425237
O	 1.1472001409	-5.490349075	-1.9230894944	-0.369448
C	 1.1842527662	-3.0098707644	-2.031035946	-0.458367
H	 1.0196247044	 1.8038549326	-0.0146699867	 0.106603
H	-0.5303030223	 1.790041433	-0.8974288172	 0.106599
H	-0.519301364	 1.7351805675	 0.8862414094	 0.12924
H	 0.1532638381	-0.2394015238	-2.0476853427	 0.092742
H	 1.6867445795	-0.2242787756	-1.1751790999	 0.092747
H	-0.4584588763	-2.4490553055	 0.854196239	 0.140769
H	-0.1300754392	-4.9092621738	 0.3178560355	 0.26005
H	 0.7386504784	-2.91880479	-3.0289088886	 0.143274
H	 2.2678908606	-2.9038420081	-2.1617043964	 0.143231
