21
gdb 92118	2.5938	1.60152	1.19579	1.0927	82.24	-0.2146	0.0612	0.2758	1113.2959	0.183852	-383.194317	-383.186051	-383.185107	-383.227502	32.346	
C	-0.393716843	 1.5402648198	 0.0495610005	-0.403207
C	-0.0216349923	 0.064924768	 0.0225696896	 0.026336
C	 1.1569353438	-0.4062485692	-0.8735278438	-0.195775
N	 1.7514324305	-1.2121996245	 0.2445461132	-0.123015
C	 2.8653746888	-0.4890836787	 0.93564706	-0.267626
C	 1.8708402311	 0.1375484982	 1.922144381	 0.341243
C	 2.0629557753	 0.3804098494	 3.367792688	-0.307982
N	 1.8305296949	 1.5035923181	 2.4379334392	-0.356853
C	 0.7362015114	-0.5980653888	 1.2032144027	-0.078098
H	 0.4683541019	 2.1736542869	 0.2697058003	 0.127327
H	-0.808250561	 1.8434961722	-0.918785784	 0.107302
H	-1.1499869161	 1.7443129225	 0.8145580424	 0.118
H	-0.9164764192	-0.5284906281	-0.1921592012	 0.078077
H	 0.8905592685	-1.0186138872	-1.740160611	 0.102407
H	 1.8104072985	 0.4069422955	-1.2160289873	 0.09106
H	 3.5918536596	-1.1761711662	 1.3833526785	 0.107333
H	 3.4046156536	 0.2149552234	 0.2886627791	 0.098148
H	 1.2517242587	 0.1943668743	 4.0672086381	 0.120438
H	 3.0595242576	 0.2368405505	 3.7793254216	 0.112232
H	 2.7079889078	 1.9772181151	 2.2335135689	 0.229678
H	 0.1577594497	-1.2834472313	 1.8309599544	 0.072973
