20
gdb 17942	3.06526	2.17177	2.01808	0.3331	77.64	-0.2389	0.0903	0.3293	831.2607	0.179671	-311.861715	-311.854806	-311.853861	-311.892262	28.312	
C	 0.0140137657	 1.5320518688	-0.0404684818	-0.518157
C	 0.0002125319	 0.0345295377	 0.0120629616	 0.359034
C	 0.4830764296	-1.023808881	-0.9702474382	-0.112081
C	 1.2337618643	-1.7665269512	 0.1335339397	-0.231815
C	 0.4782425528	-0.8853680502	 1.1819185299	-0.085711
C	-0.7848566883	-1.5911601955	 1.6915667109	-0.204887
C	-1.6020236309	-1.8632686511	 0.3977033992	-0.233312
C	-0.9968086073	-0.8964541256	-0.6212924911	-0.081046
H	 1.0166985234	 1.935946316	 0.1436774163	 0.114665
H	-0.3117033485	 1.8928896006	-1.0221296003	 0.116726
H	-0.658881388	 1.9669320147	 0.7091756792	 0.115622
H	 0.820812731	-0.8928409183	-1.9930986096	 0.072806
H	 1.105058565	-2.8532528457	 0.2109584313	 0.083446
H	 2.3035455595	-1.5419886645	 0.1103109997	 0.095859
H	 1.096679161	-0.436867351	 1.9608193202	 0.059957
H	-0.5575129516	-2.505387936	 2.2500843213	 0.090992
H	-1.3413253398	-0.9264680659	 2.3629794802	 0.092192
H	-1.5136831275	-2.905897764	 0.0727525109	 0.098242
H	-2.6689879603	-1.6681530223	 0.5434932516	 0.09393
H	-1.6199811519	-0.5085314755	-1.4209141009	 0.073539
