18
gdb 10511	2.94305	1.71755	1.29398	3.075	68.3	-0.2541	-0.0416	0.2125	982.3554	0.152703	-384.931027	-384.922594	-384.921649	-384.963986	31.009	
O	-0.0298099193	 1.6704297627	-0.1513740365	-0.429769
C	 0.0156317833	 0.2578475329	-0.1172080198	-0.13594
C	-1.3679386151	-0.3874445104	-0.0448113038	 0.346722
C	-2.3332341986	 0.2854326088	 0.9370447018	-0.355769
C	-1.7371353109	 0.4077996186	 2.3225267257	 0.145563
O	-0.8978728033	 1.2299927507	 2.6145929467	-0.246654
C	-1.9730633488	-0.9537165149	-1.3048432904	-0.307378
C	-1.4356314186	-1.8825697078	-0.2422953722	-0.307535
H	-0.1808549652	 1.9543841454	 0.7611482345	 0.293373
H	 0.5164942359	-0.0729042803	-1.0340798801	 0.102074
H	 0.627033201	-0.0922233196	 0.727814383	 0.09568
H	-2.541418262	 1.2977791402	 0.5739061031	 0.142185
H	-3.2727803657	-0.2736534031	 0.9819419979	 0.104527
H	-2.087924386	-0.3194037612	 3.085925885	 0.094149
H	-3.0489209927	-0.89338384	-1.4328368969	 0.111807
H	-1.4101750484	-0.8458720122	-2.2259436601	 0.120698
H	-0.507005934	-2.4078283085	-0.4435023646	 0.116446
H	-2.1458742018	-2.4553960712	 0.3447614367	 0.109822
