23
gdb 75435	2.50951	1.34388	1.10237	1.2586	87.92	-0.2316	0.0304	0.2621	1252.6709	0.204629	-388.316969	-388.307374	-388.30643	-388.350471	37.582	
C	 0.0141177184	 1.5405051477	 0.0325487293	-0.4778
C	 0.007916723	 0.0393337117	-0.0445093099	 0.306216
C	 0.0410626416	-0.6315940676	-1.1955814856	-0.156057
C	 0.062375493	-2.1309660805	-1.2592088445	-0.126859
O	 0.2910677596	-2.7514276632	-0.009536969	-0.290322
C	-0.4279534443	-2.190663203	 1.098039909	 0.357051
C	-1.9461687083	-2.3265695207	 0.8913487741	-0.425412
C	 0.0182958512	-3.0182227599	 2.3029136622	-0.417229
C	-0.01915472	-0.7122716007	 1.2666822249	-0.311613
H	 0.8671801359	 1.9017567662	 0.6219059253	 0.122701
H	 0.0703054337	 1.996998326	-0.9594932997	 0.11892
H	-0.8880308986	 1.9161342714	 0.5327452091	 0.120873
H	 0.0471699529	-0.1061544522	-2.1480397005	 0.078669
H	-0.8734821937	-2.5000828608	-1.7177515342	 0.093417
H	 0.8761950595	-2.4722250867	-1.911850137	 0.112496
H	-2.1982859703	-3.3621548149	 0.644343881	 0.118774
H	-2.4812800217	-2.0520653027	 1.8057484842	 0.11105
H	-2.306558124	-1.6784438151	 0.0878916662	 0.120301
H	 1.10825253	-2.9991472747	 2.3890121567	 0.119488
H	-0.4136127144	-2.6210610765	 3.2267423845	 0.108581
H	-0.2975779163	-4.0594383046	 2.1905961946	 0.116652
H	 0.9724813846	-0.6583354056	 1.7376090141	 0.104956
H	-0.7087108519	-0.2187566137	 1.9647299152	 0.095149
