19
gdb 105909	2.13373	1.88298	1.22578	2.6931	74.97	-0.2254	0.0748	0.3002	1077.8926	0.157321	-422.921011	-422.912515	-422.911571	-422.954197	32.027	
C	 0.0029182052	 1.3609461772	 0.0309103115	-0.263329
O	-0.0631813445	-0.0509641402	-0.0863112034	-0.28384
C	-1.3340487921	-0.5554767893	-0.0647789226	 0.410257
C	-2.4926382918	-0.363945111	-1.0831958347	-0.101863
C	-2.2822976639	-0.8139914991	-2.5217040024	-0.41492
C	-3.0575507388	-1.3713762511	-0.0547606186	-0.104177
C	-1.6727119115	-2.0567309783	 0.1843097362	 0.011351
O	-1.7343440133	-1.940126466	 1.6346356154	-0.328187
C	-2.3327574539	-0.7033683395	 1.1509045739	-0.000849
H	 1.0595473377	 1.6328698264	-0.0023369059	 0.134651
H	-0.5220479847	 1.8619752552	-0.7938496294	 0.115416
H	-0.4263058292	 1.7041060753	 0.9821402778	 0.116161
H	-2.9728007211	 0.6209213782	-1.0419111105	 0.06933
H	-1.8094045382	-1.8006450515	-2.5703710248	 0.118406
H	-3.2333436855	-0.8731328701	-3.0617137718	 0.117833
H	-1.6380116961	-0.1129485548	-3.0628263653	 0.121698
H	-4.0284104388	-1.859809326	-0.0236200578	 0.089668
H	-1.2414634297	-2.957358848	-0.2492929817	 0.099068
H	-2.7035343097	 0.0240184426	 1.872240974	 0.093325
