16
gdb 53886	4.42816	0.68886	0.60801	3.772	67.71	-0.2511	-0.0742	0.1769	1714.519	0.121008	-475.081934	-475.072004	-475.07106	-475.11883	33.583	
N	-0.0090738688	 1.3279492607	-0.0386954442	-0.517815
C	 0.0640226027	-0.0108473362	-0.1937557452	 0.336005
O	 1.0450723648	-0.6454764899	-0.5304129811	-0.347604
C	-1.2824327683	-0.7103870146	 0.1148826607	 0.293305
O	-2.2484572903	-0.0614368193	 0.4457404641	-0.306035
C	-1.2727400993	-2.2154887301	-0.0152082632	-0.312223
C	-2.6637550578	-2.8375144085	 0.1327276114	-0.280937
C	-2.5916594038	-4.3359022902	 0.3180194429	 0.160091
O	-3.2013925647	-5.1431841409	-0.3325621963	-0.234562
H	 0.7997095474	 1.9001211176	-0.2124457296	 0.272688
H	-0.8845923896	 1.7396511116	 0.2413885633	 0.281325
H	-0.7954514303	-2.4740219428	-0.9667269032	 0.161479
H	-0.5761045811	-2.5954563325	 0.7466621665	 0.149438
H	-3.1464760904	-2.4100660849	 1.0222424936	 0.139704
H	-3.3014161236	-2.6141383934	-0.725940449	 0.133514
H	-1.9092218772	-4.6600746965	 1.1403101795	 0.071629
