22
gdb 115913	3.59129	1.11544	0.94005	2.4561	82.31	-0.2395	0.071	0.3106	1326.0875	0.196051	-404.335626	-404.327003	-404.326058	-404.36891	33.563	
C	-0.0801066556	 1.5543756542	 0.0332399099	-0.387989
C	-0.0189922292	 0.0265986244	-0.0319438647	-0.187418
C	 0.7369294461	-0.4984681205	-1.248920738	 0.146435
C	 0.8967208725	-2.0268394686	-1.2369621742	-0.213721
C	 1.3390747683	-2.5566293118	-2.5939808002	-0.049954
N	 0.269288985	-2.7355440994	-3.5968718099	-0.323039
C	 1.2595658805	-1.6680970899	-3.7857098841	-0.038179
C	 0.7579766284	-0.250571596	-3.6017197279	-0.081852
O	 0.0238254353	-0.0792669625	-2.4081562545	-0.25204
H	 0.922934849	 1.9879778113	 0.1176347167	 0.106656
H	-0.5448039607	 1.9564888393	-0.8703282224	 0.134282
H	-0.6609937619	 1.889751707	 0.8977522664	 0.107894
H	 0.4604798821	-0.3740772413	 0.8698383798	 0.091317
H	-1.0338123577	-0.3886457398	-0.0611648463	 0.107915
H	 1.7441564297	-0.0415711801	-1.2743792421	 0.053112
H	 1.6301767337	-2.3027405438	-0.4709516439	 0.092431
H	-0.0569338893	-2.4921374886	-0.9644306984	 0.112355
H	 2.1307356008	-3.3019846059	-2.5810260898	 0.081919
H	 0.48888219	-3.5220468094	-4.2024103982	 0.227783
H	 2.0073594195	-1.7868641013	-4.5680607138	 0.08076
H	 1.6255820506	 0.4332985019	-3.6206417181	 0.081456
H	 0.0852014329	 0.0314557409	-4.4185914362	 0.109877
