18
gdb 37382	2.9286	2.06817	1.88323	2.0225	72.58	-0.2185	0.0871	0.3056	830.5177	0.15213	-401.908472	-401.902636	-401.901692	-401.938228	25.859	
C	-0.0056013605	 1.4706374321	-0.1783289742	-0.257368
C	 1.280744776	 0.7388378595	-0.0037148824	-0.012587
C	 2.0385462783	 0.6835124266	 1.3170605634	 0.043253
C	 1.239776017	 1.2802450792	 2.4873625659	-0.254322
C	 0.1772354526	 0.2033061832	 2.6589949524	-0.129446
C	 0.8529249648	-1.0510258192	 2.1452592571	 0.093683
O	 2.133391766	-0.7171754972	 1.6565930848	-0.259628
C	-0.2999258765	-0.4722182493	 1.3664329806	-0.053102
N	-0.0052845713	 0.0201194807	 0.0387218641	-0.088703
H	-0.3713026898	 2.1117092892	 0.6167706855	 0.118055
H	-0.3048279978	 1.7744707229	-1.1774545249	 0.116003
H	 1.8852899003	 0.5247232597	-0.8824571398	 0.096101
H	 3.0558090079	 1.0654709096	 1.2211707712	 0.083082
H	 1.8679766498	 1.3306190231	 3.3834181529	 0.10882
H	 0.8641744035	 2.2833351489	 2.2806419805	 0.108223
H	-0.4639784169	 0.1987282652	 3.5325140774	 0.088439
H	 0.8260595807	-2.0256897707	 2.6150131164	 0.1032
H	-1.250180734	-0.9930753234	 1.4263314892	 0.096296
