16
gdb 55672	3.055	1.00041	0.86596	7.47	68.33	-0.2529	-0.0445	0.2084	1347.5992	0.120339	-475.074298	-475.064421	-475.063477	-475.110748	32.881	
C	 0.2459781805	 1.4165500544	 0.0841964826	-0.480986
C	-0.0144128919	-0.0736381705	 0.1320016206	 0.383993
O	-0.322440466	-0.6632161169	 1.137087715	-0.265521
C	 0.1176970942	-0.8161582461	-1.2097260396	-0.329431
N	 0.069158182	-2.260177284	-1.0776974573	-0.067594
C	-1.1682271605	-2.8436795721	-0.7459592909	 0.182357
O	-1.3710466256	-4.0058060815	-0.5465765576	-0.260738
C	 1.2656929645	-2.9850077644	-1.1796604369	 0.173578
O	 1.3949854711	-4.1694961445	-1.0673304964	-0.25753
H	 1.310503301	 1.5995865465	-0.1047919455	 0.152618
H	-0.3085833678	 1.8873776556	-0.734883672	 0.143892
H	-0.0331614863	 1.8719152545	 1.0345271419	 0.159281
H	-0.6834298835	-0.463020939	-1.8722906839	 0.152144
H	 1.0542287689	-0.5289899461	-1.6977591392	 0.145772
H	-1.9602690611	-2.0711904702	-0.709867538	 0.087758
H	 2.1121379607	-2.301232436	-1.3981767426	 0.080408
