20
gdb 46381	3.75077	0.90929	0.7728	2.75	80.53	-0.2364	-0.0181	0.2184	1481.9142	0.170082	-403.121473	-403.112554	-403.11161	-403.156209	32.781	
O	-0.8823953948	 0.2476063626	 0.6571220666	-0.301003
C	-0.385219056	 1.2611838632	 0.2585580652	 0.38821
C	-0.8785273784	 2.7085996504	 0.1013281544	-0.338491
C	 0.6190843903	 3.1386751801	 0.0309289086	-0.244162
C	 1.0513066932	 1.6456796264	-0.1404594388	-0.09189
C	 2.1902387352	 1.0438154974	 0.6698598061	-0.164429
N	 3.4888627889	 1.3938636604	 0.1045315064	-0.065578
C	 4.1303425953	 2.5965928723	 0.6290591391	-0.218839
C	 4.6377330911	 1.2446159424	 0.9901194384	-0.22115
H	-1.4167338576	 2.8500711489	-0.8417366591	 0.132996
H	-1.4958839105	 3.0982066693	 0.9144237632	 0.128348
H	 0.8917472721	 3.8155705367	-0.7789205631	 0.111642
H	 0.9674069038	 3.5601112261	 0.9772538516	 0.109671
H	 1.2088608485	 1.4088022687	-1.2001455829	 0.114827
H	 2.0993168423	 1.3514178926	 1.7286250538	 0.079677
H	 2.09180339	-0.0476913678	 0.6460977034	 0.124207
H	 4.6549974045	 3.2102442091	-0.0975605643	 0.117401
H	 3.6132901075	 3.154305029	 1.4085042559	 0.108538
H	 4.4562105492	 0.9028843577	 2.0081594664	 0.111188
H	 5.5397834153	 0.8500468043	 0.5314312191	 0.118835
