17
gdb 102957	2.74097	0.91897	0.72289	4.0347	72.82	-0.2657	-0.0086	0.257	1499.8786	0.133043	-458.940701	-458.930815	-458.929871	-458.976745	34.497	
O	 0.0386228025	 1.4811284733	 0.1625184837	-0.419427
C	 0.0050859645	 0.0781332021	 0.0710409135	-0.058173
C	-1.4229416256	-0.4802661637	-0.1808106622	-0.209509
C	-1.903023608	-0.2326109744	-1.6235034345	-0.099342
O	-1.8283157824	 1.1623550429	-1.954893999	-0.194898
C	-2.979184105	 1.8470490431	-2.1445009046	 0.174443
O	-2.9970750386	 3.0177741873	-2.3646589643	-0.264049
C	-1.4798724737	-1.9132518251	 0.0845380774	 0.302898
C	-1.4980690036	-3.1004627961	 0.2714059012	-0.44081
H	-0.2802208861	 1.8408898355	-0.6731907853	 0.29935
H	 0.679032071	-0.310600168	-0.7097135894	 0.097079
H	 0.362544449	-0.3058423993	 1.030138038	 0.125482
H	-2.0958833192	 0.0497204273	 0.5063439832	 0.123093
H	-1.2554669357	-0.759903429	-2.3296426025	 0.139545
H	-2.9280533747	-0.5964346343	-1.7567574014	 0.128443
H	-3.8733456767	 1.1980981406	-2.0807518007	 0.091176
H	-1.5225564176	-4.1461650122	 0.4564103871	 0.204697
