15
gdb 21289	3.3168	1.99498	1.25828	1.6068	64.08	-0.1855	0.0367	0.2223	926.2784	0.120121	-395.982884	-395.974702	-395.973758	-396.015532	28.893	
C	-0.0453812621	 1.3536892139	 0.0025511815	-0.233441
O	-0.022418821	-0.0683251208	-0.0290143744	-0.278951
C	-1.2297364667	-0.671284094	-0.016892307	 0.412665
N	-2.3859983455	-0.0259987737	 0.0207339331	-0.325635
N	-3.304557833	-1.018232925	 0.0188655743	-0.221779
C	-2.7479919885	-2.2613020871	-0.0276081615	-0.080874
C	-1.3806648819	-2.0813027532	-0.0482993543	 0.078985
N	-0.3428866119	-3.0267617714	-0.1558502209	-0.621926
H	 0.9974599852	 1.6744152809	-0.0119345411	 0.123452
H	-0.5761752731	 1.756320132	-0.8668737663	 0.132158
H	-0.5402765495	 1.7186694273	 0.9091723559	 0.130166
H	-4.2778672657	-0.779073092	 0.0621469636	 0.270146
H	-3.3489007803	-3.1564161708	-0.0419756798	 0.124578
H	-0.4461101767	-3.7963243377	 0.4944834315	 0.240717
H	 0.5525340706	-2.5831235383	 0.0097096554	 0.249738
