17
gdb 80034	4.16413	1.28067	1.20395	3.8355	77.18	-0.235	-0.0208	0.2142	1060.1262	0.136935	-380.827053	-380.819533	-380.818589	-380.858775	29.538	
N	-0.1621393916	-1.1977647897	-0.1711420554	-0.330252
C	-0.0641013242	-0.0508956082	-0.065075021	 0.275413
C	 0.0226729894	 1.3958119279	 0.0320847921	-0.152501
C	 0.0231681151	 2.1011094312	 1.4416399161	-0.058684
C	 1.190100355	 1.3582435285	 2.1345417093	-0.08592
C	 2.1311229227	 1.3653056634	 1.188867573	-0.085925
C	 1.4269108023	 2.1116379929	 0.0309514943	-0.058685
N	 0.6854051379	 3.2286476236	 0.7052310367	-0.07608
C	 1.4219479033	 4.2387802486	 1.4456820431	-0.332375
H	-0.6744359701	 1.8741008505	-0.6580193619	 0.134984
H	-0.8971376022	 2.3063846729	 1.9870354359	 0.086971
H	 1.1920731789	 0.931094074	 3.1261272195	 0.120088
H	 3.1258649855	 0.9455982679	 1.1827721839	 0.120088
H	 1.9661841936	 2.3278596379	-0.8904546332	 0.086971
H	 1.9551403774	 4.8770546004	 0.7341956667	 0.12515
H	 0.7083748282	 4.86774077	 1.9870906541	 0.12515
H	 2.1482241491	 3.832192588	 2.1653803667	 0.10561
