22
gdb 87183	3.44971	0.91624	0.88258	3.4086	83.91	-0.2349	0.0359	0.2708	1472.5949	0.19149	-404.381361	-404.37051	-404.369566	-404.417787	39.101	
C	-0.1413902816	 1.5289057549	-0.0010936416	-0.413185
C	 0.0527239215	 0.0288458436	 0.0247573924	-0.056195
C	 1.3964595057	-0.6072700274	-0.2427067084	-0.292088
C	 0.7883377138	-0.6933231564	 1.1364034553	 0.348126
C	 1.4317792689	 0.0441126539	 2.2950497569	-0.453627
N	 0.2175725826	-1.9700599517	 1.4949410523	-0.362274
C	 0.9789294194	-3.0672733956	 1.7993604942	 0.403394
C	 0.1920344721	-4.2788362366	 2.2823875031	-0.487553
O	 2.1918343814	-3.076889251	 1.6989701625	-0.37417
H	 0.7455113949	 2.0629870505	 0.3500378394	 0.120216
H	-0.3421420225	 1.8693968829	-1.0227155708	 0.121591
H	-0.9864991352	 1.8394831345	 0.6238805724	 0.114695
H	-0.7943031224	-0.529050494	-0.369292814	 0.078937
H	 1.4406338058	-1.5140979952	-0.8326003007	 0.120983
H	 2.2531323869	 0.0487024072	-0.3596603179	 0.111927
H	 1.8758782362	 0.9903566929	 1.977295848	 0.114212
H	 0.700261902	 0.2603594922	 3.0822890552	 0.104595
H	 2.2259429685	-0.5759324235	 2.7197218965	 0.149979
H	-0.7672898318	-1.9987703515	 1.7068839803	 0.238565
H	-0.8652009875	-4.2503100183	 2.0044328675	 0.112573
H	 0.6518422426	-5.1787905308	 1.8705948477	 0.151484
H	 0.2624388287	-4.3408987605	 3.3733327096	 0.147814
