18
gdb 43824	2.95091	1.48021	1.1631	3.3747	76.2	-0.2291	-0.0163	0.2128	1078.3365	0.14884	-401.936669	-401.929187	-401.928242	-401.968608	29.93	
O	 0.0787928444	-0.0279886138	 0.0435253981	-0.324946
C	 0.0143184598	 1.1718237608	-0.0362698216	 0.450015
C	-1.2661067307	 2.0144556024	-0.1595656578	-0.431809
C	-0.8264334288	 3.2798888791	-0.8968756067	 0.403307
C	-1.3735530921	 3.6231230766	-2.2597941544	-0.319262
C	-1.7137951132	 4.4806490443	-1.0625555535	-0.313815
C	 0.6538888285	 3.4158256837	-0.6446996942	-0.126251
N	 0.993921251	 3.2957863899	 0.7784371257	-0.340985
C	 1.1794495687	 2.118529368	-0.1274746819	-0.166975
H	-2.0488399349	 1.4468374194	-0.6665854303	 0.125089
H	-1.6160114411	 2.2460323164	 0.853138261	 0.144648
H	-0.6923680012	 4.0280504464	-3.0019233607	 0.112369
H	-2.1477969858	 2.9844546257	-2.6716729294	 0.117819
H	-2.7212564178	 4.4242881198	-0.6638787365	 0.116973
H	-1.2637013494	 5.4655777514	-0.9924211701	 0.113452
H	 1.2553835649	 4.051238345	-1.2878316923	 0.094039
H	 1.9131928454	 3.7013699988	 0.9422010958	 0.240773
H	 2.1740657823	 1.738080536	-0.3256040613	 0.105556
