14
gdb 80746	4.50377	1.1877	1.16934	2.2244	60.97	-0.2586	-0.0016	0.257	1036.0741	0.100547	-473.783925	-473.776383	-473.775438	-473.816316	27.826	
O	-0.0121146679	 1.4698031437	 0.11939819	-0.418668
C	 0.0346114784	 0.0930896682	 0.0281935324	 0.106259
C	-0.3513623981	-0.8091240053	 1.1953554318	-0.006311
O	-1.0490345242	-0.171364425	 2.2519496134	-0.228288
C	-2.3852169691	-0.0768319603	 1.8300087448	 0.027231
O	-2.3688581881	 0.0456338046	 0.418948164	-0.2566
C	-1.2448098141	-0.7142572891	-0.0131846514	-0.04109
C	-3.1667102664	-1.277362405	 2.240538505	 0.300054
N	-3.7765463608	-2.2018529759	 2.5675640806	-0.311081
H	-0.9434413841	 1.7214365618	 0.1674711112	 0.300705
H	 0.8588622873	-0.2607485789	-0.5853501579	 0.121793
H	 0.2141354369	-1.6877705789	 1.4815533961	 0.12719
H	-2.8382581197	 0.8205409873	 2.2591215272	 0.151218
H	-1.46883636	-1.5073601471	-0.7164141771	 0.127589
