18
gdb 35559	3.50946	1.20502	0.99965	4.1188	83.13	-0.2447	-0.0015	0.2433	1196.4584	0.149708	-364.814004	-364.806374	-364.80543	-364.846355	29.521	
N	 0.1546769763	-1.1343702526	-0.1997355894	-0.32853
C	 0.0571598712	 0.0157894148	-0.1345104789	 0.285577
C	-0.0554437342	 1.4617229267	-0.0363008229	-0.259947
C	-0.3170982096	 2.1194352604	 1.385104889	-0.257711
C	 0.7025493223	 3.2504994771	 1.002589936	-0.04117
C	 1.9788118632	 3.6251906352	 1.7834054042	-0.24414
C	 3.1313086319	 3.3162505009	 0.7679954232	-0.238526
C	 2.5312117484	 2.2394651039	-0.1345526492	-0.225214
C	 1.2093403243	 2.301310354	-0.0469561778	 0.302447
H	-0.8026359203	 1.8168735845	-0.7545629589	 0.13286
H	-1.3506541553	 2.4047812777	 1.5895680302	 0.116767
H	 0.0596649915	 1.476341775	 2.1826525363	 0.13083
H	 0.1727965984	 4.1244471683	 0.6045512523	 0.082114
H	 1.9920573453	 4.6594313005	 2.1374164616	 0.100887
H	 2.0875719416	 2.9751784247	 2.6587175972	 0.10858
H	 3.4199181378	 4.2122095999	 0.2012913757	 0.111836
H	 4.038326659	 2.9642430057	 1.270198209	 0.111158
H	 3.1231251084	 1.5100192632	-0.6736724876	 0.112182
