22
gdb 55858	3.48756	0.82084	0.75899	3.8393	83.51	-0.234	0.0385	0.2725	1589.0094	0.19222	-404.382972	-404.372292	-404.371348	-404.419351	39.136	
C	-0.373297355	 1.5256141918	 0.1144431077	-0.451266
C	 0.1173629593	 0.0924226238	 0.0190064539	 0.320118
C	-0.6847788604	-0.7587790267	-0.9493853932	-0.44741
C	 1.6040663907	-0.1707278787	 0.1109546166	-0.33951
C	 0.6803307685	-0.6098307967	 1.237568927	-0.051554
C	 0.7391174468	 0.0202668617	 2.614721022	-0.319265
C	 1.720834545	-0.6179407837	 3.6041863476	 0.383019
N	 2.8420272623	-1.1609076997	 3.0485788273	-0.511016
O	 1.524573244	-0.6054983111	 4.8035923064	-0.365993
H	 0.2455554077	 2.1388986792	 0.7738295751	 0.116034
H	-0.3636919659	 1.9972858134	-0.8749370347	 0.116395
H	-1.4030349266	 1.5666997371	 0.488518283	 0.119051
H	-0.6492061671	-0.341349964	-1.9626015245	 0.115543
H	-0.3016071212	-1.7828482921	-0.9967627343	 0.111728
H	-1.7379191133	-0.8095493763	-0.6488893435	 0.117971
H	 2.038655339	-0.9256481093	-0.5374340431	 0.108186
H	 2.2528577549	 0.6806636734	 0.2971781123	 0.111517
H	 0.4711426002	-1.677331133	 1.2660949858	 0.089693
H	 1.0143973659	 1.0791256725	 2.5453694844	 0.12313
H	-0.2375749533	-0.0108179657	 3.1065173038	 0.130297
H	 2.9771220551	-1.1969723177	 2.0536743417	 0.26618
H	 3.5207191433	-1.5828175181	 3.6601659088	 0.257153
