18
gdb 87606	2.7008	1.51357	1.14198	3.0238	79.16	-0.2059	-0.0017	0.2042	1107.2023	0.1483	-401.99167	-401.983386	-401.982442	-402.024328	31.889	
C	-0.0870295462	 1.5198038992	-0.0711931157	-0.410655
C	 0.0308103562	 0.0166481064	 0.0176692931	-0.02052
C	 1.3251260744	-0.680821339	-0.2165626594	-0.321511
C	 0.7503661736	-0.642948445	 1.1976208833	 0.198958
C	 1.3488818448	 0.0436646748	 2.364739915	-0.270231
C	 1.1273335311	-0.722608332	 3.4429456615	-0.032229
N	 0.4209181361	-1.8836881384	 3.0941119209	-0.356684
C	 0.1531069721	-1.9173005825	 1.7361643763	 0.379514
O	-0.4388087904	-2.7897137163	 1.13406792	-0.39758
H	 0.8410871925	 2.0154476649	 0.2293017681	 0.115702
H	-0.3058339455	 1.8251792739	-1.1001542449	 0.124318
H	-0.8914462095	 1.8964480717	 0.5688465304	 0.125725
H	-0.8512165127	-0.5423985398	-0.2849855968	 0.113656
H	 1.3116357319	-1.6520881945	-0.6994374236	 0.137444
H	 2.2115213098	-0.0797204454	-0.3917650711	 0.115828
H	 1.8722662413	 0.9865516478	 2.350124582	 0.108651
H	 1.4121252964	-0.5603406575	 4.4719807264	 0.129793
H	 0.1357296541	-2.6134158484	 3.7247914343	 0.259819
