18
gdb 37266	3.67003	1.95531	1.86908	1.576	75.79	-0.219	0.0887	0.3078	817.4414	0.151756	-364.728004	-364.7224	-364.721456	-364.757517	25.273	
C	-0.0124895252	 1.5360851999	 0.1309157068	-0.30325
C	 1.3040496854	 0.8105782654	 0.0167785238	-0.042111
C	-0.0075478825	 0.032020871	 0.02878982	-0.042111
C	-0.0629898245	-0.6077319765	-1.3484313667	 0.004939
C	-0.2047766362	 0.3004876778	-2.5709775933	-0.106093
C	 1.1275941618	 1.0913931891	-2.5831706822	-0.106096
C	 1.0385731755	-0.2853567199	-3.1609777725	-0.050162
N	 1.3897214251	-0.855695613	-1.7846463898	-0.180977
C	 1.8735263228	 0.5417835695	-1.3661651496	 0.004939
H	-0.2542784472	 1.9583870316	 1.100930885	 0.109211
H	-0.3658091342	 2.1182987139	-0.7122406138	 0.119884
H	 1.9718975889	 0.7959437944	 0.8702627884	 0.087499
H	-0.3029202613	-0.5543787212	 0.8910896151	 0.0875
H	-0.6485790623	-1.5270120171	-1.3993981044	 0.072215
H	-1.0902153979	 0.6779597728	-3.0678657666	 0.086911
H	 1.2134500182	 2.0454382021	-3.0889496634	 0.08691
H	 1.2865988829	-0.7179578413	-4.1187881967	 0.098575
H	 2.9601777607	 0.6151517815	-1.4324520701	 0.072216
