17
gdb 85787	2.46484	1.27412	1.14359	1.9432	75.41	-0.2438	-0.0349	0.2089	1157.2991	0.132104	-421.794621	-421.784857	-421.783913	-421.829236	35.226	
C	-0.5298873859	 1.6760280145	 0.1765054927	-0.444427
C	-0.0564630595	 0.231735285	-0.0021928214	-0.00889
C	 0.8876730235	-0.0946562199	-1.2215184071	-0.315867
C	 1.8241256429	-0.9390223057	-0.2812581436	 0.082445
O	 3.2094184512	-0.9209096449	-0.409732208	-0.43132
C	 1.185987583	-0.1594424578	 0.8654650274	 0.310039
O	 1.6434451233	 0.303590288	 1.8695618723	-0.304291
C	-1.1349071058	-0.7331216874	 0.133928185	 0.309814
C	-2.0223508614	-1.5362261004	 0.2531051063	-0.4674
H	 0.3135337331	 2.3673061024	 0.0938844893	 0.121922
H	-1.2727813512	 1.9336701034	-0.5831753362	 0.132465
H	-0.9835795703	 1.8061646717	 1.1620991884	 0.145068
H	 0.4349872701	-0.6286051282	-2.0555409988	 0.125156
H	 1.3927483506	 0.8084506239	-1.5726494861	 0.11737
H	 1.4799159783	-1.9794104032	-0.2848803938	 0.130712
H	 3.54748561	-0.2039440287	 0.1404567626	 0.295356
H	-2.8087267619	-2.2420177328	 0.3600645609	 0.201849
