16
gdb 128581	6.49631	0.89328	0.79317	1.0636	69.66	-0.2267	0.0232	0.2499	1408.9799	0.123261	-475.00256	-474.99377	-474.992825	-475.036616	30.725	
C	-0.0905841664	 1.3996688961	 0.0097776191	-0.250708
O	-0.0173445173	-0.0317130668	 0.0041801875	-0.266284
C	-1.162600948	-0.699018508	 0.0115672999	 0.585063
C	-1.38941865	-2.0418619355	 0.0097604376	-0.551066
C	-2.8087512622	-2.1014060724	 0.020856427	 0.527316
O	-3.5014180865	-3.242253143	 0.0232838462	-0.262186
C	-4.9248749558	-3.1077489054	 0.035022647	-0.241854
N	-3.3917974544	-0.9199700187	 0.0286382622	-0.2747
O	-2.3073537478	-0.004658043	 0.0225012865	-0.245264
H	 0.9436848708	 1.7424148561	 0.0025090875	 0.144063
H	-0.6163455905	 1.7663686774	-0.8761931494	 0.146985
H	-0.6017504885	 1.7601217855	 0.9067889256	 0.146966
H	-0.677974399	-2.8469517222	 0.0020044601	 0.12599
H	-5.3188293009	-4.1243924776	 0.0354684169	 0.132059
H	-5.2560936771	-2.569540745	 0.9283319919	 0.141809
H	-5.2703153765	-2.5648170775	-0.8500047455	 0.14181
