14
gdb 62544	2.53274	1.42203	1.1751	4.6057	62.8	-0.2856	-0.0257	0.2599	1058.2631	0.098397	-473.847936	-473.839038	-473.838094	-473.881796	31.088	
C	-0.1510052808	 1.5124289695	-0.0806599853	-0.458337
C	-0.034201566	 0.0001436717	 0.0292648169	 0.186739
O	-1.2706960763	-0.6439226477	 0.1659793542	-0.441161
C	 0.8637524432	-0.701275281	-1.039111991	-0.066487
O	 1.8246747146	-1.0737553842	 0.0001699526	-0.243379
C	 1.0596305269	-0.5090120124	 0.9973043361	 0.432847
O	 1.2728904984	-0.4920941528	 2.1629445967	-0.313967
C	 0.3064368471	-1.8602010396	-1.7218611194	 0.32802
N	-0.1224118218	-2.7622634924	-2.300907671	-0.310191
H	 0.821899714	 1.9820921539	-0.2538661205	 0.140084
H	-0.8266770116	 1.7714662953	-0.9003775994	 0.148992
H	-0.5578789516	 1.9193885443	 0.8504201533	 0.143674
H	-1.650743218	-0.3989177345	 1.0178002149	 0.305156
H	 1.3311751818	-0.0267101701	-1.7599200382	 0.148012
