12
gdb 8731	2.47689	1.91889	1.3277	1.4103	57.43	-0.2665	-0.1134	0.1532	907.8809	0.079562	-418.442739	-418.434313	-418.433369	-418.476176	28.765	
O	 0.0158515434	 1.4660192007	 0.1258485981	-0.405218
C	 0.0711354714	 0.0651102794	 0.1563191367	-0.109891
C	 0.4644430663	-0.5386391004	-1.1251749903	 0.311129
C	 0.8281444812	-1.0289379531	-2.1603002645	-0.457632
C	 1.1022686606	-0.4029407157	 1.1951926613	 0.278149
O	 1.9267685902	 0.3533557182	 1.6474959334	-0.286523
C	 1.0562395922	-1.859028347	 1.6624230648	 0.098036
O	 0.1361466081	-2.5903917528	 1.4141436313	-0.206457
H	 0.8780969907	 1.7789891544	 0.4381676905	 0.297537
H	-0.9132755788	-0.3229646758	 0.4464676516	 0.14764
H	 1.1256649082	-1.4588736462	-3.0852837725	 0.212482
H	 1.9270438666	-2.1479367017	 2.2855540395	 0.120747
