25
gdb 89148	2.23886	1.39279	1.15158	0.1491	92.58	-0.2524	0.0818	0.3342	1270.3264	0.228454	-352.346717	-352.336978	-352.336034	-352.38057	38.336	
C	 0.2221428287	 1.6630580336	-0.0490288239	-0.414899
C	 0.0778252078	 0.149887389	 0.0220615224	 0.055943
C	 0.9263204537	-0.7507354544	-0.926649291	-0.317167
C	 1.182817313	-1.7521938571	 0.2499495744	 0.373669
C	 0.5678762667	-3.1266750336	 0.0929342851	-0.498164
C	 2.5780060869	-1.6378326875	 0.9273169294	-0.000551
C	 3.8562469963	-1.5990766742	 0.1013221248	-0.416942
C	 2.0943570924	-0.3510580387	 1.6618944049	-0.267096
C	 0.626843496	-0.6498504455	 1.2295938637	-0.077462
H	 1.2654836577	 1.9785181048	 0.056621966	 0.112978
H	-0.1383297907	 2.0450428627	-1.0110081385	 0.111813
H	-0.3560359967	 2.1557273507	 0.7410732147	 0.111296
H	-0.9806769376	-0.1098600546	-0.0991155369	 0.068248
H	 0.3975860152	-1.1672710449	-1.7883629713	 0.092871
H	 1.8309200122	-0.2587732807	-1.295938517	 0.092597
H	 1.0967082923	-3.7122434224	-0.6701168299	 0.112935
H	 0.6078833108	-3.6915214853	 1.0314842632	 0.108915
H	-0.482574548	-3.0651007286	-0.2149270464	 0.110602
H	 2.6558203747	-2.4532175447	 1.6578853023	 0.063546
H	 3.8463847331	-0.7833179395	-0.6291794752	 0.112927
H	 4.7307526327	-1.4493525365	 0.7446649796	 0.112502
H	 4.0076042999	-2.5357943797	-0.4473852244	 0.111644
H	 2.2742330139	-0.3257889286	 2.7391723116	 0.095031
H	 2.5016917198	 0.5710287645	 1.2358572291	 0.093654
H	-0.0623653206	-0.879897499	 2.0455392333	 0.051112
