21
gdb 120956	4.42009	0.854	0.82965	2.8225	78.08	-0.2439	0.0804	0.3243	1455.7333	0.183791	-424.198707	-424.190221	-424.189276	-424.232304	32.522	
O	-0.0822304142	 1.4377346526	-0.0273145375	-0.419417
C	 0.0118516439	 0.023033897	 0.0511576136	-0.077858
C	-1.3994032119	-0.5439626065	-0.036069848	-0.192264
C	-1.4460107145	-2.0704569562	 0.0128309201	 0.021115
C	-1.0756744059	-2.7062506075	 1.3994653824	-0.239378
C	-2.4163137319	-3.4235340114	 1.6589881561	 0.08439
C	-2.7259681659	-4.125393278	 0.3189596396	-0.23647
C	-2.8859875875	-2.6381358449	-0.0601856302	 0.06353
O	-3.3877400405	-2.3918657123	 1.2924992705	-0.297766
H	 0.8037706438	 1.8028723453	 0.0506916303	 0.284228
H	 0.6254092977	-0.3808315131	-0.7720882638	 0.079104
H	 0.4893115825	-0.2914115829	 0.9932028444	 0.085693
H	-2.0027707093	-0.1361630348	 0.781973226	 0.120165
H	-1.8486570456	-0.1876782868	-0.9718542539	 0.098713
H	-0.8312085439	-2.4862383694	-0.794368089	 0.065898
H	-0.2236726345	-3.3902543958	 1.3582511536	 0.095865
H	-0.8802820476	-1.9515711682	 2.1654190172	 0.108553
H	-2.595541023	-3.8773548163	 2.6337057198	 0.077547
H	-1.9498696155	-4.7235384972	-0.1665949504	 0.090979
H	-3.6831197606	-4.6469036163	 0.3416443096	 0.110643
H	-3.5465818357	-2.2826211173	-0.8517997803	 0.07673
