15
gdb 42606	2.59251	2.097	1.46302	5.6657	70.26	-0.2565	-0.0243	0.2322	888.3721	0.114559	-416.794396	-416.78787	-416.786926	-416.825454	25.94	
N	-0.1257721472	 1.2580436694	 0.2023769958	-0.470463
C	 0.0007204364	 0.0247192647	-0.017293013	 0.332501
C	 1.2540094894	-0.8703200686	-0.0514023295	-0.344309
C	 0.6914671399	-2.2209181041	-0.4641408429	-0.056949
C	-0.6809892052	-2.0229839511	-0.9793751194	-0.03636
C	-0.5259489	-2.8299556597	 0.3030140015	-0.226508
C	-1.2353383417	-1.7163782732	 0.9940058343	 0.420438
O	-1.7440912074	-1.5150153786	 2.0481764574	-0.300577
N	-1.1506139857	-0.8370801832	-0.2085953226	-0.181218
H	 0.7861466195	 1.6894625517	 0.366068805	 0.22645
H	 1.9760866787	-0.5126596602	-0.7932483289	 0.133627
H	 1.750777018	-0.8689279896	 0.9245468275	 0.141225
H	 1.3389461981	-2.9689861127	-0.9080944322	 0.114923
H	-1.1293011149	-2.2963723752	-1.9232895191	 0.125505
H	-0.5959527978	-3.8949385596	 0.4830187762	 0.121716
