19
gdb 78661	2.59271	1.55377	1.19188	1.009	74.41	-0.2402	0.0714	0.3115	1083.8258	0.158422	-422.966342	-422.95797	-422.957026	-422.998619	33.373	
C	 0.0073415638	 1.6389590174	-0.0486994936	-0.434936
C	 0.0841834352	 0.1170177388	-0.0160423168	-0.038975
C	 1.1115868178	-0.6688910493	-0.8925819112	-0.126174
C	 1.2368035677	-1.7307549043	 0.2790376058	-0.167307
C	 2.2423005872	-0.7483882285	 0.8816964056	-0.190814
C	 2.5183419726	-0.1379549665	-0.4896596175	 0.153874
O	 3.5859492665	-0.7430358983	-1.1887933287	-0.446604
C	 0.7284777747	-0.6291652336	 1.155143115	 0.38117
O	 0.2109467493	-0.7953767481	 2.4237611649	-0.46647
H	 0.9672836013	 2.1096195391	 0.1832899909	 0.118636
H	-0.3117009665	 1.9966583815	-1.033752529	 0.119997
H	-0.7237259984	 2.0007052966	 0.6829051107	 0.116214
H	-0.9118408561	-0.3114593208	-0.1815465395	 0.078115
H	 0.9019538165	-0.8899649579	-1.9375386017	 0.073658
H	 1.1282468989	-2.8028382102	 0.3462804962	 0.099847
H	 2.9335214408	-0.9267055656	 1.6968786206	 0.088092
H	 2.7007659851	 0.9375394925	-0.5700409106	 0.076533
H	 3.5066691078	-1.6967836419	-1.0640344019	 0.277457
H	 0.4743805758	-0.0414527309	 2.962756371	 0.287684
