20
gdb 68421	2.56099	1.60533	1.23691	4.1098	82.58	-0.3004	0.0339	0.3343	1076.5583	0.172964	-366.032348	-366.024384	-366.02344	-366.064525	31.764	
C	-0.0255068067	 1.5219276068	 0.0553136185	-0.50778
C	 0.0398028571	 0.0132909768	 0.0527972355	 0.342197
C	 0.9553005065	-0.7961273353	-0.9180999921	-0.270752
C	 0.729970973	-1.9337050648	 0.114905238	-0.01591
C	 0.7118468615	-0.814756818	 1.1927385647	-0.266987
C	-0.7681236545	-2.2383810566	-0.0624902549	-0.23831
C	-1.3056273487	-0.7599096718	-0.1319488931	-0.174508
C	-2.2997932042	-0.4439589868	 0.8872484584	 0.27354
N	-3.0772369991	-0.184858022	 1.7035413027	-0.343043
H	 0.9695885716	 1.9557603243	 0.1941345101	 0.118728
H	-0.4275109037	 1.902633933	-0.8909220668	 0.118473
H	-0.6699592748	 1.8880286707	 0.8616552933	 0.141683
H	 0.6153465668	-0.949759608	-1.9477291844	 0.089723
H	 1.979744939	-0.4168930923	-0.9142990037	 0.102549
H	 1.3994536478	-2.7904438953	 0.1841042916	 0.068834
H	 1.7106414204	-0.4399795833	 1.4279638487	 0.10156
H	 0.145861072	-0.9828794306	 2.1134985377	 0.110815
H	-0.9880763078	-2.7886523085	-0.9807464664	 0.109177
H	-1.1920586697	-2.7903060303	 0.7792322627	 0.123502
H	-1.7454227864	-0.536446568	-1.1094239907	 0.116509
