15
gdb 21038	3.73046	1.85554	1.25554	0.5994	66.25	-0.1901	0.0173	0.2075	935.8559	0.120995	-392.164549	-392.156433	-392.155489	-392.197061	28.943	
C	 0.118436788	 1.3270114081	 0.015941866	-0.304894
N	-0.0264192943	-0.107713329	-0.0047243268	 0.137849
N	 0.1076004552	-0.8191114708	-1.1289253675	-0.307647
C	 0.0804333404	-2.0812116665	-0.7112218044	 0.273444
N	 0.2229588312	-3.191405139	-1.5483190258	-0.605601
C	-0.0538722377	-2.0860838903	 0.6953686171	 0.276614
N	-0.1990865461	-3.2009568279	 1.5250472778	-0.604451
N	-0.1087150046	-0.8273591483	 1.1194196631	-0.308988
H	 1.1674494553	 1.6255059918	 0.1313095207	 0.136317
H	-0.2653191148	 1.7262401439	-0.9237434778	 0.150497
H	-0.4586785657	 1.7200356044	 0.853838549	 0.150767
H	-0.4968039653	-3.886446826	-1.3824814633	 0.250308
H	 0.2100998844	-2.917301523	-2.5232455952	 0.252398
H	 0.5042766642	-3.9065320514	 1.3368222443	 0.2508
H	-0.1645803303	-2.9375281162	 2.5023037027	 0.252588
