20
gdb 59889	4.36018	0.79465	0.72283	2.8319	77.56	-0.2582	-0.0367	0.2216	1601.0921	0.169764	-440.283007	-440.273348	-440.272403	-440.318324	35.169	
C	-0.3307574048	 1.6188198299	-0.1393788013	-0.385632
C	 0.0652750152	 0.1554068312	 0.0093318366	 0.137758
O	-1.0709408178	-0.5470979828	 0.4776692885	-0.441466
C	 0.5701541403	-0.4367995454	-1.317500983	-0.320414
C	 0.9851560544	-1.8910824858	-1.2186010251	 0.386788
O	 0.6704652603	-2.6030938873	-0.2776954456	-0.3586
C	 1.8030224616	-2.4467313885	-2.3382668027	-0.098608
C	 3.0305561691	-3.2164523172	-1.9416646525	-0.217466
N	 1.8699298799	-3.9079730292	-2.4777512157	-0.300576
H	 0.5186864826	 2.2283035441	-0.4628475265	 0.107833
H	-1.1368223513	 1.7228124145	-0.8729813396	 0.121162
H	-0.6922336822	 2.003239499	 0.8177643926	 0.128135
H	 0.8868907027	 0.082544908	 0.7422267456	 0.068603
H	-0.7851407626	-1.4650501264	 0.5817045446	 0.2941
H	-0.2292880528	-0.3783581739	-2.0713519674	 0.140546
H	 1.4104829851	 0.143926523	-1.7199227691	 0.118585
H	 1.8125451321	-1.8817272088	-3.265490768	 0.103861
H	 3.8988858093	-3.1783670435	-2.5928823176	 0.130821
H	 3.2387476612	-3.2911821348	-0.8779588743	 0.134348
H	 1.3381586577	-4.3012995961	-1.7000116995	 0.250222
