15
gdb 11873	4.95914	1.57762	1.35218	3.4517	62.58	-0.2592	0.0226	0.2818	898.9659	0.119464	-399.795089	-399.788247	-399.787303	-399.826424	25.724	
N	-0.0407762002	 1.2153364645	-0.383216015	-0.536691
C	-0.0301323609	 0.0035099862	-0.037536061	 0.419243
C	-1.2484084005	-0.8822402827	 0.1259608277	-0.390797
C	-0.6522275981	-2.2735018116	 0.1974539329	 0.389414
C	-1.3870673135	-3.5228878201	 0.3818854354	-0.254421
O	-0.8718273132	-3.1562677579	-0.9036351753	-0.259979
C	 0.7885926745	-2.0580019354	 0.6342379176	-0.144525
O	 1.1032989768	-0.7116684342	 0.2541764173	-0.240706
H	 0.9090289607	 1.5903135792	-0.4095993666	 0.224371
H	-1.7674596076	-0.6182997949	 1.0540771365	 0.140429
H	-1.9475649665	-0.7659557504	-0.7022741491	 0.156945
H	-0.9006587241	-4.375885269	 0.8548442766	 0.119396
H	-2.4719318266	-3.5005514919	 0.4772897118	 0.12303
H	 0.9114064645	-2.1608302086	 1.7198136122	 0.117404
H	 1.4708569047	-2.7422526032	 0.1243752689	 0.136886
