17
gdb 3080	6.31557	1.34826	1.27793	2.0862	61.2	-0.2549	0.0864	0.3413	978.7322	0.147517	-346.822341	-346.814544	-346.8136	-346.855126	27.846	
O	 0.0353567274	 1.2775090415	-0.5650098328	-0.421942
C	-0.1414072794	 0.0743052165	 0.1561590236	-0.059194
C	-1.5932065585	-0.3763929602	 0.1314905779	-0.073153
O	-1.934127896	-0.5625378223	-1.2367145277	-0.26467
C	-3.2851227507	-0.8308222016	-1.451205385	 0.152563
C	-4.262581003	 0.314735994	-1.5200091578	-0.287244
C	-3.8436221229	-0.4267040308	-2.7754140893	-0.287404
H	-0.3895928659	 1.1309703996	-1.4183042892	 0.287351
H	 0.4923374855	-0.7328662794	-0.2447600873	 0.093292
H	 0.1691307232	 0.2646473388	 1.1886945885	 0.107764
H	-1.7234820121	-1.3129782945	 0.6967764189	 0.088242
H	-2.2380868955	 0.3929778793	 0.5800314227	 0.100434
H	-3.6270404327	-1.7669560514	-1.0083424607	 0.085914
H	-5.2659441426	 0.171454408	-1.1345662581	 0.115212
H	-3.8585166636	 1.3114181052	-1.3813929996	 0.122909
H	-3.1663375006	 0.0862903884	-3.4486754497	 0.122999
H	-4.5544137326	-1.0856141912	-3.2608306143	 0.116928
