20
gdb 57677	3.79696	0.83738	0.82721	2.7381	76.67	-0.2526	-0.0357	0.2169	1446.5939	0.167543	-440.323456	-440.312929	-440.311985	-440.359525	37.439	
C	 0.0840829811	 1.6461410867	 0.0703093062	-0.409113
C	 0.0495209065	 0.1067502528	 0.0804275492	 0.259555
C	 0.7768392486	-0.44570336	 1.3210413642	-0.415995
C	-1.414625542	-0.3967394476	 0.0112901193	-0.32543
C	-2.2996571386	 0.0664645161	 1.1501074023	 0.157436
O	-3.3310239459	 0.6685565411	 0.9981688833	-0.235938
N	 0.6991904275	-0.4178442051	-1.139399255	-0.302253
C	 1.9901232918	-0.2075317889	-1.505156356	 0.161776
O	 2.8182730621	 0.4230225799	-0.8791563381	-0.332208
H	 1.1171005763	 1.9951373419	 0.0410278529	 0.158953
H	-0.4452071693	 2.038931585	-0.8030681234	 0.117864
H	-0.397168453	 2.0477132026	 0.9676756271	 0.120408
H	 0.3487842542	-0.0387360219	 2.2414583869	 0.116709
H	 0.7074687192	-1.5374856689	 1.3591197115	 0.110265
H	 1.8302431062	-0.1658365566	 1.2801042249	 0.164037
H	-1.8852884404	-0.0685728187	-0.9213996358	 0.121613
H	-1.4083653277	-1.4967978587	 0.0311665326	 0.120469
H	-1.9462589084	-0.2074950603	 2.1683060597	 0.085851
H	 0.1287356278	-0.9441569391	-1.7825222407	 0.245841
H	 2.2184297239	-0.6961518002	-2.4746503811	 0.08016
