23
gdb 115588	2.45989	1.10747	1.00504	1.2058	82.47	-0.2423	0.0708	0.3131	1373.3618	0.203274	-425.411195	-425.400632	-425.399688	-425.44662	38.951	
C	 0.0029311637	 1.5694596956	 0.1407268906	-0.417965
C	-0.1166630425	 0.0576095106	-0.0815418169	-0.202589
C	 0.6721372218	-0.4508224725	-1.2939687713	 0.356915
O	 0.2557133132	 0.1699329997	-2.4961589127	-0.489576
C	 2.2162348522	-0.5483725992	-1.0540493012	-0.288535
C	 2.0439542641	-2.0594834306	-0.7395487714	-0.271884
C	 0.6554541294	-1.990334749	-1.4357492997	 0.132295
O	-0.443573018	-2.6361873639	-0.8557061431	-0.244048
C	-0.4422206855	-4.031425304	-1.0543806482	-0.236735
H	 1.0457350717	 1.8871397773	 0.2522482994	 0.117484
H	-0.4376485509	 2.1385158376	-0.6863123493	 0.11091
H	-0.5308623075	 1.8703324955	 1.0468311045	 0.120487
H	 0.2263790788	-0.4734876555	 0.8131083089	 0.099052
H	-1.1662764652	-0.2192672961	-0.219665384	 0.11727
H	 0.3395148656	 1.1231109434	-2.3901774734	 0.275585
H	 2.7567648393	-0.3781567973	-1.9879517187	 0.105947
H	 2.646442436	 0.0793999533	-0.2702971909	 0.095877
H	 2.7846809266	-2.748351279	-1.1493444605	 0.098187
H	 1.9339563294	-2.24852275	 0.3316809018	 0.108298
H	 0.7403970993	-2.2471896882	-2.5025201644	 0.07509
H	-0.4486112397	-4.2878135546	-2.1254726128	 0.105962
H	 0.4314605086	-4.5140133768	-0.590773836	 0.106459
H	-1.3488453204	-4.4278961465	-0.5907519806	 0.125515
