18
gdb 89281	2.2088	1.80534	1.17661	5.027	72.55	-0.2377	0.0293	0.267	1072.1174	0.146823	-439.091872	-439.083295	-439.082351	-439.124867	32.849	
C	-0.0242225284	 1.5596163139	 0.0061739629	-0.474726
C	 0.0222731292	 0.0503322827	 0.0461042042	 0.372043
C	-1.3008462666	-0.7547595549	 0.2323948532	-0.323527
C	-0.6378981815	-1.5503234091	 1.4032895053	 0.134076
O	-0.5200724064	-2.9451587917	 1.2850964151	-0.414217
C	 0.7031114804	-0.802071584	 1.1818309985	-0.290872
C	 1.5586442778	-1.4125875092	 0.0498471961	 0.452003
O	 2.4061606673	-2.2554652921	-0.0411681802	-0.358126
N	 0.9615722569	-0.5866524759	-0.8883951749	-0.368676
H	 0.9842912061	 1.9808544035	 0.0521968414	 0.129651
H	-0.4971301147	 1.9114715662	-0.9185530006	 0.121219
H	-0.6069871577	 1.953798286	 0.8445873779	 0.12152
H	-2.15886523	-0.151150989	 0.5392259686	 0.101417
H	-1.5774454917	-1.3661063434	-0.6295919287	 0.10166
H	-1.0788950411	-1.2672640484	 2.3688431754	 0.076721
H	-1.3884470442	-3.3371321777	 1.4227319447	 0.286652
H	 1.2212301989	-0.3895111411	 2.0455204958	 0.093652
H	 0.8812870555	-0.7260081358	-1.8876998545	 0.239528
