14
gdb 11327	4.81083	1.48592	1.15179	2.7007	61.44	-0.2632	-0.0087	0.2545	980.7763	0.107909	-415.917498	-415.909976	-415.909031	-415.950043	26.177	
C	 0.0544567273	 1.4159178756	 0.0087268563	-0.344827
N	 0.0425671292	-0.0403716184	 0.0043890071	-0.309821
C	-1.0772536482	-0.6223478614	 0.0108510571	 0.39754
C	-1.2807848895	-2.1263974568	 0.0079731999	-0.168394
O	-2.7026080866	-2.3149229608	 0.0179843945	-0.236838
C	-3.341032191	-1.1145448251	 0.0258183506	 0.503294
O	-4.5273566244	-0.9738794638	 0.0359390435	-0.374358
N	-2.3701749604	-0.1172356651	 0.0220582785	-0.429928
H	 1.087734402	 1.7692797266	 0.0015649926	 0.136851
H	-0.4481072467	 1.8368891801	-0.8749371531	 0.118007
H	-0.433898366	 1.8313860478	 0.9028929088	 0.118046
H	-0.8583747792	-2.5908551335	-0.8872906667	 0.154388
H	-0.8451270669	-2.5960025747	 0.8941598082	 0.154414
H	-2.6305941395	 0.8540770795	 0.0273663426	 0.281627
