19
gdb 97507	3.91732	0.67004	0.60332	3.4519	89.97	-0.2515	-0.0449	0.2066	1899.2668	0.157405	-385.876395	-385.866375	-385.86543	-385.913996	34.791	
C	-0.0562583587	 1.5716767188	 0.0179285858	-0.368915
C	 0.0183449757	 0.035553792	-0.0422252041	-0.324031
C	 0.7118786618	-0.4692565361	-1.2190012459	 0.156845
C	 1.287395364	-0.8866523756	-2.1955866383	-0.037662
C	 1.977518778	-1.3858226037	-3.3667130953	 0.223537
O	 2.1247383276	-2.5786249306	-3.5673395021	-0.329341
C	 2.4931661025	-0.3489247771	-4.3056149352	-0.105577
C	 3.7876217995	-0.6663088308	-5.0426130887	-0.248544
C	 2.4990585886	-0.7000568683	-5.7875676143	-0.248544
H	 0.9453170036	 2.0094278521	 0.0340461284	 0.13202
H	-0.5861023374	 1.9697296835	-0.8514725295	 0.132018
H	-0.5862280209	 1.8896416455	 0.9202063722	 0.121227
H	 0.5206708766	-0.3501988803	 0.8543514156	 0.143426
H	-0.9935443159	-0.3894470373	-0.021226448	 0.143426
H	 2.3062292148	 0.6814258581	-4.0289469854	 0.094245
H	 4.4726359862	 0.1569136597	-5.2089561534	 0.117481
H	 4.244051422	-1.6169106749	-4.7920666707	 0.140454
H	 2.0919421411	-1.6732740052	-6.036262573	 0.140454
H	 2.2695466007	 0.0992141903	-6.4826210282	 0.117481
