15
gdb 131236	4.69562	0.85969	0.7819	2.3076	69.39	-0.2203	-0.0383	0.182	1394.6152	0.111958	-453.957069	-453.948583	-453.947639	-453.991803	29.779	
O	 0.4261596458	 1.3382347063	-0.2852425281	-0.440038
C	 0.1744553101	 0.0145865169	-0.1026229762	 0.225391
C	 0.1709155834	-0.9362647291	-1.1030741539	-0.122058
N	-0.1459109317	-2.1180012022	-0.4965596057	 0.055064
C	-0.1720595651	-3.4286553497	-1.0961214268	-0.244931
C	 1.2093349296	-4.0820349308	-1.1460401481	 0.148262
O	 1.4957506077	-4.956025631	-1.9177370875	-0.2236
N	-0.3260054692	-1.9896354511	 0.8275638085	-0.259115
C	-0.1393341225	-0.69255204	 1.0773501568	-0.114601
H	 0.3685298655	 1.7847190188	 0.5646570269	 0.302782
H	 0.3491648527	-0.8576569278	-2.16256026	 0.140111
H	-0.8227370253	-4.058139478	-0.4802409147	 0.166975
H	-0.5894150908	-3.3856169176	-2.1055235548	 0.149769
H	 1.9250832259	-3.6886536639	-0.3910518807	 0.106009
H	-0.2447502161	-0.3128511307	 2.0837381244	 0.109981
