18
gdb 7107	4.81794	0.83891	0.7728	2.6221	70.45	-0.2488	-0.0379	0.2109	1490.832	0.150235	-384.975609	-384.966051	-384.965107	-385.011701	32.339	
C	-0.1565095907	 1.5762642541	-0.1834768738	-0.387984
C	 0.1434312057	 0.0958235093	 0.0629143085	-0.161762
C	 0.6939277504	-0.607500763	-1.1768840659	-0.289015
C	 0.99726553	-2.0793919701	-0.9737795763	 0.359941
O	 0.8113100224	-2.6566285649	 0.0728544126	-0.303741
C	 1.5385358161	-2.8421000582	-2.1877885082	-0.372964
C	 0.65115207	-4.037625682	-2.5052962166	 0.162765
O	 0.2688209338	-4.314734217	-3.6105836552	-0.231841
H	 0.7446794141	 2.1227725767	-0.4835784925	 0.114352
H	-0.9006456888	 1.7066470469	-0.9771810257	 0.115837
H	-0.5480253638	 2.0534167846	 0.7198208962	 0.119043
H	 0.8617271691	-0.0136798554	 0.8825366137	 0.114145
H	-0.7622124004	-0.4241116126	 0.3929036651	 0.115744
H	-0.0047266991	-0.5294340894	-2.0239490663	 0.129105
H	 1.6153371082	-0.1235181513	-1.5344065683	 0.125123
H	 1.6538636332	-2.2226946821	-3.0791489179	 0.126433
H	 2.5197642643	-3.2407572058	-1.8971732253	 0.156176
H	 0.3782413454	-4.6400912795	-1.6143499941	 0.108642
