14
gdb 48374	2.61071	1.25929	0.99232	2.9218	77.62	-0.251	-0.0384	0.2125	1178.5454	0.097066	-399.452291	-399.443317	-399.442373	-399.486127	32.578	
O	-0.3445386163	 0.3966207008	 0.7567312641	-0.242524
C	 0.2801904606	 0.8198980907	-0.1765417998	 0.144556
C	 1.3703709746	 1.856599682	-0.066146255	-0.008894
N	 2.3391111397	 1.7879641673	-1.1885979726	-0.340592
C	 1.4332009598	 2.9336609378	-1.1518863099	-0.294042
C	 0.4401282436	 3.0578392014	-2.1826310447	 0.370041
C	-0.3957265882	 3.2037600533	-3.0335739425	-0.401459
C	 1.8229124152	 2.2155900165	 1.2470070824	 0.262511
C	 2.2315588403	 2.508690695	 2.3385482327	-0.407246
H	 0.1176518461	 0.4821106159	-1.2193972701	 0.105953
H	 3.2600387392	 2.0565419557	-0.8494380016	 0.257265
H	 1.8291238163	 3.877714649	-0.7844595058	 0.137524
H	-1.1342784254	 3.3234400963	-3.7877571142	 0.209996
H	 2.5771833346	 2.7613097684	 3.3107612169	 0.206912
