15
gdb 28374	3.21234	1.43496	0.99858	4.2729	77.07	-0.2115	-0.055	0.1565	1128.5859	0.112301	-454.006724	-453.998514	-453.99757	-454.039369	30.768	
C	-0.0488527885	 1.514145227	 0.0031880416	-0.462221
C	-0.0033795573	 0.0154492184	-0.0438243993	 0.159129
N	-0.0394668861	-0.6208958028	-1.1777614833	-0.261584
C	 0.0036286883	-1.981011234	-1.2067704433	-0.168276
C	 0.0908713224	-2.7066999535	-0.0527799614	 0.422924
N	 0.2086324804	-4.0642429616	 0.0629671388	-0.560749
O	 0.1203538055	-2.0879244992	 1.1366268811	-0.232811
C	 0.0770831546	-0.6805485933	 1.2394699657	 0.365392
O	 0.1046907837	-0.2049873904	 2.3409916393	-0.32535
H	 0.842275783	 1.9186447678	 0.4959775247	 0.139836
H	-0.1133028858	 1.9073981093	-1.0121862593	 0.134322
H	-0.9084324698	 1.8629327456	 0.5862489927	 0.139369
H	-0.0263823865	-2.4687442393	-2.1731411945	 0.104554
H	-0.0776543333	-4.612678596	-0.7322295029	 0.272096
H	-0.0423842905	-4.4492017379	 0.9612860899	 0.273371
