20
gdb 112527	3.8177	0.9673	0.86232	4.7264	80.23	-0.2631	0.0298	0.2929	1376.8767	0.170019	-403.14855	-403.138903	-403.137959	-403.183276	34.832	
C	 0.171790526	 1.0830826839	-0.363116419	-0.247801
O	-0.4145522688	 0.120473019	 0.4890449963	-0.234442
C	 0.4962703874	-0.5154215309	 1.3369116576	 0.15632
C	-0.1627305427	-1.3937367248	 2.4148214597	-0.280099
C	 0.9794378739	-2.4350802444	 2.2014285372	-0.153701
C	 0.6400768025	-3.8460057878	 2.2334325424	 0.279443
N	 0.3636526078	-4.9691194345	 2.2429914676	-0.335647
C	 1.2873011113	-1.7657745391	 0.8100471178	-0.062792
C	 0.6493662057	-2.4581191554	-0.388607742	-0.396112
H	 0.9053832034	 0.6375800637	-1.0502147935	 0.11186
H	-0.6346765198	 1.5272931196	-0.9506391038	 0.133905
H	 0.6735528231	 1.8761812444	 0.2120192915	 0.109946
H	 1.1860225866	 0.2189352105	 1.7810202936	 0.069166
H	-0.284069811	-0.9817278254	 3.4173241404	 0.117509
H	-1.1219252752	-1.7751622532	 2.0603713827	 0.138963
H	 1.8012624687	-2.2591287197	 2.9009526639	 0.12293
H	 2.3537694033	-1.6058089637	 0.6316083051	 0.080328
H	-0.4269806865	-2.5963071389	-0.2567606456	 0.135232
H	 0.7957106313	-1.865367101	-1.296051704	 0.120087
H	 1.0989236228	-3.4423976922	-0.5485997577	 0.134906
