15
gdb 80234	2.28821	1.80022	1.35292	3.0638	65.59	-0.245	-0.0418	0.2032	958.5561	0.112396	-457.775846	-457.768437	-457.767492	-457.807669	28.639	
O	-0.0577331967	 1.4769309501	 0.0510491535	-0.427909
C	 0.0132248648	 0.0809200318	 0.0013211287	 0.128314
C	-1.3688203698	-0.6320862527	-0.1210009824	-0.188964
C	-1.9658645616	 0.0709892385	-1.3672573453	-0.335269
C	-0.7086088338	 0.0713803388	-2.2622439478	 0.442063
O	-0.5837359778	 0.4965502426	-3.3754446199	-0.323205
C	 0.3399283999	-0.6194491517	-1.3834059519	-0.316491
C	-0.5490560721	-1.7457225953	-0.7892096819	 0.422912
O	-0.510635544	-2.9366978923	-0.7696683598	-0.303803
H	 0.827422306	 1.8391682794	-0.0586247054	 0.29934
H	 0.6250862904	-0.3361299638	 0.8091277155	 0.10311
H	-2.0126523242	-0.8057799808	 0.7374953142	 0.102329
H	-2.7857039423	-0.4790238481	-1.8364668451	 0.140264
H	-2.293723249	 1.0903017943	-1.1540533645	 0.154904
H	 1.33775971	-0.7700719908	-1.7843539478	 0.102406
