16
gdb 64619	2.94136	1.46681	1.38189	4.8354	72.75	-0.2684	-0.027	0.2414	994.5398	0.12517	-396.920433	-396.912706	-396.911762	-396.952466	29.381	
C	-0.0943771698	 1.5938101436	-0.0174884467	-0.415086
C	 0.0402001923	 0.0624428526	 0.0211776586	 0.094222
N	 0.8458999803	-0.4197922863	-1.1353781856	-0.215465
C	 1.7642100441	-1.165748167	-0.6665772873	 0.035544
N	 1.8254352334	-1.4158525617	 0.7352219191	-0.114275
C	 2.1996140144	-0.1646380214	 1.4566340895	-0.261722
C	 0.7745066388	-0.5126027439	 1.2530878251	-0.05374
C	-1.3037324046	-0.5420392509	-0.0618505809	 0.293573
N	-2.3611459265	-1.0057600508	-0.0972793193	-0.334655
H	 0.8945166061	 2.0536141584	 0.0372280785	 0.12728
H	-0.5707857397	 1.9010850371	-0.9504543561	 0.154909
H	-0.6986572539	 1.9471581758	 0.8218795547	 0.138698
H	 2.5092469349	-1.6414542341	-1.297485395	 0.142832
H	 2.6522053748	-0.3245331855	 2.4297107444	 0.139925
H	 2.6383824747	 0.6324965626	 0.8640516373	 0.137385
H	 0.1838219108	-0.8861160786	 2.0813570937	 0.130577
