16
gdb 44924	3.00438	1.48401	1.47199	2.6913	68.2	-0.2396	-0.0282	0.2114	950.3033	0.127113	-437.949976	-437.943194	-437.94225	-437.981159	27.241	
O	 0.0296595422	 0.0184848006	 0.0918556206	-0.318454
C	 0.0022724946	 1.2169378554	 0.037035347	 0.43247
C	-1.237267268	 2.1383301619	 0.0546627295	-0.339752
C	-0.5940372355	 3.5531207427	 0.0201897246	-0.146504
C	 0.6187281435	 3.3155709118	-0.9107475268	-0.239995
C	 1.2021767141	 2.1920812893	-0.036403589	-0.115607
N	 1.2244464235	 2.8763559705	 1.2673751736	-0.300624
C	 0.0961254196	 3.6768985249	 1.3892258271	 0.413135
O	-0.2716703295	 4.2598606823	 2.3792312089	-0.372508
H	-1.8362631991	 1.9445371911	-0.8414924305	 0.136906
H	-1.8693167546	 1.9539277012	 0.9266638345	 0.149207
H	-1.2689454838	 4.3740913929	-0.2084468571	 0.098671
H	 0.3371706181	 2.9768784822	-1.9117695938	 0.116437
H	 1.2909369114	 4.1733429719	-0.9825035064	 0.125178
H	 2.1571422923	 1.7473688245	-0.3074111101	 0.099715
H	 1.6325866613	 2.4555462669	 2.089577588	 0.261726
