17
gdb 48955	3.17335	1.62864	1.39688	3.5495	72.17	-0.2439	-0.0326	0.2112	953.0287	0.137122	-421.789995	-421.78318	-421.782236	-421.821378	27.166	
O	-0.0837021985	-0.0113962654	-0.2544983538	-0.247981
C	-0.0230264622	 1.1671309717	-0.0002838296	 0.041308
C	 1.2310406017	 1.9614911789	 0.0323007936	 0.225457
C	 1.5015753075	 3.1493627119	 0.9786457834	-0.308579
C	 2.6238132332	 3.5117203157	-0.0252655761	-0.093644
C	 3.6011892457	 2.3278853518	 0.1593334538	-0.214219
C	 2.6005418166	 1.2924061502	-0.3835353227	 0.026468
O	 2.4375638866	 1.7634750836	-1.7615040576	-0.284549
C	 1.7286755641	 2.8392647986	-1.1710934299	 0.07336
H	-0.9447719038	 1.7534441765	 0.223070918	 0.069372
H	 0.6644108737	 3.8536577699	 0.9567407365	 0.108078
H	 1.787905392	 2.946845105	 2.0144036025	 0.107149
H	 3.0240216541	 4.520186905	-0.1057710507	 0.077662
H	 4.4903518763	 2.3681087933	-0.4722033466	 0.115066
H	 3.8914493917	 2.1822963306	 1.2030793957	 0.102735
H	 2.7746429659	 0.2225726202	-0.3046847004	 0.104621
H	 1.1096732054	 3.4399344723	-1.836058506	 0.097695
