15
gdb 11869	5.12685	1.60813	1.35629	4.5764	70.16	-0.2322	-0.0272	0.2051	895.4435	0.119792	-362.695793	-362.688831	-362.687887	-362.727337	26.548	
O	-0.0355775483	-0.0466451263	 0.0031499637	-0.388486
C	 0.0050710077	 1.1661262943	 0.0094199731	 0.382351
N	-1.0835472401	 2.0208384995	 0.0289762194	-0.404137
C	-0.7013838058	 3.3959595707	 0.0313989849	 0.368684
C	-1.49524411	 4.4589693803	-0.7049495029	-0.313832
C	-1.4748729783	 4.4506473733	 0.8006643762	-0.313824
C	 0.7773730155	 3.3453434323	 0.0111311361	-0.119341
C	 1.1907635834	 2.0732401723	-0.001524788	-0.216325
H	-2.0302024728	 1.6820980531	 0.0396410295	 0.251586
H	-0.9443854125	 5.2304269244	-1.231555299	 0.12886
H	-2.3997079903	 4.1319840967	-1.2061900046	 0.127502
H	-2.3654900279	 4.118000872	 1.322547433	 0.127506
H	-0.9098484708	 5.216320541	 1.3206618598	 0.128858
H	 1.3840169108	 4.2418248773	 0.0079344835	 0.118779
H	 2.2029450294	 1.696699229	-0.0172902948	 0.121819
