19
gdb 106452	2.81286	1.29871	1.09565	2.8612	76.83	-0.2436	-0.0254	0.2183	1172.3991	0.158043	-422.973288	-422.964635	-422.963691	-423.007131	31.971	
C	 0.6666314751	 1.6327924195	-0.3820587552	-0.266107
O	 0.4752196233	 0.2345792437	-0.2483910197	-0.290295
C	 0.8741192283	-0.4935169933	-1.3420384917	 0.426913
C	 0.2989327116	-0.4822213299	-2.7968159762	-0.29515
C	 1.3683710847	-1.6128437058	-2.7498801854	-0.06328
C	 2.2964044888	-0.627171665	-1.9769813259	-0.299071
C	 0.7469277864	-2.0552306805	-1.3928709306	-0.119304
C	 1.5097603489	-2.8960823617	-0.4092619708	 0.116691
O	 2.6298610478	-3.3192856628	-0.5624973404	-0.249937
H	 1.7260691248	 1.8818686768	-0.5301087409	 0.11947
H	 0.0875477196	 2.0407845528	-1.2218334736	 0.116581
H	 0.3187191114	 2.0900539562	 0.5460311457	 0.133782
H	-0.7438042227	-0.7875703924	-2.9154389323	 0.096205
H	 0.5464502948	 0.3830486817	-3.4166186395	 0.095267
H	 1.6581667953	-2.2709644253	-3.5638268635	 0.094313
H	 2.6492998695	 0.2341877685	-2.5495198058	 0.091558
H	 3.0845951272	-1.0676271596	-1.3696962525	 0.12872
H	-0.2956556527	-2.3944674815	-1.4281182955	 0.082343
H	 0.9396543581	-3.1257633213	 0.5203401337	 0.081303
