14
gdb 9593	4.83863	1.35865	1.22991	3.056	66.71	-0.2614	-0.0539	0.2075	972.5311	0.103085	-382.489614	-382.481353	-382.480408	-382.522127	29.528	
C	 0.1429872678	 1.4823979548	-0.0303058292	-0.484304
C	 0.0281121937	-0.0226526624	 0.0714935806	 0.184466
O	 1.2365956396	-0.7586921544	-0.1261209057	-0.245379
C	 0.6853715311	-0.8023421791	 1.1797456768	-0.085398
C	 1.4202772023	-0.1206862661	 2.2921840569	 0.139802
O	 2.2935747712	 0.6962664191	 2.1490410274	-0.245807
C	-1.1575244492	-0.6048980868	-0.5157639925	 0.294283
C	-2.1564412596	-1.0575391244	-1.0073074738	-0.412101
H	 1.0642224706	 1.8230738546	 0.4421282742	 0.168051
H	 0.1544605224	 1.7707350887	-1.0853243019	 0.143105
H	-0.7179393486	 1.9635014492	 0.4426661736	 0.133535
H	 0.2175377949	-1.7478149503	 1.4566166108	 0.115404
H	 1.0734227866	-0.4334912213	 3.3023017371	 0.087863
H	-3.0341745828	-1.4654973617	-1.4453511242	 0.20648
