22
gdb 103197	2.86192	1.48551	1.31635	1.5221	84.65	-0.2329	0.0872	0.3201	1102.2924	0.194432	-367.152551	-367.144056	-367.143112	-367.185351	33.975	
C	 0.0523997811	 1.5273213468	 0.0625265531	-0.387532
C	 0.0134290617	-0.0034612771	-0.0461109179	-0.244416
C	-1.3994227467	-0.5932913599	-0.0136393381	 0.364802
C	-2.272381923	-0.0413041662	-1.1407919851	-0.438735
C	-1.6003154371	-2.1283661757	 0.147819399	-0.122527
C	-0.7866681593	-2.5058489105	 1.4110523892	-0.266326
C	-1.7421481788	-1.5760246491	 2.160623091	-0.043991
C	-2.781147424	-1.7264511758	 1.1169222267	-0.053262
N	-2.1379851363	-0.4012318764	 1.2960028687	-0.164744
H	 1.0836391957	 1.8777548206	 0.1679668615	 0.107656
H	-0.3715345914	 2.0153139768	-0.8196353819	 0.115329
H	-0.5122434078	 1.8641009369	 0.9370983755	 0.136896
H	 0.5060339005	-0.3277904352	-0.9729062556	 0.091323
H	 0.601446114	-0.4175693869	 0.7770369179	 0.098905
H	-1.7856731581	-0.1949009045	-2.1099830066	 0.108899
H	-3.2449041461	-0.5410731432	-1.1673115913	 0.113608
H	-2.4532156027	 1.028818601	-1.0127559894	 0.127197
H	-1.6390347084	-2.7925141795	-0.7149635191	 0.065972
H	-0.9793010334	-3.542610477	 1.7012810999	 0.103787
H	 0.29111333	-2.3230216149	 1.4239026077	 0.096895
H	-1.8586599616	-1.4354661397	 3.2271229428	 0.095793
H	-3.8471078384	-1.9083483906	 1.1488757819	 0.094473
