12
gdb 23667	3.75976	1.76268	1.20006	1.2548	59.14	-0.2475	-0.0136	0.2339	874.174	0.084066	-430.657847	-430.651945	-430.651	-430.687955	23.027	
F	 0.009796775	 0.0239258973	 0.0034992956	-0.080621
C	-0.0149122856	 1.35929702	 0.0105657302	 0.342368
C	-1.2393494811	 2.0137795128	 0.03052821	-0.257646
C	-1.2462240514	 3.406384645	 0.0376490186	-0.071148
C	-0.0570162781	 4.1310061941	 0.0251308307	-0.257647
C	 1.1424436576	 3.4317968123	 0.0052923379	 0.342369
F	 2.2922805822	 4.1112104973	-0.0069248039	-0.080621
C	 1.1922610081	 2.0445467368	-0.0023909984	-0.406761
H	-2.1547960382	 1.4356177258	 0.0400637824	 0.114549
H	-2.1928140078	 3.9350324253	 0.0531922907	 0.114434
H	-0.044981346	 5.2137024799	 0.030430715	 0.114549
H	 2.1369991352	 1.5169349335	-0.0179034589	 0.126176
