16
gdb 49242	3.67874	1.2872	1.03383	3.9388	71.73	-0.2582	-0.0619	0.1963	1125.7682	0.124956	-437.886739	-437.879187	-437.878243	-437.919258	28.176	
O	-0.8806050169	 1.3395376444	-0.0629718791	-0.244849
C	 0.2383183428	 1.0742538662	-0.4122997944	 0.125612
C	 1.4654973747	 1.8397395195	-0.0019480416	 0.290157
N	 2.5789921843	 1.4384745963	-0.463768786	-0.296144
C	 3.814235497	 2.1038936584	-0.0805408463	-0.186638
C	 3.6547771244	 3.3562936512	 0.7642669577	-0.07779
C	 2.9350743945	 4.5632083803	 0.194056839	-0.315395
C	 2.2674140334	 3.6917884261	 1.2193640893	 0.104031
O	 1.190612974	 2.8728151257	 0.8195632859	-0.236276
H	 0.4918448126	 0.2279777106	-1.0804390064	 0.105139
H	 4.4105170697	 1.3684937434	 0.4749966159	 0.130503
H	 4.3803281057	 2.3103544768	-0.9983555338	 0.123534
H	 4.4596052662	 3.5474121511	 1.4667349676	 0.101264
H	 3.2535926728	 5.5554212637	 0.4926927596	 0.125682
H	 2.5667804833	 4.4907067476	-0.8246223855	 0.133316
H	 2.0827099615	 4.0695053189	 2.217196008	 0.117856
