12
gdb 43039	2.95094	1.67583	1.22792	4.6933	64.52	-0.2603	-0.0392	0.221	940.7216	0.07716	-435.4344	-435.427684	-435.42674	-435.46575	25.247	
O	-0.0882833945	 0.0443477461	 0.0132969284	-0.294579
C	-0.0593581972	 1.2318685362	 0.0804617764	 0.428065
C	-1.1050188095	 2.369346932	-0.0555779169	-0.08417
O	-0.9119690993	 3.1343365051	 1.1682809856	-0.274419
C	 0.3392206869	 3.5354325281	 0.6326948808	 0.071018
C	 0.0297785995	 3.1954089262	-0.7639098616	-0.169469
C	 1.0371111584	 2.2767091845	 0.0392674589	 0.02774
C	 2.4389424188	 2.1493726106	-0.119374538	 0.184941
N	 3.5851808177	 2.0472159438	-0.245328823	-0.33628
H	-2.1376559255	 2.2180601967	-0.3532008964	 0.130519
H	 0.9047234435	 4.3306746482	 1.0997871011	 0.157744
H	 0.1746080113	 3.6353901526	-1.7387877353	 0.158889
