17
gdb 15582	3.17334	1.82429	1.27822	3.0149	67.62	-0.2738	0.0279	0.3017	947.9999	0.143527	-363.884577	-363.876758	-363.875814	-363.918343	28.271	
C	-0.157097372	 1.5788285451	-0.0520115673	-0.410178
C	 0.0448333739	 0.064887516	-0.0229989988	-0.011456
C	 0.9436549377	-0.4558006477	-1.170284866	-0.087928
O	 1.6402861095	-1.5792603089	-0.6572429131	-0.234106
C	 2.022389216	-1.2226120353	 0.651691318	-0.098411
C	 0.7699802904	-0.5160845197	 1.2495840232	-0.171417
C	 1.1126083226	 0.4627756339	 2.2725906843	 0.27157
N	 1.3984121593	 1.2339646707	 3.0852669553	-0.333259
H	 0.7941336796	 2.1116624418	 0.0441196554	 0.135082
H	-0.617618627	 1.8788888307	-0.99900662	 0.119706
H	-0.8087068998	 1.914737428	 0.7589322754	 0.136685
H	-0.9308299714	-0.424320421	-0.0889162458	 0.096294
H	 0.3816551918	-0.7788411169	-2.0494444442	 0.118622
H	 1.6532406308	 0.3305144068	-1.477564913	 0.095927
H	 2.3051614269	-2.1270169612	 1.1932840797	 0.128205
H	 2.8767929567	-0.5282693126	 0.6458965985	 0.111721
H	 0.1263839948	-1.2675638798	 1.7151645285	 0.132943
