15
gdb 19181	3.00306	2.5283	1.88261	1.5782	66.72	-0.2384	-0.0001	0.2383	755.6838	0.118855	-362.623257	-362.616507	-362.615563	-362.653952	26.067	
C	 0.0220861291	 1.4814740752	-0.1742003978	-0.343766
N	 0.0200784771	 0.0268185254	 0.0043707356	-0.066363
C	-1.1423666096	-0.5231032295	 0.790937465	-0.16585
C	-0.7699332077	-1.9821507222	 0.8652693999	-0.074923
C	 0.5555794347	-1.9561925135	 1.0916311799	-0.074923
C	 0.8757898224	-0.4835800946	 1.1355779859	-0.16585
C	-0.3314314744	-0.0015832942	 2.0660099519	 0.398203
O	-0.5094593952	 0.6580912413	 3.0328491264	-0.30151
H	 0.9859095172	 1.7771335874	-0.5984847923	 0.129546
H	-0.7569067956	 1.7430036432	-0.8961142434	 0.129546
H	-0.1464816141	 2.0639136356	 0.7460859137	 0.122907
H	-2.1486382132	-0.2047775421	 0.5277723214	 0.08954
H	-1.4526911598	-2.8173570746	 0.8243048398	 0.116952
H	 1.2445128102	-2.7645355666	 1.2849148656	 0.116952
H	 1.899499309	-0.1255048807	 1.2190697083	 0.08954
