13
gdb 131241	5.56415	1.32396	1.06948	0.8174	66.04	-0.2007	0.0061	0.2068	1012.9565	0.092863	-448.953136	-448.946566	-448.945622	-448.983838	25.728	
O	 0.0898367027	 1.3206313237	-0.0202376085	-0.428505
C	 0.0661067213	-0.0236294871	-0.0665536745	 0.35481
C	 0.0206384956	-0.7871603845	-1.2130450275	-0.271894
N	 0.0134225574	-2.0975671961	-0.7227231236	-0.019851
C	-0.0197940521	-3.4362113431	-1.0205508034	 0.014095
N	-0.0019074503	-4.1689145956	 0.0650468868	-0.212249
N	 0.0438614626	-3.2740296381	 1.1004198823	-0.360456
C	 0.0537984353	-1.9945997088	 0.6480195001	 0.522505
N	 0.0872083932	-0.7583567525	 1.0989396569	-0.488764
H	 0.1214908362	 1.5597009367	 0.9141580247	 0.30464
H	-0.0038015569	-0.5392192758	-2.2568805076	 0.136737
H	-0.0551097811	-3.8400698808	-2.0179291924	 0.159556
H	 0.0638846061	-3.6032887481	 2.0482864765	 0.289376
