15
gdb 60998	3.42182	1.09586	0.93014	2.8682	69.16	-0.2605	-0.046	0.2146	1222.8968	0.108494	-457.697873	-457.688847	-457.687903	-457.732327	32.213	
O	-0.5080992685	 1.1582409762	-0.1405112066	-0.410837
C	-0.055246674	-0.154964972	-0.121491013	-0.004068
C	 1.0287080684	-0.3580919096	-1.1753883361	 0.143376
O	 1.4234922663	 0.5574253722	-1.8516824755	-0.24758
C	 0.5052627423	-0.6058228176	 1.2258534934	 0.039818
O	 1.4143853165	 0.2642061322	 1.8777360146	-0.237904
C	 0.1588473003	-0.0100150279	 2.5338604858	-0.15573
C	-0.768474032	 1.0648582425	 2.7503224386	 0.353933
C	-1.5562735173	 1.9179598306	 3.0583241499	-0.41544
H	 0.1107069078	 1.6444797623	-0.7082608252	 0.300739
H	-0.8769744937	-0.8513947649	-0.369823315	 0.108533
H	 1.437595225	-1.3837074304	-1.2776661704	 0.10314
H	 0.7928425091	-1.6619001688	 1.2374938169	 0.09837
H	 0.2684001381	-0.6708237194	 3.3952585854	 0.121158
H	-2.2538106384	 2.6858456345	 3.2856414172	 0.202491
