14
gdb 130370	6.9495	0.8444	0.75846	11.8943	102.94	-0.1549	-0.0728	0.0821	1411.1237	0.101065	-466.135688	-466.127439	-466.126495	-466.169034	30.002	
N	-0.0161069247	 1.3610620034	 0.1313518543	-0.496948
C	 0.0259397453	 0.0311370314	-0.1376072796	 0.109355
N	 1.1146266462	-0.7013942945	 0.0188341448	-0.334092
H	 2.0159971624	-0.2417080379	 0.1121631988	 0.283531
C	 1.145762226	-2.073295819	 0.1091190907	 0.44417
N	 0.134254189	-2.8523195485	 0.3745454667	-0.267821
N	 0.5728437095	-4.1173612465	 0.2665272816	-0.323041
C	 1.9099729451	-4.0763001726	-0.0801662392	 0.418267
N	 2.7919915337	-4.9691817642	-0.288134687	-0.586745
O	 2.2934933434	-2.707948811	-0.1882740434	-0.239823
H	 0.8433100467	 1.8702455371	 0.2749175134	 0.277487
H	-0.7573141512	 1.8933545615	-0.2962921165	 0.292054
H	-0.894813967	-0.4953100021	-0.3509455059	 0.200522
H	 2.3517045256	-5.880149557	-0.1720845287	 0.223086
