18
gdb 119531	4.34506	0.95899	0.87619	2.2313	71.54	-0.2442	0.0161	0.2603	1326.286	0.147882	-439.074532	-439.066158	-439.065214	-439.108072	31.146	
O	-0.0673139567	 1.4354531921	-0.0455878463	-0.420418
C	 0.0052983266	 0.021544944	-0.1381101833	-0.071353
C	-1.3742614895	-0.5285361395	 0.2172953793	-0.27897
C	-1.4521989635	-2.0233779861	 0.1181891223	 0.405898
C	-1.6630090298	-2.7919345206	-1.158001569	-0.348228
C	-2.6752103991	-2.9164389816	-0.033929707	-0.080871
N	-2.4794534459	-4.0261393435	 0.872362514	-0.257645
C	-1.344950726	-3.8276919234	 1.4114053013	 0.091791
O	-0.6490277049	-2.7060871052	 1.0900893165	-0.250707
H	 0.8095027648	 1.7937444357	-0.210496119	 0.287356
H	 0.2803010179	-0.3027469561	-1.15461218	 0.088774
H	 0.7541252685	-0.3916583277	 0.5536065147	 0.103852
H	-1.6366663873	-0.2078031248	 1.2315190655	 0.119298
H	-2.1134201851	-0.0899234576	-0.4618120745	 0.115208
H	-1.9665928066	-2.2074710039	-2.0199110323	 0.122739
H	-1.032565077	-3.6478227927	-1.3748605971	 0.124393
H	-3.6907870824	-2.5633503093	-0.1671900262	 0.105954
H	-0.8574877339	-4.4748996298	 2.1301937812	 0.142927
