18
gdb 46317	3.07548	1.33967	1.22375	2.8093	72.77	-0.254	0.0193	0.2734	1090.0017	0.14919	-439.088588	-439.08074	-439.079796	-439.121712	29.543	
N	 0.0785390255	 1.1941092766	 0.0208136445	-0.551563
C	 0.0494753124	-0.050303404	-0.1159363105	 0.386985
O	 1.0190499185	-0.947563145	-0.5091158655	-0.258045
C	 0.0934361596	-2.0756044233	-0.4051976261	-0.133129
C	-1.0194139895	-1.1256962168	 0.1006979521	 0.295764
C	-1.5716554253	-1.2535473667	 1.5376035608	-0.312014
C	-3.0650362564	-1.5511155332	 1.3178318918	-0.222061
C	-3.3177254029	-0.8411269037	-0.0119097526	-0.082054
O	-2.1291567059	-1.0662876036	-0.7700289738	-0.291478
H	 0.9886552319	 1.5844426067	-0.2298224301	 0.229006
H	-0.1108406698	-2.5116488668	-1.385073845	 0.12903
H	 0.4672900614	-2.8270270577	 0.2946872555	 0.115075
H	-1.0527242477	-2.0214740486	 2.115067216	 0.112837
H	-1.4408674313	-0.2984941382	 2.0543882803	 0.137818
H	-3.2369162424	-2.6265348253	 1.207402436	 0.109898
H	-3.6970114377	-1.1831435975	 2.1291812316	 0.110048
H	-4.15561803	-1.2448745792	-0.5857992333	 0.112126
H	-3.4786020706	 0.2364019863	 0.1361212384	 0.111756
