20
gdb 10072	3.1244	1.25896	1.03184	4.1761	75.85	-0.2276	0.0251	0.2528	1206.6559	0.175892	-345.185739	-345.176061	-345.175117	-345.220712	34.17	
C	-0.1455709227	 1.4070013802	 0.6227070764	-0.399998
C	-0.1330649525	-0.1093844022	 0.4374836799	-0.113756
N	-1.406336238	-0.6406544818	-0.0528308666	-0.064425
C	-1.8606495722	-0.1125336872	-1.3454616245	-0.159903
C	-0.9608722902	-0.3833672292	-2.5629132856	-0.394264
C	-1.430946001	-2.0934040222	 0.029345401	-0.282204
C	-2.7797514405	-2.640909929	-0.1671062636	 0.274111
N	-3.8319546472	-3.0890884488	-0.3294845779	-0.311808
H	 0.76780657	 1.7222452689	 1.1357166865	 0.11929
H	-0.185804382	 1.9425650341	-0.3299639172	 0.124923
H	-1.0054208713	 1.7128497715	 1.2257678517	 0.131787
H	 0.7194610592	-0.3957337237	-0.2066304235	 0.084604
H	 0.0519916496	-0.5791603602	 1.4110737643	 0.103576
H	-2.8570389076	-0.5272107054	-1.5303663703	 0.131276
H	-2.0002369968	 0.9658709961	-1.2293406133	 0.111507
H	 0.0311737	 0.0646049497	-2.4491472967	 0.120755
H	-0.8289848692	-1.4541194745	-2.7479412478	 0.121501
H	-1.417447738	 0.04757094	-3.4592640692	 0.123796
H	-0.757032661	-2.6032937541	-0.685016383	 0.128482
H	-1.0953735387	-2.391273792	 1.0295529294	 0.150752
