19
gdb 68208	3.8205	1.08706	1.0155	2.2258	75.81	-0.246	-0.0233	0.2227	1204.4339	0.159602	-423.02463	-423.01655	-423.015606	-423.057447	31.569	
O	-0.1418473374	 1.4043316131	 0.0166349183	-0.482862
C	-0.0240645807	 0.0186093242	 0.0250042218	 0.430818
C	 0.3436332329	-0.8105148067	 1.2979385253	-0.299107
C	-0.3649825833	-1.9401541519	 0.4956497763	-0.048709
C	-1.315825419	-0.8300919209	-0.0383872058	-0.260123
C	 0.5656118245	-2.150910402	-0.7370735662	-0.053501
C	 0.8617958707	-0.6452474478	-1.0545954018	-0.31806
C	 1.795263013	-2.9726196685	-0.4458711315	 0.145499
O	 2.0586129243	-4.0216107619	-0.9771492075	-0.25351
H	 0.7403457768	 1.7892475057	-0.0235181567	 0.280828
H	 1.3965120695	-0.9234361647	 1.5701506228	 0.090282
H	-0.2390770978	-0.4950653207	 2.1654632521	 0.108931
H	-0.7483920355	-2.8362961182	 0.9797702832	 0.080648
H	-2.0477832487	-0.5142006313	 0.7075301337	 0.109263
H	-1.7931025031	-0.9752042007	-1.0115219775	 0.096482
H	 0.0307004746	-2.6474565752	-1.5504408798	 0.09328
H	 0.5635855451	-0.3678173841	-2.0684479935	 0.116056
H	 1.9203617812	-0.3867173446	-0.92764955	 0.094906
H	 2.4777235731	-2.5412638437	 0.3235636968	 0.06888
