17
gdb 17469	4.44592	1.97112	1.6923	1.3237	66.88	-0.2234	0.068	0.2914	813.2162	0.143105	-363.826137	-363.819437	-363.818493	-363.856543	26.799	
C	-0.0033307364	 1.5499689825	 0.0385894685	-0.484213
C	-0.0550884442	 0.049598547	 0.1315201274	 0.401781
C	-1.3353250891	-0.7158895877	-0.2060124767	-0.234338
N	-1.3456239915	-1.9835851549	 0.5579706876	-0.107509
C	-0.31007274	-2.9663525395	 0.2165667015	-0.242114
C	-0.099725464	-2.0382866967	 1.3585195763	-0.051451
C	 0.6996539296	-0.7904651315	 1.0807578962	-0.039394
O	 1.1299913006	-0.6567593929	-0.2830621306	-0.290793
H	 0.9778328194	 1.9167570391	 0.3495671051	 0.132937
H	-0.1773650447	 1.8817277936	-0.9910070427	 0.130968
H	-0.7695905947	 2.0073726333	 0.6728186685	 0.126416
H	-2.2068755248	-0.1280168807	 0.1044885901	 0.109532
H	-1.4256677893	-0.9063272792	-1.2808243907	 0.11685
H	-0.5968749155	-3.9976207115	 0.4047698947	 0.11133
H	 0.3015206432	-2.7995856673	-0.6642026003	 0.134698
H	-0.181967555	-2.3680514986	 2.3903575624	 0.090727
H	 1.3768733364	-0.3911968149	 1.8310661625	 0.094573
