12
gdb 5659	5.49151	2.32252	1.63221	0.0004	61.	-0.2019	0.009	0.2108	704.448	0.0891	-373.747271	-373.741883	-373.740939	-373.776501	21.25	
N	-0.0363653619	 1.345813466	 0.0100351275	-0.384917
C	 1.2845237514	 1.7483248461	-0.0005901897	-0.00532
N	 2.1536166084	 0.7486830018	-0.0146052269	-0.357347
C	 1.3397846949	-0.3433984839	-0.0126329405	 0.343377
C	-0.0003119209	-0.0312021724	 0.0021898482	 0.343377
N	-0.8141443373	-1.1232833318	 0.0041183113	-0.357347
C	 0.0549487889	-2.1229253849	-0.0098650095	-0.00532
N	 1.3758372625	-1.7204136723	-0.0205608132	-0.384917
H	-0.842538971	 1.9467707403	 0.0215163349	 0.272727
H	 1.550048295	 2.7945313972	 0.0025649927	 0.13148
H	-0.2105756504	-3.1691319501	-0.0130239934	 0.13148
H	 2.1820130404	-2.321372396	-0.0318117713	 0.272727
