14
gdb 123374	3.72262	1.05603	0.93224	4.1551	68.49	-0.2279	-0.0337	0.1942	1217.8388	0.100105	-432.791291	-432.783218	-432.782274	-432.825036	29.152	
C	 0.3006756668	-0.0445108288	-1.2420363612	-0.448988
C	 0.1036931842	 0.6012393262	-0.2478656485	 0.30905
C	-0.1059199329	 1.3976352058	 0.9670982934	-0.335706
N	 1.0042274148	 2.2641614523	 1.3453340817	-0.370328
C	 1.3700261674	 3.2773277782	 0.4777948064	 0.322899
C	 0.7461407505	 3.8588552075	-0.5843080756	-0.046762
O	 1.5281904666	 4.8636521937	-1.0191021599	-0.158018
N	 2.6660599154	 4.8777887408	-0.206345103	-0.000541
N	 2.5555010139	 3.9560058347	 0.6532571214	-0.202392
H	 0.4723568295	-0.61708671	-2.1202406767	 0.209217
H	-1.0003417973	 2.0226024426	 0.849210834	 0.149739
H	-0.3101710969	 0.7350864008	 1.8142450649	 0.151364
H	 1.8075246431	 1.7714953482	 1.7124165496	 0.257712
H	-0.169877845	 3.679424298	-1.1174781064	 0.162756
