17
gdb 26819	3.34633	1.11628	0.84585	6.2382	84.32	-0.2276	-0.0525	0.1751	1334.2069	0.135151	-418.073531	-418.0643	-418.063356	-418.108683	32.14	
C	-0.1009385739	 1.5069801662	 0.1514488531	-0.512662
C	-0.0209427429	 0.0280568643	-0.0243337333	 0.237686
C	 0.0184605276	-0.7856759958	-1.1520734873	 0.211559
C	-0.0100210457	-0.3821501645	-2.5919421799	-0.494617
N	 0.0917672122	-2.0979089728	-0.7882483553	-0.321747
C	 0.0986761702	-2.1160765317	 0.5340797384	 0.232765
N	 0.0310575979	-0.8372508237	 1.0336312117	-0.328655
C	 0.1655489525	-3.2669100529	 1.4305633456	 0.086102
O	 0.227295368	-4.4249027838	 1.0940837209	-0.257856
H	 0.7656031338	 1.9016297847	 0.6955100645	 0.13895
H	-0.1323802889	 2.0023615134	-0.8205564376	 0.149209
H	-1.0003860334	 1.8051597698	 0.7034706355	 0.138949
H	 0.8886931323	-0.7314543421	-3.1104157877	 0.143024
H	-0.8698476989	-0.8276392533	-3.1025806705	 0.143026
H	-0.0698832027	 0.7027851357	-2.7090972907	 0.116437
H	 0.0214166806	-0.5809661429	 2.0082615637	 0.267871
H	 0.1545334214	-2.9768110505	 2.5099424689	 0.049959
