12
gdb 1498	6.43566	1.49618	1.23268	4.3984	53.09	-0.3155	-0.0683	0.2473	910.1515	0.088721	-360.549337	-360.541876	-360.540932	-360.581768	24.526	
C	-0.1482003576	 1.4998567877	 0.0119991473	-0.39536
C	-0.0056830809	-0.0076466175	 0.001864822	-0.056341
O	-1.345057295	-0.5719442232	 0.0115325055	-0.224271
C	-1.4092905632	-1.8997675573	 0.0052972458	 0.36384
O	-0.4886989049	-2.6705417495	-0.0073244671	-0.330175
C	-2.8134650774	-2.3347078473	 0.0162445429	 0.253837
N	-3.8972009357	-2.7332139928	 0.0240500072	-0.304667
H	 0.8448195521	 1.9583298727	 0.0051138969	 0.134117
H	-0.6953358086	 1.8474380169	-0.8681709026	 0.140974
H	-0.6782562839	 1.8371018268	 0.9065247337	 0.140971
H	 0.5129343539	-0.3728668518	-0.889332523	 0.138526
H	 0.5300781613	-0.3831644648	 0.8785113915	 0.138548
