18
gdb 79367	3.07998	1.4663	1.13935	1.6578	84.26	-0.2318	0.0233	0.2551	1106.3199	0.146649	-364.684054	-364.676141	-364.675197	-364.716122	31.456	
C	-0.1649288029	 1.5682796387	 0.0415486705	-0.423979
C	-0.0263934611	 0.0634718425	-0.0625154809	 0.06
C	 0.9014943784	-0.5833833782	-1.0901209354	-0.120112
C	 2.130805488	-0.2754302998	-0.1850952455	-0.040769
C	 2.6236066099	-1.7212828458	-0.1575803925	-0.308117
C	 1.0900263306	-1.8064507083	-0.12181743	 0.270919
C	 0.24372575	-2.951188574	 0.0212911795	 0.114069
C	-0.4577114352	-3.9230620801	 0.1258244472	-0.368665
N	 1.0161178308	-0.5809643782	 0.8607174617	-0.197717
H	 0.7912125841	 2.0833132733	-0.0911288335	 0.116306
H	-0.8564105022	 1.9420241172	-0.7213324462	 0.119604
H	-0.5648819911	 1.8451399639	 1.022419159	 0.130623
H	-1.0002622619	-0.4262433076	 0.054685785	 0.08203
H	 0.8550666886	-0.6167471878	-2.1843009673	 0.069426
H	 2.7074438746	 0.6458202354	-0.1252917648	 0.090494
H	 3.1100280709	-2.1000827713	-1.0594177883	 0.104883
H	 3.1364185765	-2.0423110781	 0.752397017	 0.116619
H	-1.0770341482	-4.7802211818	 0.2241494545	 0.184388
