16
gdb 24711	3.76585	1.55344	1.11536	2.4484	77.56	-0.2393	-0.0309	0.2084	1032.787	0.127961	-400.8107	-400.803926	-400.802982	-400.842937	25.698	
C	-0.0341293783	 1.5153237358	 0.0873688482	-0.176343
O	 1.2510707656	 1.9283801141	-0.3842864065	-0.274196
C	 2.1058389761	 0.8100212334	-0.618485572	-0.161116
C	 1.2457947874	-0.4016949504	-0.379002196	 0.263655
N	 1.6264434881	-1.6643158339	-0.5317820516	-0.337568
C	 0.6929832441	-2.5858895275	-0.2578971266	-0.025341
C	-0.6009201974	-2.2820117299	 0.16345384	-0.103846
C	-0.973799282	-0.9466431467	 0.3186552798	-0.22205
C	-0.0169642117	 0.0153741566	 0.036159998	 0.242998
H	-0.1981257171	 1.8945948526	 1.1079792758	 0.112943
H	-0.8114094129	 1.9547296592	-0.5538454941	 0.116365
H	 2.492848951	 0.8477994905	-1.6455243813	 0.122698
H	 2.9688974354	 0.8366732066	 0.0631584502	 0.118135
H	 0.9957283215	-3.6225074561	-0.3820703538	 0.110133
H	-1.3037309265	-3.0821742446	 0.3662268947	 0.104511
H	-1.9743691032	-0.6819972097	 0.646719825	 0.109024
