18
gdb 6522	2.77183	1.94542	1.41073	2.2291	69.75	-0.245	-0.0277	0.2173	939.3203	0.150433	-384.942948	-384.933976	-384.933032	-384.975597	33.545	
C	-0.1096927431	 1.4570318473	 0.0436621501	-0.437186
C	 0.0369268528	-0.0535797705	 0.0199599974	 0.295759
C	-1.1475268991	-0.7801435984	-0.5874538043	-0.466641
C	 1.4126682788	-0.6250958063	-0.1677482697	-0.376456
C	 0.7868603458	-0.6768836883	 1.2169660374	 0.231499
O	 1.2188454587	 0.2165190564	 2.2061346064	-0.458201
C	 0.3617547228	-1.9941003634	 1.7657365565	 0.104016
O	 0.1473296011	-2.9951071266	 1.122681689	-0.269337
H	 0.7344675295	 1.9412243434	 0.5351125767	 0.128392
H	-0.1852048335	 1.8359787644	-0.9817833934	 0.116582
H	-1.0214891732	 1.7505833633	 0.574886128	 0.121312
H	-1.2717871911	-0.4670661296	-1.6303457645	 0.116297
H	-1.0197465026	-1.8627927912	-0.5674108672	 0.154006
H	-2.0729607137	-0.5319590771	-0.0557406349	 0.116358
H	 1.5119927357	-1.5798045464	-0.6743768799	 0.135348
H	 2.2434454418	 0.0629303888	-0.288562763	 0.114459
H	 2.1349739828	 0.0104464053	 2.4199902603	 0.290424
H	 0.2634449163	-1.977736791	 2.874344545	 0.083371
