20
gdb 23369	1.7853	1.49561	0.98527	1.1665	78.8	-0.2447	-0.0005	0.2443	1289.147	0.168137	-440.224428	-440.214342	-440.213398	-440.259705	36.697	
C	-0.141738463	 1.5335869709	-0.2616611483	-0.388277
C	-0.2281876882	 0.0134713724	-0.0879150733	-0.030935
C	 0.6242228107	-0.4637127738	 1.1066502475	-0.391058
C	-1.6522764864	-0.4843667184	 0.062648566	 0.306038
N	-2.5433358533	 0.3391834888	 0.4656179486	-0.184848
O	-3.8117150349	-0.2606151817	 0.5739459398	-0.403357
C	-1.9567688304	-1.918222893	-0.223496318	 0.013548
C	-1.7648180233	-2.4904855686	-1.5697599511	-0.173492
O	-0.8491504154	-2.7754741897	-0.5184121349	-0.231679
H	 0.9004780495	 1.8317945912	-0.4128605565	 0.104292
H	-0.7272226147	 1.8720825126	-1.1209131146	 0.113751
H	-0.5236329769	 2.0522459775	 0.62128798	 0.129884
H	 0.1809765902	-0.4691518167	-0.9846938292	 0.089369
H	 1.6662815288	-0.1561890518	 0.9727795932	 0.112535
H	 0.2559432466	-0.0224708365	 2.0387859075	 0.119165
H	 0.6007473241	-1.5515286385	 1.2022199495	 0.137609
H	-4.3458157491	 0.46081202	 0.9216410059	 0.307705
H	-2.7228079935	-2.3627805479	 0.4060615148	 0.123504
H	-2.3937059356	-3.3204041759	-1.8873638583	 0.125635
H	-1.3786531452	-1.8606937011	-2.3697506288	 0.120612
