19
gdb 74510	2.88279	1.27423	1.00281	3.4139	83.67	-0.2295	-0.0132	0.2163	1229.2179	0.15879	-385.912946	-385.904514	-385.90357	-385.945882	32.268	
C	 0.0757237742	 1.5170588449	 0.0951072511	-0.486341
C	-0.0006160215	 0.0255481861	 0.0172053478	 0.310115
C	-0.1317012239	-0.7267592386	-1.0803318622	-0.265455
C	-0.1081722745	-2.1846178107	-0.7768579916	 0.251421
C	 1.1908376012	-2.7035090724	-0.1443955438	-0.320736
C	 0.0858457975	-2.271730359	 0.7533884087	-0.093172
C	 0.0687603396	-0.8346756595	 1.2699075868	-0.32079
C	-0.9521988959	-3.1453167735	-1.5076671853	 0.077791
O	-1.6686340315	-2.8664198463	-2.4395168619	-0.2715
H	 1.0331710491	 1.8473457873	 0.5181811159	 0.125328
H	-0.0347909568	 1.9768151168	-0.8903801883	 0.129369
H	-0.707971446	 1.9193117732	 0.7499614515	 0.126239
H	-0.2352377561	-0.3568836653	-2.0928465091	 0.108121
H	 1.3826279152	-3.7701590736	-0.2152261795	 0.120909
H	 2.0634286923	-2.0716218977	-0.2700503327	 0.125812
H	-0.4364563647	-3.0382702605	 1.3144747371	 0.099447
H	 0.9539114897	-0.6062035009	 1.8784090061	 0.112653
H	-0.8015128832	-0.6545635113	 1.9154665016	 0.113309
H	-0.8753226247	-4.1943506491	-1.133715632	 0.05748
