18
gdb 79032	4.76454	1.36939	1.30262	1.8638	74.51	-0.2157	0.0682	0.2839	1007.9358	0.148842	-401.842618	-401.835946	-401.835002	-401.873322	27.823	
C	 0.061604721	 1.500441339	-0.2035746197	-0.328156
N	 0.0369124228	 0.0578499624	 0.0181744005	-0.115636
C	-1.0553682121	-0.4983982858	 0.8817071415	-0.037891
C	-0.1446384821	-1.7574315633	 1.1331864513	-0.052545
C	-0.4113572967	-2.2702630519	 2.5363814289	 0.00762
O	 0.5764158518	-1.8601716053	 3.5024069228	-0.255087
C	-0.5823837409	-1.0296360491	 3.2924892686	 0.009036
C	-0.389921011	 0.0296105516	 2.2186120926	-0.084522
C	 0.7324094886	-0.4759039132	 1.2466810944	-0.01602
H	 1.039532752	 1.7733317652	-0.6137362943	 0.122486
H	-0.6929704677	 1.7504836238	-0.9569203127	 0.120519
H	-0.1221375669	 2.1296470488	 0.6812929808	 0.096131
H	-2.1061483984	-0.4680590236	 0.5824792558	 0.079543
H	 0.0372780384	-2.4368151306	 0.3036010178	 0.082401
H	-0.9259152135	-3.2026031442	 2.7417485679	 0.102228
H	-1.2429639817	-0.9049244188	 4.1442071812	 0.100884
H	-0.4540183755	 1.0795262111	 2.4922276396	 0.078958
H	 1.8122232519	-0.4192984462	 1.3813435631	 0.090049
