19
gdb 97960	6.2809	0.50439	0.47294	2.2907	83.53	-0.2536	0.0157	0.2693	2321.7413	0.155827	-423.041646	-423.030623	-423.029679	-423.080999	36.41	
C	 0.1071664053	 1.5179491601	 0.1082797569	-0.366082
C	 0.0668413468	-0.0185837134	 0.0123544401	-0.316377
C	 0.6639740713	-0.5253189951	-1.218486074	 0.159008
C	 1.1618818183	-0.9257139324	-2.2386182651	-0.013848
C	 1.7611817333	-1.3769787324	-3.4816631037	-0.231307
O	 1.9468700764	-2.8100911195	-3.4204839174	-0.235847
C	 2.5047460584	-3.3554913378	-4.5227478657	 0.441293
C	 2.6497402144	-4.8493562783	-4.3609482554	-0.47669
O	 2.8316766122	-2.7151630003	-5.4901730497	-0.347889
H	 1.137290546	 1.8827113362	 0.0769213594	 0.130241
H	-0.4379599578	 1.9738142459	-0.7225147715	 0.130149
H	-0.3491166286	 1.8513553312	 1.044807222	 0.117326
H	 0.5897604585	-0.4534667391	 0.8735689541	 0.132775
H	-0.9724760879	-0.3636416059	 0.0829502683	 0.131616
H	 1.129990427	-1.13843359	-4.3447408571	 0.146617
H	 2.7319826071	-0.9009541805	-3.6580211039	 0.146997
H	 3.1126433992	-5.2669165594	-5.2541312478	 0.148298
H	 3.2596133854	-5.0741926016	-3.4816224434	 0.151711
H	 1.6683470949	-5.3045048677	-4.200525526	 0.152009
