17
gdb 76227	2.65464	1.58921	1.20561	1.0228	69.08	-0.2132	0.0163	0.2295	1038.9643	0.136288	-455.133999	-455.12562	-455.124676	-455.166316	33.053	
N	-0.0380984842	 1.3072686111	-0.0243050733	-0.564501
C	-0.0760031516	-0.0580285019	 0.0245447175	 0.32945
N	-1.1426507265	-0.7722717303	 0.0375101407	-0.289516
C	-0.7302126062	-2.162326937	 0.0631017199	-0.080985
C	-0.0279051814	-2.6510152521	-1.1895888468	-0.32824
C	 0.7808456543	-2.2524918119	 0.0209907053	 0.361536
O	 1.5364829727	-3.262569565	 0.6109254339	-0.468705
C	 1.2576284629	-0.8105901095	 0.1017014651	-0.041814
O	 2.2074674715	-0.3680192594	-0.8564058295	-0.434172
H	 0.8074898107	 1.6918012322	-0.4195255098	 0.261963
H	-0.8923230758	 1.761347556	-0.3122102114	 0.25783
H	-1.3415639944	-2.8531034113	 0.6324268754	 0.095475
H	-0.0331316115	-3.7175330376	-1.3869497159	 0.126852
H	-0.0700471015	-2.0142834396	-2.069169002	 0.104852
H	 1.5050114221	-3.143777668	 1.5670119412	 0.283627
H	 1.7326368144	-0.6276264326	 1.0756235219	 0.09884
H	 1.9785298445	-0.7771664431	-1.6989915223	 0.287508
