17
gdb 34258	4.17246	1.3228	1.18914	5.102	76.74	-0.2581	0.0035	0.2616	1048.6225	0.139057	-380.859975	-380.853016	-380.852071	-380.89128	27.6	
N	 0.0663760304	-1.1251980729	-0.1141560016	-0.340265
C	 0.0385711982	 0.0293265505	-0.0422353123	 0.19088
C	-0.0086045537	 1.4549439139	 0.0938493963	 0.209533
C	-1.2240421253	 2.2442317916	 0.5730112146	-0.311388
C	-0.7435978779	 3.366051034	-0.3835358646	 0.011471
C	 0.1116130941	 4.413725569	 0.3197865038	-0.210375
C	 1.2915048557	 3.5734164609	 0.8746735068	-0.253223
C	 1.2231851641	 2.3054307653	 0.0325014483	-0.05738
N	 0.2459620838	 2.4109155137	-1.0665602456	-0.167712
H	-2.1514157081	 1.7795614173	 0.2356863877	 0.134399
H	-1.2976905724	 2.4673588999	 1.6414236124	 0.111708
H	-1.4829785757	 3.7563214036	-1.0807548595	 0.09427
H	 0.4698899659	 5.152664189	-0.4035947974	 0.118409
H	-0.4416680369	 4.9449259274	 1.0992897647	 0.111974
H	 2.2536684676	 4.0734620341	 0.7410948529	 0.12012
H	 1.1844311787	 3.3562409124	 1.9414814579	 0.120399
H	 2.1378064815	 1.7889333803	-0.2392713744	 0.117179
