18
gdb 15996	3.44257	1.51746	1.18655	2.2902	67.97	-0.2591	0.0714	0.3305	1030.7661	0.152975	-384.89941	-384.891285	-384.890341	-384.932191	30.013	
O	-0.1085828297	 1.4584595714	-0.1449025494	-0.421121
C	 0.0595188508	 0.0568741154	 0.0115853996	-0.10572
C	-1.3170551644	-0.5731505537	 0.0369606065	-0.039045
C	-2.1581004695	-0.6048346226	-1.2758307177	-0.226836
C	-2.5719622362	-2.0744093207	-0.9608961491	-0.320582
C	-1.4408737955	-2.1017846929	 0.0685445607	 0.437955
C	-0.3930215733	-3.1109002386	 0.2480276525	-0.266432
O	-1.4138359612	-2.901033029	 1.2344381127	-0.271722
H	 0.7620253191	 1.8662826084	-0.166851102	 0.287071
H	 0.6455977353	-0.3700082297	-0.8192568181	 0.080246
H	 0.5922796026	-0.1805472302	 0.9472895177	 0.091373
H	-1.8973060483	-0.1364366747	 0.8572089831	 0.094027
H	-2.9606876435	 0.1280148304	-1.3605320159	 0.110112
H	-1.5227597756	-0.5340786179	-2.1628097158	 0.1042
H	-3.5501126395	-2.1379777927	-0.4751710421	 0.11679
H	-2.5338997985	-2.8026614085	-1.7743699034	 0.104265
H	-0.4544792882	-4.0535336864	-0.2952844438	 0.113067
H	 0.6118831655	-2.8169085479	 0.5492598846	 0.112351
