20
gdb 55631	2.82301	1.00539	0.89392	3.2101	79.68	-0.2619	-0.0309	0.231	1387.5549	0.167194	-403.196281	-403.185525	-403.184581	-403.232889	38.164	
C	-0.1733097123	 1.5864669642	 0.0130188009	-0.471612
C	 0.0996368338	 0.0926724297	 0.0014867076	 0.371077
O	 1.2278420367	-0.3449509961	-0.0118567292	-0.28689
C	-1.1471626842	-0.7899172651	 0.0084017839	-0.31993
C	-0.9283308423	-2.3269500407	-0.0016200253	 0.075747
C	-0.1977740295	-2.7904650875	-1.2837825912	-0.416455
C	-0.1736452071	-2.8036028802	 1.2616209716	-0.416455
C	-2.2718907446	-2.935574611	 0.0079148931	 0.26948
N	-3.3284583251	-3.4049156028	 0.0157672735	-0.343883
H	 0.7709471356	 2.1314751704	 0.0067085743	 0.148544
H	-0.7715223677	 1.8735834512	-0.8588977698	 0.144795
H	-0.7537316294	 1.8631953865	 0.9001879121	 0.144825
H	-1.7444587787	-0.5085399652	 0.8855528515	 0.139444
H	-1.760356089	-0.499504458	-0.854734804	 0.139465
H	 0.8057107188	-2.3649348588	-1.3041036363	 0.155353
H	-0.1233100502	-3.8807997032	-1.3038744206	 0.131748
H	-0.7392849986	-2.4727540233	-2.1796408396	 0.12382
H	-0.6980167643	-2.4951816591	 2.170823083	 0.123824
H	-0.098963438	-3.8940815708	 1.2690536059	 0.131756
H	 0.8301191162	-2.3782768902	 1.2673109084	 0.155347
