17
gdb 62873	2.89828	1.90643	1.48415	1.5753	65.91	-0.2497	0.0528	0.3025	907.026	0.135871	-458.896384	-458.889389	-458.888445	-458.927266	29.187	
C	-0.0246043246	 1.5630559358	 0.0158494853	-0.426291
C	-0.0999358251	 0.0427495344	-0.0335062289	 0.41468
O	-1.4100608268	-0.2790662865	-0.3545480282	-0.478181
C	 1.1427135693	-0.6058153704	-0.7620952398	-0.054967
O	 1.9165166449	-0.2841620412	 0.443701093	-0.289843
C	 0.682940523	-0.6452339613	 1.1536922999	-0.054969
C	 0.6516594704	-2.1645394179	 0.8534253818	 0.035579
O	-0.3079909285	-2.6015978403	-0.1378485825	-0.273432
C	 0.9927989907	-2.1352922574	-0.568046058	 0.035578
H	 0.9766832674	 1.9119561076	 0.263403362	 0.134947
H	-0.3236266411	 1.9683610262	-0.9553955479	 0.123251
H	-0.7355818339	 1.9330560716	 0.7605729364	 0.123253
H	-1.4545628877	-1.246159048	-0.3851297891	 0.297719
H	 1.5799423237	-0.2304078554	-1.6868161315	 0.082558
H	 0.6495513302	-0.3101784576	 2.1899508882	 0.082558
H	 0.9679137131	-2.9156098011	 1.5675474211	 0.123779
H	 1.6056038351	-2.8609354286	-1.0895885319	 0.123779
