19
gdb 94049	3.45328	0.97619	0.80711	0.8808	77.78	-0.2583	0.0502	0.3085	1426.4704	0.157497	-423.000264	-422.990901	-422.989957	-423.035382	33.907	
C	 0.1392903224	 1.564975107	 0.11166826	-0.40376
C	 0.1543131997	 0.0574580938	 0.0126149746	 0.23212
O	 0.9440083975	-0.3614858493	-1.0914490541	-0.265244
C	 1.5478747592	-1.5979182857	-0.7388369032	-0.115085
C	 1.178364759	-1.8035251222	 0.751260756	 0.108418
C	 2.3436551077	-2.2640360433	 1.6304765466	-0.387252
C	 1.9626969877	-2.5219814109	 3.0130708595	 0.307776
C	 1.6391682282	-2.7461657423	 4.1480447418	-0.435724
O	 0.7528143851	-0.5112023552	 1.1538518576	-0.255755
H	 1.1593798275	 1.9344689775	 0.2400746092	 0.130555
H	-0.2852329146	 1.9915381234	-0.8003794227	 0.129813
H	-0.4687060179	 1.8780265544	 0.9641294386	 0.129467
H	-0.8704125718	-0.3450908051	-0.1041819556	 0.059915
H	 1.169986618	-2.4137619352	-1.3677158399	 0.103469
H	 2.6323167834	-1.5172819387	-0.88581726	 0.104752
H	 0.345558992	-2.5169690403	 0.842583691	 0.08475
H	 2.7695227143	-3.1751362328	 1.1901601787	 0.13371
H	 3.1245913789	-1.4948940746	 1.588422784	 0.141272
H	 1.3565052738	-2.9355921906	 5.1537292479	 0.196804
