19
gdb 78398	3.06888	1.33066	1.18468	2.902	79.03	-0.2278	-0.0209	0.2069	1124.3077	0.158962	-385.857084	-385.849236	-385.848292	-385.889326	31.121	
C	-0.0599900818	 1.4243322417	 0.0498828291	-0.425251
C	 0.0625907745	-0.0844678203	-0.0020731645	-0.021903
C	 0.7527451728	-0.6694566812	-1.206682738	-0.063238
C	 1.4424628931	-0.6599582683	 0.1652899056	-0.058439
C	 1.4514678526	-2.2103380889	 0.1792421908	-0.165575
C	 0.756491936	-2.2171621601	-1.2213871132	-0.045464
C	-0.4667340037	-2.9890377662	-0.6463393513	-0.376009
C	 0.2031009291	-2.9228177659	 0.7518326596	 0.395447
O	-0.1147410249	-3.3119824244	 1.8369080929	-0.297382
H	 0.8180626971	 1.9070765606	-0.3926161381	 0.116925
H	-0.9418425265	 1.7679167904	-0.5011022746	 0.120599
H	-0.1490827306	 1.7766881664	 1.0827844461	 0.124299
H	-0.7856580445	-0.6037870859	 0.4386841449	 0.091064
H	 0.9628329617	-0.0543749215	-2.0743618491	 0.085329
H	 2.2660796493	-0.05142937	 0.519252754	 0.09033
H	 2.419809082	-2.6771797435	 0.3617333277	 0.091204
H	 1.2580115522	-2.6632555677	-2.0782494807	 0.079054
H	-1.4598092386	-2.5400661403	-0.7320784733	 0.128935
H	-0.5254618697	-4.0247165751	-0.9986240981	 0.130074
