19
gdb 94657	3.79588	0.80014	0.72415	3.4148	73.32	-0.2572	0.0032	0.2604	1559.5164	0.157539	-460.163166	-460.153625	-460.152681	-460.199208	32.973	
C	-0.3614896762	 1.4104948394	-0.1988923425	-0.409974
C	 0.23159341	 0.0243705714	-0.0408425846	 0.141053
O	 1.6170676187	-0.0432591049	-0.4542118164	-0.288155
C	 1.9665625265	-0.8285096516	 0.7036353298	-0.082338
C	 0.594890324	-0.5582550478	 1.3553727466	-0.060734
C	 0.6158292516	 0.4214075783	 2.5155435619	-0.105431
O	 1.1039874194	-0.2501376543	 3.6854634871	-0.180297
C	 2.2021604974	 0.2334724826	 4.2969878724	 0.170048
O	 2.668920448	-0.2654735798	 5.2752645341	-0.271468
H	 0.1986186227	 2.1632759277	 0.3623379771	 0.12123
H	-0.3379886481	 1.6962169621	-1.2550841318	 0.13617
H	-1.4057813993	 1.4257996693	 0.1309486126	 0.121449
H	-0.3689714454	-0.6949714372	-0.6174733621	 0.078892
H	 2.1497038634	-1.8801310849	 0.449162261	 0.10784
H	 2.848864772	-0.4312154651	 1.220119262	 0.103958
H	 0.0287191964	-1.4445955154	 1.6481611214	 0.095305
H	 1.2499496396	 1.2887106455	 2.2926588086	 0.11768
H	-0.3907646052	 0.7845370786	 2.7471371454	 0.125508
H	 2.6119835445	 1.1319234263	 3.7941798275	 0.079265
