18
gdb 67301	3.06844	1.6438	1.35407	1.8536	77.09	-0.2472	0.0622	0.3094	995.269	0.147148	-401.830932	-401.823412	-401.822468	-401.862453	30.422	
O	-0.113921073	 1.4051969095	-0.0062984084	-0.467733
C	-0.0290495207	 0.0301133773	-0.0064593352	 0.248071
C	 0.8178708352	-0.9667578366	-0.8841491762	-0.059492
C	 1.9657347785	-1.0578962694	 0.1279697773	-0.283541
C	 0.6883348358	-0.9749689962	 0.9715666143	-0.059491
N	-0.0639976415	-1.9041889781	-0.0174576202	-0.200198
C	-1.1942928008	-0.910016334	-0.0919568884	 0.402803
C	-2.5135657035	-1.0147273059	 0.5821436741	-0.364765
C	-2.4070636197	-1.0079763299	-0.943687784	-0.364766
H	 0.7725946988	 1.7786045321	 0.0572167835	 0.286488
H	 0.821758738	-1.0700962088	-1.9698179299	 0.086417
H	 2.4985440027	-2.011409486	 0.1609425198	 0.113694
H	 2.6593533848	-0.2140351223	 0.1801212361	 0.089366
H	 0.5414182324	-1.0878652508	 2.0462946133	 0.086418
H	-2.7652378424	-1.956439042	 1.0587473698	 0.121657
H	-2.9174029766	-0.1337736489	 1.0701439607	 0.121707
H	-2.7397335083	-0.1225112913	-1.475280475	 0.121707
H	-2.5895078698	-1.9452990586	-1.4589073618	 0.121657
