20
gdb 110274	2.42412	1.34016	1.18357	3.7824	78.78	-0.2396	-0.0086	0.231	1183.7316	0.170182	-403.136951	-403.127831	-403.126887	-403.17088	33.953	
C	-0.0286211376	 1.6518018204	-0.0201453712	-0.383845
C	 0.1640934706	 0.1407124855	 0.1557374905	-0.216275
C	 0.6473377404	-0.5266678079	-1.1305136189	-0.102374
C	 0.8297788687	-2.0393531525	-1.2896610938	-0.09611
C	-0.4089091092	-2.8171344999	-1.491669149	 0.015095
C	-1.7764755377	-2.57904459	-0.893898914	-0.423785
N	 0.1120476836	-2.030311917	-2.65622659	-0.193527
C	-0.2309215557	-0.6412820392	-2.3899792814	 0.377455
O	-0.9150604762	 0.0988131581	-3.0282717998	-0.308248
H	 0.9153339386	 2.1412824779	-0.2841774004	 0.116255
H	-0.7451797199	 1.8624888673	-0.8190011139	 0.147585
H	-0.3959240863	 2.110103817	 0.9026601085	 0.113692
H	 0.8997906096	-0.0556035479	 0.945864536	 0.103476
H	-0.771543582	-0.3151051265	 0.4936128495	 0.105956
H	 1.5755884567	-0.0368401829	-1.4565557643	 0.117723
H	 1.7913094374	-2.5346427026	-1.2076482456	 0.106816
H	-0.2151343264	-3.8732028952	-1.6734548754	 0.111158
H	-2.0213751795	-1.5221054057	-0.7815501799	 0.141738
H	-2.540553262	-3.0267157727	-1.5373310782	 0.139315
H	-1.8425152032	-3.0559387263	 0.0895712012	 0.127901
