12
gdb 2959	5.08691	2.1923	1.60544	3.3752	58.9	-0.26	-0.0436	0.2164	732.3158	0.088877	-323.330261	-323.32343	-323.322486	-323.361262	23.909	
O	-0.1657085529	 0.0176723856	-0.2155356481	-0.316879
C	-0.1177157544	 1.1905825753	 0.0845037361	 0.227838
C	 1.106234668	 1.9713886797	 0.0240300033	 0.272693
C	 2.1309999434	 2.5951383365	-0.0588162827	-0.4293
N	-1.2021273195	 1.9025890901	 0.5855561814	-0.073164
C	-1.7956487822	 3.0657960734	-0.0484158204	-0.225331
C	-2.5372288936	 1.7636263727	 0.0536608198	-0.220102
H	 3.042719933	 3.1366828587	-0.1309982154	 0.214021
H	-2.0462183916	 3.8895655117	 0.6134816506	 0.133597
H	-1.415259559	 3.356032488	-1.024311044	 0.138673
H	-2.6472961043	 1.1630552352	-0.8450442966	 0.144127
H	-3.3297759467	 1.6518973732	 0.7875249961	 0.133827
