15
gdb 10891	3.13036	1.94895	1.53951	4.5842	61.94	-0.228	-0.027	0.201	855.7856	0.117993	-399.765832	-399.758299	-399.757355	-399.79752	28.161	
C	-0.0299181505	 1.5216758196	 0.0616408285	-0.514494
C	 0.127579535	 0.0363038433	-0.0200066647	 0.307058
N	-0.8004188305	-0.9113133041	 0.6105964783	-0.384445
C	 0.6638222952	-0.9460248126	 0.9914016995	-0.25075
C	 1.2966189665	-1.7627753988	-0.1097887591	 0.4209
O	 2.061507941	-2.6800245597	-0.1457007323	-0.305846
C	 0.7035888024	-0.78519459	-1.1986815896	-0.016421
O	-0.1840726521	-1.251496524	-2.1664282815	-0.428056
H	 0.9019820154	 2.0289904308	-0.2071682841	 0.137213
H	-0.8089461531	 1.865654667	-0.6273712663	 0.144572
H	-0.309360436	 1.8371469399	 1.0727205745	 0.123635
H	-1.2805959397	-0.4308504036	 1.3720879518	 0.239464
H	 0.9656044334	-0.7994238351	 2.020770564	 0.118342
H	 1.525637677	-0.2737301509	-1.7113110008	 0.112712
H	-0.9240214539	-1.6409232918	-1.6813289483	 0.296115
