19
gdb 113479	4.31996	0.94245	0.93081	3.5345	76.24	-0.2337	0.0691	0.3029	1319.0854	0.160098	-419.119676	-419.111373	-419.110429	-419.152955	31.983	
O	 0.0573100192	 1.2691297217	-0.5432933167	-0.422385
C	 0.0223479669	 0.1417170139	 0.3157421331	-0.061063
C	-1.3482830161	-0.4910053854	 0.3366834516	-0.11427
N	-1.7152082837	-1.15969784	-0.9432188535	-0.410008
C	-1.5567944868	-1.9495827592	 0.2770024588	 0.392491
C	-0.5844521186	-3.1554330362	 0.3547401095	-0.301577
C	-1.7260987221	-3.9481442054	 1.0121611704	-0.041416
N	-2.0890271263	-3.2076512605	 2.2444525709	-0.331122
C	-2.6457088447	-2.7791175991	 0.9311737809	-0.169527
H	-0.2503125539	 0.9518463522	-1.4008576665	 0.288785
H	 0.767880368	-0.6108033214	 0.0176343632	 0.089094
H	 0.290909099	 0.5012132465	 1.3144384515	 0.111346
H	-2.1223732162	 0.100634086	 0.8225889473	 0.089058
H	-2.702468546	-1.0165368677	-1.1450353015	 0.230277
H	-0.3253325647	-3.5115106773	-0.6445664551	 0.117247
H	 0.3150165797	-3.0401055971	 0.9637352555	 0.112176
H	-1.9401401421	-5.0045039693	 0.9122628163	 0.098361
H	-2.8214014273	-3.7445265179	 2.710588907	 0.229081
H	-3.7155716845	-2.7273418137	 0.7630795273	 0.093451
