17
gdb 108722	3.47083	1.02773	0.81745	4.8354	73.08	-0.2414	-0.0474	0.194	1348.4408	0.135018	-458.98986	-458.981005	-458.980061	-459.023851	32.245	
O	 0.0111335791	 1.4035297429	 0.1532944064	-0.408407
C	-0.0264230174	-0.0012692799	 0.0298615419	-0.167509
C	-1.4389539087	-0.4739723694	-0.0287389634	 0.294415
C	-2.5417828754	 0.2951227545	 0.006923623	-0.277206
C	-3.7309617011	-0.5575866997	-0.1120607511	 0.351309
O	-4.8793866396	-0.2615300352	-0.3668111614	-0.357147
C	-3.2709515429	-2.0141986304	 0.0723335186	 0.055497
O	-3.9614434003	-2.8853402517	-0.7853304623	-0.441305
C	-1.7544792608	-1.9501842993	-0.1713883813	-0.341659
H	 0.9305904947	 1.6837227717	 0.1690203932	 0.296382
H	 0.4974805304	-0.3506674149	-0.8777082359	 0.113166
H	 0.471006089	-0.5039528639	 0.8790827251	 0.110683
H	-2.5620024056	 1.3745343961	 0.0510645303	 0.134021
H	-3.4523810951	-2.2756263638	 1.129979558	 0.09274
H	-4.8171538586	-2.4588272904	-0.9432745256	 0.291622
H	-1.5360087126	-2.2994747144	-1.1878046241	 0.139374
H	-1.1699075749	-2.5704879522	 0.5163700985	 0.114022
