16
gdb 128107	2.20432	1.57902	0.92975	3.9587	82.32	-0.1937	0.0245	0.2182	1213.2102	0.124992	-396.915016	-396.906187	-396.905243	-396.948658	32.361	
C	 0.1415932284	 1.3883429486	 0.1238966352	-0.34503
N	-0.1674154119	-0.0089540351	-0.1184422264	-0.401707
C	 0.527820277	-0.7281195953	-1.0556762035	 0.365892
C	 0.6755106345	-2.1146060815	-1.1797216664	 0.017989
C	 1.4456472243	-2.2690678953	-2.3659257138	-0.102243
N	 1.7573472032	-1.1164864967	-2.9272425689	-0.238694
N	 1.1875163395	-0.183174399	-2.1031019741	-0.270945
C	 0.162212424	-3.0756490889	-0.2886602791	 0.191824
C	-0.2855469387	-3.8717199783	 0.5001989362	-0.446103
H	 1.1993589174	 1.5663060452	 0.3704548075	 0.126924
H	-0.115193932	 1.9945478376	-0.7530021486	 0.133059
H	-0.4730320711	 1.7463634206	 0.9516239672	 0.142375
H	-0.3922891767	-0.5582832316	 0.6981187151	 0.257802
H	 1.7756832639	-3.1963130888	-2.8104894369	 0.116803
H	 1.2765299509	 0.7893675477	-2.3380279375	 0.271854
H	-0.6811041426	-4.5865231293	 1.1775471041	 0.180199
