20
gdb 14529	4.1109	1.36356	1.35638	1.331	75.19	-0.2338	0.0669	0.3008	1035.9025	0.176447	-348.975966	-348.96747	-348.966525	-349.009282	31.922	
O	-0.0072205701	 1.3707334309	 0.2431497595	-0.474139
C	 0.0601452883	-0.0239507849	 0.0651732914	 0.41619
C	 1.103484638	-0.6040783585	-0.8538971763	-0.332513
C	 1.2158339753	-0.791472543	 0.6527359396	-0.332715
C	-1.3236321337	-0.6139297463	 0.0942104859	 0.022871
C	-2.2559354617	-0.2829368171	 1.2971948933	-0.23306
C	-3.4404603122	-0.1743487739	 0.2997578913	-0.21264
C	-2.4108362424	-0.0238920365	-0.8522025486	-0.232837
H	 0.883465743	 1.7319369446	 0.2204119021	 0.279965
H	 0.8465079497	-1.4608216215	-1.4681208319	 0.11526
H	 1.7981503924	 0.0841612193	-1.3265179147	 0.104397
H	 1.9846998494	-0.2267961226	 1.1719882173	 0.104449
H	 1.0363759759	-1.7769013236	 1.0700606451	 0.115267
H	-1.244056194	-1.6971331089	-0.0422955063	 0.060945
H	-2.3270996728	-1.0194204761	 2.101621469	 0.087494
H	-1.9968196813	 0.6880351519	 1.7254001053	 0.117145
H	-3.9981825825	-1.1129275535	 0.2267501953	 0.09527
H	-4.1535371579	 0.6397818193	 0.4488108975	 0.094241
H	-2.198502966	 1.0251124657	-1.0707603333	 0.116936
H	-2.6073001872	-0.5505051456	-1.7895419015	 0.087473
