21
gdb 102473	2.18946	1.05023	0.80531	2.6731	76.33	-0.253	-0.0307	0.2223	1502.1635	0.178777	-461.36657	-461.355572	-461.354628	-461.403545	38.194	
C	-0.0492159854	 0.9399310824	 0.9869264861	-0.389164
C	-0.0117175418	-0.4260714183	 0.2983561575	-0.193683
C	 0.5031929256	-0.3422905176	-1.1500145356	 0.034727
O	 1.8210256544	 0.1377096141	-1.0994497796	-0.226446
C	 2.3779003939	 0.4707351346	-2.3555797393	-0.244627
C	 0.4076680086	-1.7239824647	-1.8063767901	 0.332745
O	 1.3442153345	-2.4915705945	-1.8516755874	-0.323747
C	-0.9206947673	-2.1394842004	-2.4302642976	-0.134895
O	-0.8801626209	-3.4636962945	-2.8671991662	-0.419518
H	 0.9420197112	 1.3980355656	 0.9837164591	 0.141675
H	-0.740597204	 1.6207234687	 0.4780151982	 0.112792
H	-0.3809510919	 0.8398856258	 2.0244740024	 0.117369
H	 0.6502143975	-1.1097071085	 0.8415076489	 0.127634
H	-1.0102143386	-0.877052143	 0.2979457942	 0.104915
H	-0.1402291147	 0.3525343731	-1.7218750224	 0.069351
H	 2.4989794368	-0.4107241263	-2.9974546831	 0.12621
H	 1.7623790908	 1.2165066594	-2.8824334291	 0.10316
H	 3.3621429519	 0.9018920982	-2.1605988073	 0.133922
H	-1.7350120982	-1.9879155665	-1.7048206206	 0.118961
H	-1.12084401	-1.4404978239	-3.2627146785	 0.11431
H	 0.0412480377	-3.7412097734	-2.7344068196	 0.294309
