20
gdb 56822	2.30241	1.22884	0.93087	3.843	79.67	-0.2813	0.014	0.2953	1314.4526	0.169174	-403.145546	-403.135256	-403.134312	-403.181186	36.934	
C	-0.386422742	 0.9608832986	-1.6655630243	-0.405423
C	-0.0132063025	-0.2270889803	-0.8027973078	-0.047547
C	 1.4143095851	-0.6035531435	-0.4675703229	-0.021034
C	 2.6237788528	 0.1601956576	-0.9678769893	-0.417352
C	 0.4900732487	-0.0833163681	 0.6197431003	-0.055688
C	 0.6625148302	 1.2815148822	 1.2578784508	-0.028755
O	-0.5656075934	 1.8710834282	 1.6555044456	-0.413078
C	 1.5944512253	 1.1905833798	 2.4063733898	 0.26325
N	 2.3033125104	 1.0986262567	 3.3145462255	-0.321765
H	 0.3161110468	 1.7929733045	-1.5781432079	 0.116637
H	-0.4136006568	 0.6715239954	-2.7213406856	 0.11955
H	-1.3758223332	 1.3411538643	-1.3930928413	 0.132672
H	-0.6826924511	-1.0721765501	-0.9438626988	 0.090586
H	 1.5979241867	-1.6729554976	-0.4025768023	 0.093447
H	 2.4425467428	 1.2317422773	-1.0807842519	 0.118299
H	 3.4698657948	 0.039635833	-0.2834809703	 0.136576
H	 2.9321040533	-0.2180207216	-1.9483061113	 0.124646
H	 0.1395719609	-0.8250855778	 1.3345733624	 0.091849
H	 1.0943259543	 1.9901879457	 0.5473601101	 0.131849
H	-1.0107785033	 1.2585652558	 2.2524406693	 0.291281
