20
gdb 80296	2.43435	1.51661	1.24192	3.0364	80.11	-0.243	0.0278	0.2708	1118.3844	0.171023	-403.164744	-403.156014	-403.15507	-403.197827	33.561	
C	-0.4277603113	 1.4312840743	-0.0946445771	-0.428714
C	-0.0706426542	-0.0346124097	 0.0211855029	-0.089697
C	 1.2919307073	-0.5855957847	-0.3158874706	 0.033394
O	 2.3548464052	 0.3408905336	-0.4380662964	-0.232851
C	 2.6266205047	 0.926780577	 0.7735679759	 0.404278
N	 3.4856486296	 1.833712437	 0.9495131616	-0.540019
C	 1.7359753796	 0.3280777684	 1.8501094782	-0.380158
C	 0.8147890994	-0.6334603609	 1.113038863	 0.281793
C	 0.4027917468	-1.9114260711	 1.8042831844	-0.484205
H	 0.4118930965	 2.0902494006	 0.1366794097	 0.141956
H	-0.7547519377	 1.6657719303	-1.1130361535	 0.125344
H	-1.2477111895	 1.6856273649	 0.5853961012	 0.121312
H	-0.8781592404	-0.7037778951	-0.270181955	 0.088204
H	 1.4308457991	-1.4524709265	-0.9515098188	 0.103661
H	 3.9483319868	 2.0650592913	 0.0687334325	 0.222494
H	 2.3562164832	-0.2085179411	 2.5758712346	 0.133132
H	 1.2223956892	 1.1239249215	 2.3964746479	 0.136821
H	-0.2561472503	-1.707407114	 2.6561721466	 0.124354
H	-0.1386257846	-2.5746333559	 1.1223632497	 0.118137
H	 1.2748146909	-2.45813022	 2.1816492031	 0.120765
