16
gdb 128123	1.99835	1.69031	0.95387	3.5209	69.48	-0.2105	-0.0339	0.1766	1190.8138	0.123931	-471.165644	-471.156797	-471.155852	-471.199825	31.239	
C	-0.2654468563	 1.3295315202	-0.1564900971	-0.326507
N	 0.088685871	-0.0703622318	 0.0372758324	-0.393916
C	 0.6641213515	-0.7632886989	-1.0050668246	 0.259704
C	 0.7508508032	-2.1120803596	-1.2256981443	 0.266473
C	 0.198348329	-3.2777271114	-0.47623311	-0.192799
O	-1.0902519913	-2.9816102904	 0.0580063742	-0.406171
O	 1.4616837475	-2.292457128	-2.3537284586	-0.208818
N	 1.8154348054	-1.0198142314	-2.8290277748	-0.021679
N	 1.3390790188	-0.1524953739	-2.0352578984	-0.19259
H	 0.6248707746	 1.8963541453	-0.4362295861	 0.156982
H	-1.024609559	 1.4871588633	-0.9371692999	 0.115971
H	-0.6442373546	 1.7251709434	 0.7883581362	 0.126594
H	-0.6058140591	-0.6274164033	 0.5158504132	 0.248995
H	 0.1882702405	-4.1645558664	-1.1234942505	 0.130697
H	 0.8196374761	-3.5154874704	 0.3948692638	 0.143802
H	-1.6930726373	-2.8649631068	-0.6849087654	 0.293261
