23
gdb 88772	3.46047	1.00969	0.85948	0.2076	90.8	-0.2332	0.0315	0.2647	1431.0868	0.206752	-351.159046	-351.150021	-351.149076	-351.19322	34.818	
C	 0.1220139667	 1.5528466441	-0.3640021163	-0.407295
C	 0.037182894	 0.0685795376	-0.0788925761	 0.000678
C	 1.2724900143	-0.8006387037	-0.0892062794	-0.311947
C	 0.532099805	-0.5593874784	 1.2072578016	 0.001101
C	 1.1555227181	 0.2291200604	 2.3363193782	 0.027751
C	 0.1326625427	 0.8788934108	 3.3130397305	-0.268673
C	 0.83536971	 0.8162432534	 4.6479914619	-0.062509
C	 1.8965857381	 0.0118883912	 4.6150416901	-0.062617
C	 2.0938025886	-0.6093349987	 3.2531962882	-0.267902
H	 1.047588228	 1.991938236	 0.0193417521	 0.116669
H	 0.096696025	 1.7415100674	-1.4431721492	 0.11451
H	-0.7156166085	 2.097429862	 0.0868278153	 0.115414
H	-0.8560036015	-0.3971155511	-0.4888318798	 0.07874
H	 1.2269830395	-1.7820122732	-0.5490111898	 0.104869
H	 2.2283538426	-0.2993762128	-0.214025246	 0.10451
H	-0.0671315868	-1.3974675701	 1.5603841721	 0.074649
H	 1.7628819081	 1.0388326187	 1.9170775103	 0.069113
H	-0.1378174443	 1.8970286187	 3.0106703337	 0.09987
H	-0.8086495025	 0.3095056838	 3.3421926357	 0.099633
H	 0.4745840564	 1.3422209371	 5.5254842672	 0.086911
H	 2.5336760381	-0.2195269936	 5.4620111714	 0.087051
H	 1.7992385897	-1.6696593247	 3.2646586269	 0.100119
H	 3.1346285085	-0.5876610947	 2.9108949814	 0.099356
