23
gdb 108474	1.98394	1.52002	1.24556	1.9515	84.64	-0.2366	0.076	0.3125	1200.5246	0.205216	-388.265077	-388.255593	-388.254649	-388.299907	35.821	
C	-0.1443393729	 1.4048360101	 0.2514886009	-0.390345
C	-0.1636096149	-0.0715326599	-0.1628634336	-0.293392
C	 0.7766972824	-0.441009283	-1.2984525012	 0.299829
C	 1.1405507083	-1.9353853763	-1.4415941103	-0.136603
O	 2.5569420153	-1.6511847709	-1.4803291856	-0.293069
C	 2.3264002172	-0.2389862168	-1.3076696615	 0.075681
C	 2.247792306	 0.5160678016	-2.6516602949	-0.256009
C	 0.6927758592	 0.3408351763	-2.6570941579	-0.025269
C	 0.0395902306	-0.3110961416	-3.8693944209	-0.419684
H	 0.8650923136	 1.7233048713	 0.5337501737	 0.118668
H	-0.4901967183	 2.0645044139	-0.5500462138	 0.121419
H	-0.7970372288	 1.5710707751	 1.1137621544	 0.115773
H	 0.0913567608	-0.6854620027	 0.7109160002	 0.099938
H	-1.1878160756	-0.3588486439	-0.4422747391	 0.098291
H	 0.8797828859	-2.5391965737	-0.5613100492	 0.092689
H	 0.7946302107	-2.4614414281	-2.3389891174	 0.097117
H	 2.9207232146	 0.1835432745	-0.4920239454	 0.06818
H	 2.5796888381	 1.5572263458	-2.6127863097	 0.096619
H	 2.7838448251	 0.0014635732	-3.4534160316	 0.106447
H	 0.2104809534	 1.3071082398	-2.483116533	 0.072128
H	 0.538250994	-1.2432209206	-4.1538575566	 0.122999
H	-1.0168466644	-0.5375243096	-3.6842312303	 0.112276
H	 0.0863320298	 0.3582281355	-4.7354773273	 0.116316
