14
gdb 10477	3.37789	1.29256	1.00251	2.0675	74.06	-0.2511	0.0018	0.2529	1161.4922	0.103316	-345.314455	-345.305682	-345.304738	-345.349207	30.347	
C	-0.0212541021	 1.4527075335	-0.0068203848	-0.503738
C	 0.0083249574	-0.0011898612	 0.0102627713	 0.098776
C	 0.0273252517	-1.2046580523	 0.0191009197	 0.003452
C	 0.0684083205	-2.6465958751	 0.0253913031	 0.123933
C	-0.5934613792	-3.3984955116	 1.1254784479	-0.20585
O	-1.2037801437	-3.3187932931	-0.149567707	-0.256438
C	 1.184865969	-3.2543881447	-0.6622173968	 0.272334
C	 2.1211279404	-3.7511531069	-1.2273887662	-0.455073
H	 0.7493262007	 1.8540819299	-0.6736218301	 0.156497
H	-0.9911630357	 1.8204108802	-0.3588583846	 0.157544
H	 0.1506161336	 1.8671321898	 0.9924678819	 0.152775
H	-0.1938983186	-4.3726142417	 1.4025787	 0.127352
H	-1.0737156643	-2.8298955789	 1.920026213	 0.125945
H	 2.9454140402	-4.1901025081	-1.7332666973	 0.202493
