17
gdb 2028	7.10062	1.6816	1.5918	1.9269	64.62	-0.2566	0.0786	0.3352	831.7555	0.147951	-309.691463	-309.684523	-309.683579	-309.722221	26.403	
C	-0.6589292603	 1.2952419912	-0.1035785306	-0.404725
C	 0.2006612846	 0.0499326992	 0.0458639115	 0.054596
C	 1.4852522479	-0.0737835138	-0.8351679735	-0.326914
C	 2.2099278897	-0.5928081773	 0.4068760657	 0.472133
C	 3.0404275114	-1.7890516346	 0.5512989943	-0.266343
O	 3.5957446163	-0.468837472	 0.6587948678	-0.272095
C	 1.0943744646	-0.0848952379	 1.3205389236	-0.326914
H	-0.0561368273	 2.2034179622	 0.0104052345	 0.114632
H	-1.1363033694	 1.3336420678	-1.089066168	 0.115798
H	-1.4519811874	 1.3246634309	 0.6519010408	 0.115798
H	-0.4158289656	-0.8472692595	-0.0705442014	 0.074863
H	 1.446704137	-0.7195378269	-1.7159175989	 0.101903
H	 1.8680524079	 0.9086684805	-1.1320030884	 0.110092
H	 3.0150012658	-2.3603669017	 1.4789533048	 0.112591
H	 3.3433466176	-2.3510349147	-0.3318798341	 0.112591
H	 1.346810132	 0.8938508981	 1.742665787	 0.110092
H	 0.7502249552	-0.7393372914	 2.1251949351	 0.101903
