15
gdb 21317	7.32756	1.12977	0.99941	1.3471	63.19	-0.2554	-0.0022	0.2532	1130.5948	0.120422	-395.969314	-395.961696	-395.960752	-396.002795	25.993	
C	 0.0968761982	 1.3882326577	 0.0513016628	-0.223392
O	 0.1931133731	-0.016167973	 0.0902982896	-0.234169
C	 0.5804352583	-0.5693134045	-1.1480676968	-0.166604
C	 0.5759541921	-2.0581073168	-1.0161044595	 0.293653
N	 1.3324170447	-2.843765652	-1.7847304273	-0.278681
N	 1.0138205457	-4.0648829174	-1.3726558747	-0.073679
N	 0.1239710016	-4.1505179783	-0.3948468723	-0.194648
C	-0.1747741567	-2.8739930984	-0.1504022495	-0.11122
H	 1.0621385465	 1.8564358454	-0.1973202783	 0.108294
H	-0.6482457325	 1.7260193025	-0.6864036948	 0.106709
H	-0.2118315618	 1.7207632475	 1.0448951083	 0.131093
H	-0.1190732207	-0.2516978056	-1.9417367357	 0.105222
H	 1.5816699548	-0.2235458294	-1.4502432985	 0.111681
H	 1.4406375741	-4.8841996457	-1.7732978157	 0.292317
H	-0.8798732172	-2.5960086819	 0.6144672127	 0.133422
