19
gdb 38527	3.28279	1.63586	1.32108	1.65	80.39	-0.2316	0.0152	0.2468	1003.0058	0.162312	-385.887833	-385.88094	-385.879996	-385.918997	28.286	
C	-0.0009857149	 1.4850015966	 0.0216913402	-0.286508
C	 1.3289225719	 0.7764133358	 0.0316245796	-0.032708
C	 1.9966765644	 0.5537801937	 1.4005558788	-0.336688
C	 0.8602644722	-0.0093207446	 2.1967693986	 0.293471
C	 0.2772299336	 0.1876509486	 3.3718929575	-0.262609
C	-1.0975822352	-0.4442727119	 3.3420825769	-0.112688
O	-1.3337233927	-0.7664182755	 1.9681371526	-0.282795
C	-0.0836518464	-0.7653809199	 1.2883411491	 0.086838
C	 0.0253166008	-0.0202823803	-0.0322838899	-0.064579
H	-0.3485770524	 1.9619535126	 0.9326263996	 0.118484
H	-0.2801647311	 2.0033894904	-0.8886226264	 0.110104
H	 1.9670323029	 0.8639512916	-0.8404503223	 0.08353
H	 2.8159266893	-0.1699036227	 1.2953090166	 0.112016
H	 2.4181970375	 1.4659025714	 1.8348841307	 0.111438
H	 0.6545859298	 0.7477841344	 4.2183719542	 0.101753
H	-1.1604419934	-1.3518244909	 3.9672547892	 0.098737
H	-1.8826115613	 0.242001338	 3.6872586814	 0.109216
H	 0.2441962928	-1.8083201209	 1.1265825557	 0.069968
H	-0.2751185881	-0.5193503462	-0.9459084221	 0.08302
