14
gdb 53768	4.00593	0.62037	0.54686	6.6424	70.16	-0.2695	-0.0397	0.2298	1874.5918	0.098214	-473.834203	-473.824254	-473.82331	-473.872436	32.29	
N	-0.0652969106	 1.0707969266	-0.0765649357	-0.521033
C	-0.185647301	-0.2725547676	-0.2762178282	 0.276261
O	 0.7154656812	-0.9826125769	-0.6734703832	-0.323919
C	-1.5167553269	-0.7962688109	 0.0161796195	 0.032377
C	-2.5913343346	-1.2943519061	 0.2378738747	 0.083966
C	-3.8883349441	-1.9084553958	 0.4897924418	-0.255196
O	-3.7919174467	-3.2998812129	 0.8278195269	-0.166021
C	-3.6672862418	-4.1674127394	-0.2044458155	 0.186749
O	-3.5701529268	-5.3427718467	-0.0375693869	-0.258272
H	 0.8420951265	 1.488931015	-0.2041209442	 0.271574
H	-0.8039702071	 1.6106831244	 0.3393570354	 0.268712
H	-4.3807317083	-1.4396552484	 1.3458111687	 0.164881
H	-4.5423308597	-1.7721304326	-0.3819597214	 0.150693
H	-3.6779384	-3.6683919188	-1.192360952	 0.089228
