17
gdb 63597	4.98162	0.69475	0.65839	1.8835	94.31	-0.2429	-0.029	0.214	1705.1762	0.131631	-384.626441	-384.616594	-384.61565	-384.661259	35.83	
C	-0.1638137351	 1.5339974249	-0.0997895696	-0.458272
C	-0.0632726234	 0.0317537557	 0.0284970861	 0.408632
C	-1.1863285807	-0.7654102419	-0.5986361228	-0.452744
O	 1.2445585796	-0.5141089525	-0.1751242483	-0.271443
C	 0.6945717462	-0.5806513834	 1.1543644942	-0.317056
C	 1.3327470908	 0.1888750652	 2.182356417	 0.418299
C	 1.8582251883	 0.8071711435	 3.0817884039	-0.149148
C	 2.4489727038	 1.5068110467	 4.0864902145	 0.290482
C	 2.9727023529	 2.1281590356	 4.9799659549	-0.561631
H	 0.6780106518	 2.0271816961	 0.3886071351	 0.143499
H	-0.1689797933	 1.8174675539	-1.157611246	 0.127776
H	-1.0933455381	 1.8974625794	 0.3503716972	 0.124983
H	-1.2472998412	-0.5493807021	-1.6707361482	 0.130784
H	-1.0209048669	-1.8384331216	-0.4760425029	 0.130331
H	-2.148756522	-0.5026778779	-0.1477259598	 0.126775
H	 0.4039640708	-1.5865610509	 1.4598681318	 0.114024
H	 3.4350740063	 2.6745087894	 5.7642247431	 0.19471
