19
gdb 80876	2.24176	1.9365	1.54556	2.8894	74.76	-0.2122	0.0698	0.282	963.9832	0.160486	-419.128181	-419.120387	-419.119443	-419.15985	31.624	
C	-0.0084468118	 1.4856574987	 0.0104361568	-0.517402
C	-0.0432404016	-0.0197229108	 0.016638537	 0.285496
N	 0.4661955603	-0.7686089456	-1.1944199923	-0.324075
C	-0.2958372241	-1.9231811473	-0.6038180029	-0.106143
C	 0.4859767615	-2.1803386268	 0.6979103383	-0.01355
N	 1.8446108874	-1.584875623	 0.7266930951	-0.323944
C	 0.6692398482	-0.7898137174	 1.1566689415	-0.061187
C	-1.3517979582	-0.8685600823	-0.105489858	 0.097533
O	-2.1103099591	-1.0566543963	 1.0630282565	-0.437104
H	 1.022856968	 1.8422552341	-0.074001531	 0.138148
H	-0.5827554911	 1.897785822	-0.8265400057	 0.109407
H	-0.4341071484	 1.883840378	 0.9374364919	 0.1266
H	-0.0728380117	-0.4326499916	-1.9943663712	 0.210108
H	-0.5382328363	-2.7615334359	-1.2571025405	 0.063018
H	 0.2207423006	-2.9998449714	 1.3532387589	 0.090858
H	 2.2995245636	-1.9242405005	 1.5741703028	 0.224462
H	 0.5538794348	-0.4699818557	 2.1846590362	 0.092053
H	-1.9738343601	-0.5102660339	-0.9386373483	 0.060715
H	-2.9299463622	-1.5032245344	 0.830250895	 0.285005
