15
gdb 132574	3.1281	1.41097	0.97886	2.3824	74.24	-0.2192	-0.0348	0.1844	1136.0653	0.112875	-458.161477	-458.153445	-458.152501	-458.194204	30.036	
C	-0.0156734449	 1.5216032543	 0.0028577523	-0.486181
C	-0.015175343	 0.01988668	-0.01378662	 0.168363
N	-0.0509566004	-0.6360604216	-1.1779392002	-0.273349
C	-0.0523617418	-1.9634485989	-1.1658524718	-0.086867
C	-0.0137880163	-2.691712676	 0.0358334519	 0.363014
N	-0.0677497348	-4.0659546272	 0.0720693442	-0.5696
N	 0.031276675	-2.0497101677	 1.2116463638	-0.360892
C	 0.0255469317	-0.7411636199	 1.1579751534	 0.276867
F	 0.0699546299	-0.1033968915	 2.3267641385	-0.065367
H	 0.8788691503	 1.9182285272	 0.4955253351	 0.135189
H	-0.0470611255	 1.8912708408	-1.0231398748	 0.139279
H	-0.8796895768	 1.9166042397	 0.5484707171	 0.135948
H	-0.0858999835	-2.4730384641	-2.1254501418	 0.102159
H	 0.2393759752	-4.5613494424	-0.7493995462	 0.25865
H	 0.2178330947	-4.4775594826	 0.9474870786	 0.262787
