23
gdb 97925	3.66259	0.65396	0.62909	0.1814	95.38	-0.2403	0.0574	0.2977	1945.7204	0.203715	-351.129639	-351.118805	-351.117861	-351.168188	39.124	
C	-0.5958131266	 1.363914144	-0.4215899176	-0.362568
C	 0.294936405	 0.2126507982	 0.0801056419	-0.312583
C	 1.083458162	-0.4065039909	-0.9811070898	 0.078585
C	 1.7278573563	-0.8932123075	-1.875586892	 0.062017
C	 2.5015280192	-1.507792556	-2.9532601039	-0.432984
C	 2.0331996323	-2.9171975398	-3.3205711958	 0.393494
C	 2.1604949539	-3.9385685268	-2.2084922315	-0.457801
C	 0.8744969898	-3.0343342998	-4.2774007487	-0.286999
C	 2.2755995259	-3.3671405247	-4.7404051544	-0.317027
H	 0.009712869	 2.1550293433	-0.8722816576	 0.126338
H	-1.3005663131	 1.0078059855	-1.1779644474	 0.126412
H	-1.1665623851	 1.7955170399	 0.4063028897	 0.11166
H	 0.9661142725	 0.5858478992	 0.8646480111	 0.125394
H	-0.3317217185	-0.5496601142	 0.5610764771	 0.125721
H	 2.4534315786	-0.8691007799	-3.8446957769	 0.11821
H	 3.5623217151	-1.5445646051	-2.6664644895	 0.121091
H	 1.5826962808	-3.6329422538	-1.330123582	 0.128371
H	 1.79698896	-4.9191993452	-2.5305222019	 0.109119
H	 3.2056971663	-4.0556074196	-1.8971110153	 0.110737
H	 0.1747630626	-3.8512509808	-4.1361273315	 0.107548
H	 0.4184102614	-2.121179649	-4.6452962894	 0.110957
H	 2.7633924102	-2.6805384517	-5.4250177388	 0.106285
H	 2.5251915126	-4.4095428552	-4.9089250259	 0.108022
