19
gdb 100150	3.70535	0.82577	0.80777	2.0241	68.93	-0.2736	0.0028	0.2764	1462.4772	0.155919	-497.317498	-497.307129	-497.306185	-497.35339	36.938	
C	-0.1094166086	 1.6222618238	-0.0230638956	-0.44283
C	-0.05510641	 0.1107778548	-0.2485276617	 0.298458
O	 0.8204507408	-0.5142025497	 0.7034627689	-0.476391
C	-1.4232177301	-0.5486473349	 0.0045105397	-0.062265
O	-1.843148199	-0.3626950332	 1.3368748394	-0.421153
C	 0.4389422744	-0.241277713	-1.6592957814	-0.111785
O	 1.7681007873	 0.248058051	-1.8543378928	-0.186548
C	 2.7848545812	-0.6219463075	-1.6708986724	 0.162921
O	 3.9279964807	-0.278325977	-1.6703117937	-0.27516
H	 0.8834374771	 2.0667234536	-0.1430814775	 0.13211
H	-0.7765485341	 2.1003098237	-0.7470014822	 0.124174
H	-0.48837123	 1.8309830917	 0.9794621727	 0.138627
H	 1.5342590094	 0.0980290077	 0.9094242705	 0.299192
H	-2.1845561291	-0.1002005222	-0.6417316839	 0.110914
H	-1.3516837679	-1.6195156654	-0.2462019252	 0.090957
H	-1.0958878434	-0.6429297741	 1.8808612657	 0.28949
H	 0.4164406653	-1.3291306489	-1.798323006	 0.115481
H	-0.1838163479	 0.2253086288	-2.4274541626	 0.124741
H	 2.4390871838	-1.6639144493	-1.5406468419	 0.089067
