19
gdb 37461	2.74752	2.10362	1.78611	1.9173	75.98	-0.2155	0.0663	0.2818	865.3199	0.164488	-382.026872	-382.020712	-382.019767	-382.056997	26.821	
C	-0.0444454844	 1.5470951725	-0.1777646058	-0.23189
C	 1.4382296062	 1.956184255	 0.0251555885	-0.195343
C	 2.043218638	 0.8034573071	 0.8522466218	-0.021262
C	 1.7559312086	 0.9297097666	 2.3563926206	-0.045089
N	 0.4533176238	 1.5622088701	 2.671264429	-0.338434
C	 0.5736493894	 0.0872115493	 2.6419898621	-0.043735
C	 0.2246584151	-0.6250466185	 1.3601470574	-0.030037
C	-0.0341816414	 0.0372923815	 0.0463218466	-0.034686
N	 1.3312864941	-0.4411976737	 0.3740003522	-0.130445
H	-0.7020029846	 2.0681812258	 0.5160558908	 0.131199
H	-0.3819632197	 1.7592130468	-1.1966055694	 0.089789
H	 1.9475135596	 2.0157541677	-0.941595463	 0.09867
H	 1.5458258641	 2.920800526	 0.5260987598	 0.10423
H	 3.1140192773	 0.6773190416	 0.6790325097	 0.07643
H	 2.5775310892	 1.0461444243	 3.0558277392	 0.08693
H	 0.459727338	 1.8730073971	 3.6408390377	 0.229698
H	 0.4625055814	-0.4644042871	 3.5694518956	 0.088297
H	-0.1206943216	-1.6495187166	 1.4795291633	 0.082485
H	-0.557644343	-0.5678125656	-0.691533086	 0.083192
