19
gdb 126777	2.47485	1.33943	0.93376	2.5532	79.39	-0.2076	0.03	0.2375	1282.7078	0.15948	-419.244968	-419.235642	-419.234698	-419.27958	34.11	
C	-0.1424823305	 1.5828501866	-0.1581271182	-0.373305
C	 0.0696106237	 0.069555625	-0.0726048089	-0.14133
N	 0.8045663606	-0.4616906643	-1.2042421418	-0.025969
N	 0.1609199398	-0.5845725744	-2.4012890819	-0.385928
C	 1.0970786542	-1.0161448851	-3.2312647035	 0.447611
O	 0.8291376105	-1.2711981888	-4.5301534735	-0.432744
C	 2.347874485	-1.1730785899	-2.6032593191	-0.426668
C	 2.1185914212	-0.7992468344	-1.290513348	 0.399503
C	 3.0599932404	-0.7518075964	-0.1305003588	-0.506222
H	 0.8131245242	 2.1160740488	-0.1517906565	 0.121528
H	-0.6700499103	 1.8350104555	-1.0811761384	 0.145433
H	-0.7375159554	 1.9314056692	 0.6917812224	 0.11628
H	 0.6176475751	-0.1953613436	 0.8355268807	 0.116096
H	-0.8951020083	-0.4454808608	-0.0382015833	 0.128504
H	-0.1067075807	-1.0766128168	-4.6651059925	 0.299676
H	 3.2722345481	-1.5154769069	-3.0373584882	 0.104563
H	 3.154059133	 0.2572282661	 0.2867967911	 0.135439
H	 2.7455693089	-1.4158525184	 0.6830315732	 0.136944
H	 4.0531669906	-1.0711324514	-0.4526027752	 0.14059
