17
gdb 38510	3.76899	1.42989	1.13348	2.0054	73.16	-0.2277	0.0028	0.2305	1054.7684	0.137825	-421.807699	-421.80074	-421.799796	-421.839192	27.081	
C	-0.0665204151	 1.4777471293	 0.0370830113	-0.180181
O	 1.2660062879	 1.8992899032	-0.2814521814	-0.273959
C	 2.1031172895	 0.7746392383	-0.5856968597	-0.190501
C	 1.2418836321	-0.409389877	-0.282772378	 0.25297
C	 0.0215865687	-0.0142814753	 0.0813689385	 0.222335
C	-0.9194999016	-1.1631440103	 0.3424925228	-0.386122
C	-0.0385691689	-2.371206375	-0.0095487988	 0.060215
O	 0.392874507	-2.4221185771	-1.3688942655	-0.251446
C	 1.3109993205	-1.8914449613	-0.3824213508	-0.134075
H	-0.3666532109	 1.9300007335	 0.9942280959	 0.10817
H	-0.7741062093	 1.8376244514	-0.7282727444	 0.107177
H	 2.4171557304	 0.8099488838	-1.6413938367	 0.111078
H	 3.0140581217	 0.8318789865	 0.027971731	 0.108204
H	-1.256638927	-1.208474021	 1.3858187917	 0.116482
H	-1.8185465302	-1.1300374135	-0.2845686643	 0.130744
H	-0.2202484518	-3.3363403198	 0.4561694932	 0.099611
H	 2.220715027	-2.4667423558	-0.2425411847	 0.099299
