16
gdb 8202	2.91453	2.45253	1.74015	1.9832	64.94	-0.2295	0.014	0.2435	789.3964	0.129879	-383.725155	-383.717878	-383.716934	-383.755941	29.022	
O	 0.0191040419	 1.3294211747	 0.0649953985	-0.48364
C	 0.030412221	-0.0587013743	-0.0174246179	 0.394845
C	-0.3763498475	-0.8604507973	 1.203869527	-0.398128
C	-1.2766136321	-0.8220264068	-0.0220825164	 0.271374
O	-2.4604058004	-0.0774449595	 0.0011612064	-0.473897
C	-1.0921507157	-1.9247087264	-1.0122573282	-0.137438
C	 0.1295946232	-1.8827333331	-1.5511195563	-0.075027
C	 0.9485270173	-0.7095607818	-1.0460886662	-0.327676
H	-0.9030653775	 1.600602308	-0.042903435	 0.28854
H	 0.1240890475	-1.7903412089	 1.4550860854	 0.111835
H	-0.685486035	-0.2485566504	 2.0463770882	 0.110387
H	-2.9872969702	-0.3533288369	 0.7576176125	 0.291244
H	-1.8589070588	-2.6623135878	-1.2200772262	 0.09555
H	 0.5297842345	-2.608867679	-2.2494930202	 0.09835
H	 1.1840432111	 0.0020195942	-1.8472021857	 0.119888
H	 1.9044351606	-1.0295170747	-0.6140187059	 0.113794
