16
gdb 32558	2.59605	1.49192	0.953	4.9663	74.95	-0.2124	-0.008	0.2044	1164.6986	0.126184	-437.939685	-437.93158	-437.930636	-437.972547	30.258	
O	-0.0029681415	 1.4373989052	 0.0069266969	-0.431787
C	-0.0058511142	 0.0175408801	 0.0021784743	-0.15355
C	-1.4184049046	-0.4836772889	 0.0122905706	 0.082414
C	-2.4793465832	 0.3572796982	 0.02333492	-0.050035
N	-3.764542069	-0.1210293504	 0.0324723918	-0.328368
C	-4.0146167313	-1.4645195098	 0.0307969292	 0.02053
C	-3.00100673	-2.3633163919	 0.0199942372	-0.235158
C	-1.6045147101	-1.9400505196	 0.0096037527	 0.319042
O	-0.6497008622	-2.7183167072	-0.0001678336	-0.406705
H	 0.9113932342	 1.7317446197	 0.000850206	 0.292357
H	 0.5068683766	-0.3916709591	-0.8821477424	 0.115919
H	 0.5215361984	-0.3976744306	 0.8749863717	 0.115952
H	-2.3628103217	 1.4327960588	 0.0254773315	 0.150198
H	-4.5322245315	 0.5285742866	 0.0406499266	 0.267509
H	-5.0608766811	-1.7466899794	 0.0386041003	 0.131259
H	-3.211219299	-3.4256769516	 0.0188137871	 0.110422
