17
gdb 94490	3.76603	0.80412	0.71301	2.0614	91.35	-0.245	-0.0283	0.2167	1574.2283	0.133695	-384.61512	-384.605786	-384.604842	-384.650355	33.462	
C	-0.3585787019	 1.4813881655	-0.1186745692	-0.414134
C	 0.0313247585	 0.0136594275	-0.1052394745	-0.034212
C	 1.4119390144	-0.3733282591	-0.6767684597	-0.076083
O	 1.8184580131	-0.9864830216	 0.5660461423	-0.273237
C	 0.5812925484	-0.6141674203	 1.2219464203	-0.132177
C	 0.7736589906	 0.26425285	 2.3612384487	 0.521328
C	 0.9200452736	 0.9876746579	 3.3215431935	-0.320641
C	 1.0866160428	 1.8036464017	 4.3966972599	 0.305358
C	 1.2323174156	 2.5281827931	 5.3517964138	-0.561398
H	 0.4355918075	 2.1077714596	 0.2979838649	 0.134256
H	-0.5532984259	 1.8135878117	-1.1439913846	 0.118814
H	-1.2654179795	 1.6569520611	 0.4684586527	 0.127339
H	-0.7763275972	-0.5995132449	-0.5120918652	 0.089893
H	 1.414117895	-1.091420306	-1.5045999557	 0.105564
H	 2.054719355	 0.4772987116	-0.9384343758	 0.105815
H	 0.0329404616	-1.5086192951	 1.5465163637	 0.10936
H	 1.3626675883	 3.1647524274	 6.191503945	 0.194155
