21
gdb 59769	2.44652	1.39924	0.97049	2.2227	74.52	-0.2484	0.0574	0.3057	1251.8539	0.182534	-461.36758	-461.358262	-461.357318	-461.401836	35.336	
C	 0.0177814991	 1.5154189119	 0.0862364787	-0.410879
C	 0.0005385948	-0.0004010102	-0.0526789735	 0.101008
O	 0.7995641506	-0.6381305886	 0.9563435207	-0.442609
C	-1.4152338127	-0.5829152227	-0.0256677218	 0.078502
O	-2.1507850108	-0.044370312	-1.1163055107	-0.261236
C	-3.1722523045	-0.981464045	-1.4332611539	-0.086676
C	-2.5099034741	-2.3540291097	-1.2865552396	-0.229711
C	-1.4775160263	-2.1418221764	-0.1619332834	 0.102509
O	-0.2559569048	-2.74464303	-0.5389837138	-0.438958
H	 1.0432618957	 1.8920150611	 0.0409911835	 0.122211
H	-0.5690485348	 1.9729839258	-0.7137347736	 0.145528
H	-0.4224482489	 1.8241570874	 1.0433496267	 0.102625
H	 0.4625620856	-0.2969601506	-0.9980901173	 0.111636
H	 0.4790879941	-0.3457762938	 1.8172968004	 0.283719
H	-1.9026668765	-0.2905284244	 0.9245883685	 0.044421
H	-4.0222790205	-0.8719185057	-0.7390400468	 0.087077
H	-3.5263591665	-0.7637693149	-2.4439001211	 0.111567
H	-3.2217953391	-3.1539007997	-1.0723333475	 0.102271
H	-1.9564087667	-2.6132123972	-2.1928574972	 0.125296
H	-1.8345161418	-2.569788041	 0.7861113496	 0.05981
H	 0.4000746783	-2.4575762744	 0.1119766921	 0.291889
