15
gdb 129559	3.32964	1.10344	0.97901	5.7397	70.99	-0.2516	-0.0005	0.2511	1197.2432	0.115437	-413.005443	-412.997282	-412.996338	-413.039282	29.337	
N	 0.1583561906	 1.3716566478	 0.3191434146	-0.491737
C	-0.0507819192	-0.0558276879	 0.0108384515	-0.26653
C	-1.500499461	-0.3242170144	 0.0291733442	 0.305212
N	-2.6362581277	-0.534131879	 0.0207035649	-0.323434
C	 0.5664834907	-0.5553414275	-1.2735447443	 0.218742
C	 1.7227952993	-1.2997597273	-1.4066257678	-0.140446
N	 1.9251029294	-1.4562533768	-2.7354752715	-0.177306
N	 0.9766024044	-0.8702247028	-3.4900437454	-0.213541
C	 0.1497454482	-0.3222973086	-2.6076917158	-0.077261
H	 1.1584311658	 1.5536176732	 0.2982501888	 0.235534
H	-0.2441173994	 1.9354657862	-0.4253726815	 0.241748
H	 0.3820645	-0.6237546515	 0.8436825558	 0.135562
H	 2.3920592991	-1.720503094	-0.6722575831	 0.143195
H	 2.6704842597	-1.9550437926	-3.1915021912	 0.281525
H	-0.72607842	 0.2095225451	-2.9504936891	 0.128738
