16
gdb 6320	4.41436	1.1153	1.02307	2.4012	62.76	-0.2637	-0.0345	0.2291	1165.536	0.1263	-420.927853	-420.918429	-420.917485	-420.963676	31.181	
C	 0.0730139659	 1.442703187	-0.0768600692	-0.405602
C	-0.001626119	-0.066878983	 0.0942413929	 0.032113
O	-1.3639256094	-0.5354546771	 0.0959331956	-0.259497
C	-1.9620422388	-0.6725074436	 1.3072208579	 0.436788
C	-3.384396206	-1.1444337299	 1.1409406251	-0.480601
O	-1.4133905063	-0.4410454799	 2.3529784431	-0.343481
C	 0.7013957269	-0.8406629243	-1.0104142867	 0.151349
O	 1.6503444127	-0.4268259918	-1.6213174141	-0.240629
H	 1.1161014933	 1.7367360203	-0.2134450291	 0.147851
H	-0.4908078314	 1.7566432342	-0.9594938811	 0.13167
H	-0.3302195178	 1.9445880033	 0.8051001144	 0.136949
H	 0.4567687536	-0.3615086406	 1.0479407494	 0.141659
H	-3.9579128163	-0.4008593958	 0.5799085484	 0.155287
H	-3.4082765209	-2.0739273771	 0.5657926725	 0.152738
H	-3.8336108162	-1.2964564189	 2.1213154567	 0.152712
H	 0.2688338397	-1.848664323	-1.1951459657	 0.090693
