21
gdb 93790	2.27302	1.38376	1.06402	1.6701	78.8	-0.2315	-0.0181	0.2134	1226.8272	0.18302	-424.267032	-424.257952	-424.257008	-424.300685	34.848	
C	-0.0104258924	 1.5575047531	 0.0278227553	-0.401604
C	 0.0261977104	 0.0274490264	-0.0133260476	 0.024874
C	 0.6831285565	-0.5003307093	-1.2994162767	-0.186491
C	 0.7207462737	-2.0343725387	-1.3399576664	-0.235253
C	 1.4416506732	-2.6166272854	-0.1222971292	 0.034535
O	 2.8119793353	-2.2179665234	-0.2074232895	-0.434251
C	 0.8315869117	-2.0590105121	 1.1732491729	 0.350778
O	 0.4569641312	-2.7855102408	 2.0652369913	-0.315892
C	 0.7503944005	-0.5445260985	 1.2293093709	-0.287864
H	 1.0036489887	 1.9730966649	 0.0012424677	 0.116131
H	-0.5597017025	 1.9616987655	-0.828932729	 0.113343
H	-0.4959705988	 1.919985024	 0.9398076927	 0.114811
H	-1.010742158	-0.3397438348	 0.0108664348	 0.079107
H	 0.1406282356	-0.121959655	-2.1731612386	 0.092788
H	 1.7066417984	-0.1131654489	-1.3690255682	 0.114359
H	-0.3005929732	-2.4356026821	-1.3587236261	 0.105801
H	 1.2251825516	-2.3887816661	-2.2450698463	 0.109589
H	 1.3490995074	-3.7099063126	-0.0963929677	 0.079076
H	 3.2898797066	-2.6466596962	 0.510462805	 0.293193
H	 1.7761430746	-0.1527459633	 1.2440621025	 0.121813
H	 0.2565673094	-0.2528989769	 2.1598321924	 0.111156
