23
gdb 100050	2.30257	1.30412	1.06373	1.7123	82.05	-0.2523	0.0824	0.3346	1284.9386	0.201572	-425.399513	-425.388482	-425.387538	-425.435681	40.183	
C	-1.468397577	 0.2388295865	 1.9284313685	-0.243209
O	-1.2639719903	-0.5231847665	 0.7590924048	-0.279649
C	 0.0904073439	-0.7612369303	 0.3402998275	 0.334739
C	 0.8158941946	 0.5654288925	 0.0539685619	-0.436779
C	 0.8805491098	-1.5806665731	 1.3709952826	-0.423233
C	-0.051230771	-1.5206331682	-0.9920527432	 0.030934
O	 0.4620205044	-2.8528318409	-1.0928537192	-0.259168
C	-0.9501677774	-2.6576407324	-1.2498175396	 0.084014
C	-1.8783270503	-3.3053855114	-0.2559642816	-0.410977
H	-1.0157319371	-0.2176625129	 2.8194513715	 0.107484
H	-1.0932822298	 1.2675466831	 1.837380138	 0.106445
H	-2.5503796073	 0.2827963581	 2.0788793852	 0.126563
H	 1.0032000641	 1.1337516435	 0.9686601875	 0.114653
H	 1.7843404597	 0.3678889358	-0.4156759185	 0.125199
H	 0.2232032561	 1.1852754194	-0.6261032044	 0.121868
H	 0.3662967561	-2.5077004138	 1.6277686846	 0.128601
H	 1.8570512362	-1.849931121	 0.961350443	 0.130722
H	 1.0454953102	-1.0027752382	 2.2847972119	 0.107301
H	 0.1955282452	-0.905661961	-1.8599076491	 0.078798
H	-1.2771518005	-2.7675760023	-2.2872394642	 0.083045
H	-1.5661000295	-3.1386344578	 0.7735562748	 0.131337
H	-2.8855299859	-2.892759281	-0.3715060865	 0.124484
H	-1.929365814	-4.3834814182	-0.4441074155	 0.116828
