21
gdb 118407	1.40833	1.02954	0.61906	1.7848	84.24	-0.2447	0.0591	0.3039	1815.9484	0.179122	-424.19256	-424.18071	-424.179766	-424.231844	39.801	
C	 0.2418596656	 1.0383572998	 1.3147664975	-0.498614
C	 0.1962871702	-0.3435862173	 0.8569410012	 0.053417
C	 0.1664526214	-1.4889242393	 0.4843524421	 0.06972
C	 0.0982951353	-2.8731807087	 0.015481965	-0.162544
C	-1.3640019076	-3.3521338526	 0.0133753129	-0.086887
O	-1.3635791186	-4.742875652	-0.2664790059	-0.418655
C	 0.7482510815	-3.0597022308	-1.3716659036	-0.165529
C	 2.2467070587	-2.7929759869	-1.3731495185	-0.081895
O	 2.7225629111	-3.0158071491	-2.6936179092	-0.422687
H	 1.0400012791	 1.1889047706	 2.0502529021	 0.146859
H	 0.4234041044	 1.7287350923	 0.4835662687	 0.147364
H	-0.7018614738	 1.3323184366	 1.7875826232	 0.146755
H	 0.6296682598	-3.5167389081	 0.7319748955	 0.107293
H	-1.8123128143	-3.1403479794	 0.9948862252	 0.094873
H	-1.9284380176	-2.7851031269	-0.742570465	 0.094788
H	-2.2746807043	-5.0311852593	-0.3694150281	 0.2897
H	 0.5650755141	-4.0853313442	-1.7025672247	 0.124693
H	 0.2687518825	-2.3884088475	-2.0934237972	 0.103002
H	 2.4423490989	-1.7608467115	-1.046052209	 0.093983
H	 2.7429929506	-3.4654204684	-0.653201202	 0.080779
H	 3.6616234732	-2.810518907	-2.7104928301	 0.283586
