17
gdb 1342	4.12925	1.91362	1.77573	0.8854	61.08	-0.2352	0.08	0.3153	806.1761	0.145684	-346.825562	-346.817332	-346.816388	-346.857503	29.989	
C	-0.334715706	 1.0905362183	-0.1097872608	-0.237445
O	 0.5612474329	 0.0162059118	 0.1066179892	-0.233503
C	 0.925848852	-0.6263387219	-1.0721619651	 0.096942
C	 1.5178079758	-2.0015822801	-0.9368940982	-0.384022
C	 0.1484108456	-1.8160746953	-1.571529939	 0.353834
C	-1.082136999	-2.2966141855	-0.8392718948	-0.450832
O	 0.0787954998	-1.8891120723	-2.9730790058	-0.462152
H	 0.1106801878	 1.8591778018	-0.759011856	 0.110066
H	-1.2748073501	 0.7537054276	-0.5678225145	 0.113825
H	-0.5485573955	 1.5319961233	 0.8663791643	 0.126011
H	 1.3396780399	 0.0245852936	-1.8438600563	 0.092501
H	 2.3506139671	-2.2550401312	-1.583203197	 0.112776
H	 1.5565465366	-2.4186504151	 0.0638349895	 0.120908
H	-1.0194982679	-2.050141457	 0.2232366266	 0.132781
H	-1.9792905495	-1.8277856459	-1.2561086833	 0.121853
H	-1.1959917202	-3.3836539537	-0.9318494998	 0.106548
H	 0.1272728105	-2.8189401285	-3.222930869	 0.279908
