20
gdb 84835	2.83794	1.52463	1.16359	2.0824	79.78	-0.2407	0.028	0.2687	1122.8154	0.17126	-403.159017	-403.150555	-403.149611	-403.19172	33.058	
C	 0.237794027	 1.5435434818	-0.104010992	-0.37551
C	-0.0022540231	 0.037075909	 0.0381125628	 0.021621
N	 0.3250700768	-0.6225480676	-1.2248515165	-0.27728
C	 0.9486647792	-1.720077318	-1.2253094002	 0.110047
O	 1.4484222308	-2.443945234	-0.1934143621	-0.262058
C	 1.3893795746	-1.8768622357	 1.1079879734	 0.417995
C	 1.2995156904	-2.9693671133	 2.1376606385	-0.455071
C	 2.207031229	-0.6323678899	 1.3289363177	-0.346764
C	 0.6907663698	-0.5587535795	 1.2565781054	-0.101671
H	 1.3011972994	 1.7534925317	-0.2544297554	 0.116616
H	-0.3109683304	 1.9297275968	-0.9667712407	 0.124756
H	-0.0925282028	 2.0758127371	 0.7940596742	 0.105806
H	-1.0821074161	-0.1131437059	 0.1817821245	 0.091527
H	 1.1624478131	-2.2352084566	-2.1603561612	 0.121144
H	 2.1507917828	-3.6522420174	 2.0507650177	 0.130578
H	 1.3017560456	-2.5426892526	 3.1443083255	 0.119935
H	 0.3806011899	-3.5506489982	 2.0103760219	 0.12736
H	 2.6913461716	-0.4947795751	 2.2895150026	 0.115153
H	 2.7704165687	-0.2586398317	 0.4800162218	 0.127405
H	 0.1732699237	-0.3949725008	 2.1982740619	 0.088411
