11
gdb 128860	9.72472	0.68429	0.6393	4.3862	85.34	-0.2749	-0.0953	0.1796	1570.9912	0.066859	-414.385587	-414.378456	-414.377512	-414.418046	25.058	
N	 0.1164996523	-3.705494152	-0.0190600119	-0.321245
C	 0.069944924	-2.5442478383	-0.0120997505	 0.170242
C	 0.0117805773	-1.1827998197	-0.0038904623	 0.330119
C	-0.0459709173	 0.0262569389	 0.003475931	-0.092895
C	-0.1214171002	 1.4262322476	 0.012096497	 0.234418
C	-1.1807344099	 2.2915335342	 0.0310884294	-0.331941
C	-0.5620107953	 3.5646540261	 0.0296556544	 0.01278
N	 0.7474319722	 3.475821636	 0.0114963988	-0.102514
O	 1.0391789009	 2.1283745393	 0.0002431105	-0.197746
H	-2.2288692781	 2.046542349	 0.0438987674	 0.14836
H	-1.0238652859	 4.5414173988	 0.0411899263	 0.150421
