21
gdb 73809	2.3973	1.67991	1.17705	1.8267	84.77	-0.2121	0.0198	0.2319	1143.077	0.180765	-387.068267	-387.059037	-387.058092	-387.101565	35.348	
C	 0.0033187145	 1.4788325717	 0.1098031669	-0.519671
C	 0.0121484717	-0.0058799041	 0.0063996839	 0.242493
C	-0.0199253745	-0.8476292226	-1.0350528075	 0.196242
C	-0.0774716428	-0.6254523609	-2.5059527265	-0.520702
C	 0.0236316797	-2.2283804172	-0.319493536	 0.321714
C	 0.1974376745	-3.4987764983	-1.1030253642	-0.511607
C	-1.0425509051	-2.0152854028	 0.8033093803	-0.257075
C	 0.0690877691	-1.0014582443	 1.1862612106	-0.033941
O	 1.0497195432	-1.9797155684	 0.7113008782	-0.316559
H	 0.904011926	 1.849780248	 0.6160617184	 0.131358
H	-0.0460636967	 1.9529817616	-0.8748856144	 0.124117
H	-0.853264574	 1.837645638	 0.6954704621	 0.125918
H	-0.0885558397	 0.4407083283	-2.7506439278	 0.124789
H	 0.7831061696	-1.0763437226	-3.0168814085	 0.130391
H	-0.9742041396	-1.0774361668	-2.9503367078	 0.125101
H	 1.1294694956	-3.4739888789	-1.677077544	 0.130374
H	 0.2299780974	-4.3630578868	-0.4345309618	 0.128478
H	-0.6318940826	-3.634504188	-1.8049765088	 0.120736
H	-2.030335637	-1.6379790292	 0.5281589997	 0.089058
H	-1.1019497893	-2.8636100805	 1.4911994206	 0.09741
H	 0.24393176	-0.6370625964	 2.1987424266	 0.071376
