18
gdb 97034	3.14118	1.29532	0.93383	3.3164	77.71	-0.2308	0.0103	0.2411	1236.7955	0.148126	-435.331142	-435.32168	-435.320736	-435.366034	32.986	
C	-0.0591767348	 1.4046577825	 0.0550200054	-0.330866
N	-0.0135233154	-0.0402956085	-0.0223688986	-0.320294
C	 0.5865584992	-0.5975089971	-0.9884135572	 0.40554
C	 1.3438802704	-0.0128264937	-2.1867091185	-0.281042
N	 1.8783832331	-1.2021395539	-2.8177219444	-0.367339
C	 1.3843565505	-2.3620188431	-2.259770394	 0.466425
O	 1.5506172362	-3.4955689503	-2.6466741299	-0.408097
N	 0.6552859634	-1.9723189806	-1.1315918242	-0.161377
C	 0.0527378943	-2.9160346967	-0.2168782628	-0.338721
H	 0.4731273556	 1.9376029335	-0.7469337783	 0.102397
H	-1.103723179	 1.7389247493	 0.0416182678	 0.129143
H	 0.3617788589	 1.7328625962	 1.01283597	 0.129728
H	 0.6593569303	 0.5458672861	-2.8388529009	 0.135536
H	 2.1323454559	 0.6744042838	-1.860063996	 0.138744
H	 2.1951318296	-1.22475727	-3.7718702241	 0.261172
H	 0.2524868032	-3.9155768423	-0.6043509172	 0.159859
H	 0.4784738814	-2.8070683178	 0.785075796	 0.139241
H	-1.0253629325	-2.7454210573	-0.1486202031	 0.13995
