21
gdb 101910	1.90378	1.29456	0.93708	1.9353	79.01	-0.2392	-0.0151	0.2241	1353.0356	0.18029	-424.227554	-424.217218	-424.216274	-424.263904	37.075	
C	-0.5334419182	 1.341921832	-0.0269414357	-0.486688
C	-0.0961015803	-0.1080253804	 0.0132834347	 0.400294
O	 0.1314171687	-0.6857201384	 1.0529553136	-0.320055
C	 0.0817998655	-0.8231571857	-1.3297916926	-0.139189
C	 1.5991856933	-1.0353523567	-1.5559472799	-0.067263
O	 1.8954790955	-1.5917522115	-2.8203584218	-0.423152
C	-0.6735768925	-2.1411498564	-1.3238855341	 0.027819
C	-2.1200562405	-2.202698647	-1.7414827603	-0.283589
C	-1.0619179371	-2.8236309868	-2.6183686366	-0.296642
H	 0.1351975517	 1.9259164126	-0.6700099829	 0.140762
H	-1.5341379508	 1.4130386347	-0.469984554	 0.142735
H	-0.5462842411	 1.7622525421	 0.9794384403	 0.141548
H	-0.2915634066	-0.1893836219	-2.1431358554	 0.07528
H	 2.1208020496	-0.0724164356	-1.5229887433	 0.107409
H	 1.9906408172	-1.6494042708	-0.731711502	 0.10952
H	 1.4770745253	-2.457791607	-2.856506589	 0.291213
H	-0.3922483096	-2.7862621433	-0.4968678429	 0.107547
H	-2.7848729414	-2.8586420499	-1.1913947309	 0.119367
H	-2.588718439	-1.2891914662	-2.0934250256	 0.11145
H	-0.8262360724	-2.3216373296	-3.5508429396	 0.124808
H	-1.0071459472	-3.9060556242	-2.668093022	 0.116826
