18
gdb 68943	2.58885	1.61469	1.35848	3.8737	77.32	-0.2356	-0.0227	0.2129	1014.3829	0.14714	-401.90312	-401.894985	-401.894041	-401.935571	31.242	
C	 0.1503344311	 1.4400750199	 0.2009371365	-0.492886
C	 0.0222756671	-0.0422200741	 0.0104884906	 0.315001
C	 1.1478817067	-0.9295831171	-0.3990999726	-0.381959
C	 0.5818297432	-1.1668232064	 0.9884346715	 0.215644
C	 1.3385237034	-0.8573914078	 2.2076593256	 0.072035
O	 2.3598969972	-0.204255284	 2.2319396204	-0.283668
C	-0.7564522412	-1.8567369968	 0.9013981343	-0.162988
N	-1.7940417733	-0.8977403952	 1.3691581424	-0.333719
C	-1.2815709046	-0.8124455333	-0.0216828207	-0.118907
H	 1.1320321374	 1.6918809207	 0.6126153748	 0.148519
H	 0.0379274591	 1.9673294117	-0.753768334	 0.121103
H	-0.6169800578	 1.8049629013	 0.8896478217	 0.138485
H	 1.0032531236	-1.7018472195	-1.1494768356	 0.11296
H	 2.13024803	-0.4684948203	-0.3984031524	 0.145053
H	 0.8841506129	-1.2481541922	 3.1440905571	 0.078113
H	-0.9496605871	-2.9229603271	 0.8914342661	 0.099881
H	-2.6921107168	-1.3836975175	 1.3276406998	 0.22698
H	-1.952417471	-0.9268931125	-0.8652556955	 0.100353
