21
gdb 108635	2.00743	1.35071	0.95188	2.2992	81.95	-0.2363	0.0133	0.2496	1316.201	0.181666	-424.240023	-424.230212	-424.229268	-424.274837	36.526	
C	 0.2241703361	 1.5150875011	 0.0923433125	-0.503371
C	 0.1392233071	 0.023451627	-0.0104372218	 0.203113
C	-0.072988817	-0.7372271875	-1.0976361944	 0.184859
C	-0.2685761595	-0.2965724867	-2.5166372516	-0.178902
O	 0.6699011135	-0.8991043149	-3.4097776901	-0.41219
C	-0.1383597775	-2.2094154405	-0.7359168429	-0.318293
C	 0.4800163193	-2.2589951488	 0.6793160019	 0.124827
O	 1.867644669	-2.571899981	 0.6375093931	-0.435631
C	 0.2362825728	-0.8368121118	 1.2355399511	-0.313399
H	 1.155829941	 1.8197723629	 0.5856404116	 0.125644
H	 0.1753881053	 2.0127617533	-0.8790462883	 0.124269
H	-0.592734779	 1.9101092646	 0.7103385356	 0.131121
H	-1.2496466259	-0.625642321	-2.8815037588	 0.114673
H	-0.2457846813	 0.7989843389	-2.600566209	 0.090659
H	 1.548448202	-0.6315819569	-3.1205697341	 0.27702
H	-1.18103209	-2.5594752125	-0.7323127676	 0.102015
H	 0.4103910087	-2.8522570179	-1.4305419794	 0.118063
H	 0.0377901995	-3.0366056831	 1.3062865604	 0.082403
H	 2.2887483584	-1.9213736363	 0.0641431979	 0.273188
H	 1.0444039193	-0.5411669566	 1.914683171	 0.10495
H	-0.6981063016	-0.7816816023	 1.8130904329	 0.104983
