17
gdb 29556	2.35891	1.75947	1.02036	3.0041	78.09	-0.2344	-0.031	0.2034	1142.0384	0.135974	-421.890042	-421.881533	-421.880589	-421.923125	31.389	
C	-0.0183757338	 1.5099385642	 0.0078437016	-0.472733
C	-0.0052642008	 0.01071496	-0.0155231245	 0.091809
C	-0.0313102891	-0.6947147571	-1.1615833109	-0.010102
O	-0.0208026299	-2.0459500293	-1.2260714871	-0.190999
C	 0.0185103144	-2.7382526466	-0.0644876021	-0.010101
C	 0.0479805168	-2.1717433986	 1.156152861	 0.091805
C	 0.0912825501	-2.9800642901	 2.4183497027	-0.472733
C	 0.0376919843	-0.705579272	 1.2679556958	 0.262119
O	 0.0630582848	-0.1249130323	 2.3483907605	-0.372105
H	 0.8691373978	 1.8904600127	 0.523469484	 0.146315
H	-0.0518088744	 1.932220951	-0.9999358192	 0.113322
H	-0.8809677935	 1.8743086488	 0.5748483413	 0.14635
H	-0.0635156322	-0.2595738754	-2.1534021687	 0.135534
H	 0.0230632027	-3.8058794011	-0.2495339461	 0.135534
H	 0.0950938977	-4.0539338845	 2.2137824712	 0.113322
H	 0.9815409761	-2.7262836517	 3.0026225054	 0.146328
H	-0.7686128911	-2.7419885278	 3.0525661552	 0.146337
