17
gdb 29128	2.99068	1.41457	0.97179	3.3757	81.49	-0.2172	-0.0485	0.1686	1192.8906	0.13652	-418.086009	-418.077537	-418.076593	-418.119019	31.546	
C	 0.0104870868	 1.5303686602	 0.0572133812	-0.467919
C	-0.0333467277	 0.0304917642	 0.0001666758	 0.28346
C	-1.1895267655	-0.6721173038	-0.1217853273	-0.064595
N	-1.1461581824	-2.0396639964	-0.1669087333	-0.341507
C	 0.0262792849	-2.7821010855	-0.0951256094	 0.369763
O	 0.0253171141	-4.0020599527	-0.1389295621	-0.385138
C	 1.2236470132	-1.9264775881	 0.035972441	 0.196682
C	 2.5388614075	-2.6379258845	 0.1209723922	-0.459035
N	 1.1746014682	-0.628113255	 0.0781162474	-0.339719
H	 0.6175609622	 1.9316899941	-0.7612803292	 0.137808
H	-0.9908496716	 1.9638186681	-0.0115416733	 0.116372
H	 0.4703717803	 1.8696006239	 0.9915303697	 0.137804
H	-2.168762087	-0.2146071915	-0.1875185535	 0.13072
H	-1.9949467408	-2.5812854987	-0.2571623468	 0.264834
H	 2.6942392798	-3.2620971359	-0.7659083168	 0.144415
H	 3.3491323692	-1.9144293324	 0.2141872623	 0.131667
H	 2.5485763189	-3.3231562858	 0.9757772421	 0.144389
