22
gdb 100321	2.1466	1.33414	1.11339	1.3086	77.5	-0.2416	0.0632	0.3047	1235.6688	0.192663	-441.43763	-441.42733	-441.426386	-441.47266	38.277	
C	 0.7522251781	-0.217800817	-0.7053661167	-0.253872
O	-0.403836475	 0.2683597365	-0.0465386643	-0.310331
C	-1.5902252492	-0.5532795099	 0.010012565	 0.274395
C	-1.3033571167	-2.0536064766	-0.1133678981	-0.443986
C	-2.1673825184	-0.2404587049	 1.4068589131	-0.054161
O	-1.264607563	-0.5822001307	 2.4384719166	-0.425758
C	-2.5891521926	-0.1004399471	-1.0563485581	 0.009331
C	-2.7978470339	 1.3361965524	-1.3556590888	-0.249054
N	-2.1606233398	 0.4511358412	-2.3503682738	-0.335731
H	 1.4765936025	 0.600828919	-0.6837835168	 0.131289
H	 1.1905958776	-1.0855284581	-0.1976304129	 0.120538
H	 0.5689180604	-0.4905931839	-1.7531904843	 0.116475
H	-0.6588002184	-2.389925716	 0.70149111	 0.134764
H	-2.2469984189	-2.6016922334	-0.0390920185	 0.122793
H	-0.8495938352	-2.3116778147	-1.0731238785	 0.122562
H	-2.4323838167	 0.8258429535	 1.4430181492	 0.093443
H	-3.0802056453	-0.8214986895	 1.57300586	 0.105656
H	-0.4538917582	-0.1013690322	 2.2318084497	 0.28343
H	-3.4469044603	-0.7651843254	-1.1435451313	 0.087629
H	-3.7845809842	 1.7007339358	-1.6259423794	 0.115156
H	-2.1640749656	 2.0506109002	-0.8388607594	 0.120421
H	-1.1596690472	 0.6256368808	-2.3181603625	 0.235012
