18
gdb 124476	3.23789	1.21618	1.09083	1.3288	72.8	-0.2605	-0.0058	0.2547	1163.4516	0.147826	-435.277749	-435.268846	-435.267902	-435.311557	33.208	
C	-0.4986614435	 1.3658978309	-0.1421413601	-0.38838
C	 0.0553490345	-0.0507094391	 0.0561580557	 0.239697
C	 1.0269836657	-0.1004553369	 1.2422551419	-0.419904
O	-1.0910068134	-0.8695815001	 0.3100187405	-0.452617
C	 0.7229487602	-0.5304661249	-1.214383009	 0.287126
N	 1.9812891161	-0.2262614329	-1.5449308098	-0.297238
N	 2.1411633883	-0.8222301287	-2.7202785008	-0.067658
N	 1.1036557262	-1.4973773753	-3.1917204163	-0.201518
C	 0.1807371497	-1.3229810063	-2.2444993022	-0.137931
H	 0.3098196618	 2.060830187	-0.3818930676	 0.126291
H	-1.2233960731	 1.3755524304	-0.9602952843	 0.125369
H	-1.0003855082	 1.6993527657	 0.7706791106	 0.120214
H	 0.5191043914	 0.2388771901	 2.1491940341	 0.118615
H	 1.3880683012	-1.1222431388	 1.4043883158	 0.107198
H	 1.899815765	 0.5308263251	 1.0594186419	 0.13893
H	-0.7763062438	-1.7517524378	 0.5368408536	 0.27722
H	 3.0132925301	-0.7740216535	-3.22196868	 0.292259
H	-0.802194858	-1.7545130549	-2.331113254	 0.132326
