18
gdb 14135	4.50528	1.55365	1.34379	1.7389	72.78	-0.2424	0.0255	0.2678	966.7874	0.153474	-347.80529	-347.797687	-347.796743	-347.837292	28.975	
C	-0.0654874794	 1.5294389526	-0.0303994678	-0.422341
C	-0.0476261679	 0.0303729331	 0.1261526023	 0.006919
O	 1.2027163009	-0.6366770075	-0.0940331964	-0.292223
C	 0.6340279994	-0.6697000711	 1.2231783718	 0.409989
C	 1.4242547082	 0.028041147	 2.3398790254	-0.338826
C	 1.5743351305	-1.0546185381	 3.3793040995	-0.066672
C	 0.9129083707	-2.1660304164	 3.059144837	-0.064369
C	 0.1895816222	-2.0451567222	 1.7420736466	-0.338811
H	 0.7957240409	 1.9900160349	 0.4590014981	 0.127187
H	-0.0422475588	 1.8029730183	-1.0904834555	 0.128558
H	-0.9802087599	 1.9492151978	 0.4028626682	 0.1197
H	-0.897877236	-0.4828685409	-0.3308096764	 0.079591
H	 2.3844273147	 0.3907362209	 1.9553858109	 0.123031
H	 0.893455659	 0.9032023961	 2.7394445031	 0.109084
H	 2.1565920489	-0.9118658757	 4.2826716342	 0.093246
H	 0.874607223	-3.0660167958	 3.6625034352	 0.093567
H	-0.900156397	-2.1049586215	 1.8685721703	 0.108572
H	 0.4665364608	-2.8243562815	 1.0220927337	 0.123797
