17
gdb 3129	5.2832	2.10442	1.83153	1.5483	64.27	-0.2286	0.0804	0.309	762.1634	0.148155	-309.680919	-309.673922	-309.672978	-309.71184	26.245	
C	-0.1158503723	 1.5127447336	-0.0543368179	-0.375425
C	 0.1020419729	-0.0039101084	 0.0408150866	-0.284798
C	 0.717859059	-0.5641001344	-1.2024955773	 0.499245
C	 0.0121757149	-0.9947183511	-2.4537302494	-0.328585
C	 0.9559605231	-1.9558069264	-1.7510956995	-0.198699
C	 2.3852484298	-1.4833617879	-1.974618984	-0.083063
O	 2.0554052665	-0.1409625056	-1.5268601449	-0.326652
H	 0.8315382758	 2.0244313232	-0.2464312053	 0.137854
H	-0.8030306335	 1.7610392852	-0.8694718158	 0.117924
H	-0.5343135869	 1.9073605327	 0.8761875298	 0.109696
H	 0.7513861658	-0.2318166443	 0.894964112	 0.105144
H	-0.8516752144	-0.5148956556	 0.2183176287	 0.100365
H	-1.040582023	-1.2356203691	-2.3404059745	 0.111152
H	 0.2849592269	-0.5543798299	-3.4094268886	 0.110958
H	 0.6503448827	-2.9255192628	-1.381657403	 0.097351
H	 3.1150450525	-1.9447649118	-1.2992902982	 0.106017
H	 2.7730161302	-1.4957037073	-3.0007325484	 0.101517
