13
gdb 1054	7.52485	2.00997	1.6151	1.6418	54.6	-0.2412	0.0052	0.2464	730.6555	0.104021	-340.659506	-340.653104	-340.652159	-340.690582	22.424	
N	 0.3138212523	 1.2134147826	-0.5417832061	-0.486068
C	-0.1551236248	 0.2647076855	 0.4572668325	-0.274738
C	-1.4882143383	-0.362890583	 0.1568753572	 0.383414
N	-2.2549612135	-0.1629254815	-0.8675413918	-0.313574
C	-3.3545262231	-0.9885334984	-0.6477183358	-0.111176
C	-3.1837870932	-1.6504091718	 0.5174812106	-0.041743
O	-1.9848575448	-1.2586517199	 1.0498701643	-0.174284
H	 0.3509750358	 0.7470695599	-1.4445187824	 0.238844
H	-0.3877673197	 1.9400183946	-0.6584460309	 0.238839
H	 0.5903408442	-0.5315677375	 0.5777789716	 0.135564
H	-0.212662326	 0.7651317444	 1.4322323003	 0.135562
H	-4.1766957236	-1.0393848916	-1.3433586423	 0.124155
H	-3.7507719054	-2.3718989534	 1.0797603628	 0.145204
