20
gdb 40221	2.07518	2.01107	1.26828	2.3921	78.11	-0.2434	0.0685	0.3119	1052.8835	0.172412	-403.105255	-403.097204	-403.09626	-403.138091	31.476	
C	-0.3277402933	 1.4886900459	 0.1635468729	-0.301245
C	 1.0917556298	 1.0473466684	-0.1125380434	-0.344944
C	-0.0015770958	 0.0278051993	-0.0170397194	 0.285827
C	-0.1507993182	-0.9506305749	 1.1336132389	-0.155898
O	-1.3590331527	-1.6472446603	 0.8556186927	-0.262139
C	-1.515935296	-1.7506502785	-0.5610344639	-0.125044
C	-0.5197601996	-0.7716840234	-1.1871590848	 0.234123
C	-0.5925154472	-0.2748087339	-2.5752010527	-0.310063
N	 0.3858984402	-1.3205360951	-2.2140813946	-0.35504
H	-0.5712507317	 1.8365167331	 1.1624034507	 0.116738
H	-0.8638865085	 1.9951076468	-0.6319303081	 0.116436
H	 1.5117380345	 1.2674192372	-1.0904650984	 0.109892
H	 1.8159040009	 1.0983975684	 0.6941828941	 0.12018
H	 0.7051104908	-1.6459607956	 1.1705600393	 0.091065
H	-0.2501830167	-0.4715677636	 2.1123743557	 0.105151
H	-1.3037259957	-2.7691772102	-0.9108959284	 0.110626
H	-2.5567801178	-1.5041469369	-0.8006260819	 0.105678
H	-1.3946412405	-0.6039719948	-3.2312086101	 0.121065
H	-0.2323686079	 0.730623999	-2.784950334	 0.109492
H	 1.3093010053	-0.9021207208	-2.1158081246	 0.2281
