20
gdb 76718	3.3235	0.85516	0.79355	4.6423	77.36	-0.2312	0.0064	0.2376	1502.2933	0.168465	-440.268242	-440.258055	-440.257111	-440.304645	35.494	
C	 0.0651193748	 1.4372334926	 0.7713408742	-0.419558
C	 0.0576821847	 0.004486089	 0.2767095539	-0.007976
C	 0.1676369946	-0.3856397335	-1.1675688125	-0.021477
C	 0.2852302308	 0.6382992899	-2.2675545094	-0.111166
O	 0.9251133185	 0.0311506049	-3.4050877632	-0.178549
C	 1.9593957165	 0.6738413329	-3.9754198058	 0.176376
O	 2.5318921726	 0.2568165204	-4.9363134557	-0.273825
N	 1.2419265273	-0.6917378011	-0.2232578571	-0.090533
C	 2.5313515805	-0.0238413038	-0.3061665695	-0.324108
H	 0.6510668037	 2.1175371042	 0.1511026114	 0.119584
H	-0.9588628332	 1.8232158526	 0.8119035544	 0.128954
H	 0.4723402665	 1.4836112584	 1.7871058299	 0.131395
H	-0.5682413582	-0.6404340656	 0.8940597455	 0.09597
H	-0.374616288	-1.2703582798	-1.4999970309	 0.104945
H	-0.7138863559	 0.9544607696	-2.587867425	 0.127025
H	 0.8409663812	 1.5310786845	-1.9664066662	 0.106499
H	 2.2165083654	 1.6195223757	-3.4572672069	 0.074151
H	 2.509724888	 1.0418879248	-0.5786003327	 0.091985
H	 3.0279491706	-0.1035699337	 0.6658974261	 0.129971
H	 3.1484803696	-0.5485183119	-1.0418574704	 0.140336
