22
gdb 60495	4.57775	0.51982	0.49128	3.545	81.23	-0.2485	0.035	0.2834	2231.7099	0.192361	-441.516929	-441.505834	-441.50489	-441.555192	38.741	
C	-0.0291543912	 1.5267813888	-0.0650959537	-0.405102
C	-0.0869890094	 0.0008368647	-0.1261976512	 0.134684
O	 0.9013849274	-0.5871069625	 0.7200954826	-0.428293
C	-1.4875374492	-0.5443185914	 0.1868864298	-0.188984
C	-1.5830449253	-2.0663617905	 0.0509570779	-0.184585
C	-2.9515772441	-2.6105787038	 0.4716417773	-0.16463
N	-3.0458549971	-4.0568743107	 0.344866054	-0.274153
C	-3.8793309391	-4.677777805	-0.5318114877	 0.15351
O	-4.6651585491	-4.1230453071	-1.2709604303	-0.323427
H	 0.9848911056	 1.8775097911	-0.2748557144	 0.125222
H	-0.7120781327	 1.9798331398	-0.7907766639	 0.119368
H	-0.3172666867	 1.8868753097	 0.931079161	 0.105618
H	 0.1975037636	-0.3260116124	-1.1346494436	 0.090893
H	 0.7624654753	-0.2423162831	 1.6095655983	 0.274974
H	-1.7589944212	-0.2419528177	 1.2102151293	 0.082112
H	-2.216461571	-0.0618808102	-0.4771428475	 0.102563
H	-1.3892595752	-2.3601829135	-0.9880619854	 0.108821
H	-0.7925357246	-2.523646078	 0.6577163601	 0.103798
H	-3.1696075803	-2.3184509593	 1.5078148877	 0.103386
H	-3.7451041528	-2.2025217482	-0.1590614159	 0.148492
H	-2.4132868678	-4.6308855771	 0.879888602	 0.244775
H	-3.7641738949	-5.7797125836	-0.4922046464	 0.070957
