21
gdb 84697	2.74899	1.60638	1.37354	1.7332	81.96	-0.2462	0.0117	0.2578	1035.1533	0.186437	-387.116962	-387.109405	-387.10846	-387.148574	31.265	
O	 0.0759611965	 1.4524145629	-0.1134965208	-0.44697
C	 0.0316577282	 0.0257982972	-0.0241354876	 0.108172
C	 0.8399980464	-0.4660745963	 1.1521087741	-0.106728
C	 0.285318461	-1.142658483	 2.1603557687	-0.065854
C	-1.1869524779	-1.4941667348	 2.164604971	-0.042046
C	-1.4471301627	-2.696369796	 1.2154796494	-0.201009
C	-1.4424338602	-2.057330128	-0.2045549378	-0.217538
C	-1.4135955313	-0.5191790904	 0.0234570711	-0.02302
C	-1.9665055659	-0.3733420555	 1.453607348	-0.232928
H	-0.103784483	 1.8003884309	 0.7662627236	 0.275889
H	 0.4960160414	-0.312246273	-0.9596582719	 0.084474
H	 1.897382381	-0.2139088995	 1.1549315641	 0.090319
H	 0.8961435228	-1.491983661	 2.9894646713	 0.08783
H	-1.5337903695	-1.6911372096	 3.1822759533	 0.060481
H	-0.6997952703	-3.4856674756	 1.3281509683	 0.097111
H	-2.4242031823	-3.1375066138	 1.4396280642	 0.094285
H	-0.584204016	-2.386168142	-0.7984948588	 0.099687
H	-2.338293106	-2.3464053469	-0.7609233987	 0.099183
H	-1.9979854314	 0.0231956934	-0.7234132611	 0.06862
H	-3.0440071466	-0.5691955219	 1.4816371011	 0.090325
H	-1.7940446542	 0.6149027729	 1.8916166385	 0.079715
