17
gdb 16758	5.33807	1.37526	1.20319	2.2555	70.18	-0.2123	0.0193	0.2315	1006.799	0.142955	-363.832	-363.824597	-363.823653	-363.863817	27.878	
O	-0.0184102357	 1.4260870811	-0.0096381328	-0.412883
C	-0.0241028773	 0.010213222	 0.0018316364	-0.17828
C	-1.4298816973	-0.4875674166	 0.0476668586	 0.286023
C	-2.553097895	 0.2325096585	 0.0636994368	-0.166596
C	-3.740546892	-0.6653148836	 0.0389673544	-0.063391
C	-3.8626358204	-1.5327350992	-1.168583967	-0.233661
N	-3.2387565588	-2.0621715509	 0.0486964835	-0.100658
C	-1.7623359525	-1.9692848309	 0.071323222	-0.258518
H	 0.8962400835	 1.7216715096	-0.0027283571	 0.290275
H	 0.4789779948	-0.4015551621	-0.8918511558	 0.095838
H	 0.5295999879	-0.387617105	 0.8717259841	 0.09669
H	-2.6070168235	 1.3123168219	 0.0729755369	 0.114214
H	-4.6126978253	-0.4409719663	 0.6478039215	 0.093048
H	-4.8118320698	-1.998761556	-1.421110815	 0.112286
H	-3.2281856909	-1.2841200101	-2.0173543154	 0.107311
H	-1.3321014925	-2.5189560527	-0.7767772207	 0.108829
H	-1.3860465652	-2.4546626698	 0.9832158795	 0.109472
