18
gdb 18390	3.03811	2.39219	1.57892	1.0764	73.89	-0.2277	0.0203	0.248	847.1195	0.156363	-347.789573	-347.782784	-347.781839	-347.820449	26.975	
C	 0.2305627869	 1.4589134379	-0.4128552863	-0.285474
C	 1.3519895673	 0.4985845581	-0.1451178112	-0.030499
C	 2.2865584687	 0.7278243079	 1.0264714794	-0.110786
O	 1.6800862969	 1.3999630147	 2.1105022496	-0.234395
C	 1.0197110116	 0.5683892796	 3.0432511564	-0.13498
C	-0.2695016642	-0.0593161713	 2.5886927103	-0.076068
C	-0.707893976	-0.2719529705	 1.3459925365	-0.056553
C	-0.07439354	 0.0319866102	 0.0403388819	-0.055702
H	 0.073133277	 2.2342596201	 0.3273936956	 0.131934
H	-0.00132192	 1.7351112346	-1.4356448946	 0.1074
H	 1.8645496255	 0.0907680134	-1.0139704255	 0.081754
H	 2.7227110995	-0.2269833512	 1.3630993299	 0.089942
H	 3.1147357556	 1.3686224241	 0.6987100238	 0.107266
H	 1.7108830793	-0.2205532474	 3.3951932457	 0.097445
H	 0.8168378712	 1.2077553522	 3.9112305804	 0.113732
H	-0.9088669324	-0.3761668121	 3.4115307508	 0.084877
H	-1.6849992416	-0.7430962461	 1.2522178707	 0.085526
H	-0.4419791853	-0.6100048542	-0.7556423637	 0.084581
