17
gdb 111181	2.88289	1.19413	0.95414	2.7658	73.9	-0.2344	0.0114	0.2458	1239.0527	0.135949	-417.933195	-417.924958	-417.924013	-417.966342	30.629	
C	 0.097668143	 1.4288452236	 0.2650947718	-0.325646
N	-0.2502880439	 0.0806818839	-0.1703488284	-0.299648
C	 0.5338605611	-0.4223773265	-1.2452281059	 0.066221
C	 1.8964236047	-1.1810708882	-0.9787777384	 0.005452
O	 1.111796673	-2.2680337385	-0.3498111722	-0.318935
C	 0.368018582	-1.9244755515	-1.5846675452	 0.007687
C	 1.7350666595	-1.9281843577	-2.335462562	-0.140986
C	 1.8978610809	-1.2289301651	-3.5974363122	 0.270467
N	 2.031949486	-0.6734958919	-4.6026294227	-0.334486
H	 1.1378398999	 1.5416389841	 0.6145516135	 0.101822
H	-0.0536544708	 2.130567599	-0.5622106979	 0.130791
H	-0.5684327003	 1.7272610801	 1.0790210566	 0.127323
H	-0.21036081	-0.5766836818	 0.6017867206	 0.23182
H	 0.5360041739	 0.2722582819	-2.0895886293	 0.110424
H	 2.8213400169	-0.8767310232	-0.4899930427	 0.112743
H	-0.5288611714	-2.4991720939	-1.8139596044	 0.115671
H	 2.2100787556	-2.9091648542	-2.3407617013	 0.139282
