20
gdb 96397	2.04639	1.68613	1.19743	5.2758	79.19	-0.2284	0.0315	0.2599	1124.7533	0.1737	-399.337037	-399.328436	-399.327492	-399.369959	33.186	
C	-0.0210811539	 1.545947731	-0.0511641787	-0.425451
C	 0.0393747837	 0.0224021411	-0.0131963277	 0.052445
N	 0.6977767012	-0.4971785262	-1.2044915924	-0.287552
C	 0.6859042141	-1.9558476607	-1.271242468	-0.159218
C	 1.439143449	-2.5061675188	-0.0563893977	-0.154857
N	 0.9178304927	-1.9968673842	 1.2188346133	-0.292742
C	 0.7947071237	-0.5338395404	 1.2255215591	-0.141517
C	 2.1348919851	 0.0699620467	 1.3499845498	 0.330093
N	 3.1705290938	 0.5689934791	 1.4639267952	-0.342109
H	 0.982346449	 1.9714002232	-0.1340995522	 0.15593
H	-0.6101428634	 1.8827499169	-0.9110395405	 0.114155
H	-0.4970569817	 1.9415263414	 0.8514758299	 0.120168
H	-0.9926536508	-0.3727018325	 0.0922270718	 0.0508
H	 0.2864179941	-0.0906793022	-2.036791345	 0.221259
H	-0.3409763133	-2.3732959341	-1.277649923	 0.069827
H	 1.1768729458	-2.273585945	-2.1972478008	 0.105055
H	 1.3926491494	-3.5987453311	-0.0317108699	 0.104872
H	 2.4936095171	-2.2172234022	-0.1274901786	 0.137121
H	-0.0043619926	-2.3871215149	 1.3906185855	 0.221096
H	 0.2358687171	-0.252520127	 2.1259758498	 0.120625
