16
gdb 126287	5.30211	0.86387	0.79138	7.0698	79.32	-0.2608	-0.0256	0.2352	1426.9967	0.126245	-396.976362	-396.967992	-396.967048	-397.010451	29.99	
C	 0.12085553	 1.5298478406	 0.2021271922	-0.370744
C	-0.0645426066	 0.0195496939	-0.0330731364	-0.30905
C	 0.5788145196	-0.4688063758	-1.2933645351	 0.399963
C	 0.0628049016	-0.7744531604	-2.5353932848	-0.390268
C	 1.1845722898	-1.1460958205	-3.3159618237	 0.250048
N	 2.3222446345	-1.079370909	-2.6151101152	-0.277122
N	 1.9225976765	-0.6678423731	-1.4062511501	-0.245033
C	 1.1863898709	-1.5555160783	-4.6789300376	 0.241653
N	 1.142764419	-1.8823693378	-5.7880272974	-0.340795
H	 1.1802108207	 1.7946390629	 0.2769763159	 0.120289
H	-0.3088571289	 2.107537285	-0.6209746298	 0.135587
H	-0.3694913792	 1.8362369866	 1.1304699802	 0.126162
H	 0.3349616168	-0.5383536941	 0.8230991658	 0.117985
H	-1.1311705823	-0.217937337	-0.0819142078	 0.130664
H	-0.9693414529	-0.741412778	-2.8420503904	 0.128525
H	 2.6189429306	-0.549723525	-0.6877323456	 0.282135
