21
gdb 53225	4.07955	0.78576	0.74237	1.6344	88.77	-0.2399	0.0354	0.2753	1653.6832	0.179235	-387.063931	-387.053336	-387.052392	-387.101545	37.644	
C	 1.3324701509	 1.5277319272	 0.329758859	-0.498017
C	 0.8912651858	 0.1416819511	 0.373991006	 0.051621
C	 0.52053887	-1.0041514011	 0.4058326858	 0.101755
C	 0.0807965349	-2.3891397312	 0.4462494835	-0.045839
C	 0.1185568595	-3.1087043134	 1.8197498295	-0.346301
C	-1.4177569716	-3.2358223533	 1.6555208399	 0.443972
C	-1.9443719658	-4.653216417	 1.4764918068	-0.430404
C	-2.2471054715	-2.4309531006	 2.6473169227	-0.425226
O	-1.3591757114	-2.547846042	 0.3666698683	-0.327244
H	 1.8375575364	 1.816706527	 1.2581147793	 0.147604
H	 2.0306531955	 1.6989535971	-0.4969493314	 0.149203
H	 0.482495533	 2.2050103161	 0.1911329372	 0.15312
H	 0.5693161937	-2.9545161691	-0.3583366078	 0.096578
H	 0.6683053539	-4.051233365	 1.8260334371	 0.106112
H	 0.4482388739	-2.4848730199	 2.6507803108	 0.113685
H	-1.9239634213	-5.1991784975	 2.4262276406	 0.112961
H	-2.9780776887	-4.6315761884	 1.1164100427	 0.123655
H	-1.3418632557	-5.2032996835	 0.7479129083	 0.115915
H	-1.8623389453	-1.4109967034	 2.7300249988	 0.12419
H	-3.2893371777	-2.3774698649	 2.316183746	 0.12181
H	-2.2254515384	-2.8953408181	 3.6395697369	 0.110849
