20
gdb 70189	3.37668	1.26327	1.08377	3.8333	79.55	-0.2285	0.0311	0.2596	1172.7389	0.172562	-403.190748	-403.182427	-403.181483	-403.223332	32.96	
C	 0.0295843263	 1.5142163321	-0.0020916262	-0.463787
C	-0.0449173134	 0.0008013668	 0.024540426	 0.321679
C	-0.8608810541	-0.6462765943	 1.1307774053	-0.348666
C	 0.653234355	-0.7321805147	 1.1362950064	-0.000888
N	 1.3291922458	-1.9607294599	 0.8262586494	-0.308934
C	 1.1394508412	-2.7355143142	-0.2859282637	 0.390682
O	 1.7181297595	-3.7955600385	-0.439401495	-0.377948
C	 0.1296169489	-2.1916906479	-1.2907900583	-0.343086
C	 0.0363901699	-0.6601713341	-1.3433794725	-0.269364
H	 0.9431513277	 1.8570978701	-0.5015584805	 0.119829
H	-0.8248802288	 1.938065553	-0.5428139621	 0.119951
H	 0.0220321028	 1.9335897639	 1.0087947531	 0.114172
H	-1.3409687219	 0.0077199753	 1.8514227227	 0.111738
H	-1.4090662345	-1.5583829002	 0.9229435262	 0.116486
H	 1.192048108	-0.1481759327	 1.8750456803	 0.099144
H	 1.9082766316	-2.3834083737	 1.5367445351	 0.246143
H	 0.39527866	-2.6056503993	-2.2656748592	 0.130381
H	-0.8436178346	-2.6255570938	-1.0299131256	 0.129379
H	-0.8215867862	-0.3632902909	-1.9588490241	 0.104316
H	 0.927496347	-0.2672573969	-1.8508396372	 0.108771
