20
gdb 77882	2.04933	1.64754	1.27857	1.9734	80.32	-0.2308	-0.0198	0.2111	1127.1361	0.168822	-403.132307	-403.122695	-403.121751	-403.166325	35.463	
C	-0.0659586712	 1.4712893351	-0.1787599319	-0.434931
C	 0.0724756313	-0.0329025166	-0.0472363091	-0.0179
N	 1.2488681206	-0.8724457586	-0.3324138099	-0.198913
C	 2.5080980332	-0.1499053976	 0.0836717553	-0.039943
C	 3.0877701587	 0.9520173869	-0.7864630322	-0.426511
C	 1.9399947584	 0.0097156434	 1.5095769833	 0.317351
O	 2.3833361439	 0.3756700732	 2.561067539	-0.313708
C	 0.6996048977	-0.7496640354	 1.1029456217	 0.190256
C	 0.0589575682	-1.853118613	 1.8905650167	-0.496923
H	 0.6985378411	 2.0320327473	 0.3606503651	 0.140111
H	-0.0503632454	 1.7759226282	-1.23043058	 0.13075
H	-1.035493021	 1.767931523	 0.2355860558	 0.128546
H	-0.8131191599	-0.552067552	-0.4142567048	 0.102833
H	 3.2690509283	-0.9371568888	 0.1853819241	 0.12029
H	 2.4201871773	 1.8038121134	-0.914216873	 0.126082
H	 4.0186513351	 1.3143958203	-0.3389464225	 0.136039
H	 3.3244419821	 0.5536770202	-1.778345576	 0.132849
H	-0.4834221042	-1.4402428643	 2.7478428655	 0.138283
H	-0.6503780512	-2.4101201841	 1.2724123975	 0.132513
H	 0.807209877	-2.5534739706	 2.2746644954	 0.132927
