19
gdb 86042	3.95671	0.90961	0.87373	4.277	72.79	-0.266	0.0088	0.2747	1362.8645	0.15676	-460.174827	-460.165486	-460.164542	-460.208863	34.705	
C	-0.1187131344	 1.7285180459	 0.0761002337	-0.443835
C	-0.0611518506	 0.2093679709	 0.0083120444	 0.409021
C	 1.0527325553	-0.3670315006	-0.9191554407	-0.279864
C	 1.9253118712	-0.6121503023	 0.3333189929	 0.111787
O	 2.8535421554	 0.4496762332	 0.4662876629	-0.429382
C	 0.6491266025	-0.4569406927	 1.2109689806	-0.303057
O	-1.3878819762	-0.3346093858	-0.1611764258	-0.235067
C	-1.9549690588	-0.2523189624	-1.3756283011	 0.152903
O	-3.0650677338	-0.639112251	-1.5978983666	-0.281164
H	 0.8795750196	 2.1233502854	 0.2781075719	 0.145184
H	-0.4736294436	 2.1554841444	-0.8679491416	 0.118759
H	-0.7976587373	 2.044232984	 0.8742417992	 0.129896
H	 0.743298259	-1.3056703761	-1.3842287253	 0.117446
H	 1.4825204421	 0.2976416942	-1.6710137969	 0.118648
H	 2.4300389058	-1.5838876856	 0.387806187	 0.077656
H	 3.257772368	 0.3851260037	 1.3379020789	 0.286558
H	 0.7436372775	 0.135882677	 2.1244970083	 0.102144
H	 0.1894579896	-1.4202835211	 1.4428944693	 0.121497
H	-1.2927723714	 0.193388629	-2.1413856809	 0.08087
