17
gdb 8122	3.9743	1.76669	1.45789	3.7944	68.48	-0.2345	0.03	0.2645	894.5069	0.143363	-363.90408	-363.896863	-363.895919	-363.935212	28.337	
C	 0.0032982369	 1.5483251928	 0.0220024649	-0.468125
C	 0.0376679148	 0.0423528429	 0.0258628649	 0.347712
C	-0.849734011	-0.7896053646	 0.9269640741	-0.328681
C	 0.6561701132	-0.7984518146	 1.1208131706	-0.08005
C	 1.4644256633	-1.8974715963	 0.4569501156	-0.348573
C	 1.1545262463	-1.7601892036	-1.0451902835	 0.383554
O	 1.4633837065	-2.5268491789	-1.9287988637	-0.370601
N	 0.4371967664	-0.5964736085	-1.2017539465	-0.3459
H	 0.9634059495	 1.961057801	-0.3044465546	 0.128056
H	-0.7753558995	 1.9290378518	-0.6497263704	 0.120489
H	-0.2140480396	 1.9283641583	 1.0241898935	 0.123947
H	-1.4361845846	-0.2721058095	 1.67910886	 0.114668
H	-1.3276266607	-1.6680972542	 0.5043699734	 0.117183
H	 1.0531815368	-0.3140351116	 2.0051924726	 0.094789
H	 2.5408633092	-1.7686932182	 0.6116734625	 0.131381
H	 1.209839618	-2.9093467564	 0.784692837	 0.13393
H	-0.0212921357	-0.4160479903	-2.0823045804	 0.246222
