24
gdb 122215	3.2688	0.70557	0.64637	2.9626	85.95	-0.2437	0.0683	0.312	1857.3516	0.216957	-405.529069	-405.518515	-405.517571	-405.565348	38.858	
C	 0.1775833536	 1.496460433	-0.3009580294	-0.382652
C	-0.0375327047	 0.0090026985	-0.0096566957	-0.162643
C	 0.7658762468	-0.4905938498	 1.1962646492	-0.1623
C	 0.5395408259	-1.9832070196	 1.4871650245	-0.296953
C	 1.384496721	-2.5511924329	 2.6140640021	 0.316883
C	 1.080440491	-2.0385129163	 4.0208587836	-0.114765
O	 2.0161965752	-2.5026798564	 4.9669844744	-0.424153
C	 1.9404522023	-3.9203660987	 2.4796916484	-0.280415
N	 2.8341784894	-2.7432791313	 2.4011802708	-0.372834
H	 1.2317499616	 1.7111240135	-0.5088137693	 0.114719
H	-0.4053511256	 1.8219378193	-1.168106945	 0.113147
H	-0.1220584647	 2.1145462761	 0.5525987247	 0.116141
H	-1.1051803408	-0.1807133499	 0.1636801613	 0.096721
H	 0.2336013208	-0.5817089942	-0.8950712162	 0.093439
H	 1.8353651079	-0.310865784	 1.0203973436	 0.09486
H	 0.5011360056	 0.1083824017	 2.0761426819	 0.104055
H	-0.5213329947	-2.1510387223	 1.7197826919	 0.10344
H	 0.7411600473	-2.5581966373	 0.5732731887	 0.090917
H	 1.0462758375	-0.9367102634	 4.0067323845	 0.085756
H	 0.0903302359	-2.3908565824	 4.3355498854	 0.104593
H	 2.8745003771	-2.4335527687	 4.521790847	 0.29165
H	 2.0849347561	-4.5292897676	 3.3661232858	 0.131457
H	 1.732182125	-4.4698987755	 1.5657149557	 0.108769
H	 3.0875778604	-2.5479998217	 1.4363470519	 0.230169
