17
gdb 112471	3.73241	1.07347	0.86217	2.429	71.41	-0.2568	-0.0303	0.2264	1279.1636	0.137987	-455.193823	-455.18574	-455.184796	-455.226828	30.362	
O	 0.0768280509	 1.3986125578	 0.11744874	-0.423773
C	 0.0625817503	 0.0035448452	-0.0622167447	-0.057897
C	-1.3707175759	-0.542111928	-0.0157198843	 0.007724
C	-1.4277308641	-2.0687052956	-0.1590635727	-0.348799
C	-2.8088531362	-2.6212233617	 0.1400855422	 0.410624
O	-3.2884672437	-3.6197157133	-0.3418550008	-0.34134
N	-3.4843603102	-1.8782440387	 1.1041451701	-0.334521
C	-2.9684950441	-0.71922003	 1.6737302941	 0.091961
N	-1.9826699709	-0.0581494313	 1.2267783583	-0.259469
H	-0.5074422601	 1.5608351388	 0.8711639365	 0.291074
H	 0.516470962	-0.2087847262	-1.0362566808	 0.106259
H	 0.6608329468	-0.514789845	 0.7073888637	 0.082136
H	-1.9263072386	-0.0749534811	-0.84327353	 0.102919
H	-1.1314268474	-2.4028134557	-1.1553765305	 0.141529
H	-0.7378340613	-2.533509177	 0.5599715274	 0.13618
H	-4.3503472463	-2.2706662009	 1.4450755899	 0.26338
H	-3.4931158312	-0.3874569274	 2.5689456816	 0.132011
