19
gdb 59223	2.52212	1.43533	1.19351	2.367	75.42	-0.2409	-0.0135	0.2274	1123.1269	0.158337	-423.016549	-423.007792	-423.006848	-423.050143	33.327	
C	 0.052142203	 1.5517115121	-0.159624256	-0.415541
C	 0.099366889	 0.0348728493	 0.0348745621	 0.100985
O	 0.8417319956	-0.3036601745	 1.2101531812	-0.429035
C	-1.3121837863	-0.5673789784	 0.0687043473	-0.12381
C	-1.5712603661	-2.0844100992	-0.0376802166	-0.08651
C	-0.9891285763	-2.8149770902	 1.118291689	-0.283475
C	-2.3190965831	-2.0847038487	 1.321680176	-0.180419
C	-2.0589772298	-0.6152625714	 1.4335887242	 0.404479
O	-2.3855978476	 0.2445527778	 2.2066636913	-0.336903
H	 1.06130566	 1.9690468814	-0.1090064619	 0.124152
H	-0.3856697607	 1.8137520129	-1.1282224058	 0.116779
H	-0.5612359597	 2.0156807633	 0.6215844409	 0.136843
H	 0.6647667672	-0.4236054149	-0.7852910807	 0.09461
H	 0.4616168395	 0.1975912639	 1.9419243418	 0.290118
H	-1.9609432045	-0.0302929907	-0.6345618314	 0.101265
H	-1.8993933145	-2.5810615714	-0.9415195987	 0.101722
H	-1.0992949926	-3.8947459173	 1.102899264	 0.122399
H	-0.0881121171	-2.4510064879	 1.5956804507	 0.15156
H	-3.2058574061	-2.6160825063	 1.6428001925	 0.110779
