18
gdb 64172	2.26345	1.47865	1.34654	2.1517	72.22	-0.2654	0.002	0.2674	1069.7404	0.144336	-439.082286	-439.072553	-439.071609	-439.117054	35.522	
C	-0.2178355145	 1.5234926451	 0.1930585931	-0.414838
C	 0.003862683	 0.0286663538	 0.0141485093	 0.363212
C	-1.2438747105	-0.6917834477	-0.4699865176	-0.43007
O	 1.125247346	-0.2279714218	-0.8814626763	-0.313897
C	 1.9332483223	-0.7882069049	 0.158551058	-0.111045
C	 0.7921013226	-0.6466205288	 1.2023821954	 0.145916
O	 1.0159203341	 0.2359178978	 2.2753459548	-0.454884
C	 0.2533051757	-1.9196883296	 1.69249271	 0.239012
N	-0.1363091703	-2.9240234203	 2.1123110188	-0.342288
H	 0.6892051584	 2.0217605525	 0.5366899894	 0.133883
H	-0.5106967852	 1.9500334524	-0.7710413763	 0.126398
H	-1.013804334	 1.7173984376	 0.9175207821	 0.128195
H	-1.5600911114	-0.2630648965	-1.4255296463	 0.129917
H	-1.0557337566	-1.7575148841	-0.6179607615	 0.137331
H	-2.0618569078	-0.5783912667	 0.2482230925	 0.130623
H	 2.2640362022	-1.807462671	-0.0680327466	 0.120406
H	 2.7963256637	-0.1610744722	 0.4143367186	 0.11289
H	 1.4850746825	-0.2335924554	 2.9742641825	 0.299238
