16
gdb 126319	5.0343	0.91815	0.78404	5.4308	74.72	-0.2691	-0.0671	0.202	1409.4024	0.123984	-434.083582	-434.07518	-434.074236	-434.117524	29.663	
C	 0.517279636	 1.1117236494	 0.623929077	-0.391233
C	-0.3009186517	 0.4247052488	-0.4716548572	-0.275627
C	 0.5220015763	-0.3660391524	-1.4381989272	 0.300401
C	 1.8683800528	-0.576974247	-1.5102542999	-0.1622
N	 2.0415017992	-1.3838609172	-2.606587777	-0.009259
C	 3.2583624254	-1.8881410961	-3.1089236905	 0.195675
O	 3.3601615964	-2.5893737277	-4.0695409246	-0.237995
N	 0.8310542427	-1.6557254375	-3.18514036	-0.102923
N	-0.0635838314	-1.050175433	-2.4884047873	-0.222635
H	 1.0693413227	 0.3825366467	 1.2262718006	 0.122373
H	 1.240410066	 1.8161900908	 0.1995238621	 0.122345
H	-0.136121653	 1.6721104062	 1.2974819468	 0.12583
H	-1.0463204726	-0.2434526162	-0.0232387121	 0.132561
H	-0.8775268276	 1.1687540201	-1.0347502161	 0.132543
H	 2.6966650976	-0.2436065371	-0.90889987	 0.161147
H	 4.1051507611	-1.5429845978	-2.4879714646	 0.108999
