13
gdb 56393	3.36886	0.72361	0.62521	2.8495	69.38	-0.2759	-0.0461	0.2298	1667.6723	0.087119	-452.738338	-452.728551	-452.727607	-452.775144	32.719	
N	-0.0284004597	 1.3415395475	 0.0868361131	-0.520162
C	 0.0711121398	-0.0141718755	 0.0190759481	 0.276318
O	 1.1202443431	-0.6205980118	-0.0542067977	-0.323882
C	-1.2185181294	-0.702690695	 0.0331949305	 0.065907
C	-2.2441865321	-1.3336898092	 0.0445949865	 0.05742
C	-3.464755096	-2.1458899326	 0.071225445	-0.181216
O	-3.2196403879	-3.535445601	 0.0452333483	-0.377048
C	-4.301810823	-1.7584366601	 1.2352495722	 0.279388
N	-4.9552805424	-1.4758625308	 2.1444615513	-0.309856
H	 0.8219686587	 1.8797501582	 0.1278277607	 0.274048
H	-0.9128163441	 1.8019024395	 0.2148388749	 0.274078
H	-4.0519765621	-1.9396998113	-0.83269742	 0.177935
H	-2.601360525	-3.7470472879	 0.7554541172	 0.30707
