18
gdb 121669	3.8612	0.82223	0.7673	0.521	70.22	-0.264	-0.0071	0.2569	1513.0612	0.147215	-476.220537	-476.211153	-476.210209	-476.256585	32.828	
O	 0.2266780344	 1.0017190187	-0.5338013395	-0.417864
C	-0.3086137078	-0.1958931799	-0.0064581205	-0.063705
C	-1.7585815764	-0.0375123971	 0.4253881873	-0.096327
O	-2.5627296336	 0.3454666303	-0.7159652472	-0.262662
C	-3.178470735	-0.6476580605	-1.3886759	 0.466984
O	-3.1176973107	-1.8190181474	-1.0951947612	-0.384135
C	-3.9585415205	-0.1152903288	-2.541178537	-0.130615
C	-3.8389857139	-0.8745878565	-3.8261138694	-0.220034
N	-5.0616563473	-0.9508355492	-3.0383761237	-0.301607
H	-0.3593441027	 1.2816566543	-1.2454693489	 0.288665
H	-0.23414888	-1.0291473359	-0.7219235076	 0.107848
H	 0.2966292803	-0.4553179119	 0.8687264803	 0.118409
H	-2.151734163	-0.9619336623	 0.8529220707	 0.139069
H	-1.860831458	 0.7887525894	 1.1323279713	 0.125651
H	-4.1242493208	 0.9557603301	-2.5541634034	 0.11332
H	-3.9176320661	-0.3272543908	-4.760702694	 0.130694
H	-3.1681818663	-1.7287090599	-3.8322252018	 0.135208
H	-5.0505800726	-1.8170960524	-2.5000731154	 0.251103
