17
gdb 87603	3.35916	1.3372	1.22871	2.8632	74.21	-0.2336	0.0024	0.236	1057.1288	0.13585	-421.786117	-421.778576	-421.777632	-421.817962	29.939	
O	-0.0078951826	 1.3805877901	-0.0792473094	-0.418073
C	 0.017128752	-0.0145362152	-0.0114728018	 0.058773
C	-0.4572877059	-0.6996324964	 1.2378834578	-0.384701
C	-1.3236215522	-0.7003810383	-0.0195469274	 0.311077
C	-2.6051712401	 0.0579597995	-0.0940468762	-0.14024
C	-3.5548034353	-0.6470572616	-0.7208024793	-0.114499
C	-2.9960015958	-1.9471063964	-1.2005818484	-0.011576
O	-1.9182272577	-1.792228508	-2.1579888207	-0.260003
C	-1.5825755811	-1.9762707207	-0.7812829894	-0.071375
H	 0.7219562474	 1.7158564438	 0.4522469684	 0.290363
H	 0.8128568002	-0.4895798236	-0.5852423433	 0.096894
H	 0.0058233534	-1.6365182965	 1.5327919279	 0.115931
H	-0.785154655	-0.0681417958	 2.0565927046	 0.119037
H	-2.6967330563	 1.0685306093	 0.2821330317	 0.116831
H	-4.5714563854	-0.3244019641	-0.90437487	 0.103019
H	-3.606847945	-2.833701177	-1.3404225877	 0.095898
H	-1.035569751	-2.8860011292	-0.5449619368	 0.092644
