15
gdb 130059	3.98965	1.012	0.91313	1.4065	74.36	-0.2156	0.001	0.2166	1273.9367	0.113486	-412.949775	-412.941398	-412.940454	-412.983668	30.515	
N	-0.1165179808	 1.3386568406	 0.0405348692	-0.591995
C	 0.0157328372	-0.0437034724	 0.0116888662	 0.332097
N	-1.0402174367	-0.8558751597	-0.0369033902	-0.308482
N	-0.4948505619	-2.0773495259	 0.0462807001	 0.152442
C	-1.3001225281	-3.2832097027	-0.0504420006	-0.29154
C	-1.6596529708	-3.6379786948	-1.4218318903	 0.3316
C	-1.9631244363	-3.9446243883	-2.5419916389	-0.452452
N	 0.8246159818	-2.1157480464	 0.12026068	-0.213668
C	 1.1822893456	-0.8316750164	 0.1099518281	-0.118206
H	 0.6284161597	 1.8280065677	-0.4350816152	 0.251874
H	-1.0208779879	 1.6440878748	-0.2935547789	 0.257169
H	-0.713724562	-4.0817501597	 0.4112715596	 0.166468
H	-2.2015394874	-3.1257863673	 0.5494243152	 0.16145
H	-2.2281615275	-4.2110696898	-3.535332214	 0.206425
H	 2.2166493653	-0.5365563397	 0.1830025497	 0.116818
