19
gdb 88365	2.27692	1.41431	1.15362	2.5762	77.32	-0.256	0.0463	0.3023	1158.7382	0.156122	-422.970297	-422.960644	-422.9597	-423.004153	37.309	
C	 0.1481894769	 1.4336945037	 0.1115049167	-0.395916
C	-0.0742325399	-0.0832563063	 0.0239636944	 0.134134
O	 0.5138853991	-0.6310138627	 1.1973141442	-0.455404
C	-1.5200585855	-0.3786024978	-0.0199509267	 0.353918
C	-2.6969138365	-0.6199838887	-0.0637540141	-0.498837
C	 0.576450288	-0.6386467658	-1.2551893285	-0.033243
C	 2.0373849395	-1.0334630735	-1.2532738916	-0.350704
C	 0.9609880738	-2.0817993013	-1.3867333087	 0.080713
O	 0.6736781936	-2.9383612443	-0.3047673541	-0.423148
H	 1.2216041569	 1.6394885495	 0.1289803864	 0.12167
H	-0.3036889957	 1.94432672	-0.7423868922	 0.117877
H	-0.3013818466	 1.816367321	 1.0303859105	 0.13241
H	 0.4487043398	-1.5935035235	 1.1059405029	 0.288531
H	-3.7355713864	-0.8395307461	-0.091048678	 0.193313
H	 0.1845287635	-0.1790078152	-2.157456678	 0.098803
H	 2.6570035894	-0.7990010756	-2.11176617	 0.112069
H	 2.5308332377	-0.9781005594	-0.2888935134	 0.131173
H	 0.8194513652	-2.5514164823	-2.3586029656	 0.097073
H	 1.417891727	-3.5402231115	-0.1957301244	 0.295569
