18
gdb 40980	3.95456	1.23576	1.22594	1.5736	77.65	-0.2426	0.0108	0.2533	1082.3794	0.150241	-401.975141	-401.967769	-401.966825	-402.00754	28.424	
C	-0.0065436657	 1.5826715723	 0.1527063548	-0.263589
C	 1.5062116146	 1.8560782279	-0.0332172807	-0.272015
C	 2.105696041	 0.5726545379	-0.6764417983	 0.293267
C	 2.414637353	 0.6760925001	-2.2048039059	-0.164579
O	 3.8569296315	 0.6239476251	-2.2931246568	-0.219846
C	 4.2711121344	 0.3360331685	-1.0367597901	 0.108471
N	 3.4326865231	 0.2583107024	-0.0907922108	-0.301984
C	 1.0484839925	-0.4642735021	-0.3677287806	-0.117103
C	-0.0887892537	 0.0780552755	 0.0594530882	-0.068258
H	-0.3844759649	 1.967578043	 1.1065137316	 0.109486
H	-0.6162549149	 2.0560842959	-0.6291090273	 0.106474
H	 1.7166604787	 2.7522796341	-0.6232992288	 0.095418
H	 1.9855522068	 1.9833580141	 0.9406162285	 0.125518
H	 2.0093578184	-0.1669029636	-2.7734124645	 0.115117
H	 2.0746841553	 1.6104537994	-2.6576651923	 0.119794
H	 5.3424474049	 0.1948884034	-0.9419236764	 0.138962
H	 1.232807764	-1.5197456803	-0.5347333047	 0.097485
H	-0.991231259	-0.4747285734	 0.2974163942	 0.097381
