20
gdb 64954	2.82541	1.34001	1.05805	2.5643	80.51	-0.2425	0.0016	0.2441	1204.7788	0.169986	-403.138725	-403.129531	-403.128587	-403.173062	34.204	
C	-0.0744168844	 1.3429253057	 1.2113314397	-0.45056
C	-0.1251616362	 0.3220713415	 0.0920236619	 0.232073
C	 1.1034533571	 0.1396614814	-0.7847903781	-0.307576
C	 0.7577288308	-0.9196476514	 0.2118791257	-0.278093
C	-1.4948699424	 0.1139757912	-0.4753396745	 0.333128
O	-2.4898166742	 0.5432144121	 0.069709881	-0.339698
N	-1.5653192321	-0.6982158533	-1.6327358845	-0.12315
C	-1.446402114	-0.0958836541	-2.9652789211	-0.231443
C	-2.753363302	-0.6048981205	-2.4605177248	-0.219156
H	 0.9374121188	 1.4127818821	 1.6214738834	 0.104406
H	-0.3675546628	 2.3354293053	 0.854730642	 0.122102
H	-0.7604739072	 1.0698182239	 2.0168752624	 0.136831
H	 0.9681663879	-0.0871466429	-1.834292995	 0.125662
H	 1.9388375549	 0.7975328302	-0.5706747196	 0.116673
H	 1.3508117913	-1.0020505927	 1.1163037218	 0.117906
H	 0.3532184735	-1.851569035	-0.1627713886	 0.13449
H	-1.3177786811	 0.9824914762	-3.0181828749	 0.133559
H	-0.8711886931	-0.6642560185	-3.6911640027	 0.125461
H	-3.1386622382	-1.5519052269	-2.8258802013	 0.123674
H	-3.4991715666	 0.1208320756	-2.1508577829	 0.143712
