16
gdb 52976	4.91182	0.90095	0.84322	3.5912	80.65	-0.2121	0.0216	0.2337	1388.496	0.122236	-400.618437	-400.61006	-400.609116	-400.653534	30.617	
C	-0.0013877934	 1.4780872936	-0.0460472616	-0.510874
C	-0.029886956	 0.0242012705	-0.0151759414	 0.275153
C	-0.0560895829	-1.1822061675	 0.0037268518	-0.228037
C	-0.0471146597	-2.5964666214	 0.0601567467	 0.202889
N	-0.3437141249	-3.4826669614	-1.10577684	-0.351565
C	-1.1672743537	-3.5870062663	 0.1097227631	-0.180022
C	-0.3700028906	-4.4283836583	 1.1678796075	 0.029119
O	 0.8938469373	-4.7954027845	 0.6124099531	-0.207701
C	 0.7366909166	-3.4777978885	 1.1193180033	-0.059972
H	 0.8215276354	 1.8665882443	 0.564130434	 0.153705
H	 0.1406407666	 1.8516015394	-1.066347449	 0.152805
H	-0.9322993179	 1.9082780219	 0.340338151	 0.149668
H	-0.8659109376	-2.9050005486	-1.7659798294	 0.238733
H	-2.2333628263	-3.4034578524	 0.1138159793	 0.111134
H	-0.7754969908	-5.0289147166	 1.972011348	 0.114541
H	 1.427042768	-3.1120916841	 1.8692260236	 0.110425
