18
gdb 79511	3.06347	1.67587	1.29081	2.1619	75.94	-0.2213	-0.0177	0.2035	1003.5037	0.14886	-401.908441	-401.901223	-401.900279	-401.93996	28.774	
C	-0.0959982737	 1.5525752969	 0.0269950734	-0.406738
C	 0.0368551027	 0.0344557033	-0.0085024836	-0.076358
N	 0.8481667328	-0.4622312862	-1.1450964051	-0.13308
C	 1.2541122176	-1.8956671886	-0.7966715848	-0.028128
C	 2.5669988485	-1.6744205889	-1.5660480337	-0.231164
C	 2.3219881265	-0.4212283766	-0.7092284058	-0.030204
C	 1.8981382504	-1.3115911279	 0.5121122235	-0.149634
C	 0.795489391	-0.5496909946	 1.1976855256	 0.409598
O	 0.5676082176	-0.4097376427	 2.3712498558	-0.336624
H	 0.8850088716	 2.0378707653	 0.0573184289	 0.1187
H	-0.6269911479	 1.9137561303	-0.8573298817	 0.128889
H	-0.6465102213	 1.8538030192	 0.922296	 0.13851
H	-0.9590637058	-0.4232653715	-0.0671354099	 0.101419
H	 0.5399567172	-2.718522726	-0.8663902588	 0.092727
H	 3.4143932152	-2.3028295079	-1.2898013964	 0.104623
H	 2.4685026843	-1.5396861435	-2.6444808473	 0.113652
H	 2.8866217415	 0.5117392462	-0.6806017604	 0.094505
H	 2.6185530719	-1.8637053867	 1.1138417104	 0.089306
