16
gdb 124315	4.71846	1.00694	0.89253	4.7055	70.65	-0.2609	-0.0353	0.2256	1286.0759	0.124664	-434.106351	-434.097922	-434.096978	-434.141276	29.152	
C	 0.065102408	 1.4569604404	-0.1367617093	-0.479262
C	 0.0059838204	 0.0113600348	 0.3091573425	 0.375094
O	 0.7200627485	-0.4468588614	 1.1651025602	-0.273048
C	-1.0635669777	-0.8371710141	-0.3947570391	-0.262049
N	-0.90314609	-2.2571218803	-0.2067883896	 0.04832
C	-0.8259847844	-2.9891948105	 0.9257362823	 0.033128
N	-0.6725069027	-4.2678929824	 0.6383873235	-0.279301
C	-0.653441383	-4.2644010729	-0.7227874779	 0.039516
N	-0.7882293641	-3.0767086745	-1.2871090594	-0.252591
H	 0.4956546896	 1.5089353436	-1.1438873172	 0.15767
H	-0.9369383941	 1.8954384618	-0.1947754244	 0.142175
H	 0.68758343	 2.0311099471	 0.5497824492	 0.155574
H	-2.0429348238	-0.5014630038	-0.0256161055	 0.15107
H	-1.0508857606	-0.6565189461	-1.4718149351	 0.16239
H	-0.8712138039	-2.5509018472	 1.9094795711	 0.15354
H	-0.5387703322	-5.1604425944	-1.3143260913	 0.127773
