22
gdb 119270	4.02475	0.72485	0.65545	3.0265	79.39	-0.2391	0.0769	0.3161	1753.8141	0.192918	-441.438141	-441.427518	-441.426574	-441.474539	37.648	
C	 1.3266280468	 1.54972705	-0.3191347943	-0.227889
O	 1.5032922374	 0.1530076859	-0.3595580634	-0.240919
C	 0.2912598527	-0.560915792	-0.4604596817	-0.129133
C	 0.5719818019	-2.055738228	-0.4628281792	 0.281394
C	-0.7019023785	-2.8836859154	-0.399456348	-0.26332
C	-0.5139957504	-4.3983734047	-0.5225714709	-0.083317
O	-1.736531713	-5.1001935283	-0.3430209729	-0.420256
C	 1.8105334632	-2.5268190738	-1.1338557364	-0.271317
N	 1.7054191804	-2.5341615808	 0.3421516843	-0.351954
H	 0.8430186957	 1.9243800091	-1.2342590712	 0.110094
H	 0.7154623772	 1.8568781271	 0.543574344	 0.109443
H	 2.3172206606	 2.0018179553	-0.231212063	 0.131466
H	-0.3670925142	-0.3111070532	 0.3907732344	 0.089649
H	-0.2494364887	-0.2789074014	-1.3800831956	 0.096191
H	-1.1938073704	-2.6758332354	 0.562969733	 0.087912
H	-1.3979671861	-2.5510659425	-1.1802068772	 0.103263
H	-0.1771484156	-4.6599831224	-1.5304709813	 0.109301
H	 0.2567837872	-4.7329561277	 0.1842544966	 0.117449
H	-2.0019526463	-4.9916745253	 0.5756582409	 0.279604
H	 1.8523636258	-3.5084801673	-1.5953932339	 0.114258
H	 2.445890681	-1.7753952438	-1.5913548086	 0.120632
H	 2.2073270334	-1.7231190254	 0.6982853044	 0.237449
