19
gdb 38643	2.76593	2.21555	1.93127	1.463	77.17	-0.225	0.0148	0.2398	832.3223	0.164569	-385.887604	-385.881882	-385.880938	-385.917175	26.207	
C	-0.0265925192	 1.5898533241	 0.0153892123	-0.206931
C	 1.5189531372	 1.6782139578	 0.0352264581	-0.061474
C	 1.7459203375	 1.0408965488	 1.4149366423	-0.201176
C	 1.0930544611	-0.353170366	 1.1075437737	-0.115853
C	 2.2411502525	-1.1320741807	 0.5128619449	-0.046192
C	 2.7759548245	-0.5378828361	-0.5585328195	-0.076773
C	 1.9046864694	 0.5844656417	-1.0736389689	 0.038875
O	 0.6341098609	-0.0950641335	-1.3085267465	-0.262111
C	 0.0231032231	 0.0529323412	-0.0366534402	 0.087694
H	-0.4804180877	 2.030465495	 0.9058463718	 0.089656
H	-0.5076130867	 1.9822739519	-0.8813985206	 0.101542
H	 1.9768274261	 2.6523220763	-0.1353546735	 0.066089
H	 2.7886752161	 0.935794569	 1.7143973248	 0.096805
H	 1.2168350313	 1.6033201343	 2.1898094019	 0.091577
H	 0.6250663567	-0.8367745426	 1.9649635941	 0.064386
H	 2.6206283062	-2.0365796044	 0.9747809088	 0.092068
H	 3.6438274487	-0.8886899509	-1.1038071281	 0.091335
H	 2.2402009762	 1.0274727287	-2.0115825467	 0.074219
H	-0.9060478139	-0.5154232646	-0.0142086687	 0.076265
