21
gdb 113209	3.25387	0.97221	0.85109	1.821	78.89	-0.2455	0.0467	0.2922	1417.1895	0.182319	-420.345586	-420.335925	-420.33498	-420.380481	35.939	
C	-0.0355918145	 1.8115999552	 0.189429399	-0.448307
C	-0.0655830387	 0.2957438845	 0.1347848775	 0.282512
N	 1.0274100916	-0.3321385699	-0.6258191035	-0.387015
C	 0.9399349922	-0.5550261006	 0.8371490318	-0.069706
C	 2.1287812999	-0.0587702535	 1.6278646104	-0.07631
O	 3.2833472781	-0.8287298038	 1.3348013537	-0.419623
C	-1.4733929556	-0.2411544203	 0.0122391119	-0.045572
C	-2.0792555563	-0.5090286041	-1.3173848744	-0.246783
N	-1.7859894962	-1.615658488	-0.3856305523	-0.325773
H	 0.9863431235	 2.192141737	 0.1918934268	 0.132045
H	-0.5454362016	 2.2266772657	-0.6864585213	 0.124222
H	-0.5494054729	 2.1811213512	 1.083581433	 0.120384
H	 0.7103021157	-1.1539734082	-1.1360557747	 0.216991
H	 0.5851972245	-1.535327363	 1.1529605876	 0.094742
H	 2.3054937328	 1.0080810629	 1.435571136	 0.089287
H	 1.9431560546	-0.1766782388	 2.7007043893	 0.110325
H	 3.3999793811	-0.7733588769	 0.3787904791	 0.289197
H	-2.1295515556	 0.1272053453	 0.7995648979	 0.099149
H	-3.1348658307	-0.3248498594	-1.4937052214	 0.123239
H	-1.4438713887	-0.3844649823	-2.1910127221	 0.116707
H	-0.9503991433	-2.1161468228	-0.6826992244	 0.220288
