15
gdb 47343	3.47502	1.18238	0.91604	3.3687	67.71	-0.2844	-0.0184	0.266	1190.6928	0.113939	-453.959361	-453.951623	-453.950679	-453.992106	28.318	
N	-0.0436136308	 1.3156259026	 0.1568651857	-0.488634
C	-0.0087907048	 0.069145259	-0.0346581027	 0.363064
C	-1.2747951113	-0.7581798115	-0.0797612666	-0.270604
C	-1.1170066993	-1.9469419101	-1.0437980862	-0.053269
O	 0.0915249427	-2.6337070491	-0.7408447063	-0.228216
C	 1.1840808578	-1.7904539068	-0.9379797308	 0.0114
O	 1.1659645077	-0.6362725383	-0.1018290703	-0.245151
C	-2.2296664489	-2.8954963929	-0.935776005	 0.285946
N	-3.1329772931	-3.6093741723	-0.8535146567	-0.30239
H	 0.9050057888	 1.6939775648	 0.2053026456	 0.229721
H	-1.4580850144	-1.1568166387	 0.9238254175	 0.159062
H	-2.1137428736	-0.1186331523	-0.3548810599	 0.155995
H	-1.0829886039	-1.5831739487	-2.0841683007	 0.130292
H	 2.0799589702	-2.3502980054	-0.6704839135	 0.14572
H	 1.2315403328	-1.4603164904	-1.98888018	 0.107066
