21
gdb 64399	2.23386	1.60352	1.26289	3.0386	77.82	-0.236	-0.0262	0.2098	1110.3083	0.181092	-424.244358	-424.234921	-424.233977	-424.278379	35.183	
C	-0.4854960136	 1.5779734949	 0.1365342205	-0.458213
C	 0.0072837733	 0.1285451787	 0.0554883899	 0.273665
C	-1.1718650182	-0.8108192584	-0.2519444057	-0.4302
C	 1.1484134292	-0.0637825781	-0.973513549	-0.26958
C	 1.9282048974	-1.2835384799	-0.4462645103	-0.075535
O	 1.504746577	-1.4900850023	 0.9088566581	-0.2541
C	 0.7360383549	-0.3906021847	 1.3353943898	-0.004645
C	 1.5985410614	 0.6851829535	 1.9869349456	 0.140733
O	 2.7796922769	 0.8124964494	 1.7926404679	-0.249188
H	 0.3334287583	 2.2843246651	 0.3044141045	 0.12642
H	-0.9769757847	 1.8619924876	-0.7998724842	 0.121492
H	-1.2182847316	 1.7081284222	 0.940823336	 0.11685
H	-1.6055041748	-0.5750427973	-1.2297057625	 0.113605
H	-0.8547386286	-1.8570363771	-0.2609201881	 0.133598
H	-1.9629610276	-0.7051209999	 0.4982758749	 0.113568
H	 0.7646590279	-0.2168019943	-1.9856090469	 0.102954
H	 1.7913373196	 0.8207027675	-0.9903997269	 0.116279
H	 1.7051799208	-2.1987116863	-1.0063088137	 0.101519
H	 3.0098097418	-1.1172289956	-0.4698648282	 0.117288
H	 0.0175433853	-0.7444327356	 2.0872973927	 0.089223
H	 1.0468169755	 1.3729427306	 2.6698879657	 0.074267
