22
gdb 105372	2.40504	1.35635	1.08003	1.3426	82.23	-0.2147	0.0835	0.2982	1234.4777	0.192823	-404.281496	-404.271836	-404.270892	-404.316461	36.029	
C	 0.6064251871	-0.2841688039	 0.7419787564	-0.252821
O	-0.4079257674	-0.0836499983	-0.2258259869	-0.280237
C	-1.6091407041	-0.7694605901	 0.0312674555	 0.413839
C	-2.4589914185	-0.2536524986	 1.1869710415	-0.215983
N	-3.0156526406	 1.0970094975	 1.1486071013	-0.079138
C	-2.2029760201	 2.2443885778	 0.7621201139	-0.223069
C	-3.312694688	 1.7630827649	-0.1117261081	-0.225814
C	-2.2698422353	-1.3055206271	-1.2055987658	-0.303836
C	-1.5987762286	-2.2581124385	-0.2409810202	-0.332548
H	 1.5104412453	 0.1907579074	 0.3532463762	 0.126989
H	 0.3582940988	 0.1753982666	 1.7084201334	 0.113845
H	 0.8038535222	-1.3526832246	 0.9039094359	 0.110848
H	-3.3057595066	-0.9426784787	 1.2951633145	 0.103236
H	-1.8871915023	-0.3298115901	 2.1205009055	 0.105129
H	-2.3348828228	 3.1308724363	 1.3781680698	 0.10508
H	-1.1964335519	 2.0725643734	 0.3953983228	 0.131182
H	-3.0220201165	 1.2856476537	-1.0432749092	 0.122336
H	-4.2612748675	 2.2932727601	-0.1465150228	 0.10707
H	-3.3530621166	-1.2951037028	-1.2560874628	 0.117455
H	-1.7650350407	-1.1129759766	-2.1451860007	 0.123716
H	-0.6551396572	-2.6899871513	-0.554379388	 0.118053
H	-2.215871739	-2.9085264268	 0.3695971278	 0.114668
