23
gdb 114068	2.74901	1.19572	0.99602	1.0535	87.39	-0.2362	0.0845	0.3207	1334.4543	0.203753	-388.266728	-388.256635	-388.255691	-388.301293	37.765	
C	-0.2287251853	 1.3204138339	 0.0969610197	-0.234608
O	 0.3320858608	 0.0476746941	-0.1256597038	-0.24625
C	 0.7876488329	-0.5742441115	 1.051535173	 0.090947
C	-0.2640682674	-1.2040224798	 2.0314572181	-0.32999
C	 0.4151391555	-2.5649516991	 1.8258221215	 0.311912
C	 0.6331753427	-3.5857863842	 2.9051740489	-0.495443
C	 0.3513067967	-2.9021154953	 0.3607020323	-0.370275
C	 1.4176635826	-1.9435721933	 0.8304645723	 0.287326
C	 2.8868704777	-2.1802530463	 0.6231894111	-0.506964
H	 0.4963624119	 2.0099567773	 0.5587339708	 0.100728
H	-0.5258573321	 1.721982362	-0.8750985832	 0.124566
H	-1.1167649825	 1.2746728505	 0.7457782513	 0.105863
H	 1.4687122039	 0.1024635715	 1.5916605971	 0.058657
H	-0.1779543543	-0.8156902367	 3.0500275271	 0.094597
H	-1.3101741635	-1.1405726277	 1.7126460879	 0.094033
H	-0.3079430913	-4.0748627891	 3.1856293397	 0.119829
H	 1.323834582	-4.3701888078	 2.5775292487	 0.115891
H	 1.0498289842	-3.1300211371	 3.8111613436	 0.112588
H	 0.7217928503	-3.888343233	 0.0953451428	 0.10183
H	-0.4701457671	-2.5525984574	-0.2592291132	 0.11127
H	 3.20065872	-1.8629830155	-0.3783924776	 0.127573
H	 3.4906912236	-1.6259193227	 1.3514265632	 0.111133
H	 3.1362095487	-3.2418707027	 0.7237002488	 0.11479
