17
gdb 8550	3.95217	2.26474	1.85577	2.3333	66.9	-0.2055	0.0691	0.2746	757.1218	0.143498	-363.794871	-363.788372	-363.787428	-363.825097	26.325	
O	-0.0532213834	 1.4314076368	-0.0151189937	-0.481548
C	-0.0119967933	 0.036214482	 0.0159745725	 0.396171
C	 0.3856866095	-0.7259751946	-1.2775836892	-0.303877
C	-0.7245946337	-1.7773559463	-1.000065599	-0.04488
C	-0.3561159032	-2.7229205523	 0.1580805964	-0.168559
N	-0.678090314	-1.6850620627	 1.1965451773	-0.145208
C	 0.4441550309	-0.6882499719	 1.3017426566	-0.232688
C	-1.3063479261	-0.8294093866	 0.09832433	-0.043368
H	 0.8333336991	 1.7588209479	-0.2048832175	 0.277918
H	 0.1220266061	-0.1115707455	-2.1437326999	 0.108755
H	 1.4172702382	-1.0799275749	-1.380884033	 0.087585
H	-1.2767056536	-2.1719671462	-1.8534759204	 0.070818
H	-1.0545147106	-3.5602494095	 0.2572809975	 0.107257
H	 0.6670631002	-3.1149652388	 0.1973414545	 0.09461
H	 1.4500060198	-1.1232348094	 1.3357882872	 0.090112
H	 0.2920252917	-0.0576913351	 2.1838317815	 0.110124
H	-2.3271371474	-0.466152663	 0.2038800491	 0.076777
