17
gdb 67663	3.02853	1.89105	1.65907	1.3112	69.61	-0.229	0.0728	0.3018	865.9265	0.137867	-421.776093	-421.76973	-421.768785	-421.806379	27.127	
O	-0.048966401	 1.3850838057	 0.0419189183	-0.467598
C	 0.0238165698	 0.0061422583	 0.0395548383	 0.378343
C	-0.1342076806	-0.8152576394	-1.2324662263	-0.144585
C	 0.7025054546	-2.0772740922	-1.4067578595	-0.23143
C	 0.856397692	-2.557691092	 0.0344670309	 0.082042
O	 1.7897613118	-1.6684060422	 0.7184472931	-0.315495
C	 0.674577133	-0.8633707619	 1.1440810167	 0.028879
C	-0.3661402575	-1.9530574192	 0.8240046389	-0.099517
C	-1.1288541333	-0.9813624328	-0.1043366849	-0.152501
H	 0.72332419	 1.7314717068	-0.4194005706	 0.288161
H	-0.4492621982	-0.2353608773	-2.0939876764	 0.089097
H	 0.1641107999	-2.8098964673	-2.0212460935	 0.096406
H	 1.6852982393	-1.9028878632	-1.8545071907	 0.109854
H	 1.1316369557	-3.6061295459	 0.1644541104	 0.076403
H	 0.8059902038	-0.3834725	 2.1161579288	 0.084345
H	-0.8704279168	-2.5414000372	 1.585090661	 0.080694
H	-2.1958073625	-0.8214206102	-0.1749255245	 0.096904
