16
gdb 24089	3.66929	1.03177	0.90306	1.4244	75.72	-0.1961	0.0273	0.2235	1279.7669	0.124347	-400.721547	-400.713255	-400.71231	-400.755208	31.012	
C	 0.0308661921	-0.0701801932	 1.2296544449	-0.461199
C	 0.0340078235	 0.5792193414	 0.2180063229	 0.315989
C	 0.0714471695	 1.3561036556	-1.0280639977	-0.332026
N	 1.2862814243	 2.1291548195	-1.2560087022	-0.379228
C	 1.5498251887	 3.2011435971	-0.3959307802	 0.265397
C	 0.7381195163	 3.7735114739	 0.5409292154	-0.0825
O	 1.3560363174	 4.8624383336	 1.0972100276	-0.150946
C	 2.5714676179	 4.9666020785	 0.5151005032	 0.017906
C	 2.7545505346	 3.9873159936	-0.4065961989	-0.28611
H	 0.0247387975	-0.6368878884	 2.1277616233	 0.20113
H	-0.0601833544	 0.6792828284	-1.8796199705	 0.138635
H	-0.7769176258	 2.0512656401	-1.0554696352	 0.146561
H	 2.0947937211	 1.5355790211	-1.3889735168	 0.238047
H	-0.2374812999	 3.5380083271	 0.9267649092	 0.130461
H	 3.1877932313	 5.7835922489	 0.8529209676	 0.133307
H	 3.6216838558	 3.8366052527	-1.0308197528	 0.104576
