17
gdb 22218	3.45111	0.85563	0.7263	5.0012	72.82	-0.2679	-0.0156	0.2523	1502.3797	0.132947	-455.117337	-455.10709	-455.106146	-455.153591	35.688	
C	-1.3383381592	 0.9217325475	 0.4240001316	-0.481535
C	-0.1169597267	 0.1806382168	-0.042375105	 0.331045
N	 0.917704728	-0.0597435459	 0.6670591577	-0.152836
O	 0.7973737836	 0.4377544636	 1.966253526	-0.400332
C	-0.0940895055	-0.3096214019	-1.4791036636	 0.037958
O	-0.2542158721	 0.7797049814	-2.3767476682	-0.41336
C	 1.1529291555	-1.1542976049	-1.8114994351	-0.373749
C	 1.1277940276	-1.6428359671	-3.1874799541	 0.270627
N	 1.1135235878	-2.0436467294	-4.2707995657	-0.304674
H	-1.9748081809	 0.2627482275	 1.0262653474	 0.14856
H	-1.0575025605	 1.7632915265	 1.0610255725	 0.152852
H	-1.9126848872	 1.2815573239	-0.4307128362	 0.146788
H	 1.6442097706	 0.1999677175	 2.3595282005	 0.310048
H	-0.9859705348	-0.9262272571	-1.6456268982	 0.121187
H	 0.4881826044	 1.3826078542	-2.2500286085	 0.288675
H	 2.0582308372	-0.5598140734	-1.6512938831	 0.154447
H	 1.2211070723	-2.0035120792	-1.1254791879	 0.164301
