19
gdb 114456	4.49493	1.10502	1.02522	2.1852	74.25	-0.2265	0.0707	0.2972	1184.4794	0.160375	-422.958985	-422.951418	-422.950474	-422.991205	29.859	
O	-0.0978386557	 1.4755856579	-0.062741842	-0.420109
C	 0.0229485304	 0.0673024842	 0.0746740961	-0.091256
C	-1.3765988636	-0.5286857529	 0.0157566891	-0.003239
C	-2.0883124694	-0.3316215585	-1.3632026599	-0.260102
C	-2.3568082206	-1.7807774356	-1.7467450834	-0.030032
C	-2.7325795065	-2.5970599112	-0.4746144286	 0.04181
O	-2.0633286947	-3.7960364367	-0.9969905451	-0.319262
C	-1.1621244649	-2.6769490367	-1.3050717691	 0.052386
C	-1.3952000938	-2.052725477	 0.1057390448	-0.050218
H	 0.7848082188	 1.8569911753	-0.060138979	 0.287315
H	 0.6424038442	-0.3591766086	-0.732451732	 0.082731
H	 0.5023755327	-0.1999402615	 1.0302943425	 0.086423
H	-1.962282416	-0.0797895881	 0.8259734466	 0.081737
H	-3.0084624706	 0.2533256045	-1.2771537547	 0.105705
H	-1.4448780608	 0.1851641192	-2.0817870718	 0.109607
H	-2.8615434987	-2.0250679375	-2.6808869743	 0.076212
H	-3.6997498969	-2.722436468	 0.0142913498	 0.088413
H	-0.2306765038	-2.9050886084	-1.8248264042	 0.086987
H	-0.9671724701	-2.5600267104	 0.9704429351	 0.074894
