15
gdb 3122	5.18969	2.25	1.85181	3.1528	63.08	-0.2438	-0.0175	0.2263	707.5096	0.125386	-308.504896	-308.498548	-308.497604	-308.535055	23.798	
O	-0.1405903956	 0.0079274163	 0.0738007368	-0.272803
C	-0.0108658118	 1.2054400904	-0.0377593204	 0.05636
C	 1.2697034286	 1.9119959048	 0.0064079718	 0.28458
C	 1.3655811652	 3.387346344	 0.3396073611	-0.324961
C	 1.7706986755	 2.9740435846	-1.0276733141	-0.085382
C	 3.1511374536	 2.3055598687	-1.029178049	-0.218974
C	 2.653487157	 1.2595460427	 0.0211554455	-0.298474
H	-0.8923929778	 1.868876419	-0.2064307047	 0.058482
H	 0.4148100795	 3.9070227673	 0.4136462869	 0.124699
H	 2.1068770368	 3.7018472969	 1.0705504336	 0.119952
H	 1.2367740687	 3.3203011284	-1.9044771717	 0.103587
H	 3.3978990783	 1.8452461654	-1.9874515475	 0.114746
H	 3.9816641911	 2.9516048326	-0.72762896	 0.10449
H	 3.1621517554	 1.2536292058	 0.9894834531	 0.103131
H	 2.6266705656	 0.2412033531	-0.3685220912	 0.130566
