15
gdb 126296	3.54576	1.14901	0.92416	4.8615	71.74	-0.275	-0.1031	0.1719	1234.4816	0.11097	-453.933399	-453.925183	-453.924239	-453.966823	29.582	
C	 0.026225762	 1.5801550108	 0.1145522043	-0.382325
C	-0.0171028257	 0.054132494	-0.079565819	-0.26475
C	-1.4177155182	-0.4780790254	-0.1120686213	 0.374876
C	-2.0264585125	-1.0321483826	-1.1759326866	-0.336071
C	-3.3988209584	-1.5007027204	-1.0806628536	 0.486681
O	-4.048059682	-2.0090701584	-1.9522736765	-0.328602
O	-3.9753267714	-1.319516656	 0.1675220102	-0.263196
N	-3.2724345157	-0.7237075654	 1.2680446379	 0.065
N	-2.1098865766	-0.3492592723	 1.1067537199	-0.160848
H	 1.0623628803	 1.9227426825	 0.1763073385	 0.129862
H	-0.4559691889	 2.0958706345	-0.7211906312	 0.128949
H	-0.4862712672	 1.8675326242	 1.0362127698	 0.149178
H	 0.4938016082	-0.2300763818	-1.0039735017	 0.12026
H	 0.5109946694	-0.4298832109	 0.7507445428	 0.137315
H	-1.5312947236	-1.1538385028	-2.1319250534	 0.143669
