21
gdb 104543	2.54593	0.88668	0.75551	2.0432	86.7	-0.245	0.054	0.299	1619.5787	0.179563	-387.055487	-387.044741	-387.043797	-387.093117	37.619	
C	-0.3466429193	 0.9777389285	-0.635346494	-0.386573
C	-0.7508776155	-0.4963147292	-0.5057518012	-0.248336
C	-1.4041091649	-0.8247799443	 0.8236919432	 0.433215
C	-2.7504914747	-0.1641200136	 1.125770626	-0.431554
C	-3.801237596	-0.5368042885	 0.1838047136	 0.074158
C	-4.6569424836	-0.8561310473	-0.6010859772	 0.053788
C	-5.7016221017	-1.2363503413	-1.5417005158	-0.496788
C	-1.0740213783	-2.0769623716	 1.5158825906	-0.227635
O	-0.5145596637	-0.831000522	 1.949105514	-0.282778
H	 0.1918527776	 1.1482448438	-1.5721007352	 0.113999
H	-1.2173115169	 1.6409520217	-0.6336510798	 0.120564
H	 0.3076509928	 1.2718056939	 0.190942931	 0.132286
H	-1.442014094	-0.7708257657	-1.3108590011	 0.113904
H	 0.1373862489	-1.1275465215	-0.6132440841	 0.100716
H	-3.0376773671	-0.434609135	 2.1482354354	 0.132627
H	-2.6190460737	 0.9255514645	 1.1269228053	 0.133095
H	-5.885648581	-0.4448437983	-2.2766174046	 0.147384
H	-5.4305193518	-2.1433809794	-2.0933225007	 0.14714
H	-6.6476600577	-1.4347574381	-1.0257890876	 0.148488
H	-1.7953884716	-2.527321873	 2.1968679494	 0.111328
H	-0.3676357677	-2.7730206234	 1.0654327126	 0.110972
