16
gdb 129968	5.72062	0.97529	0.89213	2.3897	72.29	-0.2346	0.0063	0.2408	1291.7057	0.125853	-434.0679	-434.060002	-434.059058	-434.1014	29.557	
N	-0.032905367	 1.3320448828	-0.079606273	-0.59425
C	-0.0561157887	-0.0234010861	 0.0017318813	 0.492846
N	-1.0944986476	-0.8091616058	-0.0867618198	-0.396406
C	-0.5232414632	-2.0437216893	 0.133756705	 0.380722
N	 0.7705084811	-2.0324424733	 0.3389524777	-0.222862
O	 1.0956178269	-0.6496776063	 0.2498272648	-0.207759
C	-1.3250960432	-3.2788014779	 0.1330972708	-0.106724
C	-0.7309060078	-4.5728804173	-0.3924459493	-0.258049
C	-0.9730421846	-4.4149931968	 1.0761652516	-0.25721
H	 0.8537801705	 1.7567030816	-0.2996825144	 0.275557
H	-0.8396119847	 1.7474389356	-0.5168843111	 0.279973
H	-2.3746417181	-3.0948099807	-0.0591168444	 0.104087
H	-1.3843922914	-5.2238828993	-0.9622673716	 0.116303
H	 0.292635712	-4.5242695584	-0.744988617	 0.138282
H	-0.1134387351	-4.2591311201	 1.7172862264	 0.138807
H	-1.7954868791	-4.9556292487	 1.5309154228	 0.116682
