20
gdb 58616	2.30472	1.42237	1.06248	2.7253	75.25	-0.2455	0.0265	0.2719	1191.5103	0.169534	-440.307786	-440.297887	-440.296943	-440.342381	37.484	
C	 0.4815243932	 0.0100330685	 1.2997996712	-0.413027
C	-0.057429657	-0.1029519041	-0.128152431	 0.019702
O	 0.8670709457	-0.7957944968	-0.9610509754	-0.430026
C	-1.4571123277	-0.7337942251	-0.1801789555	 0.225056
C	-1.8451764853	-1.5429871666	-1.4124136813	-0.29179
C	-1.5739314745	-2.2429824036	-0.1188179003	-0.292078
C	-2.6286655884	 0.0010509742	 0.42743332	 0.347852
N	-2.4534514616	 1.3386482532	 0.6839002173	-0.541315
O	-3.6842132475	-0.5528855785	 0.6784594589	-0.37087
H	 1.476468861	 0.4639403661	 1.2922652857	 0.122606
H	-0.1776235507	 0.6117102106	 1.9303097881	 0.134691
H	 0.5546446838	-0.9852392198	 1.7547111943	 0.117568
H	-0.1023318194	 0.8985578959	-0.5789427176	 0.075376
H	 1.1969694897	-1.5553909527	-0.469810434	 0.283921
H	-2.8759881305	-1.4682652139	-1.7370462531	 0.129608
H	-1.0950657518	-1.6061692512	-2.1905423242	 0.130751
H	-0.6550051724	-2.8132095992	-0.0346488878	 0.090463
H	-2.418696965	-2.6282951503	 0.437760814	 0.143749
H	-1.7115757756	 1.8634336209	 0.2531168207	 0.258487
H	-3.289287786	 1.8454115826	 0.9315059498	 0.259277
