13
gdb 33821	2.36309	1.54856	1.14871	4.6188	69.79	-0.2873	-0.0481	0.2392	1040.4548	0.089165	-415.58036	-415.572798	-415.571854	-415.61272	27.617	
N	 0.0250672249	-1.1842213538	-0.0436129048	-0.330239
C	 0.0173750297	-0.0272449307	-0.0262735379	 0.229527
C	-0.0116106616	 1.3937344409	 0.0081248036	 0.047128
C	 0.2536033395	 2.2751635244	-1.199326428	-0.360952
C	 1.1316821881	 2.4376711321	 0.0014448358	 0.309621
O	 0.5001263082	 3.2265952119	 0.9973833482	-0.301827
C	-0.5697694947	 2.2533070073	 1.1469626422	-0.129018
C	 2.5518179777	 2.2893555211	 0.0188452886	 0.252765
N	 3.701723719	 2.1682247913	 0.0227096278	-0.327109
H	 0.6981041475	 1.7553999828	-2.0407583605	 0.170909
H	-0.4380113606	 3.0767803215	-1.4400686485	 0.150426
H	-1.5590572535	 2.6933693366	 0.9936763967	 0.137078
H	-0.5074243143	 1.7638069345	 2.1220277068	 0.151691
