23
gdb 103859	3.00601	0.92142	0.85587	1.3178	87.11	-0.2429	0.0734	0.3164	1511.2243	0.204117	-388.264956	-388.254878	-388.253934	-388.300162	38.252	
C	-0.2504688481	 1.5886417284	 0.1214036391	-0.397737
C	 0.160608755	 0.1282359072	-0.1029035649	-0.222544
C	 0.7924055188	-0.504105806	 1.122670644	 0.400763
O	 1.9794174247	 0.1276285579	 1.5457298829	-0.475526
C	-0.0701588204	-1.1175934853	 2.2048936977	-0.372825
C	 0.8178642836	-1.9923936905	 1.3323466429	-0.049768
C	 0.2456161626	-2.981695507	 0.3676334136	 0.016075
C	 1.1589463677	-3.7842899924	-0.5284729857	-0.267825
C	 0.4336072146	-4.4606506334	 0.6084123433	-0.275708
H	 0.6173852699	 2.2107611067	 0.3653096787	 0.112276
H	-0.7089650483	 2.0111563096	-0.7774206443	 0.115195
H	-0.9734252001	 1.6771242212	 0.9400693958	 0.115679
H	-0.7169438218	-0.4540011282	-0.4023102941	 0.094255
H	 0.8755789762	 0.0712133139	-0.9329460417	 0.105593
H	 1.737200059	 0.9612401916	 1.9633832733	 0.280259
H	 0.2267086495	-0.9641054636	 3.236666182	 0.107054
H	-1.1428870345	-1.1644612176	 2.0406585402	 0.10467
H	 1.731352184	-2.3269884584	 1.8179864873	 0.08979
H	-0.7104248831	-2.7006353766	-0.0641674283	 0.077911
H	 0.8372248824	-3.9914761781	-1.5432493227	 0.108457
H	 2.227527469	-3.6268886086	-0.4255326086	 0.114821
H	 1.0145355991	-4.7589684257	 1.4750195969	 0.111161
H	-0.3860963295	-5.1304676651	 0.3727956829	 0.107973
