16
gdb 101544	2.93307	0.92181	0.78459	3.9663	66.92	-0.2779	-0.0878	0.1901	1418.6582	0.121426	-475.027161	-475.017169	-475.016225	-475.063354	34.264	
O	 0.1331928221	 0.8314392354	 0.6842944523	-0.404209
C	-0.1540123953	 0.147478909	-0.5206899605	-0.104921
C	-1.4785180223	-0.6279905141	-0.4672034519	 0.09965
O	-1.7648441598	-1.2405874367	-1.7114385636	-0.422583
C	-1.4905310678	-1.6352389952	 0.7038199614	-0.323175
C	-2.8371325855	-2.3125696231	 0.7981136773	 0.317811
O	-3.7754701258	-1.8847180796	 1.4210329094	-0.266051
C	-2.9660836494	-3.5691287577	 0.0263752651	 0.219964
N	-3.0370207904	-4.5626687246	-0.5611978861	-0.308205
H	-0.4529007594	 1.5926456732	 0.746317081	 0.294408
H	-0.1842791983	 0.8196770501	-1.3893568553	 0.113514
H	 0.6739344224	-0.5562818439	-0.6766308524	 0.108918
H	-2.2986498782	 0.0837879072	-0.3085842978	 0.110297
H	-1.0792563608	-1.8906520625	-1.9055129586	 0.291569
H	-0.6976108295	-2.3780106628	 0.5551602362	 0.118989
H	-1.3018478419	-1.0929675747	 1.6331752136	 0.154023
