19
gdb 75389	2.04041	1.75177	1.03393	3.3777	84.23	-0.2265	-0.0475	0.179	1179.0859	0.159476	-385.926625	-385.918087	-385.917143	-385.95992	32.444	
C	-0.2647095647	 1.4025749844	 0.3826863096	-0.476755
C	 0.1156940428	 0.0276720232	-0.0914598715	 0.313658
C	-0.2375664162	-0.453752388	-1.2827060254	-0.150152
C	 0.1061746545	-1.8434338901	-1.7741515734	-0.326594
C	-0.3166022325	-2.9910263356	-0.8882917779	-0.039136
C	-0.3456357893	-3.0429174441	 0.4499875873	-0.132563
C	 0.1026413964	-2.0074976949	 1.4101047296	 0.369286
O	-0.1338514676	-2.1246680668	 2.5962469901	-0.32471
C	 0.913476079	-0.8262579312	 0.8782123681	-0.408268
H	 0.6261529984	 2.0011952901	 0.6116674873	 0.127098
H	-0.8561118699	 1.9387306217	-0.3640172006	 0.121354
H	-0.8484181642	 1.3479486705	 1.3101970967	 0.138385
H	-0.806623859	 0.1723932631	-1.96460874	 0.088393
H	-0.3337068823	-1.9969854374	-2.7638198913	 0.115035
H	 1.1961718716	-1.9197040214	-1.9363570032	 0.134199
H	-0.6445641431	-3.8808116076	-1.4234824412	 0.107081
H	-0.7266297739	-3.9350838122	 0.9401202417	 0.10405
H	 1.8036829008	-1.2264684932	 0.3726378708	 0.121061
H	 1.246661639	-0.2478666205	 1.7417952934	 0.118578
