22
gdb 109616	2.52451	1.05778	0.96918	1.7848	90.62	-0.2199	0.0486	0.2686	1395.1454	0.190416	-367.151831	-367.140925	-367.139981	-367.187494	40.035	
C	-1.6278289882	 0.1604680986	-3.5746398987	-0.378899
C	-0.8539210376	-0.316526742	-2.3377517779	-0.211174
C	-1.7821107815	-0.7362529027	-1.2137390962	-0.022588
N	-2.3645751948	-2.0676231088	-1.0708516861	-0.11993
C	-2.0558409234	-3.1407130574	-2.0027505694	-0.319433
C	-1.3617911824	-1.6355930589	-0.0735658709	 0.052483
C	 0.0353167865	-2.2401933884	-0.014250298	-0.463775
C	-1.913233235	-1.3749810459	 1.2392236393	 0.304014
C	-2.3346530795	-1.149730482	 2.3428809778	-0.427253
H	-0.9443825585	 0.5047859464	-4.3566834873	 0.114032
H	-2.2423958527	-0.6423696887	-3.9941667823	 0.123461
H	-2.2962326176	 0.9909008301	-3.3237140373	 0.121642
H	-0.1739939361	-1.1241154243	-2.6210892626	 0.099241
H	-0.2201067478	 0.4996202177	-1.9677858277	 0.107549
H	-2.4929269032	 0.048297388	-0.9502488238	 0.091403
H	-1.0450770958	-3.1344617061	-2.4335171542	 0.100423
H	-2.1972211811	-4.098321719	-1.4919321543	 0.12881
H	-2.7728211444	-3.0957938448	-2.8291258819	 0.127155
H	 0.471983662	-2.4023375233	-0.9999128155	 0.118255
H	 0.7002009616	-1.5753748042	 0.5448738618	 0.133771
H	 0.0094196767	-3.1996752638	 0.5116529084	 0.13161
H	-2.7241312472	-0.9540096203	 3.3109854469	 0.189203
