18
gdb 62191	4.73141	0.62157	0.57061	4.0688	79.73	-0.273	0.0141	0.2871	1876.52	0.144166	-401.917644	-401.907227	-401.906283	-401.954864	35.908	
C	-0.0108313248	 1.5477406575	-0.0537029397	-0.39968
C	-0.0107176207	 0.0140722968	 0.0208575391	-0.0071
O	 0.7088599824	-0.4820712297	 1.1344229543	-0.250019
C	 2.1094851965	-0.5708636592	 0.9367150772	-0.061554
C	 2.6968791537	-1.2351543645	 2.1859396323	-0.350385
C	 4.1437232826	-1.3743574664	 2.0958098568	 0.282483
C	 5.3364943218	-1.4755634994	 1.9920905709	-0.441233
C	-1.387880494	-0.4997711516	 0.1318541843	 0.28093
N	-2.4763017282	-0.8804363905	 0.1923044701	-0.313188
H	 1.0097912502	 1.9168879641	-0.1804771878	 0.132126
H	-0.6085714678	 1.8887166065	-0.9032110846	 0.142289
H	-0.4291975161	 1.9657500226	 0.864615305	 0.149382
H	 0.411159613	-0.3966840174	-0.9106205753	 0.119206
H	 2.3361727068	-1.1738890553	 0.0446187542	 0.110826
H	 2.5611733278	 0.4208627108	 0.7953352506	 0.110795
H	 2.423971867	-0.6360296484	 3.0624994566	 0.146231
H	 2.2235866278	-2.2149767383	 2.3175451016	 0.148117
H	 6.391141922	-1.5734398876	 1.9165171044	 0.200774
