19
gdb 82784	3.10731	1.90049	1.77456	0.6343	76.99	-0.2003	0.0724	0.2728	876.1816	0.162419	-381.9975	-381.991006	-381.990062	-382.027983	27.501	
C	-0.2890349939	 1.5058682484	 0.0018359837	-0.336582
N	 0.0684888317	 0.1017303717	 0.0094350734	-0.063358
C	 1.0592423884	-0.4615177579	-0.9547427634	-0.037433
C	 2.2869213093	 0.4370569967	-1.1204928407	-0.167723
N	 3.0502620629	 0.3329661059	 0.1378069045	-0.109661
C	 2.9151029111	-1.0182794333	 0.6506025822	-0.076631
C	 2.272708646	 0.1302751922	 1.3776539884	-0.069671
C	 0.8463336646	-0.4612560243	 1.1124013005	-0.020572
C	 1.5167528301	-1.4784202656	 0.1604344475	-0.074094
H	 0.5512707868	 2.1999616919	 0.1739726812	 0.104211
H	-0.7518561228	 1.7642447488	-0.9567389502	 0.11942
H	-1.0321945779	 1.6852967732	 0.7871452258	 0.119274
H	 0.6224196156	-0.8238924137	-1.8899732539	 0.068966
H	 2.9364542958	 0.0814294937	-1.9286015077	 0.103717
H	 2.0328436048	 1.4797346196	-1.3301041013	 0.10924
H	 3.7877469798	-1.6192633512	 0.8755277262	 0.091614
H	 2.6020445202	 0.6759654545	 2.2553172232	 0.090624
H	 0.3038593739	-0.7422671154	 2.0195605517	 0.070227
H	 1.2248183737	-2.522037785	 0.103464949	 0.078431
