20
gdb 79029	4.6637	1.34596	1.28463	1.2018	82.38	-0.2074	0.097	0.3044	1056.2327	0.173047	-365.921402	-365.914497	-365.913553	-365.952212	29.38	
C	 0.0361711923	 1.5046213521	-0.2188381936	-0.326741
N	 0.0272036717	 0.0625816876	 0.0052455711	-0.11393
C	-1.0446372954	-0.5000026049	 0.8921919403	-0.03301
C	-0.1234194701	-1.749464684	 1.1384259126	-0.012617
C	-0.3840190624	-2.2894683278	 2.5323071389	-0.066669
C	 0.6003541032	-1.926209399	 3.6197579169	-0.296449
C	-0.5566892111	-1.0024385442	 3.312728323	-0.067307
C	-0.3607084076	 0.0309590672	 2.2157955541	-0.04544
C	 0.7479161267	-0.459900988	 1.2199987701	-0.050881
H	 1.0044534891	 1.7872982041	-0.6459528052	 0.11769
H	-0.7331472388	 1.7469506932	-0.9599637548	 0.118057
H	-0.1397184647	 2.1335993579	 0.6678587512	 0.094426
H	-2.1015919383	-0.4811522156	 0.6136864415	 0.072074
H	 0.0527265837	-2.4253943899	 0.3032311942	 0.07457
H	-1.0413464562	-3.140693833	 2.664433586	 0.085556
H	 0.5334064026	-2.4936438545	 4.5426383931	 0.108089
H	 1.6116524995	-1.6332689584	 3.3581546951	 0.111967
H	-1.3448473843	-0.8696925839	 4.0449319058	 0.084467
H	-0.423124751	 1.0841957959	 2.4818207789	 0.071076
H	 1.8332174312	-0.3840802449	 1.316611121	 0.07507
