19
gdb 39935	2.95081	1.58784	1.22124	1.7555	82.1	-0.2272	0.0249	0.2521	1063.4739	0.16085	-385.876377	-385.86896	-385.868016	-385.908113	30.084	
C	-0.3177104112	 1.4471356973	 0.0228759789	-0.30418
C	 1.1358107497	 1.0928688272	-0.061307474	-0.316592
C	 0.0949457773	-0.0160987034	 0.0306737198	 0.375211
C	-0.0085084179	-0.7755531889	 1.2977244059	-0.125984
C	-0.1687344599	-2.0963706335	 1.3681409223	-0.079255
C	-0.2452432489	-3.0053886608	 0.1713297894	-0.314852
C	-0.3317628559	-2.2685422477	-1.1472585525	 0.049483
O	-1.464303011	-1.4124476597	-1.3235154713	-0.265969
C	-0.1676280699	-0.80856703	-1.2106621271	-0.062754
H	-0.6971888092	 1.8622177023	 0.9502954737	 0.118355
H	-0.8113071607	 1.8205422948	-0.8677084101	 0.122751
H	 1.6461355327	 1.2250843852	-1.0099376266	 0.11713
H	 1.7630938214	 1.2596252581	 0.807125976	 0.11755
H	 0.0528830585	-0.1905679028	 2.2128594898	 0.08284
H	-0.2380169434	-2.5738775506	 2.3418391278	 0.08754
H	 0.6376413513	-3.6613790852	 0.1457324476	 0.112331
H	-1.107784785	-3.6808793462	 0.2605418192	 0.11976
H	-0.0810780537	-2.8580472105	-2.0303883737	 0.085927
H	 0.1904799559	-0.3595763258	-2.1384997651	 0.080708
