19
gdb 39995	3.34344	1.49315	1.27542	1.7863	79.63	-0.2229	0.0119	0.2349	1044.2763	0.160474	-385.867584	-385.86025	-385.859305	-385.899451	29.661	
C	-0.3237125921	 1.2630464659	 0.3131968161	-0.333155
C	 1.1103500765	 0.927286164	-0.0815349274	-0.339233
C	 0.06667455	-0.1371188713	-0.031470884	 0.470437
O	 0.1120774155	-1.1686470309	 0.9575261611	-0.327595
C	-0.4534900301	-2.1226467947	 0.0101539225	 0.086004
C	-1.9097189683	-2.4142216238	 0.2380470885	-0.08301
C	-2.6845962082	-1.7538246475	-0.6226840195	-0.054435
C	-1.9028606168	-0.9110647529	-1.6065202889	-0.275554
C	-0.4456065574	-1.069202026	-1.1309860277	-0.185585
H	-0.5171842507	 1.4722278423	 1.359752903	 0.124385
H	-0.9343156231	 1.8283529769	-0.3838865404	 0.111741
H	 1.4715463658	 1.2559847147	-1.0510467166	 0.111178
H	 1.8569417426	 0.9220592219	 0.7054299622	 0.123216
H	 0.1861157924	-3.0081004388	-0.0643947396	 0.07798
H	-2.2575090155	-3.0709830002	 1.0269560444	 0.098654
H	-3.7688856378	-1.7973765382	-0.6412243483	 0.097259
H	-2.0370695732	-1.2693778074	-2.6354286713	 0.106886
H	-2.2343193408	 0.1349975785	-1.6015119563	 0.109859
H	 0.2657708411	-1.2299258926	-1.9418852278	 0.080968
