20
gdb 80891	2.55796	1.75298	1.4607	1.366	77.65	-0.2306	0.0819	0.3125	1006.6313	0.171516	-403.08996	-403.082121	-403.081177	-403.121569	32.185	
C	-0.0944567958	 1.5518854481	-0.0300347587	-0.434787
C	-0.072007798	 0.0312061361	-0.0213810932	-0.021913
C	 1.1587861545	-0.6058541283	-0.71188688	 0.048803
O	 1.9450956694	-0.2983247725	 0.4926344401	-0.34325
C	 0.6740019445	-0.6191705095	 1.1858797896	 0.414944
C	 0.5936269406	-0.148282438	 2.6100147241	-0.515989
C	 0.5991391618	-2.1431092755	 0.8897114744	-0.088587
N	-0.402391458	-2.5398199637	-0.1300554331	-0.340246
C	 0.9645428654	-2.1301956623	-0.5404466975	-0.050338
H	 0.8861562282	 1.9651361339	 0.2175164834	 0.130681
H	-0.3857314497	 1.9233378721	-1.0185911536	 0.111531
H	-0.8255677389	 1.9363897017	 0.6896184656	 0.112109
H	-1.0438657225	-0.3917412084	-0.2722034982	 0.100602
H	 1.6006822325	-0.2268550046	-1.633463568	 0.071657
H	 0.7255277493	 0.9344195566	 2.6776498082	 0.130857
H	-0.3791139229	-0.4089259487	 3.0398068895	 0.127172
H	 1.3724267654	-0.6255359828	 3.2146324656	 0.127174
H	 0.970050821	-2.8637381964	 1.609592907	 0.092325
H	-0.4493458241	-3.5579278794	-0.1526143013	 0.229945
H	 1.6376352674	-2.8416105983	-1.0030662839	 0.09731
