20
gdb 39411	2.43973	1.91496	1.35048	1.124	78.08	-0.2201	0.0819	0.302	1008.5466	0.173811	-403.10291	-403.095468	-403.094524	-403.134592	29.984	
C	 0.0958438914	 1.4550948943	-0.1315480938	-0.259051
C	 1.2630611904	 0.5365392188	-0.0346146855	-0.028868
C	 2.2931814321	 0.5946263283	 1.0519647957	 0.035057
O	 1.8952693218	 0.7133764381	 2.4194510186	-0.252249
C	 2.4607310672	-0.5335243431	 1.9812813373	 0.046671
C	 1.5785638105	-1.7699708591	 1.8808058196	-0.246652
C	 0.0519771557	-1.5881591855	 2.0523323171	-0.196088
C	-0.5751018317	-0.305931927	 1.4847014196	-0.144618
N	-0.0997918093	 0.0309315635	 0.1372705728	-0.101635
H	-0.0578014559	 2.1434370782	 0.6983046546	 0.117631
H	-0.2413743208	 1.8190221501	-1.0987777025	 0.111867
H	 1.7178491737	 0.2104025012	-0.9721629293	 0.092279
H	 3.1732419907	 1.1870518915	 0.7919787461	 0.091625
H	 3.4603763761	-0.7108973219	 2.3800503239	 0.091542
H	 1.7801689142	-2.2214960831	 0.9011812881	 0.118247
H	 1.9170451778	-2.5040725658	 2.6200196994	 0.104064
H	-0.4283877628	-2.4653165679	 1.6055213626	 0.104146
H	-0.1954108578	-1.6124806801	 3.1193729897	 0.105608
H	-1.6589844013	-0.4519796992	 1.4036438238	 0.094951
H	-0.4069865523	 0.5135016488	 2.1908502322	 0.115474
