15
gdb 76785	2.55969	1.53677	1.16397	3.0253	62.76	-0.2575	-0.0561	0.2014	1043.7438	0.110161	-494.857827	-494.849343	-494.848399	-494.891086	30.88	
O	-0.1291379937	 1.4669432325	-0.0303781372	-0.439124
C	-0.0246818001	 0.0671656165	 0.0008726277	 0.010457
C	-1.3977072151	-0.7003764949	 0.0041641558	-0.036757
O	-2.412094241	 0.1029519396	-0.5339221537	-0.42528
C	-0.8074089023	-1.6489624657	-1.0634371636	 0.36028
C	-0.6573962954	-3.115482074	-1.0207795872	-0.255138
O	-1.4990680858	-2.4642482456	-1.9687113558	-0.245264
C	 0.2731295257	-0.6240164836	-1.3517050385	 0.267286
O	 0.9386489393	-0.2853012257	-2.2866695078	-0.30646
H	 0.2819669854	 1.7692748816	-0.8507738516	 0.309087
H	 0.6430372634	-0.2676889437	 0.8038407146	 0.113521
H	-1.6950129818	-1.163232166	 0.9516020522	 0.080723
H	-2.1333086151	 1.0186457869	-0.382099044	 0.294891
H	 0.2411881918	-3.5755754246	-1.4277538474	 0.137526
H	-1.1703866055	-3.6687002432	-0.2355738135	 0.134254
