19
gdb 95469	2.70634	1.2988	1.05043	3.0934	78.2	-0.2384	-0.0322	0.2062	1197.5686	0.158819	-423.052783	-423.044038	-423.043094	-423.086502	32.588	
O	 0.3203100326	 1.4142049115	 0.1604869632	-0.444993
C	 0.1486928685	 0.020552539	-0.0084140373	 0.063089
C	-1.3255834921	-0.4557365439	-0.0402895943	-0.233619
C	-1.343198363	-1.6735775147	-0.994108755	-0.256139
C	-0.0991511783	-1.4644904531	-1.8240991977	-0.16893
C	 0.7125949332	-0.5423544793	-1.305483682	 0.290856
C	 2.0264543355	-0.0852389495	-1.8612724775	-0.421326
C	 2.001124404	 1.2739472712	-2.5372599332	 0.170387
O	 1.0814340496	 2.0546194094	-2.5205842859	-0.244724
H	 0.1588203789	 1.8297085934	-0.698548842	 0.288761
H	 0.6797965618	-0.4288116406	 0.8446354355	 0.08297
H	-1.7219203339	-0.673378595	 0.9542003034	 0.098293
H	-1.9236276909	 0.3587898561	-0.4627151663	 0.107751
H	-1.2829291761	-2.621082002	-0.440296556	 0.108999
H	-2.2533872248	-1.7330712498	-1.6013107086	 0.106058
H	 0.1071536142	-2.0373810726	-2.7232870941	 0.087836
H	 2.7956913245	-0.0119409407	-1.0755396735	 0.143084
H	 2.4257823109	-0.7970541627	-2.5962804118	 0.12863
H	 2.9377440953	 1.5229233433	-3.083251927	 0.093018
