17
gdb 106943	4.01499	1.11046	0.99562	5.1068	68.52	-0.2616	0.0102	0.2718	1183.2139	0.136531	-458.988309	-458.980174	-458.97923	-459.021301	30.292	
O	-0.0996183302	 1.3742321658	 0.3982931942	-0.420556
C	-0.009349415	 0.0202848748	-0.024137685	-0.185907
C	-1.3996731213	-0.5458346636	-0.0193707419	 0.343542
C	-1.9954020525	-1.1543328247	 1.2114251863	-0.319698
C	-1.6981241343	-2.0263163368	 0.0016884871	-0.270896
C	-2.8655639265	-2.2344943565	-0.9113388449	 0.460361
O	-3.3663048897	-3.2617434408	-1.2649364593	-0.346401
O	-3.3338854175	-1.0143635854	-1.3201499194	-0.235973
C	-2.4199207205	 0.0433227789	-0.9860173575	-0.138369
H	 0.7651328457	 1.7826780665	 0.294330253	 0.293106
H	 0.4151074871	-0.0499826234	-1.0386497819	 0.096022
H	 0.6338406211	-0.5723291918	 0.6453027979	 0.093034
H	-1.3411911081	-1.2904166035	 2.0653468223	 0.128391
H	-3.03155666	-0.9477397153	 1.459445931	 0.135081
H	-0.9524803448	-2.8075662157	 0.0606352423	 0.118219
H	-2.9938709489	 0.86856074	-0.5573528952	 0.133289
H	-1.9373583445	 0.3912912716	-1.906986099	 0.116755
