16
gdb 19925	4.38479	2.15127	1.75131	1.5937	69.85	-0.2361	0.0003	0.2364	768.2991	0.132498	-346.560437	-346.554502	-346.553558	-346.590209	24.3	
C	 0.0326041283	 1.5562872683	 0.050418663	-0.241391
C	 1.5965698114	 1.3636313304	 0.051904904	-0.304967
C	 1.2771494222	-0.0478180114	 0.4852663268	 0.251785
C	 1.426140674	-0.85673795	 1.5389100537	-0.230571
C	 0.1052575231	-1.503266599	 1.8222933528	 0.012972
O	-0.8674356393	-0.5219953064	 2.277947546	-0.255867
C	-0.9013969292	-0.9015664493	 0.9069078016	 0.007648
C	-0.1362146174	-0.0050364176	-0.049485835	-0.070104
H	-0.3227145547	 1.9209196787	 1.0151025106	 0.132072
H	-0.3889201445	 2.1492788203	-0.7635191331	 0.104642
H	 1.999290771	 1.4313633229	-0.9639691405	 0.112274
H	 2.1967570484	 1.9825970291	 0.7216704801	 0.113999
H	 2.2632645456	-0.8913633289	 2.2254341414	 0.09951
H	-0.0057314805	-2.4832840964	 2.2765895606	 0.096775
H	-1.7949693015	-1.4348885789	 0.5934761179	 0.090976
H	-0.2525144369	-0.3276589916	-1.0893253198	 0.080248
