18
gdb 67151	2.59065	1.72707	1.63833	4.153	75.36	-0.2298	-0.0045	0.2253	944.0606	0.148787	-401.927229	-401.919895	-401.918951	-401.958667	29.222	
C	-0.027552364	 1.5435803072	 0.0229093314	-0.519708
C	 0.0594808843	 0.0488938729	 0.0258827988	 0.394789
C	 0.6008650774	-0.9017225652	-1.1011227301	-0.106318
C	 1.4594378243	-1.6075772335	-0.0179163076	-0.23118
C	 0.6859664573	-0.8652949152	 1.1317592686	-0.25462
C	-0.6842788545	-1.5285594715	 1.2030033155	 0.409792
O	-1.1812231245	-2.4178416506	 1.8279507939	-0.325524
N	-1.2153398947	-0.7766006293	 0.0875669971	-0.205102
C	-0.8345640163	-1.4615419553	-1.2086908301	-0.197462
H	 0.9707475087	 1.9928781256	-0.0044333995	 0.124342
H	-0.587035259	 1.9025525537	-0.8472123797	 0.130442
H	-0.5394333896	 1.8995597955	 0.9232282727	 0.134781
H	 1.1064126422	-0.577686865	-2.0110859029	 0.076826
H	 1.4767944577	-2.7006022167	 0.0116974433	 0.116384
H	 2.4861948649	-1.2358026504	-0.0555508624	 0.118246
H	 1.2358277772	-0.5684169143	 2.0241574975	 0.090312
H	-1.4037120768	-1.034436681	-2.0389046813	 0.118857
H	-0.9780710648	-2.5459591871	-1.1936436852	 0.125142
