24
gdb 107467	2.45166	1.34061	1.15891	1.6105	88.54	-0.2238	0.081	0.3048	1249.7102	0.216497	-368.382168	-368.372339	-368.371395	-368.416214	38.282	
C	 1.9026126525	 0.1423309444	 1.035673694	-0.394181
C	 0.7743851098	 0.2726554297	 0.0064341632	-0.288999
C	 1.088598328	-0.3006677657	-1.3550433513	 0.324447
C	 2.0317168281	-1.4185592337	-1.5781119864	-0.297943
N	 2.4161138114	-0.0824110698	-2.0756654104	-0.167533
C	 1.6486161285	 0.072365007	-3.3595459782	-0.206107
C	 0.2681816109	-0.0129338009	-2.6392775397	 0.257336
C	-0.7153551778	-1.0930663769	-3.0923178384	-0.453374
C	-0.4265047551	 1.3512925115	-2.6130048727	-0.4468
H	 2.0720789519	-0.8988702252	 1.3263616684	 0.115733
H	 2.8385512772	 0.5399689755	 0.6319762329	 0.141316
H	 1.6572123238	 0.7007245528	 1.9436658055	 0.110564
H	-0.1333529486	-0.2174317147	 0.386298151	 0.099543
H	 0.5187717626	 1.3327707686	-0.1055459455	 0.102891
H	 2.6347426941	-1.7458661538	-0.7378407893	 0.116436
H	 1.815935293	-2.203448375	-2.2999731761	 0.102651
H	 1.8496354333	 1.0471360852	-3.8105775922	 0.102949
H	 1.8721661762	-0.7108075038	-4.09310383	 0.094671
H	-0.2560409715	-2.0844112342	-3.1277898153	 0.112247
H	-1.5754337248	-1.1474240109	-2.4147699754	 0.113635
H	-1.1002159672	-0.8703754971	-4.0943833084	 0.112842
H	-0.800225137	 1.6006565327	-3.6124480776	 0.111866
H	-1.2824129679	 1.3556557983	-1.9288979608	 0.112894
H	 0.2577837186	 2.147769296	-2.3054228274	 0.122917
