25
gdb 95761	2.36525	1.29687	1.06651	1.2422	88.55	-0.2411	0.0769	0.318	1309.4906	0.229069	-389.516825	-389.507049	-389.506105	-389.550409	38.643	
C	 0.0422888611	 1.5924130236	-0.0194607192	-0.404374
C	 0.0131762468	 0.0616933293	-0.0239754062	 0.002598
C	 0.7338601829	-0.504337716	-1.2541023466	-0.069961
O	 0.7626240014	-1.9203818978	-1.2553647598	-0.251847
C	 1.457861666	-2.437207768	-0.1352263683	-0.084885
C	 0.782708284	-2.0718301382	 1.2016317439	 0.244792
C	-0.5933876313	-2.7565725923	 1.2873279727	-0.412252
C	 1.6690671204	-2.548627188	 2.360952574	-0.426192
C	 0.6471436815	-0.5308391021	 1.2464215859	-0.210366
H	 1.0712931171	 1.9688008009	 0.0222836787	 0.113427
H	-0.4273430796	 2.004435663	-0.9193139467	 0.111943
H	-0.4913928394	 1.9931728424	 0.8484771431	 0.11442
H	-1.0334622856	-0.2634773581	-0.0816719717	 0.080558
H	 0.2285142452	-0.2067147568	-2.1784705197	 0.100876
H	 1.7651799645	-0.1065872692	-1.2912342057	 0.077146
H	 1.4884600606	-3.5237774164	-0.2698519837	 0.098127
H	 2.4985786818	-2.066701242	-0.1355762384	 0.075742
H	-0.4787554249	-3.8443858788	 1.3530147422	 0.106791
H	-1.143053439	-2.4260550101	 2.1755406541	 0.104631
H	-1.2021545814	-2.5437382321	 0.4056012004	 0.127027
H	 2.661402552	-2.0853717429	 2.3237715008	 0.108818
H	 1.218757642	-2.2933354058	 3.3265791017	 0.111992
H	 1.8042254301	-3.6360086985	 2.3364700639	 0.109619
H	 1.6506400985	-0.0960318476	 1.3663009281	 0.084097
H	 0.0737086154	-0.2299872586	 2.1326736764	 0.08727
