19
gdb 98237	2.76673	0.98173	0.95591	3.2646	74.1	-0.2384	0.0114	0.2498	1366.1365	0.158461	-456.421479	-456.410983	-456.410039	-456.458091	36.685	
C	 0.5385392026	 0.9761938099	 0.7844753022	-0.336877
N	 0.151334384	-0.3068638096	 0.2278334573	-0.31271
C	 0.483472689	-0.6975351674	-1.0286771721	 0.426168
O	 1.1348122731	 0.0096255773	-1.7917835517	-0.405246
C	-0.0331971656	-2.0744821617	-1.4411683534	-0.198669
C	-1.0726620111	-1.9164175439	-2.572694642	-0.390069
C	 1.0869316843	-3.0337286188	-1.9006085421	 0.380657
N	 2.0144509404	-2.4780281538	-2.7191120649	-0.510292
O	 1.0645908977	-4.2083255607	-1.5844165034	-0.374483
H	 1.0896492654	 1.5136078164	 0.0126024065	 0.173948
H	-0.3400506474	 1.5624039269	 1.074008856	 0.131031
H	 1.1813800212	 0.8490342938	 1.6621560451	 0.132746
H	-0.3701291514	-0.946106181	 0.8042297347	 0.254697
H	-0.5005276012	-2.5825009797	-0.5936292988	 0.09361
H	-1.4063517715	-2.900521698	-2.9113174126	 0.138251
H	-1.9450146915	-1.356481686	-2.2220469639	 0.118806
H	-0.6359227792	-1.3794289301	-3.4174256668	 0.143792
H	 2.0537061943	-1.4700573919	-2.8029605365	 0.279719
H	 2.7902441071	-3.0508589017	-3.0083570836	 0.254924
