19
gdb 113065	3.68494	0.97977	0.82982	2.1879	73.85	-0.2183	-0.0333	0.185	1419.2854	0.156152	-460.137315	-460.1274	-460.126456	-460.172796	34.485	
C	 0.3002552216	 1.7824508445	-0.6381993159	-0.248714
O	 0.6682874356	 0.5506135819	-0.0385284511	-0.238197
C	 0.6517889401	-0.5225686017	-0.9274071585	 0.034522
C	 1.0183953734	-1.8975590178	-0.3084189556	-0.311112
C	-0.1423893739	-2.5816610656	-1.0783072463	 0.034525
O	-0.8909669435	-3.4921187891	-0.3348074465	-0.238195
C	-1.9580408412	-4.0728397634	-1.0673305704	-0.248714
C	-0.7197557964	-1.155109447	-1.2916708642	 0.343208
O	-1.8281249106	-0.7183002238	-1.418858002	-0.304705
H	 0.9864898524	 2.0465281428	-1.4580557274	 0.104254
H	-0.7235536648	 1.7502696895	-1.0282350098	 0.13992
H	 0.3680999806	 2.5455819466	 0.1400189484	 0.130906
H	 1.2388262849	-0.3081819071	-1.8372249206	 0.084635
H	 2.0247904995	-2.2724637889	-0.489312019	 0.115542
H	 0.8009437797	-1.8921180928	 0.7618097996	 0.142411
H	 0.1945968395	-3.0155942496	-2.0356398585	 0.084635
H	-2.4558830858	-4.7762965374	-0.3965867041	 0.130907
H	-2.6773066712	-3.3154563776	-1.3995599872	 0.139919
H	-1.5850102799	-4.6209551535	-1.9466693308	 0.104254
