19
gdb 76748	2.33509	1.73474	1.3641	2.5821	70.62	-0.2406	0.0447	0.2853	1024.1485	0.158311	-460.123383	-460.114682	-460.113738	-460.156532	33.451	
C	 0.1602004049	 1.5768789889	-0.0020559911	-0.488896
C	 0.0791450497	 0.074284084	 0.0686752544	 0.438725
O	-1.2722245042	-0.3998322438	 0.2832290576	-0.328274
C	-0.8877301311	-1.1217923447	 1.4821110535	-0.090789
C	 0.5933208439	-0.8641583523	 1.2154259893	-0.172457
C	 1.1901089912	-1.8300584031	 0.1351490417	 0.08203
O	 0.5612950517	-3.0714644317	-0.0364902002	-0.43415
C	 0.8208042307	-0.7882783044	-0.9814072742	 0.026475
O	-0.0059598139	-1.2836683492	-2.0118105573	-0.420282
H	 1.1974366822	 1.9122524014	-0.1061206377	 0.112316
H	-0.4068084293	 1.9392453945	-0.8668548637	 0.136232
H	-0.2654809596	 2.0323969901	 0.8967179254	 0.125312
H	-1.281773726	-0.6332597351	 2.3821008691	 0.095055
H	-1.204314671	-2.1684735646	 1.4575127103	 0.116055
H	 1.2438462463	-0.5534405625	 2.0317456215	 0.071543
H	 2.2646457442	-1.999429267	 0.2585352729	 0.075454
H	-0.1013926969	-2.9315762546	-0.7299246888	 0.292169
H	 1.7012359089	-0.2677152214	-1.3792190426	 0.068612
H	 0.5571739485	-1.6237070944	-2.7146782403	 0.294872
