18
gdb 65354	4.03163	1.00817	0.91535	2.1701	77.99	-0.2532	0.0101	0.2633	1289.2938	0.148308	-398.091253	-398.082422	-398.081478	-398.12484	32.537	
C	 0.2316490542	 1.4686351647	-0.1188352203	-0.466168
C	 0.0405804435	-0.0201014415	 0.0998480462	 0.165222
N	 1.2545211396	-0.8709266311	 0.1164629544	-0.363678
C	 0.4794707756	-0.7382904738	 1.3499717401	-0.076113
C	 1.1485699339	-0.0273670188	 2.4897794954	-0.019942
C	 2.3908072577	-0.5995984323	 3.069593271	-0.235845
N	 2.4369161054	 0.6454642605	 2.2869074266	-0.314275
C	-1.1201732512	-0.5834108828	-0.5594898791	 0.238686
N	-2.0398557476	-1.0344442483	-1.0974005954	-0.335627
H	 1.0674534298	 1.8387899455	 0.4749900487	 0.161434
H	 0.4273561837	 1.6749848712	-1.1748404804	 0.141099
H	-0.6712514161	 2.0119183234	 0.1744753156	 0.140465
H	 1.0845202106	-1.7619832195	-0.3415437533	 0.255823
H	-0.1488373633	-1.5775206348	 1.6437367917	 0.114705
H	 0.4648876764	 0.5022554936	 3.1500551416	 0.105932
H	 2.5937141186	-0.4908106602	 4.1308418772	 0.123939
H	 2.7873524136	-1.5043986864	 2.6157929638	 0.116866
H	 2.7592804055	 0.4151394705	 1.3471732463	 0.247476
