17
gdb 44496	4.37389	1.46494	1.26234	2.9971	74.03	-0.2308	0.0202	0.251	990.6805	0.138505	-417.948987	-417.942396	-417.941452	-417.980201	26.86	
N	-0.0288965252	 1.2074528548	-0.5830843451	-0.523196
C	-0.0008639958	 0.064660698	-0.0461600882	 0.380482
C	-1.2647473325	-0.735054128	 0.211793958	-0.263605
N	-1.0856427133	-2.0455206949	 0.8412212582	-0.13203
C	-0.059335171	-2.0770773043	 1.971755637	-0.064865
C	 0.0958568408	-3.5841728884	 1.6693492851	-0.223339
C	 0.0934418284	-2.8558420963	 0.3068515583	-0.064863
C	 1.0622941026	-1.8162527289	 0.9310801242	 0.136698
O	 1.1629354374	-0.5346205837	 0.3408331314	-0.257682
H	 0.9177558732	 1.583476294	-0.6720521127	 0.219288
H	-1.9316100616	-0.1365826407	 0.841069984	 0.143393
H	-1.7862932286	-0.8763933225	-0.7405090881	 0.143389
H	-0.2387522285	-1.5818166888	 2.9269049621	 0.093288
H	 1.0238727443	-4.0663419197	 1.9800438311	 0.103456
H	-0.7929993421	-4.1813653833	 1.8671245451	 0.121293
H	 0.0939667048	-3.2778365986	-0.6989836018	 0.093286
H	 2.0837666771	-2.1221581588	 1.1679003014	 0.095006
