21
gdb 115274	3.51158	0.9539	0.92438	2.7382	74.29	-0.252	0.0619	0.314	1362.4872	0.181799	-461.365773	-461.356228	-461.355284	-461.400323	36.21	
C	 0.1493448921	 1.5059773698	 0.0190778025	-0.446435
C	 0.0025277982	-0.0161430524	-0.0093194731	 0.396962
O	-1.3667851611	-0.3950750169	-0.0953755794	-0.473773
C	 0.85836918	-0.6420411679	-1.1372791416	-0.134599
O	 2.1400113079	-0.8282824007	-0.5687082711	-0.27905
C	 1.92439121	-1.3377111019	 0.7571907925	 0.120808
C	 3.1686452953	-1.0031476505	 1.5650986466	-0.072494
O	 4.333061297	-1.5454033014	 0.978827611	-0.425081
C	 0.6141672911	-0.6867771441	 1.2486477235	-0.306407
H	 1.2058300499	 1.7873527158	 0.0651600449	 0.131567
H	-0.2754217125	 1.9568245177	-0.8868451301	 0.104223
H	-0.3651093564	 1.9276313486	 0.8874500395	 0.125215
H	-1.7777925066	 0.1239075712	-0.794792732	 0.276999
H	 0.4027639784	-1.5998151323	-1.4349992141	 0.094198
H	 0.9673188144	-0.006281011	-2.0210873216	 0.098161
H	 1.8185699748	-2.4317688302	 0.6983702486	 0.078314
H	 3.2368153902	 0.0934023499	 1.6672679723	 0.083204
H	 3.0849587729	-1.4284005586	 2.5710611243	 0.108383
H	 4.306101999	-1.2888457288	 0.0494882457	 0.293157
H	 0.8005511564	 0.0469958332	 2.038574286	 0.103801
H	-0.0882835509	-1.4272794995	 1.6345183555	 0.122848
