16
gdb 84466	3.84622	1.19463	1.10759	6.7033	75.95	-0.2324	0.0056	0.238	1124.7666	0.125141	-396.932901	-396.924804	-396.92386	-396.96614	29.635	
C	-0.1810135896	 1.394382162	 0.0498315541	-0.341605
N	 0.092694133	-0.0235377189	 0.0196880514	-0.021456
C	 0.0706566279	-0.8354250409	-1.0838519745	 0.037942
N	 0.0106069322	-2.1064434156	-0.8822454945	-0.321867
C	 0.0128070526	-2.2861653747	 0.5468591156	 0.204307
C	 1.2335738207	-1.8093622482	 1.3258942506	-0.331387
C	 0.0833439994	-0.8611924193	 1.1808664794	-0.074441
C	-0.7800236903	-3.3564314701	 1.0886756954	 0.237441
N	-1.4164902351	-4.2002203009	 1.5580531465	-0.349619
H	 0.6153328382	 1.9473503714	 0.5603255374	 0.139885
H	-0.2535459781	 1.7632977038	-0.9759709251	 0.144816
H	-1.1312715839	 1.6089254933	 0.5566425302	 0.138021
H	 0.1112253052	-0.3896981437	-2.0722306841	 0.136953
H	 1.370423133	-2.2540954344	 2.3043251264	 0.143522
H	 2.1390403725	-1.6320357363	 0.7554796061	 0.132703
H	-0.4985830576	-0.5271002474	 2.0325174651	 0.124784
