16
gdb 19834	3.36885	2.67596	1.81951	2.8259	68.76	-0.2268	0.0012	0.2281	742.5639	0.134713	-342.743509	-342.737648	-342.736704	-342.773141	24.312	
N	-0.0451779136	 1.4889523008	-0.0176615654	-0.339927
C	 1.2794489268	 0.8153943327	-0.004976687	-0.062443
C	 2.1434219984	 0.8047496161	 1.1943417571	-0.074503
C	 1.830869898	 0.1676207348	 2.3306425859	-0.050666
C	 0.5736371254	-0.5906153673	 2.4860809251	-0.078741
N	-0.7062953826	 0.1703638352	 2.453929273	-0.343028
C	-0.3529272941	-0.681841418	 1.3116116066	-0.050228
C	 0.0005335868	 0.0308239387	 0.0336576597	-0.021803
H	-0.262241912	 1.8168370621	 0.9250937149	 0.245208
H	 1.8021714761	 0.9166797828	-0.9527998799	 0.089629
H	 3.092727343	 1.3277699632	 1.1162851541	 0.095441
H	 2.5208497669	 0.1772742875	 3.1692192839	 0.093744
H	 0.6081643811	-1.4358907552	 3.1690372925	 0.088568
H	-1.3979758324	-0.2923348781	 3.0379639988	 0.235287
H	-0.8980504674	-1.6127348393	 1.1830713837	 0.085277
H	-0.3297568703	-0.4681358859	-0.873617213	 0.088184
