17
gdb 116427	2.74869	1.43053	1.03439	4.1374	64.47	-0.2636	-0.0083	0.2552	1127.6826	0.137138	-496.126996	-496.118879	-496.117935	-496.160432	29.826	
O	-0.1805885599	 1.5284182194	-0.3285524395	-0.424806
C	-0.0053892201	 0.1502866954	-0.1430359284	-0.050875
C	-1.346645831	-0.6061129778	 0.0633816448	-0.181389
C	-1.1780530364	-2.1296324325	 0.0163550704	-0.124454
O	-0.8770303688	-2.6322375306	 1.3138761085	-0.213428
C	-1.9334131423	-2.3945241338	 2.1677931854	 0.017276
O	-2.1940074866	-0.9915220331	 2.3656371045	-0.221808
C	-1.961779688	-0.1145729889	 1.3708373728	 0.422556
O	-2.1912586953	 1.0565051767	 1.5620528634	-0.345361
H	-0.7962169179	 1.8272635712	 0.3580302298	 0.300461
H	 0.4662357217	-0.2399526153	-1.0523385998	 0.108146
H	 0.6679458563	-0.0800624491	 0.6997488866	 0.101393
H	-2.0160758083	-0.2749590816	-0.7379416635	 0.125797
H	-2.0909297402	-2.6141461149	-0.361605911	 0.108268
H	-0.3464096246	-2.4180439527	-0.631281596	 0.127919
H	-2.8646797593	-2.8537948162	 1.8002430248	 0.108438
H	-1.6756649792	-2.7866756661	 3.1523719174	 0.141866
