15
gdb 21157	3.47241	1.84091	1.22363	4.353	65.32	-0.2116	-0.0274	0.1842	959.9523	0.118145	-395.957225	-395.949108	-395.948164	-395.990463	28.117	
C	-0.0307635797	 1.4816875055	 0.1379198616	-0.320194
N	-0.1052172554	 0.0272965045	 0.0434473198	-0.396538
C	 0.5937790499	-0.713286031	 0.9874222056	 0.228705
C	 0.7335856363	-2.068040815	 1.1208291563	 0.326326
C	 0.246778121	-3.2272252702	 0.3320970342	-0.503961
O	 1.474178062	-2.2842758182	 2.2208018538	-0.204756
N	 1.769850898	-1.0295312909	 2.7845001963	-0.026468
N	 1.2565155145	-0.1377400686	 2.0449398544	-0.188225
H	 0.9903074448	 1.8778652106	 0.0458244963	 0.124158
H	-0.652901582	 1.9105544197	-0.6509796511	 0.121442
H	-0.4255727069	 1.8040530794	 1.10406438	 0.150973
H	 0.0372049712	-0.3093023906	-0.8982303333	 0.24034
H	 1.0381326966	-3.6652742868	-0.2876443041	 0.148944
H	-0.129829843	-4.01426855	 0.9919625698	 0.156955
H	-0.5672368272	-2.9107304386	-0.3256123496	 0.1423
