19
gdb 10342	2.72185	1.38791	1.10312	2.2326	68.16	-0.2416	0.0351	0.2767	1142.7155	0.163542	-402.232523	-402.222219	-402.221275	-402.268873	35.292	
C	 0.4194197575	 1.358497372	-0.2952102005	-0.385739
C	 0.1320799723	-0.1444667216	-0.2222035796	-0.16259
C	-1.3422240784	-0.5248500812	 0.0629212441	-0.090884
C	-2.3022036372	-0.2379997435	-1.0968885436	-0.075952
O	-2.4784379647	 1.1685992784	-1.2131346285	-0.423624
C	-1.3965722711	-2.0233975746	 0.3643934489	 0.400313
N	-1.3602406735	-2.3546418163	 1.6881348793	-0.526011
O	-1.4426663463	-2.8651020385	-0.5142414031	-0.375672
H	 1.4865587757	 1.5321553738	-0.468553229	 0.104028
H	-0.1502290496	 1.8356578301	-1.0932431012	 0.138233
H	 0.1491409773	 1.8565877512	 0.6427665312	 0.106713
H	 0.4324414812	-0.6359955149	-1.1553991019	 0.113843
H	 0.7558215511	-0.5877168757	 0.5647772287	 0.09278
H	-1.6933204857	 0.0430558876	 0.9348020434	 0.075537
H	-1.8941585119	-0.6780379545	-2.0165561625	 0.110034
H	-3.2639605789	-0.735164901	-0.9002844724	 0.09398
H	-3.0475899213	 1.3322417384	-1.9706887666	 0.28726
H	-1.3125825137	-1.6650578457	 2.416528201	 0.258713
H	-1.3298193729	-3.3300655838	 1.936465752	 0.259037
