23
gdb 116477	3.04683	1.05971	0.84432	1.326	88.01	-0.2402	0.0109	0.251	1444.2109	0.206809	-388.294265	-388.285012	-388.284068	-388.328768	35.307	
C	 0.271741151	 1.5242288079	 0.0420489104	-0.390484
C	 0.0818141886	 0.0079319149	 0.1493013732	-0.187925
C	-1.3779400494	-0.4604804092	-0.0210401187	-0.019777
C	-1.4437040211	-1.9850163268	-0.2399409813	-0.203236
C	-2.7989385332	-2.5187771333	-0.7113337974	-0.082465
O	-3.8169125639	-2.5025765129	 0.2682405457	-0.232878
C	-4.3755951121	-1.2291191442	 0.5343060152	-0.130072
C	-3.5143823523	-0.3057404666	 1.3679206916	-0.094502
C	-2.2423390404	 0.013177892	 1.1312531311	-0.022915
H	 1.3244289318	 1.7971314943	 0.1651732505	 0.113724
H	-0.0553787317	 1.8912589131	-0.9373284796	 0.114458
H	-0.2991511562	 2.0669248414	 0.8022165033	 0.119446
H	 0.6974016243	-0.4797694738	-0.6160155559	 0.090884
H	 0.460194767	-0.3479414659	 1.1170531487	 0.097679
H	-1.7617806233	 0.0092593451	-0.9429892417	 0.079626
H	-0.7049904266	-2.2585905256	-1.005295542	 0.088443
H	-1.1598400749	-2.5067186387	 0.6817082123	 0.105343
H	-3.1267437462	-1.961321837	-1.607073801	 0.078196
H	-2.6918471321	-3.5695073374	-1.0017512996	 0.102165
H	-4.6443673398	-0.7351072707	-0.4176146258	 0.093283
H	-5.311541009	-1.4291123214	 1.0645449563	 0.108396
H	-4.0028064777	 0.1339036428	 2.2348225143	 0.087286
H	-1.7594588729	 0.6891664722	 1.8342975305	 0.085324
