18
gdb 20254	3.47141	2.94629	2.33274	0.2135	73.1	-0.2376	0.0924	0.33	690.6344	0.158004	-310.633012	-310.627719	-310.626775	-310.661909	23.647	
C	-0.0286219542	 1.5691955991	 0.0156159007	-0.235505
C	 1.5284864957	 1.5334432185	 0.0026586811	-0.04464
C	 2.0666892251	 1.4746234619	 1.4410192094	-0.223207
C	 1.760075215	 0.0486411826	 1.868408994	-0.04306
C	 0.5145394052	-0.6416471532	 1.329390368	-0.081912
C	 1.8890204945	-0.8917382541	 0.7064782625	-0.084633
C	 1.4689422777	 0.0172393793	-0.4738895016	-0.041132
C	-0.004405304	 0.0273716796	 0.0347848626	-0.021249
H	-0.5090363116	 2.0980395036	 0.8454345738	 0.086237
H	-0.4376201862	 1.9426918624	-0.9284446445	 0.091038
H	 2.0396916028	 2.2614824718	-0.62907461	 0.05966
H	 3.1510409613	 1.6395024146	 1.4726325418	 0.090131
H	 1.5981459494	 2.2341666292	 2.0773067805	 0.093292
H	 2.0865038874	-0.2975665564	 2.8440524372	 0.078071
H	-0.0685496797	-1.2923561329	 1.9710109458	 0.077408
H	 2.501215544	-1.7839928572	 0.6800985074	 0.079024
H	 1.7366122709	-0.2266600094	-1.4993818336	 0.060868
H	-0.7876357035	-0.5417430893	-0.4690262449	 0.059608
