18
gdb 82541	2.26957	1.68201	1.42805	1.0878	71.38	-0.2377	0.0664	0.304	1005.9711	0.146987	-439.012458	-439.003933	-439.002989	-439.045195	32.956	
O	-0.1597555394	 1.4156860941	 0.1203347948	-0.435304
C	-0.1148132136	 0.0170382869	 0.0877877628	 0.032487
C	-0.4328843502	-0.83173692	 1.3000140497	-0.155307
C	-1.5466435839	-0.1659215304	 2.1224790383	-0.325045
C	-2.4269002114	-0.1724567008	 0.8575004678	 0.283502
C	-3.8774705438	-0.366824211	 0.7260442448	-0.318558
N	-3.2531980192	 0.914998069	 0.3067322438	-0.393215
C	-1.3365638098	-0.8424646924	 0.0490089939	 0.280905
O	-1.5583976023	-1.8525451826	-0.8681639186	-0.455768
H	-0.9914197895	 1.6877637626	-0.2848297909	 0.301222
H	 0.7134389401	-0.3752355145	-0.5019936727	 0.095899
H	 0.2522864462	-1.5886189405	 1.6593502308	 0.09844
H	-1.9377556256	-0.8029655786	 2.919275927	 0.110516
H	-1.2998944584	 0.8212739817	 2.5231894809	 0.11175
H	-4.2626780029	-0.9754851408	-0.0869742454	 0.127481
H	-4.4822468684	-0.3731185513	 1.62915603	 0.115777
H	-3.4161872645	 1.6137418661	 1.0291057759	 0.233195
H	-1.5212854936	-1.4751641575	-1.7537476728	 0.292023
