20
gdb 92914	3.28925	1.23509	0.96577	2.1255	81.98	-0.2346	-0.0036	0.231	1270.9465	0.170875	-403.156468	-403.14767	-403.146726	-403.18973	33.724	
C	-1.1634796714	 0.9363883203	 0.4246291965	-0.414702
C	-0.0674306838	-0.0867148211	 0.1751681247	 0.095225
O	 0.0743102708	-0.1656543763	-1.2672979856	-0.239974
C	 0.9613314369	-1.0280159779	-1.8213361501	 0.138797
N	 1.851504221	-1.7897134046	-1.3517528286	-0.276725
C	 2.2143651538	-1.9052028159	 0.0665792452	-0.000709
C	 3.549522475	-2.6500486648	 0.1515864596	-0.39476
C	 2.2786134306	-0.5692553264	 0.784846482	-0.052526
C	 1.241351657	 0.2622162651	 0.8367279774	-0.086624
H	-0.8561741311	 1.9202989101	 0.0573489499	 0.13142
H	-2.0849661432	 0.6474139408	-0.0860071705	 0.128219
H	-1.3649180464	 1.0127711066	 1.4973184093	 0.12315
H	-0.4065532392	-1.0736896652	 0.5191178893	 0.097257
H	 0.816429572	-1.0002025907	-2.9026449234	 0.117101
H	 1.4565648143	-2.5318123927	 0.5636950517	 0.095094
H	 4.3378675332	-2.0733247212	-0.3429927003	 0.121206
H	 3.8389859205	-2.8128298565	 1.1951945443	 0.104567
H	 3.4751024864	-3.6174400666	-0.3500178946	 0.12189
H	 3.2258589816	-0.2946395329	 1.2438457102	 0.097005
H	 1.317040892	 1.2274736799	 1.330164043	 0.095088
