17
gdb 43799	2.49655	1.63113	1.16059	2.3934	74.06	-0.2426	-0.0278	0.2148	1066.6782	0.134221	-421.797109	-421.789023	-421.788079	-421.829969	30.685	
O	-0.0344645586	 0.1875809025	-0.6842690446	-0.316197
C	-0.0301256551	 1.2795128212	-0.1899571147	 0.351532
C	-1.1022702873	 2.1603420169	 0.5010757887	-0.472755
C	-0.0262793844	 3.2606407274	 0.5951630944	 0.367637
C	-0.1612247341	 4.7145896884	 0.5503575389	-0.266107
O	 0.2070856031	 4.0296971233	 1.7609645083	-0.270014
C	 1.0174261716	 2.3434393422	-0.0166692738	 0.155429
C	 2.4336900634	 2.1168727862	 0.4769422316	-0.298395
C	 2.2062757582	 2.6297304069	-0.9049883735	-0.321333
H	-1.9841333422	 2.3803189298	-0.1062733285	 0.137001
H	-1.421986143	 1.7742224872	 1.473647692	 0.14838
H	 0.6243255843	 5.3223131867	 0.1026041532	 0.116521
H	-1.1514710676	 5.168424956	 0.5539290024	 0.121388
H	 2.772777572	 2.8094040522	 1.2397816111	 0.14099
H	 2.7440566823	 1.0858672913	 0.6060919575	 0.139891
H	 2.350383726	 1.9508740278	-1.7390601253	 0.14007
H	 2.4231064916	 3.6717730338	-1.1158783077	 0.125963
