20
gdb 116569	3.36427	1.01313	0.91803	2.143	83.58	-0.2455	0.0227	0.2681	1386.4659	0.169784	-403.122122	-403.11289	-403.111945	-403.157058	33.905	
C	-0.3661527452	 0.0180594822	-0.9062062404	-0.359821
C	 0.0968418397	 0.4182601145	 0.4959228936	-0.151606
N	 0.9000087073	-0.6487421123	 1.0874573805	-0.347992
C	 0.5570264598	-1.1452905686	 2.1806283393	 0.482203
O	-0.5224946715	-0.820936965	 3.0260183573	-0.285698
C	-0.0045849717	-1.7325661743	 4.0258695563	 0.071569
C	-0.0238525366	-3.1338671104	 3.5226968046	-0.028249
C	-1.0704247888	-3.6941204952	 2.5878646896	-0.417813
C	 1.1092905879	-2.1812226494	 3.1011482601	-0.258739
H	-1.0333954155	-0.8485521486	-0.8637305546	 0.116193
H	-0.9065040246	 0.8422165916	-1.3827238252	 0.108819
H	 0.4906132819	-0.246628444	-1.5323331873	 0.125326
H	 0.7367399284	 1.3066191435	 0.4218210362	 0.106789
H	-0.7658511378	 0.6883856443	 1.1183376433	 0.110539
H	-0.0006690582	-1.3844327207	 5.050154543	 0.119267
H	 0.3430464782	-3.8371258213	 4.2693807476	 0.101391
H	-1.4638724656	-2.9196178685	 1.9265314766	 0.142234
H	-0.6528018867	-4.4950947579	 1.9703002848	 0.126025
H	-1.9090783799	-4.1078204297	 3.1577133833	 0.121707
H	 2.154860129	-2.3878347199	 3.2766472414	 0.117857
