20
gdb 119237	1.97384	1.55382	1.04403	2.088	77.09	-0.2383	-0.0269	0.2114	1218.7793	0.167769	-440.245517	-440.235273	-440.234329	-440.2815	35.957	
C	-0.234615503	 0.8142548906	-0.2371887069	-0.232831
O	-0.0093985947	 0.4384551134	 1.1082762901	-0.236086
C	 1.0589521073	-0.4647238654	 1.3165208078	-0.189717
C	 0.7108419601	-1.9158511204	 1.0122755128	 0.210498
C	 0.9871314903	-2.9778682223	 2.0560635058	-0.281063
N	-0.3670259858	-2.6409754531	 1.7051499866	-0.112722
C	-1.1891512138	-1.9395465325	 2.6873297088	-0.308153
C	 0.8787025141	-2.3772791465	-0.4018534691	 0.133925
O	 1.471977764	-1.7702839828	-1.2590898599	-0.275148
H	-0.6381982737	-0.0066916496	-0.8439654117	 0.116644
H	-0.9649686822	 1.6271149641	-0.2156175213	 0.122514
H	 0.6879774441	 1.1694348608	-0.7166630311	 0.118178
H	 1.9289337764	-0.1927612048	 0.7020745742	 0.12044
H	 1.3363599027	-0.3542432837	 2.3678287877	 0.105271
H	 1.3377983158	-3.9646616851	 1.7620137283	 0.123661
H	 1.3957830154	-2.6092839721	 2.9972448629	 0.119349
H	-0.6253266617	-1.2833188802	 3.3645552247	 0.11152
H	-1.9322610949	-1.3327329886	 2.1669167779	 0.141484
H	-1.7051818809	-2.6930587824	 3.2901888265	 0.124986
H	 0.4112359802	-3.3684106294	-0.5928997741	 0.087248
