17
gdb 5733	3.80096	2.04553	1.36409	1.8837	76.92	-0.1918	0.0584	0.2502	909.9837	0.143786	-326.734122	-326.7267	-326.725755	-326.766628	27.185	
C	-0.0723620055	 1.5315799662	-0.0029658287	-0.50064
C	-0.0079693279	 0.0338866902	 0.0150282992	 0.071491
C	 0.085317732	-0.8431303792	-1.0438114175	 0.287509
C	 0.1800815286	-1.2883344955	-2.4960551689	-0.38474
C	 0.2131115912	-2.7502934196	-1.9006561541	-0.167957
N	 0.1168263536	-2.1215030186	-0.5756965386	 0.018924
C	 0.0473508408	-2.1500304151	 0.7873462309	-0.161491
C	-0.0307543312	-0.8195656251	 1.1720426783	-0.209594
H	 0.7628770322	 1.9835776051	 0.5453258705	 0.12174
H	-0.0370888702	 1.9152324674	-1.0269236167	 0.113694
H	-0.9948486814	 1.9068739428	 0.4560578977	 0.121739
H	-0.6877363826	-1.0790816033	-3.1277612982	 0.12025
H	 1.0869380925	-1.0015144516	-3.0357673074	 0.120246
H	-0.641993025	-3.3827370179	-2.1571732296	 0.123385
H	 1.1419753194	-3.3046768882	-2.0645591453	 0.123389
H	 0.0569263174	-3.0591573415	 1.3658954015	 0.115506
H	-0.098794354	-0.4774379063	 2.1953668269	 0.086547
