22
gdb 120619	3.62673	0.79973	0.74409	0.8089	79.28	-0.2334	0.068	0.3014	1598.0464	0.19214	-441.444239	-441.433637	-441.432693	-441.480479	38.641	
C	 0.0090290656	 1.6365628242	-0.1585189255	-0.464741
C	-0.0182123909	 0.132798334	 0.0293712009	 0.290082
C	-1.3154268602	-0.5265890708	-0.41458359	-0.114077
O	-1.5913559541	-0.3165516993	-1.7917956833	-0.412439
C	 1.2465278683	-0.6560236434	-0.0730558667	-0.305033
N	 0.5670812731	-0.5006838115	 1.2154967192	-0.137579
C	 1.2154869133	 0.3166650196	 2.2413863337	-0.137589
C	 1.7911132505	-0.6033083415	 3.3171155843	-0.060789
O	 2.724107319	-1.5287862803	 2.7870827407	-0.422071
H	 0.9979575951	 2.0660912796	 0.0125714759	 0.117639
H	-0.3000337696	 1.8734646798	-1.1800858483	 0.137348
H	-0.7001497629	 2.1255469343	 0.5200807909	 0.120692
H	-1.2787307976	-1.5944627585	-0.1574757576	 0.093699
H	-2.1613624868	-0.0861169017	 0.1256960754	 0.108917
H	-0.8780255903	-0.7235524248	-2.294877377	 0.283093
H	 1.2495421424	-1.6608632052	-0.4929374008	 0.103545
H	 2.1724694359	-0.1035352309	-0.223820131	 0.116972
H	 2.0198532891	 0.9493130717	 1.8362694224	 0.09417
H	 0.4664213188	 0.9756561408	 2.6974826975	 0.100376
H	 2.3300203319	-0.0093693818	 4.0630389588	 0.10374
H	 0.965033984	-1.1206229244	 3.8279524139	 0.092126
H	 2.2306773054	-2.0888707397	 2.1782813566	 0.291917
