14
gdb 2477	5.32977	2.72037	2.49161	3.7451	56.91	-0.2382	0.0216	0.2598	589.9018	0.116505	-324.585402	-324.580166	-324.579222	-324.614145	21.174	
O	-0.0028922709	 0.034409465	 0.0666725235	-0.372333
C	 0.0209216436	 1.2350370374	-0.0248995857	 0.417657
N	-1.0614581092	 2.1159838149	-0.1258688722	-0.316084
C	-0.4176025963	 3.4426874735	 0.0232416841	-0.000235
C	 0.7209642285	 3.2989651792	-1.0197936819	-0.210933
C	 1.2039091857	 2.2180831933	 0.0024179198	-0.149153
C	 0.667437363	 3.1948915862	 1.114472118	-0.227371
H	-1.913582906	 1.8925682372	 0.3682429898	 0.247876
H	-1.1203559616	 4.2735852491	 0.0361608922	 0.083594
H	 0.4390880782	 2.9740579643	-2.023052524	 0.113716
H	 1.3849757006	 4.1648561179	-1.0541197073	 0.107824
H	 2.1990965321	 1.7819562043	 0.0071317798	 0.090631
H	 1.3304681884	 4.0469932462	 1.28176358	 0.10808
H	 0.3427574238	 2.7637043717	 2.0649813239	 0.106731
