16
gdb 16189	4.48151	1.5919	1.37754	2.1644	60.14	-0.257	0.0688	0.3258	905.9613	0.130704	-420.850637	-420.843312	-420.842368	-420.882511	27.092	
O	 0.0586620477	 1.3505623338	-0.3319557198	-0.414589
C	 0.0349793864	 0.0214600268	 0.163631099	-0.162212
C	-1.3655014498	-0.521080416	 0.2085410694	 0.364606
C	-2.4266948527	 0.0737139265	 1.1159532826	-0.131213
O	-3.5140618231	-0.8446020263	 1.098229708	-0.255194
C	-3.0421564115	-2.1397522117	 0.7483422406	-0.101458
C	-1.7676882373	-1.9094623588	-0.0339052458	-0.05508
O	-1.9203097208	-0.9244361307	-1.0622307248	-0.296306
H	-0.3117447884	 1.3252992014	-1.2216134757	 0.295121
H	 0.6638690552	-0.6496732024	-0.4389411828	 0.09945
H	 0.4569828812	 0.0663127252	 1.1734014956	 0.116104
H	-2.0121402056	 0.1963281885	 2.1301036588	 0.094906
H	-2.7969186546	 1.0436759336	 0.7726030735	 0.125708
H	-2.8191885482	-2.7525848336	 1.6378672426	 0.095653
H	-3.8266658425	-2.6377115395	 0.1695079558	 0.122149
H	-1.0715285461	-2.7198829868	-0.233729217	 0.102357
