17
gdb 45052	2.55181	1.82801	1.26675	2.7218	72.43	-0.2479	-0.0206	0.2273	998.5763	0.13615	-421.82902	-421.821588	-421.820644	-421.861034	29.038	
O	 0.0391200347	 0.1290132964	-0.5252167827	-0.326928
C	-0.0118300126	 1.2540738121	-0.0950687842	 0.333095
C	-1.2820802873	 1.9678208856	 0.4071773965	-0.36102
C	-0.7896377753	 3.2942139084	 0.9435003392	 0.031392
O	 0.1440857222	 3.156977076	 2.0206154567	-0.25969
C	 0.6600519356	 3.4261951172	 0.7060220538	-0.081832
C	 1.1543563258	 2.2023430589	 0.0096959501	 0.252418
C	 2.5480734863	 1.6301151434	 0.1635794229	-0.29129
C	 2.152558494	 2.2404755476	-1.1388184852	-0.309606
H	-1.977259232	 2.0956676078	-0.4310168482	 0.133305
H	-1.7862747198	 1.3592111127	 1.1632184716	 0.146573
H	-1.4534056333	 4.1524460784	 1.00359722	 0.102891
H	 1.1579005937	 4.3844924487	 0.5829229696	 0.101182
H	 3.2341645781	 2.1681603858	 0.8078554616	 0.126851
H	 2.6022981325	 0.548162163	 0.2172617692	 0.141895
H	 1.9447002081	 1.576852971	-1.9706942059	 0.138707
H	 2.5571696595	 3.210763847	-1.407198575	 0.122057
