19
gdb 110489	3.1881	1.54661	1.36493	1.0491	79.16	-0.2179	0.0169	0.2348	1017.5513	0.160493	-385.849116	-385.841662	-385.840718	-385.881045	29.679	
C	 0.1502268205	 1.2441864432	-0.1832756845	-0.239491
O	-0.2482068115	-0.0650680608	 0.1523566966	-0.239711
C	 0.5412557941	-0.6505593264	 1.1448800429	 0.18718
C	 0.1458948808	-2.0321732732	 1.5966832661	-0.143602
C	 0.7506600411	-3.1498233974	 0.7086198108	-0.074249
C	 1.2304216536	-2.8028110318	-0.6593255693	-0.074939
C	 2.0160600201	-1.7234734386	-0.5938486448	-0.073303
C	 2.0133031381	-1.2013471839	 0.8200622879	-0.182515
C	 1.6084841457	-2.4224371136	 1.7051493774	-0.07426
H	 1.1561318392	 1.2676501616	-0.6291536987	 0.104911
H	-0.5654710476	 1.6266574858	-0.9148750321	 0.126372
H	 0.1485490878	 1.9084998781	 0.6957119608	 0.101509
H	 0.6200960996	 0.0143265696	 2.018393286	 0.069743
H	-0.6770373238	-2.261923397	 2.2624281442	 0.088241
H	 0.3859271904	-4.143426704	 0.9425048668	 0.08391
H	 0.9349180032	-3.3382147715	-1.552573503	 0.094506
H	 2.4497644286	-1.1909179626	-1.4308878702	 0.093439
H	 2.8413055636	-0.5631382586	 1.1240262584	 0.064344
H	 2.1545240267	-2.8594398488	 2.5314783946	 0.087916
