15
gdb 11386	4.51696	1.55558	1.23042	2.9012	66.15	-0.2585	-0.0384	0.2201	963.8105	0.119205	-399.813448	-399.806104	-399.805159	-399.8454	26.629	
C	-0.0201554303	 1.3875845474	-0.0948682163	-0.242133
O	-0.0088624156	-0.0299826484	-0.00062318	-0.228081
C	-1.2710370046	-0.602922407	 0.0078991981	 0.165207
O	-1.9303983399	-0.469678492	-1.2650548988	-0.257173
C	-2.1694984051	-1.7154090856	-1.7964833497	 0.394806
N	-2.7257839612	-1.9430193064	-2.9090028318	-0.539959
C	-1.6815761974	-2.7176819539	-0.8361133748	-0.133671
C	-1.1634549788	-2.0907596982	 0.2163389786	-0.119111
H	 1.0174040227	 1.716436779	-0.0152275088	 0.135433
H	-0.4362249953	 1.7200426127	-1.0523898569	 0.134403
H	-0.6043441217	 1.8345118623	 0.722927226	 0.111606
H	-1.9153968591	-0.0976710047	 0.7467666324	 0.085416
H	-2.9580651932	-1.0672964364	-3.380383792	 0.225347
H	-1.7573140641	-3.7781407636	-1.0249272818	 0.136719
H	-0.7022543863	-2.5153874952	 1.0967066757	 0.131193
