23
gdb 90116	2.79022	1.56254	1.40046	0.2016	90.33	-0.2268	0.0748	0.3015	1076.0794	0.208555	-351.071855	-351.064169	-351.063225	-351.103393	32.604	
C	-0.2512578104	 1.6096052121	-0.140835512	-0.408161
C	-0.0825541828	 0.0966337456	-0.0474057827	-0.040621
C	 0.9252312919	-0.6432526884	-1.0572046192	-0.358062
C	 1.9200582229	-0.7675011555	 0.1375202959	 0.319688
C	 2.5626664334	-1.7047973315	 1.2249091591	-0.322244
C	 1.8848283199	-0.6177102872	 2.1958396122	-0.086075
C	 2.7300314772	 0.6259813925	 1.9029897538	-0.203383
C	 2.8028186137	 0.4942023393	 0.3540738825	-0.235127
C	 0.7590319206	-0.6263056466	 1.0902330238	 0.025365
H	 0.680650886	 2.169566577	-0.0531987494	 0.122604
H	-0.7102139266	 1.8804116555	-1.0988518266	 0.114289
H	-0.9196144913	 1.9611331231	 0.6530074816	 0.116265
H	-1.0859374353	-0.3386086069	-0.0957677809	 0.074184
H	 0.5019416684	-1.5930241943	-1.3939297357	 0.101906
H	 1.2668396771	-0.0784340022	-1.9304179595	 0.094184
H	 2.0941847673	-2.6869470517	 1.3050645736	 0.099335
H	 3.6542490315	-1.7940870494	 1.2721794939	 0.084575
H	 1.6747160519	-0.8566553099	 3.2406223506	 0.057971
H	 2.2395730146	 1.5483263834	 2.227943334	 0.095083
H	 3.7115931956	 0.5823239759	 2.384342418	 0.092016
H	 3.8208240988	 0.3028127868	-0.0017835845	 0.091396
H	 2.4475069634	 1.3789275766	-0.1723169079	 0.092668
H	 0.2679548323	-1.6012429245	 1.1869848393	 0.072143
