15
gdb 130208	3.16995	1.27845	0.91471	2.1855	70.76	-0.2079	0.0092	0.2171	1187.6126	0.115271	-450.167352	-450.159163	-450.158219	-450.200439	29.977	
N	 0.0796668809	 1.3823785634	 0.0758555351	-0.60966
C	 0.0338498074	-0.0238617346	 0.0105815882	 0.252733
N	-1.0972875118	-0.7200379964	 0.0089571847	-0.286022
N	-0.6939259038	-2.0086248387	 0.0059157717	-0.195549
C	 0.654732731	-2.1582490708	-0.0079523871	-0.097565
C	 1.1655605279	-0.8755196561	 0.0083785134	 0.255569
N	 2.4898461941	-0.4299708326	 0.0547344698	-0.418268
C	 3.5894822513	-1.2309746974	-0.0055341745	 0.136638
O	 3.5651736134	-2.434773205	-0.1591290605	-0.319795
H	 0.3778312795	 1.7903889831	-0.8056181124	 0.246422
H	-0.8436929246	 1.7460882871	 0.2864888466	 0.253029
H	-1.3881352251	-2.7346316316	 0.0024139615	 0.276844
H	 1.149006565	-3.1127436896	-0.0186852417	 0.167246
H	 2.6158454016	 0.5503437366	 0.2612178256	 0.258073
H	 4.5246361432	-0.6484840273	 0.0974729595	 0.080307
