12
gdb 132816	2.40562	1.81352	1.03401	1.8818	60.56	-0.2448	-0.024	0.2208	1008.7764	0.07741	-521.929959	-521.923108	-521.922163	-521.961322	26.07	
O	 0.0909873141	 1.3468557702	 0.0973947981	-0.405261
C	 0.0699942784	 0.0035949152	 0.042138221	 0.332202
N	 0.0800465223	-0.5889003134	-1.1426969647	-0.362596
C	 0.0589287128	-1.9270797556	-1.1846324671	 0.000623
C	 0.027057802	-2.7309366017	-0.0567184163	-0.272764
C	 0.0169141202	-2.0914784357	 1.1800723064	 0.213462
F	-0.0132281544	-2.7904339686	 2.3070703012	-0.051289
C	 0.038335379	-0.7088222913	 1.2475387716	 0.037869
F	 0.029156327	-0.0788153243	 2.4173104458	-0.045065
H	 0.1112040336	 1.648169199	-0.821885175	 0.304665
H	 0.0681181607	-2.373147777	-2.1744549375	 0.124695
H	 0.0103745443	-3.8114187569	-0.1130830134	 0.123461
