19
gdb 32796	3.26392	1.01713	0.79532	1.8468	80.7	-0.188	0.0151	0.2031	1457.8371	0.159395	-419.243142	-419.23371	-419.232765	-419.278437	33.416	
C	 0.0598597324	 1.4674557066	-0.2314105227	-0.391947
C	-0.1612660809	 0.0147747872	 0.1756653249	-0.117043
N	 0.9367333057	-0.4508500962	 1.0242774271	-0.405589
C	 0.9954469033	-1.7998929966	 1.3482993435	 0.244747
C	 1.4528558167	-2.4103133057	 2.4807110035	 0.23665
C	 1.9858297096	-1.9521921818	 3.7865691002	-0.502728
O	 1.3819739269	-3.7750184146	 2.2526548208	-0.178963
C	 0.8715310354	-3.8887841258	 1.0165493229	 0.070197
N	 0.6202270685	-2.7680386461	 0.422542869	-0.311212
H	 1.0073290945	 1.5804644153	-0.7660205121	 0.128564
H	-0.7511977555	 1.8109047376	-0.880111354	 0.118912
H	 0.0841663747	 2.1285675058	 0.6433599628	 0.108056
H	-1.1403223509	-0.0931371899	 0.672226734	 0.087596
H	-0.1849767307	-0.6307097299	-0.7050574299	 0.142309
H	 1.0819417391	 0.1450675086	 1.8287704441	 0.224324
H	 1.491890982	-2.4608540138	 4.6222482373	 0.139244
H	 3.0649767138	-2.1248645523	 3.8872001157	 0.138037
H	 1.8137185436	-0.8780363325	 3.9048252813	 0.124475
H	 0.718236082	-4.8875964258	 0.6386758018	 0.144372
