17
gdb 43949	3.26922	1.59477	1.49427	3.4276	73.68	-0.2441	-0.0152	0.2288	934.7453	0.136773	-421.752669	-421.745982	-421.745038	-421.78352	27.669	
O	-0.1396911573	-0.0793577443	-0.4028724013	-0.276253
C	-0.0807751031	 1.0707687546	-0.1153424213	 0.355165
C	-1.1685649141	 2.1843724587	 0.2371589961	-0.418419
C	 0.0141654948	 2.8688584172	 0.9353019081	 0.397975
C	 1.0216606677	 4.0334666897	 1.1131879337	-0.330286
C	 2.0340382882	 2.7943005242	 1.11031405	-0.121354
C	 1.5881296559	 2.0870291851	 2.3798413086	-0.079983
O	 0.1600381336	 2.1247671711	 2.1795707182	-0.30694
C	 1.0311333119	 2.1742034376	 0.0508133137	-0.127887
H	-1.5012235133	 2.6885007057	-0.674022234	 0.128851
H	-2.0223707197	 1.8780488491	 0.8423532139	 0.137071
H	 1.1316474238	 4.6645872221	 0.2313763902	 0.11518
H	 0.9632816443	 4.6321458306	 2.0254077725	 0.110673
H	 3.0989195151	 2.9141787782	 0.9180579793	 0.087558
H	 1.9291700242	 1.0499459663	 2.4562713537	 0.118246
H	 1.8594757608	 2.6266974777	 3.2947121213	 0.104991
H	 1.1441715072	 2.6656062166	-0.9208201025	 0.10541
