17
gdb 89655	3.04869	1.30223	1.06999	1.7789	76.41	-0.2443	0.0142	0.2585	1145.4835	0.132936	-421.761023	-421.752135	-421.751191	-421.794261	33.827	
C	-0.0807974704	 1.5125089834	 0.043464892	-0.510406
C	 0.2062054985	 0.0519029793	-0.0481879788	 0.282846
O	-0.638291062	-0.8605751031	 0.6724774222	-0.32947
C	 0.7930297969	-0.9222466768	 0.9121287745	 0.212258
C	 1.3686950416	-1.78693949	-0.2167772446	-0.354255
C	 0.7216442134	-0.7818600419	-1.2440087115	 0.09738
O	-0.258579399	-1.2609656749	-2.1193592319	-0.435546
C	 1.2728075117	-0.749720539	 2.2393915653	 0.185298
C	 1.7173581758	-0.6202805886	 3.3494529654	-0.375496
H	 0.7698139203	 2.0953078417	-0.3232609066	 0.130787
H	-0.9538313165	 1.7683418498	-0.566746062	 0.140923
H	-0.2847114958	 1.7966411641	 1.0789178	 0.144153
H	 2.4601167112	-1.7897060092	-0.2503413405	 0.119882
H	 0.990767275	-2.8112573363	-0.2499506633	 0.112598
H	 1.4703809697	-0.2622618553	-1.8467869307	 0.097371
H	-0.9648473017	-1.6104143218	-1.560011325	 0.289011
H	 2.0999955811	-0.5046189114	 4.3334168456	 0.192666
