16
gdb 34950	3.55898	1.55164	1.3463	3.3826	71.35	-0.2637	0.0271	0.2907	944.5199	0.127061	-400.716994	-400.710627	-400.709683	-400.747754	25.881	
N	-0.0024641658	-1.1453099302	-0.0624063305	-0.337091
C	 0.0050057571	 0.0089161026	 0.0085032343	 0.265997
C	 0.0314827525	 1.4616999876	 0.0733726185	-0.13078
C	-0.361799837	 2.0815486097	 1.4412091841	-0.102047
C	 0.664906025	 1.4352306714	 2.4068645984	-0.265869
C	 1.6961330696	 2.273136158	 1.633796528	-0.06727
C	 0.6279320162	 3.347458005	 1.3484521981	 0.097173
O	 1.049201067	 3.5258648665	-0.0081743616	-0.281171
C	 1.4421870594	 2.1319709212	 0.0801617793	 0.052665
H	-0.5429604763	 1.8722490324	-0.7603028203	 0.133445
H	-1.4204743963	 2.161561155	 1.675865639	 0.090035
H	 0.5582746092	 1.8103554649	 3.4281434154	 0.112359
H	 0.7423831145	 0.3464362075	 2.418828342	 0.135007
H	 2.7089385785	 2.4929503702	 1.9633127013	 0.090939
H	 0.4190200501	 4.2543389815	 1.9119996338	 0.100388
H	 2.1859499661	 1.8196772667	-0.6495225399	 0.106222
