13
gdb 20685	4.00415	2.01023	1.34944	1.9638	65.11	-0.2517	-0.0875	0.1642	855.0391	0.096388	-390.94078	-390.933844	-390.9329	-390.972267	25.067	
C	-0.0089354741	 1.4619355329	-0.0171045369	-0.452694
C	-0.0632394262	-0.0315529572	 0.0204740195	 0.376724
N	-1.1740259184	-0.6502819332	-0.1900956572	-0.270556
C	-1.1698221811	-2.0400990017	-0.1439777241	 0.438384
N	-2.2248117811	-2.720841592	-0.3410121357	-0.519878
N	 0.1054493414	-2.5824574646	 0.1386684086	-0.263538
N	 1.2289913084	-1.8956647308	 0.3496149487	-0.020936
N	 1.1862821207	-0.6292763295	 0.2994462477	-0.238176
H	 0.7103213497	 1.7877064885	-0.775904223	 0.1539
H	-0.9945962439	 1.8710985718	-0.234615221	 0.152166
H	 0.3545655415	 1.8441175976	 0.9425904892	 0.153886
H	-2.0503892027	-3.723530943	-0.2721377523	 0.210416
H	 0.2339223658	-3.5832038588	 0.1979739165	 0.280302
