15
gdb 124230	5.03991	1.031	0.86209	1.3867	68.83	-0.2517	-0.0166	0.2351	1275.4434	0.113744	-450.132603	-450.124446	-450.123502	-450.167458	28.831	
C	-0.1360983607	 1.3222090209	-0.1024561059	-0.445948
C	 0.0967245278	-0.156856415	-0.0218374243	 0.389182
N	 1.2328212764	-0.69228085	-0.0694167528	-0.495115
O	-1.1499234842	-0.7808074083	 0.1096586996	-0.283099
C	-1.3218458374	-2.114144177	 0.1783065383	 0.408214
N	-0.370813052	-3.0352142126	 0.3205815285	-0.317952
N	-1.0714499501	-4.1709659871	 0.3471325248	-0.063702
N	-2.3836450703	-4.0604641965	 0.2397297614	-0.182833
C	-2.5787858991	-2.7488769011	 0.1283595028	-0.136932
H	 0.8216967685	 1.8302713815	-0.202584717	 0.152126
H	-0.774561663	 1.5624502646	-0.9582713541	 0.141452
H	-0.6507309942	 1.6761887887	 0.7962912053	 0.142246
H	 1.1961084751	-1.7068715338	 0.0108787347	 0.254628
H	-0.6167564596	-5.0635640164	 0.4454016089	 0.300178
H	-3.561495307	-2.3215218279	 0.0225117399	 0.137553
