14
gdb 13758	3.22512	1.92591	1.56024	3.8539	59.37	-0.2485	-0.0398	0.2087	834.7364	0.106228	-415.871967	-415.864029	-415.863085	-415.904706	28.002	
N	 0.0134023357	 1.1467487892	-0.0827830388	-0.536489
C	-0.0043900938	-0.2040141161	 0.1532191498	 0.446425
O	 0.9582439954	-0.9306011527	 0.0537205518	-0.376115
N	-1.2664671012	-0.6648503302	 0.5936635938	-0.123619
C	-2.498210347	-0.5670529445	-0.1525297683	-0.251128
C	-1.8351849369	-1.900923653	 0.0847275459	-0.087902
C	-1.2037293734	-2.5578304696	-1.1160695624	 0.158964
O	-0.9510907949	-1.9729441534	-2.1377937776	-0.248214
H	 0.9293027587	 1.5600217251	-0.1517040021	 0.2687
H	-0.7175998517	 1.7234203022	 0.2997557403	 0.261993
H	-3.3841790733	-0.3005439266	 0.4174068696	 0.127447
H	-2.4442308409	-0.2022137139	-1.1751449482	 0.157231
H	-2.2135606575	-2.5779532522	 0.8467114633	 0.108107
H	-1.0061019792	-3.6437594741	-1.002678457	 0.094599
