21
gdb 81794	2.03826	1.75977	1.288	1.9851	82.58	-0.2526	0.0897	0.3423	1114.9508	0.181261	-387.049816	-387.040905	-387.039961	-387.082857	34.681	
C	-0.1185548284	 1.5407815525	-0.0282994949	-0.411241
C	 0.0192110784	 0.0229157634	-0.0085135385	-0.078188
C	 1.1376893607	-0.5514569243	-0.8996172072	-0.10566
C	 1.2367786645	-2.0353996623	-0.699253284	-0.343663
C	 1.880885353	-1.1261526172	 0.3211062772	 0.283344
C	 3.3439827723	-1.1740345747	 0.6581234179	-0.508201
C	 0.7895783241	-0.5576493651	 1.2009542172	 0.395404
C	 0.8953780739	-0.0203631585	 2.5573620547	-0.273535
O	 0.19967944	-1.2479918679	 2.295654005	-0.284693
H	 0.847329079	 2.0283329662	 0.1432396748	 0.114119
H	-0.5001698998	 1.8841688321	-0.9958763339	 0.116316
H	-0.8138330725	 1.8863807036	 0.7436396234	 0.118793
H	-0.9576696481	-0.4491821243	-0.1676434573	 0.08003
H	 1.5609407625	-0.0457675209	-1.7595328106	 0.085462
H	 0.351786185	-2.6149146403	-0.4471519921	 0.116103
H	 1.9385285746	-2.5543848544	-1.3453290147	 0.108972
H	 3.9395810533	-1.4396731346	-0.2212260657	 0.119097
H	 3.7048067812	-0.2076463869	 1.0276880156	 0.11611
H	 3.5474610614	-1.9251737076	 1.4306474109	 0.128242
H	 1.8275488387	-0.1227993789	 3.1127810883	 0.111189
H	 0.2697308663	 0.8173623098	 2.8635933239	 0.111999
