20
gdb 101502	3.08209	0.76635	0.65098	4.27	80.06	-0.2609	-0.0252	0.2358	1734.108	0.167751	-440.312243	-440.301657	-440.300713	-440.348912	36.586	
C	 0.3620551315	 1.5594997638	 0.2283696917	-0.391083
C	 0.0253160064	 0.1331934831	-0.2200712516	-0.189032
C	 0.8975318479	-0.3965687812	-1.3729249543	 0.072606
C	 0.6767787427	-1.8989766858	-1.6041796864	-0.384588
N	 0.7756221781	 0.2761271949	-2.6704658327	-0.240653
C	-0.2398122301	 0.9442563163	-2.9747151927	 0.136322
O	-0.4052439289	 1.5431778885	-4.2018505931	-0.197914
C	 0.3364725044	 1.0988774936	-5.2691584203	 0.180762
O	 0.3130827569	 1.6767644692	-6.309907073	-0.254265
H	 1.4071372172	 1.629225	 0.5486114859	 0.122074
H	 0.2178281336	 2.2919505683	-0.5709321816	 0.123481
H	-0.2650105671	 1.8618562857	 1.0723962247	 0.118361
H	 0.1680677819	-0.5484007185	 0.6268278934	 0.101798
H	-1.0381479541	 0.0504041672	-0.4807959905	 0.097638
H	 1.9477278467	-0.2589077816	-1.0817301843	 0.092806
H	 1.2987180275	-2.2568560542	-2.4285374081	 0.127684
H	 0.9293647315	-2.4674417428	-0.7042626588	 0.118181
H	-0.3704328935	-2.100518732	-1.8555009663	 0.116726
H	-1.1079354365	 1.1781639792	-2.3563237968	 0.122689
H	 0.897983784	 0.1849331862	-5.0381404351	 0.12641
