20
gdb 23071	3.43389	1.04913	0.96906	1.113	83.25	-0.2369	0.0095	0.2464	1302.3696	0.170326	-403.084631	-403.075855	-403.074911	-403.118643	33.671	
C	-1.1666502316	 0.9159890513	 0.0281516207	-0.411224
C	-0.1119719043	-0.1811242311	 0.0090492958	 0.048024
C	 1.0698914984	-0.0746527363	-1.0050683131	-0.257741
C	 2.0920152835	-0.3927874777	 0.1367841394	-0.125813
C	 0.9046516242	-0.3100698952	 1.1792262906	-0.042916
C	 1.5183055087	 1.0088013892	 1.7483807489	-0.343024
C	 2.6782355553	 0.8347894501	 0.7836859233	 0.437591
N	 3.7958653403	 1.3993599372	 0.5934822629	-0.248773
O	 3.9470703976	 2.5108030813	 1.4490111258	-0.396309
H	-0.7191026172	 1.9110514942	 0.1207545439	 0.118025
H	-1.7511197981	 0.9074823917	-0.8986250551	 0.116483
H	-1.8651419793	 0.7842163779	 0.862285892	 0.114775
H	-0.6107961405	-1.148126854	-0.1189868558	 0.074171
H	 1.0513714671	-0.811602644	-1.8108856875	 0.104821
H	 1.2057963067	 0.9144368069	-1.4510133801	 0.10675
H	 2.7357219715	-1.2611601089	-0.0031356026	 0.080966
H	 0.7150345076	-1.0880368889	 1.9190363702	 0.068538
H	 0.9317946714	 1.9243687227	 1.6317913223	 0.122092
H	 1.8279750867	 0.9457222267	 2.7962114106	 0.128796
H	 4.828633472	 2.8225844268	 1.2186747277	 0.304767
