21
gdb 94365	2.7529	1.47088	1.21143	1.6916	81.71	-0.2454	0.0855	0.3308	1118.9906	0.182396	-387.042032	-387.033749	-387.032805	-387.074773	32.742	
C	-0.6979175528	 1.149883494	 0.0078094675	-0.418942
C	 0.1385856316	-0.1142311465	-0.1105941319	-0.002593
C	 1.5507913415	-0.0489747737	-0.7571718081	-0.233401
C	 2.0402138982	-1.0814021897	 0.2935131011	-0.306629
C	 0.7949829172	-0.7433847253	 1.1532588817	 0.358008
C	 1.0310667	 0.0847867711	 2.4738849272	-0.338873
C	 0.313953114	-1.0337515768	 3.2404300682	 0.041051
O	-0.9978720775	-1.1575233611	 2.6768815936	-0.250268
C	 0.0974142644	-1.8048621997	 2.0079704655	-0.06899
H	-0.1201055147	 1.9738886028	 0.4413440123	 0.109034
H	-1.0519416448	 1.4784060294	-0.975856609	 0.108923
H	-1.570252273	 0.9786293797	 0.6460118633	 0.132493
H	-0.4522768128	-0.894511121	-0.6072022146	 0.071341
H	 1.6429629997	-0.3150672707	-1.8129170936	 0.094517
H	 2.0127445081	 0.9320474814	-0.6054464602	 0.099519
H	 1.9945645163	-2.1056220879	-0.0917541647	 0.099645
H	 3.0234775691	-0.9270115615	 0.7457707947	 0.096611
H	 2.0928186125	 0.1680456393	 2.7219968255	 0.103594
H	 0.5596033128	 1.0672720536	 2.5489404198	 0.110055
H	 0.4431286971	-1.357703723	 4.2665997225	 0.101812
H	 0.010814613	-2.8727900243	 1.8355143996	 0.093092
