22
gdb 10780	2.5121	1.897	1.43251	1.4889	76.7	-0.2484	0.0578	0.3062	1007.5602	0.199355	-350.200581	-350.191183	-350.190239	-350.233706	35.717	
C	-0.8950505289	 1.1752646622	-0.1331321597	-0.411439
C	-0.0901406004	-0.1123599106	-0.0047548308	 0.025361
C	 1.1786266645	-0.3413005783	-0.8963603628	-0.044863
C	 1.8772352447	 0.896195352	-1.4580095463	-0.420715
C	 1.8657154487	-0.9861056225	 0.3500468531	 0.14045
O	 3.2253214021	-0.7311128726	 0.613095886	-0.430213
C	 0.7651886455	-0.3827112697	 1.2807236233	-0.044863
C	 1.2007294207	 0.8284427448	 2.1043182808	-0.420714
H	-0.2800069545	 2.0698449608	 0.0006484003	 0.112749
H	-1.3658358036	 1.2442158213	-1.1201186864	 0.113253
H	-1.69521789	 1.2112754713	 0.6145128047	 0.113252
H	-0.7725460363	-0.9567683286	-0.1504124727	 0.070233
H	 1.018265907	-1.0435680354	-1.7210669215	 0.064272
H	 2.0536603215	 1.6722476058	-0.7053167191	 0.107725
H	 2.8480783455	 0.6226575371	-1.8836683736	 0.125317
H	 1.2812166174	 1.3549328574	-2.253278946	 0.118511
H	 1.7865312302	-2.0761516526	 0.3142766208	 0.084574
H	 3.3533139616	 0.221655101	 0.655533816	 0.281285
H	 0.3186619912	-1.113640319	 1.9629201961	 0.064272
H	 1.6353026734	 1.6303421577	 1.4976611416	 0.107725
H	 0.3515511279	 1.2618342942	 2.6420909555	 0.118511
H	 1.9499217918	 0.5327164436	 2.8458038607	 0.125316
