19
gdb 95715	2.80293	1.23894	0.95831	2.7803	71.58	-0.2361	-0.0199	0.2161	1228.3226	0.159414	-460.178101	-460.169441	-460.168497	-460.211711	32.706	
O	-0.6352029125	 1.4580534511	-0.7019139447	-0.427872
C	-0.0548478953	 0.3013879707	-0.1130498476	 0.105643
C	-1.2066394354	-0.4959319125	 0.4952057246	-0.207162
C	-0.7868618632	-1.809582322	 1.1906206699	-0.306301
C	-0.4810759267	-2.9321190129	 0.2137352329	 0.347975
O	-1.1737457897	-3.91763936	 0.1133417408	-0.298633
C	 0.7663775504	-2.8026320271	-0.6714358658	-0.179312
O	 1.4475053568	-1.5726702856	-0.610396504	-0.237668
C	 0.7467340209	-0.4738050421	-1.1679618221	-0.104013
H	 0.0752066167	 2.0405634879	-0.9896726711	 0.286307
H	 0.6425001086	 0.5781551121	 0.6947155025	 0.075388
H	-1.7027497024	 0.1472216552	 1.2282076347	 0.118545
H	-1.9474908401	-0.7015786117	-0.2872867739	 0.11761
H	 0.0963085324	-1.626747094	 1.8157410734	 0.120742
H	-1.597315336	-2.1657337878	 1.830311016	 0.123935
H	 1.4758502202	-3.5697561613	-0.3402633883	 0.140654
H	 0.4717763107	-3.057329415	-1.7008565937	 0.124373
H	 0.0783350118	-0.7942913921	-1.9812727287	 0.103203
H	 1.5019451629	 0.1927484872	-1.604103415	 0.096586
