16
gdb 56568	2.90472	1.16272	0.85736	3.7568	66.18	-0.2518	-0.0045	0.2473	1261.1533	0.123864	-471.234859	-471.225281	-471.224337	-471.26952	34.752	
N	 0.3557132672	 1.4704090782	-0.1519759472	-0.515649
C	 0.0994532151	 0.0566699674	 0.0249530529	-0.117082
C	 0.5581037079	-0.6995605535	-1.25749767	-0.022159
O	 0.2560043467	-2.093475572	-1.2493334343	-0.416406
C	-0.04002565	-0.0662791868	-2.4451136875	 0.273292
N	-0.5780274662	 0.3790970509	-3.3657154511	-0.315671
C	 0.8424295116	-0.419110454	 1.3010833616	 0.405614
N	 0.9851517901	-1.7576248578	 1.4431993816	-0.521813
O	 1.2225304188	 0.3898226661	 2.1277860804	-0.365754
H	-0.4716011891	 1.9701203477	-0.4502370257	 0.244303
H	 0.6743390713	 1.843580066	 0.7387784743	 0.256621
H	-0.9657794077	-0.1911922221	 0.1766260795	 0.094024
H	 1.6465995943	-0.6214852998	-1.3325008372	 0.157914
H	-0.6904216878	-2.2003916667	-1.4033730264	 0.303729
H	 0.7652666488	-2.3800917527	 0.6797248154	 0.274276
H	 1.5000215889	-2.090577591	 2.2422367437	 0.264763
