19
gdb 8320	4.51115	1.12358	0.99754	1.1355	68.56	-0.2247	0.0618	0.2865	1193.0015	0.164873	-402.156782	-402.148032	-402.147088	-402.190746	31.814	
O	 0.297516554	 1.3261817051	-0.0058285777	-0.415533
C	 0.0543073941	-0.0737901075	 0.009100328	-0.070226
C	-1.4297237839	-0.4268137144	 0.0788304591	-0.140791
N	-2.1607208834	-0.0183908219	-1.1068667915	-0.098453
C	-2.5661403887	 1.3996774006	-1.2693105367	-0.208549
C	-3.8833821939	 0.9072741584	-1.9199892922	 0.140657
O	-3.8837907521	 0.8780237105	-3.3273753421	-0.436526
C	-3.5718311398	-0.4458630952	-1.2300611302	-0.202287
H	 0.0937979821	 1.6497213635	-0.8877758881	 0.289611
H	 0.5041043475	-0.5654209576	-0.865557703	 0.093389
H	 0.5551369602	-0.4587074152	 0.9042225794	 0.107351
H	-1.5184781056	-1.5174725632	 0.1685048307	 0.099358
H	-1.8624947026	 0.0158264499	 0.9971046813	 0.082665
H	-2.7269966191	 1.9196344991	-0.3122348198	 0.099132
H	-1.9183450745	 2.0137429032	-1.9065856905	 0.08952
H	-4.8016050592	 1.4147141107	-1.6234283499	 0.094514
H	-3.0853353643	 0.4146471735	-3.6057121337	 0.286509
H	-3.7376534297	-1.3551972164	-1.8187355023	 0.101638
H	-4.0837906809	-0.5444688831	-0.258751921	 0.08802
