18
gdb 98532	3.84348	1.1024	0.98991	2.1414	73.07	-0.2324	-0.0012	0.2312	1239.9568	0.147825	-439.030391	-439.021855	-439.02091	-439.067734	30.498	
C	-0.0356720357	 1.3296673517	 0.0631630141	-0.241156
O	 0.0419033374	-0.0992792717	-0.0342607002	-0.236921
C	 0.6539538955	-0.5692055162	-1.1395644049	 0.281748
O	 1.1151913221	 0.1296704971	-2.0068184046	-0.372405
C	 0.6790213448	-2.0707708138	-1.1385447296	 0.236133
C	-0.4960716348	-3.0780408249	-1.0886056356	-0.200832
N	 0.7272160293	-4.0103424811	-1.1639297965	-0.1502
C	 1.2543973219	-3.0078888027	-2.2145098721	-0.20061
C	 1.3437128584	-3.0451630033	-0.1347673273	-0.200746
H	 0.9647860905	 1.7694964074	 0.0716479978	 0.142591
H	-0.592821332	 1.742989889	-0.781344328	 0.142661
H	-0.5523828501	 1.5362633405	 1.0002404532	 0.134856
H	-1.0587381215	-3.1642724588	-0.1564471419	 0.11158
H	-1.1482057664	-3.1390828471	-1.9635977168	 0.109797
H	 0.7352274428	-3.0666571505	-3.1736740038	 0.110771
H	 2.3387639992	-3.0379637125	-2.3415118022	 0.111068
H	 2.4358710613	-3.0745516343	-0.1051483515	 0.110116
H	 0.9082754571	-3.1288193688	 0.8634404301	 0.111549
