25
gdb 118117	3.10725	0.75232	0.67983	1.3676	89.88	-0.2525	0.0794	0.3319	1799.1283	0.226937	-389.483288	-389.472159	-389.471214	-389.520046	40.901	
C	 0.2706976472	 1.5421115441	 0.1398498116	-0.378018
C	-0.0282824257	 0.0463644701	 0.0000291975	-0.174708
C	 0.6561669306	-0.5835779006	-1.2189873387	-0.160106
C	 0.4622353774	-2.1049946954	-1.3648556361	 0.018091
C	-1.0014574954	-2.5007184773	-1.6162464195	-0.401332
C	 1.3440377569	-2.6424560095	-2.4808197505	-0.00397
C	 2.8059048636	-2.9634304397	-2.2313153915	-0.34478
C	 1.809435217	-4.0689497755	-2.484857214	 0.083233
O	 1.3850651654	-4.8753645842	-1.4213958939	-0.417532
H	 1.3462229281	 1.7233557743	 0.2464224927	 0.111241
H	-0.0698207035	 2.0973201682	-0.7414980675	 0.112039
H	-0.2275934494	 1.9706899588	 1.0152635013	 0.108365
H	 0.2978269433	-0.4785832651	 0.9081269998	 0.091689
H	-1.1133491361	-0.0983919667	-0.0610332098	 0.098034
H	 0.2988496522	-0.0855926439	-2.1325678203	 0.083793
H	 1.7330327214	-0.3747093314	-1.1646415818	 0.089364
H	 0.7826913255	-2.5832016397	-0.4310853263	 0.076794
H	-1.0926678506	-3.5872310827	-1.6971336771	 0.13004
H	-1.6582141171	-2.1684848556	-0.8070323851	 0.109065
H	-1.3723678948	-2.0572961129	-2.5488282268	 0.102813
H	 1.1105001163	-2.2324574483	-3.461816226	 0.079623
H	 3.5445400287	-2.7328057278	-2.9916262729	 0.106728
H	 3.1576664516	-2.8590651753	-1.2092506417	 0.110225
H	 1.8576792451	-4.5813516671	-3.4459766628	 0.081884
H	 2.1151909124	-5.4528158168	-1.1764179307	 0.287422
