16
gdb 49405	4.55147	1.29217	1.26871	1.1232	70.75	-0.2329	-0.0322	0.2007	995.5161	0.125426	-400.663094	-400.656562	-400.655618	-400.694503	25.656	
O	-0.0619670034	-0.0850342219	-0.2558357759	-0.251436
C	-0.0258503018	 1.1036836561	-0.0558867281	 0.148221
C	 1.2282433139	 1.9284446181	-0.0263564148	-0.095259
C	 1.3026354134	 3.2408142688	-0.8719058439	-0.101845
C	 0.2512103001	 4.2177211071	-0.305783394	-0.046942
C	 0.3811542408	 3.9675175105	 1.1561256815	-0.046923
C	 1.4848991114	 2.8898215437	 1.1790631369	-0.101855
C	 2.2064563433	 3.8900479715	 0.2224751552	 0.018755
N	 1.2212769356	 5.0309599093	 0.5052916189	-0.176215
H	-0.9619613531	 1.6804918175	 0.1258841706	 0.074704
H	 2.0962327207	 1.2895640721	-0.2127759625	 0.097091
H	 1.5143305039	 3.2337404288	-1.938245662	 0.089991
H	-0.6086231521	 4.6649834789	-0.7879760919	 0.105175
H	-0.3698184945	 4.2052572497	 1.8986794271	 0.105177
H	 1.875941321	 2.5373192429	 2.1302507657	 0.090003
H	 3.2759750708	 4.0744431069	 0.1589990272	 0.091359
