21
gdb 84275	3.03404	1.42217	1.14269	1.4913	84.24	-0.2343	0.0068	0.2411	1146.3319	0.182975	-387.06064	-387.052174	-387.05123	-387.093272	33.272	
C	-0.1346357518	 1.5727961971	-0.0698722739	-0.409047
C	 0.0348431054	 0.0526149864	-0.0078754399	-0.007392
C	 0.8549598944	-0.523452054	-1.1710416832	-0.218711
C	 1.4711612184	-1.6190398183	-0.7489539581	 0.194854
C	 2.7677157269	-2.3839537563	-0.6869097916	-0.157951
O	 2.7144034866	-2.2784109292	 0.770350039	-0.308273
C	 1.3017843788	-1.864367345	 0.7122986196	 0.103243
C	 0.8019346854	-0.507343494	 1.2621374156	-0.063485
C	 1.9573301076	 0.3798899726	 1.7332837841	-0.382436
H	 0.8272988628	 2.0889933606	-0.1429051783	 0.121411
H	-0.7301663062	 1.8554469613	-0.9443633826	 0.113603
H	-0.6533269568	 1.9487932846	 0.8181748054	 0.11566
H	-0.9740560005	-0.386457802	-0.006832217	 0.082378
H	 0.9645727908	-0.0173550093	-2.1235654209	 0.096207
H	 2.7287387142	-3.4345074721	-1.0041690369	 0.107733
H	 3.6544131441	-1.9043426512	-1.1155446137	 0.118613
H	 0.6697638624	-2.7072320137	 1.0233688109	 0.076383
H	 0.1010184402	-0.6473372916	 2.0929663937	 0.06343
H	 2.6682142897	 0.5762320445	 0.925489709	 0.119888
H	 1.5914398326	 1.3389527055	 2.1101375313	 0.108968
H	 2.508026305	-0.1143513757	 2.5379800875	 0.124925
