18
gdb 91897	2.37065	1.60365	1.06391	1.7078	72.7	-0.2383	-0.024	0.2143	1116.2935	0.148357	-439.076621	-439.068557	-439.067613	-439.109285	31.064	
O	-0.0090736368	 1.4293683195	 0.0806918834	-0.426726
C	 0.0211089994	 0.0144112716	-0.0001789801	 0.101674
C	-1.4296981471	-0.4493010319	 0.1468934672	-0.155538
N	-1.6480068978	-1.8886219344	-0.0923774065	-0.101371
C	-1.9434616774	-2.3064004862	-1.4445208814	-0.241102
C	-0.6237942915	-2.6600848966	-0.8248753236	-0.10783
C	 0.6215912535	-2.0085632818	-1.3365398257	 0.382284
O	 1.5866258847	-2.6641586635	-1.659631362	-0.322436
C	 0.6170057837	-0.4867306127	-1.3267847171	-0.346056
H	 0.897495759	 1.7499458113	 0.1235964062	 0.287706
H	 0.6140388692	-0.405170162	 0.8285954972	 0.085393
H	-1.7730157212	-0.2221924854	 1.1604477616	 0.122756
H	-2.0421358056	 0.144891338	-0.5417776846	 0.115844
H	-2.6917192167	-3.0868382461	-1.5551262097	 0.129377
H	-1.949011521	-1.5553934319	-2.2331755337	 0.118499
H	-0.4682166199	-3.6767666863	-0.4751877413	 0.116173
H	 0.0143790667	-0.0930794656	-2.1549121632	 0.125661
H	 1.6462774189	-0.1446885061	-1.4678764368	 0.11569
