24
gdb 76404	2.62459	1.14959	1.02939	0.9978	90.76	-0.222	0.0786	0.3006	1347.4899	0.215247	-368.371728	-368.361169	-368.360225	-368.407435	39.379	
C	-1.0004895532	-0.2648510078	-2.5433086393	-0.418421
C	-0.5075346468	-0.6951881938	-1.1784565097	-0.049339
C	 0.9610415215	-0.8556988905	-0.8243429019	-0.049005
C	 2.0922266834	-0.5971928736	-1.7967803804	-0.417894
C	 0.1385131976	 0.2432645809	-0.1746131479	 0.319806
C	 0.3957396987	 1.6978457284	-0.5252771879	-0.48323
N	-0.2307527587	-0.0895993633	 1.1920480025	-0.098838
C	 0.2720655154	 0.6730823442	 2.3252965853	-0.229777
C	-1.1700791032	 0.729864087	 1.9439710225	-0.231855
H	-0.3312105235	 0.4410303847	-3.0410476054	 0.112418
H	-1.1021881304	-1.132616263	-3.2047965933	 0.117247
H	-1.9850724388	 0.2114143072	-2.4733397907	 0.115428
H	-1.1519420036	-1.4293387928	-0.702778131	 0.086948
H	 1.1576228692	-1.6811920014	-0.1459999641	 0.08696
H	 1.8786973998	 0.2095990754	-2.5020426238	 0.111515
H	 3.0134094519	-0.3312608715	-1.2657463594	 0.115662
H	 2.3034014027	-1.4952996667	-2.3882022747	 0.117028
H	 0.5945455302	 1.8249538552	-1.5901590762	 0.119838
H	-0.4653385603	 2.3320327708	-0.2873426226	 0.117031
H	 1.2648566899	 2.0942271042	 0.0109802137	 0.118836
H	 0.5988547421	 0.0848063982	 3.1789958101	 0.111973
H	 0.8612005635	 1.569175047	 2.1447244607	 0.107716
H	-1.5282794087	 1.6626140884	 1.5135838111	 0.107791
H	-1.9173184787	 0.182036293	 2.5124054926	 0.112161
