17
gdb 27544	5.28086	0.93524	0.83626	2.643	76.28	-0.1898	0.033	0.2228	1354.0962	0.137619	-418.000163	-417.991915	-417.990971	-418.033721	30.896	
N	 0.0609060931	 1.3908196726	-0.2581551458	-0.593125
C	-0.0787936163	 0.0187162198	-0.1129868294	 0.403627
C	-1.1508531392	-0.822254749	-0.0931218776	-0.396555
C	-0.6044891008	-2.1566789559	-0.0273135027	 0.281819
C	 0.7444821765	-2.0102636609	-0.0001174163	-0.148259
O	 1.0808050032	-0.6762583559	-0.0590034923	-0.178815
C	-1.3749791153	-3.4198739832	 0.0263964197	-0.124441
C	-1.7658001725	-4.1295583593	-1.2238610026	-0.228127
N	-0.7546515543	-4.7091361415	-0.3221331283	-0.321242
H	 0.8916088202	 1.7482896165	 0.1964377342	 0.256633
H	-0.7590289123	 1.90170779	 0.0376675275	 0.256759
H	-2.1921964909	-0.5458906915	-0.1349784024	 0.097429
H	 1.5723804781	-2.6916469041	 0.0920841347	 0.132218
H	-2.060870125	-3.4982010909	 0.8686416051	 0.100113
H	-2.7060285312	-4.6721313233	-1.2684523844	 0.116279
H	-1.4356334483	-3.7005542844	-2.1657234194	 0.115254
H	 0.1679347052	-4.5415318589	-0.71669777	 0.230434
