20
gdb 61058	2.94869	1.08271	0.99057	2.5788	76.73	-0.243	0.0244	0.2674	1280.6515	0.169962	-440.286394	-440.276748	-440.275803	-440.321578	34.342	
C	-0.5919325447	 1.4952284351	 0.0044360967	-0.417082
C	 0.0212236458	 0.114710979	-0.0562435884	 0.143085
O	 1.2653710704	 0.0468540623	-0.8006639406	-0.291
C	 1.8461944691	-0.8357183821	 0.1789355351	-0.104771
C	 0.7112433621	-0.5352456333	 1.1854422974	-0.048348
N	 1.0480803754	 0.3088421589	 2.3089146225	-0.026668
C	 2.0256536539	 1.3892425818	 2.1924627991	-0.351892
C	 0.5011855163	 0.0836233592	 3.5395398459	 0.144102
O	 0.747261747	 0.7335110721	 4.5330873637	-0.342302
H	 0.0693573386	 2.2255873793	 0.4737527804	 0.130241
H	-0.8194428753	 1.839864639	-1.0091514367	 0.135479
H	-1.5295250617	 1.4635546544	 0.569225045	 0.126188
H	-0.7056098612	-0.5897691836	-0.4900368659	 0.076972
H	 1.8619993489	-1.878924209	-0.1632302972	 0.106792
H	 2.8595292664	-0.5357975669	 0.4620833749	 0.116132
H	 0.1882295349	-1.4097967727	 1.5769706068	 0.095917
H	 2.173602938	 1.6390804373	 1.1422238878	 0.147377
H	 1.6615250399	 2.2642948957	 2.7343637355	 0.153672
H	 2.9874018091	 1.102388905	 2.6328090719	 0.13433
H	-0.205505253	-0.7698682415	 3.5337755061	 0.071777
