17
gdb 37311	2.96837	1.85248	1.55488	0.9498	70.61	-0.2308	0.0168	0.2477	892.8507	0.139437	-417.962338	-417.95566	-417.954716	-417.993402	26.567	
C	 0.1890715842	 1.5788159837	 0.234945566	-0.254043
C	 1.3383445614	 0.68645016	 0.0101314026	-0.019309
C	 1.7080747759	-0.0942572192	 1.2820587244	-0.026497
N	 2.1718191017	 0.6891607791	 2.4054068503	-0.258563
C	 1.3166882067	 1.036361264	 3.2712165943	 0.119416
O	-0.0122736101	 0.7771746368	 3.3387182842	-0.230793
C	-0.5447944758	-0.3003077923	 2.5402089585	-0.099675
C	 0.2404268696	-0.5995213994	 1.2744777694	-0.011084
N	-0.0874204072	 0.1458283022	 0.0036966049	-0.150653
H	 0.0057286521	 2.0261498064	 1.2063571878	 0.136218
H	-0.1270723222	 2.1904592475	-0.6045535186	 0.124994
H	 1.9394994459	 0.7170446884	-0.892024953	 0.100164
H	 2.433326246	-0.8841547551	 1.0763670887	 0.093263
H	 1.6054654824	 1.6645237467	 4.1125187592	 0.126614
H	-0.5589321403	-1.1913308489	 3.1792877526	 0.122543
H	-1.5782474924	-0.0229886405	 2.3139329671	 0.134018
H	 0.1601918222	-1.6657717394	 1.0514251417	 0.093388
