20
gdb 63820	3.1818	1.49727	1.3452	2.6272	77.53	-0.2178	0.0639	0.2817	1035.6923	0.170876	-403.073822	-403.065843	-403.064898	-403.105574	32.79	
C	-0.0579861826	 1.5302832619	 0.0181923425	-0.451304
C	-0.0479647463	 0.0061103851	-0.0351132696	 0.386294
O	-1.3570679714	-0.4980152981	-0.2253714834	-0.464731
C	 1.08148589	-0.5753587669	-0.973806631	-0.323658
C	 1.8146107636	-1.1307707535	 0.2743782231	 0.037521
C	 0.6760686513	-0.6323134866	 1.1904820582	-0.062773
C	 0.4383578041	-2.1063409273	 1.5505810113	-0.034443
C	 0.243552913	-2.999902022	 0.3992048639	-0.244216
N	 1.6248027901	-2.5791860258	 0.7054034047	-0.158312
H	 0.935986112	 1.9291840766	 0.2432161095	 0.122064
H	-0.3695762247	 1.9497211628	-0.9473143143	 0.10628
H	-0.7540308567	 1.8767470404	 0.7886927572	 0.125565
H	-1.7560507726	-0.0196960881	-0.9604325474	 0.276297
H	 0.7414527893	-1.3166682141	-1.7000627202	 0.109134
H	 1.6504673259	 0.1923858539	-1.5057890927	 0.097344
H	 2.8552316421	-0.8404131968	 0.4128964411	 0.078626
H	 0.8524071752	 0.0189488662	 2.0467301675	 0.064569
H	 0.3113498247	-2.4488720351	 2.5730325356	 0.0915
H	 0.0939976122	-4.052709337	 0.6225398046	 0.115299
H	-0.2756909392	-2.6541742356	-0.4854780408	 0.128945
