17
gdb 82038	2.73645	1.43111	1.25874	2.2653	69.04	-0.265	-0.0446	0.2203	1044.9179	0.13487	-458.940021	-458.931879	-458.930935	-458.972605	31.496	
O	 0.0623951925	 1.3759175892	 0.1269093673	-0.435545
C	-0.0512291941	-0.0107390279	 0.047776939	 0.06035
C	-1.4368967853	-0.6619647057	 0.0525050921	-0.061101
C	-2.2394945698	-0.1862536051	-1.1167435472	-0.296676
C	-1.192570305	-1.2380703495	-1.3549498672	-0.101075
C	 0.1898229812	-0.5886450221	-1.4264435705	 0.274265
O	 0.3710080051	 0.4113821217	-2.3892403544	-0.480118
C	 1.3412718895	-1.551789873	-1.4556116026	 0.101978
O	 2.2907279802	-1.3879060541	-2.1862384798	-0.281875
H	 0.1722886975	 1.6844437165	-0.7857822813	 0.296415
H	 0.6125641817	-0.4711098504	 0.7894722098	 0.081052
H	-1.8862478903	-1.1494510718	 0.9081762167	 0.093279
H	-3.2600201185	-0.5514451846	-1.1584665092	 0.120506
H	-2.1073971441	 0.8184020958	-1.5033420391	 0.129493
H	-1.4392351813	-2.216693857	-1.7488362366	 0.093984
H	 1.2529503628	 0.2555874632	-2.7686969661	 0.29824
H	 1.2806578679	-2.4081001451	-0.7551286908	 0.106827
