16
gdb 31894	6.27903	0.88687	0.78194	4.5645	87.35	-0.1886	-0.005	0.1836	1416.3642	0.124807	-396.926371	-396.917683	-396.916739	-396.959767	32.109	
C	-0.1105595755	 1.3864066961	-0.0113045709	-0.328298
N	-0.0913270624	-0.0697019765	 0.0346607767	-0.407031
C	 0.6267612582	-0.6402987723	 1.0775242267	 0.367934
C	 1.2905261723	-0.108865324	 2.1666855992	-0.177538
N	 1.7835417351	-1.1081351696	 2.9651649514	-0.300018
C	 1.4413706966	-2.2418513645	 2.3853093035	 0.184924
N	 0.7275373004	-1.9997171917	 1.2238196953	-0.376644
C	 1.7311808221	-3.55315765	 2.8168586103	 0.263009
C	 1.9568555572	-4.6864140983	 3.1581545056	-0.419627
H	 0.890024817	 1.8375802728	-0.0936857034	 0.120599
H	-0.711720739	 1.7056555576	-0.8652994341	 0.128287
H	-0.581695484	 1.7682632085	 0.8991517195	 0.145363
H	 0.1292321946	-0.4769251138	-0.8658052133	 0.237166
H	 1.4363732807	 0.931070867	 2.4111493013	 0.103795
H	 0.2937730842	-2.6972972856	 0.6422603645	 0.265997
H	 2.1666323325	-5.6781287458	 3.4738492777	 0.192084
