18
gdb 105994	2.7734	1.64966	1.26907	2.3753	75.53	-0.2032	0.0702	0.2734	1046.2018	0.145604	-401.814671	-401.806374	-401.80543	-401.847489	31.327	
C	-0.266782555	 1.2960544951	 0.09777842	-0.257849
O	 0.2281070869	-0.0297867861	-0.0569227606	-0.27829
C	 0.8102342589	-0.5361941586	 1.0594714204	 0.381965
C	 2.1567840895	-0.2557567402	 1.8045488456	-0.156837
C	 1.5470246575	-0.7064717111	 3.0834430336	-0.040456
C	 0.1869983816	-0.9815685781	 2.4058939701	-0.270476
C	 0.9141873536	-1.9656114338	 1.4935763761	 0.294335
C	 0.5273212153	-3.2608966962	 0.874454317	-0.522432
N	 2.2505852885	-1.7066988563	 2.2056565329	-0.202275
H	 0.5445760468	 2.000721151	 0.3228981868	 0.120319
H	-0.7291228289	 1.5734623409	-0.8513326846	 0.132494
H	-1.0126648211	 1.3467726868	 0.9012408066	 0.117533
H	 3.039908568	 0.334814522	 1.5878541865	 0.098457
H	 1.8397760872	-0.5321062743	 4.1127370655	 0.094688
H	-0.8414565955	-0.9596432725	 2.7373845847	 0.09489
H	-0.4560099388	-3.1748382655	 0.4013980768	 0.13109
H	 1.2504391676	-3.5549340995	 0.1058903637	 0.133413
H	 0.4816583379	-4.0575094736	 1.624659959	 0.129429
