22
gdb 94366	2.79845	1.42487	1.17493	1.7565	85.25	-0.2265	0.0769	0.3034	1155.1037	0.195112	-367.156888	-367.148549	-367.147605	-367.189613	33.245	
C	-0.7122714818	 1.1616036082	-0.0298648344	-0.420805
C	 0.1120449384	-0.1128015247	-0.1398829883	-0.020379
C	 1.5353036805	-0.0311123001	-0.7581795446	-0.233052
C	 2.0080176359	-1.078866045	 0.2818855039	-0.291266
C	 0.7462387533	-0.7677282786	 1.1279961447	 0.362382
C	 0.973188768	-0.012504397	 2.4684308578	-0.24293
N	 0.4547863612	-1.1722245921	 3.2809507274	-0.124717
C	-0.947738885	-1.335750154	 2.8654831206	-0.247981
C	 0.1037155027	-1.8588931073	 1.9686657641	-0.116307
H	-0.1647766668	 1.9492761735	 0.4997005233	 0.113895
H	-0.9602590843	 1.5468142696	-1.0254041984	 0.115617
H	-1.6557609311	 0.9939639307	 0.5013212991	 0.114944
H	-0.4704643981	-0.8810315003	-0.6642426455	 0.070856
H	 1.6455707888	-0.2776732649	-1.8168098247	 0.095297
H	 1.9893548074	 0.9497769112	-0.5825328092	 0.098977
H	 1.9747412015	-2.0962171403	-0.1218331464	 0.099929
H	 2.9802886067	-0.9285768941	 0.7590008208	 0.099611
H	 2.0263132617	 0.1684065646	 2.6973327427	 0.10868
H	 0.4092080315	 0.9120931175	 2.6330389238	 0.09979
H	-1.4879606047	-2.0553374167	 3.4736034052	 0.119184
H	-1.5240853476	-0.4561348801	 2.5860414887	 0.110473
H	 0.2632729018	-2.9246298399	 1.8252997294	 0.087801
