22
gdb 104034	2.70522	1.31111	1.17532	1.4566	81.02	-0.2366	0.0755	0.3121	1184.022	0.195094	-404.339817	-404.330931	-404.329987	-404.372908	35.391	
C	 0.1740040031	 1.2850073649	-0.4201035114	-0.419337
C	-0.2028415026	-0.195780924	-0.2943704371	-0.209423
C	-1.635750294	-0.4701834808	 0.2031609966	 0.408296
O	-1.8473520912	 0.1467539231	 1.4770544769	-0.489803
C	-2.7313570873	-0.0354588764	-0.8287318653	-0.280056
C	-3.1734587128	-1.3029455288	-1.5299424063	-0.027126
N	-2.0473938383	-2.0933205947	-2.0796835853	-0.33785
C	-2.6575938964	-2.4748689574	-0.7839815489	-0.033105
C	-1.8740724888	-1.9932083339	 0.4175178558	-0.254898
H	 1.1957958706	 1.3869588956	-0.7976957755	 0.119597
H	-0.4817833702	 1.8267996052	-1.1100333661	 0.118403
H	 0.1453501241	 1.7991363119	 0.5480179629	 0.107025
H	-0.0853739376	-0.697875878	-1.2591875319	 0.129138
H	 0.4890288366	-0.6767558888	 0.4076947863	 0.093183
H	-1.6700202573	 1.0881850486	 1.3839240804	 0.273799
H	-3.5759661644	 0.3855043642	-0.2729595086	 0.10198
H	-2.3730996156	 0.7257166591	-1.5285363903	 0.097217
H	-4.1257674547	-1.32599147	-2.0504262852	 0.081747
H	-2.4005471124	-2.7108897555	-2.8064922621	 0.227763
H	-3.2099513166	-3.4073404467	-0.7269221053	 0.082194
H	-0.9344025342	-2.5355910038	 0.5591693798	 0.100045
H	-2.4751204499	-2.1182395739	 1.3238205308	 0.111211
