18
gdb 7859	4.60626	1.06017	0.95042	3.4362	69.01	-0.248	-0.0138	0.2342	1262.3397	0.150419	-384.945985	-384.936734	-384.93579	-384.981156	32.136	
C	-0.0874953575	 1.513564733	-0.1272704512	-0.419271
C	 0.0549069751	 0.0196179526	 0.0223058975	 0.070201
O	 1.3783934339	-0.5276247297	 0.0013953132	-0.262337
C	 0.6084851887	-0.6592193326	 1.2041266691	 0.075378
C	 1.1302585581	 0.060237167	 2.4252238862	-0.347934
C	 1.940134689	-0.8507838105	 3.3528035248	 0.391315
C	 2.8994389718	-0.1512025008	 4.2957050701	-0.477377
O	 1.8035126996	-2.0514429818	 3.3454122971	-0.290902
H	 0.620792897	 2.0583053646	 0.5002556774	 0.122156
H	 0.0880106583	 1.8066968317	-1.1675866538	 0.131908
H	-1.1028427257	 1.8269513403	 0.1397764978	 0.122089
H	-0.6577485304	-0.5557398267	-0.5733244225	 0.088715
H	 0.2819522855	-1.6775321738	 1.4102391397	 0.111884
H	 1.7283382633	 0.9303398704	 2.1411040749	 0.123569
H	 0.2928182251	 0.442319619	 3.0290989965	 0.132759
H	 2.4048914862	 0.6788918732	 4.8121635572	 0.13468
H	 3.298446072	-0.86144034	 5.0206805863	 0.144574
H	 3.7253930599	 0.2816814742	 3.7185978096	 0.148595
