17
gdb 73650	2.3715	1.75645	1.47811	3.989	67.37	-0.2543	0.0003	0.2547	971.3238	0.136491	-459.001753	-458.99402	-458.993076	-459.033903	29.389	
C	-0.0139419358	 1.5683234531	 0.0866605171	-0.470193
C	-0.0137443106	 0.0584564847	 0.0989998163	 0.219138
O	-1.3335039545	-0.4352010209	 0.1370617975	-0.282763
C	-1.291829209	-1.7705703394	 0.6476048502	-0.106212
C	-0.1711343445	-1.7629456545	 1.7048358278	-0.247051
C	 0.8186635704	-0.7702161831	 1.1185325568	 0.068304
O	 1.6135612613	-1.3384644677	 0.0223460516	-0.268312
C	 0.9118812306	-0.6463555751	-0.9385937083	 0.406128
O	 1.0688223913	-0.6763386392	-2.1149906362	-0.325383
H	 1.0072825635	 1.9590734555	 0.0946267119	 0.131899
H	-0.5126149977	 1.9293415185	-0.8167242413	 0.152667
H	-0.5514990275	 1.9518362031	 0.9582365379	 0.131089
H	-2.2802426013	-2.0027458277	 1.0479736573	 0.12117
H	-1.0645015475	-2.4825821062	-0.1579956358	 0.121211
H	-0.544189851	-1.3761116979	 2.6586068183	 0.119288
H	 0.2709353443	-2.7469635779	 1.8750512049	 0.128107
H	 1.466327038	-0.2550312252	 1.8271483139	 0.10091
