17
gdb 7960	3.52496	1.74256	1.32597	2.6938	65.52	-0.2559	0.0294	0.2854	936.6266	0.142469	-401.022906	-401.014996	-401.014051	-401.055073	29.633	
C	 0.4680049547	 1.4076234218	-0.2380489765	-0.387546
C	-0.0917569987	 0.0505811358	 0.1672645661	 0.091811
O	-0.0114941945	-0.8806301337	-0.9341397182	-0.247829
C	 1.0339191945	-1.7503656686	-0.7770192555	 0.416425
N	 1.3403495916	-2.6579848494	-1.5982309349	-0.542621
C	 1.7369831062	-1.4558285673	 0.5275204903	-0.344817
C	 0.6840928326	-0.6530675915	 1.3046232502	 0.101424
O	 1.1856307462	 0.3073086487	 2.2102248952	-0.431393
H	 1.5293951829	 1.3431227451	-0.4939797014	 0.123852
H	-0.0749925782	 1.7823957769	-1.1095876823	 0.12498
H	 0.3589759811	 2.1191288434	 0.5834246597	 0.137842
H	-1.1536243435	 0.1453719974	 0.4113884364	 0.094329
H	 0.7103944277	-2.6364325947	-2.4027176958	 0.220576
H	 2.0700782144	-2.3735713294	 1.0134423558	 0.129641
H	 2.6155591908	-0.8269174149	 0.3443172069	 0.137257
H	-0.0006085646	-1.3468064328	 1.8142196668	 0.084277
H	 1.6013163468	-0.1561927168	 2.9433454472	 0.291793
