21
gdb 90915	3.30654	1.48373	1.39781	1.4122	83.13	-0.2199	0.0838	0.3037	1044.1477	0.184027	-387.004172	-386.996758	-386.995814	-387.035427	31.265	
C	-0.4304382671	 1.43792757	-0.1280365095	-0.406058
C	 0.0047656506	-0.0175274054	-0.0275008891	-0.078263
C	 1.2021392737	-0.4227478275	-1.0124787555	-0.293581
C	 2.1706575674	-0.1183209546	 0.1868419718	-0.000774
C	 2.9608949495	-0.8289992684	 1.3578833795	-0.119786
C	 1.9237836861	-0.0521708205	 2.3139704356	-0.334813
C	 1.0072576173	-0.3852902167	 1.1050780608	 0.420481
O	 0.9536553497	-1.8428061117	 1.177220506	-0.31278
C	 2.3302169028	-2.2119705292	 1.3657004989	-0.078833
H	 0.418893378	 2.1271798087	-0.0754490338	 0.112915
H	-0.9433937403	 1.617906456	-1.0786817281	 0.11782
H	-1.1222704371	 1.6984023936	 0.6797586938	 0.120307
H	-0.8649435635	-0.6786824428	-0.0617967406	 0.083908
H	 1.1417271362	-1.4680406285	-1.310792516	 0.121266
H	 1.335660305	 0.2071070826	-1.8956979591	 0.092922
H	 2.4366809583	 0.9396127769	 0.175148417	 0.083269
H	 4.0404537676	-0.7481663064	 1.4893781603	 0.072244
H	 1.7038372692	-0.5013068727	 3.2865741807	 0.099964
H	 2.1667386095	 1.0062931804	 2.4120271893	 0.106397
H	 2.6710856393	-2.8546995722	 0.5444144477	 0.0967
H	 2.4594811779	-2.7493971914	 2.3132934304	 0.096697
