17
gdb 8078	3.78574	2.26157	1.82894	1.8188	67.43	-0.2465	0.0191	0.2656	775.4553	0.144135	-363.865648	-363.859185	-363.858241	-363.895701	26.406	
C	-0.0766722882	 1.5247674806	-0.006359023	-0.464213
C	 0.0325340167	 0.0179418499	 0.0038089009	 0.322808
C	 1.0761518132	-0.7176429612	-0.9004089033	-0.268722
C	 1.0197146254	-1.8337249401	 0.1688182488	 0.108472
C	 0.69979034	-0.730697482	 1.2046987832	-0.268722
O	-0.1581196656	-2.6401479359	-0.0467669715	-0.236094
C	-1.2578269355	-1.8724442979	-0.2386344059	 0.103119
N	-1.2844702423	-0.605356761	-0.2355189146	-0.29106
H	 0.8982182739	 1.9901461117	 0.1707194072	 0.103144
H	-0.4614359456	 1.8729283115	-0.9702666949	 0.123851
H	-0.7721616238	 1.8621434824	 0.7687866249	 0.123848
H	 0.7792150169	-0.9679893655	-1.9209699774	 0.108893
H	 2.0485033927	-0.2200348148	-0.8929245139	 0.104563
H	 1.8447875101	-2.5297090929	 0.3120135241	 0.087782
H	 1.6134336386	-0.2351276648	 1.5405627836	 0.104565
H	 0.0681771801	-0.9926492653	 2.0560717819	 0.108892
H	-2.1460028265	-2.4777385048	-0.4011514201	 0.128874
