18
gdb 69279	2.5795	1.53048	1.15658	2.974	72.49	-0.2149	-0.0133	0.2017	1079.6876	0.14842	-439.080854	-439.072537	-439.071593	-439.113881	31.804	
O	 0.140577689	 1.3905297554	 0.0328335647	-0.466331
C	 0.0518363558	-0.0046245455	-0.0098118776	 0.41457
C	-0.4948819079	-0.6923395513	-1.2096358702	-0.367338
C	-1.3159011968	-0.6817857092	 0.0947133357	-0.194192
C	-1.4585656633	-1.9325717107	 0.8882584114	 0.390046
O	-2.5340504227	-2.3322031972	 1.2825682062	-0.333505
C	-0.1414628431	-2.6144545007	 1.2671195483	-0.28244
N	 0.8366070372	-1.6458644406	 1.7697529685	-0.282715
C	 1.2106398351	-0.6479440454	 0.7724598044	-0.23541
H	-0.3512728066	 1.763730563	-0.7054070092	 0.285034
H	-0.8989292516	-0.0921340889	-2.0198574384	 0.119318
H	-0.0485313276	-1.6264714623	-1.5347898704	 0.128107
H	-2.197412767	-0.0488597049	 0.0905488179	 0.104454
H	-0.3573050401	-3.3678540779	 2.0283305321	 0.1292
H	 0.2941872672	-3.1317093289	 0.4010929543	 0.118374
H	 0.4456767543	-1.179465298	 2.5830075659	 0.228166
H	 1.9087171681	-1.1140825994	 0.0655370445	 0.114004
H	 1.74700404	 0.1613723824	 1.2728866222	 0.130658
