18
gdb 46567	2.93822	1.72267	1.32471	3.9273	75.84	-0.2296	-0.0315	0.1981	982.7042	0.149236	-401.867751	-401.86079	-401.859846	-401.899117	28.306	
O	-0.1080337757	-0.0513100323	-0.2142779723	-0.298985
C	-0.0299341804	 1.1371689914	-0.065829876	 0.339467
C	-1.260579722	 2.1067473604	 0.0068567587	-0.308047
C	-0.7503190351	 3.555432376	 0.3096262421	-0.370768
C	 0.6573787222	 3.2438433978	 0.7889988938	 0.290938
C	 2.1397968957	 3.7008152064	 0.865363968	-0.25488
N	 2.2499610063	 2.1852334474	 1.1806141761	-0.16278
C	 1.0137529999	 2.431166521	 2.0636263799	-0.210859
C	 1.2001405152	 2.0447945616	 0.0326123449	-0.059659
H	-1.8225107473	 2.0352717782	-0.928973591	 0.136987
H	-1.9244150909	 1.7304671907	 0.7917095714	 0.141151
H	-0.7293450018	 4.1596896513	-0.6033253008	 0.112475
H	-1.377157725	 4.0748065299	 1.0393807798	 0.110482
H	 2.6347182217	 3.9908926124	-0.0652202866	 0.108193
H	 2.4534379785	 4.3282342876	 1.7036908677	 0.107448
H	 1.2337064785	 2.9887854695	 2.9777960807	 0.102727
H	 0.4578469816	 1.5169785673	 2.2900990237	 0.120873
H	 1.6437417484	 2.2010520133	-0.9583244402	 0.095236
