21
gdb 55794	4.13231	0.92962	0.86591	2.472	83.59	-0.2418	-0.0081	0.2337	1426.7078	0.181885	-387.06076	-387.051873	-387.050929	-387.09586	33.164	
C	-0.0376134309	 1.465378787	 0.1013059376	-0.473571
C	-0.239659841	-0.0407690495	 0.1120134008	 0.386525
O	-0.6063541252	-0.6269166799	 1.1048418735	-0.291023
C	 0.0468680908	-0.7682915594	-1.1990834111	-0.378814
C	-0.0448891706	-2.2805254056	-1.0737395981	 0.095032
C	-1.4179041171	-3.0250067353	-1.0263621908	-0.035111
C	-1.5565017967	-2.7869129951	-2.5597698659	-0.225699
C	-0.0747619912	-3.208241236	-2.3318364426	-0.07561
C	-0.6276465271	-4.3164888268	-1.3883424921	-0.218119
H	 1.0136280308	 1.7033141933	-0.0981275611	 0.138291
H	-0.6241901077	 1.9295140216	-0.699260847	 0.135343
H	-0.3289496795	 1.8856303388	 1.064607343	 0.141717
H	-0.6344819044	-0.3595562831	-1.955769824	 0.119911
H	 1.0507250938	-0.4729498563	-1.5376438277	 0.115912
H	 0.6486836396	-2.6173904126	-0.2965088455	 0.070987
H	-2.1892898174	-2.9157856019	-0.2645470869	 0.080112
H	-2.181283755	-3.5006826724	-3.1037852067	 0.089309
H	-1.7529270208	-1.7703333019	-2.9062462669	 0.084752
H	 0.7048712754	-3.3168005907	-3.0887286234	 0.063432
H	 0.0569102831	-4.703539619	-0.6284135819	 0.089882
H	-1.197049579	-5.1193799753	-1.8639020132	 0.086743
