21
gdb 103737	3.06181	1.0593	0.92676	4.277	80.61	-0.2396	-0.0107	0.2289	1352.6053	0.178801	-424.231567	-424.221039	-424.220095	-424.266835	38.581	
C	 0.127561906	 1.516017253	-0.1312129239	-0.399333
C	 0.0099818865	 0.0209801337	 0.192831854	-0.22263
C	-1.4167520404	-0.488382349	 0.080934074	 0.369125
O	-2.310775195	 0.1641087106	 0.9526583586	-0.467481
C	-1.9712671629	-0.963243994	-1.2254273815	-0.395663
C	-1.7011461485	-1.9771031061	-0.0976725614	 0.157544
C	-0.5863194836	-2.9940349792	-0.235556138	-0.466514
C	-2.9298713947	-2.505370076	 0.565912889	 0.134882
O	-3.0287751762	-3.6371447812	 0.9766636966	-0.276964
H	 1.1660959619	 1.8493347787	-0.0530250254	 0.122565
H	-0.2180193433	 1.7321863185	-1.1482663831	 0.117819
H	-0.4607577724	 2.1208159707	 0.5664191881	 0.117598
H	 0.659502422	-0.5479659708	-0.4778213573	 0.102237
H	 0.3649380251	-0.1623941418	 1.2138582937	 0.113438
H	-2.5007167903	 1.0336987603	 0.5846858766	 0.287378
H	-3.0088690563	-0.7320718529	-1.4453708076	 0.120054
H	-1.3202928909	-1.0178975228	-2.0917121624	 0.121792
H	 0.2116358065	-2.6439442512	-0.8933496455	 0.110652
H	-0.1501513884	-3.2351475202	 0.7384788926	 0.132665
H	-0.98771644	-3.9236633801	-0.6473004675	 0.137765
H	-3.7682397251	-1.7865536303	 0.6471986903	 0.08307
