14
gdb 125274	5.30642	1.27552	1.03497	5.7236	73.09	-0.2248	-0.0374	0.1873	1080.3468	0.101978	-432.860105	-432.852825	-432.85188	-432.891841	27.319	
C	-0.015979937	 1.4805891291	 0.0590193429	-0.502955
C	-0.0006615085	-0.0081262347	-0.043610525	 0.347736
C	-0.0491966331	-0.8076000004	-1.1803483864	-0.415454
C	-0.0055030289	-2.1384834556	-0.7010307619	 0.399679
C	 0.0662553984	-2.1035698607	 0.6755230366	 0.306368
N	 0.0699065306	-0.7964176784	 1.0923929045	-0.431195
N	 0.1089218966	-3.3642008099	 1.1549329157	-0.224522
N	 0.0701227203	-4.1828887797	 0.1927386862	-0.051627
O	-0.0079796271	-3.4083038683	-1.0833194883	-0.257291
H	 0.8898415566	 1.864043112	 0.5436105442	 0.141124
H	-0.074742222	 1.9224099725	-0.9373777202	 0.14926
H	-0.8760445011	 1.8394457489	 0.6368477131	 0.141112
H	-0.1074517287	-0.4495903149	-2.194841198	 0.121594
H	 0.1147554639	-0.4581179398	 2.0375073366	 0.276173
