16
gdb 46312	3.28719	1.32017	1.23066	4.9441	70.73	-0.2259	-0.0053	0.2206	1054.8708	0.125485	-437.90208	-437.894547	-437.893603	-437.934371	28.367	
O	-0.0686510581	 0.0667099085	-0.188357398	-0.319533
C	-0.052946964	 1.2348408988	 0.0144621771	 0.422421
O	-1.1126965434	 2.0424010219	 0.3663336211	-0.24455
C	-0.2684682963	 3.219709994	 0.5065807595	-0.130226
C	 0.9760110724	 2.4086749815	 0.016014342	 0.101784
N	 2.1538811869	 2.2654171248	 0.8390479197	-0.362363
C	 3.3306967511	 2.8272685771	 0.1651914669	-0.211867
C	 2.8405009316	 3.0290173024	-1.2406690437	-0.082132
C	 1.5359655007	 2.7893873172	-1.3276315883	-0.096518
H	-0.6145137863	 4.0327839583	-0.1353883306	 0.122236
H	-0.2223396294	 3.5466842194	 1.5495751596	 0.115354
H	 2.0347942287	 2.5555582084	 1.7980890298	 0.22766
H	 3.6749440267	 3.7783719792	 0.6052751761	 0.103834
H	 4.1821331218	 2.1333391248	 0.2109617205	 0.121488
H	 3.4902758131	 3.3318956351	-2.0518186763	 0.114074
H	 0.9171699844	 2.8545593288	-2.2133087155	 0.118339
