17
gdb 47611	2.35909	1.93909	1.17367	5.6884	67.65	-0.2486	-0.0001	0.2485	1023.3345	0.137768	-458.97589	-458.968441	-458.967497	-459.008847	27.812	
O	-0.0663216885	 0.2841745633	 0.8148203871	-0.316375
C	-0.0518221148	 1.2617224659	 0.1234118765	 0.40059
O	-1.2058648497	 1.7299945323	-0.4159080912	-0.227745
C	-1.2084279746	 2.9493822911	-1.1797107004	-0.067431
C	-0.3356970423	 4.0151767102	-0.5258419535	-0.253058
C	 1.1108493003	 3.5272620179	-0.5459287446	-0.069069
C	 1.9910105935	 3.7216653618	 0.7064938547	-0.0879
O	 2.0093063432	 2.3001703944	 0.9733152653	-0.272777
C	 1.2322692895	 2.022775712	-0.2062443894	-0.010642
H	-0.8713651983	 2.7388277696	-2.203818395	 0.114513
H	-2.257560319	 3.2491021995	-1.2264871116	 0.130066
H	-0.4515825684	 4.9685625444	-1.0508572652	 0.11413
H	-0.6841648393	 4.1630423869	 0.5031933007	 0.124246
H	 1.5986489461	 3.7995968069	-1.4841231857	 0.089507
H	 2.9984608217	 4.1118188565	 0.5209387685	 0.109426
H	 1.5326565892	 4.2857958166	 1.5281104392	 0.110051
H	 1.7963245814	 1.4181736107	-0.9295148355	 0.112466
