21
gdb 83988	2.7377	1.52449	1.23589	1.0656	84.15	-0.233	0.0162	0.2491	1109.7441	0.183923	-387.077233	-387.068922	-387.067978	-387.10974	32.756	
C	-0.1490829734	 1.5482075726	 0.1062998283	-0.400061
C	 0.0138413937	 0.0481233472	 0.0048297601	-0.06106
C	 1.3465492628	-0.5670434264	-0.3214347294	 0.083765
O	 2.396328133	 0.3363986395	-0.4701081968	-0.238247
C	 3.6689312568	-0.1101756665	-0.0295358679	-0.05493
C	 3.6732558938	-0.7779736781	 1.3635047005	-0.285421
C	 2.7616998379	-0.103481939	 2.3611107697	-0.053179
C	 1.4352113248	-0.1031952267	 2.2189267408	-0.051783
C	 0.7582217402	-0.7585169899	 1.06550109	-0.133734
H	 0.7500564832	 2.0155860605	 0.5103312428	 0.135838
H	-0.3378372898	 1.9844129578	-0.8804199782	 0.116131
H	-0.9949148562	 1.8059307133	 0.7529362208	 0.109114
H	-0.8394649099	-0.4661501176	-0.4300957221	 0.082044
H	 1.3819020498	-1.4225382231	-0.9981985248	 0.07644
H	 4.1067886091	-0.8078073597	-0.7610493368	 0.087753
H	 4.2882486005	 0.7922032566	-0.0199949101	 0.108806
H	 3.3730984657	-1.8265164913	 1.2548569256	 0.1168
H	 4.7079792976	-0.7916267362	 1.7212103629	 0.100476
H	 3.2139500459	 0.3891773536	 3.2179486531	 0.086809
H	 0.80759938	 0.371497821	 2.9708441412	 0.085656
H	 0.3281840046	-1.7368318975	 1.2794347001	 0.088783
