20
gdb 46392	3.48781	0.94176	0.81719	3.3741	80.23	-0.2447	0.0362	0.2809	1446.1756	0.17154	-403.159093	-403.150149	-403.149205	-403.193655	32.956	
O	 0.213175945	 0.0657271422	-0.2304579572	-0.366116
C	 0.1070754666	 1.2593008191	-0.1187865124	 0.429224
N	-0.9704426097	 2.1097678129	-0.1602353527	-0.320601
C	-0.216805739	 3.3281980941	 0.1481731137	-0.19058
C	 1.0697541693	 2.4456532371	 0.1604224182	-0.132501
C	 1.8717239728	 2.3526209852	 1.4584113782	-0.241698
C	 2.9427328548	 1.2830451518	 1.38906901	 0.039295
C	 4.3102314264	 1.6141618548	 0.8432639894	-0.257828
C	 4.1285556648	 1.332756001	 2.3155947602	-0.283067
H	-1.9597363639	 1.930286226	-0.2477315302	 0.249255
H	-0.2610528597	 4.0944972981	-0.6319739588	 0.111543
H	-0.4674452717	 3.7752239088	 1.11647024	 0.110923
H	 1.730909222	 2.641038317	-0.688720464	 0.103735
H	 2.3340838872	 3.3254627386	 1.6724009505	 0.093381
H	 1.1866070804	 2.143397549	 2.2915385326	 0.101132
H	 2.5587164255	 0.2977445991	 1.1434514577	 0.116854
H	 4.8179684444	 0.8746467788	 0.2342225577	 0.114194
H	 4.5063324862	 2.6406123594	 0.5481145533	 0.104125
H	 4.2017065341	 2.1705519092	 3.002115224	 0.105855
H	 4.5114128945	 0.4000161778	 2.7146275698	 0.112875
