17
gdb 93536	2.99738	1.31249	1.06741	3.7864	64.13	-0.2635	0.0076	0.2711	1117.3302	0.136177	-496.134009	-496.125546	-496.124602	-496.167258	31.701	
O	 0.1318396622	 1.3781604858	-0.1019944857	-0.437716
C	 0.024933396	-0.0260571971	-0.0158155243	 0.102832
C	 0.7361159919	-0.523493389	 1.2470478112	-0.084555
O	 0.599364925	-1.9328379455	 1.4928926309	-0.229504
C	-0.5379608715	-2.6054388634	 1.2016693402	 0.421915
O	-0.7281003629	-3.6860230677	 1.6877837561	-0.322616
C	-1.4773570176	-2.0062169581	 0.158952186	-0.368709
C	-1.430099303	-0.4876445754	 0.0170767994	 0.05761
O	-2.004833088	 0.1818089132	 1.1404929286	-0.446671
H	-0.5242770598	 1.7319241662	 0.5129686835	 0.293674
H	 0.5096800093	-0.4400285808	-0.9066419408	 0.098948
H	 1.8088584159	-0.3358891171	 1.1773149816	 0.130306
H	 0.3429084783	 0.0188658414	 2.1133864572	 0.126671
H	-1.1966511398	-2.4648167445	-0.7983831804	 0.144235
H	-2.4865040629	-2.361603066	 0.384167445	 0.131511
H	-1.9343684604	-0.1738392355	-0.9073428887	 0.084306
H	-2.9531604327	 0.0223362236	 1.1492490601	 0.297763
