14
gdb 11937	3.3475	1.85838	1.524	2.6465	66.23	-0.2241	0.0151	0.2392	852.0319	0.104586	-382.450458	-382.442873	-382.441929	-382.482062	28.585	
O	-0.077153673	 1.448437913	 0.0739946833	-0.443878
C	-0.0412021003	 0.0763883672	 0.0342903989	 0.256733
C	-0.294962082	-0.7532467499	-1.1945516356	-0.403339
C	-1.1790050046	-0.950419328	 0.0251194297	 0.254666
O	-0.4938329523	-1.7814580315	 0.9742051314	-0.316586
C	 0.5590742167	-0.7912252875	 1.1330984369	-0.137855
C	-2.5922128888	-0.8549867135	 0.0459096819	 0.243103
C	-3.7921205538	-0.7678181168	 0.0654535556	-0.427373
H	 0.4258296789	 1.7940477011	-0.6708629889	 0.296027
H	-0.7762011729	-0.2116120046	-2.0033063753	 0.131896
H	 0.3767297553	-1.5551740018	-1.4911056218	 0.122322
H	 1.5574876271	-1.2132220847	 0.9709490356	 0.105763
H	 0.5002640641	-0.316855661	 2.1187045963	 0.123327
H	-4.8510288846	-0.6922899419	 0.0869976519	 0.195193
