14
gdb 22878	2.34586	1.68367	1.02877	3.8729	70.04	-0.2365	-0.0737	0.1628	1083.0666	0.099788	-473.789881	-473.781635	-473.780691	-473.823029	29.974	
O	-0.038161893	 1.2867472488	 0.0376265363	-0.34287
N	 0.0038879255	-0.0882204206	 0.0353231549	-0.196692
C	-1.1456114668	-0.6435114035	 0.0327796216	 0.281104
C	-1.2511045099	-2.1570488086	 0.0448709554	-0.025169
O	-0.6256073879	-2.6891858881	 1.204665332	-0.415985
C	-2.7538172533	-2.3702126658	 0.0378172608	-0.092328
C	-3.4476257858	-1.227916581	 0.0072058828	-0.161396
C	-2.5358463169	-0.0529526651	-0.0061605981	 0.317095
O	-2.8500913682	 1.1130949187	-0.0519742226	-0.317413
H	 0.8972665144	 1.522253083	 0.0515424777	 0.316799
H	-0.7945447551	-2.5781086587	-0.8639291768	 0.100145
H	-0.5416567307	-3.6412236656	 1.0880649885	 0.289847
H	-3.1769885486	-3.3688303123	 0.0705215348	 0.118384
H	-4.5241347837	-1.1128966213	-0.0020480074	 0.128479
