17
gdb 47292	3.20145	1.33476	1.01534	1.7984	72.36	-0.2686	-0.0024	0.2662	1142.9853	0.137906	-455.154133	-455.146177	-455.145233	-455.187208	29.753	
N	-0.1269152931	 1.1641593352	-0.9635901198	-0.502362
C	-0.0606932601	 0.147952032	-0.2132708248	 0.391117
C	-1.2657576964	-0.7211945417	 0.0391631453	-0.308846
C	-1.6083275775	-0.8249269121	 1.528447084	-0.080123
O	-0.8450775382	-1.7740206164	 2.2844935014	-0.249872
C	 0.5152820085	-1.8035060219	 2.2676665264	 0.367947
N	 1.1805689158	-2.2334642653	 3.2558205897	-0.479011
C	 1.2614067409	-1.4796993732	 0.9866179668	-0.169756
O	 1.0784322159	-0.1568538661	 0.4763774555	-0.241097
H	 0.7799325132	 1.6355623491	-0.9965619603	 0.224772
H	-2.1020137565	-0.2579151982	-0.4873468415	 0.147332
H	-1.1356326458	-1.7270558063	-0.3764477419	 0.130528
H	-1.5284066768	 0.1611672467	 2.0028750469	 0.129558
H	-2.6375948363	-1.1715239619	 1.6419286163	 0.129918
H	 0.5487793712	-2.4728305198	 4.0239765258	 0.225221
H	 2.3217506904	-1.5624180209	 1.2172784776	 0.157293
H	 1.0127078649	-2.2225343291	 0.2185144724	 0.127381
