19
gdb 119308	2.12759	1.19933	0.895	2.4293	75.85	-0.2445	0.0238	0.2683	1338.0986	0.159501	-419.186925	-419.17745	-419.176506	-419.22166	34.038	
O	-0.2640974678	 1.4699393673	 0.2410131114	-0.417336
C	-0.012018765	 0.0812027492	 0.1017789421	-0.092385
C	-1.3661046735	-0.6028547587	-0.0554777398	-0.236289
C	-1.2921722463	-2.135840103	-0.140510445	 0.136053
C	-1.047462676	-2.8437572361	 1.23643188	-0.200568
N	-2.5085736465	-3.0161224704	 1.3723249301	-0.307613
C	-2.7023677312	-2.8121568387	-0.0787276117	-0.205695
C	-0.43810891	-2.5803530644	-1.2341421756	 0.241539
N	 0.2391897826	-2.9377292255	-2.1010146122	-0.354284
H	 0.5806997846	 1.9284776914	 0.264412238	 0.289915
H	 0.6162399769	-0.128842145	-0.7765757964	 0.112401
H	 0.5140950238	-0.3187986134	 0.9840141243	 0.089072
H	-2.0005690672	-0.3431583626	 0.7977512975	 0.134095
H	-1.8535248548	-0.2122379301	-0.9554495328	 0.121572
H	-0.4772842251	-3.7741841809	 1.1205591248	 0.113407
H	-0.584623574	-2.2339622821	 2.0189288271	 0.116988
H	-2.8075803231	-3.9168064434	 1.7273578164	 0.228193
H	-3.549684285	-2.1712107246	-0.3431989149	 0.11798
H	-2.7427298826	-3.7310066689	-0.6773185234	 0.112956
