14
gdb 21223	7.16644	1.32209	1.12732	2.19	60.86	-0.2135	0.0276	0.2411	1013.0074	0.10867	-412.04967	-412.042029	-412.041084	-412.081512	27.646	
C	 0.0002624786	 1.4097930221	-0.0666326924	-0.322779
N	-0.0494038464	-0.026733571	 0.1372199377	-0.378024
C	-1.2356365979	-0.6885042279	 0.0384441174	 0.458722
N	-2.4019514709	-0.0768387897	 0.0205464402	-0.246709
O	-3.3145718518	-1.1849967399	-0.0273773431	-0.219878
C	-2.557015542	-2.2798543938	-0.0515772755	 0.50897
N	-3.1886824093	-3.4788510418	-0.1611884872	-0.59477
N	-1.2717548625	-2.0656662273	-0.0121715418	-0.415932
H	 1.0121527729	 1.7623786978	 0.1435763424	 0.123461
H	-0.2806516552	 1.7087517449	-1.0860412649	 0.126037
H	-0.6902000587	 1.897182488	 0.6263140528	 0.156074
H	 0.7407595503	-0.5690697906	-0.1732965849	 0.253266
H	-4.1540293905	-3.5014057544	 0.1269403081	 0.274156
H	-2.6358667165	-4.2778060063	 0.1049782813	 0.277405
