21
gdb 61677	3.97995	0.74958	0.6642	1.1044	79.4	-0.2506	-0.0245	0.226	1666.3985	0.180596	-424.212428	-424.202444	-424.201499	-424.248941	34.857	
C	-0.1128416636	 1.5714290634	-0.0884687108	-0.410323
C	-0.0422375455	 0.0354780133	-0.0452645944	-0.06261
C	 0.7787931081	-0.5072434215	 1.1467520676	-0.228325
C	 2.2425909489	-0.0773533829	 1.1605797765	-0.024518
C	 2.6422063024	 1.287324526	 1.7748912327	-0.081384
O	 3.5789773514	 0.6619204771	 2.6714588861	-0.271252
C	 3.1389946725	-0.6538735728	 2.2811712551	-0.091939
C	-1.4476021816	-0.5286441414	 0.044281141	 0.156727
O	-1.9324095773	-1.3154084139	-0.7263353816	-0.246562
H	 0.8835459005	 2.0086866068	-0.1921987159	 0.134486
H	-0.7125425336	 1.9119754692	-0.9380860348	 0.130569
H	-0.564111195	 1.9744085827	 0.8252612055	 0.123301
H	 0.3897066534	-0.3434298495	-0.9783141056	 0.096094
H	 0.3033876161	-0.2071016842	 2.0912939095	 0.102228
H	 0.7407355513	-1.6042042041	 1.1183290047	 0.115747
H	 2.6867480876	-0.2256043233	 0.1717201666	 0.08559
H	 3.1293743456	 2.0104058635	 1.1098175683	 0.104394
H	 1.8340711442	 1.7960582195	 2.3193768491	 0.09632
H	 2.5862070083	-1.1571924023	 3.0875684823	 0.096719
H	 3.9725759373	-1.2938443415	 1.9698876906	 0.10597
H	-2.029398681	-0.1525212043	 0.9212107475	 0.068767
