16
gdb 110432	3.75519	1.27459	1.08465	3.9235	68.87	-0.2469	-0.002	0.2449	1105.9502	0.12365	-437.822508	-437.814875	-437.81393	-437.854982	28.446	
C	 0.1875166464	 1.3659318032	 0.0657486141	-0.247285
O	-0.1672041471	 0.0113604838	 0.2690139774	-0.252716
C	 0.6456980935	-0.6526642645	 1.1904135644	 0.145966
C	 0.1805715399	-2.1067898501	 1.2946164549	-0.074807
C	 1.1518447657	-2.5574389678	 0.2953068279	-0.028555
C	 1.9745658391	-1.2462333865	 0.5913934191	-0.267401
C	 2.473964223	-2.0409486513	 1.785727531	 0.438338
O	 3.4483164922	-2.0824983883	 2.4653787843	-0.311723
N	 1.3371708317	-2.9667517961	 1.7517596395	-0.210859
H	 1.1915126413	 1.4675054664	-0.3700890899	 0.113947
H	-0.5430279062	 1.7853658772	-0.6287031121	 0.137556
H	 0.1565705907	 1.9350580645	 1.0063927059	 0.11682
H	 0.7547857434	-0.0667949239	 2.116064228	 0.08418
H	-0.8097404615	-2.4731974735	 1.5310818106	 0.121638
H	 1.1572633938	-3.284944781	-0.501466363	 0.130047
H	 2.6237787941	-0.6701833021	-0.0612201022	 0.104853
