21
gdb 6769	5.64837	0.72257	0.70259	3.4518	77.23	-0.2396	0.039	0.2786	1704.46	0.187087	-366.31168	-366.301235	-366.300291	-366.349311	35.527	
C	-0.0960421105	 1.427905488	 0.4184969209	-0.380457
C	-0.0494731427	-0.01248558	-0.0980641671	-0.159579
C	-1.4198768125	-0.6975234738	-0.0898376634	-0.165043
C	-1.3625811348	-2.1380709806	-0.6118009016	-0.165191
N	-2.6577992824	-2.7968777362	-0.6219797053	-0.313138
C	-3.0002723286	-3.7686123621	 0.276131923	 0.405746
C	-4.4228355763	-4.2946493034	 0.1478228765	-0.480829
O	-2.2311566027	-4.1925918693	 1.1203415804	-0.374219
H	 0.895854291	 1.8899858214	 0.401708985	 0.113172
H	-0.7622303569	 2.0470808591	-0.1926764219	 0.112378
H	-0.4639298179	 1.4660861333	 1.4496673106	 0.117475
H	 0.3562713033	-0.0233440071	-1.1186213471	 0.094091
H	 0.6498255221	-0.5989031235	 0.5119174036	 0.104459
H	-1.8269998732	-0.7084829838	 0.9288148882	 0.109803
H	-2.1246945892	-0.1143299826	-0.6996803496	 0.083269
H	-0.9410582685	-2.1530912925	-1.6254783881	 0.09969
H	-0.7195479382	-2.7486297712	 0.0266380403	 0.148599
H	-3.358340996	-2.4644016572	-1.2635474295	 0.239501
H	-4.9724576639	-3.88447452	-0.703739668	 0.107242
H	-4.3862606355	-5.3830936613	 0.0588643398	 0.152195
H	-4.9683448164	-4.061183177	 1.0665286031	 0.150834
