18
gdb 18410	3.17464	2.1399	1.43637	1.5244	66.69	-0.2495	0.0769	0.3264	880.9306	0.155972	-384.920813	-384.913981	-384.913037	-384.951622	27.032	
C	-0.0156798628	 1.5331089807	 0.0604453409	-0.199524
C	 1.4320834949	 2.0391028623	-0.0052645329	-0.063458
O	 2.100735714	 1.845493216	-1.2403881351	-0.241218
C	 2.4409306845	 0.5003488646	-1.5281053081	-0.117366
C	 1.3000034321	-0.2506600385	-2.1968428927	 0.045853
O	 0.9784722797	-1.5550976372	-1.6953960762	-0.257836
C	 0.0465522789	-0.4914058085	-1.4717027189	 0.070037
C	-0.1572787643	 0.0046827628	-0.050431138	-0.246662
H	-0.4303337729	 1.8689250328	 1.0195350633	 0.098168
H	-0.6040856738	 2.0232195098	-0.7250160355	 0.106204
H	 1.4449111633	 3.1212933024	 0.1610309282	 0.107087
H	 2.0145238286	 1.571148707	 0.8073611564	 0.087334
H	 3.3077573645	 0.5406407581	-2.1956562807	 0.107948
H	 2.7401291107	-0.0391613231	-0.6179995697	 0.102801
H	 1.2543528651	-0.1693703546	-3.2831221083	 0.092901
H	-0.8611313869	-0.5745318803	-2.0714028781	 0.092092
H	 0.571925616	-0.4885326249	 0.6019726425	 0.113384
H	-1.1476635517	-0.3050889794	 0.300114363	 0.102256
