18
gdb 75941	2.20542	1.76836	1.02908	3.3448	74.25	-0.2446	0.0016	0.2462	1143.5161	0.148072	-439.123362	-439.114497	-439.113553	-439.157585	32.619	
C	 0.5412316447	 1.424237399	 0.0151968548	-0.464161
C	 0.1232544038	-0.0134530863	-0.096536105	 0.31275
C	-0.065865476	-0.6391297296	-1.2565500236	-0.187794
C	-0.5164716789	-2.0641210911	-1.3220405244	-0.120185
O	-0.1283873935	-2.8563569266	-0.188056844	-0.225005
C	 0.0886232067	-2.2929998405	 1.0151846487	 0.408313
O	 0.4668859133	-2.9750295996	 1.9309986069	-0.337144
C	-0.1727608766	-0.7813448639	 1.1794969958	-0.23309
N	 0.5051430431	-0.2257626769	 2.3460695177	-0.506962
H	 1.4992438493	 1.529815523	 0.5344004815	 0.134021
H	 0.6319030244	 1.8801349205	-0.9741490455	 0.11715
H	-0.1839693695	 1.9951036465	 0.6052819849	 0.140198
H	 0.0728105489	-0.1278693683	-2.204552285	 0.09854
H	-1.6099748416	-2.1335055572	-1.4258442293	 0.126546
H	-0.0823296649	-2.5766155992	-2.1859595694	 0.134162
H	-1.2554507112	-0.6909602217	 1.3712968688	 0.126056
H	 0.2676843671	-0.8088364403	 3.1445913421	 0.245039
H	 1.5086232008	-0.3550633977	 2.2326594249	 0.231566
