13
gdb 1773	4.95085	1.9336	1.76197	3.3204	56.15	-0.242	0.0117	0.2537	732.5348	0.10149	-340.618148	-340.610936	-340.609992	-340.648992	26.318	
N	 0.1169254894	 1.4196622398	 0.0362549364	-0.503627
C	 0.0354442028	-0.006966673	 0.0846286877	 0.003277
C	-0.5338649451	-0.697786216	 1.2823471296	-0.345156
C	-1.3186931527	-0.7309612885	-0.0274888911	 0.210979
O	-2.4114955522	 0.1292188051	-0.1557274703	-0.444862
C	-1.4087148023	-1.9675051536	-0.7621564953	 0.241205
N	-1.4760471442	-2.9628700062	-1.3497935501	-0.345727
H	 0.2022544532	 1.7284106257	-0.9281278011	 0.242872
H	-0.743368422	 1.8271213992	 0.3904213646	 0.243315
H	 0.8648027935	-0.5022060121	-0.4090343209	 0.125863
H	-0.071278654	-1.6129967882	 1.6328309846	 0.142601
H	-0.9732559256	-0.0762771806	 2.0565323899	 0.129341
H	-3.1583215907	-0.2511321117	 0.3209243759	 0.29992
