22
gdb 95226	3.09511	1.30769	1.03241	1.5683	87.36	-0.2354	0.0147	0.2501	1230.4255	0.196728	-367.199784	-367.191488	-367.190544	-367.232166	33.544	
C	 0.1521898983	 1.6749108201	-0.0182499066	-0.410221
C	-0.0301425344	 0.1540831794	 0.0504729559	-0.004143
C	 0.3843438273	-0.5093843877	-1.2919956382	-0.196364
C	 0.5687447754	-2.038390363	-1.2317258519	-0.211013
C	-0.4887457967	-2.7607592628	-0.4187479643	-0.022401
N	 0.0085331549	-3.8350816431	 0.465550677	-0.343762
C	-0.5218495218	-2.586302239	 1.0593028889	-0.076253
C	 0.4541968161	-1.6691393121	 1.7143684338	-0.075446
C	 0.6836869971	-0.4392487033	 1.2517395127	-0.038619
H	 1.2110677617	 1.936228502	-0.1315760991	 0.114369
H	-0.3876936623	 2.0997159943	-0.870834623	 0.109725
H	-0.2165600333	 2.1618380702	 0.8904723131	 0.112684
H	-1.1011079662	-0.0456641978	 0.1808032376	 0.084432
H	-0.3737189033	-0.2443674646	-2.0399224517	 0.092391
H	 1.3233661498	-0.0636351858	-1.6438487371	 0.094876
H	 0.6016555859	-2.4451765015	-2.249461023	 0.090362
H	 1.5334317282	-2.2714475707	-0.7745578875	 0.119424
H	-1.4461718023	-2.9246785996	-0.9112754719	 0.075099
H	-0.6899526601	-4.5697791956	 0.5485964717	 0.226529
H	-1.4949905206	-2.6630028267	 1.5461719944	 0.086899
H	 0.9865739955	-2.0431943221	 2.5858838739	 0.089958
H	 1.4182314307	 0.1906921296	 1.7508574054	 0.081474
