18
gdb 88709	3.39301	0.99242	0.83765	5.1411	77.9	-0.2703	0.0238	0.2942	1379.5292	0.146547	-401.932515	-401.9235	-401.922555	-401.967166	32.634	
C	-0.2569591015	 1.4725634484	-0.0643718212	-0.420366
C	-0.0715109097	-0.0130322979	 0.1103919319	 0.067822
O	 1.2383057718	-0.5517457722	-0.106797744	-0.259213
C	 0.6804267371	-0.6503457844	 1.2064675602	 0.046218
C	 1.3699576927	 0.1114121944	 2.2890243767	-0.037207
C	 0.8933429237	 0.0087978802	 3.7085913285	-0.297391
C	 2.222598544	-0.6202506029	 3.3267974642	-0.175539
C	 2.3366800952	-2.0515391144	 3.298117306	 0.293432
N	 2.4214022428	-3.2053721922	 3.279902339	-0.340904
H	 0.5452089706	 2.0457439135	 0.4046492047	 0.124752
H	-0.2726476857	 1.7253498862	-1.1294593537	 0.135588
H	-1.2119277611	 1.7894714587	 0.3684916209	 0.126004
H	-0.864222914	-0.6169785954	-0.3369148556	 0.094643
H	 0.3883094055	-1.6633572852	 1.4899663078	 0.112212
H	 1.7856038156	 1.0632474937	 1.9799557156	 0.112298
H	 0.9236634997	 0.8907811417	 4.337093256	 0.134743
H	 0.0762675042	-0.6720754616	 3.9194279394	 0.144044
H	 3.124023779	-0.1130116006	 3.6525176635	 0.138862
