19
gdb 119287	2.19587	1.22316	0.91845	3.4055	76.38	-0.2495	0.018	0.2674	1336.8931	0.158574	-419.18274	-419.17317	-419.172226	-419.218085	33.894	
C	-0.030524517	 1.5920313166	-0.0069337628	-0.392509
C	 0.0347485024	 0.0709339824	 0.081969043	-0.134591
N	-1.2980350968	-0.5087653152	-0.1114427926	-0.338965
C	-1.3761004866	-1.951567989	-0.0110910408	 0.103934
C	-1.2282685733	-2.618638355	 1.4045243599	-0.110808
O	-2.641335345	-2.8765916335	 1.4660653382	-0.2623
C	-2.8386527678	-2.4674933081	 0.1035670373	-0.1173
C	-0.5728105644	-2.580580636	-1.0619832116	 0.288443
N	 0.0609197639	-3.1056695963	-1.8731675404	-0.343187
H	 0.9676263436	 2.0254208874	 0.1003986455	 0.124976
H	-0.4462340012	 1.9039254387	-0.9688509981	 0.135596
H	-0.6602394669	 2.0094094852	 0.7874834872	 0.114822
H	 0.6850744336	-0.3210631162	-0.7078288762	 0.1367
H	 0.490297407	-0.2268850959	 1.0429821885	 0.087915
H	-1.9503378975	-0.1040958934	 0.5542197334	 0.227991
H	-0.6357723867	-3.5404367019	 1.4274306012	 0.120735
H	-0.8907339789	-1.94029972	 2.1963048527	 0.112632
H	-3.5953673877	-1.6819206537	-0.0026268334	 0.118593
H	-3.0833033907	-3.306496566	-0.5568179212	 0.127322
