19
gdb 73394	2.72222	2.06289	1.54671	1.013	79.25	-0.2207	0.0111	0.2318	919.2844	0.160955	-385.868817	-385.861905	-385.860961	-385.899485	29.379	
C	 0.0384757121	 1.5383386344	-0.1128768394	-0.49089
C	 0.0201500145	 0.0437162061	 0.0394740479	 0.47937
O	 0.4110641445	-0.5860410424	-1.1652113998	-0.314999
C	 0.3342162752	-1.9878657168	-0.8322822718	-0.106107
C	-0.1211288657	-1.9092453203	 0.612185735	-0.061729
C	 0.7464449604	-0.7445799659	 1.2202935935	-0.132066
C	-0.0274208994	-0.3210048761	 2.4489128287	-0.109184
C	-1.3051285578	-0.3463016577	 2.0475197468	-0.109188
C	-1.2218523656	-0.7835355398	 0.6019505276	-0.132073
H	 1.0434392108	 1.8794736656	-0.3797635978	 0.125939
H	-0.6442497011	 1.8460047739	-0.9108597804	 0.125946
H	-0.2642917176	 2.0203141414	 0.8189315477	 0.12677
H	-0.3827709981	-2.4885324149	-1.4939900916	 0.103688
H	 1.3182333597	-2.4548720431	-0.9596046002	 0.103687
H	-0.2767064457	-2.8359497863	 1.1657936877	 0.07089
H	 1.834941448	-0.8104514129	 1.2533619536	 0.060019
H	 0.3940972933	-0.0269000846	 3.3995243109	 0.099954
H	-2.2046675846	-0.0783467856	 2.583119535	 0.099953
H	-2.1306227429	-0.8889390351	 0.0075746667	 0.06002
