14
gdb 129717	2.38088	1.90302	1.05835	3.5461	70.48	-0.1999	-0.0318	0.1681	1032.5822	0.103052	-470.050877	-470.043135	-470.042191	-470.082745	29.777	
N	-0.0133164817	 1.3921683446	 0.1300863239	-0.583329
C	-0.0576961005	 0.030307562	 0.0494281993	 0.162416
C	-1.2030940487	-0.7254857803	 0.03149027	 0.260614
O	-2.4045706143	-0.0727350477	 0.0457162795	-0.453841
C	-1.1023613676	-2.1406223471	-0.0006663122	-0.080196
N	 0.0261508025	-2.7963036846	-0.023147466	-0.224189
N	 1.1321943357	-2.0308390408	-0.0187619683	-0.278184
C	 1.2293870974	-0.6505429231	 0.0056937546	 0.391051
O	 2.3088290151	-0.0673882336	-0.0167355091	-0.419243
H	 0.8914894613	 1.7834585079	-0.0914831367	 0.27256
H	-0.8276257397	 1.9087476144	-0.1581093707	 0.266103
H	-3.122073681	-0.7130901304	 0.0077999339	 0.303171
H	-2.0006322858	-2.7532032222	-0.0063803604	 0.109938
H	 2.0054851772	-2.5388312289	-0.0491378578	 0.273128
