19
gdb 53334	4.50185	0.89813	0.8762	1.4425	84.44	-0.2318	0.0564	0.2882	1420.1855	0.159743	-385.846053	-385.837532	-385.836588	-385.881531	31.408	
C	 0.0124004485	 1.4828768137	-0.0480760925	-0.499528
C	 0.0052121758	 0.0271976929	-0.0158385719	 0.10239
C	-0.0025749151	-1.1768823559	 0.0145168604	 0.044902
C	-0.0201728049	-2.6290618455	 0.0440683551	-0.176468
C	 0.4678920596	-3.2758964562	 1.39635279	-0.238993
C	-0.823266924	-4.0528379846	 1.7216747177	 0.088554
C	-1.2017339209	-4.7312893726	 0.3865105026	-0.239163
C	-1.4551797934	-3.2428763682	 0.067773993	 0.079852
O	-1.8563132787	-3.0521289559	 1.4544695606	-0.290981
H	 1.0349177589	 1.8769433922	-0.0604402137	 0.14478
H	-0.4988050878	 1.8653403989	-0.9387488947	 0.145079
H	-0.4931566617	 1.9027221954	 0.8286831926	 0.148467
H	 0.5456144581	-3.022601384	-0.8080163566	 0.096246
H	 1.3425375439	-3.918881538	 1.2700556996	 0.10017
H	 0.6837435999	-2.5196198939	 2.151619714	 0.122284
H	-0.9143521007	-4.538695446	 2.692856021	 0.080287
H	-0.441027552	-5.2818605713	-0.1738843372	 0.093037
H	-2.132371788	-5.2936720761	 0.4625907714	 0.112366
H	-2.1757468776	-2.8837808348	-0.6656525713	 0.086719
