15
gdb 26617	2.38607	1.87809	1.05211	3.8018	76.64	-0.1755	-0.0195	0.1561	1057.8431	0.113606	-453.978712	-453.970713	-453.969769	-454.010798	31.144	
N	-0.016144172	 1.3955696058	 0.1518689432	-0.588409
C	-0.0439326086	 0.016246975	 0.0533444491	 0.151663
C	-1.1887066203	-0.7238694538	 0.0252628055	 0.297967
O	-2.3831864334	-0.0570857621	 0.0353400073	-0.449304
C	-1.1184803206	-2.154842281	-0.0099578321	-0.285916
C	 0.0871136628	-2.7471085564	-0.0220673206	 0.04917
O	 1.2410212185	-2.0382437555	-0.0127747317	-0.235502
C	 1.2446614211	-0.6545675578	 0.0061993691	 0.351267
N	 2.337140941	 0.0032310703	-0.0237337739	-0.568201
H	 0.8731436075	 1.7832035806	-0.1344956399	 0.267129
H	-0.8280810883	 1.8671816354	-0.2169736834	 0.25384
H	-3.1048458379	-0.6903469981	-0.0171688545	 0.300216
H	-2.0175417974	-2.7600929297	-0.0203312194	 0.101682
H	 0.2676476606	-3.8127002506	-0.0404972035	 0.13518
H	 3.1422946371	-0.6186939423	-0.0666856452	 0.21922
