20
gdb 37377	2.82847	2.01883	1.83247	1.4199	80.15	-0.2139	0.0886	0.3025	875.3044	0.176271	-365.99505	-365.988973	-365.988028	-366.024935	27.329	
C	 0.0430866404	 1.4803872678	-0.1439669029	-0.267514
C	 1.2913620355	 0.6803722692	 0.0060892665	-0.022277
C	 2.0451123032	 0.6302963787	 1.3049065622	-0.042937
C	 1.3020899509	 0.5982460717	 2.6259832152	-0.066126
C	-0.2049872616	 0.3997554341	 2.5367640629	-0.241934
C	-0.3285583366	-0.5723605739	 1.3457981871	-0.00273
C	 0.8134607402	-1.5791917882	 1.6229966907	-0.211003
C	 1.9464825702	-0.6660791437	 2.0890560118	-0.062025
N	-0.0227069144	 0.0250549548	 0.0232352135	-0.096823
H	-0.2336166616	 2.1400437568	 0.6717863459	 0.112802
H	-0.265986007	 1.8282891539	-1.126118877	 0.109906
H	 1.8918866873	 0.4775889743	-0.8806226975	 0.083399
H	 3.0093086814	 1.129514786	 1.3117276489	 0.080832
H	 1.7265291151	 1.1312669042	 3.4693805594	 0.078908
H	-0.5719771093	-0.0882592326	 3.4483330844	 0.095775
H	-0.7860773361	 1.3170543556	 2.4126209121	 0.09899
H	-1.3134136007	-1.041217953	 1.2825883438	 0.072677
H	 0.5322645873	-2.2759325703	 2.4202794967	 0.09484
H	 1.0535976984	-2.1601128618	 0.7275151953	 0.1067
H	 2.8343130674	-1.0924429435	 2.5408900911	 0.078541
