20
gdb 107008	3.11447	1.18388	1.01246	2.8062	74.75	-0.2351	0.054	0.2891	1237.9923	0.170778	-440.237025	-440.227805	-440.226861	-440.270788	34.942	
C	-0.1244658239	 1.5945861271	-0.0971475544	-0.405027
C	-0.0301102338	 0.0935286373	 0.1266063508	-0.016293
C	 0.5225976863	-0.7904144923	-0.9978178264	-0.131537
N	 1.9508580972	-0.4065310196	-1.177446475	-0.391191
C	 1.5736750561	-1.3687708086	-0.1157946041	 0.311242
C	 2.1836699693	-2.7405827255	-0.0747209266	-0.225093
O	 2.2648875985	-3.327238727	-1.3687565734	-0.409703
C	 1.1385564774	-0.4630695334	 1.0509886013	 0.056001
O	 2.10443802	 0.4357749526	 1.5179489361	-0.433188
H	 0.7940221712	 1.9824340489	-0.5443496284	 0.127062
H	-0.9550241281	 1.837372549	-0.7687435972	 0.108268
H	-0.2893031953	 2.1189306537	 0.8491199971	 0.1225
H	-0.9855096551	-0.3051221678	 0.4840740315	 0.069632
H	-0.020271131	-1.2474032073	-1.8179333401	 0.083929
H	 2.3188590332	-0.9735620152	-1.9419211143	 0.239072
H	 3.2150776431	-2.6828514954	 0.2921395271	 0.128974
H	 1.6256247711	-3.3801856707	 0.625453511	 0.101099
H	 1.3696638294	-3.5522158136	-1.6427086733	 0.289201
H	 0.7562194957	-1.0082660459	 1.9177327633	 0.082922
H	 2.5573146689	 0.7550823435	 0.7246299849	 0.29213
