21
gdb 77239	2.88924	1.08749	1.0116	2.8603	79.91	-0.2407	-0.0369	0.2039	1301.5257	0.179522	-424.228019	-424.217891	-424.216947	-424.262862	37.323	
C	 0.051643844	 1.557854315	-0.0291260719	-0.456116
C	 0.0245452218	 0.0421565052	-0.0010417341	 0.274655
C	-1.1239020845	-0.5751374878	-0.77736249	-0.451787
C	 1.3378743187	-0.6993026613	 0.0046302591	 0.070071
O	 2.5160610236	 0.0421227924	 0.0040322584	-0.434567
C	 0.4770767498	-0.7101832491	 1.2522961752	-0.099597
C	 0.9199883036	-0.0082563652	 2.5223760824	-0.330657
C	 2.1788431853	-0.5587796115	 3.161650584	 0.162381
O	 3.110067356	-1.0450774718	 2.562805322	-0.249723
H	 0.996159084	 1.9544664291	 0.346396512	 0.135408
H	-0.0546144156	 1.9125618918	-1.0604891542	 0.117662
H	-0.7741085894	 1.9852610024	 0.5520190497	 0.106157
H	-1.0972541189	-0.2640435605	-1.8282083477	 0.117938
H	-1.085704623	-1.6688561735	-0.7526326132	 0.111906
H	-2.0916034393	-0.2675298876	-0.3631371057	 0.112973
H	 1.38369607	-1.6277632987	-0.5673249305	 0.07658
H	 3.0758905546	-0.3554817181	 0.6886583276	 0.297886
H	-0.0485142045	-1.6425333841	 1.4450749479	 0.082466
H	 1.1348381235	 1.0540642706	 2.3412478869	 0.146825
H	 0.1212342631	-0.017191502	 3.2737102718	 0.115758
H	 2.2280109872	-0.4590759856	 4.2683173903	 0.093782
