15
gdb 98508	2.41225	1.35665	0.93747	3.0625	67.72	-0.288	-0.0629	0.2251	1193.8684	0.111168	-453.937293	-453.928428	-453.927484	-453.971378	31.41	
O	-0.0475285392	 1.414457994	 0.4019762146	-0.414914
C	-0.2631464091	 0.0724151738	 0.7107810615	-0.153532
C	-1.2274229803	-0.5753229433	-0.2590574277	 0.307089
O	-1.6685121485	 0.0481441877	-1.2032947781	-0.343326
C	-1.6434514357	-2.0094562129	-0.0488299986	 0.077721
C	-3.1264741764	-2.2716173521	-0.2075731645	-0.236444
N	-2.1989124153	-2.7140751367	-1.224015185	-0.31544
C	-0.8715626555	-2.803897443	 0.8764493444	 0.2492
N	-0.2486678825	-3.405450249	 1.6420261571	-0.331685
H	-0.5357370477	 1.5848165298	-0.4172930869	 0.299387
H	 0.6740503456	-0.5098403948	 0.6901456486	 0.146503
H	-0.6629462579	-0.0457609763	 1.7312100519	 0.139664
H	-3.5665382198	-3.0552635006	 0.4008278966	 0.158537
H	-3.7419247174	-1.3963361426	-0.3942238259	 0.152534
H	-2.1911200603	-2.0389452942	-1.9906749979	 0.264708
