20
gdb 88768	3.74391	1.06097	0.92722	1.5681	79.59	-0.2221	0.0836	0.3057	1297.807	0.17161	-403.07617	-403.067815	-403.066871	-403.109576	32.528	
O	-0.0092918919	 1.4369856645	 0.1665910843	-0.41998
C	 0.0012580631	 0.037008286	 0.1075940183	 0.092216
C	-0.5715847985	-0.7552270543	 1.2562765747	-0.347144
C	-1.3262429025	-0.6423509287	-0.0583493464	-0.018414
C	-2.5951050548	 0.1621201136	-0.1391955703	 0.020723
C	-3.1155036483	 0.6143614697	-1.5597064954	-0.246238
C	-4.4178290115	-0.1391297153	-1.2776597358	-0.039247
N	-4.0306779873	-1.5576345566	-1.069273631	-0.335038
C	-3.92478218	-0.5888414161	 0.0512290811	-0.073096
H	 0.6511892941	 1.7096871886	 0.8116177193	 0.28633
H	 0.8531683074	-0.3851471139	-0.4257936142	 0.082392
H	-0.1166356099	-1.7021884058	 1.5263876834	 0.107883
H	-0.9553348284	-0.1793715569	 2.0930863774	 0.10688
H	-1.3332466743	-1.5281516468	-0.685359367	 0.102661
H	-2.5378250191	 1.0289900464	 0.5216544997	 0.078788
H	-3.2348771244	 1.6971753768	-1.6293815698	 0.103158
H	-2.5496393813	 0.2510310346	-2.4211869749	 0.102965
H	-5.4206595541	 0.1155321812	-1.5980967091	 0.087733
H	-4.8916142084	-2.0840562141	-0.9217639894	 0.224123
H	-4.4598340099	-0.7619481027	 0.977747115	 0.083304
