23
gdb 15262	3.34462	1.23242	1.07169	1.2954	82.72	-0.2101	0.0766	0.2867	1255.6016	0.210331	-330.306016	-330.295938	-330.294994	-330.340999	36.482	
C	-0.6842284523	 1.3338194947	 0.1939528964	-0.380871
C	 0.4866241901	 0.4280961409	-0.2082916078	-0.199124
C	 0.9778072065	-0.4040472839	 0.9620108203	-0.001303
C	 0.4834602931	-1.786394613	 1.2636226686	 0.00027
C	-0.5598708463	-2.5001277053	 0.4287359741	-0.418585
N	 1.8671472047	-1.5591874344	 0.828337982	-0.115442
C	 2.3305400029	-2.0032112989	-0.4822273176	-0.110022
C	 2.9829626617	-3.3804646399	-0.3671344337	-0.374334
H	-0.4073486197	 1.9872471971	 1.0284869957	 0.117695
H	-0.9965063181	 1.9711906239	-0.6388697713	 0.11199
H	-1.5503969766	 0.743617721	 0.5106135029	 0.119246
H	 0.188946735	-0.2013732041	-1.0510585575	 0.097009
H	 1.3167202147	 1.0485593641	-0.5715294078	 0.101038
H	 1.2365742058	 0.2187531158	 1.8213200333	 0.078327
H	 0.4268461466	-2.064847038	 2.3166907696	 0.082147
H	-0.5769201777	-2.1866583379	-0.6164870356	 0.121337
H	-0.3983391277	-3.5838332785	 0.4480684897	 0.12283
H	-1.5556270648	-2.3121795972	 0.8449400585	 0.121075
H	 1.5459803901	-2.036654508	-1.2532490332	 0.079731
H	 3.0727840329	-1.2729284928	-0.8271110224	 0.099943
H	 3.393129314	-3.6977165502	-1.3313252154	 0.106284
H	 3.7909202899	-3.3592562898	 0.3694258118	 0.125056
H	 2.2556198451	-4.1328698157	-0.0452473406	 0.115701
