17
gdb 78179	2.34591	1.71745	1.35021	4.0902	67.9	-0.2596	-0.0016	0.258	1004.0609	0.136212	-458.992278	-458.984357	-458.983413	-459.024509	30.614	
C	 0.035148645	 1.5666623609	-0.0676645381	-0.41167
C	 0.0464597826	 0.0498149832	 0.0446788643	 0.097981
O	 0.7288104388	-0.5287348494	-1.0990445216	-0.262225
C	 1.3726033005	-1.697894373	-0.748042534	 0.429115
O	 1.7267435967	-2.4947930741	-1.5645333113	-0.331634
C	 1.5620610627	-1.7143643244	 0.7315582279	-0.260395
C	 2.2505062619	-0.4630753971	 1.2641700603	 0.128923
O	 3.0173525107	 0.3979836704	 0.4848957241	-0.41981
C	 0.7573749665	-0.527570019	 1.2611469812	-0.135908
H	 1.0429445197	 1.9787674149	 0.0136084036	 0.141576
H	-0.4065137162	 1.8749505999	-1.0189239836	 0.136364
H	-0.5705513198	 1.9852606669	 0.7421498392	 0.126871
H	-0.9845048643	-0.3261429659	 0.016160185	 0.102988
H	 1.6839227347	-2.6712653589	 1.2202277256	 0.122161
H	 2.7296412993	-0.5963846709	 2.2280092337	 0.126069
H	 2.6712349931	 0.4097927163	-0.4157471047	 0.30249
H	 0.2096629783	-0.5742017697	 2.1951350982	 0.107106
