19
gdb 1539	5.08349	1.28041	1.08099	0.7621	73.74	-0.2569	0.0586	0.3155	1124.1845	0.169345	-273.762417	-273.753418	-273.752474	-273.795788	32.351	
C	-0.0780344438	 1.6004976437	 0.0528701209	-0.383392
C	 0.0192286314	 0.0732046001	-0.0124217467	-0.175918
C	 0.7768741902	-0.5164308745	 1.1822953626	-0.155079
C	 0.8176485297	-2.0643524846	 1.2162246428	-0.158802
C	 1.5955359474	-2.6741324195	 0.0318218199	-0.385129
C	 1.3778614441	-2.5273022118	 2.4858157344	 0.31849
C	 1.8582571249	-2.8936388795	 3.5255768328	-0.46577
H	 0.9166397333	 2.0598046064	 0.0614393266	 0.115889
H	-0.6227115078	 2.0024145214	-0.807065128	 0.112077
H	-0.598786743	 1.9257518913	 0.9602426983	 0.115826
H	-0.9908541257	-0.3569871918	-0.0486369809	 0.094817
H	 0.5080799015	-0.215912861	-0.9500987836	 0.1007
H	 1.8069880769	-0.1373134578	 1.1963498904	 0.102065
H	 0.310662615	-0.1664434327	 2.1108501106	 0.104666
H	-0.2203235102	-2.4238398316	 1.1586900912	 0.102348
H	 2.6281233586	-2.311191851	 0.0238311415	 0.123863
H	 1.6217297525	-3.7640657743	 0.1088288818	 0.12542
H	 1.1287550959	-2.4111423658	-0.9210488117	 0.116964
H	 2.2718641891	-3.2234540071	 4.4460221972	 0.190965
