20
gdb 106073	2.7063	1.60144	1.39269	0.7314	85.13	-0.2074	-0.0424	0.1649	1049.5072	0.170917	-365.894462	-365.886459	-365.885515	-365.926897	31.695	
C	 0.1844698605	 1.4939046202	 0.4346883038	-0.382771
C	-0.0010568965	 0.0063349136	 0.1059290884	-0.315584
C	 0.6116281862	-0.3799205279	-1.2068163638	 0.336776
C	 0.9943142868	-1.675325733	-1.8067995261	-0.116595
C	-0.0086683421	-1.4796759333	-3.019872545	-0.275174
C	 0.1666579395	 0.000339861	-2.6494754431	-0.016546
C	 1.1835167462	 0.6192064966	-3.2804966301	-0.112233
C	 2.4318410348	 0.4336623143	-2.4248166207	-0.185833
N	 2.0279061391	-0.604001767	-1.4341907726	-0.160683
H	 1.246612664	 1.7431396458	 0.5233110669	 0.124698
H	-0.2460497194	 2.1255095439	-0.3490419737	 0.124077
H	-0.3011015885	 1.7506304085	 1.38091258	 0.111978
H	 0.4496679631	-0.6113093252	 0.8910600205	 0.108838
H	-1.071190416	-0.2368610712	 0.0842240034	 0.101125
H	 1.1584766955	-2.6231657885	-1.3032434274	 0.10521
H	 0.2873994171	-1.7733979061	-4.0299458561	 0.105774
H	-0.9563188309	-1.9593468106	-2.7485346727	 0.110658
H	 1.2658844013	 0.656969612	-4.3635648714	 0.100916
H	 3.2462399657	 0.084798494	-3.0711769489	 0.117415
H	 2.8088278036	 1.294350533	-1.8572333814	 0.117953
