23
gdb 78806	2.26532	1.63866	1.39867	0.207	88.81	-0.2399	0.0886	0.3285	1111.9188	0.205332	-351.119602	-351.110659	-351.109715	-351.152282	35.904	
C	 0.0313481448	 1.602511677	 0.0865296752	-0.427812
C	 0.1081233302	 0.080308467	 0.0381833177	-0.007829
C	 1.1409526525	-0.6376923668	-0.8282721644	-0.095848
C	 2.4117203822	-0.8222666578	 0.0126250585	-0.057855
C	 1.2522394283	-1.7792914471	 0.1504249435	-0.140793
C	 0.6926593614	-0.7538563975	 1.2316029146	 0.31303
C	-0.1720288896	-1.0761243569	 2.4228254537	-0.514841
C	 2.1584693099	-0.2261360208	 1.3981225259	-0.030326
C	 2.9544277687	-0.9149119576	 2.502063541	-0.411327
H	 1.012507736	 2.0638067487	 0.2274701861	 0.119258
H	-0.3816970525	 1.9941527855	-0.8499458046	 0.111382
H	-0.622639227	 1.9418141827	 0.8984443575	 0.11032
H	-0.8846403659	-0.3268085388	-0.1926518342	 0.062566
H	 1.181583412	-0.6929672035	-1.9096155183	 0.076751
H	 3.3688018367	-1.0127715545	-0.4584608474	 0.076407
H	 1.1675371836	-2.8485967498	 0.0208550489	 0.082436
H	 0.3325656044	-1.748290717	 3.1245107717	 0.118116
H	-0.437172641	-0.164159443	 2.9720586553	 0.116378
H	-1.1059180625	-1.5581313851	 2.1129974714	 0.114533
H	 2.2617112813	 0.861225324	 1.5031907693	 0.052686
H	 2.8683290231	-2.0050173445	 2.4336743237	 0.113679
H	 4.0179003042	-0.6613068952	 2.4307977028	 0.108877
H	 2.6085831793	-0.6078161091	 3.4950018722	 0.110212
