20
gdb 37924	2.81932	2.06855	1.93181	1.8941	78.91	-0.2175	0.0744	0.2919	858.1486	0.176189	-365.969237	-365.963241	-365.962297	-365.999201	26.479	
C	-0.0363002641	 1.5437327539	 0.0173971953	-0.247753
C	 1.4998354108	 1.5018207689	-0.0417968157	-0.002239
C	 2.1978795538	 1.0265544263	 1.2733685297	-0.02307
C	 1.4354911566	 1.2076039441	 2.5961156254	-0.235634
C	 0.335860123	 0.0962740568	 2.6049277689	-0.235634
C	 0.5144931461	-0.6747335845	 1.2868566629	-0.02307
C	 0.0214366072	 0.0076999094	-0.029951283	-0.002239
N	 1.4515022377	 0.0667853954	-0.5881429598	-0.169762
C	 1.9464845088	-0.4122108294	 0.7712317302	-0.007335
H	-0.5284397589	 2.037368987	 0.8595097965	 0.09876
H	-0.4469048103	 1.9426318472	-0.9141661171	 0.109843
H	 2.0227795627	 2.260345273	-0.627856787	 0.068295
H	 3.2418550511	 1.3410274084	 1.3225340963	 0.068815
H	 2.1133763001	 1.0824003445	 3.4465828686	 0.098676
H	 1.0102688501	 2.2131002637	 2.6822483915	 0.101457
H	 0.4749966478	-0.5734200145	 3.4597084207	 0.098677
H	-0.6733780126	 0.5115397456	 2.6957489224	 0.101457
H	 0.2115130068	-1.7215398815	 1.3468151852	 0.068815
H	-0.7361188783	-0.5278940367	-0.6057508014	 0.068295
H	 2.7218910418	-1.1790446276	 0.8234421306	 0.063646
