18
gdb 89945	2.91629	1.31323	1.07348	4.0503	76.22	-0.2765	0.018	0.2944	1140.7226	0.148355	-401.93702	-401.928794	-401.927849	-401.969908	31.514	
O	 0.5557884141	 0.7028224062	-0.849628433	-0.425611
C	-0.0103796111	-0.2871901239	-0.0382263962	 0.15779
C	 0.0758646629	-0.1698839842	 1.5125270217	-0.342499
C	-1.4202487231	-0.6208691704	 1.6214702431	 0.213451
C	-2.4176357246	 0.5541796179	 1.8200297591	-0.274847
C	-2.3586805834	 0.8548474825	 0.2947946632	-0.247324
C	-1.5486143289	-0.4479094243	 0.047015689	-0.101434
C	-1.675809217	-1.8651726496	 2.3038658177	 0.187744
N	-1.889940767	-2.8652788521	 2.8456083295	-0.346397
H	 0.2235630603	 1.5619176458	-0.5684264618	 0.282852
H	 0.4368792344	-1.2280017061	-0.3712355454	 0.110093
H	 0.80618364	-0.8165783818	 1.9998411726	 0.133234
H	 0.2224146688	 0.8540653735	 1.8702349261	 0.104948
H	-3.4023243901	 0.2035916712	 2.1348403206	 0.129849
H	-2.0879727196	 1.3376464458	 2.5071525254	 0.112111
H	-3.3302564144	 0.8819448393	-0.1998462508	 0.124063
H	-1.8314865004	 1.7755318389	 0.0251011413	 0.09146
H	-2.0196109511	-1.1953928486	-0.5902217221	 0.090518
