11
gdb 130815	8.47185	0.67619	0.62621	3.8978	72.86	-0.2835	-0.1006	0.1829	1603.9641	0.065394	-451.510215	-451.502644	-451.5017	-451.544117	24.99	
O	-0.1001389684	-0.0124768903	 0.0014451427	-0.212856
C	-0.0088140594	 1.1918963776	 0.0070111443	 0.005543
C	 1.2462677611	 1.9071131068	-0.0007851161	 0.235765
C	 2.2763870306	 2.5366265487	-0.0070453206	-0.006244
C	 3.4831081751	 3.2741591056	-0.0143378202	 0.184936
N	 4.6611346639	 2.6837279076	-0.032189828	-0.15379
O	 5.5498226788	 3.747153105	-0.0333439414	-0.135255
C	 4.8124751844	 4.863667138	-0.0160510835	 0.075865
N	 3.5372914258	 4.657901133	-0.0036497351	-0.28872
H	-0.9005579953	 1.8488619377	 0.0191587942	 0.115191
H	 5.3428290035	 5.8044516703	-0.0142143062	 0.179564
