19
gdb 41782	2.95269	1.61738	1.1722	2.2729	76.25	-0.2402	0.0108	0.251	1063.2757	0.161088	-423.000939	-422.993436	-422.992492	-423.032958	29.497	
C	 0.2097647785	 1.6005555472	 0.2494615079	-0.097425
O	 1.4134277192	 1.5130830719	-0.5411632646	-0.297123
C	 1.2330695654	 0.0927440412	-0.758706336	 0.063838
C	 2.3884049065	-0.7294948371	-0.2739263767	-0.064825
C	 2.2392784577	-1.9668289635	 0.1944779919	-0.053936
C	 0.879673646	-2.6217617234	 0.2852039621	-0.294599
C	-0.0312639931	-1.9545489484	 1.3397729851	-0.062913
O	 0.0596976977	-0.5394229428	 1.376979644	-0.236601
C	-0.0507922692	 0.0930105095	 0.1325052554	 0.056009
H	 0.4054571468	 1.9291641674	 1.2759659868	 0.116409
H	-0.540932543	 2.2516079874	-0.2139356726	 0.100201
H	 1.0255445227	-0.1018501187	-1.8233039078	 0.080669
H	 3.3624934447	-0.2507635266	-0.3272854423	 0.103439
H	 3.1049543782	-2.5266234834	 0.5366992967	 0.093333
H	 0.3842171108	-2.5831967517	-0.6932812358	 0.114366
H	 0.9648992528	-3.6836561953	 0.5363119211	 0.105668
H	-1.073791626	-2.2669457277	 1.1651549742	 0.089342
H	 0.2523188639	-2.2775381716	 2.3457203054	 0.114006
H	-0.9726048997	-0.2007797444	-0.3885350448	 0.070141
