19
gdb 122036	2.66528	0.80365	0.64353	1.7385	80.56	-0.2478	-0.0422	0.2056	1745.1575	0.154216	-422.985425	-422.974559	-422.973615	-423.023174	36.939	
C	-0.1032516838	 1.4998396356	 0.2139527343	-0.385234
C	-0.2394576028	-0.0011945507	-0.0541502818	-0.18529
C	 0.7139794299	-0.4819687588	-1.137452571	-0.043613
O	 0.5038198552	-1.8785697378	-1.3272935127	-0.258849
C	 1.3284684478	-2.4418912181	-2.3297273434	-0.119717
C	 2.7640546582	-2.6094046865	-1.7853565774	 0.142679
O	 3.7526723284	-2.2356861642	-2.3529159488	-0.229693
C	 0.8244313668	-3.7612987482	-2.6902848104	 0.273525
C	 0.4769945463	-4.8751687518	-2.9763751203	-0.399039
H	 0.9091661418	 1.7574387749	 0.5436445572	 0.120236
H	-0.3192132513	 2.0880112812	-0.6846706092	 0.119457
H	-0.7979100051	 1.8208512635	 0.99503569	 0.121486
H	-0.0435391532	-0.5712651558	 0.860988797	 0.110973
H	-1.2631175295	-0.2436269699	-0.3608045842	 0.112997
H	 0.5305963224	 0.0532339476	-2.083462605	 0.097295
H	 1.7579068967	-0.2795624967	-0.8490408032	 0.101149
H	 1.3829471623	-1.7956874178	-3.2193459294	 0.114424
H	 2.7855864473	-3.1018289234	-0.7886819071	 0.099372
H	 0.1490809525	-5.8508167332	-3.2395531744	 0.207842
