14
gdb 32401	6.66988	0.83124	0.74824	4.1012	73.66	-0.2496	-0.0473	0.2023	1407.9191	0.101672	-436.718023	-436.710039	-436.709095	-436.751219	28.574	
O	 0.3455603129	 0.9368343193	 0.8676463451	-0.404557
C	 0.052827578	 0.0467966566	-0.194508198	-0.176021
C	-1.3777369258	-0.4150086238	-0.1836932195	 0.222516
C	-2.2424459098	-0.3418161734	 0.870314436	-0.094907
O	-3.4547348601	-0.850239028	 0.5486547525	-0.168698
C	-3.3696967898	-1.2675983694	-0.7478354737	 0.287073
C	-2.1192771107	-1.0212811824	-1.2431642472	-0.39706
C	-4.5174653768	-1.8430008504	-1.3338044224	 0.228663
N	-5.4464843258	-2.3183673026	-1.8370513197	-0.334858
H	-0.1604153405	 1.7433955154	 0.7220383567	 0.288364
H	 0.2960412548	 0.4832586859	-1.1754489643	 0.108277
H	 0.7272555732	-0.8063012034	-0.0568953572	 0.138531
H	-2.1375283255	 0.0313108783	 1.8749705298	 0.162206
H	-1.7796289542	-1.246230282	-2.2421861883	 0.140471
