13
gdb 14293	3.87983	1.97306	1.89062	4.2551	52.96	-0.2534	0.0402	0.2936	735.0302	0.096564	-435.752968	-435.746386	-435.745442	-435.783755	24.609	
O	-0.212583799	 1.4282493469	 0.0473006027	-0.416476
C	-0.0825160364	 0.0486900158	 0.0008526086	 0.06245
C	-1.3545720722	-0.7937344398	 0.0416996062	-0.084627
N	-2.5660964928	-0.1433640012	-0.341459631	-0.350679
C	-2.4605080689	 0.4463289181	-1.5874202288	 0.473396
O	-3.2200744648	 1.1934550606	-2.1293519953	-0.374925
O	-1.2786477273	 0.0154531641	-2.1665396112	-0.24487
C	-0.532886909	-0.7168774546	-1.2231880409	 0.010118
H	 0.1241226266	 1.7986139873	-0.7766758354	 0.305477
H	 0.7747715899	-0.3682924645	 0.5285673863	 0.106018
H	-1.4318117919	-1.6786686013	 0.6617619368	 0.119347
H	-3.1525950952	 0.3276906961	 0.3290410419	 0.270949
H	 0.0342282411	-1.5300095773	-1.65754335	 0.123823
