21
gdb 92293	2.36108	1.73	1.375	1.6996	81.92	-0.2408	0.0149	0.2557	1042.3209	0.185052	-387.093318	-387.085403	-387.084459	-387.125952	31.961	
O	 0.3634973881	 0.8865730611	-0.934566561	-0.432188
C	 0.0891149182	-0.2136411085	-0.0979850834	 0.147881
C	 0.1703393958	 0.0151730799	 1.4338221135	-0.270794
C	-1.2942312009	-0.4889590526	 1.6021734738	 0.000922
C	-2.266050283	 0.5186018496	 2.234510361	-0.271332
C	-2.5362466182	 1.6979272651	 1.3335215362	-0.057061
C	-2.6119961301	 1.5630898818	 0.007514715	-0.084794
C	-2.4303513586	 0.2266448611	-0.6676973522	-0.271757
C	-1.4076497653	-0.66719578	 0.0487257666	-0.053264
H	-0.1364450066	 1.6393976709	-0.5964242741	 0.279682
H	 0.7389440837	-1.0158104919	-0.4574981143	 0.083235
H	 0.9365603283	-0.5589781744	 1.961168141	 0.096878
H	 0.301121198	 1.0722647071	 1.6888167421	 0.094104
H	-1.3516463135	-1.4381254112	 2.140837006	 0.064434
H	-3.2184911163	 0.0160297513	 2.4605240444	 0.109315
H	-1.8699029285	 0.8536931194	 3.2007028133	 0.101684
H	-2.7041969279	 2.6671934194	 1.7956987767	 0.086607
H	-2.8482616294	 2.4209071552	-0.6176799849	 0.088504
H	-3.3994839355	-0.2914909634	-0.7034162131	 0.108588
H	-2.1182564511	 0.3633090703	-1.7083376942	 0.116076
H	-1.5573840375	-1.7058779102	-0.2587889021	 0.063279
