19
gdb 63296	2.27371	1.45644	1.10749	5.0138	79.	-0.2532	-0.0234	0.2298	1174.076	0.15792	-419.243111	-419.233796	-419.232851	-419.277074	34.436	
C	-0.3359909923	 1.5195693089	 0.2361885809	-0.433586
C	-0.0264763243	 0.0470490788	-0.0201528657	 0.298188
C	-1.2744680752	-0.8294267448	 0.0441218875	-0.433587
C	 0.9033168958	-0.2234729013	-1.2548371116	-0.385361
C	 1.9525865659	-0.7230878649	-0.2711557828	 0.40939
N	 3.1186125717	-1.1792991923	-0.3889617366	-0.542763
N	 1.0937458177	-0.4695663002	 0.8244649895	-0.108607
C	 1.2666390127	-0.6483389391	 2.1654707092	 0.131266
O	 2.2772117346	-1.0931491979	 2.6675193146	-0.308593
H	 0.5751741474	 2.1234351891	 0.2035863657	 0.131495
H	-1.0273302643	 1.8970379992	-0.5240363673	 0.12985
H	-0.8069693559	 1.6612159622	 1.2146252033	 0.124913
H	-1.9925982144	-0.5190093085	-0.7215834094	 0.12985
H	-1.0245935217	-1.8807576241	-0.1238219933	 0.131495
H	-1.7683834966	-0.7451984043	 1.0178649476	 0.124913
H	 0.5379223385	-0.9828065818	-1.9489152899	 0.13358
H	 1.197024464	 0.6669635768	-1.8140358063	 0.133579
H	 3.504090734	-1.4083749073	 0.5291466525	 0.249429
H	 0.3796547623	-0.3421303685	 2.7541832424	 0.084548
