17
gdb 37189	3.53738	1.74829	1.62178	3.9714	70.78	-0.2294	0.0637	0.2931	871.1936	0.13929	-417.865305	-417.859336	-417.858392	-417.895238	26.021	
C	 0.098203093	 1.5124145444	 0.2019870246	-0.167341
O	 1.5144461587	 1.4367648243	-0.1464424581	-0.297637
C	 1.2981919227	 0.2158317107	-0.9018100666	 0.138956
C	 1.5158953735	-1.2065818722	-0.345929257	-0.093281
N	 0.7710229942	-0.7648087544	 0.8726320413	-0.328685
C	-0.036992055	 0.0362861067	-0.1590031166	 0.264926
C	-0.7999265685	-1.0417522649	-0.9246917108	-0.181327
N	-0.2559207022	-1.2589722066	-2.2887572008	-0.32938
C	 0.3647784046	-1.9560173687	-1.1352225737	-0.042134
H	-0.0537777268	 1.7759586315	 1.2514894019	 0.116419
H	-0.4352133998	 2.206287275	-0.4599915555	 0.104895
H	 1.3882006597	 0.3802175819	-1.9710182947	 0.111277
H	 2.4629041486	-1.7360558439	-0.2233184351	 0.071272
H	 0.2114647549	-1.5255705687	 1.2624464306	 0.200385
H	-1.7940617373	-1.3877893135	-0.6657387325	 0.098394
H	-0.8535446898	-1.9202166175	-2.7832632465	 0.233179
H	 0.2889896495	-3.0353719142	-1.0566114804	 0.100082
