19
gdb 63325	2.52146	1.43191	1.14452	0.4541	78.2	-0.2542	-0.0053	0.2489	1142.4341	0.159723	-419.280895	-419.271957	-419.271012	-419.314795	33.842	
C	 0.0781039911	 1.4822404991	 0.0193089098	-0.42347
C	-0.0412420195	-0.0537974486	-0.0353644636	 0.154441
C	-1.5159507223	-0.4759595835	-0.0145815502	-0.428485
C	 0.7599353272	-0.6521579188	-1.2179140181	-0.328198
C	 2.0156750549	-1.2580011688	-0.6149023205	 0.385641
N	 3.0001639533	-1.6919953291	-1.2859844038	-0.528962
N	 1.833577565	-1.243828502	 0.7681478868	-0.365826
C	 0.6773223762	-0.6166294249	 1.2037300714	 0.409165
O	 0.3328203176	-0.5193855358	 2.3564903	-0.372804
H	 1.1242065097	 1.8043502042	-0.0121909056	 0.121944
H	-0.4395686636	 1.9303436657	-0.8348230952	 0.119935
H	-0.3692822617	 1.8668847626	 0.9396988192	 0.139658
H	-2.049922172	-0.043183059	-0.8666019566	 0.116998
H	-1.6206544934	-1.5645109994	-0.0656576992	 0.118856
H	-1.993604751	-0.1341122786	 0.9072466741	 0.140914
H	 0.2004401117	-1.4475782053	-1.7203880293	 0.135118
H	 1.0260333541	 0.0826159211	-1.9803802499	 0.136107
H	 3.7336728751	-2.073870004	-0.6859611402	 0.209978
H	 2.4929400574	-1.635329465	 1.4255269609	 0.258991
