17
gdb 125789	3.24146	1.51213	1.05574	3.9836	75.64	-0.2	0.0184	0.2184	1112.7963	0.138356	-418.004454	-417.996802	-417.995858	-418.036613	29.036	
C	-0.1049080399	 1.5151502534	-0.0487313664	-0.500255
C	-0.0298643295	 0.0247472573	 0.0502974721	 0.230797
N	-0.0516804438	-0.6853386107	-1.0661736877	-0.231325
O	 0.0415943373	-2.063437546	-0.6583790628	-0.247283
C	 0.0976417434	-2.0520418031	 0.6607536924	 0.470363
C	 0.049594497	-0.8061673561	 1.1947101702	 0.078703
C	 0.192097434	-0.922069171	 2.6877661717	-0.366676
C	 0.0002636713	-2.471334853	 2.8805847845	-0.163477
N	 0.2808193402	-3.089994785	 1.5485003271	-0.407915
H	 0.7842601093	 1.9800572933	 0.3900663057	 0.134577
H	-0.1791918908	 1.8189351861	-1.0945157424	 0.150351
H	-0.976094655	 1.8991143169	 0.4923018643	 0.133415
H	 1.1843181537	-0.6096178648	 3.0374327832	 0.118534
H	-0.5447912867	-0.3642685312	 3.2733314212	 0.115404
H	 0.6719406165	-2.8855626248	 3.6355950345	 0.120571
H	-1.0324735323	-2.6828749562	 3.1851328275	 0.113965
H	-0.2050948147	-3.9558341951	 1.3551210748	 0.250251
