18
gdb 47447	2.79511	1.34078	1.00852	3.3064	71.34	-0.2506	0.0049	0.2555	1178.9185	0.14959	-439.099645	-439.091577	-439.090632	-439.133192	29.67	
O	-0.1381614429	-0.0383810717	-0.3299395981	-0.340237
C	-0.028951313	 1.1489137879	-0.2354236839	 0.43771
O	-1.1025912464	 1.9820874728	-0.1943074067	-0.216153
C	-0.6939567959	 3.350028877	-0.0256553065	-0.079242
C	 0.7884942944	 3.3992065976	-0.4312601836	-0.261162
C	 1.2648425212	 1.9699621297	-0.1240922427	-0.177767
C	 1.8698066295	 1.7989358369	 1.2585277235	 0.02802
C	 2.7232228649	 0.6277916503	 1.5590682418	-0.237427
N	 3.3144524649	 1.9780329582	 1.4689348877	-0.330862
H	-1.3400333735	 3.9700275296	-0.6502496092	 0.128487
H	-0.8479058227	 3.6322275131	 1.0221232965	 0.122424
H	 0.8772349706	 3.6082251476	-1.5009610014	 0.119784
H	 1.3428172721	 4.1667859759	 0.1127729761	 0.125867
H	 1.9711206965	 1.5872657653	-0.8664522118	 0.099896
H	 1.2687325305	 2.214091246	 2.0665508711	 0.098036
H	 2.7222314313	 0.1933565657	 2.5539236416	 0.126368
H	 2.9028420561	-0.0809842617	 0.7555734487	 0.12718
H	 3.7851068726	 2.0862518397	 0.5728663368	 0.229078
