16
gdb 23593	3.19896	1.48226	1.15886	1.8098	72.32	-0.2437	-0.0138	0.2299	1040.4689	0.125064	-437.81154	-437.804411	-437.803467	-437.842972	28.541	
O	-0.13239641	 1.3422065425	 0.0246318296	-0.389959
N	 0.0127733354	-0.0525156815	 0.0480500551	-0.236249
C	-1.1152784132	-0.6472192515	 0.0395445728	 0.414187
C	-1.2082285257	-2.1372356354	-0.0161790021	-0.128083
C	-2.0524958382	-2.8699990634	 1.009778108	-0.292353
C	-2.6649028625	-2.4768316587	-0.3071943168	-0.070906
C	-3.4210179943	-1.1589580868	-0.320760496	 0.026963
O	-3.4123526356	-0.4596260409	 0.9260858966	-0.249608
C	-2.4812407849	-0.0428930986	-0.0963640819	-0.068463
H	 0.7827392629	 1.6416409022	 0.0072340238	 0.309849
H	-0.3842977248	-2.6706332459	-0.4733774726	 0.105363
H	-1.812917194	-3.9176930242	 1.1534930314	 0.116204
H	-2.3794037789	-2.3391297193	 1.8939555608	 0.145862
H	-2.939958944	-3.2307160907	-1.0341471269	 0.093874
H	-4.3277128597	-1.0551593386	-0.9095351288	 0.103311
H	-2.6016891526	 0.9707891907	-0.4586964531	 0.120008
