19
gdb 20019	4.95535	1.05193	0.94893	2.5359	72.57	-0.2465	0.0727	0.3192	1267.249	0.164984	-365.013822	-365.005293	-365.004349	-365.047654	30.847	
C	-0.1403918495	 1.5325206119	-0.0997535751	-0.377597
C	-0.3576071483	 0.0203866706	-0.2235307352	-0.181956
C	 0.5657043405	-0.5996795669	-1.249912086	 0.000927
N	 1.94125102	-0.8972485118	-0.8228860928	-0.342639
C	 1.0555400022	-2.0074444652	-1.2152627494	-0.057193
C	 0.696014585	-2.9922011244	-0.152508322	 0.092952
C	-0.1462306724	-4.1588027625	-0.4466554769	-0.181749
O	 1.265680268	-4.2998974283	-0.2946651869	-0.237664
H	 0.8899902879	 1.7474670454	 0.1997158682	 0.130717
H	-0.3260722258	 2.0395340329	-1.0534764942	 0.110442
H	-0.8104697655	 1.9706721203	 0.6459135857	 0.112498
H	-0.1923205687	-0.4531825024	 0.7490610908	 0.104619
H	-1.3974008175	-0.188260884	-0.5067018383	 0.096774
H	 0.4450006945	-0.185263512	-2.2521726963	 0.079985
H	 2.611255223	-0.6949647167	-1.5590440665	 0.233785
H	 1.233368765	-2.4825772937	-2.1792940728	 0.088121
H	 0.7164600847	-2.6086214073	 0.8660567215	 0.103682
H	-0.7532726035	-4.6015505518	 0.3419904911	 0.114666
H	-0.5245784694	-4.3066860342	-1.458011465	 0.10963
