23
gdb 58753	2.4147	1.36409	1.17229	1.6848	85.62	-0.2314	0.0822	0.3136	1224.8929	0.203869	-388.240709	-388.231035	-388.230091	-388.274901	37.178	
C	-0.0863485378	 1.5072052184	 0.0966533999	-0.393438
C	 0.0698565172	-0.0175924841	 0.0171996942	-0.116158
C	 0.7178765335	-0.4622384548	-1.3019822832	-0.395685
C	 0.8522545323	-0.5446343922	 1.191313784	 0.444975
C	 2.2796801663	-0.1861618776	 1.6953549348	-0.27102
C	 1.5681957406	-1.0473672229	 2.7588402902	 0.028032
O	 0.3462179192	-0.2352391693	 2.5635321373	-0.358451
C	 1.0882361268	-2.0226705029	 1.6519179031	-0.01256
C	-0.1100031089	-2.9136479493	 1.9175818135	-0.433196
H	 0.8832292513	 2.0060774146	-0.0120278122	 0.11314
H	-0.7401961367	 1.8705895062	-0.7023417603	 0.108102
H	-0.5125604014	 1.8045081848	 1.0578954919	 0.137336
H	-0.9297589656	-0.4695581279	 0.0820216192	 0.086185
H	 1.7261570654	-0.0452122395	-1.4040667543	 0.118281
H	 0.7969158226	-1.5521328182	-1.36652567	 0.117196
H	 0.1270196001	-0.1166363132	-2.1556125293	 0.115963
H	 3.1373778195	-0.6143263313	 1.1698783214	 0.091335
H	 2.4241274095	 0.857890127	 1.9741750889	 0.104706
H	 1.8642927652	-1.258435	 3.7870595189	 0.088688
H	 1.8913711665	-2.5452902267	 1.1209706356	 0.065018
H	-0.8840818765	-2.3588858918	 2.4519944044	 0.136471
H	-0.5348267848	-3.2930829346	 0.9815570876	 0.112512
H	 0.1758170759	-3.7823352648	 2.5207659144	 0.112567
