18
gdb 9889	4.94737	1.0497	0.98582	4.0326	69.93	-0.2737	0.01	0.2837	1214.2721	0.152136	-384.953338	-384.944634	-384.94369	-384.987424	31.03	
C	-0.2418044661	 1.4444231619	 0.0569574194	-0.475326
C	-0.0518396926	-0.0574741632	-0.020377246	 0.373854
C	-1.2537792669	-0.8300102133	-0.5052234707	-0.151678
O	-1.5577377834	-0.4867455152	-1.8688746687	-0.179844
C	-2.7894537573	-0.0325184747	-2.1581544988	 0.174343
O	-3.1302218753	 0.2593196076	-3.2649420776	-0.277147
C	 1.3081923649	-0.6022267345	-0.3842559503	-0.288713
C	 0.7962228475	-0.7421606956	 1.0277606707	-0.311986
H	 0.6639932888	 1.9351464291	 0.4242353541	 0.119944
H	-0.471438459	 1.8631316691	-0.9281422819	 0.13773
H	-1.0611039804	 1.7077617297	 0.7370973788	 0.113606
H	-1.0600057844	-1.9073114032	-0.4809400657	 0.114733
H	-2.1306144373	-0.626332728	 0.1254586579	 0.107471
H	-3.4415918338	 0.0393149221	-1.2646956945	 0.074541
H	 1.3560142392	-1.491858018	-1.0028488544	 0.120138
H	 2.1024562104	 0.1113320924	-0.5735007058	 0.118228
H	 1.2354656407	-0.1201391011	 1.7999105384	 0.117155
H	 0.5031287249	-1.7290909149	 1.3712270149	 0.112951
