17
gdb 80305	2.51719	1.49253	1.29005	2.9503	67.7	-0.2378	-0.0107	0.2271	1034.0072	0.134693	-458.970611	-458.962323	-458.961379	-459.003228	32.174	
O	 0.1209109893	 1.3001555011	-0.2077819956	-0.417019
C	 0.017420123	-0.0858182694	-0.0540708431	 0.013757
C	-0.4855846296	-0.6882760472	 1.2498452353	-0.150149
C	-1.0654014822	 0.2665054664	 2.2716079	-0.337711
C	-2.1889252057	 1.0237334494	 1.5408525871	 0.406843
O	-2.7347650905	 2.0149413633	 1.9432677925	-0.30966
C	-2.5095162698	 0.2922924016	 0.2285617229	-0.395486
C	-1.3617614884	-0.6741810107	 0.006336202	 0.354442
O	-1.6129176434	-1.8873664612	-0.6348747931	-0.467262
H	 0.8837652089	 1.6091396128	 0.2930097186	 0.29545
H	 0.7538322102	-0.6780258247	-0.5965431748	 0.094295
H	-0.0375743369	-1.6207929073	 1.5721956517	 0.101657
H	-1.5103225795	-0.2810961012	 3.1113740675	 0.134708
H	-0.3556438935	 0.98191354	 2.69801724	 0.12185
H	-3.4376303656	-0.2776861876	 0.3602308849	 0.134264
H	-2.6668797464	 1.0182690953	-0.5731640362	 0.135102
H	-1.7092365498	-1.7134399807	-1.5781306098	 0.284919
