21
gdb 70873	2.41241	1.5753	1.3799	0.9116	82.94	-0.2288	0.0801	0.3089	1082.3126	0.181382	-387.050959	-387.042015	-387.041071	-387.083674	35.323	
C	-0.1646754435	 1.5266623763	-0.0748209279	-0.531434
C	-0.0283739178	 0.042968242	 0.008367249	 0.255819
C	 0.0030449229	-1.0539795516	-1.045682598	-0.190622
C	 1.2908295894	-1.6466993593	-0.4897915264	-0.27597
C	 0.9176442938	-0.9375314985	 0.8471128202	 0.274287
C	 1.9740577613	-0.5248970377	 1.838360287	-0.501073
C	-0.3659973409	-1.6952755838	 1.3144670964	-0.342103
C	-1.0345889292	-1.065974942	 0.0991950017	 0.354532
O	-2.3871202345	-0.9273406899	-0.1472225637	-0.470306
H	 0.7391104343	 2.0006801653	-0.4750027688	 0.116397
H	-1.0004308092	 1.7922997952	-0.7308606608	 0.132511
H	-0.3659896342	 1.9699576351	 0.9076555459	 0.119764
H	-0.3298770293	-0.975342409	-2.07397685	 0.078478
H	 1.4095345426	-2.7372053905	-0.4630531027	 0.080967
H	 2.1768071491	-1.196627555	-0.9501458904	 0.092174
H	 2.7518941718	 0.0834218253	 1.3635113513	 0.114867
H	 1.5475814625	 0.0585916408	 2.6618024209	 0.116078
H	 2.4620103618	-1.4049630661	 2.2749195397	 0.118081
H	-0.3057455349	-2.7881620384	 1.3966187345	 0.077813
H	-0.7643119137	-1.2745218704	 2.2430455593	 0.096443
H	-2.7018765121	-1.7279372876	-0.5815358674	 0.283298
