19
gdb 54708	4.40011	1.16069	1.06323	2.4843	80.37	-0.2351	-0.0113	0.2238	1186.3945	0.158647	-385.832806	-385.824832	-385.823887	-385.866025	30.43	
C	 0.00173555	 1.4826750204	-0.3716617709	-0.480787
C	 0.145240937	 0.0123761833	-0.0177002685	 0.364777
O	 1.2293155355	-0.4989404233	 0.164336021	-0.308911
C	-1.140494745	-0.7801041783	 0.0716658425	-0.128501
C	-1.5154536087	-1.6670421113	-1.1545952778	-0.045605
C	-0.5183493289	-2.8068103034	-0.745307999	-0.028747
C	-1.614718465	-3.8870396716	-0.8334730375	-0.270562
C	-2.3381107024	-2.6537418356	-0.2601301108	-0.050899
C	-1.0938990968	-2.228905605	 0.5957230552	-0.037346
H	 0.9840370548	 1.9271401489	-0.5360152884	 0.139763
H	-0.621466745	 1.606741836	-1.2646062781	 0.135703
H	-0.506340454	 2.0128876068	 0.4427226354	 0.140015
H	-1.9679843587	-0.1596645449	 0.4376311873	 0.06881
H	-1.7632973058	-1.3488059347	-2.1688371206	 0.073412
H	 0.5350052766	-2.8651319287	-1.0090790791	 0.095357
H	-1.9115935418	-4.2112816454	-1.8363290748	 0.091921
H	-1.5096684312	-4.7491075412	-0.1669221141	 0.094646
H	-3.3839741783	-2.5284874502	 0.0259690482	 0.069561
H	-0.8487755121	-2.5747578117	 1.6000950201	 0.077392
