17
gdb 72309	2.32881	1.93718	1.54196	3.396	74.	-0.2171	-0.0557	0.1614	938.6301	0.134316	-417.859917	-417.851958	-417.851013	-417.891677	31.421	
C	 0.0024253133	 1.4415751033	 0.0654027926	-0.493532
C	-0.0642110033	-0.0562111667	-0.0995001903	 0.255999
C	 0.8487535774	-0.7819443611	-1.1176300222	-0.228476
N	 0.5465209864	-2.2118738733	-0.8475100042	-0.152738
C	-0.5618371795	-2.1870617409	-0.2227235673	 0.039185
N	-0.5039521057	-2.4327857001	 1.2326904449	-0.33948
C	-0.6572926895	-0.8820962722	 1.1951702483	-0.161684
C	-1.3332652142	-0.8010326856	-0.1154720447	 0.286199
O	-2.5479771724	-0.3683339331	-0.5895197312	-0.459085
H	 0.9755621618	 1.7534175954	 0.4589557409	 0.128586
H	-0.1424157984	 1.936410936	-0.9013409527	 0.133718
H	-0.7753114271	 1.8115658065	 0.7394148684	 0.126818
H	 0.6566670113	-0.4249597336	-2.1415288289	 0.114149
H	 1.9199127003	-0.6635164186	-0.9205562635	 0.127225
H	-1.4152750469	-2.7366944699	 1.5948885724	 0.21725
H	-0.800485443	-0.3571948747	 2.1349717872	 0.114347
H	-3.2494121305	-0.8986914015	-0.1941043195	 0.291519
