19
gdb 79062	2.18419	1.96974	1.69514	1.5522	78.48	-0.2262	0.0083	0.2345	944.1205	0.160158	-385.867483	-385.859966	-385.859021	-385.898774	31.261	
C	 0.0355345758	 1.5864342102	 0.0550190252	-0.50854
C	-0.0079366672	 0.0728724179	 0.0759194345	 0.229902
C	-1.3592861134	-0.5924981843	-0.0762226322	-0.144802
C	-1.3029593086	-1.8389900103	 0.4083047793	-0.11201
C	 0.0395165485	-2.0733806199	 1.0157800792	-0.084805
C	 1.2988949658	-1.6840396644	 0.2011513471	-0.146658
C	 0.6973991618	-0.7358347714	 1.2177753518	-0.11369
C	 0.9813604361	-0.705226529	-0.914734601	 0.133394
O	 0.5435667348	-1.1480861269	-2.1689199387	-0.44046
H	 1.0568051925	 1.9558952472	 0.1962164839	 0.11497
H	-0.3277167006	 1.9719463657	-0.9041141235	 0.124813
H	-0.5892241761	 2.0152603731	 0.8464094364	 0.117849
H	-2.1790215392	-0.1505956499	-0.6304333991	 0.099129
H	-2.0823269007	-2.5900089358	 0.3615115304	 0.098687
H	 0.1970103725	-2.8672886418	 1.736648564	 0.087417
H	 2.1924078844	-2.2925489613	 0.2772960036	 0.087908
H	 1.1084497	-0.3525463366	 2.1438466339	 0.087777
H	 1.8469311179	-0.0631154769	-1.0998791753	 0.092336
H	-0.2373799843	-1.6934640556	-2.0150999092	 0.276782
