17
gdb 107964	2.87941	1.3614	1.30852	1.6623	68.05	-0.2421	0.0482	0.2903	1056.2069	0.133157	-458.848409	-458.840089	-458.839145	-458.881349	31.435	
C	 0.0975489716	 1.4712188075	-0.0519934195	-0.537493
C	 0.0183052008	-0.0179756006	-0.0403260111	 0.363313
O	 0.6300261001	-0.798452932	-1.1133048833	-0.353783
C	 0.0738511235	-1.8343139872	-0.2563842421	-0.000174
C	 0.3632224964	-1.0752727182	 1.0670850039	-0.006043
O	-1.0018847319	-1.1699550334	 1.565930692	-0.369049
C	-1.1965035883	-1.0080099357	 0.1219628507	 0.362008
C	-2.5998682523	-1.0383082599	-0.3927282573	-0.217129
O	-3.2301544	-2.2679214311	-0.0822667355	-0.41064
H	 1.1408087627	 1.8002424199	-0.0321385587	 0.141439
H	-0.3765980552	 1.8789074208	-0.9497742361	 0.139902
H	-0.4131626664	 1.8716968935	 0.8289344144	 0.142576
H	 0.195366854	-2.8797327271	-0.5340755502	 0.111283
H	 1.1901429411	-1.1384014809	 1.7738800568	 0.104747
H	-3.1561402328	-0.1794668847	 0.0158453785	 0.102016
H	-2.5871589812	-0.9438356959	-1.4833843288	 0.130233
H	-3.0999322121	-2.4150844148	 0.8618527163	 0.296794
