18
gdb 106455	2.2341	1.61713	1.12933	5.1547	74.31	-0.2291	0.0205	0.2497	1108.5843	0.147025	-439.028709	-439.020231	-439.019287	-439.062001	31.54	
O	-0.1697037605	 1.3959036924	 0.1392611218	-0.41366
C	-0.0492752372	-0.0118242135	 0.0050457414	-0.226679
C	-1.427679867	-0.5980724768	 0.0206798339	 0.340908
C	-2.6699781576	-0.2433243103	-0.8571728058	-0.255635
C	-3.1374782483	-1.2833770307	 0.2059139547	-0.021872
C	-1.8437969335	-2.0930873723	-0.0918127333	-0.269553
N	-2.3331072986	-0.545421281	 1.2431672488	-0.104809
C	-2.7729507689	 0.5853540472	 1.894369645	 0.126277
O	-3.9227042662	 0.7804195035	 2.2254788888	-0.321727
H	 0.7131731882	 1.7738626329	 0.1920892095	 0.296395
H	 0.4385417899	-0.2910794732	-0.9424815382	 0.101792
H	 0.5356956393	-0.4522160513	 0.8269100172	 0.105808
H	-3.0639310117	 0.7670460949	-0.747934708	 0.129733
H	-2.6475771038	-0.5724360434	-1.8996995307	 0.098244
H	-4.1404433618	-1.6450002124	 0.4164612384	 0.113736
H	-1.7675382608	-2.5438555407	-1.082374707	 0.10358
H	-1.4932798821	-2.7481754221	 0.7065263763	 0.111871
H	-1.9374695594	 1.2581362069	 2.162635737	 0.085592
