15
gdb 25561	3.95777	0.9576	0.90179	3.1791	69.34	-0.2562	-0.019	0.2372	1295.6911	0.113482	-453.96376	-453.955714	-453.954769	-453.998384	27.818	
N	-0.4718524193	 1.0450842825	 0.054592004	-0.435131
C	-0.6222488345	-0.1710278502	-0.2406900849	 0.122811
O	-0.5756528141	-1.1042005747	 0.740041117	-0.182375
C	-0.8024791247	-2.4559325662	 0.329676633	-0.200005
C	-2.241675706	-2.7424846261	 0.0621720138	 0.378886
N	-2.8500682697	-2.7493534429	-1.0836174287	-0.295679
C	-4.1755475926	-3.0184309485	-0.7726788322	-0.110038
C	-4.2915827206	-3.1620892768	 0.5688072387	-0.033909
O	-3.0558795065	-2.9889984102	 1.118607625	-0.158298
H	-0.515309205	 1.6136776027	-0.7886857898	 0.231661
H	-0.7921248443	-0.5908146364	-1.2400047441	 0.109501
H	-0.2326877302	-2.6917105116	-0.5747757664	 0.140931
H	-0.4377551162	-3.070344566	 1.1545142561	 0.145099
H	-4.9370520327	-3.0902192369	-1.5323995179	 0.132103
H	-5.0974783037	-3.3750791585	 1.2495811965	 0.154442
