21
gdb 108571	2.32117	1.44831	1.18919	2.5092	78.05	-0.2384	0.0738	0.3122	1162.9823	0.182827	-424.214079	-424.204982	-424.204038	-424.247936	34.296	
C	-0.3989208068	 1.4034212286	-0.1498590624	-0.414012
C	-0.0389390862	-0.0617866908	-0.0682449598	-0.064943
C	 1.3717691894	-0.600351733	-0.303073777	-0.149419
C	 2.5519266272	 0.3685353517	-0.2191654309	-0.253161
C	 2.7133515399	 0.5805489637	 1.3011444084	-0.077129
O	 1.4294458811	 0.3145314092	 1.8792029227	-0.312245
C	 0.7621597825	-0.6397146399	 1.07177872	 0.38645
C	 0.3735050695	-1.8686655131	 1.8461429161	-0.133893
O	-0.4829097902	-1.5558750111	 2.931873652	-0.417688
H	-0.4123200309	 1.7564491496	-1.1869384798	 0.113213
H	-1.3947037808	 1.5716722825	 0.2727602921	 0.123791
H	 0.3012008359	 2.0202827603	 0.417407118	 0.126165
H	-0.8135991455	-0.73018023	-0.438962484	 0.08589
H	 1.4830431631	-1.5032105161	-0.8932388445	 0.089285
H	 3.4535003418	-0.0618091702	-0.6628257767	 0.106831
H	 2.3496905476	 1.3118692057	-0.7359372887	 0.111359
H	 3.460591667	-0.1140768828	 1.7130932563	 0.096941
H	 2.9991665996	 1.5987241917	 1.5803608911	 0.107925
H	-0.1726951899	-2.5637594469	 1.2001549576	 0.102734
H	 1.2846375074	-2.3819760678	 2.196803626	 0.081859
H	-0.0453273317	-0.8475158813	 3.4184302534	 0.290045
