16
gdb 61138	4.68169	0.60008	0.549	2.347	81.84	-0.2771	-0.0734	0.2038	1891.8002	0.121696	-400.745348	-400.73531	-400.734366	-400.782325	33.43	
C	 0.1273859814	 1.618733725	 0.003811153	-0.396329
C	 0.001925059	 0.0818789313	 0.0270055802	-0.181943
C	 0.6185098242	-0.5754187216	-1.2424882647	-0.331351
C	-0.0540638857	-0.1473431322	-2.4665166246	 0.262551
N	-0.6022874094	 0.2029916753	-3.4214823787	-0.303709
C	 0.6242434198	-0.4805379679	 1.2200072323	 0.100647
C	 1.1692443575	-0.9492423359	 2.1908356153	 0.03776
C	 1.789795796	-1.4925558192	 3.3740062133	 0.024245
O	 2.7554881367	-2.2198441178	 3.3635326376	-0.224225
H	 1.1787234977	 1.9205122971	-0.0086260263	 0.136919
H	-0.3625831693	 2.0198770687	-0.887042727	 0.153734
H	-0.3430786742	 2.0538084776	 0.8881533704	 0.139616
H	-1.064962763	-0.1754902025	 0.0477745641	 0.140497
H	 1.6817052717	-0.3208549525	-1.3085637154	 0.167435
H	 0.5549124158	-1.6650747158	-1.1654572474	 0.169443
H	 1.3039748619	-1.1863876196	 4.3223523878	 0.104712
