21
gdb 121754	6.37755	0.54329	0.50856	0.9124	77.73	-0.2542	0.0173	0.2715	2201.5269	0.179277	-461.393488	-461.382334	-461.38139	-461.431871	37.258	
C	 0.0982379669	 1.5356264901	 0.2306217357	-0.391088
C	 0.0278152584	 0.0324469309	 0.0442146117	-0.042849
O	 0.690687711	-0.5786115633	 1.1697254481	-0.246898
C	 0.7250272114	-1.9246391858	 1.1713781514	 0.449353
O	 0.2418877003	-2.6091594025	 0.3023773864	-0.360049
C	 1.4427972506	-2.4455590118	 2.3961230626	-0.344758
C	 1.4982953358	-3.9660318872	 2.4273829058	-0.045822
O	 2.183616523	-4.3434366714	 3.6012523598	-0.234835
C	 2.2973103881	-5.7391969959	 3.739032492	-0.228652
H	 1.136663867	 1.8762841791	 0.2717300572	 0.130158
H	-0.3961831886	 2.0368990491	-0.6067563344	 0.123364
H	-0.3994617029	 1.8385696292	 1.1561414584	 0.13016
H	-1.0047124964	-0.3285772346	 0.0026962767	 0.121906
H	 0.5230708754	-0.2911106214	-0.8767637232	 0.121919
H	 2.4548559657	-2.0269424103	 2.4199902584	 0.1402
H	 0.9402805776	-2.0642199426	 3.2917373011	 0.140191
H	 0.4803045535	-4.3858575778	 2.4126294065	 0.10097
H	 2.0113141851	-4.3480700109	 1.5309313287	 0.100988
H	 2.837635169	-5.9339081473	 4.6686723985	 0.126037
H	 1.3109019306	-6.226921555	 3.7919316175	 0.104852
H	 2.8552281186	-6.1889442806	 2.9022957609	 0.104853
