13
gdb 129693	3.44493	1.29531	0.94225	3.1917	70.15	-0.213	-0.0327	0.1803	1126.5021	0.090611	-448.95669	-448.948251	-448.947306	-448.989649	30.367	
N	 0.007130939	 1.4814007438	-0.1434282308	-0.623906
C	-0.0141244483	 0.0985559882	-0.0688355114	 0.035988
C	-1.0977652333	-0.7745502931	-0.0273846403	 0.254586
N	-0.5769725376	-2.0475262064	-0.0448742684	-0.316788
N	 0.7640322116	-2.0473234385	-0.0858737375	-0.299272
C	 1.1037403888	-0.7686584267	-0.1028678928	 0.399314
O	 2.3831923622	-0.3386027304	-0.1396049827	-0.438544
C	-2.4766833223	-0.4986616768	 0.0295542675	 0.2118
N	-3.6096963371	-0.2550037032	 0.0831372592	-0.3499
H	 0.8681605938	 1.8881854628	 0.1943209002	 0.265006
H	-0.8024410758	 1.9403161867	 0.2503845188	 0.26334
H	-1.0802982023	-2.9159718283	-0.011095016	 0.288205
H	 2.9552228514	-1.1159632982	-0.1430591556	 0.310169
