17
gdb 123462	5.12501	0.93583	0.82771	1.2258	74.48	-0.2416	0.0249	0.2665	1352.5431	0.137911	-418.005267	-417.997418	-417.996474	-418.038837	28.952	
C	 0.15267905	 1.3105159799	 0.6389671233	-0.337487
C	-0.0193074939	-0.0656481334	 0.0322038577	 0.101964
C	-1.330210796	-0.574904985	-0.3854601329	-0.182916
O	-0.3847997487	-0.1090889328	-1.3514746571	-0.235171
C	 1.4470877467	 1.9568452245	 0.2408716588	 0.336468
N	 2.3111749921	 2.3739352112	 1.1657737851	-0.292525
N	 3.3364125022	 2.8910714925	 0.4607247948	-0.182372
C	 3.1529399557	 2.8130141215	-0.8797085355	-0.016915
C	 1.9302501394	 2.2083599296	-1.0671405523	-0.272978
H	-0.6949402698	 1.9320972369	 0.325689009	 0.111708
H	 0.1224933266	 1.2368530136	 1.731209583	 0.120622
H	 0.7483255014	-0.7914980009	 0.3045183031	 0.097905
H	-1.5201883671	-1.647227804	-0.3960636717	 0.113696
H	-2.2131177763	 0.0502224537	-0.255682649	 0.112339
H	 4.1214365133	 3.2775497706	 0.9558541637	 0.27347
H	 3.8891317177	 3.1841056172	-1.5753233579	 0.130934
H	 1.4480717467	 1.968580625	-2.0001767619	 0.121258
