18
gdb 36208	3.85333	1.09172	1.01611	3.899	81.19	-0.2369	-0.004	0.233	1211.809	0.149568	-364.796947	-364.789393	-364.788449	-364.829706	29.303	
N	-0.056408201	-1.0728018683	 0.51491347	-0.310248
C	-0.0162853686	 0.0355957119	 0.1910802755	 0.263899
C	 0.0520837657	 1.4465197212	-0.2083426742	-0.482847
C	 1.442213785	 2.0020890569	-0.1308361166	 0.366301
C	 2.2069672818	 2.562477203	-1.0718366285	-0.201853
C	 3.4902335643	 2.9293100507	-0.3127448525	-0.060255
C	 3.7002785929	 1.6209988302	 0.5271670732	-0.204735
C	 2.3245103307	 2.069919408	 1.1292244264	-0.113342
C	 2.8775415185	 3.5315545389	 0.9995575305	-0.209303
H	-0.3383714028	 1.5405260101	-1.2275179185	 0.157878
H	-0.6314744578	 2.0068657141	 0.4448645074	 0.158265
H	 2.0025087764	 2.731053352	-2.1200672319	 0.105058
H	 4.2986309828	 3.413317885	-0.8591867568	 0.065896
H	 3.7268662318	 0.6719623318	-0.0124814211	 0.104162
H	 4.5272832096	 1.6906405908	 1.2402472517	 0.097724
H	 1.9308668954	 1.6659818781	 2.0617024143	 0.073238
H	 3.6279716281	 3.7787595432	 1.7567233308	 0.098156
H	 2.1505548071	 4.3404208823	 0.8922682304	 0.092007
