17
gdb 39709	4.37223	1.52646	1.49933	1.8943	74.32	-0.2371	0.0833	0.3204	915.4844	0.137308	-384.582748	-384.576597	-384.575653	-384.613033	26.187	
C	-0.0439806007	 1.5381235749	 0.0107280952	-0.289783
O	 1.1474792279	 0.724098959	-0.005802733	-0.293637
C	-0.1159474593	 0.0819088272	 0.0033525228	 0.510417
C	-0.4785511105	-0.9737584547	 1.0524581535	-0.172598
C	-1.952775909	-1.3474095087	 0.7847715875	-0.074775
C	-1.6279346752	-2.5990637908	 0.0034972518	-0.112952
C	-1.9683034644	-1.3386071566	-0.7567236221	-0.074795
C	-0.4996826187	-0.9620567823	-1.0499111646	-0.172573
C	-0.1483316713	-2.1016436012	-0.0084569592	-0.040863
H	-0.2138376129	 2.0895450715	 0.9348676719	 0.112404
H	-0.2323473787	 2.0997721289	-0.9036132259	 0.112403
H	-0.0925860878	-0.9492510061	 2.0694714323	 0.074377
H	-2.8310143292	-1.1148701864	 1.3717372772	 0.089036
H	-2.0867661582	-3.577941494	 0.0025122932	 0.090155
H	-2.8581620712	-1.0994385327	-1.323167424	 0.089036
H	-0.1342605108	-0.9262030642	-2.0741518517	 0.074387
H	 0.7664328698	-2.6864487137	-0.0208987547	 0.079761
