20
gdb 93261	2.23178	1.64738	1.20903	4.171	74.94	-0.2382	0.0354	0.2736	1099.0796	0.170491	-440.336672	-440.327108	-440.326164	-440.370428	35.982	
C	 0.4055302688	 1.4042021033	 0.1301790615	-0.418331
C	-0.0229541	-0.0712694259	-0.0078520303	 0.137568
C	-1.5453193822	-0.1787084944	-0.1085501192	-0.438184
C	 0.7214507037	-0.7797660475	-1.1604740642	 0.091186
O	 0.9003006333	 0.0816555903	-2.2653550435	-0.427845
C	 2.044687559	-1.2653109031	-0.5178199651	-0.215213
N	 1.6411548476	-1.4888225154	 0.8562691345	-0.319352
C	 0.503880153	-0.8239381223	 1.231157985	 0.412798
O	 0.0201091107	-0.8138582493	 2.3421795576	-0.39693
H	 1.4916513932	 1.5118825085	 0.2091840614	 0.115076
H	 0.0760670873	 1.9764280764	-0.7397995832	 0.1308
H	-0.0434272602	 1.8299849177	 1.0315152794	 0.130428
H	-1.9134758101	 0.3843910706	-0.9718253353	 0.117555
H	-1.865554783	-1.2203120857	-0.2156696273	 0.111443
H	-2.0086639368	 0.2195389462	 0.7977486563	 0.13651
H	 0.1370023759	-1.6650978603	-1.4521806081	 0.076293
H	 1.2082148163	-0.4393469369	-3.0131578629	 0.28839
H	 2.4240026394	-2.1824275587	-0.9818342116	 0.104413
H	 2.8141590581	-0.4868186781	-0.6159311693	 0.113087
H	 2.214839646	-1.9486280653	 1.5457490142	 0.250308
