25
gdb 76674	2.98465	0.84618	0.78608	0.1499	93.59	-0.2541	0.0819	0.336	1639.3888	0.228248	-352.335397	-352.324944	-352.324	-352.371569	38.971	
C	-0.4093955676	 0.7922367349	-1.6682683495	-0.40733
C	 0.0034628012	-0.2822683361	-0.6833598931	-0.015136
C	 1.4518433594	-0.5740059451	-0.3403314303	-0.043806
C	 2.6146569762	 0.1849850535	-0.9464924306	-0.403111
C	 0.531349962	 0.0192442707	 0.7083812484	-0.013079
C	 0.6857136792	 1.4281777365	 1.2523090213	-0.240506
C	-0.5825575084	 1.9405171759	 1.9092308972	 0.048266
C	-0.8838188455	 1.6062650326	 3.3492024944	-0.254834
C	-0.5200824121	 3.0192255348	 2.9589212282	-0.280329
H	 0.2097530659	 1.690072941	-1.6046590596	 0.115746
H	-0.3414488561	 0.4234023218	-2.6981530411	 0.11429
H	-1.4475162154	 1.099848958	-1.4984679121	 0.1149
H	-0.6315125063	-1.1635140362	-0.7422201416	 0.076083
H	 1.6770298249	-1.6284068663	-0.1947574346	 0.076161
H	 2.3950728878	 1.2424244295	-1.1101997993	 0.114736
H	 3.4960332822	 0.1324769617	-0.2971587567	 0.114444
H	 2.8954840351	-0.243209802	-1.9154545598	 0.113316
H	 0.2049717867	-0.6791598696	 1.4761828676	 0.077132
H	 1.4982413676	 1.4430733808	 1.9924805986	 0.08882
H	 0.9898579035	 2.1247148687	 0.4636131794	 0.092444
H	-1.4433101132	 1.9747026906	 1.2460059793	 0.081949
H	-1.9092802698	 1.3973298434	 3.6336368331	 0.107803
H	-0.1464921908	 1.0297541039	 3.8993566717	 0.107272
H	 0.4593058102	 3.3871752703	 3.2482848132	 0.107199
H	-1.2979121466	 3.7748522469	 2.9746482759	 0.10757
