20
gdb 22848	3.09331	1.16544	0.91211	1.1884	78.79	-0.2443	0.0085	0.2528	1293.1674	0.172092	-440.24591	-440.23724	-440.236296	-440.279414	33.149	
O	-0.0605218426	 1.4136871559	-0.3052476393	-0.399942
N	 0.0896668263	 0.0205344356	-0.17679601	-0.175007
C	-1.0130969333	-0.5719842368	 0.0877677144	 0.357069
C	-0.9257939044	-2.0772809504	 0.1885924497	-0.288356
C	-1.469922951	-2.6548312738	 1.5115605789	-0.189945
C	-2.998084898	-2.8241379295	 1.5521436024	-0.200751
C	-3.7595114172	-1.6472670966	 0.9245293989	-0.068376
O	-3.182247052	-0.393847599	 1.2554304085	-0.242062
C	-2.333023943	 0.1564144122	 0.2685920179	-0.178269
H	 0.8501655124	 1.7012126726	-0.4262140825	 0.306633
H	-1.4610679539	-2.531984469	-0.6579566036	 0.104313
H	 0.1285890135	-2.3378672221	 0.0663440275	 0.118376
H	-1.0028912887	-3.6292314769	 1.6901591712	 0.098617
H	-1.1523485356	-2.0052107024	 2.3332328736	 0.115024
H	-3.2945349687	-3.7391400863	 1.0227451404	 0.095507
H	-3.3120550994	-2.9527829832	 2.5937613199	 0.104835
H	-3.8055528756	-1.7577172736	-0.1690592065	 0.089271
H	-4.7935149269	-1.6321560085	 1.2879752712	 0.104181
H	-2.1309884307	 1.1841463012	 0.5725081271	 0.142323
H	-2.8512156815	 0.1983163005	-0.7056094501	 0.106559
