13
gdb 73746	2.1674	1.81796	0.9949	8.4666	69.17	-0.2531	-0.0484	0.2047	1082.735	0.090161	-452.81848	-452.810401	-452.809457	-452.851367	28.771	
N	 0.0226172508	 1.3072973307	 0.0069482743	-0.593164
C	-0.0317575889	-0.0302041013	 0.0001168714	 0.285463
C	-1.1174909736	-0.8535682778	 0.0013390072	-0.087848
C	-2.464007002	-0.4337725159	 0.0104861317	 0.201021
N	-3.5470144606	-0.0200956277	 0.0182560008	-0.355174
C	-0.654414593	-2.251792992	-0.0084546125	 0.408724
O	-1.2670892041	-3.2758022302	-0.0107956844	-0.332123
O	 0.7343315832	-2.2269519043	-0.0155080451	-0.237451
C	 1.2050629954	-0.8929772392	-0.0108494522	-0.154508
H	 0.8978239797	 1.8007557023	 0.0049538617	 0.280059
H	-0.8254247716	 1.8512163112	 0.0141329453	 0.293751
H	 1.8174222923	-0.7097645621	-0.9031730929	 0.145624
H	 1.8266200124	-0.7192294038	 0.8769948546	 0.145626
