23
gdb 121025	2.6067	1.085	0.86174	0.8905	87.59	-0.2318	0.0288	0.2606	1447.9661	0.205747	-388.293436	-388.283765	-388.28282	-388.328198	36.094	
C	 0.3393511183	 1.3199863877	-0.1854952871	-0.228204
O	 0.0884260393	-0.0491737902	 0.011247545	-0.230688
C	 0.870414622	-0.6079375193	 1.0487719639	-0.064336
C	 0.5342095143	-2.0956443855	 1.1541368818	-0.027187
C	 0.931517482	-2.8317659578	-0.156666414	-0.260639
C	 2.2605963279	-3.4595377161	 0.1872250832	-0.075206
C	 2.4834002579	-3.4569756476	 1.4994071871	-0.058216
C	 1.3408719385	-2.8314944334	 2.2749116088	-0.029126
C	 1.7772871706	-1.9974224356	 3.4869569967	-0.408162
H	 1.3902252882	 1.5098888673	-0.4576018414	 0.101637
H	-0.3029097424	 1.6585105105	-1.0025623077	 0.124417
H	 0.1095557571	 1.9128934552	 0.7146483397	 0.100975
H	 1.9439081663	-0.4679023698	 0.8333044219	 0.087686
H	 0.6563695731	-0.0884793843	 1.99618406	 0.083663
H	-0.5421971816	-2.1670393208	 1.3374696416	 0.073061
H	 0.1962722008	-3.6043810688	-0.4222533718	 0.099834
H	 0.9721777623	-2.1437829112	-1.0067101327	 0.114368
H	 2.9188137921	-3.8887599999	-0.5605622658	 0.08744
H	 3.3501049875	-3.8833685114	 1.9944120766	 0.084616
H	 0.7074653974	-3.644636691	 2.6635504798	 0.080371
H	 2.4577807469	-1.1877259296	 3.2059795551	 0.119169
H	 0.9177749053	-1.5566333269	 4.0027001532	 0.114239
H	 2.303361156	-2.6305175614	 4.2094200462	 0.110286
