16
gdb 7425	3.35767	1.51288	1.16369	1.9257	62.11	-0.2553	-0.0964	0.1589	1036.6815	0.12644	-420.910014	-420.900654	-420.89971	-420.944734	32.257	
C	 0.0886830291	 1.4868032918	 0.1372792904	-0.412164
C	-0.0442486144	-0.0469478853	 0.2023015657	 0.067416
O	-1.3949725439	-0.431652034	 0.2437836668	-0.438759
C	 0.6370683332	-0.7001411575	-0.9902869659	 0.250817
O	-0.0071521699	-1.2878951792	-1.8331127778	-0.308711
C	 2.1754364079	-0.6260085159	-1.1030988901	 0.315316
C	 2.7746816395	-1.2012196416	-2.3605318584	-0.474186
O	 2.8166414125	-0.1446344512	-0.1982528949	-0.271317
H	 1.132200616	 1.7969399951	 0.2197498404	 0.140862
H	-0.3357617017	 1.8692233289	-0.7963264699	 0.121543
H	-0.477894501	 1.9145699993	 0.9675628346	 0.139441
H	 0.4691963257	-0.3987384075	 1.1087057394	 0.11201
H	-1.5721054266	-0.8892478524	-0.5916927581	 0.291636
H	 2.3864325613	-0.6711037162	-3.2367112934	 0.157464
H	 3.8608971005	-1.1210086597	-2.3196825881	 0.146485
H	 2.4695760119	-2.2456649346	-2.4774745805	 0.162149
