16
gdb 42197	2.92496	1.37127	1.03432	4.5215	76.59	-0.2788	-0.082	0.1968	1130.3772	0.124251	-400.745178	-400.737118	-400.736174	-400.77833	29.701	
O	 0.1035363402	 0.2069061605	 0.9718341185	-0.302916
C	-0.0467764215	 1.2176080938	 0.3197609466	 0.207683
C	 1.097556223	 1.7734168076	-0.4429236956	 0.223871
N	 1.9905676048	 2.2082113539	-1.0352466775	-0.323854
C	-1.3013679411	 1.9593545038	 0.1786749862	 0.238778
C	-2.4410089984	 1.7048491424	 1.1442131325	-0.313722
C	-2.6606132835	 1.3079220544	-0.2663461851	-0.065115
C	-2.9435130534	 2.5206201249	-1.1583544737	-0.224619
C	-1.5954031458	 3.1747005865	-0.7103613939	-0.322515
H	-2.2526760421	 0.895553021	 1.8404164948	 0.151823
H	-2.9530041307	 2.5706190737	 1.5576319428	 0.123492
H	-2.7824342996	 0.2690431733	-0.5472383643	 0.121553
H	-2.9523956077	 2.2771291345	-2.2216434239	 0.122182
H	-3.8581051936	 3.0694561608	-0.9152457989	 0.113399
H	-1.6628031143	 4.130736006	-0.1834122931	 0.113051
H	-0.8887330562	 3.2797869129	-1.5353100956	 0.136912
