13
gdb 24740	3.79993	1.25421	0.94297	2.2934	77.76	-0.2453	-0.0772	0.1682	1143.9694	0.090151	-415.627343	-415.61983	-415.618886	-415.659808	27.437	
O	-0.0973114493	-0.0005197277	 0.0037090781	-0.339828
C	-0.0547114107	 1.2214203693	 0.0066480585	 0.144321
C	 1.1914116036	 1.9556685272	 0.0001968761	 0.307465
C	 2.248950765	 2.5285832229	-0.0054172888	-0.411015
C	-1.2884752072	 2.0101431957	 0.0171936182	 0.288248
N	-1.4380733314	 3.325931946	 0.0217537267	-0.308514
C	-2.783482582	 3.5354218626	 0.0315042939	-0.093165
C	-3.4634078691	 2.3310681479	 0.0329158003	-0.089455
N	-2.497289571	 1.3725828299	 0.023699177	-0.266149
H	 3.1796543395	 3.041617856	-0.0103418146	 0.214295
H	-3.2030330799	 4.5299519856	 0.0370495861	 0.121507
H	-4.5139799007	 2.0913265887	 0.0394504676	 0.145622
H	-2.5984616768	 0.369395136	 0.0216704609	 0.286668
