15
gdb 51299	3.25713	1.25568	0.91148	1.2001	72.68	-0.2384	-0.0358	0.2026	1194.2119	0.114359	-454.001077	-453.993408	-453.992463	-454.033684	28.271	
N	-0.218572362	 1.2410748299	 0.0063964055	-0.580271
C	-0.058642719	-0.0156428761	-0.0035295925	 0.368812
O	 1.1135137634	-0.7014345052	 0.0040859105	-0.239518
C	 0.8366464907	-2.1152450296	-0.0126013768	-0.135601
C	-0.6588567701	-2.2290307395	-0.0316489956	-0.221806
C	-1.1632608428	-0.9887389122	-0.0259932948	 0.349252
N	-2.4511980321	-0.4880222889	-0.036729834	-0.406696
C	-3.5946804492	-1.239143938	-0.0578989382	 0.146421
O	-3.6247898805	-2.4491851553	-0.0698291849	-0.303401
H	 0.6693328665	 1.7409427688	 0.021778689	 0.231524
H	 1.3170331411	-2.550656072	-0.8982495067	 0.134771
H	 1.295712756	-2.567423131	 0.8759481178	 0.13477
H	-1.2050381098	-3.1575505698	-0.0469966126	 0.153871
H	-2.5039647315	 0.5238049187	-0.0278536784	 0.274284
H	-4.4997702206	-0.6042325198	-0.0628623482	 0.093585
