21
gdb 84991	2.34939	1.46232	1.20325	4.1572	77.88	-0.2583	0.0194	0.2777	1163.5426	0.181728	-424.293203	-424.283726	-424.282782	-424.327183	35.712	
C	 0.4264679874	 1.4782616672	 0.158473799	-0.400351
C	-0.0732532439	 0.058985499	-0.077647452	 0.121263
C	 0.5490236756	-0.6670081714	-1.2947427882	-0.295621
C	 1.5581207843	-1.6672592098	-0.6939306281	 0.139781
C	 1.4683209069	-3.0715283061	-1.3072641684	-0.428152
C	 3.0144188868	-1.1627821876	-0.757632623	-0.429581
C	 1.1438391707	-1.7283603001	 0.7831477654	 0.42614
O	 1.5412142218	-2.4986952796	 1.6110952166	-0.358795
O	 0.2439585998	-0.7569282938	 1.0718101381	-0.229784
H	 1.5184258577	 1.5104628348	 0.2211894341	 0.128575
H	 0.110389914	 2.128081519	-0.6639359856	 0.121674
H	 0.0177376223	 1.8767833115	 1.0908194369	 0.135706
H	-1.1655149873	 0.0691877394	-0.1442517469	 0.09604
H	-0.227631454	-1.1979830497	-1.8517093903	 0.109949
H	 1.0191460488	 0.0398403111	-1.9830238575	 0.109555
H	 1.8035125203	-3.0567710102	-2.3495247436	 0.113285
H	 2.0978910001	-3.7672649689	-0.746526326	 0.141405
H	 0.4423266224	-3.4521704167	-1.2847081516	 0.118068
H	 3.1207926238	-0.1611083831	-0.3303647865	 0.122255
H	 3.672671418	-1.8366349979	-0.2026111683	 0.141256
H	 3.3523004645	-1.123929337	-1.7983382743	 0.117332
