21
gdb 87729	3.14287	1.13285	0.96121	1.2851	86.3	-0.2182	0.026	0.2442	1308.87	0.182295	-387.08762	-387.078643	-387.077699	-387.121522	34.834	
C	 0.1049998058	 1.6122732147	-0.027933302	-0.393583
C	 0.0074662633	 0.0824872906	 0.0335470043	-0.023638
C	 0.6375296859	-0.631968788	-1.1997651994	-0.307324
C	 1.4596244398	-1.7969062733	-0.6287653883	 0.320837
C	 1.3696590406	-3.2087537813	-1.200709971	-0.385428
C	 2.6136541026	-2.3836236147	-1.3963354295	 0.048718
O	 2.8770474392	-1.8068551405	-2.6428484252	-0.418977
C	 1.5247363172	-1.5526052932	 0.8353356937	-0.147935
C	 0.7470488375	-0.5346394621	 1.2018631802	-0.083304
H	 1.1503236906	 1.9326072517	-0.0961444891	 0.116909
H	-0.4258944457	 2.0044079419	-0.9019830088	 0.11232
H	-0.332033191	 2.0756536691	 0.8633717085	 0.107987
H	-1.058727699	-0.1787074323	 0.1121811528	 0.076071
H	-0.1181188912	-0.9633539408	-1.9160612766	 0.096037
H	 1.3012225425	 0.0549175561	-1.7350087599	 0.117481
H	 1.4045909787	-4.0545374132	-0.5211093241	 0.107561
H	 0.7259633495	-3.3398840248	-2.0651264684	 0.111588
H	 3.5017814192	-2.6654259535	-0.8286539306	 0.080957
H	 3.1191797805	-2.5113368913	-3.2529850923	 0.287533
H	 2.1296389214	-2.1602319601	 1.5004906039	 0.088968
H	 0.6210356428	-0.178353505	 2.2190817717	 0.087223
