20
gdb 118815	2.1032	1.12441	0.83929	4.0732	77.42	-0.2492	0.0033	0.2526	1415.3878	0.168454	-440.276272	-440.266087	-440.265143	-440.311859	36.262	
C	-0.1670689023	 1.6883872907	-0.4170955845	-0.453223
C	 0.0564961567	 0.2110772152	-0.1560006484	 0.286695
C	-1.0808617694	-0.5450572863	 0.5137548031	-0.241319
C	-1.5066410366	-0.0034407294	 1.8773923828	-0.081675
O	-2.5578812761	-0.8357242852	 2.3379213555	-0.415226
C	 0.924030633	-0.5647973585	-1.1150732989	-0.284261
N	 1.437484243	-0.1535672036	 0.1702558199	-0.089958
C	 1.8885853341	-1.0276903044	 1.1396490162	 0.134608
O	 2.5117719076	-2.0395248424	 0.9246775177	-0.292121
H	 0.6765750222	 2.112362023	-0.9665134798	 0.130688
H	-1.0784560903	 1.8396313027	-1.0053335826	 0.124993
H	-0.271705492	 2.2495519939	 0.5165937207	 0.12798
H	-1.9560531605	-0.5226040455	-0.1469626205	 0.117172
H	-0.8042287317	-1.5980341435	 0.6351676804	 0.123977
H	-0.6514040019	-0.015609537	 2.572462152	 0.090944
H	-1.8386146573	 1.0421780172	 1.7874082184	 0.091924
H	-2.846008057	-0.5138108126	 3.1969367248	 0.289519
H	 0.7293732468	-1.6262916735	-1.2469467197	 0.135783
H	 1.3463662416	-0.0617617571	-1.9812080882	 0.122541
H	 1.68100862	-0.6528187836	 2.160525481	 0.080958
