16
gdb 54921	4.76491	0.89373	0.79652	2.4507	70.05	-0.2582	-0.0375	0.2207	1380.275	0.12205	-437.89293	-437.883788	-437.882844	-437.928868	31.308	
C	-1.2024171659	 0.6702105773	-0.1913220906	-0.481332
C	 0.2813928412	 0.4221440637	-0.0582529323	 0.351646
O	 0.9708050451	 0.9009575501	 0.8114058885	-0.287345
C	 0.9095995501	-0.479889605	-1.1212589433	 0.04995
C	 2.1033798325	-1.3429326593	-0.6823066015	-0.309944
C	 1.1847583685	-2.5391686943	-1.0484026239	-0.000267
O	 0.1002242339	-1.6550793736	-1.4068849673	-0.29386
C	 1.6243406922	-3.3658895724	-2.1753103252	 0.278187
N	 1.9854153202	-4.0184078574	-3.0579001593	-0.311271
H	-1.4173844541	 1.1466193035	-1.1551349999	 0.147383
H	-1.7376088055	-0.2840886524	-0.1895110105	 0.163636
H	-1.5483533812	 1.308078285	 0.6222600811	 0.146701
H	 1.0709019063	 0.1135587816	-2.03246601	 0.118446
H	 3.0075506363	-1.2513208883	-1.2811586487	 0.142396
H	 2.3438419002	-1.2560241118	 0.3763041733	 0.149204
H	 0.9086914601	-3.1948535468	-0.2151684403	 0.136471
