23
gdb 111575	3.07047	1.33737	1.22197	0.1451	88.11	-0.2538	0.0814	0.3352	1167.9064	0.207924	-351.121095	-351.113067	-351.112123	-351.153622	32.595	
C	-0.0760727841	 1.5947459258	 0.0235615964	-0.37934
C	 0.1131798807	 0.0789638959	-0.1065593844	-0.204964
C	 0.6851809012	-0.5576795028	 1.1543969619	 0.058101
C	-0.1257659408	-0.5989770918	 2.4832020542	-0.057233
C	-1.5478013132	-1.2054117919	 2.3546896803	-0.232171
C	-0.946452296	-2.6304310912	 2.2815952477	-0.025184
C	-0.3208814752	-2.9586458303	 0.9037262013	-0.230408
C	 0.9185089099	-2.0915607975	 1.2465759848	-0.075018
C	 0.4386309579	-2.0438474924	 2.7438209385	-0.039714
H	 0.8749205593	 2.095148487	 0.2384327889	 0.111733
H	-0.4801430824	 2.0282423434	-0.8966056351	 0.109467
H	-0.7673421642	 1.8391050424	 0.8374524641	 0.118172
H	-0.8467067764	-0.385198415	-0.3620614508	 0.095365
H	 0.7845124664	-0.1376657448	-0.948758798	 0.091076
H	 1.6449188001	-0.0757931888	 1.3864707718	 0.064221
H	-0.0059621156	 0.2433849192	 3.166000844	 0.058068
H	-2.1022529093	-1.0677059505	 3.2882992296	 0.095619
H	-2.1856146908	-0.8758794644	 1.52710101	 0.088302
H	-1.4831758803	-3.430062266	 2.7939714295	 0.05814
H	-0.0384254074	-4.0148652572	 0.8509598961	 0.095191
H	-0.8993746077	-2.7148733853	 0.0061096099	 0.08814
H	 1.8901138759	-2.4634448612	 0.9168050571	 0.056488
H	 1.015009982	-2.3582004227	 3.6109326321	 0.05595
