16
gdb 42964	2.63306	2.00773	1.42317	4.7056	67.17	-0.245	-0.0289	0.2161	910.4292	0.126288	-437.855928	-437.849172	-437.848228	-437.887278	26.339	
O	 0.0015042184	 0.0011553342	-0.0562630597	-0.298677
C	-0.0018213349	 1.1983175699	-0.0399297207	 0.380558
C	-1.246258872	 2.0995916826	 0.0874099025	 0.011013
O	-1.6538525825	 2.244087515	 1.475151047	-0.291341
C	-1.4468815003	 3.6782302274	 1.4148067143	-0.092479
C	-0.7529579169	 3.5545233184	 0.044595037	-0.089345
C	 0.7716949383	 3.4251474984	 0.0253395747	-0.043278
C	 1.4820135043	 2.7287120856	 1.1230982779	-0.258702
N	 1.178512122	 2.009485682	-0.1445679955	-0.139995
H	-2.0692863102	 1.7741881972	-0.5558288148	 0.1047
H	-2.4034230904	 4.2133913948	 1.3857030903	 0.113469
H	-0.845672647	 4.0483264614	 2.2515179254	 0.113702
H	-1.1112914071	 4.2047533549	-0.7523445313	 0.093336
H	 1.3274230075	 4.1284494802	-0.5865397824	 0.107975
H	 2.5390463087	 2.9119907564	 1.2892731844	 0.13607
H	 0.9220147722	 2.4296202517	 2.003964771	 0.152993
