17
gdb 102838	2.74101	0.99671	0.7966	2.3044	66.21	-0.2745	-0.0034	0.2712	1393.0286	0.133929	-496.084046	-496.0748	-496.073856	-496.119671	32.129	
O	 0.2002732893	 1.14211419	-0.6846592937	-0.41716
C	-0.6147303583	 0.8918132486	 0.4347921119	-0.09095
C	-1.4316476613	-0.3970309248	 0.2614159737	 0.03414
O	-2.1159704544	-0.7002593279	 1.4887336648	-0.189483
C	-1.7091147291	-1.7706774469	 2.2049329054	 0.170376
O	-2.2069731646	-2.0743552341	 3.24485237	-0.267284
C	-2.4964593248	-0.3375217931	-0.8219580499	 0.074971
C	-3.3652157433	 0.82801233	-1.0175243099	-0.173968
O	-2.2712038651	 0.567526872	-1.9105388883	-0.240853
H	-0.3985171397	 1.2529584929	-1.4355247939	 0.29984
H	 0.046044292	 0.7579967557	 1.2973984787	 0.120286
H	-1.2832199734	 1.7328263668	 0.6737462751	 0.10303
H	-0.7276119018	-1.2051124216	 0.0215479103	 0.10525
H	-0.880613683	-2.3212429871	 1.7179542397	 0.085879
H	-2.8837627598	-1.3089635826	-1.1292628094	 0.113546
H	-4.3521626416	 0.6846707226	-1.4513118933	 0.134999
H	-3.2549482211	 1.7063918794	-0.3874536811	 0.137382
