18
gdb 33036	4.36535	0.83469	0.73375	4.6427	75.57	-0.2108	0.0279	0.2387	1551.0205	0.147719	-439.153588	-439.144648	-439.143703	-439.18801	32.42	
C	 0.1012525503	 1.5576937656	 0.1131258511	-0.383477
C	 0.0273381436	 0.0313511341	 0.0431949939	-0.161857
C	 0.5920805427	-0.5253950297	-1.2784513864	-0.302206
C	 0.5691536646	-2.0074409322	-1.3573328115	 0.369358
C	-0.0588617376	-2.8836520403	-2.1538126898	-0.216723
N	 0.314020982	-4.1593617352	-1.7226383633	-0.360862
C	 1.1761532027	-4.066682866	-0.6550743973	 0.475031
O	 1.7118210932	-4.9287980909	-0.014062154	-0.401649
O	 1.3296259792	-2.7082413495	-0.4330096157	-0.247148
H	 1.1360982659	 1.9086019414	 0.0330845979	 0.118649
H	-0.4691892526	 2.0224985162	-0.6990392621	 0.113591
H	-0.3035606439	 1.9295526333	 1.0590124696	 0.117935
H	 0.5830121438	-0.4103025295	 0.8773868649	 0.123222
H	-1.011813987	-0.3012910153	 0.1528129947	 0.101233
H	 0.020847935	-0.1318243394	-2.1271199385	 0.110737
H	 1.6246309454	-0.1709719294	-1.4029885865	 0.120475
H	-0.7285471623	-2.7215080276	-2.9804643757	 0.147518
H	 0.029121835	-5.0424134157	-2.1060792713	 0.276174
