19
gdb 69663	3.48334	1.4641	1.21107	1.4121	82.58	-0.2241	0.007	0.2312	1075.4692	0.159757	-385.836597	-385.828927	-385.827983	-385.868411	30.513	
C	 0.0292290714	 1.5866201484	 0.227197197	-0.501226
C	 0.0537548461	 0.1027057125	-0.0031672363	 0.296133
C	-0.8847390768	-0.8469475966	 0.6770756503	-0.313415
C	 0.6065291253	-1.0432073916	 0.8989933612	-0.218834
C	 1.0784050481	-1.7576702135	-0.3374218258	 0.260544
C	 1.0682752802	-2.8622585838	-1.0724502974	-0.261479
C	 0.74889474	-2.4199894692	-2.5038002565	-0.109937
O	 0.2315902415	-1.0763252802	-2.3919189885	-0.283956
C	 0.7941416495	-0.5693639673	-1.1949082668	 0.047433
H	 1.0050171101	 2.0389674652	 0.0177398571	 0.118796
H	-0.7096231539	 2.0727083528	-0.420955066	 0.128965
H	-0.2354345439	 1.8235036368	 1.2630504835	 0.1176
H	-1.4246798659	-0.4218204584	 1.5188648461	 0.11138
H	-1.43935655	-1.5913285326	 0.1142576645	 0.120608
H	 1.0639907538	-0.9894718661	 1.8783040618	 0.098412
H	 1.1382515427	-3.9010703419	-0.7766695407	 0.104185
H	 1.6295563109	-2.4319028619	-3.1678544155	 0.099749
H	-0.0222771407	-3.0490623676	-2.9644147538	 0.113581
H	 1.6910620416	 0.0377049151	-1.4102162942	 0.071461
