23
gdb 88431	2.0722	1.50852	1.09734	1.6869	85.93	-0.2546	0.0832	0.3378	1249.886	0.203448	-388.270818	-388.260657	-388.259713	-388.305545	38.42	
C	-1.4703968797	-0.8698893475	 2.4039374802	-0.409671
C	-0.6741041134	-0.9181646403	 1.1170288253	 0.01059
C	-0.5463470609	 0.3073875524	 0.248376556	-0.310666
C	 0.6875449094	-0.284805867	 0.8958489185	-0.085665
C	 1.5080792296	 0.5068266262	 1.8825367665	 0.36891
C	 2.1567764829	 1.7441778935	 1.2925939961	-0.449663
O	 0.9855162022	 0.6924610045	 3.2092269193	-0.293143
C	 2.1488576311	-0.1328086402	 3.0500392712	 0.02944
C	 2.0355958201	-1.5922232425	 3.4065387775	-0.429415
H	-1.3220081906	 0.0690352347	 2.9373047566	 0.142249
H	-2.5373976225	-0.9853604325	 2.1810173942	 0.105981
H	-1.1871114021	-1.6791716256	 3.0855624851	 0.109914
H	-0.8003965905	-1.8506239177	 0.5703230786	 0.080234
H	-0.6687230688	 0.2254292783	-0.8262430141	 0.105624
H	-0.9225130731	 1.2348985499	 0.6702293403	 0.115184
H	 1.32820966	-0.8387819185	 0.2114373607	 0.086009
H	 1.3948583679	 2.4434914459	 0.9342741298	 0.125217
H	 2.7707927715	 2.254700537	 2.038874402	 0.121294
H	 2.7909829366	 1.4787103406	 0.4395405779	 0.117013
H	 3.0593303445	 0.3459001459	 3.4192336091	 0.079293
H	 1.1734054662	-2.0594765741	 2.9294053888	 0.137474
H	 2.939907381	-2.1246695201	 3.0911518158	 0.117561
H	 1.9410064285	-1.7126158031	 4.4910471149	 0.126233
