16
gdb 49671	2.67521	1.36584	1.20049	4.0019	71.41	-0.2543	-0.0336	0.2207	1073.2678	0.125292	-437.8977	-437.890127	-437.889183	-437.930176	28.373	
N	-0.1065676121	 1.2254015101	 0.318543855	-0.538739
C	-0.0290055312	 0.0077001025	 0.0026768821	 0.414188
O	 1.1303065822	-0.6384460368	-0.3599139562	-0.246304
C	 0.8444030025	-1.9149948242	-0.956182862	-0.114935
C	-0.6125597863	-2.2135666461	-0.6453384026	-0.097339
C	-1.0443817878	-2.2178488486	 0.8094005336	-0.128818
C	-0.0960415919	-2.326906562	 1.9512690895	 0.150202
O	-0.3374876885	-2.9800995756	 2.9370474171	-0.265131
C	-1.1661274987	-0.9533709536	-0.0533625754	-0.135364
H	 0.803453818	 1.6803657671	 0.2308907568	 0.229061
H	 0.9986831062	-1.8441409827	-2.0392320322	 0.127338
H	 1.5513415149	-2.6444029692	-0.5506282524	 0.132003
H	-1.1728271951	-2.8259311252	-1.3405280787	 0.119452
H	-1.9869797422	-2.7180827855	 1.0056297633	 0.122529
H	 0.8571031477	-1.7691293601	 1.8506779288	 0.099081
H	-2.1542714376	-0.5593105602	-0.2435171865	 0.132776
