18
gdb 38355	2.32263	2.15273	1.4106	1.3352	71.71	-0.2401	0.004	0.2441	943.1574	0.15017	-439.06004	-439.052914	-439.05197	-439.0914	28.524	
C	 0.0012550497	 1.6588219701	 0.2445671993	-0.278093
C	 1.5419464659	 1.5268801601	 0.0757006001	 0.123529
C	 1.391214533	-0.0099189272	 0.2261932607	-0.247655
C	-0.1459814012	 0.1233353743	-0.0189347468	 0.023043
N	-0.6454676072	-0.2874054889	-1.3147804569	-0.233094
C	-0.0514625694	-0.1501703746	-2.4170632776	 0.098352
O	 1.1270054237	 0.4702816625	-2.7436472749	-0.235846
C	 1.3620325502	 1.8158031895	-2.3134852037	 0.018209
O	 2.1098863939	 1.9498825074	-1.1581846007	-0.240326
H	-0.2461039737	 1.9078611432	 1.2798179299	 0.111116
H	-0.5518321329	 2.3356419223	-0.4075719245	 0.114749
H	 2.149622565	 2.025468234	 0.832957269	 0.088858
H	 1.960383797	-0.6216490861	-0.4739166751	 0.123356
H	 1.6014616245	-0.3378922503	 1.2475318583	 0.103565
H	-0.7648867845	-0.3853534026	 0.7231355871	 0.085742
H	-0.4774282004	-0.6189488684	-3.3057773643	 0.118951
H	 1.9661129738	 2.2637672436	-3.104701381	 0.125573
H	 0.3921248025	 2.3244360912	-2.2451725888	 0.099971
