23
gdb 75197	2.44292	1.57575	1.16265	0.2691	91.6	-0.2138	0.0326	0.2465	1186.4742	0.204964	-351.175162	-351.165697	-351.164752	-351.208379	37.266	
C	 0.0037163703	 1.4975744922	 0.0522727009	-0.500026
C	-0.0265547529	 0.0014433115	-0.0040514937	 0.283298
C	 0.0076654236	-0.7630186444	-1.1002763619	-0.188361
C	-0.0414380013	-2.2387230451	-0.7827960244	-0.330221
C	-0.0103398376	-2.288370857	 0.7489894979	 0.306294
C	-0.7368456855	-3.4258903561	 1.42752321	-0.481985
C	 1.2063869662	-1.682219576	 1.4104392464	-0.365638
C	-0.0517829773	-0.842703262	 1.2433977652	 0.227422
C	-0.8289148492	-0.3691039339	 2.4500849156	-0.491781
H	 0.8740020219	 1.8576549069	 0.6162775707	 0.124543
H	 0.0440504335	 1.9328803717	-0.9498777874	 0.120974
H	-0.8821342584	 1.8999699952	 0.5591165324	 0.124818
H	 0.0855680538	-0.3850900879	-2.1143818649	 0.080744
H	-0.9584851745	-2.7050753201	-1.1728525022	 0.097266
H	 0.7946237003	-2.7922453807	-1.2316585017	 0.102463
H	-0.2876872993	-4.3901162344	 1.1601728502	 0.116281
H	-0.6996340975	-3.3428406304	 2.5178248951	 0.112246
H	-1.7916534811	-3.4611477438	 1.1301353697	 0.113309
H	 1.4374698094	-2.0362179402	 2.4118653266	 0.098104
H	 2.0751644929	-1.4325740307	 0.8087759865	 0.102711
H	-0.4111210648	 0.5604907374	 2.8537591535	 0.117018
H	-1.8802148755	-0.1801388295	 2.2029013218	 0.115471
H	-0.8055947773	-1.1093011926	 3.2548831037	 0.115053
