25
gdb 117536	2.09004	0.98891	0.7077	0.5309	95.57	-0.2575	0.0551	0.3127	1713.3694	0.225727	-352.339405	-352.327746	-352.326802	-352.376456	42.735	
C	-0.055631759	 1.5928299071	 0.0765676606	-0.381415
C	-0.0757730266	 0.0635385922	 0.004368077	-0.173615
C	 0.7132625501	-0.4810589128	-1.1912501909	-0.182887
C	 0.7335584492	-2.0266593661	-1.2856762642	-0.159363
C	-0.6338909211	-2.545152566	-1.3647963569	 0.337426
C	-1.7639913097	-2.9476476507	-1.4572051699	-0.471844
C	 1.5926541838	-2.5671620789	-2.4706752512	 0.037429
C	 3.0309777842	-2.0306622064	-2.4400209888	-0.402439
C	 1.6072985206	-4.1021073064	-2.4861474194	-0.397074
H	 0.967517184	 1.9757015347	 0.1648439107	 0.110853
H	-0.4969474116	 2.0373821673	-0.8225317361	 0.114112
H	-0.6220703991	 1.9575259647	 0.9391341661	 0.111514
H	 0.3420735993	-0.3525352185	 0.931126392	 0.091296
H	-1.1102282511	-0.2920181222	-0.0505787323	 0.113726
H	 0.29786212	-0.0761522511	-2.1234704172	 0.09884
H	 1.7450965696	-0.1216234438	-1.1233943968	 0.097364
H	 1.1863354657	-2.4099458402	-0.3575192139	 0.095844
H	-2.7588299569	-3.3125725435	-1.525249872	 0.191439
H	 1.113648079	-2.2205603469	-3.396367176	 0.081088
H	 3.517234903	-2.2616402485	-1.4841457683	 0.111317
H	 3.6242639734	-2.500808323	-3.2308522978	 0.111586
H	 3.0829664518	-0.9500390626	-2.5924859615	 0.118151
H	 2.0999971627	-4.495438877	-1.5883275216	 0.108527
H	 0.5958483757	-4.5129439129	-2.5220987978	 0.13009
H	 2.1595660228	-4.4736504288	-3.3551715341	 0.108034
