20
gdb 105905	2.24306	1.76177	1.21781	1.5233	78.52	-0.2205	0.0663	0.2867	1101.9685	0.169045	-403.032817	-403.024227	-403.023283	-403.065937	32.958	
C	 1.3381898276	-0.4472594166	 1.4437308329	-0.377263
C	 0.4158135745	 0.0820029537	 0.3384557077	-0.341206
C	 0.8722685671	-0.3037632067	-1.037104626	 0.346078
N	 2.2092744187	 0.0442877091	-1.6263348885	-0.152778
C	 2.4216675057	 1.4621592139	-1.9054186068	-0.330723
C	 1.561490604	-0.7263109504	-2.7248000269	-0.069911
C	 0.9025462671	-1.709370193	-1.7215153455	 0.030302
O	-0.4339312591	-1.601756715	-2.2860128231	-0.330285
C	 0.0959633142	-0.2519070058	-2.4162500301	 0.007855
H	 1.3606135747	-1.5416888007	 1.4456457462	 0.12049
H	 2.3639220109	-0.0966384204	 1.2984477858	 0.133431
H	 0.996998324	-0.1161247577	 2.4287944795	 0.11336
H	-0.602850171	-0.3031670677	 0.4692701417	 0.119956
H	 0.3443043599	 1.1757666888	 0.3995227382	 0.104472
H	 2.6599320302	 1.9858154599	-0.974060375	 0.122235
H	 3.2807081968	 1.5722018479	-2.5752281899	 0.122316
H	 1.5585629743	 1.9686532743	-2.3716337814	 0.095672
H	 2.0374319893	-0.9336037608	-3.6840077201	 0.088427
H	 1.2512149519	-2.6705121094	-1.3472783814	 0.101199
H	-0.545870011	 0.5022463365	-2.8717049373	 0.096371
