19
gdb 65215	3.15519	1.34661	1.21292	2.171	74.08	-0.2381	0.0614	0.2995	1094.5608	0.158395	-422.957558	-422.949376	-422.948432	-422.990282	32.312	
O	 0.6217785717	 0.7695602076	-1.4272012746	-0.465037
C	 0.1346578504	-0.021044411	-0.3730051023	 0.378955
C	 1.0993831543	-1.0334658471	 0.1557271516	-0.30577
C	 0.722613921	 0.1678153416	 1.0026277705	-0.321912
C	-1.3151072954	-0.392403966	-0.5823986058	 0.066477
O	-1.9504484251	-1.0440766408	 0.5547519816	-0.303784
C	-3.0446843114	-0.1235259259	 0.4782658275	 0.112551
C	-2.6114743678	 1.2762934442	 0.7677018049	-0.304016
C	-2.4003871234	 0.6915818812	-0.617974852	-0.17109
H	 0.2214514705	 1.6426293366	-1.3411915852	 0.286048
H	 0.7103584905	-2.0013994076	 0.451463116	 0.127506
H	 2.0837227763	-1.0437394558	-0.2975200937	 0.121394
H	 1.4622595929	 0.9532391438	 1.1121278249	 0.109791
H	 0.0900253202	-0.0091316316	 1.8635296254	 0.126588
H	-1.3951312901	-1.0397355075	-1.4655150564	 0.09182
H	-4.0453001617	-0.5192338619	 0.6045836635	 0.106787
H	-3.4169173319	 2.0029758342	 0.8175219826	 0.116529
H	-1.7799995814	 1.4659749331	 1.4370349992	 0.124711
H	-2.8312196796	 1.116636023	-1.5138551477	 0.102453
