15
gdb 20383	4.88088	2.03031	1.47145	2.9775	66.86	-0.1855	0.0269	0.2124	812.6564	0.124074	-358.848036	-358.841952	-358.841008	-358.878099	23.806	
C	 0.020391412	 1.4436141568	 0.0750697329	-0.158316
C	 1.505427212	 1.9016365789	-0.1148457944	-0.35031
C	 2.1842370934	 0.575738209	 0.0305735175	 0.337695
C	 1.2920799526	-0.459490079	-0.0811773323	 0.225772
N	-0.0253144957	 0.0013431783	-0.3069393707	-0.410036
C	 2.0670493877	-1.6335169581	-0.0393041277	-0.143252
N	 3.3665433969	-1.329436309	 0.0923266358	-0.229298
N	 3.4172683883	 0.0206239326	 0.1092681486	-0.323949
H	-0.2569687057	 1.5779867799	 1.1303376258	 0.102452
H	-0.6748269848	 2.0247908111	-0.5361835317	 0.11095
H	 1.6636148116	 2.3332337163	-1.1123897803	 0.121732
H	 1.7871619827	 2.6622124546	 0.6195201009	 0.114605
H	-0.7387682358	-0.5018577756	 0.2063916072	 0.23015
H	 1.767718832	-2.6696271749	-0.0844891192	 0.103403
H	 4.3115286828	 0.4667020691	 0.2160490276	 0.268403
