12
gdb 133513	3.14211	1.10364	1.0186	2.6747	48.85	-0.2834	-0.0713	0.2121	1123.8456	0.072034	-604.102619	-604.094403	-604.093459	-604.137084	27.95	
F	 0.0866474536	 0.0033583697	-0.0104730814	-0.040595
C	 0.1598069042	 1.3191118267	 0.0778457491	 0.217253
F	 1.3792784561	 1.661422146	 0.5200351652	-0.07452
F	 0.0069718849	 1.8496503507	-1.1469129944	-0.07753
C	-0.9185540158	 1.900109586	 1.0278917508	 0.23791
O	-1.6565366158	 1.1800355388	 1.6411096874	-0.275343
C	-0.9530128786	 3.400139585	 1.0809205573	-0.032607
C	-2.2763256699	 4.0642291725	 1.1074763797	-0.160562
O	-1.4899631368	 3.9522277508	 2.2776721905	-0.20301
H	-0.1018486274	 3.9279230483	 0.6573840339	 0.128375
H	-2.3644847923	 5.0620921152	 0.6817615532	 0.135487
H	-3.1673804622	 3.4402390002	 1.0839420685	 0.145142
