15
gdb 49848	2.86821	1.50768	1.17068	3.8371	67.42	-0.2439	-0.0427	0.2012	1030.3284	0.112965	-453.937957	-453.93041	-453.929466	-453.970346	28.123	
N	-0.0551974327	 1.2060200289	 0.3964793473	-0.545695
C	 0.0124468554	 0.002865194	-0.0058495721	 0.402062
N	 1.115057585	-0.7450284848	-0.4224824557	-0.351496
C	 0.7843211009	-2.105462443	-0.8065236321	-0.104091
C	 1.5646197197	-3.1383878026	-0.0067971963	 0.170832
O	 2.4508643271	-2.8503785787	 0.7531613301	-0.242214
C	-0.7268041811	-2.1983374675	-0.5989211318	 0.006471
O	-1.0972041731	-2.0187581106	 0.7628081241	-0.239445
C	-1.1880688196	-0.8870341415	-0.1276121822	-0.016554
H	 0.8648363436	 1.6511806799	 0.4023777202	 0.212629
H	 1.9932447225	-0.6262676254	 0.0645834958	 0.257228
H	 1.007412358	-2.2997960272	-1.8704036119	 0.112257
H	 1.2772418143	-4.1939840969	-0.2017007237	 0.095332
H	-1.3291892459	-2.881914775	-1.1886826091	 0.115125
H	-2.1775348239	-0.4754258297	-0.2862228126	 0.127557
