14
gdb 2473	5.40636	2.76153	2.53883	3.0411	58.3	-0.2554	0.0314	0.2868	587.3888	0.116396	-324.567893	-324.562755	-324.56181	-324.59659	20.776	
N	-0.0705923652	 1.2232390014	-0.0212946214	-0.575995
C	-0.0653989449	-0.0352811376	-0.0068018152	 0.456612
O	 1.041701027	-0.8645850331	-0.0261789488	-0.265517
C	 0.4186010944	-2.1839843747	 0.0054888962	 0.101336
C	-0.7118924471	-2.0383408117	-1.0376614658	-0.234082
C	-1.2182623447	-1.0073304542	 0.0347166544	-0.125132
C	-0.6557895777	-2.0134623278	 1.1027569835	-0.234082
H	 0.8847551228	 1.5855496665	-0.0505467044	 0.223195
H	 1.1908872678	-2.9494242699	-0.0058568994	 0.094047
H	-0.4381805873	-1.6642264358	-2.0260384593	 0.117997
H	-1.3532979447	-2.9180581761	-1.1091619762	 0.111873
H	-2.2204046831	-0.5902138608	 0.056136007	 0.099879
H	-1.2920334017	-2.8908911261	 1.2281696949	 0.111873
H	-0.3309103254	-1.6166582903	 2.0664834947	 0.117997
