14
gdb 101976	1.88582	1.54606	1.23526	2.3523	64.12	-0.2757	-0.0831	0.1926	1078.4321	0.095863	-473.817487	-473.807717	-473.806773	-473.852666	32.422	
C	-0.1097043371	 1.4388708161	 0.1198235719	-0.271852
O	-0.0464540062	 0.0123005545	 0.0341940018	-0.267365
C	 0.5294367429	-0.5290259251	-1.1085006129	 0.059021
C	 2.0769324428	-0.3322708059	-1.198681964	 0.138801
O	 2.6988084879	 0.2507759588	-0.3612920375	-0.221307
C	 0.3100619614	-2.0677373313	-1.0020487249	 0.134356
O	 0.7018874576	-2.8458665421	-1.8204049874	-0.223834
C	-0.0585809669	-0.0439197607	-2.3706718357	 0.251488
N	-0.5081051212	 0.3667994047	-3.3531435861	-0.318002
H	 0.8894863514	 1.8798457376	 0.1438470242	 0.151078
H	-0.6857182735	 1.8554205298	-0.7149596083	 0.142016
H	-0.6269311732	 1.6523187114	 1.0559369343	 0.147313
H	 2.5296648449	-0.8116596972	-2.0885679482	 0.142288
H	-0.2164377207	-2.3392446108	-0.0662827171	 0.136
