23
gdb 39092	3.17637	1.59139	1.35964	0.1665	87.91	-0.2699	0.0825	0.3525	1057.3753	0.210709	-351.158287	-351.151149	-351.150205	-351.189415	30.773	
C	-0.1275315372	 1.5385191392	 0.1274030237	-0.270963
C	 1.4129565237	 1.4336759776	-0.0048911024	-0.043565
C	 1.7684714025	 0.699620921	 1.3133936482	-0.209861
C	 0.6373045432	-0.3982581164	 1.3262336896	-0.31062
C	-0.0378117792	-0.0245334582	 0.0044122704	 0.400639
C	-1.0799240856	-0.7976496637	-0.7719162943	-0.339659
C	-0.9344965595	-0.2312578574	-2.215303483	-0.203361
C	 0.5201272448	 0.3470258258	-2.3447149145	-0.269133
C	 1.1706646535	 0.2224396416	-0.9502389751	 0.021832
H	-0.5360827762	 1.9499397273	 1.0559555268	 0.081149
H	-0.6092962394	 2.0161113817	-0.7261922557	 0.096462
H	 2.0374940154	 2.2865420295	-0.2771720072	 0.050527
H	 2.7700167731	 0.2595410536	 1.2878024811	 0.093083
H	 1.7179021673	 1.3661686314	 2.1794742469	 0.092014
H	 1.0418362022	-1.4153908034	 1.3138988309	 0.090982
H	-0.023338951	-0.3093970272	 2.1942492864	 0.091078
H	-0.8366701764	-1.8679299596	-0.7503104468	 0.09311
H	-2.0998756435	-0.6906221058	-0.3880499327	 0.092712
H	-1.1373921996	-0.9961839607	-2.9702355132	 0.094194
H	-1.6696552479	 0.5626641917	-2.3787356831	 0.10074
H	 1.1007617075	-0.2184918156	-3.0782319561	 0.096909
H	 0.4943092012	 1.3787982304	-2.7079729274	 0.100131
H	 1.9597135711	-0.5382166326	-0.9429082524	 0.051598
