17
gdb 56843	3.16571	1.18985	1.01459	4.5455	73.26	-0.2485	0.005	0.2535	1184.3146	0.136696	-417.91917	-417.911106	-417.910161	-417.952591	30.103	
O	 0.3623525006	 1.3119570956	-0.3201391186	-0.403906
C	 0.0424601473	-0.056434807	-0.1293820201	-0.087715
C	 0.5065159341	-0.8786317305	-1.2658624572	 0.275943
N	 0.9105367528	-1.4891462855	-2.1596653993	-0.317864
C	 0.6448907594	-0.5729074961	 1.179967257	 0.076276
C	 0.047472917	-0.2222289256	 2.5635331003	-0.081393
C	-1.0482385903	-1.2549091783	 2.2243584876	-0.180033
N	 0.2229540541	-1.9616722818	 1.7044747521	-0.150967
C	 0.8428009419	-1.4634942454	 3.0282265787	-0.169592
H	 1.3152548441	 1.3863303808	-0.4496800215	 0.297306
H	-1.0490459565	-0.092999343	-0.1153890772	 0.139523
H	 1.7364500127	-0.4940469527	 1.100959851	 0.080317
H	-0.0451971901	 0.7591455498	 3.0384850525	 0.081021
H	-1.5176891627	-1.7844047721	 3.0566928105	 0.111887
H	-1.7901774038	-1.0292014644	 1.4576024905	 0.109103
H	 1.9348970761	-1.4193609324	 3.0094875654	 0.109208
H	 0.4779424532	-2.0075114813	 3.9021955882	 0.110885
