13
gdb 4097	3.63253	1.87296	1.26723	1.7934	59.37	-0.2398	-0.0795	0.1603	884.1224	0.094807	-435.696079	-435.68893	-435.687985	-435.727791	25.662	
O	-0.0499412603	 1.3316809382	-0.0929171301	-0.343113
N	 0.0284475722	-0.0416044622	-0.029897352	-0.198573
C	-1.1084259167	-0.6209903707	 0.0305957225	 0.27119
C	-1.2362996939	-2.1231780966	 0.0989479517	-0.15517
O	-2.5732736295	-2.3978059808	-0.317719441	-0.251349
C	-3.4007734632	-1.3118856352	 0.0610032362	-0.18457
C	-2.5072081632	-0.068276266	 0.055986619	 0.306078
O	-2.8677217912	 1.0793123988	 0.086872046	-0.289628
H	 0.8778647971	 1.5914777948	-0.1438553438	 0.318921
H	-0.5500868137	-2.6458161491	-0.5709018102	 0.141309
H	-1.064429659	-2.4870944985	 1.125610336	 0.116321
H	-4.2263374009	-1.2188017904	-0.6492834706	 0.145514
H	-3.8251439877	-1.4456928221	 1.0710631163	 0.12307
