15
gdb 3179	5.68874	2.27659	1.91785	2.3131	56.37	-0.2487	0.0776	0.3263	686.9109	0.125921	-345.632413	-345.626201	-345.625257	-345.662883	23.074	
C	-0.0371639976	 1.4949345839	-0.0140763544	-0.252232
O	 1.1770429292	 0.7365359873	 0.0321862243	-0.265399
C	-0.0644402645	 0.0313668406	 0.0199463261	 0.41919
C	-0.4143121378	-0.823568983	 1.2391805392	-0.317702
C	-1.0533153254	-2.0678262678	 0.5972306776	-0.080348
O	-0.4759972448	-2.1624068668	-0.7003369593	-0.242955
C	-0.3891903671	-0.8369127715	-1.1953048509	-0.150733
H	-0.2711427647	 2.0622527885	 0.8863440088	 0.114082
H	-0.2230548474	 2.0227547803	-0.9499443103	 0.113469
H	 0.5119373899	-1.0788748701	 1.7616035621	 0.130927
H	-1.0790164933	-0.3180864528	 1.9436868581	 0.109085
H	-0.840877262	-2.9986716937	 1.1273640483	 0.115878
H	-2.1474032754	-1.9505479881	 0.5242129018	 0.090366
H	-1.3470526128	-0.525885055	-1.6464224337	 0.090243
H	 0.3950036036	-0.7888545718	-1.9544235077	 0.12613
