23
gdb 86336	1.94258	1.54933	0.96154	1.6387	85.38	-0.2472	0.0762	0.3234	1304.0115	0.205455	-388.267019	-388.257393	-388.256449	-388.301424	36.868	
C	-0.939995913	 1.119755205	 0.0242862247	-0.407428
C	 0.0301977191	-0.0474134575	-0.0848412619	 0.032545
C	 1.4229507333	 0.1730930314	-0.7402299709	-0.284239
C	 1.9963387808	-0.8597318845	 0.2647611202	 0.158871
O	 3.2968513899	-0.7231844958	 0.7747449964	-0.436026
C	 0.758387047	-0.6060466798	 1.1869524865	-0.077107
C	 1.0199405652	 0.4036763105	 2.2804067608	 0.018045
C	 0.1694307332	 0.4225923254	 3.5272687089	-0.284625
C	 1.5956702305	-0.0570183654	 3.6023950913	-0.275119
H	-0.4848731842	 1.9845495167	 0.5174065006	 0.110828
H	-1.2676143494	 1.4427533257	-0.9701903106	 0.112555
H	-1.8340097425	 0.8455538609	 0.5950315491	 0.114731
H	-0.4709953793	-0.8828781404	-0.5866105664	 0.072806
H	 1.5376418853	-0.0250498012	-1.8087901528	 0.094571
H	 1.8068827953	 1.1781495117	-0.5296524302	 0.090494
H	 1.9502228562	-1.8664890557	-0.1618624372	 0.08549
H	 3.3096169609	 0.0501454597	 1.3483752977	 0.280893
H	 0.3151492224	-1.5027017108	 1.6336219974	 0.055771
H	 1.3568803479	 1.3812469042	 1.9423855598	 0.080238
H	-0.0751237547	 1.3816186057	 3.9701728862	 0.111805
H	-0.6202223091	-0.3172743902	 3.6073291483	 0.113842
H	 1.7707922106	-1.1200498114	 3.7277663316	 0.121321
H	 2.3233089347	 0.5732399758	 4.1022487005	 0.109736
