19
gdb 105707	2.4751	1.1008	0.91631	4.5469	73.08	-0.2647	-0.0018	0.2628	1328.7184	0.15774	-460.164312	-460.154786	-460.153841	-460.199672	34.212	
O	 0.3897054121	 1.2175939859	-0.3275210677	-0.422061
C	 0.1199053716	-0.0980496576	 0.1147822908	-0.133332
C	-1.3628340618	-0.4391013303	 0.152881105	 0.33225
C	-2.130834282	 0.1770883962	 1.2960543013	-0.176407
O	-1.9999450889	 1.6161760501	 1.2898530736	-0.193382
C	-3.0485483886	 2.3551146518	 0.871762723	 0.181965
O	-2.9916691922	 3.5397064206	 0.7471889151	-0.270173
C	-2.0716235188	-0.6309623328	-1.1647010644	-0.28998
C	-1.7927241331	-1.8212267535	-0.2830353574	-0.319826
H	-0.0901382709	 1.8221847727	 0.250080165	 0.296947
H	 0.6265795263	-0.7626181232	-0.5929395191	 0.104565
H	 0.5605812429	-0.2883002715	 1.108582942	 0.085425
H	-3.1928802431	-0.0952109442	 1.2555955033	 0.110363
H	-1.7301010333	-0.1456063898	 2.2622355404	 0.128609
H	-3.9506513532	 1.7426343692	 0.678974409	 0.08255
H	-3.0999278679	-0.2959238698	-1.2556580628	 0.11092
H	-1.483935611	-0.502216009	-2.0663693108	 0.133926
H	-1.0171126687	-2.5179752166	-0.5819190482	 0.123479
H	-2.6281576694	-2.287387858	 0.2296415219	 0.114164
