18
gdb 102866	1.90886	1.26256	0.87904	5.8585	70.2	-0.2439	-0.0155	0.2284	1331.3421	0.145161	-476.249078	-476.238855	-476.23791	-476.285935	34.788	
O	-0.0673297454	 1.6909590546	 0.1116309194	-0.424517
C	 0.2278515227	 0.2997970692	 0.1442849854	-0.101586
C	-1.0910606967	-0.4482113041	-0.0407014978	 0.01601
C	-2.0468668388	-0.2306723204	 1.1531676724	-0.268497
C	-3.3198656883	-1.0477504756	 1.0470480441	 0.161499
O	-4.4266103065	-0.5778677995	 1.1090979625	-0.245891
N	-1.6872632478	-0.0298890632	-1.301156891	-0.268901
C	-2.3714815131	-0.8820862973	-2.1051888985	 0.16148
O	-2.5381412371	-2.0638086024	-1.8759148026	-0.336215
H	 0.7576229832	 2.18361529	 0.1376927231	 0.298563
H	 0.9151338994	 0.0218172147	-0.6674579041	 0.104562
H	 0.6861821332	 0.0075235697	 1.1003470222	 0.099577
H	-0.8772546794	-1.5172230931	-0.1368116354	 0.120258
H	-1.5277608273	-0.5526492027	 2.0677974569	 0.114595
H	-2.3059025619	 0.8252775435	 1.2582082391	 0.131378
H	-3.1620948626	-2.1396896376	 0.914605736	 0.09382
H	-1.6357708492	 0.9516964002	-1.5272290427	 0.259685
H	-2.7607390943	-0.3803335961	-3.011767379	 0.084179
