22
gdb 6039	2.95038	1.46055	1.27193	2.5002	77.94	-0.2361	-0.0076	0.2284	1112.0773	0.196663	-350.237857	-350.227416	-350.226472	-350.273198	37.888	
C	 0.1294886423	 1.5558301066	-0.0526268636	-0.411739
C	-0.0283526447	 0.031639986	-0.0629727292	-0.170089
C	-1.475882041	-0.5090301149	 0.0320822884	 0.155167
C	-2.155991597	-0.0367073135	 1.3400795519	-0.420071
C	-2.3181995684	-0.0620721962	-1.1787169105	-0.429867
C	-1.4076381152	-2.0535126474	 0.1109718444	 0.379234
C	-2.6656877788	-2.8550908265	-0.196319634	-0.48529
O	-0.3878043048	-2.6246982374	 0.4246581118	-0.31052
H	 1.1890223731	 1.8196137763	-0.1287859285	 0.116635
H	-0.3832463978	 2.0360831206	-0.8921303217	 0.113569
H	-0.2490088311	 2.005414776	 0.8707546483	 0.115944
H	 0.4248552792	-0.3698471687	-0.9776210168	 0.094869
H	 0.5470268443	-0.4022151508	 0.7591476381	 0.115489
H	-2.2794376866	 1.0500227654	 1.3370727514	 0.122946
H	-3.1517125822	-0.4750004223	 1.4597444616	 0.113609
H	-1.5577888404	-0.3099624549	 2.2149375697	 0.127718
H	-1.8809652558	-0.4100755364	-2.1209743155	 0.116952
H	-3.345210513	-0.4332719191	-1.1238839738	 0.114334
H	-2.3740700932	 1.029301563	-1.2223043313	 0.122071
H	-2.838575882	-2.8696093213	-1.2783717053	 0.144951
H	-2.5226799391	-3.8798642296	 0.1485588759	 0.140605
H	-3.5602392474	-2.4264761746	 0.2640342487	 0.133481
