18
gdb 7153	4.48766	0.79106	0.69838	0.7266	73.56	-0.25	0.0389	0.2888	1606.187	0.150594	-384.905905	-384.895478	-384.894534	-384.943028	34.917	
C	-0.04668501	 1.4718832017	-0.0275251579	-0.499908
C	 0.0064124852	 0.0172181559	-0.0146806254	 0.101182
C	 0.0572230829	-1.1860354489	 0.0125037576	 0.031531
C	 0.0825623021	-2.6506476671	-0.0010966552	-0.069042
O	-1.2244902183	-3.2039936494	 0.1776278224	-0.419412
C	 0.7589628719	-3.1871393879	-1.2749737922	-0.171376
C	 0.8601844682	-4.7069389534	-1.283071376	-0.081459
O	 1.496465069	-5.0882093305	-2.4946017358	-0.425509
H	 0.7595361145	 1.9012114977	 0.5773505993	 0.15209
H	 0.0530330316	 1.8681820408	-1.043906473	 0.149391
H	-0.9955873265	 1.8365715361	 0.3808673184	 0.151177
H	 0.646530896	-3.0077590736	 0.8709180871	 0.112166
H	-1.8104501353	-2.7500105389	-0.438341318	 0.282304
H	 0.1930369115	-2.8558513289	-2.1537814848	 0.103626
H	 1.7614715443	-2.7540633379	-1.3607586487	 0.114865
H	 1.4385561772	-5.0433174163	-0.4058915376	 0.08173
H	-0.1451640947	-5.1410496921	-1.1970459713	 0.101721
H	 1.5070431805	-6.0487278272	-2.5358681288	 0.284923
