19
gdb 68431	2.65115	1.58808	1.24124	1.3571	80.74	-0.2503	0.045	0.2953	1059.6191	0.159258	-385.8482	-385.839928	-385.838984	-385.880761	32.909	
O	-0.1268829933	 1.3807522606	-0.0245296624	-0.484367
C	-0.0563872316	-0.0048781808	 0.016214737	 0.432118
C	 0.3580944599	-0.8125671801	 1.2889518795	-0.2922
C	-0.4276719371	-1.9381429224	 0.561982073	-0.021094
C	-1.3714895017	-0.8178618326	 0.0365890774	-0.26563
C	 0.4623241582	-2.2149567012	-0.6663935101	-0.230474
C	 0.775784068	-0.7309534363	-1.0896013494	-0.253637
C	 0.3967715218	-0.3833064607	-2.4484636008	 0.328018
C	 0.0817627183	-0.0941546841	-3.5726532685	-0.457738
H	 0.7316176268	 1.7323563683	-0.2828188823	 0.282206
H	 1.4229964943	-0.9678844676	 1.4914215597	 0.082346
H	-0.1523069566	-0.4396950812	 2.178940686	 0.103248
H	-0.8143478534	-2.8023380962	 1.0991413779	 0.067121
H	-2.057979716	-0.4504641525	 0.8018563591	 0.10478
H	-1.8937950081	-0.9703868517	-0.9110517806	 0.104589
H	 1.3718813926	-2.7678411556	-0.4164342987	 0.101297
H	-0.0636416968	-2.7539920655	-1.4572835926	 0.114607
H	 1.8413305522	-0.5068380079	-0.9499682304	 0.091841
H	-0.1973899076	 0.1635740675	-4.5640989936	 0.192967
