13
gdb 49970	2.20506	1.38638	0.98703	2.5681	62.02	-0.2746	-0.1008	0.1739	1148.0931	0.084075	-493.681538	-493.672673	-493.671729	-493.716052	29.68	
O	-0.1565860897	 0.6460978477	 0.6898418318	-0.230498
C	 0.3663875902	 0.9099803129	-0.3617549903	 0.130454
C	 1.5592347175	 1.8250846654	-0.4319432949	-0.07728
O	 2.3727103147	 1.7370146222	-1.5757958841	-0.228068
C	 1.6413215103	 2.9446749743	-1.4498212525	 0.179166
C	 0.5219171299	 3.1733730084	-2.4324879966	 0.101422
O	 0.004004942	 2.3061619466	-3.0839959417	-0.239335
C	 2.4420649989	 4.1513152762	-1.0164277741	 0.102508
O	 3.4826711136	 4.0702957472	-0.4229030707	-0.22981
H	 0.0349263548	 0.5013406563	-1.3330978058	 0.137513
H	 2.0745498754	 2.0095792661	 0.5105017812	 0.15075
H	 0.2030984367	 4.2349013361	-2.5153858475	 0.102529
H	 1.9849180857	 5.1305843007	-1.2739924047	 0.10065
