16
gdb 9860	5.5988	0.9368	0.86143	1.4655	89.52	-0.228	-0.0095	0.2185	1335.2425	0.128242	-309.409039	-309.400482	-309.399537	-309.441979	31.771	
C	-0.0414207138	 1.5096199587	 0.0051970484	-0.455723
C	 0.0065532366	-0.0124890616	-0.0020620047	 0.11908
C	 1.3541146636	-0.6919542141	-0.2242271709	-0.28423
C	 0.7311937036	-0.7181310824	 1.1398294685	-0.28423
C	-1.153426738	-0.6583724761	-0.5441204607	 0.421591
C	-2.1466697732	-1.1762142783	-1.0076038712	-0.300096
C	-3.2551155186	-1.7695407926	-1.5254162848	 0.299978
C	-4.2406084428	-2.2949056024	-1.986549912	-0.585194
H	 0.879331188	 1.916822673	 0.4338342433	 0.115884
H	-0.1491527717	 1.9023039283	-1.0103856357	 0.1317
H	-0.8853223637	 1.8714397614	 0.6002832184	 0.131702
H	 1.3640596575	-1.6088254954	-0.8009474255	 0.130324
H	 2.2027140209	-0.0381189069	-0.3943093786	 0.120794
H	 1.1490292655	-0.0824244293	 1.9130309613	 0.120792
H	 0.3152660881	-1.6528960092	 1.4956060025	 0.130321
H	-5.1057125518	-2.7585543731	-2.3905556784	 0.187306
