17
gdb 68643	2.45497	2.03717	1.53734	4.1487	71.21	-0.2467	-0.0237	0.223	916.8343	0.137403	-421.868876	-421.86174	-421.860796	-421.900074	28.775	
C	-0.0243623458	 1.5307962091	 0.0166554815	-0.492411
C	-0.008302418	 0.0186547726	-0.0407405169	 0.114825
C	 0.7373305395	-0.7268974653	-1.1899626157	-0.259484
C	 0.3988803017	-2.0956570452	-0.5840693553	 0.045745
O	 0.9761712358	-1.9506887089	 0.7657844851	-0.247381
C	 0.7231422188	-0.6650133306	 1.1419428317	 0.452289
O	 1.0353899867	-0.2040554995	 2.2011897797	-0.359505
C	-1.1154410472	-1.9885649307	-0.4373900901	-0.089229
C	-1.3530987084	-0.7218733685	-0.0910787393	-0.110353
H	 0.9916040878	 1.9343613467	-0.0151951173	 0.129924
H	-0.5886016354	 1.9505151761	-0.8216441673	 0.117202
H	-0.481414101	 1.8714297826	 0.9501831044	 0.140541
H	 0.2843546564	-0.5530110064	-2.1672959409	 0.114781
H	 1.8135858705	-0.5311908294	-1.2206631622	 0.115025
H	 0.8207641018	-2.9969287675	-1.0210845039	 0.094002
H	-1.8110757293	-2.81306567	-0.5062908348	 0.116408
H	-2.292551884	-0.2660246151	 0.1934847614	 0.117619
