13
gdb 131902	4.44541	1.14961	0.91432	5.8751	71.25	-0.2201	-0.0838	0.1364	1166.1292	0.090639	-486.016956	-486.009494	-486.008549	-486.049145	27.629	
N	 0.0012409093	 1.3733212814	 0.1492619412	-0.596706
C	-0.0093096536	-0.0092523163	 0.0490916442	 0.3147
C	-1.1029343205	-0.8710441006	 0.0260823477	-0.161244
N	-0.563139875	-2.1302025721	-0.0075639029	-0.267175
C	 0.7781184278	-1.9753499446	 0.0013129322	 0.482641
N	 1.1554620369	-0.7159116377	 0.0317849236	-0.330222
N	 1.6251877454	-3.1311790382	-0.0286493681	 0.350545
O	 1.0401688459	-4.2207053479	-0.065383017	-0.406765
O	 2.8332691413	-2.9677675954	-0.0169852076	-0.340625
H	 0.8989504988	 1.7632482743	-0.1037208468	 0.263244
H	-0.7559251326	 1.8399229474	-0.3288092431	 0.252245
H	-2.1654932092	-0.6981479555	 0.0374229577	 0.144366
H	-1.0251640744	-3.0254379849	-0.0340424012	 0.294995
