21
gdb 117787	2.45374	0.97203	0.85542	3.415	79.1	-0.2417	0.03	0.2717	1466.7124	0.180388	-420.401961	-420.39091	-420.389966	-420.438178	39.346	
C	 0.1802599022	 1.3915893062	 0.093966102	-0.338793
N	-0.0596459098	-0.0475303245	 0.0380134719	-0.299696
C	-1.4578544617	-0.4957052169	-0.0469700737	 0.079834
C	-2.2361768913	 0.0663120349	-1.2618853936	-0.416205
C	-1.4229716455	-2.0454030998	-0.0685157939	-0.226398
C	-2.7793346732	-2.7570697308	-0.0248270806	-0.085278
O	-2.622906487	-4.1666624773	-0.0303262467	-0.414168
C	-2.1390477322	-0.054291727	 1.1919511607	 0.314849
N	-2.6916960128	 0.2884967139	 2.1472941565	-0.356349
H	 1.2547178631	 1.5571858592	 0.2113719054	 0.128454
H	-0.1556470971	 1.9595077031	-0.7879439613	 0.10355
H	-0.3167988596	 1.8086470797	 0.9749301811	 0.150943
H	 0.4499188277	-0.4601406131	-0.7360836845	 0.222362
H	-1.7691027988	-0.2923349978	-2.1848993582	 0.119255
H	-3.2813007468	-0.2528142175	-1.255604679	 0.139616
H	-2.2240058954	 1.1581093612	-1.2663402268	 0.137106
H	-0.8953425821	-2.3558746549	-0.978707844	 0.106992
H	-0.8137557521	-2.3691465881	 0.7825794571	 0.116923
H	-3.3591287869	-2.4175973604	 0.8457531503	 0.116523
H	-3.3678731893	-2.5275467356	-0.9181333453	 0.115043
H	-2.2253126913	-4.4229296644	 0.8080335024	 0.285434
