15
gdb 20863	3.2663	1.85732	1.29174	4.6685	62.97	-0.2453	-0.0255	0.2198	933.9084	0.119209	-395.95083	-395.943108	-395.942164	-395.983127	27.995	
C	 0.0620384166	 1.5198859161	 0.1218205375	-0.382764
C	-0.0869205564	 0.0014186021	-0.0813459701	-0.305301
C	 0.7033674079	-0.5168036256	-1.2407476205	 0.309227
N	 0.1668517169	-0.8379999935	-2.3852941087	-0.143663
O	 1.1821375112	-1.2603229352	-3.1889678499	-0.163814
N	 2.3962830363	-1.1937941573	-2.5365747723	-0.165854
C	 2.1173937652	-0.7478895076	-1.3396610656	 0.275598
N	 3.0575294663	-0.6244935943	-0.3342193823	-0.590911
H	 1.1046588797	 1.8103822546	 0.2923038096	 0.111016
H	-0.2920826764	 2.0646287185	-0.7576400201	 0.141444
H	-0.5187422272	 1.8491247617	 0.9879895321	 0.127388
H	 0.2297730823	-0.5269543888	 0.8260820671	 0.121656
H	-1.138607035	-0.2468568994	-0.2468983602	 0.138487
H	 4.0093087806	-0.6915020754	-0.6689275519	 0.26727
H	 2.927610372	 0.1753676942	 0.2681334953	 0.260222
