20
gdb 18107	3.38535	2.16201	1.65583	0.1489	78.43	-0.2337	0.0313	0.265	861.7542	0.18112	-311.902658	-311.895969	-311.895025	-311.933656	27.163	
C	-0.1061355295	 1.3542469112	 0.1950539637	-0.195086
C	 1.2980992115	 1.9743774639	 0.1027212923	-0.210315
C	 2.2690600372	 0.8085649566	 0.4099932217	-0.001501
C	 2.6507900037	 0.6663947664	 1.914899356	-0.264869
C	 2.0292560246	-0.638235654	 2.3421172579	-0.065502
C	 1.4102077935	-1.2599569828	 1.3416855305	-0.064672
C	 1.4695686979	-0.4980423441	 0.0408609475	-0.044768
C	 0.0824572287	-0.019253889	-0.4665314714	-0.208379
H	-0.3938440791	 1.2269743047	 1.2454187653	 0.102176
H	-0.878256594	 1.9622218622	-0.2853034574	 0.089547
H	 1.46572549	 2.3371465497	-0.9188546283	 0.090666
H	 1.4412893561	 2.8280913864	 0.7723149908	 0.089358
H	 3.1762947225	 0.9021935173	-0.1908804998	 0.065377
H	 3.7389904998	 0.6582507269	 2.0611501741	 0.100418
H	 2.2773872827	 1.5081320295	 2.514120637	 0.098603
H	 2.1005545617	-1.0095396215	 3.3594244484	 0.086627
H	 0.8946285321	-2.2120871505	 1.4223266914	 0.085382
H	 1.9708440028	-1.0926208088	-0.7319102952	 0.067033
H	-0.7168695546	-0.7286030344	-0.2309224884	 0.089629
H	 0.1036708425	 0.0956055204	-1.5570618261	 0.090274
