15
gdb 27627	2.98824	1.31183	0.91763	2.5142	78.84	-0.2015	-0.0024	0.199	1214.2696	0.111956	-416.823702	-416.81507	-416.814125	-416.856703	32.094	
C	 0.1615549206	 1.468206605	 0.0646175877	-0.504923
C	-0.0189998901	 0.000828337	 0.0097763481	 0.248004
C	-1.0933921574	-0.83125168	-0.0658121068	 0.056703
N	-0.6582707843	-2.1687972979	-0.0760848465	-0.390662
C	 0.6287191549	-2.0660697949	-0.016998312	 0.443767
N	 1.5629312135	-3.0683917997	-0.0714009415	-0.599793
O	 1.1084264155	-0.7981763347	 0.0401386203	-0.209692
C	-2.4567741758	-0.4629916444	-0.1206334532	 0.220257
C	-3.6147444888	-0.1355498166	-0.1659623804	-0.422476
H	 0.7557497715	 1.835171525	-0.7804662556	 0.141287
H	-0.8190129032	 1.947655273	 0.031712375	 0.153483
H	 0.6693894666	 1.7807293399	 0.9847238832	 0.138959
H	 1.1749287226	-3.9760582627	 0.1391089736	 0.27325
H	 2.4242180681	-2.873214473	 0.4177098761	 0.264747
H	-4.6376344536	 0.145572024	-0.206864728	 0.18709
