18
gdb 32844	5.29696	0.77984	0.71964	1.2664	75.4	-0.2124	0.009	0.2214	1590.208	0.147675	-439.130793	-439.121857	-439.120913	-439.165523	32.431	
C	-0.0957989281	 1.5286333748	 0.0639802956	-0.382472
C	-0.056601229	-0.0005720628	 0.0458093357	-0.166649
C	 0.8339610155	-0.5775231608	 1.164344252	-0.292951
C	 0.8752906263	-2.0655352718	 1.1721223259	 0.397726
N	 1.8753158351	-2.8469047473	 0.8801357643	-0.388278
C	 1.3705890945	-4.1236905843	 1.0220236225	 0.317691
O	 2.1339943111	-5.2098821999	 0.800326953	-0.430243
C	 0.0694771471	-4.0680092872	 1.3970051409	-0.156352
O	-0.2533688581	-2.7295003213	 1.4950395861	-0.17636
H	 0.9052125468	 1.9533507318	-0.0697634865	 0.118208
H	-0.7318757475	 1.9161444326	-0.7373985724	 0.117304
H	-0.4905998614	 1.9042432218	 1.0145319315	 0.117332
H	-1.0695742404	-0.4035151453	 0.1554481142	 0.114666
H	 0.3160284867	-0.3547425753	-0.9225022798	 0.110263
H	 1.862563407	-0.2241059692	 1.051902612	 0.129863
H	 0.4683968096	-0.221953601	 2.1360085513	 0.121254
H	 3.0076398835	-4.8845241116	 0.5518987247	 0.30586
H	-0.6997156489	-4.7829950533	 1.6200948591	 0.143139
