16
gdb 72340	2.39639	2.26504	1.65064	2.92	66.79	-0.2507	0.02	0.2707	864.589	0.124755	-437.856527	-437.849615	-437.848671	-437.887501	27.449	
C	-0.0830497942	 1.5310312224	-0.030468993	-0.478802
C	 0.0153526461	 0.02640279	 0.0233016623	 0.377924
O	-1.2101094047	-0.5902160972	-0.4203800521	-0.253945
C	-1.5117197967	-1.5172796385	 0.5309943633	 0.119266
N	-0.7936482742	-1.6402039707	 1.5726372106	-0.261159
C	 0.3125763243	-0.715882684	 1.3756782652	-0.117161
C	 1.5857415837	-1.3056059008	 0.7131199183	 0.029759
O	 1.1701777164	-2.0270109662	-0.442721447	-0.22092
C	 1.2952168758	-0.6149369954	-0.5648670091	-0.043899
H	 0.8528042812	 1.9848863144	 0.3111202321	 0.126334
H	-0.2733086491	 1.8710841902	-1.0535002163	 0.135847
H	-0.8949455132	 1.888501994	 0.6089732327	 0.136219
H	-2.4109129873	-2.0852979765	 0.3195328027	 0.140229
H	 0.5148948665	-0.0944951937	 2.2512137155	 0.086647
H	 2.5266132789	-1.5902145858	 1.1690674982	 0.115128
H	 1.9507722266	-0.2306588422	-1.3390219434	 0.108534
