19
gdb 93730	2.51486	1.25015	1.09269	1.9143	71.67	-0.2408	-0.0267	0.214	1193.8887	0.156979	-460.175394	-460.165912	-460.164967	-460.210316	34.44	
C	 0.1652533044	 1.5002018512	 0.1981491405	-0.441641
C	 0.0396713944	-0.017095414	 0.0529464208	 0.289459
C	 0.678499352	-0.5972627297	-1.212085313	-0.286754
C	 1.2312614774	-1.9436401382	-0.7390220529	 0.089465
O	 2.3098220384	-2.3462766282	-1.5592113219	-0.427805
C	 1.6314170169	-1.6142076725	 0.7100163254	-0.104663
O	 0.6867598812	-0.6579292573	 1.176532021	-0.306446
C	-1.4387038491	-0.4020964221	 0.1804973908	 0.138536
O	-2.1654398316	-0.6908624299	-0.7337904379	-0.254981
H	 1.2221729938	 1.7801680456	 0.2224439662	 0.130043
H	-0.3180557289	 2.0100036881	-0.6410796542	 0.13278
H	-0.300168112	 1.840592189	 1.1283648655	 0.128021
H	-0.0508192426	-0.6877482706	-2.017901599	 0.134882
H	 1.5143502196	 0.0225630683	-1.5511080862	 0.112828
H	 0.4305334698	-2.6975973888	-0.7441145608	 0.085113
H	 2.5348861102	-3.2558986096	-1.3417748886	 0.288088
H	 1.6102899891	-2.4770831126	 1.3843512568	 0.101464
H	 2.6492580423	-1.1960094649	 0.7057938278	 0.100241
H	-1.7900219152	-0.3979705839	 1.2364273796	 0.091369
