19
gdb 91103	3.10824	1.69976	1.35021	1.7012	80.47	-0.2203	-0.0012	0.2191	985.2867	0.161611	-385.84735	-385.840248	-385.839304	-385.87842	29.559	
O	-0.2853716442	 1.3753082601	-0.182078028	-0.431435
C	-0.0014676793	-0.0008843296	-0.0800623298	 0.083933
C	 0.3613098054	-0.4898091543	 1.3861742865	-0.262368
C	-0.166083219	-1.9415324659	 1.4816510483	-0.042862
C	-1.6481046399	-2.4427271849	 1.4378365714	-0.044809
C	-2.8809079269	-1.5396840621	 1.3405062152	-0.266575
C	-2.4053799848	-0.4886762943	 0.3516774064	-0.112621
C	-1.2391118014	-0.8510735914	-0.2015806363	 0.098587
C	-0.8533942947	-2.2639989957	 0.18527987	-0.126448
H	 0.5290112967	 1.8614702549	-0.0228124418	 0.285722
H	 0.7977089092	-0.2933254454	-0.7783319639	 0.067493
H	 1.4425237208	-0.4761605882	 1.5715352212	 0.087819
H	-0.1117945152	 0.2085200228	 2.0840852225	 0.106795
H	 0.4995159306	-2.6693548879	 1.9368664638	 0.080561
H	-1.7705042203	-3.4360378803	 1.8617741213	 0.076756
H	-3.7609439684	-2.1243348984	 1.0342812474	 0.10432
H	-3.1503871236	-1.0493105489	 2.285435299	 0.107724
H	-2.7607421761	 0.5348570758	 0.3817682151	 0.107425
H	-0.568122879	-3.0266034162	-0.5307014882	 0.079981
