24
gdb 113384	2.57372	0.96756	0.80342	1.462	86.44	-0.2403	0.063	0.3033	1566.8409	0.216036	-405.5282	-405.517218	-405.516273	-405.564567	40.146	
C	 3.6701778506	 0.3276553623	-0.1334995494	-0.375286
C	 2.1707801844	 0.0193378707	-0.2275662284	-0.195837
C	 1.8715734801	-0.9543649254	-1.3467713517	-0.043265
N	 2.0746343296	-2.3851966336	-1.0702815507	-0.367652
C	 0.7185677103	-1.9055749628	-1.4039264313	 0.294185
C	-0.304378711	-2.0047375601	-0.2822410665	-0.237711
C	-0.8843063522	-3.4152169021	-0.1044451838	-0.403311
C	 0.21157357	-2.2835442491	-2.7963877546	-0.162446
O	 0.4324242494	-3.6526907716	-3.1229148217	-0.414905
H	 4.2378909307	-0.5902609246	 0.0475058084	 0.130152
H	 4.0430351844	 0.7758770433	-1.0614011398	 0.110062
H	 3.8816932353	 1.0259489717	 0.6819182083	 0.110082
H	 1.8275017352	-0.393598746	 0.7250302654	 0.104708
H	 1.6079542701	 0.9466542174	-0.3971001777	 0.093627
H	 2.2107860663	-0.5964232189	-2.3207965761	 0.073248
H	 2.4619229151	-2.8740003666	-1.8746720468	 0.233892
H	 0.1641597178	-1.7005811151	 0.6567159859	 0.108189
H	-1.118012617	-1.2929812805	-0.4756191878	 0.094218
H	-1.5462032826	-3.4608020821	 0.7656204048	 0.117374
H	-1.4826763523	-3.7272959962	-0.9693786621	 0.108821
H	-0.0813443431	-4.1440677409	 0.0476914083	 0.134301
H	-0.853008487	-2.0200107917	-2.8898810163	 0.091793
H	 0.7539357724	-1.7244516798	-3.5648446045	 0.108786
H	-0.0264789067	-4.1916953083	-2.4712204016	 0.286975
