14
gdb 28983	3.07479	1.54144	1.02696	2.7167	79.93	-0.2313	-0.0546	0.1767	1069.4504	0.103954	-395.818234	-395.810764	-395.80982	-395.850107	28.254	
N	-0.033924025	 1.3544579712	 0.097903709	-0.577109
C	 0.0110602848	-0.0018958816	 0.0344135041	 0.366633
N	-1.1639258966	-0.6459643408	 0.0266910818	-0.336432
C	-1.1517295628	-1.9767489726	 0.0026491475	 0.009849
C	 0.0039697173	-2.7554548494	-0.0194605727	-0.144697
C	 1.2242389271	-2.0957529914	-0.0206330376	-0.149242
C	 1.2508479734	-0.7010110988	 0.0056079682	 0.077776
C	 2.4690820993	 0.0326263953	-0.0011485803	 0.20496
N	 3.4292324719	 0.6830508717	-0.0112772901	-0.35355
H	 0.7936661738	 1.8992295219	-0.0758740591	 0.278431
H	-0.9322189076	 1.7865920999	-0.0376815323	 0.267868
H	-2.1296807688	-2.4530191391	-0.0017835677	 0.118832
H	-0.0547602867	-3.8360051259	-0.0394910257	 0.108688
H	 2.16019517	-2.6424814704	-0.0430169149	 0.127991
