15
gdb 3587	4.73112	3.26011	2.57156	1.8629	58.88	-0.2538	0.083	0.3368	579.4512	0.127339	-308.493663	-308.488413	-308.487469	-308.522312	21.576	
C	-0.0823043226	 1.4439091081	 0.1188243967	-0.280352
C	 1.2975422587	 0.8446651355	 0.0460370907	-0.041095
C	 2.0534824311	 0.5065266559	 1.3365760456	-0.257981
C	 1.2102821033	-0.5405843007	 2.0529537413	 0.045083
O	-0.1030148079	-0.1017709849	 2.4293284619	-0.25429
C	 0.0381744811	-0.8704636136	 1.223910826	 0.033615
C	 0.0701820012	-0.0501695097	-0.0458847463	-0.058895
H	-0.4475717286	 1.7996349665	 1.0740867225	 0.13481
H	-0.420304894	 2.0053629487	-0.7455986645	 0.105447
H	 1.8888082066	 1.0566826	-0.8379925451	 0.085048
H	 3.0293084718	 0.0693463273	 1.0947614334	 0.104238
H	 2.236870358	 1.3810618215	 1.9705265204	 0.115464
H	 1.6761509666	-1.2364528827	 2.7477814678	 0.092666
H	-0.4493447748	-1.841299867	 1.2349073093	 0.093312
H	-0.2289294706	-0.5298597849	-0.9699781896	 0.082929
