18
gdb 11124	6.33519	1.03506	0.96161	2.1374	68.76	-0.2427	-0.0303	0.2124	1228.9511	0.151763	-384.935917	-384.927235	-384.926291	-384.97031	30.259	
C	 0.3995082709	 1.3890449505	-0.0515680787	-0.38276
C	 0.1635837415	-0.1137693932	 0.1231030602	-0.188826
C	-1.2469759231	-0.5287438172	-0.25069041	 0.170653
C	-1.7174446687	-1.9470115596	 0.1449153233	-0.323779
C	-2.7886224725	-1.2088400336	 0.9642091268	 0.060574
O	-2.2503210593	 0.0834595742	 0.6181665488	-0.315837
C	-4.2212694125	-1.3330173678	 0.4801550589	 0.131104
O	-4.6968685387	-2.3347178592	 0.0122203995	-0.23594
H	 1.4113582254	 1.66859341	 0.2555619811	 0.114307
H	 0.271016055	 1.6915325187	-1.0966807945	 0.115256
H	-0.3114390646	 1.959159724	 0.5530470426	 0.137646
H	 0.8634274946	-0.6873459199	-0.499465271	 0.099882
H	 0.3511572827	-0.4062691022	 1.1638496168	 0.09868
H	-1.4548273672	-0.2672588702	-1.2977367574	 0.080554
H	-2.1126345474	-2.578283712	-0.6512634356	 0.131002
H	-0.9948837562	-2.510700834	 0.7371295004	 0.112896
H	-2.777335322	-1.3794452201	 2.051741096	 0.103299
H	-4.8051026378	-0.3911005784	 0.5879094827	 0.091291
