21
gdb 38472	3.4066	1.61972	1.47377	0.3762	86.14	-0.249	0.0915	0.3405	986.5616	0.186519	-349.87561	-349.869095	-349.868151	-349.905921	29.069	
C	 0.0376991771	 1.5179605907	-0.1430583719	-0.299755
C	 1.3509428037	 0.8002466209	 0.0103050933	-0.011343
C	 1.9376067501	 0.6376337001	 1.4323271462	-0.372553
C	 0.816893991	-0.0826269756	 2.1739005784	 0.319923
C	 0.5654894167	-1.2671403469	 3.1603082347	-0.296966
C	-0.8224267473	-0.9584597947	 2.4849581487	-0.096288
C	-0.5170800878	 0.5314844613	 2.7446646559	-0.253331
C	-0.0108060498	-0.8599759914	 1.1376250458	 0.051395
C	 0.0286091752	 0.0033220543	-0.1108693629	-0.109883
H	-0.3382411198	 2.123708195	 0.6690313364	 0.114183
H	-0.1644946261	 1.9486416124	-1.1193008264	 0.106742
H	 2.052397049	 0.8372258243	-0.8165670898	 0.079296
H	 2.8391984258	 0.0156973062	 1.3875592927	 0.103114
H	 2.2199686463	 1.5955760139	 1.8821899863	 0.100754
H	 1.0391803141	-2.2203011283	 2.9082739628	 0.089296
H	 0.6308539463	-1.0539718464	 4.2307577472	 0.087886
H	-1.7602726514	-1.4821235598	 2.6755038578	 0.067309
H	-0.4823082838	 0.8418304463	 3.7934791332	 0.081853
H	-1.071966679	 1.2502607173	 2.148795247	 0.097965
H	 0.4218178566	-1.8305627192	 0.8612123519	 0.059917
H	-0.2029247668	-0.4812628903	-1.0538889673	 0.080488
