16
gdb 66204	2.37909	1.5441	1.41751	3.4297	68.92	-0.267	0.007	0.274	997.8807	0.126237	-434.079004	-434.07086	-434.069916	-434.111611	30.268	
N	-0.0277361669	 1.4498633527	 0.0695622435	-0.52852
C	 0.0252130662	-0.0099305612	-0.0208077971	 0.017807
C	 0.7355046732	-0.5490337259	 1.2349940583	-0.074569
O	 0.6895777278	-1.9714945216	 1.2956845966	-0.218527
C	-0.4866914722	-2.533649952	 0.9175742787	 0.139109
N	-1.4827890473	-1.9940191891	 0.3591368468	-0.262267
C	-1.4104914186	-0.5871594393	 0.0036653105	-0.1687
C	 0.7379107112	-0.4702875036	-1.2338107234	 0.268739
N	 1.3073932818	-0.7658073652	-2.1958567304	-0.336771
H	 0.8985489139	 1.8463934256	-0.0687484553	 0.24668
H	-0.6081523546	 1.8198664504	-0.6788208703	 0.248921
H	 1.7923211667	-0.2744914556	 1.2538662048	 0.132746
H	 0.2355795639	-0.116632873	 2.1086795804	 0.134559
H	-0.4830796483	-3.5948582876	 1.1543529155	 0.137434
H	-1.9875007805	 0.0091247942	 0.7205922641	 0.134798
H	-1.8828840862	-0.4563064187	-0.9759929125	 0.128561
