12
gdb 42650	3.0998	1.46862	1.22265	2.4748	64.8	-0.2617	-0.0428	0.2189	970.0617	0.077382	-435.433726	-435.427057	-435.426113	-435.46515	25.125	
O	 0.0096046808	 0.0549795725	 0.0135424954	-0.306201
C	-0.0005142492	 1.2450196343	 0.0727730921	 0.490595
C	-1.0679480503	 2.3081160925	-0.0058549386	-0.295299
C	-0.4005951697	 3.5273836533	 0.6121155123	 0.047284
O	 0.8448441873	 3.1377089756	 1.1842089058	-0.271245
C	 1.082525361	 2.3558419607	-0.0149059482	-0.138784
C	-0.0187429046	 3.1903283443	-0.7921415933	 0.225861
C	-0.1149937055	 3.804277434	-2.058923124	 0.148984
N	-0.1801488468	 4.3114651586	-3.0976476432	-0.342607
H	-2.1278594302	 2.2281126195	-0.2005243629	 0.149934
H	-0.9382012869	 4.3715752162	 1.0223715531	 0.155351
H	 2.1258353242	 2.1982489184	-0.2697366086	 0.136127
