21
gdb 86362	2.08423	1.29589	0.89487	3.8742	80.74	-0.2769	0.0101	0.2871	1358.9597	0.180577	-424.248998	-424.239082	-424.238137	-424.284819	35.607	
C	-0.675689973	 0.8820289973	-1.6148002496	-0.416077
C	 0.2828802964	-0.1757185537	-1.0922194909	 0.020081
C	 1.8150393117	 0.0072324497	-1.2903699602	-0.253809
C	 2.0381312668	-0.5681062591	 0.1377256414	 0.020082
C	 3.105774306	 0.0366572064	 1.0350443908	-0.416076
C	 0.538397108	-0.2820961029	 0.4392522696	 0.085408
O	 0.3741199512	 0.9892033487	 1.0793881429	-0.186467
C	-0.3849418719	 1.0660216495	 2.186846893	 0.170645
O	-0.5703072992	 2.0879212036	 2.7764340647	-0.279673
H	-0.4227113247	 1.8705128959	-1.2225554307	 0.136605
H	-0.634985222	 0.9271462984	-2.7081855002	 0.1179
H	-1.7106932598	 0.6623584803	-1.329981533	 0.114531
H	-0.0181243454	-1.1664465464	-1.4513124413	 0.078955
H	 2.2846473592	-0.5149687584	-2.1271353113	 0.097669
H	 2.086397847	 1.0667524908	-1.3396156035	 0.110437
H	 2.1669007954	-1.6549206818	 0.079929716	 0.078952
H	 2.9606124629	 1.1141993983	 1.1482079174	 0.136597
H	 3.0911626486	-0.4111270063	 2.0349902119	 0.114525
H	 4.1011632567	-0.1317024609	 0.6107304401	 0.117898
H	-0.0226006526	-1.0396805631	 0.9981806607	 0.07484
H	-0.8099812311	 0.0865291236	 2.4816574823	 0.076976
