20
gdb 57264	2.11265	1.6077	1.22082	1.3693	80.16	-0.2429	0.0283	0.2712	1125.9133	0.167649	-403.088008	-403.077912	-403.076968	-403.122125	38.688	
C	-0.2021188811	 1.5448590475	-0.1196874338	-0.406913
C	-0.0155335526	 0.0216521444	-0.0360193027	 0.08971
O	 0.7521532593	-0.2028274191	 1.1507100973	-0.437494
C	-1.3406007873	-0.6148130015	 0.0940840953	 0.299603
C	-2.4211918249	-1.1273622878	 0.2254160795	-0.466246
C	 0.7533733167	-0.5341034739	-1.2580191461	 0.318256
C	 2.0881405613	 0.1328556085	-1.5272035128	-0.457145
C	 0.5865797095	-1.9743957177	-1.5959128671	-0.298407
N	 0.0120470744	-0.9275481527	-2.4642071035	-0.360343
H	 0.7706990539	 2.0391765281	-0.0979866226	 0.133215
H	-0.7247734624	 1.8173618741	-1.0396774026	 0.12954
H	-0.7856687383	 1.8896501612	 0.7361125048	 0.134383
H	 0.8718249598	-1.1555442214	 1.2386652597	 0.282597
H	-3.3761062549	-1.5763961087	 0.3507376408	 0.203633
H	 2.6915339732	 0.1680518254	-0.6159801299	 0.126692
H	 2.633501894	-0.4236680173	-2.2926715434	 0.122076
H	 1.9563409403	 1.1541026119	-1.8965563225	 0.124114
H	 1.4230926096	-2.5188091156	-2.0253799681	 0.1139
H	-0.098777031	-2.5757306503	-1.0054194563	 0.116961
H	-0.9896580095	-0.8754878949	-2.284993186	 0.231867
