23
gdb 111974	3.25123	1.08595	0.897	1.3639	87.76	-0.2348	0.0267	0.2616	1404.7029	0.20523	-388.306541	-388.296703	-388.295759	-388.341014	37.527	
C	 0.0414551369	 1.617719479	 0.1229470027	-0.392967
C	 0.0720549567	 0.0897580302	 0.0177198059	-0.170478
C	-1.32581489	-0.5329068759	-0.1225285199	-0.023378
C	-2.0407220336	-0.2742186253	-1.4338525377	-0.073191
C	-2.7254726376	-1.3374293039	-1.847017074	-0.071869
C	-2.5944335435	-2.5024444002	-0.8901402821	-0.030738
C	-2.4721288947	-3.8744069905	-1.5606096887	-0.425986
C	-1.3643038184	-2.0825981685	-0.0241340744	 0.061862
O	-0.1403253397	-2.5806743905	-0.5509442537	-0.424737
H	 1.0512019615	 2.0230900184	 0.2419855746	 0.110534
H	-0.3926955404	 2.0803037179	-0.7698881406	 0.114646
H	-0.5517733885	 1.9460248085	 0.9843926733	 0.109483
H	 0.6906816096	-0.2201821519	-0.8293859527	 0.112949
H	 0.5533833708	-0.3254541327	 0.9112256776	 0.093413
H	-1.9471438817	-0.1355961641	 0.6971968509	 0.07359
H	-2.0123372992	 0.6859664316	-1.9367827949	 0.08925
H	-3.3377134881	-1.3864993563	-2.7416984278	 0.085295
H	-3.4770054699	-2.5252513883	-0.2310678591	 0.076073
H	-1.6113273992	-3.9042971732	-2.2342273844	 0.129086
H	-2.3646197148	-4.6777434303	-0.8214220021	 0.103643
H	-3.3675394454	-4.0964608129	-2.1496847948	 0.116291
H	-1.4800141631	-2.4121067387	 1.0187010469	 0.053187
H	-0.1386954577	-3.5360395124	-0.443010065	 0.284043
