20
gdb 59301	2.60404	1.38028	0.99352	0.9936	75.05	-0.243	0.0206	0.2636	1218.3084	0.170488	-440.304588	-440.295259	-440.294315	-440.338747	34.725	
C	-0.0566587597	 1.5973672546	-0.0044799619	-0.407923
C	 0.0116858819	 0.0738320631	 0.0237627469	 0.121969
O	 0.7530131977	-0.3984346357	 1.1503724388	-0.43361
C	-1.3852791761	-0.5664420393	 0.0095251847	-0.008852
N	-2.1817769993	-0.1349037243	-1.1574571321	-0.28547
C	-2.7287605115	-1.186524367	-1.606868588	 0.117134
O	-2.4868900498	-2.3793688561	-1.0280803978	-0.23104
C	-1.4355728944	-2.129012923	-0.0382012993	 0.092133
C	-0.1809085007	-2.8679960567	-0.4808061767	-0.407385
H	 0.9522061875	 2.0184607947	 0.0144428343	 0.118541
H	-0.5803904214	 1.9434760667	-0.8977110639	 0.148128
H	-0.6042971166	 1.9751775447	 0.8691753185	 0.102261
H	 0.5733425689	-0.2762320288	-0.8485094162	 0.094703
H	 0.3910053727	 0.0268641147	 1.9358206169	 0.278333
H	-1.9037563153	-0.2121465149	 0.914089547	 0.073286
H	-3.40921656	-1.2253055717	-2.4512289927	 0.138316
H	-1.7984818501	-2.5421611972	 0.9055532458	 0.095317
H	 0.1567696559	-2.5203234179	-1.4617259711	 0.123697
H	 0.6207255215	-2.7084299687	 0.2426599876	 0.149706
H	-0.390559611	-3.9383386872	-0.5561226508	 0.120755
