18
gdb 13882	3.99628	1.53577	1.18801	0.8953	69.75	-0.2285	0.0171	0.2457	1022.281	0.152926	-384.941632	-384.933366	-384.932421	-384.974466	30.465	
C	-0.0214351887	 1.5203932419	-0.0679501925	-0.410626
C	-0.0297948195	-0.0020165191	 0.0128160121	 0.123947
O	 0.7773651801	-0.4898217983	 1.0813239877	-0.434112
C	-1.457465993	-0.5693115084	 0.1480412445	 0.072108
O	-2.2767143041	-0.1183418072	-0.9337526931	-0.278729
C	-2.8769000107	-1.2277942265	-1.6008936439	-0.114895
C	-2.3217841691	-2.4428805642	-0.9127770436	-0.099533
C	-1.5249700317	-2.0703167039	 0.0815149487	-0.087658
H	 1.0003879646	 1.8917467368	-0.1849088306	 0.119365
H	-0.6282128285	 1.8607723976	-0.9102517902	 0.140612
H	-0.4446515509	 1.9570764124	 0.8466319801	 0.101778
H	 0.4129075342	-0.423684814	-0.8969711548	 0.090787
H	 0.5291365109	-0.0069775548	 1.8775994107	 0.278334
H	-1.8744696504	-0.1906705801	 1.1010885477	 0.064516
H	-3.9744766934	-1.1652571719	-1.5223803202	 0.104022
H	-2.6279765935	-1.1939808648	-2.672621363	 0.107147
H	-2.5629125094	-3.4546779198	-1.2130806249	 0.105909
H	-0.9718902968	-2.7046463757	 0.7598602653	 0.11703
