17
gdb 67224	2.58687	2.01761	1.46294	3.265	71.64	-0.2245	-0.0154	0.2091	923.6318	0.136516	-421.796781	-421.789587	-421.788643	-421.828204	28.495	
C	-0.0521103509	 1.5746283549	 0.0455713995	-0.516619
C	-0.0298944269	 0.0737045845	 0.0457176376	 0.158032
C	 0.9101902766	-0.7606414032	-0.9147660776	 0.055748
C	 1.9717471568	-0.8521416298	 0.2009085363	-0.254429
C	 0.7273031833	-0.8922143157	 1.1015568459	-0.107867
C	-0.2408880139	-1.9748075561	 0.4657385096	-0.071868
O	 0.3008521543	-2.0678643399	-0.8629168726	-0.270911
C	-1.2396337444	-0.8159599881	 0.2901598795	 0.424682
O	-2.3965158699	-0.6182046544	 0.5229736467	-0.32642
H	 0.9542373922	 1.9982338115	 0.1301142405	 0.123838
H	-0.4935951568	 1.9530102511	-0.8827300629	 0.136973
H	-0.6549953764	 1.953114355	 0.8766971527	 0.138785
H	 1.1183764953	-0.4704921428	-1.9431808288	 0.090996
H	 2.647584336	-1.7097266393	 0.1755076313	 0.110709
H	 2.5273577049	 0.0783561032	 0.3355014227	 0.112285
H	 0.7082510314	-0.7401419969	 2.1781902501	 0.096542
H	-0.4664574017	-2.9479932739	 0.8929479493	 0.099524
