19
gdb 61495	2.90608	0.8566	0.77486	2.0576	79.1	-0.2661	-0.0381	0.228	1525.5877	0.155335	-423.005413	-422.995118	-422.994174	-423.041222	37.027	
C	 0.6287519151	-0.3223992615	-1.4448939041	-0.399916
C	-0.003037961	 0.0842103219	-0.0996918688	-0.13474
C	-1.4647187144	-0.4097910898	 0.0013511863	-0.209873
C	-2.1894552801	 0.1580502812	 1.2337383703	 0.038646
O	-2.2514839586	 1.5586921658	 1.1832121733	-0.435114
C	-3.5794529703	-0.4273056908	 1.3458177584	 0.136253
O	-4.5651644794	 0.2704682197	 1.3700016729	-0.263214
C	 0.7936259473	-0.4048698654	 1.0246786652	 0.341425
C	 1.4416716204	-0.8326379601	 1.9432123531	-0.494977
H	 1.6542294696	 0.0478570769	-1.5194456965	 0.129796
H	 0.6538157957	-1.4114483654	-1.5500862128	 0.124717
H	 0.0497198615	 0.092090406	-2.2758778027	 0.117817
H	-0.0343306913	 1.1794828321	-0.0467505431	 0.133972
H	-2.0050156433	-0.0903975177	-0.8972022286	 0.109306
H	-1.4781376642	-1.5061513116	 0.0327583794	 0.104154
H	-1.6333521461	-0.1697072977	 2.1309928528	 0.109716
H	-3.1949906728	 1.7800141659	 1.2321942698	 0.294519
H	-3.6456168991	-1.5331184707	 1.4031573216	 0.098913
H	 2.0242066211	-1.1925888391	 2.7548940334	 0.198601
