23
gdb 98264	3.05371	0.90022	0.83076	3.3648	82.51	-0.2478	-0.0217	0.2261	1547.871	0.202656	-425.461797	-425.450631	-425.449687	-425.498479	40.225	
C	 0.092995157	 1.5161882608	 0.056933548	-0.379947
C	-0.0693756168	 0.0062516988	-0.0942164279	-0.282207
C	-1.4971899567	-0.4851522612	 0.070173136	 0.386996
O	-2.4259445032	 0.2949951693	 0.1756857514	-0.334597
C	-1.7153803891	-1.9969000659	 0.1075936621	-0.104886
C	-1.7163506297	-2.4567046773	 1.5808523477	-0.394102
C	-3.0268023437	-2.3659607484	-0.6382698028	 0.147094
C	-3.2189476048	-3.8687306232	-0.8082411712	-0.398438
O	-4.1648331015	-1.8644437742	 0.0371205611	-0.442349
H	 1.1333592925	 1.8109528671	-0.1050039867	 0.112743
H	-0.5356477035	 2.0478664099	-0.6611972906	 0.135994
H	-0.2066304142	 1.8441394817	 1.0559301646	 0.130523
H	 0.2665027651	-0.330958257	-1.0860768793	 0.129138
H	 0.5643880357	-0.5438791291	 0.6144627008	 0.125216
H	-0.8737989831	-2.4736986031	-0.4110618813	 0.075166
H	-1.7093429702	-3.5476284814	 1.6448103252	 0.125337
H	-0.8362343318	-2.0887438196	 2.1175194374	 0.111975
H	-2.6134189679	-2.0888046602	 2.0829661719	 0.146562
H	-2.9578878532	-1.9167651839	-1.6449707594	 0.059498
H	-3.3164739578	-4.365704127	 0.1608421989	 0.124569
H	-4.1368787312	-4.0557198599	-1.3717610423	 0.127223
H	-2.3804907133	-4.315437876	-1.351651877	 0.105898
H	-3.9999861387	-0.91691715	 0.1561975835	 0.292595
