12
gdb 128984	4.05444	1.85446	1.27245	5.0591	69.76	-0.2635	-0.0896	0.1738	870.0839	0.083182	-427.87866	-427.873166	-427.872221	-427.908508	21.627	
N	 0.0245096387	 1.2494127943	 0.009037258	-0.1795
C	 1.1525744862	 1.9964254033	 0.0022254819	 0.083023
N	 2.3683123048	 1.50455731	-0.0123653276	-0.314627
C	 2.3952428762	 0.15965915	-0.0200318885	 0.35139
N	 3.4276118418	-0.6639718865	-0.0357200881	-0.33851
C	 2.806185557	-1.8929934075	-0.0358147751	 0.043012
N	 1.4738153274	-1.9543057834	-0.0221318441	-0.322203
C	 1.1491350466	-0.6375355664	-0.0127072655	 0.363825
N	-0.0424951184	-0.0942543089	 0.0021105414	-0.272155
H	-0.8785914466	 1.7027592844	 0.0204512072	 0.298222
H	 0.994867859	 3.0705116354	 0.0097351931	 0.155868
H	 3.4044332571	-2.7970346247	-0.0465054927	 0.131656
