20
gdb 106560	2.26744	1.41277	1.35191	3.3115	76.12	-0.2109	0.0657	0.2766	1102.6926	0.169555	-440.191876	-440.182583	-440.181639	-440.225637	35.204	
C	 0.1070568683	 1.5018523879	-0.0306497631	-0.342291
N	 0.1353311443	 0.0362625705	 0.0364453502	-0.154042
C	-1.0431462396	-0.7273825525	 0.6066992811	-0.089324
C	-0.077379226	-1.9347412265	 0.7016232952	-0.245552
C	 0.6754807121	-0.6943992154	 1.2690378993	 0.277499
C	 2.1313802902	-0.5642799306	 1.6160917896	-0.184751
O	 2.9340936601	-0.8710640186	 0.4888002233	-0.425047
C	-0.6142115242	-0.4013000109	 2.0843035412	 0.085159
O	-0.7424510726	 0.875626398	 2.649828734	-0.431848
H	 1.1372284915	 1.8582000833	-0.144435386	 0.116199
H	-0.4295221622	 1.7791689729	-0.9452598716	 0.113646
H	-0.3459816847	 2.014050017	 0.8203192089	 0.130577
H	-2.0328304618	-0.6878639905	 0.1478996171	 0.080082
H	-0.3254720557	-2.7349069951	 1.4006810273	 0.094668
H	 0.2959055632	-2.2939290535	-0.2543577179	 0.114537
H	 2.3299930511	 0.4542362276	 1.9875691878	 0.099626
H	 2.3975628257	-1.2628429293	 2.4180479696	 0.108076
H	 2.4341305064	-0.5763550816	-0.2835768459	 0.29137
H	-0.8828112441	-1.1756542557	 2.8177815723	 0.072036
H	-1.606252932	 0.9341478528	 3.0697257674	 0.289379
