19
gdb 43171	2.17236	1.78924	1.74324	3.318	73.72	-0.223	-0.0174	0.2056	951.5924	0.162602	-423.055586	-423.048404	-423.04746	-423.086965	29.003	
O	 0.0094110273	 0.049661953	 0.0410157364	-0.329348
C	-0.0213625084	 1.2508661066	 0.0251237729	 0.416704
C	-1.2310027712	 2.182301549	 0.0422693826	-0.110869
C	-0.8136565006	 3.2155811234	 1.1188015417	-0.236034
C	 0.7549185587	 3.2389090311	 1.0909772179	-0.257216
C	 1.1586141138	 2.235354816	-0.0028865371	 0.023298
O	 1.189460748	 2.7988588807	-1.3223950722	-0.273565
C	 0.035238896	 3.5578936381	-1.6653034476	-0.071069
C	-1.2743045394	 2.8126105295	-1.3748967932	-0.235763
H	-2.1596116544	 1.6552064706	 0.2657884779	 0.086443
H	-1.2419637152	 4.2020682554	 0.9197252994	 0.106284
H	-1.1763289333	 2.9005713555	 2.1004946055	 0.113015
H	 1.1639953687	 4.2314942409	 0.8871140806	 0.118545
H	 1.1652150106	 2.9096960599	 2.0496838695	 0.115464
H	 2.1281344019	 1.7600550953	 0.1443346257	 0.096359
H	 0.0419823796	 4.5224712912	-1.1358889773	 0.095314
H	 0.1342132309	 3.7752212024	-2.7323298423	 0.116857
H	-1.4267821599	 2.0196029909	-2.1151337005	 0.121429
H	-2.1184673631	 3.5079589705	-1.4560199099	 0.104153
