18
gdb 14695	7.92347	0.575	0.56471	2.7997	78.9	-0.2449	-0.0262	0.2186	1969.7241	0.150637	-347.795322	-347.785392	-347.784448	-347.834172	32.918	
C	-0.3286076734	 1.5237173245	-0.114014847	-0.382077
C	-0.1934560241	 0.0007485709	-0.1626947238	-0.154852
C	 1.0268571193	-0.4523532424	-0.9905810597	-0.334778
C	 1.1752656255	-1.9021218794	-1.0522266941	 0.041439
C	 1.2774162642	-3.10227919	-1.0696488367	 0.081928
C	 1.3875962712	-4.5511813517	-1.1597400237	-0.413591
C	 1.0755170491	-5.0700773178	-2.5649878528	 0.172161
O	 0.4767918635	-6.0876772064	-2.7833417916	-0.231982
H	 0.5566625908	 1.9874638738	 0.3353610831	 0.116532
H	-0.4488169216	 1.9447115211	-1.1184721426	 0.116821
H	-1.1980355214	 1.8236609564	 0.4783643758	 0.116842
H	-0.1018129188	-0.4030397255	 0.8516963643	 0.110167
H	-1.0972882987	-0.4456646654	-0.5918452751	 0.110832
H	 0.9423011786	-0.0508024395	-2.009497815	 0.127546
H	 1.9378121702	-0.0071711345	-0.5679557244	 0.126874
H	 2.4161325057	-4.8703685201	-0.9289002335	 0.152247
H	 0.7304228534	-5.0678771872	-0.4524571573	 0.152193
H	 1.4647524366	-4.4268464268	-3.3841317658	 0.0917
