22
gdb 114081	3.78855	1.0953	1.01717	0.7648	81.64	-0.2254	0.0674	0.2928	1276.9024	0.195541	-404.319284	-404.310726	-404.309782	-404.352142	34.299	
C	-0.1078667856	 1.5711408791	 0.0585776308	-0.37819
C	-0.0224053953	 0.042486896	 0.0217829144	-0.207575
C	 0.8116838491	-0.5373689734	 1.1600921344	 0.083718
C	 0.9576799223	-2.0936060264	 1.185537742	-0.284679
C	 2.4911762227	-2.1465674656	 1.2218853002	 0.390087
O	 3.0121351111	-3.4338848627	 1.285309064	-0.480064
C	 2.81322106	-0.9867501927	 2.2104746849	-0.23815
N	 2.2536696134	-0.086672326	 1.1296126751	-0.133625
C	 2.848143216	-1.0791169396	 0.1500661468	-0.246497
H	 0.8906975737	 2.0129777399	 0.0132385574	 0.136861
H	-0.6976041285	 1.9545686081	-0.7797143518	 0.105853
H	-0.5807805399	 1.9163235379	 0.9849257309	 0.109956
H	-1.0277186656	-0.393598793	 0.0864503314	 0.097224
H	 0.3817492267	-0.2843294781	-0.9443334403	 0.095356
H	 0.3952221678	-0.1737263627	 2.1061990413	 0.073139
H	 0.5087049076	-2.5628139122	 2.0649459964	 0.101507
H	 0.5567625367	-2.58291765	 0.292506587	 0.101931
H	 3.9731763534	-3.3742032233	 1.2920804926	 0.28074
H	 2.2952605409	-0.9388332714	 3.1729679709	 0.099242
H	 3.883279667	-0.8013107908	 2.3425759407	 0.09443
H	 3.921512323	-0.896542852	 0.0458778734	 0.096245
H	 2.3782410438	-1.1255467714	-0.8350061325	 0.102491
