15
gdb 35891	2.11242	1.68606	1.02134	5.2898	69.06	-0.2997	0.0004	0.3001	1107.3332	0.114268	-416.830038	-416.821987	-416.821043	-416.86417	28.532	
N	-0.3356985801	-1.1664482589	-0.0354819887	-0.310213
C	-0.1799773759	-0.0219847106	-0.0097894012	 0.287202
C	-0.0338180938	 1.4256678442	 0.0464700587	-0.183387
C	-0.5752646577	 2.0351071062	 1.3762890202	-0.097736
O	 0.202807641	 3.1934396938	 1.5840736931	-0.227434
C	 1.5342416581	 2.8183196537	 1.3068024921	-0.097741
C	 1.4452892244	 1.9748962795	-0.0022818455	-0.183373
C	 2.496446119	 0.9718501924	-0.0981524787	 0.287199
N	 3.3589085056	 0.2054691348	-0.1575212579	-0.310211
H	-0.581367004	 1.8523598668	-0.7973945752	 0.149247
H	-1.6246879994	 2.3250904097	 1.3116812782	 0.140954
H	-0.4480465954	 1.3132897094	 2.1958021843	 0.127646
H	 2.1348454075	 3.720917432	 1.1878643703	 0.140955
H	 1.956063937	 2.2058670188	 2.1166004381	 0.127646
H	 1.5321182737	 2.6372447183	-0.8669995978	 0.149247
