15
gdb 28594	5.31908	0.99658	0.88703	2.8712	71.21	-0.2051	0.001	0.206	1267.3269	0.113376	-453.945403	-453.937504	-453.93656	-453.978631	28.772	
N	 0.1203669639	 1.3136412414	-0.3820845369	-0.597909
C	-0.0503987061	-0.0222661831	-0.0713656731	 0.340914
C	-1.1014185365	-0.8046219382	 0.3028640749	-0.190209
N	-0.6239296703	-2.0724226578	 0.6057307232	-0.298523
C	 0.648575274	-2.0164889352	 0.3954275498	 0.397899
O	 1.077550643	-0.7757113455	-0.0186352094	-0.203467
C	 1.6676730535	-3.0709761545	 0.4908408363	-0.060199
C	 1.2977287583	-4.4305516864	 0.8982760015	-0.164016
O	 1.5936487988	-4.1480153563	-0.4666361478	-0.227537
H	 0.8288600874	 1.4735477534	-1.087302585	 0.263038
H	-0.7453953427	 1.7720720558	-0.629691725	 0.262394
H	-2.1448620599	-0.5476104053	 0.381842597	 0.112913
H	 2.6785599859	-2.7114921369	 0.6722925154	 0.107689
H	 2.0285584991	-5.0434016863	 1.4243202428	 0.115032
H	 0.2525537215	-4.6372213851	 1.1169555863	 0.141982
