23
gdb 118013	3.33281	0.80222	0.67824	1.4273	89.27	-0.2542	0.055	0.3091	1711.3169	0.201899	-388.251908	-388.240458	-388.239513	-388.288857	40.983	
C	 0.0247488056	 1.3921657225	 0.0671516321	-0.228291
O	 0.0329627954	-0.0136758548	 0.0951835595	-0.232763
C	-1.2567493421	-0.5739999206	-0.0311469609	-0.068376
C	-1.136398704	-2.1003021886	 0.0132690182	 0.011328
C	-0.4327311253	-2.5456097989	 1.3013332097	-0.401736
C	-2.5290144071	-2.7795418248	-0.1408159927	-0.153511
C	-3.301648849	-2.3469346323	-1.4071771734	-0.402703
C	-2.3987944269	-4.2374902039	-0.129627141	 0.323956
C	-2.3005313617	-5.4356639128	-0.1595666149	-0.464875
H	 1.0597717678	 1.7284212684	 0.1664122709	 0.126973
H	-0.3857770213	 1.781221974	-0.878649154	 0.102266
H	-0.5672394483	 1.8151480369	 0.8946653612	 0.102977
H	-1.909493758	-0.2219300811	 0.7896769983	 0.079047
H	-1.7125333635	-0.2384577764	-0.9752551245	 0.086389
H	-0.5232745099	-2.4047906448	-0.8449755261	 0.089489
H	 0.5406910332	-2.0601018513	 1.3872010031	 0.132191
H	-1.0254321397	-2.2689855258	 2.1824786117	 0.104152
H	-0.2933787428	-3.6287643322	 1.3162070645	 0.126902
H	-3.1304392913	-2.4932060572	 0.73525112	 0.102216
H	-4.2177096313	-2.9340969803	-1.5080855118	 0.12692
H	-3.5809968297	-1.2914056178	-1.3652569355	 0.118427
H	-2.6963279407	-2.5111771629	-2.3041311668	 0.126727
H	-2.2161482496	-6.4940302455	-0.1710754076	 0.192295
