18
gdb 90496	2.20578	1.67801	1.3781	2.3301	73.56	-0.2507	-0.0594	0.1913	1031.417	0.146651	-439.048479	-439.039943	-439.038998	-439.081299	32.289	
C	-0.0719802587	 1.4852870082	-0.0705533587	-0.496411
C	-0.0414673908	-0.0162794766	-0.0507286039	 0.27289
C	-0.8676022751	-0.7812841527	 0.9325633932	-0.135021
C	-1.719897036	-1.975188816	 0.6974419126	 0.145399
O	-1.6977494702	-2.7212511074	-0.2602776109	-0.282126
N	 0.6362317277	-0.8207659212	 1.0357649855	-0.179715
C	 1.1430424044	-1.7808446416	-0.0118913969	-0.219971
C	 0.5840252442	-0.8900303412	-1.1586392044	 0.079744
O	-0.1809676491	-1.4155630033	-2.1928427009	-0.43732
H	 0.8896372611	 1.8855842292	-0.4080297994	 0.131023
H	-0.845963026	 1.8397885279	-0.7599959314	 0.137716
H	-0.281297626	 1.8948183932	 0.9218419941	 0.12971
H	-1.2552539325	-0.1730257396	 1.7469286856	 0.106028
H	-2.4343746834	-2.1729244508	 1.5234012078	 0.105663
H	 2.2323034113	-1.8222123696	 0.0445820913	 0.119271
H	 0.7390789412	-2.7923077083	 0.057862537	 0.125341
H	 1.393405381	-0.3215275301	-1.6278160172	 0.098386
H	-0.8284268432	-2.0093546899	-1.7807794336	 0.299393
