17
gdb 66110	2.69266	1.51281	1.36406	4.0204	72.03	-0.2623	0.022	0.2843	1013.4406	0.136574	-417.998201	-417.990201	-417.989257	-418.030563	30.546	
C	 0.0714322591	 1.4977157205	-0.0312899565	-0.429675
C	 0.0196599904	-0.028683294	 0.0070804899	 0.240839
O	 0.7394095491	-0.5235188383	-1.1203953624	-0.279565
C	 1.3647694871	-1.7709571548	-0.8053776333	-0.094029
C	 1.5577502589	-1.7552078589	 0.6950821544	-0.04658
N	 2.1639240882	-0.4912400982	 1.1631587707	-0.339257
C	 0.704587239	-0.6685862273	 1.2188094348	-0.093419
C	-1.3857608432	-0.510270963	-0.037743324	 0.252079
N	-2.4750950148	-0.895091817	-0.0658749419	-0.337201
H	 1.1128080043	 1.8046360154	 0.0793637432	 0.151786
H	-0.3158474892	 1.8617469257	-0.9852350212	 0.14457
H	-0.527577892	 1.9251783223	 0.7772534934	 0.128783
H	 0.727565494	-2.6190259116	-1.0946489624	 0.114099
H	 2.2982853699	-1.8115339217	-1.3735739195	 0.125424
H	 1.7240197057	-2.6788640739	 1.2375896334	 0.106958
H	 2.5500391906	-0.6232709384	 2.0948430674	 0.240696
H	 0.1789145629	-0.720391767	 2.1649961241	 0.114493
