16
gdb 44585	3.11351	1.64517	1.468	5.5291	66.92	-0.2586	0.0175	0.2761	922.895	0.127208	-437.89329	-437.886756	-437.885812	-437.924331	26.104	
O	-0.5415224289	 0.409382293	 0.6426048465	-0.326902
C	-0.2127611199	 1.4309148015	 0.1347361751	 0.459174
O	-0.9525193707	 2.2342029769	-0.7028146551	-0.248891
C	 0.1123228769	 3.2406514494	-0.7556450152	 0.111718
C	-0.1174333733	 4.4408701539	 0.1434403794	-0.064185
N	-0.6717660945	 4.0482033989	 1.4529896027	-0.317078
C	 0.7633493627	 4.32563969	 1.3465856581	-0.02934
C	 1.5943239591	 3.0499113433	 1.2718169476	-0.243255
C	 1.049854745	 2.3026746529	 0.0410907838	-0.225905
H	 0.3499858964	 3.4945582535	-1.788668133	 0.09435
H	-0.3885555324	 5.3994008436	-0.2845241175	 0.094067
H	-1.1633246977	 4.8336065401	 1.8696382186	 0.24122
H	 1.1724361098	 5.2045803219	 1.8355120793	 0.094094
H	 2.650547521	 3.2982502689	 1.1266204828	 0.109001
H	 1.5118157557	 2.4539595239	 2.1855621939	 0.135474
H	 1.8234039608	 1.7957718983	-0.5383877571	 0.116456
