18
gdb 82107	3.05107	1.28183	1.05484	2.3619	71.32	-0.2442	0.0685	0.3127	1154.2955	0.148211	-439.00522	-438.997265	-438.996321	-439.038362	30.389	
O	 0.3585654661	 1.41826328	 0.1675345144	-0.431865
C	 0.1295896772	 0.0431016581	 0.0519565753	 0.123257
C	 0.3423057396	-0.789846219	 1.3241076845	-0.088775
N	-0.612943869	-0.1897408473	 2.2910547168	-0.359441
C	-1.0798664	-1.2220685509	 1.3288936415	-0.064001
C	-1.3775255161	-0.4806427311	 0.0209013573	-0.077876
C	-2.488838891	 0.5280063187	 0.0151433137	 0.096114
C	-3.1191845375	 0.9760642484	-1.2311954681	-0.178666
O	-3.7822528408	 0.0421635115	-0.3789535331	-0.246871
H	 0.0390491352	 1.6583268951	 1.0485449808	 0.292484
H	 0.6954722343	-0.3125154165	-0.811278438	 0.092468
H	 1.2384171782	-1.2911432753	 1.668030046	 0.098309
H	-0.4699285403	-0.6422071011	 3.1918155181	 0.237269
H	-1.5172494088	-2.1465793585	 1.6837352205	 0.103232
H	-1.5164950037	-1.1795576636	-0.8085980241	 0.081403
H	-2.5159114377	 1.1997852125	 0.8712338926	 0.100476
H	-3.5676766595	 1.9670578289	-1.2842056308	 0.114066
H	-2.7713025462	 0.5755580201	-2.1831107574	 0.108418
