15
gdb 1880	5.59112	1.96604	1.53851	2.2377	56.85	-0.2381	-0.0172	0.2209	771.382	0.125144	-345.686487	-345.679746	-345.678801	-345.717243	25.187	
O	 0.0241330739	 1.3885191836	 0.1879521431	-0.430381
C	 0.0490111418	-0.0126204184	-0.0094885682	 0.123499
C	-1.3955632369	-0.5376823018	-0.0688736632	-0.222459
C	-1.2802213301	-1.9030809406	-0.7596100659	-0.321478
C	-0.0540765314	-1.7838225894	-1.676396179	 0.400421
O	 0.2881559992	-2.5879015376	-2.5028446458	-0.30938
C	 0.6591949535	-0.4686026587	-1.3456574936	-0.348515
H	 0.9303798814	 1.6975208128	 0.2834176577	 0.284969
H	 0.5789491224	-0.5087508753	 0.8200651814	 0.072724
H	-1.8622069594	-0.5777322648	 0.9174922258	 0.109734
H	-1.9768546223	 0.1599709033	-0.6823623762	 0.118094
H	-1.0694066387	-2.7053735821	-0.0402078209	 0.132741
H	-2.162797159	-2.2118367625	-1.3247298936	 0.132648
H	 0.3903787859	 0.2634423665	-2.119745083	 0.137893
H	 1.7454454496	-0.5861983951	-1.3593245985	 0.119489
