15
gdb 129836	4.07047	0.95801	0.8172	5.1546	72.42	-0.2198	0.0186	0.2384	1339.786	0.114642	-413.023215	-413.014803	-413.013858	-413.057176	30.379	
N	-0.0619971315	 1.3408634032	-0.2434540312	-0.605758
C	-0.0565638488	-0.0416473244	-0.0739821873	 0.413808
C	-0.9784953786	-1.0200204458	-0.3987312575	-0.367227
C	-0.4181451353	-2.2141592386	 0.1120438659	 0.365002
C	-0.9872049887	-3.6074483897	 0.0729511938	-0.439364
C	-1.4243295251	-4.0145088408	-1.2641336803	 0.262692
N	-1.7830676019	-4.3268746242	-2.3170312056	-0.316686
N	 0.7517785463	-2.0120863711	 0.7015545138	-0.295315
N	 0.9492954829	-0.6729270735	 0.5829792768	-0.248078
H	 0.8136144441	 1.7133208661	-0.5908449876	 0.254235
H	-0.8175994153	 1.645821843	-0.8417022252	 0.26196
H	-1.8972913953	-0.8950398627	-0.9479257641	 0.110597
H	-0.2245145498	-4.3051322222	 0.4317127011	 0.17163
H	-1.8471962645	-3.6961508966	 0.7489704213	 0.160709
H	 1.7608548213	-0.2573262526	 1.007218156	 0.271796
