14
gdb 132972	3.09856	1.40996	0.975	8.1413	69.09	-0.2358	-0.0308	0.205	1118.134	0.101344	-478.014024	-478.006314	-478.005369	-478.04675	27.864	
C	-0.0151320222	 1.4922499231	 0.0267244507	-0.34881
N	-0.0008596622	 0.0351362008	 0.0098701165	-0.062856
C	-0.0390517675	-0.6804548134	-1.1507122407	 0.102585
N	-0.0298862814	-1.9641922854	-1.2534197247	-0.338075
C	 0.0235350335	-2.7717052494	-0.1034417157	 0.315307
O	 0.0342832551	-3.9832496895	-0.1472471818	-0.355576
C	 0.0654239589	-2.0196726438	 1.1613544943	 0.103036
F	 0.1168673049	-2.7097301769	 2.29203771	-0.048843
C	 0.0529177163	-0.6737019568	 1.1949506389	-0.111332
H	 0.8912050419	 1.8827195771	 0.4997327493	 0.155043
H	-0.0591924814	 1.8579947223	-0.9997877795	 0.156294
H	-0.8893921034	 1.8644650963	 0.5696559893	 0.155043
H	-0.0806832536	-0.0709341617	-2.0525116318	 0.132432
H	 0.0832342711	-0.1063827625	 2.1161910352	 0.145753
