18
gdb 23355	3.26748	1.17005	0.95726	2.0766	74.71	-0.2385	0.0139	0.2525	1237.5036	0.145438	-439.001599	-438.992643	-438.991699	-439.036152	32.732	
C	 0.3274973267	 1.4315808515	 0.0650048747	-0.473833
C	 0.0438036536	-0.0455551925	 0.1382986424	 0.356433
N	-0.1644991747	-0.6804792214	 1.2268685293	-0.160083
O	-0.0960806582	 0.1707606538	 2.3416165293	-0.402599
C	-0.0324714647	-0.840316133	-1.1319670816	-0.110625
C	 1.2310251293	-0.9203759459	-2.0841647887	-0.274111
C	 1.1256548155	-2.4484346639	-1.9892276094	 0.030092
O	 1.276568657	-2.784221018	-0.6081378429	-0.235861
C	-0.0146121681	-2.374913854	-1.0600565454	 0.025978
H	 1.2512601002	 1.670131709	 0.6024313213	 0.149241
H	 0.4241400147	 1.7686461383	-0.9691747591	 0.117656
H	-0.4712063171	 1.9982964104	 0.553958516	 0.147634
H	-0.2437141987	-0.441289105	 3.0701375605	 0.306139
H	-0.8893755765	-0.4945248757	-1.723902272	 0.094198
H	 1.0349495809	-0.5145657709	-3.0788229155	 0.106068
H	 2.1639093018	-0.5091617614	-1.692053936	 0.11532
H	 1.3979240735	-3.1996873187	-2.7212094708	 0.105018
H	-0.8412553652	-3.0520392626	-0.8839067421	 0.103334
