20
gdb 14362	3.87615	2.091	1.80812	0.285	78.54	-0.2612	0.0871	0.3483	828.6408	0.180677	-311.814642	-311.808256	-311.807312	-311.845086	26.829	
C	-0.0591575476	 1.5385303712	 0.086900361	-0.251924
C	 1.4636360229	 1.2678076309	 0.0606915242	-0.079152
C	 1.1822169764	 0.0642748209	 1.0347052235	-0.305996
C	 0.0958370885	-0.0127354949	-0.0791172878	 0.357983
C	-0.926801948	-0.9131821367	-0.7281792901	-0.354016
C	-0.8918770531	-0.3904147165	-2.2115345592	-0.191711
C	 0.453406999	 0.4131741081	-2.4332780932	-0.281758
C	 1.2120864947	 0.2512171002	-1.1075514759	 0.038735
H	-0.4796571264	 1.8794355486	 1.0374006749	 0.083276
H	-0.4838088611	 2.1007642838	-0.7463054416	 0.090426
H	 2.2674797636	 1.9998440047	 0.159226595	 0.065646
H	 1.9255813017	-0.7382672198	 1.0492937696	 0.08836
H	 0.8540048492	 0.3274703812	 2.0441738892	 0.087097
H	-0.6030270831	-1.9591932411	-0.6793276255	 0.099307
H	-1.9313219569	-0.8565022839	-0.2985017133	 0.095877
H	-0.9809363741	-1.2210275201	-2.9170961494	 0.099029
H	-1.7494628631	 0.2633230705	-2.3951886817	 0.102659
H	 1.0261137907	 0.0035097006	-3.269216223	 0.094335
H	 0.2364440289	 1.4535418022	-2.6882065148	 0.1043
H	 1.9670483778	-0.5410242399	-1.1668305818	 0.057527
