19
gdb 12541	3.34827	1.84586	1.26998	2.3449	73.19	-0.2378	0.022	0.2598	984.549	0.166876	-365.078498	-365.070653	-365.069709	-365.1108	29.547	
C	-0.0944643026	 1.5496699937	 0.0125660722	-0.397722
C	-0.0338092355	 0.0283634439	-0.0483914776	 0.146711
C	 0.8241981851	-0.4841218503	-1.2025258844	-0.1901
C	 0.7101804966	-1.9924231075	-1.4175785313	-0.222852
C	 1.3662295754	-2.8268390693	-0.3135113057	-0.140157
N	 0.8386677213	-2.7423879249	 1.0366734779	-0.245547
C	 0.5006619772	-1.6865069454	 1.6340064131	 0.116606
O	 0.4299458925	-0.3802008221	 1.2535455919	-0.24396
H	 0.9109875811	 1.9695944855	 0.1152830069	 0.126243
H	-0.5466906233	 1.9503481786	-0.8990887039	 0.116997
H	-0.6901292866	 1.8733383374	 0.8694823124	 0.126825
H	-1.0510062727	-0.3741956899	-0.1692610905	 0.082133
H	 0.4997796186	 0.0403780594	-2.109321273	 0.099084
H	 1.869673978	-0.1974472957	-1.0269866587	 0.10145
H	-0.3481002375	-2.2719987386	-1.5061520999	 0.100462
H	 1.1849678855	-2.2653152426	-2.3678238391	 0.096688
H	 1.3309061862	-3.8825921697	-0.6044563658	 0.105027
H	 2.4346108583	-2.5642594345	-0.2643811298	 0.110215
H	 0.2460211924	-1.7486186878	 2.6938655451	 0.111896
