19
gdb 105929	3.72328	1.4182	1.31567	1.3744	78.28	-0.2307	0.0701	0.3008	1027.8272	0.160322	-385.80774	-385.800398	-385.799454	-385.839565	29.573	
O	 0.5842683283	 0.0413675066	 0.8180023585	-0.419301
C	-0.2401163222	 0.4041433905	-0.2823584995	-0.227676
C	-1.5615271388	-0.2767727354	-0.1198111646	 0.391387
C	-2.2508600589	-0.4924193845	 1.2291775054	-0.102559
C	-1.8756093614	-1.6766954682	 0.3583532188	-0.156457
C	-3.2680481615	-1.5049880672	-0.3193852163	-0.047606
C	-3.7341412235	-0.4829910227	 0.7893231595	-0.058796
C	-3.8831293947	 0.6218029005	-0.286070741	-0.248438
C	-2.8009057656	-0.185737336	-1.0456077248	-0.136632
H	 1.4443389055	 0.4530551117	 0.6960288043	 0.289619
H	-0.3883519074	 1.4974260707	-0.3265594013	 0.08582
H	 0.2229865023	 0.1028229338	-1.2370905466	 0.086036
H	-1.8011731785	-0.1711349454	 2.1582230154	 0.093089
H	-1.2315543869	-2.5231202208	 0.5537768735	 0.08706
H	-3.9009573962	-2.2655983628	-0.7697150081	 0.064297
H	-4.5041951982	-0.6979823667	 1.5295448839	 0.060916
H	-4.8528774773	 0.5669662385	-0.7921396735	 0.093247
H	-3.6684541716	 1.6586208764	-0.006771143	 0.088196
H	-2.6454381035	-0.106851619	-2.1218873909	 0.0578
