23
gdb 58985	3.14151	0.93344	0.8895	2.1166	88.3	-0.2392	0.0181	0.2573	1470.0607	0.20541	-388.313491	-388.303449	-388.302505	-388.348872	37.622	
C	-0.0914181605	 1.5767249275	-0.1052266143	-0.387536
C	 0.0326798795	 0.0419580817	-0.0436239181	-0.076256
C	-1.349148868	-0.6086789417	 0.1554834861	-0.388921
C	 0.7399897581	-0.5069865563	-1.2570624305	 0.366705
C	 1.9255680853	-1.1253990521	-1.26385238	-0.251189
C	 2.3216979366	-1.6305630846	-2.6281814447	 0.107581
O	 2.2787063457	-3.0595334701	-2.7015297706	-0.435466
C	 1.3116575131	-0.9173733281	-3.5657587927	-0.242634
C	 0.1557648182	-0.4311402225	-2.6583849491	-0.318334
H	 0.8890314104	 2.0483691763	-0.2204669873	 0.117794
H	-0.7189352478	 1.8930458588	-0.9452771694	 0.116733
H	-0.5492588025	 1.9612638231	 0.8120815476	 0.112618
H	 0.6485152438	-0.2060166141	 0.8302407586	 0.076583
H	-2.0259450801	-0.3691128942	-0.6717435368	 0.117807
H	-1.2693580878	-1.6982761249	 0.2212822898	 0.113162
H	-1.8144839451	-0.2466870043	 1.0779976643	 0.113682
H	 2.5255478336	-1.3276394542	-0.3822132986	 0.086068
H	 3.3552699693	-1.3870509156	-2.8952365225	 0.081537
H	 1.4601630829	-3.3384343908	-2.2762833449	 0.269985
H	 1.7971106434	-0.0575862751	-4.0378287909	 0.10312
H	 0.9898430467	-1.5900336627	-4.3644393435	 0.104261
H	-0.7385540971	-1.063074052	-2.740656193	 0.106002
H	-0.1709633476	 0.5814244459	-2.9197736996	 0.106698
