18
gdb 57615	3.55529	1.0144	0.95076	4.931	72.	-0.2835	0.0294	0.3129	1271.0584	0.145453	-439.079917	-439.070543	-439.069599	-439.114143	34.473	
C	-0.0741815394	 1.7090006673	-0.0315570783	-0.41442
C	 0.0413790859	 0.1867514992	-0.0174190029	 0.317281
O	 0.75945613	-0.1765267798	 1.1436100538	-0.458708
C	-1.3606503216	-0.4966945166	-0.0057670988	-0.374461
C	-2.1584073926	-0.1403680798	 1.1631108849	 0.274776
N	-2.799027401	 0.1517309535	 2.079140499	-0.311534
C	 0.7780163454	-0.3176647503	-1.2573449722	 0.045861
C	 2.2365997558	-0.4428709057	-1.2813565599	-0.188493
O	 1.3982441554	-1.5975721587	-1.0907466571	-0.258338
H	 0.9227159555	 2.1555042939	-0.0169564739	 0.131578
H	-0.6021852508	 2.0554303129	-0.9253025719	 0.117186
H	-0.6205659631	 2.0519573471	 0.8503677279	 0.158134
H	 1.0414042086	-1.0938062164	 1.0156653419	 0.292176
H	-1.9212712236	-0.2283621416	-0.9087276613	 0.146604
H	-1.2230822855	-1.5838069946	-0.0250696631	 0.158625
H	 0.2503799854	-0.1929880052	-2.2037501826	 0.099839
H	 2.7622085659	-0.411520089	-2.2331139491	 0.127529
H	 2.8074617697	-0.1434259562	-0.4067244764	 0.136363
