19
gdb 109956	2.30316	1.46964	1.07933	1.6118	72.	-0.2561	0.0514	0.3076	1171.7258	0.157227	-460.111225	-460.102064	-460.101119	-460.145563	33.707	
C	 0.2916248039	 1.523197106	-0.1898305787	-0.250175
O	-0.1351551006	 0.1743324746	-0.3191786397	-0.253647
C	 0.6462889867	-0.5814703169	-1.2074760015	 0.001807
C	 1.9112819098	-1.280180107	-0.583626536	 0.102434
O	 1.8234178098	-1.333550904	 0.8203057552	-0.447419
C	 1.4865951888	-2.6026492751	-1.2934931566	-0.349163
C	 0.1066488808	-1.9763961595	-1.5130940557	 0.41802
C	-1.2220539165	-2.4944730126	-1.1891592044	-0.25633
O	-0.8040349917	-2.2801274371	-2.5471539927	-0.276635
H	 1.3104094798	 1.5887522798	 0.2141319583	 0.126812
H	 0.258842249	 2.0403184338	-1.1586996315	 0.121038
H	-0.3989735641	 2.0123931039	 0.5003195198	 0.135101
H	 0.8760519573	-0.0181396634	-2.1222254259	 0.083797
H	 2.8885172269	-0.880505218	-0.8690993107	 0.076596
H	 0.981153008	-0.9200632328	 1.056468919	 0.289994
H	 2.0181064304	-2.7694163013	-2.2350988844	 0.112814
H	 1.5403160945	-3.4995403227	-0.6744125679	 0.119337
H	-1.3316474639	-3.5369395848	-0.893648564	 0.117839
H	-1.9876197189	-1.8126268828	-0.8251097225	 0.12778
