17
gdb 126268	2.57535	1.30664	0.92092	3.181	73.1	-0.2302	-0.0338	0.1964	1278.9299	0.134481	-455.120264	-455.111153	-455.110209	-455.155392	31.596	
C	 0.1127930842	 1.5761308321	 0.3767803278	-0.375984
C	 0.0008476442	 0.1195011089	-0.1072515472	-0.301202
C	-1.3996821658	-0.3774869366	-0.1617869694	 0.303856
C	-2.2148175616	-0.7874121888	-1.1793649454	 0.267932
O	-1.9156040622	-0.8525916684	-2.4845123898	-0.272195
C	-2.9522057406	-1.3353439076	-3.339937243	-0.246034
N	-3.4222262157	-1.1313378858	-0.6386195057	-0.210211
N	-3.3994271864	-0.9602483744	 0.6186780021	-0.028406
O	-2.1211637825	-0.4774219141	 0.9659997569	-0.21093
H	 1.161051964	 1.8857843854	 0.4083073936	 0.12187
H	-0.4250506414	 2.2536768497	-0.2925647578	 0.129242
H	-0.3076575328	 1.6860516711	 1.3798874132	 0.139335
H	 0.4220501641	 0.0176603901	-1.1119900827	 0.133256
H	 0.587878159	-0.5317676875	 0.5520499792	 0.131709
H	-3.8359226149	-0.6913282136	-3.2890821913	 0.140831
H	-2.5346019936	-1.3198970049	-4.3469718294	 0.136464
H	-3.242857188	-2.3553798358	-3.0688271412	 0.140467
