16
gdb 13294	5.061	1.22397	1.09141	1.6535	72.53	-0.2311	0.0126	0.2437	1084.8638	0.129574	-346.569533	-346.561602	-346.560658	-346.602566	28.458	
C	-0.0387924873	-1.1770481743	 0.3918823448	-0.457994
C	-0.0170014582	-0.0080563983	 0.1150508865	 0.310573
C	 0.0264336986	 1.4164887081	-0.2156475695	-0.460092
C	 1.413583134	 1.9981535944	-0.1438069093	 0.321622
C	 2.0928423165	 2.6283227566	-1.0963662216	-0.213899
C	 3.4308626584	 3.063292524	-0.5722955003	-0.099626
O	 3.4656855631	 2.6177760428	 0.7815382102	-0.264995
C	 2.2495321543	 1.9557369674	 1.11033587	-0.145587
H	-0.0634351323	-2.2108850726	 0.6328211416	 0.200274
H	-0.3863380138	 1.5761282661	-1.2183112405	 0.140084
H	-0.6341186036	 1.9581952049	 0.477726721	 0.141727
H	 1.7609632147	 2.8162757311	-2.1101041475	 0.101496
H	 4.2674719157	 2.6179700485	-1.1342328178	 0.10629
H	 3.5638280655	 4.1566390892	-0.6110129639	 0.104034
H	 1.7556835902	 2.4682154347	 1.9529338633	 0.099464
H	 2.4542379342	 0.9245199173	 1.4352045028	 0.11663
