18
gdb 71707	2.32629	2.10109	1.76236	1.2136	74.	-0.2208	0.0633	0.2841	892.8929	0.147465	-401.862558	-401.855049	-401.854105	-401.893951	30.293	
C	-0.0660460227	 1.559232993	-0.045587735	-0.534935
C	 0.0246444111	 0.0644855614	-0.0351791472	 0.2979
C	 0.6161336093	-0.9121157114	-1.0917750396	-0.116885
C	-0.409683284	-1.905059534	-0.6997076153	-0.130013
N	 0.9163595828	-1.8953962519	-0.003411805	-0.149345
C	 0.6108613329	-0.8624339268	 1.0805108438	-0.041297
C	-0.7901758123	-1.1731650369	 1.6288631918	-0.316718
C	-1.2161848368	-0.9020522944	 0.160676525	 0.342628
O	-2.4809896787	-0.4946712477	-0.2336649596	-0.47985
H	 0.9252303555	 2.0172825183	-0.1365830903	 0.121105
H	-0.6796543922	 1.907374489	-0.8834655913	 0.133
H	-0.524704846	 1.9317703538	 0.8769629343	 0.124872
H	 1.2298371074	-0.8023057886	-1.9783777251	 0.093791
H	-0.7341101811	-2.8230340653	-1.1770731892	 0.088452
H	 1.4696687807	-0.6372073678	 1.7104883603	 0.076969
H	-0.9734499926	-2.157313652	 2.069642632	 0.098142
H	-1.1449403318	-0.3803438655	 2.294096399	 0.10841
H	-3.0696994814	-1.2578734331	-0.2287261885	 0.283773
