18
gdb 46884	3.30947	1.38656	1.05803	3.1571	80.33	-0.2364	-0.0552	0.1813	1119.4774	0.149473	-401.944371	-401.936842	-401.935898	-401.976564	29.483	
O	-0.0312574906	 0.8912752526	 1.5109230539	-0.323215
C	-0.0138292362	 1.415365804	 0.4134413204	 0.360983
C	-1.3046200643	 1.5818155494	-0.3806371559	-0.30438
C	-1.4215099849	 2.9133521819	-1.1291894781	-0.175655
N	-0.7830934919	 2.8342692552	-2.4427254778	-0.084476
C	 0.0762923439	 3.9428176605	-2.8404116583	-0.250781
C	 0.6536420719	 2.6005734105	-2.5087700357	-0.05795
C	 1.5498074374	 2.4000858285	-1.3448199018	-0.057456
C	 1.2804318677	 1.896025599	-0.1326849373	-0.155091
H	-1.3807732741	 0.7646631905	-1.1096044244	 0.135075
H	-2.1215678346	 1.4542772021	 0.3335420066	 0.125477
H	-2.4772038405	 3.1489075745	-1.3005595501	 0.116291
H	-1.0103992912	 3.7258392267	-0.5097526124	 0.097284
H	 0.0030436558	 4.268477847	-3.8745055237	 0.121778
H	 0.2359952008	 4.7400562422	-2.1158597446	 0.117804
H	 0.9463397542	 1.9838265103	-3.3608616963	 0.111936
H	 2.5896580763	 2.6493090698	-1.557951655	 0.113231
H	 2.0921867903	 1.7822768355	 0.5806301804	 0.109144
