17
gdb 84456	2.84141	1.62345	1.27836	2.4798	68.59	-0.2499	-0.007	0.2428	996.8672	0.136568	-458.943288	-458.935652	-458.934708	-458.975136	30.275	
O	-0.054783318	 1.4403237923	 0.1471325025	-0.433739
C	 0.0681737072	 0.0421670931	-0.0196545594	 0.078502
C	 0.7697274907	-0.6450968635	 1.1435757332	-0.097462
C	 0.0469719017	-1.6177530227	 1.6976949859	-0.183979
C	-1.2877396481	-1.8038351299	 1.0199864604	 0.325959
O	-1.6108530926	-3.125620693	 0.6779810834	-0.473273
C	-2.4682265651	-1.0462000232	 1.6556752413	-0.105115
O	-2.271175601	 0.0753555971	 0.7588907414	-0.308274
C	-1.3078794181	-0.6620113984	-0.0389833606	 0.011093
H	-0.833188572	 1.5593427367	 0.7113930562	 0.290497
H	 0.6174705717	-0.106975331	-0.957666691	 0.086038
H	 1.7485266157	-0.3175695714	 1.4770220981	 0.111532
H	 0.3350840927	-2.2229210963	 2.5516313251	 0.106154
H	-0.8137953584	-3.5549041719	 0.3483116359	 0.281424
H	-3.4292112614	-1.5407895047	 1.4731189749	 0.116471
H	-2.3828408011	-0.7571579448	 2.707779903	 0.110294
H	-1.7009941638	-0.8976023384	-1.0317055003	 0.083879
