17
gdb 50394	3.90661	0.88985	0.74867	3.4705	78.46	-0.2554	-0.0658	0.1895	1440.1274	0.134948	-421.863592	-421.855052	-421.854108	-421.89788	30.424	
O	 0.0521520022	-0.0888884042	-0.0141732363	-0.244486
C	 0.1101813248	 1.1080055917	 0.0857953929	 0.155253
C	 1.3750350865	 1.9324979713	 0.0276397958	-0.06549
C	 1.3498259293	 2.9637913686	-1.1436135368	-0.292903
C	 1.9918342915	 4.1874667791	-0.5503883352	-0.146903
C	 2.12092627	 4.0982699373	 0.7799563637	 0.247733
C	 1.5844847909	 2.7886966324	 1.3126002258	-0.346768
C	 2.6731625513	 5.1498370407	 1.6379507689	 0.068882
O	 2.7475690109	 5.0689449768	 2.8441587321	-0.265667
H	-0.8137096112	 1.7191902244	 0.2343799643	 0.072303
H	 2.2139240368	 1.2456275773	-0.1053097237	 0.105125
H	 1.8667926361	 2.5899253852	-2.0331223442	 0.13312
H	 0.3224179435	 3.1959259864	-1.4643368004	 0.125853
H	 2.2798427288	 5.0491032497	-1.1442221716	 0.117244
H	 0.642787742	 2.9582122269	 1.8528765132	 0.124982
H	 2.2617764094	 2.3107840419	 2.0244773564	 0.139785
H	 3.0319903474	 6.0527699847	 1.0957321251	 0.071938
