16
gdb 43994	2.85476	1.70767	1.53579	5.1523	67.27	-0.2438	0.0028	0.2466	917.4813	0.125995	-437.860705	-437.853707	-437.852763	-437.892144	27.66	
O	 0.0025258172	 0.1412700834	-0.3925179285	-0.318668
C	 0.0835322861	 1.2909130529	-0.1176097474	 0.416932
O	-0.9785550507	 2.1896718296	 0.0727357007	-0.290127
C	-0.0380407121	 3.3001509391	 0.0818342563	 0.361645
C	 0.834450962	 3.2224050079	 1.272611096	-0.353992
C	 1.1565612586	 2.3524339773	 0.0449629028	 0.019702
N	 2.0778351905	 2.7479269356	-0.9576441423	-0.347603
C	 1.35021209	 3.663438155	-1.872021152	-0.175123
C	 0.1317488986	 4.2618631698	-1.0703870661	-0.317471
H	 1.53219332	 4.0384988936	 1.4341935842	 0.130673
H	 0.4585823443	 2.7496546748	 2.1736790489	 0.143174
H	 2.9298259888	 3.1471506815	-0.5886961236	 0.232728
H	 2.0231560238	 4.4270428736	-2.2729693754	 0.110651
H	 0.9686995421	 3.0877213426	-2.7230256312	 0.131618
H	-0.772832758	 4.3103695105	-1.6802971675	 0.13667
H	 0.3433169687	 5.2723099229	-0.709100035	 0.11919
