18
gdb 110847	2.70044	1.50838	1.2762	0.7192	72.47	-0.2303	0.0234	0.2537	1072.628	0.147125	-439.073099	-439.064637	-439.063693	-439.106322	31.177	
C	 0.276136194	 0.8381583787	 0.377004389	-0.239466
O	-0.1860327824	-0.0120347519	-0.6624209505	-0.235141
C	-1.3881976432	-0.6236246915	-0.3639209338	 0.072689
C	-1.6246668322	-2.0090863543	-0.8786456647	-0.007922
O	-0.4714746231	-2.7358379493	-1.2461176557	-0.235818
C	 0.2837511852	-2.847809331	-0.1109761786	 0.41551
C	 1.6063469155	-3.5038208792	-0.2893074039	-0.480679
N	-0.2131928169	-2.3966627888	 0.9753735342	-0.306357
C	-1.4651873071	-1.7790563653	 0.6318517476	-0.103817
H	 1.2216443352	 1.2667966059	 0.0373830258	 0.127026
H	-0.4347736502	 1.6541818513	 0.5724005536	 0.10574
H	 0.4398927069	 0.2742824831	 1.3033366705	 0.135376
H	-2.2638830791	 0.028471068	-0.3693828458	 0.094304
H	-2.5090813983	-2.2999183219	-1.4308687248	 0.112305
H	 2.2603544966	-2.8743216604	-0.9011648637	 0.15242
H	 2.0679148775	-3.6626797335	 0.6848256687	 0.151607
H	 1.491265137	-4.460131383	-0.8082680627	 0.144086
H	-2.2597882555	-1.8176884669	 1.3676128747	 0.098137
