20
gdb 73052	2.44576	1.42904	1.17863	3.2927	79.76	-0.2394	0.0293	0.2686	1145.6484	0.17104	-403.150325	-403.141348	-403.140404	-403.184347	33.548	
C	 0.28817461	 1.4738834443	-0.0517880724	-0.500554
C	 0.1659469236	-0.0168314433	 0.0694180003	 0.358957
C	-1.0902438328	-0.8194582835	-0.2988976457	-0.276456
C	-0.8194288312	-1.7884105874	 0.8936291899	-0.226178
C	 0.4380599791	-0.9854903072	 1.2437063473	-0.166666
C	 1.3699331726	-0.9125342087	 0.06555097	-0.011698
N	 1.530789149	-2.0058713402	-0.8503344813	-0.283103
C	 1.6467094041	-1.8317302596	-2.196333209	 0.151929
O	 1.5520113857	-0.7712939798	-2.7752286884	-0.322806
H	 1.1844622427	 1.8445910148	 0.4562556898	 0.114654
H	 0.3619115536	 1.7606714793	-1.1068702897	 0.14459
H	-0.5793716834	 1.9830688873	 0.3826365198	 0.111831
H	-2.0031345027	-0.2367132873	-0.1545960484	 0.102227
H	-1.1055490642	-1.2497409575	-1.303676073	 0.109552
H	-1.5861507106	-1.7208178691	 1.6678917257	 0.105991
H	-0.670032635	-2.8445842706	 0.6467368509	 0.08582
H	 0.7976755073	-0.7806772953	 2.2463075672	 0.084648
H	 2.2918991603	-0.3703863445	 0.2715276608	 0.099592
H	 1.7030092046	-2.927530785	-0.4786503483	 0.247146
H	 1.8304202173	-2.7933388568	-2.7187153756	 0.070522
