17
gdb 110821	2.41039	1.37244	1.05617	1.9128	73.85	-0.2437	0.0121	0.2558	1160.6853	0.134254	-421.72944	-421.720805	-421.719861	-421.763069	32.302	
O	-0.143754878	 1.512924034	-0.2798191305	-0.419596
C	-0.0224655405	 0.1733279904	 0.1826042661	-0.106042
C	-1.3536349189	-0.5443024668	 0.1253587185	-0.052197
C	-1.8686962844	-1.2532452973	-1.0890968142	 0.062945
O	-0.8062082284	-1.8920016375	-1.8119435425	-0.294378
C	-0.5896230456	-2.8132766821	-0.6972340924	-0.062803
C	 0.794321555	-2.9798385342	-0.2874927	 0.324023
C	 1.9305036957	-3.1675534719	 0.0575949182	-0.427779
C	-1.5935289893	-2.0438257555	 0.1719005163	-0.180666
H	-0.3449167207	 1.4715522899	-1.2204724986	 0.285041
H	 0.7366418174	-0.378869666	-0.3809379261	 0.115386
H	 0.3202030266	 0.2452424173	 1.2197292471	 0.111967
H	-2.1455423648	-0.0136041571	 0.6521638073	 0.101948
H	-2.7809514615	-1.0343506654	-1.631468677	 0.10917
H	-1.0055977386	-3.7904902039	-0.974318568	 0.118301
H	 2.9362571673	-3.3180308902	 0.3648671234	 0.205617
H	-2.2651394512	-2.5110764936	 0.8787766824	 0.109062
