21
gdb 98586	2.9006	1.00544	0.9631	3.2252	80.84	-0.2387	-0.0216	0.217	1386.6631	0.180298	-424.243037	-424.232948	-424.232004	-424.278425	36.882	
C	-0.0987114717	 1.5595812835	 0.0834169909	-0.379387
C	-0.0999182516	 0.0494237321	-0.1364120445	-0.283369
C	 0.855367606	-0.4153397075	-1.2240974385	 0.418403
O	 1.5586471837	 0.3887305492	-1.829086645	-0.376506
C	 0.911856265	-1.8657808691	-1.482229037	-0.225838
C	 1.0266510149	-2.4316191381	-2.9236184903	-0.060395
C	 0.9085156824	-1.561988905	-4.1536070682	-0.419021
C	 2.2344168733	-2.4367071044	-2.0554196272	 0.126077
O	 3.3140043214	-1.6062815068	-2.2733116586	-0.421737
H	 0.8967696085	 1.9125129116	 0.3637523914	 0.133711
H	-0.3844646095	 2.0874886601	-0.8298940507	 0.131494
H	-0.8003568136	 1.8334421304	 0.8761243736	 0.110792
H	 0.1647015225	-0.4872454933	 0.7855888483	 0.127571
H	-1.1028362803	-0.3163589905	-0.3972949236	 0.125826
H	 0.3629332112	-2.4814268699	-0.777729043	 0.089917
H	 0.5247657981	-3.392592953	-3.0087880509	 0.09608
H	 1.384402529	-0.5909195252	-4.016399088	 0.146939
H	 1.3879295382	-2.059193598	-5.0034118047	 0.125073
H	-0.1412809279	-1.3905612924	-4.4123288069	 0.116165
H	 2.5513206027	-3.3844279797	-1.6291652341	 0.108892
H	 2.9750972678	-0.6920853141	-2.2965041229	 0.309312
