17
gdb 43633	5.31611	0.8818	0.80197	2.9347	68.53	-0.2606	0.0053	0.2659	1373.9011	0.136137	-458.96344	-458.955387	-458.954443	-458.997487	28.776	
O	 0.2360605817	 0.2064971844	-0.5307216522	-0.309542
C	 0.0248842698	 1.244506647	 0.0052309688	 0.44712
C	-1.1782628625	 2.122585269	 0.353386009	-0.446022
C	-0.1135484399	 3.0505431672	 0.9708070652	 0.125702
O	 0.9398296061	 2.1008689133	 0.5678283455	-0.253146
C	 0.0995783116	 4.4109278397	 0.3547981883	-0.048164
C	-0.8115260437	 5.5269319838	 0.9195439614	-0.089233
O	 0.2945390531	 6.1466711177	 1.6007780649	-0.267903
C	 1.2386312466	 5.2474756917	 0.9809162709	-0.086633
H	-1.7128708239	 2.515084956	-0.5140382485	 0.14421
H	-1.8861400706	 1.6610328946	 1.0432090579	 0.148868
H	-0.1410024617	 3.110917558	 2.0631905669	 0.10761
H	 0.126231757	 4.3287040003	-0.7343856015	 0.088762
H	-1.2528485856	 6.1852437187	 0.1606275799	 0.106684
H	-1.6001032629	 5.2087972793	 1.6137221079	 0.105062
H	 1.8690618692	 4.7342040443	 1.7160965713	 0.117854
H	 1.8810358255	 5.7617781951	 0.2559355743	 0.108771
