16
gdb 35170	3.78369	1.20875	1.07415	2.4504	76.32	-0.2385	0.0272	0.2657	1124.2811	0.122988	-400.597752	-400.590155	-400.589211	-400.629887	29.811	
C	-0.1387065211	-1.2373451528	 0.0308623761	-0.436797
C	-0.0760507278	-0.0368340999	 0.0469256608	 0.380527
C	-0.0032743471	 1.3969769934	 0.0215763283	-0.39049
N	 0.5914881861	 2.0835122825	 1.2218202506	-0.394353
C	 1.2812110699	 2.1358635817	-0.0275171893	 0.487736
C	 2.7502536791	 1.8180797011	-0.3346116162	-0.047978
C	 2.4959821292	 2.2300082975	-1.8057182733	-0.21679
C	 1.8425675882	 3.2863954927	-0.8790308114	-0.065576
O	 3.0594094163	 3.2437142193	-0.0316835425	-0.31053
H	-0.1922802681	-2.2978647587	 0.0311455851	 0.200318
H	-0.8527576692	 1.8892652805	-0.4491410996	 0.116577
H	 0.0886537534	 2.9466457424	 1.4167134575	 0.242274
H	 3.4033165646	 1.0546460517	 0.0831856306	 0.111731
H	 3.3826616515	 2.5867345309	-2.3294045724	 0.114026
H	 1.8480412816	 1.5981082924	-2.4175701044	 0.10925
H	 1.4200884734	 4.2635088652	-1.1147669	 0.100078
