15
gdb 75977	2.44514	1.67874	1.19999	2.8432	63.29	-0.2571	-0.0278	0.2293	1015.8631	0.113864	-491.102416	-491.094289	-491.093345	-491.135821	29.267	
N	 0.0138066439	 1.359149933	 0.142198275	-0.512704
C	-0.0205322069	-0.1101602439	 0.0063339571	-0.132785
C	-1.4636738409	-0.5549644573	-0.0109372494	 0.373741
N	-2.0886900309	-0.9131113855	 1.0185603013	-0.479509
O	-2.0472677207	-0.4306110254	-1.2608659694	-0.240697
C	-1.3329834956	-1.0909812683	-2.2794034731	 0.004244
O	 0.0234092499	-0.6861881289	-2.3941425672	-0.219533
C	 0.7566186416	-0.5086338645	-1.255514786	 0.3827
O	 1.9527839122	-0.5143635056	-1.307810656	-0.318666
H	 0.9845021893	 1.6612658676	 0.1156300774	 0.25336
H	-0.4487049743	 1.7859183067	-0.6569614857	 0.241579
H	 0.4794477516	-0.5459632294	 0.8716794712	 0.142166
H	-3.060721676	-1.1345791797	 0.7913594958	 0.233559
H	-1.362681222	-2.1761217278	-2.1118338755	 0.125026
H	-1.8136965411	-0.8358173711	-3.2234817755	 0.14752
