18
gdb 3995	3.23044	1.52778	1.35015	1.198	71.91	-0.2278	0.0066	0.2344	1003.1681	0.151962	-381.061103	-381.052279	-381.051335	-381.09405	32.717	
C	-0.2477120363	 1.5436325236	 0.1857373891	-0.406453
C	 0.0241021892	 0.0466210715	 0.0619578802	 0.22969
C	-1.2293509543	-0.7275655217	-0.3577991326	-0.433809
N	 1.2394218671	-0.2562134881	-0.7808375169	-0.35595
C	 1.8673935529	-1.0615599247	 0.3084155903	-0.263962
C	 0.764266232	-0.5957160343	 1.2276345043	 0.379868
N	 0.4894731774	-0.6338280383	 2.4596324294	-0.24767
O	 1.4775503767	-1.3361992443	 3.1773688191	-0.392457
H	 0.6679620128	 2.0783567435	 0.4478096929	 0.122449
H	-0.6158618251	 1.942188828	-0.7658225687	 0.112274
H	-0.9995552113	 1.7359356053	 0.9575812009	 0.122308
H	-1.5737328853	-0.3832946516	-1.3400361174	 0.117244
H	-1.0332582637	-1.802880805	-0.4171623828	 0.114374
H	-2.0409536325	-0.5718748279	 0.3593019875	 0.132537
H	 1.017942472	-0.8049547362	-1.6051687531	 0.214115
H	 1.8782867411	-2.1492719682	 0.1566964523	 0.118102
H	 2.8814283961	-0.7431418044	 0.573275766	 0.130465
H	 1.1540638112	-1.2735277474	 4.0824678495	 0.306875
