17
gdb 51167	4.39602	1.04504	0.94862	4.2394	74.71	-0.2497	-0.0042	0.2455	1237.3931	0.135758	-421.84124	-421.833417	-421.832472	-421.873991	29.603	
O	 0.1014042725	-0.0321487212	-0.238472269	-0.271802
C	 0.1444778153	 1.1579327997	-0.3176899902	 0.148383
O	 1.0346278467	 1.899044824	 0.3806271937	-0.233032
C	 0.9548631832	 3.3006076612	 0.2333217011	 0.402975
C	 1.2301170901	 3.948749816	-1.1040067662	-0.334465
C	 2.2042376994	 4.1287149258	 0.042616087	-0.110304
C	 2.0725827675	 5.3606722175	 0.9356253529	-0.280336
C	 0.6955047903	 5.2089280039	 1.5501327237	-0.069818
C	 0.1023904231	 4.0702795726	 1.1876800307	-0.146486
H	-0.5146365047	 1.7735771651	-0.9570780074	 0.085384
H	 1.5696896725	 3.301575108	-1.9063744465	 0.126122
H	 0.5969027857	 4.7735432395	-1.41474735	 0.122312
H	 3.1622435402	 3.6325726255	-0.0499796036	 0.10977
H	 2.8531191716	 5.3904344506	 1.7065889167	 0.1202
H	 2.1650405549	 6.2941964985	 0.366263544	 0.118621
H	 0.2550299609	 5.9688620192	 2.1851178581	 0.105702
H	-0.8785313293	 3.728269704	 1.4960407947	 0.106776
