23
gdb 116161	2.47048	1.23649	0.87857	1.4833	82.7	-0.2547	0.092	0.3468	1401.1362	0.205751	-425.451562	-425.442067	-425.441123	-425.485669	36.145	
C	-0.0180066941	 1.5617292833	 0.063681843	-0.386105
C	-0.017512487	 0.0318725428	 0.0094951243	-0.189296
C	-1.416571467	-0.5737019175	 0.0187992585	 0.143531
C	-1.4282991847	-2.1014094385	-0.1025598476	-0.214383
C	-2.8536794043	-2.6121074534	 0.1157858948	-0.094277
O	-3.3870009909	-2.1031495248	 1.3297027331	-0.247404
C	-3.358131536	-0.6947179066	 1.3608304254	 0.224763
C	-3.9271926983	-0.2356738056	 2.6856404344	-0.407773
O	-2.0458497924	-0.1952088618	 1.2441660196	-0.26637
H	 1.0027843807	 1.9549698734	 0.0815439501	 0.109626
H	-0.5245545498	 1.9883948692	-0.8094696398	 0.109141
H	-0.537804711	 1.9138848019	 0.9579607281	 0.134726
H	 0.4978109925	-0.3159877989	-0.8944352862	 0.093176
H	 0.535821696	-0.373937947	 0.8651503766	 0.105046
H	-2.0005851169	-0.148985238	-0.8194123252	 0.057706
H	-1.0590151683	-2.4110453315	-1.0868737376	 0.094741
H	-0.7671828874	-2.5270764042	 0.6606861003	 0.108762
H	-3.4953172256	-2.310605048	-0.7304327668	 0.085632
H	-2.8889309716	-3.7020543157	 0.1928385996	 0.109011
H	-3.9576887485	-0.3118309493	 0.509814154	 0.048371
H	-3.3139460267	-0.6278491912	 3.5005831993	 0.133585
H	-3.9280432622	 0.85555276	 2.7334626941	 0.123304
H	-4.9493026764	-0.6033040985	 2.800372798	 0.124486
