18
gdb 126399	2.88775	1.24012	0.92912	1.1418	76.6	-0.2203	0.0068	0.2271	1288.8201	0.147861	-435.284526	-435.27513	-435.274186	-435.320154	32.972	
C	 0.0724229731	 1.4840722482	 0.2452676396	-0.378651
C	-0.1317723983	-0.008501057	-0.0660322549	-0.292999
C	 0.6434516934	-0.4711015934	-1.2581459031	 0.235929
N	 0.0750522214	-0.8410478261	-2.4108222642	-0.291725
N	 1.0888644334	-1.1642292347	-3.2019784409	 0.140991
C	 0.9015282935	-1.620828432	-4.5595803921	-0.30823
N	 2.3050111189	-1.0342686267	-2.6573893382	-0.344877
C	 2.0354818241	-0.5981578732	-1.4335227961	 0.308526
O	 2.9864107605	-0.329426449	-0.5156516414	-0.428807
H	 1.1285405932	 1.7015908004	 0.4300277986	 0.132394
H	-0.2596646177	 2.1060921648	-0.5915290563	 0.121412
H	-0.495314718	 1.7757612446	 1.1342200672	 0.11183
H	 0.1629579351	-0.6002336183	 0.8094202494	 0.113219
H	-1.1904963431	-0.2155777139	-0.2482359784	 0.119035
H	 1.3743831073	-0.93034353	-5.2638981947	 0.146487
H	 1.3378879099	-2.6150624707	-4.6893206311	 0.14716
H	-0.1714244845	-1.6594316874	-4.7424713683	 0.161409
H	 3.8429111377	-0.5139984055	-0.9200633851	 0.306898
