23
gdb 93033	2.70221	1.42446	1.09316	0.3319	90.51	-0.2316	0.018	0.2496	1209.9208	0.208126	-351.158368	-351.149976	-351.149032	-351.190796	34.28	
C	-0.3065694112	 1.4766311722	 0.0460157581	-0.392607
C	 0.0615993293	-0.0103940192	-0.0339228709	 0.039274
C	 0.8422712818	-0.3411807672	-1.338566507	-0.255794
C	 2.3265598519	-0.0512715692	-1.283234593	-0.053565
C	 3.1779575094	-0.7852493663	-0.5625866467	-0.075067
C	 2.7296201601	-1.942902773	 0.2641874984	-0.049686
C	 2.8858041759	-1.9538971063	 1.7696438255	-0.3111
C	 1.5150949792	-1.7863903781	 1.1568567432	-0.020539
C	 0.8338311459	-0.4316916608	 1.2347505794	-0.204698
H	 0.5929461209	 2.1030569363	 0.0245286739	 0.11575
H	-0.943601872	 1.7767733564	-0.7927243391	 0.106841
H	-0.8445818911	 1.7036279731	 0.9730002157	 0.108948
H	-0.8727957213	-0.5861311329	-0.0774091465	 0.065856
H	 0.705402052	-1.4059618067	-1.5570295919	 0.106271
H	 0.3832229268	 0.2025898468	-2.171189954	 0.088522
H	 2.7047395554	 0.7877645151	-1.8625911614	 0.082853
H	 4.2419733646	-0.5544655731	-0.5739469429	 0.081276
H	 2.855166534	-2.9161549848	-0.2091708521	 0.088636
H	 3.1361656585	-2.8944370162	 2.2484254523	 0.105803
H	 3.3289765164	-1.0817152348	 2.2405044936	 0.109419
H	 0.8506195657	-2.6449044956	 1.2156620009	 0.075595
H	 1.5966908593	 0.3281527301	 1.438237869	 0.097915
H	 0.1517850985	-0.4093446358	 2.0940924055	 0.090097
