21
gdb 111297	3.14639	1.20034	1.03264	2.6848	79.32	-0.2378	0.078	0.3158	1261.8091	0.179738	-424.185479	-424.175661	-424.174717	-424.219924	36.003	
C	-0.000081512	 1.3731388295	-0.0442458186	-0.239399
O	-0.2326440155	-0.0084546079	 0.1247413684	-0.237928
C	 0.5583773892	-0.5997719731	 1.1145183536	 0.133127
C	 0.1335308914	-2.0070773793	 1.5183974867	-0.096638
O	 0.3700127398	-2.8862096753	 0.4106159117	-0.281718
C	 1.4826031289	-2.5464191086	 1.2495569712	 0.422499
C	 2.2595321652	-3.6508511662	 1.888848495	-0.504896
C	 1.9923852666	-1.1795913917	 0.7400782579	-0.11868
C	 2.4331812353	-1.1191990665	-0.7157123114	-0.405248
H	 1.0286107026	 1.5875138459	-0.3673065861	 0.109541
H	-0.6895786359	 1.7245264324	-0.8155050174	 0.12979
H	-0.1922530232	 1.9315412927	 0.88557196	 0.103777
H	 0.6303981997	 0.0521205054	 1.998735677	 0.06532
H	-0.6274254852	-2.3068495795	 2.2309227555	 0.097416
H	 1.5852178854	-4.4209808899	 2.2727533178	 0.134721
H	 2.9353173942	-4.1213004658	 1.1656242199	 0.131944
H	 2.8675124175	-3.2696061966	 2.7158264153	 0.122886
H	 2.7562152393	-0.7637863166	 1.4056033931	 0.067392
H	 1.6471356429	-1.5089937576	-1.3650408939	 0.14557
H	 2.6565200758	-0.0927950278	-1.0229847267	 0.111143
H	 3.340354718	-1.7135054934	-0.872423499	 0.10938
