19
gdb 84762	2.26158	1.50509	1.23192	1.9186	82.08	-0.2442	0.0065	0.2506	1112.1405	0.157921	-385.864911	-385.855894	-385.85495	-385.89821	35.211	
C	 0.3089882369	 1.3607740191	-0.0799746947	-0.442277
C	-0.0178103988	-0.1470895292	-0.0337381151	 0.072965
C	 0.6595174583	-0.870928227	-1.2478192734	-0.292469
C	 1.9330536481	-1.4309118678	-0.6686719044	-0.066963
C	 1.9368886673	-1.4092062099	 0.6614919515	-0.126049
C	 0.6688525156	-0.8219386825	 1.2307148478	 0.071828
O	 0.8623004358	 0.0347140534	 2.340313164	-0.425759
C	-1.4644198599	-0.3355413019	-0.0178260495	 0.294594
C	-2.6567252165	-0.4927220162	-0.0007861116	-0.47101
H	 1.3918429806	 1.5164786678	-0.1477002997	 0.107306
H	-0.1537451464	 1.816309666	-0.9589948448	 0.125984
H	-0.066988627	 1.8663928119	 0.8111852834	 0.138087
H	 0.0180754822	-1.6749009699	-1.6280352871	 0.123788
H	 0.8294991394	-0.1854992037	-2.0859359193	 0.108532
H	 2.7208444712	-1.8399785243	-1.2921557862	 0.100262
H	 2.7179908065	-1.7917845441	 1.30919693	 0.101985
H	 0.010378672	-1.6103569867	 1.6125187416	 0.108165
H	 1.5672042482	 0.6526405736	 2.1186788909	 0.280019
H	-3.7091107435	-0.6318318385	 0.0179063465	 0.191012
