18
gdb 1521	7.45443	1.25944	1.10695	1.2804	65.95	-0.2566	0.039	0.2956	1103.4198	0.158861	-326.998454	-326.98982	-326.988876	-327.031941	30.074	
C	 0.0657013933	 1.5332928872	-0.1421195398	-0.389156
C	-0.0057534408	 0.0250314117	 0.0090851825	-0.025762
O	 0.6420207853	-0.5539430258	-1.1330926217	-0.247813
C	 0.6882980662	-1.9002225689	-1.1910654046	 0.402842
N	 0.1798987763	-2.6167944655	-0.2740460088	-0.53109
C	 1.404314076	-2.3271542566	-2.456732554	-0.258331
C	 1.5260446042	-3.8373031117	-2.6462389065	-0.401061
H	 1.104540499	 1.8731202016	-0.1862038167	 0.124914
H	-0.4399612562	 1.8590692284	-1.0557872344	 0.124923
H	-0.4191530807	 2.0169105796	 0.7112254951	 0.118565
H	 0.4950974593	-0.321126845	 0.9194132138	 0.116779
H	-1.0390374411	-0.3348659445	 0.0562958764	 0.116704
H	 0.3043692056	-3.6054929315	-0.4774012339	 0.220012
H	 0.8756738748	-1.8729698958	-3.3033350362	 0.126867
H	 2.3952714788	-1.8576735104	-2.4488234596	 0.126862
H	 2.0870604503	-4.3000925345	-1.8279289533	 0.127129
H	 0.5425288707	-4.3155852746	-2.6962341863	 0.127133
H	 2.0519698489	-4.0635738037	-3.5777710122	 0.120485
