15
gdb 11225	4.47167	1.40062	1.21217	4.8919	67.94	-0.2612	-0.0068	0.2544	1000.3131	0.118717	-362.679876	-362.672214	-362.67127	-362.712204	27.296	
C	 0.0142737437	 1.5273261926	 0.0436702344	-0.494107
C	 0.0304080293	 0.0349184997	 0.0022293325	 0.302638
C	-0.104272094	-0.7745280529	-1.0441119765	-0.204818
C	-0.0435075223	-2.2142216633	-0.588068006	-0.046929
O	 0.2524960085	-2.1555928526	 0.8004402477	-0.258409
C	 0.1995347529	-0.7995069343	 1.2461792029	-0.154259
C	-1.3231377807	-2.9257638068	-0.8242366673	 0.265449
N	-2.319207909	-3.4751303947	-1.0267168133	-0.321246
H	 0.9506758173	 1.9203930291	 0.4576120044	 0.137785
H	-0.1273776671	 1.9553809236	-0.951164163	 0.137814
H	-0.7929525683	 1.8910562454	 0.6909855313	 0.1414
H	-0.26303354	-0.4968820754	-2.0773243978	 0.123511
H	 0.7444700204	-2.7896307128	-1.0955212221	 0.134039
H	 1.1280769459	-0.5696452117	 1.7873867757	 0.117962
H	-0.6360115967	-0.6585557961	 1.949817527	 0.119171
