18
gdb 96059	2.47219	1.56816	1.38832	1.034	68.28	-0.2486	0.0063	0.2549	1017.4864	0.149102	-476.22527	-476.217176	-476.216232	-476.258046	30.686	
O	-0.6471543796	 1.5118494967	-0.0630991683	-0.435106
C	-0.1274781831	 0.2160574991	 0.0526700832	 0.070937
C	 0.2168176568	-0.2024089161	 1.4995137335	-0.245895
C	-1.0555101173	-0.9134273598	 1.9565831091	-0.084634
O	-1.5247492613	-1.5964916458	 0.780420858	-0.257916
C	-1.1064137698	-0.931033685	-0.3684504501	 0.202256
O	-2.2319559914	-0.5242204427	-1.1895003567	-0.213673
C	-3.2585642542	 0.1748062609	-0.7099374567	 0.160773
N	-3.2833748904	 0.7985773855	 0.3960732847	-0.493264
H	-1.5292053141	 1.5158624865	 0.3518533686	 0.296204
H	 0.756271924	 0.1897884782	-0.5911333813	 0.09027
H	 1.0589709044	-0.9025144768	 1.5048222579	 0.104616
H	 0.48181936	 0.6698602989	 2.099745781	 0.116626
H	-0.8885051678	-1.6735666017	 2.7231991139	 0.108549
H	-1.8200494927	-0.2088396384	 2.301778916	 0.12015
H	-0.6205879753	-1.6477329274	-1.0377196394	 0.101922
H	-4.0812141881	 0.1343699186	-1.4301898218	 0.121604
H	-4.1802979301	 1.2563606692	 0.5331476884	 0.236582
