17
gdb 15823	5.18888	1.03176	0.89582	1.7821	66.23	-0.2478	0.0059	0.2537	1264.0569	0.140775	-400.989929	-400.981066	-400.980121	-401.024567	30.46	
O	-0.1925738953	 1.3874031641	-0.0609451622	-0.426021
C	-0.0615172907	-0.026719087	-0.0957766584	-0.071001
C	-1.4308670834	-0.6088136089	 0.2230151744	-0.290524
C	-1.4395409197	-2.1257946415	 0.1878400094	 0.36703
O	-0.473724201	-2.7952324943	-0.1099284206	-0.337498
N	-2.638233463	-2.7014501665	 0.6144850881	-0.076238
C	-3.9072451378	-2.6039853349	-0.0857658177	-0.233714
C	-3.1711587265	-3.9068192619	 0.027838542	-0.216429
H	 0.6676444389	 1.7698629857	-0.2559572635	 0.287186
H	 0.2701509844	-0.3819552221	-1.0813467181	 0.102059
H	 0.6723812509	-0.3868767888	 0.6389887574	 0.103399
H	-1.7686215036	-0.269886709	 1.2086318938	 0.13892
H	-2.1682896748	-0.2229993188	-0.4923010727	 0.12748
H	-4.7806449307	-2.4096095225	 0.530635386	 0.129371
H	-3.9152765906	-2.1176646345	-1.0586940409	 0.1297
H	-2.6666854353	-4.2876671708	-0.8560116479	 0.138042
H	-3.5179774518	-4.6625778684	 0.726426161	 0.128239
