20
gdb 88531	3.28305	1.2763	1.14122	1.6027	79.64	-0.2304	0.07	0.3004	1156.4531	0.170876	-403.052636	-403.044286	-403.043342	-403.086566	32.153	
C	 1.104115158	 1.2134198847	-0.6161974429	-0.397894
C	 0.1923513072	 0.1522779798	-0.0509333149	 0.021972
N	 0.7918015632	-1.1139236479	 0.3911321722	-0.334182
C	 0.1395895968	-0.2403774228	 1.3882367611	-0.241584
C	 1.0054123145	 0.3514554037	 2.4470453761	 0.506706
C	 0.866628601	 0.2086510656	 3.9897491828	-0.267184
C	 1.9149624322	 1.2959116449	 3.6736235597	 0.046823
C	 2.5476285131	 0.3718452669	 2.6080994212	-0.253302
O	 1.0060405711	 1.8370731872	 2.6373329943	-0.352259
H	 2.0903985677	 1.1746216113	-0.1535618317	 0.133188
H	 1.2289500184	 1.068346448	-1.6948051158	 0.111709
H	 0.6857627043	 2.2101148802	-0.4480501595	 0.130972
H	-0.769151077	 0.0799883137	-0.5595708079	 0.083077
H	 0.1892922511	-1.9013154417	 0.168041983	 0.232685
H	-0.839994773	-0.5453095167	 1.752855438	 0.082612
H	-0.0736302915	 0.5775624169	 4.4027458309	 0.102631
H	 1.2048991304	-0.7227985946	 4.4515957805	 0.09457
H	 2.3919054701	 2.0120384652	 4.3417900137	 0.093061
H	 3.033935013	-0.5483517625	 2.9398822879	 0.097885
H	 3.0985066795	 0.8817351181	 1.8187275712	 0.108515
