17
gdb 60875	2.32972	1.39236	1.04155	1.6394	75.34	-0.2498	-0.0402	0.2096	1168.9391	0.132812	-421.785855	-421.7767	-421.775756	-421.819888	34.123	
O	-0.4790506644	 1.1743974904	 0.124054575	-0.429023
C	 0.0319664499	-0.1196849187	-0.0093948178	-0.055791
C	 0.9495439464	-0.1837177704	-1.2204115841	 0.145414
O	 1.1417953303	 0.7914948004	-1.9072707293	-0.267668
C	 0.808444515	-0.5673728251	 1.247940265	 0.138317
C	 1.7177320593	 0.4523502933	 1.9179762077	-0.29555
C	 0.4251042537	 0.0690523242	 2.574184063	-0.30616
C	 1.1986314726	-1.9498037911	 1.2351474166	 0.247693
C	 1.5020224557	-3.1137796476	 1.1899901289	-0.430598
H	-0.0977473424	 1.6786053492	-0.614550344	 0.298059
H	-0.783457485	-0.8450430078	-0.1716140404	 0.106024
H	 1.4348561215	-1.1552657312	-1.425458466	 0.12193
H	 2.6475386799	 0.0892474713	 2.3380565592	 0.127763
H	 1.7647103676	 1.4284404572	 1.4489181213	 0.129733
H	-0.3841827578	 0.7874651196	 2.540303831	 0.146265
H	 0.4569852492	-0.5704019962	 3.4479915712	 0.128011
H	 1.7778327384	-4.1389153474	 1.1647233728	 0.19558
