18
gdb 115437	3.3433	1.04018	0.91554	3.7697	71.67	-0.2674	0.0134	0.2808	1289.264	0.148418	-439.099685	-439.090939	-439.089995	-439.13418	31.755	
O	 0.3021028561	 1.1222398452	 0.4614359875	-0.41974
C	-0.0069434272	-0.1819274332	 0.0254670222	-0.057003
C	-1.5135505141	-0.4010559891	-0.0803329073	 0.107398
C	-1.9246771127	-1.8590116141	-0.3620084658	-0.26928
C	-2.3497925529	-2.3873225632	 1.0187359238	-0.234815
C	-2.895059515	-1.1123874341	 1.686115491	-0.027263
O	-2.0755966032	-0.0590710112	 1.2131576773	-0.280652
C	-4.314842484	-0.8745892629	 1.3369204251	 0.271119
N	-5.4221299255	-0.6971260258	 1.0584007375	-0.319243
H	-0.2237025813	 1.2725349944	 1.256103161	 0.293425
H	 0.451664792	-0.3086110572	-0.9614066994	 0.112137
H	 0.4211899542	-0.9485278403	 0.6947372424	 0.079878
H	-1.9287980416	 0.2954813176	-0.816779168	 0.101785
H	-2.7648821632	-1.8942520548	-1.0598249448	 0.13284
H	-1.1057175319	-2.4393491416	-0.7946103427	 0.119418
H	-3.0841105144	-3.1928670111	 0.972234964	 0.133331
H	-1.4869840528	-2.7358682509	 1.5928060813	 0.122442
H	-2.8174436524	-1.1379167477	 2.7774157951	 0.134223
