11
gdb 21827	6.09721	1.50216	1.20523	2.8518	54.58	-0.2537	-0.0481	0.2057	884.78	0.072779	-430.715723	-430.709354	-430.70841	-430.74674	22.555	
O	-0.2422235955	 0.0320800159	 0.0003802073	-0.303646
C	-0.0690020509	 1.2301168797	 0.0077389909	 0.145648
N	 1.1632580513	 1.8255336733	 0.0010117066	-0.397994
C	 2.3554269575	 1.1174793441	-0.0152991355	 0.358006
C	 2.6312501451	-0.2152504839	-0.0277603933	-0.02831
O	 3.9642661866	-0.3420469571	-0.0421047123	-0.151594
N	 4.5095311939	 0.9517798679	-0.0366708067	 0.005224
N	 3.5551272645	 1.7823808828	-0.0210942489	-0.207097
H	-0.8860479064	 1.9724896484	 0.0212094067	 0.102831
H	 1.238081427	 2.8317725612	 0.0080098862	 0.277212
H	 2.0226145268	-1.0996379923	-0.0288563909	 0.19972
