16
gdb 43062	3.38271	1.87478	1.6393	3.1942	70.47	-0.2341	-0.0244	0.2097	845.2424	0.12708	-400.704973	-400.699025	-400.698081	-400.735156	24.871	
O	-0.0280897307	-0.0029696777	-0.0647836037	-0.315494
C	-0.0339695123	 1.1899328817	 0.016216301	 0.449714
C	-1.1141155883	 2.2797645771	 0.0171894342	-0.1484
C	-1.4540480604	 2.5999099829	 1.4917401843	-0.254124
C	-0.2559382795	 3.4358625887	 1.9070503885	-0.056045
C	 1.13111584	 3.0972920953	 1.3575112219	-0.111344
C	 0.2704869744	 4.1760559113	 0.7277775886	-0.023857
N	-0.0456098865	 3.283620388	-0.436034989	-0.154226
C	 1.0147216968	 2.2964973467	 0.0457003778	-0.134724
H	-1.9730744996	 2.1742801288	-0.6458916562	 0.104383
H	-2.3761217283	 3.186443637	 1.571688241	 0.112819
H	-1.5850828382	 1.6869541886	 2.0807823888	 0.127624
H	-0.2515953408	 3.9286268367	 2.8733001143	 0.099301
H	 2.0191139603	 3.179198361	 1.9714922571	 0.101659
H	 0.3907982767	 5.2450991746	 0.6108802551	 0.101621
H	 1.9334770265	 2.2058190393	-0.5382194738	 0.101092
