15
gdb 8759	4.78713	1.28631	1.02427	1.5777	68.27	-0.2419	-0.0875	0.1545	1080.3557	0.118407	-395.98622	-395.977746	-395.976802	-396.020104	29.124	
C	 0.1074791693	 1.4446006057	-0.0279733364	-0.362091
N	 0.0335211924	-0.0166322195	-0.0031374397	-0.109275
C	 0.1216262009	-0.6663005751	 1.2261388562	 0.098957
N	 0.2630039414	-0.0196498361	 2.3126543223	-0.477338
C	-0.0678622264	-0.7779812516	-1.1631978537	 0.286894
N	 0.0655994876	-2.0472712423	-1.1627591969	-0.493396
C	-0.3964650171	-0.0451279009	-2.4577329487	 0.094829
O	-0.4292646809	-0.6345739228	-3.5070334949	-0.235019
H	 0.4164611991	 1.7602773586	 0.9675660811	 0.1865
H	 0.8448281396	 1.7889952207	-0.7576846637	 0.135689
H	-0.8634423058	 1.9006405404	-0.248913873	 0.136329
H	 0.0507649725	-1.7475429531	 1.1145604138	 0.152599
H	 0.295016174	-0.664182944	 3.0993727135	 0.233788
H	-0.0756681377	-2.3812106305	-2.1184699264	 0.24613
H	-0.6274925488	 1.0336694006	-2.4016970935	 0.105404
