14
gdb 48929	4.12093	1.56398	1.38434	2.5189	64.19	-0.2605	-0.0447	0.2158	897.1322	0.100763	-436.582175	-436.575849	-436.574905	-436.613158	24.653	
O	-0.0058612795	-0.0072663327	 0.2350433702	-0.237926
C	 0.0739062781	 1.174921105	 0.0303555817	 0.031045
C	 1.3410729054	 1.9576338885	 0.0433933146	 0.35333
O	 2.5577657988	 1.2817176055	 0.3865980875	-0.302956
C	 3.0827018764	 2.5914593773	 0.6927981454	 0.05835
C	 2.9901263704	 3.4514307353	-0.5966807604	-0.054891
C	 1.6660312569	 2.9910452659	-1.0848880766	-0.119035
N	 1.7461856688	 4.1851916236	-0.179866239	-0.177301
C	 1.6748367591	 3.1794708049	 0.9697402582	-0.091401
H	-0.8213087946	 1.8020952423	-0.1837948519	 0.092408
H	 3.9582313926	 2.5938165344	 1.3367806966	 0.105065
H	 3.7573795926	 3.9070134359	-1.2081417042	 0.115669
H	 1.3073577645	 3.0496868171	-2.104003231	 0.117
H	 1.2157789405	 3.425954477	 1.9239068187	 0.110643
