17
gdb 7915	3.40394	1.81045	1.26752	3.9663	74.41	-0.2377	-0.0218	0.2159	973.2459	0.142311	-363.904377	-363.896517	-363.895573	-363.936372	29.331	
C	-0.0327773291	 1.5443301239	-0.0263867914	-0.397488
C	 0.0415394214	 0.0198247645	 0.0335640727	 0.024912
O	 0.773113091	-0.4716940479	-1.1008050145	-0.258321
C	 1.8352871871	-1.2366750642	-0.6765288357	 0.405441
N	 2.6673782924	-1.811543868	-1.4395617196	-0.555333
C	 1.8127916129	-1.2583980885	 0.7880092859	-0.278252
C	 0.7774359798	-0.5400472409	 1.2316948662	 0.315729
C	 0.3375862505	-0.2847315431	 2.6342894183	-0.499776
H	 0.968442835	 1.9789996092	 0.0439251452	 0.130811
H	-0.4851108315	 1.859006505	-0.9701917354	 0.135918
H	-0.644835668	 1.9328062541	 0.7934033796	 0.120496
H	-0.9765053238	-0.3950983419	-0.0206023893	 0.099143
H	 2.4383645049	-1.6279385529	-2.4176227591	 0.218802
H	 2.5476669515	-1.7968231776	 1.3689059527	 0.121914
H	 0.9733912732	-0.8083700056	 3.3516633946	 0.13889
H	 0.3652639908	 0.7856003071	 2.8716474295	 0.140159
H	-0.697589578	-0.6134429632	 2.7893020403	 0.136956
