16
gdb 41071	4.09489	1.87975	1.66155	2.5444	69.39	-0.2222	0.0611	0.2832	819.5986	0.126435	-400.598109	-400.592499	-400.591555	-400.62773	24.352	
C	 0.0066304434	 1.4661057198	 0.2549091012	-0.154558
O	 1.3830070807	 1.5858882992	-0.2688221981	-0.35654
C	 1.1734171836	 0.3286633088	-0.8722531875	 0.49138
C	 1.9184580101	-0.8940116512	-1.4216121707	-0.176746
C	 0.6937046362	-1.7562181056	-1.6247519506	-0.032279
C	-0.5033133426	-0.8055207029	-1.2508899079	-0.121274
C	 0.0027003686	-0.0800340549	 0.0150817583	-0.111562
C	 0.2958234752	 0.1653094077	-2.1701263592	-0.069758
N	 1.2213009047	-0.9097576977	-2.7455695067	-0.170241
H	-0.0368904798	 1.785670583	 1.2976210362	 0.12397
H	-0.6923787752	 2.0519291397	-0.3506922629	 0.117496
H	 2.9215175355	-1.2758468796	-1.2784012163	 0.103713
H	 0.7091492084	-2.8395528702	-1.6697981644	 0.100372
H	-1.5135346348	-1.170329879	-1.4289236544	 0.079357
H	 0.1724040347	-0.6612085159	 0.9232087703	 0.085485
H	-0.0830529186	 0.964118139	-2.8019441573	 0.091186
