16
gdb 34437	3.02156	1.73647	1.26879	5.1481	72.57	-0.2547	0.017	0.2718	967.9215	0.125983	-400.705489	-400.698689	-400.697745	-400.73664	27.042	
N	 0.0026490129	-1.1317119995	 0.017471576	-0.331647
C	 0.0027014974	 0.024306956	 0.0230176659	 0.188588
C	-0.0277308355	 1.467864403	 0.0632227964	 0.213301
C	-0.9379741865	 2.1649686802	 1.077624144	-0.307887
C	-0.6313024544	 3.6568779287	 0.7435948694	-0.26101
C	 0.3803257645	 3.4872259488	-0.3811780737	-0.045673
C	 1.3123421413	 2.2747863969	-0.0900868247	 0.021787
O	 1.3938168565	 1.9473442581	-1.5140794034	-0.305084
C	-0.0123097451	 2.2800812247	-1.2823127309	 0.021794
H	-1.9871308364	 1.8997908795	 0.9240513	 0.126465
H	-0.6764664226	 1.8945011811	 2.1038246121	 0.126463
H	-1.5217063425	 4.2013154548	 0.4172136999	 0.117274
H	-0.2108004688	 4.1959786379	 1.5970052138	 0.117273
H	 0.822829276	 4.3535955205	-0.8689896627	 0.096108
H	 2.2175904922	 2.2005374174	 0.5120348283	 0.111122
H	-0.706411979	 2.2122255517	-2.1196633703	 0.111125
