18
gdb 71862	3.13088	1.58215	1.29202	3.429	77.33	-0.2471	0.0273	0.2744	1021.6187	0.149438	-401.94572	-401.93849	-401.937546	-401.9771	29.252	
C	-0.0614812237	 1.513606279	 0.0074903963	-0.50163
C	 0.0346235569	 0.0168792374	-0.0347040428	 0.324155
C	 0.8495742616	-0.7968010044	-1.0446418022	-0.298724
C	-0.0718753652	-2.0083548282	-0.7234295104	 0.06601
O	 0.5324326015	-2.8158818329	 0.3002064116	-0.25228
C	 0.5631551959	-2.0685673622	 1.4543465746	 0.421145
N	 1.1316716274	-2.4086604172	 2.5299089707	-0.562437
C	-0.2314752661	-0.8321946563	 1.2218788098	-0.175328
C	-1.0566738806	-1.0385858277	-0.0207930191	-0.139167
H	 0.8847884717	 1.9594786396	 0.3341549689	 0.132469
H	-0.2966114516	 1.9181124313	-0.9834871054	 0.121898
H	-0.8416535979	 1.8450985962	 0.7000741931	 0.124542
H	 0.6846014215	-0.426714102	-2.0611230606	 0.105693
H	 1.9205970868	-0.9454174736	-0.8729390819	 0.107743
H	-0.4003777063	-2.6603664926	-1.5288783104	 0.095381
H	 1.5775055309	-3.3215199801	 2.4232920101	 0.220214
H	-0.6302061573	-0.3108281669	 2.0811831102	 0.111879
H	-2.1347471856	-0.9797372993	-0.0896612123	 0.098437
