16
gdb 34744	3.02513	1.70689	1.51606	0.8769	72.94	-0.2337	0.0255	0.2591	913.1506	0.125273	-400.657109	-400.65019	-400.649246	-400.68828	27.732	
C	-0.2223420713	-1.2697469942	-0.3145266156	-0.431324
C	-0.1053724878	-0.0857185042	-0.1396707828	 0.355326
C	 0.0181710466	 1.3452450572	 0.050378844	-0.208243
C	-0.2449953695	 1.9873452232	 1.4540178877	 0.074074
O	 0.0857338931	 1.1115975252	 2.5075647387	-0.254094
C	 1.4710808761	 0.7728454626	 2.3370194323	-0.112966
C	 2.017036029	 1.8072224267	 1.3649333462	-0.047576
C	 1.0014409351	 2.8511769195	 1.1636819224	-0.079643
N	 1.4048839051	 1.9623713743	 0.0091718279	-0.157612
H	-0.3244970162	-2.3161782783	-0.4642488882	 0.200323
H	-0.5621976623	 1.8720081518	-0.7146357918	 0.114902
H	-1.2201904066	 2.4312074748	 1.6468895003	 0.096152
H	 1.9749816748	 0.8439117202	 3.3078811169	 0.112412
H	 1.5660214778	-0.2514346071	 1.9619162324	 0.126219
H	 3.0755069811	 2.039726241	 1.3690795628	 0.108903
H	 1.1284205251	 3.9257232673	 1.1696323067	 0.103146
