14
gdb 29681	2.44244	2.01463	1.11168	3.7383	65.05	-0.2753	-0.0506	0.2247	998.2711	0.103156	-470.105219	-470.097491	-470.096547	-470.138269	27.544	
C	-0.0418306365	 1.4590616005	 0.0089023787	-0.341687
N	-0.0055937562	-0.0061493337	 0.0005628729	-0.225202
C	-1.2258305054	-0.6485747285	 0.0046637547	 0.516461
O	-2.3005237183	-0.0943640071	 0.0144089333	-0.387657
N	-1.1064773245	-2.0421087374	-0.0033938039	-0.367756
C	 0.1032217865	-2.6637268233	-0.013760546	 0.114146
N	 1.2393301421	-2.0687567227	-0.0174339286	-0.315909
C	 1.256085018	-0.6681987145	-0.0107397935	 0.454741
O	 2.2809204028	-0.032971966	-0.011971271	-0.352617
H	 0.9884225137	 1.8054662404	 0.0011896378	 0.174217
H	-0.5784807182	 1.8234095146	-0.8699302002	 0.149105
H	-0.5616545438	 1.8140809545	 0.9016156617	 0.149022
H	-1.973854499	-2.5578242725	-0.0007085829	 0.282349
H	 0.0663152888	-3.7518469845	-0.0190441132	 0.150787
