20
gdb 16171	4.09574	1.54353	1.34351	1.6265	74.39	-0.247	0.0866	0.3336	1000.7953	0.178216	-349.004036	-348.996226	-348.995282	-349.036041	30.053	
C	-0.2843077755	 1.4949114077	-0.0433297174	-0.376682
C	 0.1691569895	 0.0314476446	 0.0501838886	-0.283668
C	 0.8087709787	-0.4818523165	-1.2198779975	 0.356558
C	-0.0281886799	-1.0105136444	-2.3613181992	-0.327769
C	 0.8743537305	-1.9465488309	-1.5945795686	-0.118855
C	 2.2529249181	-2.1651485169	-2.1868600023	-0.091575
O	 2.7167827806	-0.8684619544	-2.5555368833	-0.256548
C	 2.1622485503	 0.0754630856	-1.6454649987	-0.13911
H	 0.5615294063	 2.165617927	-0.2278034746	 0.119068
H	-0.9996960838	 1.6316342115	-0.8608441034	 0.119972
H	-0.7656021288	 1.8179590446	 0.8848848738	 0.111828
H	 0.8768818201	-0.0788722778	 0.8833968991	 0.095681
H	-0.693069222	-0.6003057283	 0.2957453929	 0.095841
H	-1.0958321586	-1.1008461602	-2.1899536265	 0.106123
H	 0.2496726877	-0.7498961365	-3.3781936576	 0.118826
H	 0.445826459	-2.7130605613	-0.9586650925	 0.085018
H	 2.9183468598	-2.6312143342	-1.4411008439	 0.088461
H	 2.2670079307	-2.7813986608	-3.0923796028	 0.106802
H	 2.114759209	 1.035884721	-2.1696519011	 0.106103
H	 2.8044026383	 0.1995005504	-0.755804365	 0.083926
