16
gdb 34541	3.95947	1.17965	0.99718	4.1707	77.46	-0.2614	-0.0573	0.2041	1151.9928	0.126317	-400.764314	-400.756991	-400.756047	-400.796184	28.16	
N	 0.0070867353	-1.1663506545	 0.1133624118	-0.332563
C	-0.0305344748	-0.0093020386	 0.0625727671	 0.216691
C	-0.0331475235	 1.415855988	-0.006839408	 0.145047
C	-1.1885183264	 2.1010605144	 0.0413667666	-0.117128
C	-1.1987450951	 3.5785327302	-0.0240314345	 0.001799
O	-0.306454392	 4.2813150575	 0.8723884268	-0.248313
C	 0.0136616893	 4.2667375713	-0.5135905707	 0.05491
C	 1.1969005953	 3.4260176402	-0.9347189337	-0.257089
C	 1.303578708	 2.1239425404	-0.1168572573	-0.310842
H	-2.1367714548	 1.5799401424	 0.1147172757	 0.122055
H	-2.167897406	 4.0573496297	-0.1384159877	 0.105075
H	-0.1101899451	 5.2238842309	-1.0209113454	 0.101827
H	 1.0846977062	 3.1967079798	-2.0021409225	 0.119531
H	 2.1242244829	 3.9985604013	-0.8282966548	 0.121582
H	 1.6576396062	 2.3599193637	 0.8922567148	 0.149652
H	 2.0447300946	 1.4578906435	-0.5657139382	 0.127767
