14
gdb 132960	2.36101	1.93725	1.07131	2.9612	68.56	-0.2308	-0.0604	0.1704	1018.7139	0.101074	-478.023085	-478.015434	-478.01449	-478.055925	27.738	
C	-0.0155683041	 1.4662684092	 0.0500347862	-0.365737
N	 0.0030981872	 0.00242966	 0.0208902425	-0.198778
C	-0.0240286436	-0.65832419	-1.2420921682	 0.382982
O	-0.0622707057	-0.0289141575	-2.2826317964	-0.386281
C	-0.0011932053	-2.1122363015	-1.1130419618	-0.090761
N	 0.0394688144	-2.7657318523	 0.0082983879	-0.220593
C	 0.0638329153	-2.0752521999	 1.1829898622	-0.192802
C	 0.0453700347	-0.7164641239	 1.1689472438	 0.361104
F	 0.0673047606	 0.0092369336	 2.2763928445	-0.050808
H	 0.8832458132	 1.8497096907	 0.5379680496	 0.15268
H	-0.0498103543	 1.7923284815	-0.9878592046	 0.186002
H	-0.8946717226	 1.826002809	 0.5892286499	 0.152678
H	-0.0205347401	-2.6672856499	-2.0466746348	 0.137099
H	 0.0976922102	-2.6213018291	 2.1157820492	 0.133217
