21
gdb 115808	3.91488	1.08918	0.96896	1.0595	78.99	-0.2286	0.0823	0.3108	1302.3924	0.181608	-424.207049	-424.19792	-424.196976	-424.24083	34.44	
C	-0.2390565623	 1.2985479876	 0.0675298594	-0.237755
O	 0.1328608307	-0.0530612201	-0.0826087884	-0.241029
C	 0.8216269323	-0.5799985245	 1.034775153	 0.106998
C	-0.1137125307	-0.8563108824	 2.2496097505	-0.127269
O	 0.3298002488	-2.058139229	 2.8622493211	-0.295064
C	 1.0588377276	-2.8128492646	 1.9142916555	 0.449318
C	 1.9789802062	-3.7993492701	 2.5730524303	-0.464888
C	 0.3938603156	-3.0771461265	 0.5889610538	-0.348672
C	 1.4007235357	-1.9433630081	 0.7364639879	-0.150817
H	 0.6331841134	 1.9396666151	 0.272592898	 0.104144
H	-0.6949331189	 1.6153144788	-0.8736696541	 0.128801
H	-0.9706814746	 1.4467521077	 0.8763626092	 0.107147
H	 1.6314374286	 0.1108023914	 1.3201459184	 0.067292
H	-0.0986088398	-0.0693517492	 3.0089285573	 0.106867
H	-1.1427406689	-0.9544801607	 1.8734763301	 0.102923
H	 1.4070749928	-4.5180045519	 3.169127849	 0.129117
H	 2.5482303513	-4.3550309691	 1.8231862833	 0.117555
H	 2.6814265836	-3.2883640487	 3.2391678719	 0.122761
H	 0.7211649008	-3.9495194247	 0.0336336694	 0.111211
H	-0.6513618876	-2.8253920281	 0.4505411041	 0.123094
H	 2.3565667756	-2.0045272728	 0.2301103503	 0.088267
