14
gdb 42631	2.73876	1.7434	1.29454	5.8608	70.8	-0.2626	-0.0216	0.241	950.7122	0.101636	-399.52915	-399.522243	-399.521299	-399.560563	26.614	
O	-0.0041982573	 0.061594231	 0.0438255475	-0.310741
C	-0.0250439288	 1.2524441187	 0.084568614	 0.433454
C	-1.0766606831	 2.3087894603	 0.0243723906	-0.200901
C	-0.4689188587	 3.5718183448	 0.6604914547	-0.072563
C	 0.906296604	 3.2038038502	 1.222068815	-0.275043
C	 1.083133795	 2.3525849353	-0.0774222436	 0.048884
C	 2.3675510672	 2.0590849829	-0.6381785607	 0.172447
N	 3.4042386292	 1.8246768077	-1.0941523173	-0.333499
C	-0.0831161481	 3.2136602609	-0.7334562813	-0.111132
H	-2.1384787499	 2.1999946429	-0.1427063403	 0.129191
H	-1.1295448427	 4.3647315439	 0.9844956722	 0.11995
H	 1.5783725586	 4.0641922129	 1.2278587544	 0.135857
H	 0.9689340382	 2.6633948077	 2.1712708116	 0.125837
H	-0.1835238737	 3.6652087808	-1.7074822068	 0.138259
