16
gdb 29671	2.36541	1.98734	1.08726	3.9575	75.01	-0.2267	-0.026	0.2007	1048.9562	0.127323	-434.144299	-434.136433	-434.135489	-434.176742	29.673	
C	-0.017837431	 1.439333582	 0.0523168641	-0.33257
N	 0.0024683611	-0.0229096902	 0.0152102619	-0.206444
C	-0.0208666228	-0.6343829591	-1.2278968411	 0.508254
O	-0.0581006352	-0.04284315	-2.288220876	-0.405633
N	-0.0005574338	-2.0253948604	-1.1899917279	-0.392796
C	 0.0398542988	-2.76009924	-0.0331736108	 0.028801
C	 0.0622749488	-2.1545742927	 1.1639223735	-0.213409
C	 0.0434903063	-0.7015200026	 1.2524137196	 0.380521
N	 0.0600160462	 0.0124394825	 2.3179986239	-0.552028
H	 0.8703161795	 1.8068612078	 0.5709299989	 0.145258
H	-0.0453909622	 1.7962153994	-0.974111671	 0.160187
H	-0.8928885539	 1.7819808112	 0.6090077211	 0.145028
H	-0.0182906843	-2.4633759766	-2.0964207027	 0.272233
H	 0.0518130053	-3.8361231093	-0.1583403235	 0.138112
H	 0.0940403433	-2.7278619271	 2.079703497	 0.11016
H	 0.0897004939	-0.5908598747	 3.137952113	 0.214325
