22
gdb 118878	3.16886	0.98885	0.89833	2.5812	81.64	-0.2275	0.065	0.2925	1420.4402	0.193088	-404.301344	-404.291812	-404.290867	-404.335714	36.258	
C	-0.0215672753	 1.6143113635	-0.0237243568	-0.381141
C	 0.0668223986	 0.0855791736	-0.0321287908	-0.18655
C	 0.6302990074	-0.4868463254	 1.2759627861	-0.226695
C	 0.7788340239	-2.0080991056	 1.2721706522	 0.397602
O	-0.4829781577	-2.6498880702	 1.1473108394	-0.48566
C	 1.8650409979	-2.6769659459	 0.3695932641	-0.225313
N	 2.4564632768	-3.4299717998	 1.5340096233	-0.126301
C	 2.9438536931	-2.3927465152	 2.458763695	-0.25128
C	 1.4972321524	-2.6790391218	 2.4427614335	-0.064998
H	 0.9669567339	 2.0657892194	 0.1147076182	 0.116596
H	-0.4342468241	 1.9958278281	-0.9627177996	 0.113783
H	-0.6626123078	 1.9673141502	 0.7912994431	 0.119228
H	-0.9352652899	-0.3255113122	-0.2129318952	 0.091572
H	 0.6923840382	-0.2391958581	-0.8746785482	 0.100136
H	 1.606134947	-0.0282113617	 1.4750411697	 0.091619
H	-0.0259094971	-0.2103941459	 2.1112364437	 0.102888
H	-0.8472021964	-2.4310043152	 0.2833719328	 0.279622
H	 1.4312003204	-3.3757025675	-0.3484431104	 0.109341
H	 2.5831427478	-2.0222630686	-0.1373595716	 0.092876
H	 3.520734057	-2.7989996624	 3.2842480382	 0.123002
H	 3.3334737192	-1.4598633755	 2.0558907511	 0.108478
H	 0.9739268948	-3.1707245037	 3.2562220722	 0.101196
