22
gdb 107241	2.78788	1.40824	1.09029	1.8164	85.8	-0.1979	0.0826	0.2805	1208.2442	0.193517	-367.137811	-367.128791	-367.127847	-367.171106	35.556	
C	 2.4700092586	 1.79394255	 0.3844102371	-0.388967
C	 1.2385924896	 1.5307158422	-0.4882749395	-0.285201
C	 1.3929283324	 0.4135563874	-1.4903232306	 0.320213
C	 2.2612568536	-0.8069243708	-1.3258705925	-0.347913
C	 2.5132140577	 0.1277320488	-2.4854036402	-0.112701
C	 1.4568837345	-0.0390572492	-3.6098313906	-0.113674
N	 0.5277672207	-1.1412705792	-3.2329645101	-0.377314
C	 0.3540190335	 0.2228435892	-2.6653627227	 0.275902
C	-0.9325873074	 0.9750055928	-2.8083609683	-0.511844
H	 2.6939205328	 0.9432957721	 1.0349453452	 0.122695
H	 3.3566811586	 1.992548115	-0.2272520151	 0.117835
H	 2.3062666759	 2.6657128875	 1.0249457568	 0.111691
H	 0.3781015405	 1.315773598	 0.1615664028	 0.098889
H	 0.9841080852	 2.4563258097	-1.0227606328	 0.09466
H	 3.0006934992	-0.7361764969	-0.5347095078	 0.10173
H	 1.8660320305	-1.7992989898	-1.4989887247	 0.137174
H	 3.4490030651	 0.6555489818	-2.6203708478	 0.082731
H	 1.578901156	 0.255876098	-4.6449104115	 0.086481
H	-0.1477361603	-1.2285487507	-3.9926820408	 0.219794
H	-1.7005366603	 0.5898125005	-2.1263603745	 0.127012
H	-0.8032100353	 2.0406814194	-2.5939030117	 0.126538
H	-1.318993901	 0.887461974	-3.8300237707	 0.114267
