17
gdb 53838	3.94158	0.95815	0.81282	3.1241	70.78	-0.247	-0.0286	0.2184	1393.6743	0.135088	-455.161482	-455.152319	-455.151375	-455.196507	33.147	
N	-0.0468888569	 1.1939745752	 0.2098018939	-0.523067
C	-0.0071848027	-0.0836404634	-0.2366286717	 0.353594
O	 0.9671677608	-0.6394537707	-0.6970949876	-0.348713
C	-1.3618141949	-0.7844193139	-0.0965142841	 0.326082
N	-2.346492134	-0.1727175563	 0.4208290584	-0.543078
O	-1.29389946	-2.0393290584	-0.5809533921	-0.216656
C	-2.476939681	-2.8007659517	-0.5596940221	 0.113136
C	-2.2839314152	-4.2782787562	-0.4999549615	-0.290141
C	-2.8381332617	-3.5405202884	 0.7013386129	-0.287605
H	 0.7918489817	 1.7471185814	 0.182102656	 0.263962
H	-0.9052361611	 1.5557259544	 0.5922907063	 0.278988
H	-3.1848392758	-0.7488541341	 0.4810931354	 0.231425
H	-3.2667530165	-2.3886595793	-1.1830324059	 0.111999
H	-2.9482606327	-4.9034436972	-1.0848062276	 0.125129
H	-1.2594778109	-4.6261492302	-0.4396218096	 0.144204
H	-2.1766393895	-3.410474915	 1.5499427308	 0.137262
H	-3.8871342394	-3.6536319365	 0.9516289784	 0.123478
