20
gdb 38933	2.70316	2.00361	1.41454	1.0713	77.3	-0.2022	0.0628	0.265	962.4563	0.174515	-403.1097	-403.102799	-403.101855	-403.141144	28.361	
C	 0.3479280668	 1.5157027461	 0.5729287402	-0.19386
C	 1.6001622075	 1.4468005163	-0.3219109102	 0.104764
O	 2.7479750405	 0.9513725076	 0.3957099263	-0.315345
C	 2.4549022673	-0.429182003	 0.0270995815	 0.136545
C	 2.2307152737	-1.3690296722	 1.2222850832	-0.231151
C	 0.823365449	-1.9841091489	 1.1660416204	-0.20632
C	-0.2670869536	-0.9026076897	 1.1590216256	-0.157965
N	-0.0143928755	 0.135672614	 0.1552556762	-0.073312
C	 1.1731338093	 0.0166087573	-0.71145506	-0.089618
H	 0.5921371162	 1.6390222965	 1.6362807405	 0.100415
H	-0.4102281193	 2.2571695243	 0.2900670162	 0.098089
H	 1.8399483923	 2.2652397386	-1.002756458	 0.079651
H	 3.239389713	-0.8014693458	-0.6446253699	 0.073244
H	 2.9891740424	-2.1573141323	 1.2466084883	 0.097649
H	 2.3501623548	-0.7811229526	 2.1391235159	 0.112778
H	 0.7334078751	-2.5991494591	 0.2604931793	 0.102616
H	 0.6603318406	-2.6581968373	 2.0132345686	 0.099161
H	-1.2484000237	-1.3685771177	 0.9922948191	 0.094095
H	-0.3109430294	-0.4294151951	 2.1502497939	 0.096088
H	 0.992497203	-0.359699347	-1.7209007472	 0.072477
