16
gdb 5923	3.46892	1.32483	1.21538	5.7459	67.71	-0.2794	0.0055	0.2849	1049.1707	0.127879	-379.929137	-379.920103	-379.919159	-379.962819	31.811	
C	 0.0126872753	 1.5733293002	 0.0056322507	-0.412958
C	 0.0065144063	 0.035404928	 0.0648326614	 0.18878
C	 0.7952342032	-0.5129051865	 1.2673736158	-0.412975
O	-1.3347335155	-0.4922294678	 0.0242649683	-0.221169
C	-2.1831148687	-0.197222599	 1.0355132264	 0.129447
N	-3.3578065462	-0.6531928107	 1.0021934528	-0.431542
C	 0.6232189371	-0.4831651879	-1.1750696227	 0.292182
N	 1.1562759339	-0.8592116572	-2.1273998631	-0.325848
H	 1.0352818656	 1.9380339686	-0.1179985684	 0.147674
H	-0.5886926929	 1.9188251489	-0.8377491389	 0.157464
H	-0.3909599887	 1.9959116937	 0.9290562969	 0.12805
H	 0.3995030509	-0.1107871515	 2.203274194	 0.128073
H	 0.7320676525	-1.6027280066	 1.2921385427	 0.157421
H	 1.8457060306	-0.2225830356	 1.1885239592	 0.147678
H	-1.7571633022	 0.4345047119	 1.8218785844	 0.094203
H	-3.8739219013	-0.3492746485	 1.8251970206	 0.23352
