19
gdb 39098	3.37094	1.71134	1.45245	0.4292	73.85	-0.2358	0.0762	0.312	946.5829	0.162187	-422.991147	-422.9844	-422.983456	-423.022252	27.908	
C	-0.0617734715	 1.5894174322	 0.0606453331	-0.28965
C	 1.4699654829	 1.3553415364	-0.0363539974	-0.137785
C	 1.6731460627	 0.524834502	 1.257847568	-0.088394
O	 0.5157402523	-0.3699382173	 1.2188284508	-0.350127
C	-0.0449476044	 0.0275423512	-0.0222363126	 0.480284
C	-1.0857042789	-0.7573891288	-0.7703433297	-0.384946
C	-0.7410817879	-0.3259209031	-2.2349763088	-0.070993
O	 0.5272401747	 0.3786088279	-2.2300338564	-0.293838
C	 1.1465260002	 0.1617462039	-0.9853728877	 0.111871
H	-0.4588360672	 2.0180509704	 0.983336693	 0.094878
H	-0.4769084037	 2.0762878912	-0.8189598101	 0.119027
H	 2.2007540136	 2.1370665339	-0.2415659605	 0.076551
H	 2.5923887499	-0.072153267	 1.2590815838	 0.106476
H	 1.6393432466	 1.1363906403	 2.1652963846	 0.108934
H	-0.9276081898	-1.8299438988	-0.6214747236	 0.120258
H	-2.1187044769	-0.5193246426	-0.5060371263	 0.113498
H	-0.6717570885	-1.1938121373	-2.9014510561	 0.10801
H	-1.4903050688	 0.3580586856	-2.6460699545	 0.112244
H	 1.8816592649	-0.6533053602	-1.0263402394	 0.0637
