23
gdb 93676	2.45967	1.42622	1.18506	1.6562	81.15	-0.2391	0.0654	0.3045	1191.1239	0.204274	-425.440626	-425.430529	-425.429585	-425.474862	38.604	
C	-0.3172155364	 1.3720331782	-0.1241626787	-0.432577
C	-0.0284383012	-0.0935504677	 0.1747383386	 0.141426
O	 0.4012114845	-0.7544508999	-1.0214104071	-0.287841
C	 1.6176117317	-1.4553886	-0.7780372753	-0.089032
C	 1.6885888529	-1.6875871636	 0.7428659148	 0.25781
C	 0.7822137391	-2.8652172187	 1.1439658175	-0.434899
C	 3.1158125586	-1.9257754718	 1.2428840588	-0.446615
C	 1.0718405114	-0.3543847419	 1.2315841972	 0.057961
O	 2.0934836612	 0.6339327671	 1.224107087	-0.4378
H	 0.5879411221	 1.8830838033	-0.4624598783	 0.127956
H	-1.066413449	 1.4474636359	-0.9163305452	 0.130843
H	-0.7132973734	 1.8846805729	 0.7610103866	 0.103637
H	-0.9585738621	-0.5723989311	 0.5174477731	 0.069606
H	 1.5976018443	-2.3897029668	-1.3502144737	 0.095102
H	 2.476616358	-0.8584445057	-1.1163719025	 0.09416
H	 1.2060338665	-3.8068552494	 0.7798623638	 0.114937
H	 0.6915341533	-2.9411509718	 2.2328984478	 0.110695
H	-0.2219962997	-2.7715145469	 0.7217557736	 0.128017
H	 3.7671197381	-1.0840146858	 1.0041970213	 0.135949
H	 3.1319741154	-2.0681372701	 2.3287868814	 0.110114
H	 3.5314692778	-2.830956563	 0.7860602731	 0.107111
H	 0.6378978648	-0.4491232603	 2.2375680777	 0.057046
H	 1.7008154222	 1.474011977	 1.4787732184	 0.286396
