20
gdb 51620	5.11844	0.76549	0.75313	3.6259	82.66	-0.2486	0.0315	0.2801	1561.3215	0.171075	-403.150812	-403.141919	-403.140975	-403.185518	33.264	
O	 0.6459264644	-0.6991391233	 0.5295789915	-0.321414
C	 0.1383057881	 0.389968741	 0.3678113545	 0.150714
N	 0.7924730653	 1.5155702498	-0.0320449201	-0.2889
C	 2.2039300849	 1.5623503511	-0.3217297848	 0.076542
C	 2.669856328	 2.1319367081	-1.6942091555	-0.327418
C	 3.8101343962	 2.8326134249	-0.9432461453	 0.389483
C	 5.2740837178	 2.5961133965	-1.1754623486	-0.311645
C	 4.6744834025	 3.9704517721	-1.386635951	-0.336838
C	 3.081695769	 2.6322187924	 0.3925490111	-0.327382
H	-0.9405470693	 0.5835043571	 0.5341721935	 0.071174
H	 0.2534988094	 2.3624932135	-0.1291899022	 0.242143
H	 2.5833982096	 0.554491128	-0.1549509268	 0.129022
H	 2.9283616289	 1.4099795915	-2.4731573256	 0.110011
H	 1.9422209923	 2.8445253504	-2.1011652286	 0.091917
H	 5.9129147798	 2.445570642	-0.3108428502	 0.113622
H	 5.5692887555	 2.0280688487	-2.0521140282	 0.11362
H	 4.5669544499	 4.3294227918	-2.4055498048	 0.111707
H	 4.9104195007	 4.7466657643	-0.6652245103	 0.111709
H	 2.4907743144	 3.5108612952	 0.6782805437	 0.091919
H	 3.6646016224	 2.3042162746	 1.2570895377	 0.110016
