19
gdb 65581	3.37862	1.23692	1.20183	1.3697	80.05	-0.2577	0.0548	0.3125	1115.9064	0.158549	-385.854803	-385.84643	-385.845486	-385.887221	33.234	
C	 0.3560101264	 1.2478672374	 0.0283148113	-0.434903
C	-0.1446744473	-0.2147409601	-0.0045871413	 0.104654
C	 0.4776275914	-0.9884166914	-1.2237697283	-0.282399
C	 1.6775373316	-1.7190317549	-0.664115659	 0.044786
O	 2.558124286	-0.8957546326	 0.1163801944	-0.252559
C	 1.6095180813	-1.7287499713	 0.8009833324	 0.044774
C	 0.36249634	-1.0048247658	 1.2566867001	-0.282389
C	-1.6045583312	-0.221779292	-0.0723554826	 0.283845
C	-2.8059841075	-0.2224928957	-0.1281664912	-0.45141
H	 1.4457968669	 1.2641549896	 0.0790044924	 0.142821
H	 0.030869813	 1.7828615132	-0.8689016031	 0.118031
H	-0.0511493551	 1.771179534	 0.8985447437	 0.11803
H	-0.2330522631	-1.7212774671	-1.6190826295	 0.115834
H	 0.7349630581	-0.3039972138	-2.0376140737	 0.116192
H	 2.1649907319	-2.5017367022	-1.2403075946	 0.096333
H	 2.0419891955	-2.519299235	 1.4094491083	 0.096335
H	 0.5429266512	-0.3313588893	 2.0998286387	 0.116193
H	-0.3813197494	-1.7423812428	 1.5747488335	 0.115833
H	-3.8666180997	-0.2229079101	-0.1773239316	 0.189998
