21
gdb 86402	2.74485	1.32111	1.01438	2.1889	78.01	-0.2549	0.0697	0.3246	1236.5837	0.182701	-424.225942	-424.217206	-424.216262	-424.259299	34.263	
C	-0.0195210668	 1.5668310997	 0.013552059	-0.404748
C	 0.0400551535	 0.0411905517	-0.024908888	 0.035812
C	 0.8687298127	-0.5433009625	-1.185914028	-0.2488
C	 1.1247654243	-1.9958286235	-0.7452535341	 0.072061
O	 2.1388109652	-2.6917810837	-1.4231772277	-0.446553
C	 1.4236295668	-1.824130844	 0.7500108912	 0.387258
C	 1.9461796693	-2.9150286864	 1.5701810425	-0.253781
O	 2.8329302804	-1.9069375302	 1.0521326155	-0.285466
C	 0.6725014467	-0.5951728963	 1.2473713536	-0.315202
H	 0.9862554351	 1.9934990075	 0.1018645023	 0.116829
H	-0.4755806688	 1.9708097685	-0.8963615427	 0.11524
H	-0.6082550376	 1.9209020424	 0.8667519953	 0.113214
H	-0.9850397982	-0.3410533708	-0.1215896326	 0.074912
H	 0.3685147117	-0.4729273951	-2.1550943233	 0.099372
H	 1.8328323171	-0.0231669511	-1.2663434372	 0.09908
H	 0.1988392725	-2.575326307	-0.8651733215	 0.08704
H	 2.9559954757	-2.4802756856	-0.9478405583	 0.287524
H	 1.8124855472	-2.8945470764	 2.6506735239	 0.117177
H	 2.0703954503	-3.903411497	 1.1303626273	 0.123284
H	 1.3915389362	 0.0866947794	 1.7138238677	 0.119497
H	-0.0793718034	-0.8415163897	 2.0028374951	 0.10625
