18
gdb 107963	2.77953	1.35933	1.30135	1.5761	71.72	-0.2333	0.0494	0.2827	1075.5306	0.14613	-438.969238	-438.960779	-438.959835	-439.00236	32.073	
C	 0.0313816656	 1.4484075513	-0.0861524771	-0.533162
C	 0.0086994988	-0.0421893061	-0.0287353614	 0.442623
O	 0.640748468	-0.8298561208	-1.0876823696	-0.361029
C	 0.1223869228	-1.8437248572	-0.1794624876	 0.035228
C	 0.4197227016	-1.0261894672	 1.1126077685	-0.126683
N	-0.9810995005	-1.079394466	 1.650990713	-0.397046
C	-1.1831234828	-1.0489677054	 0.1592737766	 0.247177
C	-2.5279324617	-1.0796653766	-0.5023544468	-0.233119
O	-3.2478521782	-2.2696120588	-0.2025628416	-0.410307
H	 1.0617008799	 1.816805473	-0.0868963903	 0.137391
H	-0.4654511994	 1.8119472995	-0.9907835574	 0.134894
H	-0.4859114632	 1.8538034037	 0.7884717601	 0.144602
H	 0.2769352499	-2.8964141304	-0.4174118484	 0.098759
H	 1.3103550735	-1.0161060723	 1.74181866	 0.089474
H	-1.1727036778	-2.02054158	 2.0051914166	 0.209655
H	-3.1011070027	-0.1829036569	-0.2236859063	 0.101973
H	-2.3863678311	-1.0630972621	-1.5881673633	 0.129988
H	-3.5500739028	-2.2017927575	 0.708692095	 0.289582
