21
gdb 41293	3.50231	1.67185	1.58005	0.088	85.86	-0.242	0.0955	0.3375	955.0439	0.186477	-349.887412	-349.881093	-349.880149	-349.917518	28.435	
C	-0.026664375	 1.4677278718	 0.2637724184	-0.261278
C	 1.4763514904	 1.6074351294	-0.1760849688	-0.34264
C	 1.3200278608	 0.237574633	-0.8479243908	 0.35879
C	 2.0255535954	-1.1036802697	-0.9964462422	-0.32028
C	 0.7977936466	-1.7480418256	-1.7239074812	-0.044519
C	 0.8027453972	-0.948505544	-3.0506785645	-0.240669
C	 0.3635095423	 0.2049441593	-2.148574147	-0.061121
C	-0.4210091645	-0.7836984811	-1.2390737743	-0.054495
C	 0.0675027726	-0.0815398965	 0.0138008755	-0.025057
H	-0.2521779943	 1.7534955881	 1.292799642	 0.097554
H	-0.7210933629	 1.9907643557	-0.396901942	 0.106608
H	 1.7525191364	 2.4587839183	-0.8052946725	 0.093533
H	 2.1479389573	 1.5767186417	 0.6883065826	 0.101322
H	 2.9160712107	-1.1311916236	-1.6325479387	 0.090144
H	 2.2696551	-1.5525424283	-0.0293306791	 0.089769
H	 0.7085184706	-2.8340695259	-1.7052180754	 0.061269
H	 1.7432228861	-0.886629304	-3.6088052638	 0.085195
H	-0.0073120076	-1.2423168056	-3.7257562742	 0.093421
H	-0.0254344935	 1.1525517763	-2.517934872	 0.060272
H	-1.4297388902	-1.144881727	-1.4539128446	 0.054823
H	 0.1869730215	-0.6566164224	 0.9372212728	 0.057356
