19
gdb 117858	4.01986	0.7948	0.72727	1.2227	76.74	-0.2258	-0.0305	0.1953	1599.7233	0.157481	-456.365545	-456.355417	-456.354473	-456.401324	35.716	
C	-0.5472016951	 1.6075896965	 0.1709958679	-0.392257
C	-0.1341947404	 0.1478430145	 0.1960140889	-0.027341
O	-1.2852205334	-0.6279178327	-0.1728628141	-0.26208
C	-1.1459741991	-1.9670861772	-0.1711109029	 0.477852
N	-2.3507799697	-2.578855413	-0.4127677678	-0.567014
N	-0.0137341058	-2.5136864643	 0.0854035934	-0.362203
C	 0.0143831955	-3.9724481605	 0.150352614	-0.235635
C	-0.0137028417	-4.501070752	-1.2728431609	 0.151583
O	-1.0326818804	-4.8117511602	-1.8501586762	-0.251903
H	 0.3044323761	 2.2375839505	 0.444324283	 0.121295
H	-0.8867391556	 1.9015954357	-0.8263647187	 0.126844
H	-1.3580350714	 1.797314204	 0.8801498647	 0.127302
H	 0.6781618711	-0.0606313712	-0.5071181466	 0.11846
H	 0.20664291	-0.1668084515	 1.187333372	 0.118792
H	-3.0804087861	-1.9620421571	-0.7346985911	 0.257213
H	-2.3094908751	-3.4791479525	-0.8746274429	 0.279727
H	 0.9434141712	-4.2779555817	 0.642994889	 0.109358
H	-0.8370530436	-4.3982187521	 0.7013817448	 0.114383
H	 0.9612052535	-4.5136673951	-1.8045272865	 0.095626
