21
gdb 68035	2.03664	1.68985	1.38416	2.2625	78.55	-0.2416	0.0688	0.3105	1080.4579	0.180077	-424.17605	-424.166222	-424.165278	-424.210083	37.777	
C	-0.1223978917	 1.5287898209	 0.0489078302	-0.475374
C	-0.0047136213	 0.0002626725	 0.0067150477	 0.277347
C	-1.4179507096	-0.5545248423	-0.2099627677	-0.475378
C	 1.1855112575	-0.6394314992	-0.7894406006	 0.384589
O	 1.2957795823	-0.5347227201	-2.1619033448	-0.478639
C	 2.1743132388	-0.1183150753	 0.3057372445	-0.385623
C	 0.9306535446	-0.7119483204	 1.0447914603	 0.384536
O	 0.6616792944	-0.7157483452	 2.3991845084	-0.47862
C	 1.0452230322	-1.9348163494	 0.0751357509	-0.385659
H	 0.8258120961	 2.0608626967	 0.117317873	 0.114393
H	-0.6305365945	 1.8849051673	-0.8535049174	 0.119902
H	-0.7328371697	 1.83010088	 0.9069601771	 0.122129
H	-1.8007632478	-0.2246840077	-1.1817417964	 0.12215
H	-1.4949992262	-1.6407744376	-0.1780215805	 0.114386
H	-2.0916907169	-0.1582869758	 0.557128151	 0.11988
H	 2.0892450536	-1.0018655414	-2.4445075892	 0.283944
H	 3.1025512462	-0.6882249159	 0.4117475123	 0.076575
H	 2.3614774685	 0.9503717392	 0.3764886052	 0.099468
H	 1.3608483325	-1.1996964231	 2.8515478169	 0.283946
H	 0.174458775	-2.5687137551	-0.0734427425	 0.099467
H	 1.9551550358	-2.5340168183	 0.1783261815	 0.076582
