21
gdb 65804	3.43447	0.81403	0.75496	1.6437	84.42	-0.2467	0.0518	0.2985	1569.3425	0.180261	-387.037921	-387.02791	-387.026966	-387.073864	36.435	
C	 0.038094972	 1.6503414081	 0.0981030835	-0.470388
C	 0.0205186996	 0.1260467983	 0.018013991	 0.29615
C	-1.3947644116	-0.4638905034	-0.0078408586	-0.245987
C	-2.253475528	-0.0139616466	-1.209782022	-0.374141
C	-3.5500247815	-0.6789762616	-1.2481540585	 0.294882
C	-4.611988075	-1.2419506791	-1.2544810149	-0.430669
C	 0.9857978255	-0.4997836364	-1.0271125475	-0.108877
O	 1.7108125495	-1.2131817466	-0.0081127267	-0.271304
C	 0.9405790811	-0.5950092397	 1.0400168875	-0.121553
H	 1.0628814609	 2.0238415713	 0.1894139957	 0.121
H	-0.3987925081	 2.1111101414	-0.7940135261	 0.121793
H	-0.5273276715	 2.005903755	 0.967267019	 0.118842
H	-1.324751285	-1.5573179638	-0.0220150557	 0.117801
H	-1.9171064548	-0.1981718842	 0.9194699502	 0.10882
H	-2.4074356489	 1.0711223767	-1.1777723623	 0.133644
H	-1.7141126373	-0.2174510445	-2.1447006122	 0.131652
H	-5.5530716077	-1.7330444646	-1.2717689429	 0.194455
H	 0.535369086	-1.1806711744	-1.7610516437	 0.097809
H	 1.6236487156	 0.2200650757	-1.5577987305	 0.094456
H	 1.55296848	 0.0718568041	 1.6621030726	 0.092947
H	 0.454026569	-1.3364227358	 1.6865106318	 0.098669
