19
gdb 92542	2.27137	1.85416	1.43803	1.4288	69.55	-0.2503	0.0516	0.3019	987.9527	0.160329	-460.145803	-460.13785	-460.136906	-460.178219	31.08	
C	 0.2686631427	 1.441994632	-0.2661051212	-0.403515
C	-0.0516839042	-0.0166908555	 0.0515638608	 0.076229
O	 0.2864578231	-0.9010834588	-1.0326915676	-0.278101
C	 1.5044898965	-1.5638012826	-0.7819916164	 0.063847
C	 2.8049822027	-0.7631956935	-1.0258954532	-0.108321
O	 2.9768876075	-0.5420441892	 0.4008812997	-0.313275
C	 1.843162697	-1.3963215126	 0.7072381861	 0.052171
C	 0.6931879339	-0.5774580517	 1.3061254277	 0.09815
O	 1.1545709963	 0.393858763	 2.2139055762	-0.433004
H	 1.3436069836	 1.6167813173	-0.3635382502	 0.118572
H	-0.2155416762	 1.7291271909	-1.2033066061	 0.120332
H	-0.1034363062	 2.0864725987	 0.5346874541	 0.130686
H	-1.1349011121	-0.1156036264	 0.1795822623	 0.086257
H	 1.4562587817	-2.5593628939	-1.2256959443	 0.092018
H	 3.6375636406	-1.3492029129	-1.4321387554	 0.109283
H	 2.691795888	 0.1669685	-1.5900018749	 0.116288
H	 2.1398159632	-2.2627568765	 1.303689228	 0.084896
H	 0.0206762191	-1.2397071806	 1.8607047424	 0.092454
H	 1.9963313528	 0.7083759425	 1.8549232422	 0.295034
