17
gdb 49698	2.57249	1.22544	0.98751	3.054	76.24	-0.2539	-0.0481	0.2059	1211.4046	0.134698	-421.816768	-421.808425	-421.807481	-421.850205	30.536	
O	-0.0184952111	-0.0356600536	-0.2013360065	-0.256657
C	-0.0106417908	 1.1155896963	 0.159545899	 0.153413
C	 1.2136022099	 1.961319522	 0.1401092133	-0.165627
C	 1.2434401124	 3.4314805367	-0.1659685361	-0.116289
C	 0.024594229	 4.1962504409	 0.370351297	-0.236003
C	 0.3414921286	 3.6836937825	 1.8125572393	-0.309976
C	 1.5646527734	 2.9409064648	 1.2655466892	 0.241917
C	 2.8875687098	 2.8946176969	 1.9053238627	 0.066224
O	 3.1180839248	 3.3299548622	 3.0081565904	-0.262555
H	-0.9372883381	 1.603832948	 0.5245956473	 0.08367
H	 2.0763585972	 1.4179704672	-0.2374224519	 0.118858
H	 1.9467968834	 3.803839269	-0.9014396926	 0.115285
H	 0.1535757782	 5.2760623094	 0.2817822519	 0.123974
H	-0.9436360652	 3.9294398643	-0.0605161601	 0.116202
H	 0.6460772989	 4.4836000206	 2.4883761587	 0.138926
H	-0.4174790995	 3.0782765682	 2.3126912067	 0.115209
H	 3.6885164492	 2.4379442347	 1.2796485919	 0.073428
