14
gdb 132443	3.16304	1.35957	0.95205	6.2995	70.84	-0.1984	-0.0251	0.1733	1123.04	0.102077	-478.036802	-478.029242	-478.028298	-478.068694	29.174	
N	 0.0574872758	 1.4041544941	 0.163532062	-0.581384
C	-0.0481515605	 0.0230734879	 0.0491969264	 0.439203
C	-1.2234987609	-0.6787495848	 0.0204344516	-0.244541
C	-1.1662616601	-2.0971507317	-0.0126523126	-0.178726
C	 0.0206246847	-2.7576063881	-0.0374978976	 0.113865
F	 0.0765695491	-4.0891220051	-0.0742759771	-0.067359
C	 1.2954972823	-2.0691756925	-0.0137303312	 0.337041
O	 2.4084363583	-2.5631308139	-0.021191856	-0.393167
N	 1.1320716	-0.6674646832	 0.0331213997	-0.419253
H	 0.7906803888	 1.8231597779	-0.3941870091	 0.257081
H	-0.8196550559	 1.8844443284	 0.0217856004	 0.262443
H	-2.1714603609	-0.1588125414	 0.0154481055	 0.096866
H	-2.0833812318	-2.67641494	-0.030453097	 0.120378
H	 2.0076709611	-0.1683055876	 0.119182325	 0.257553
