16
gdb 14214	2.80285	2.43898	1.87946	2.1771	64.3	-0.2262	0.0701	0.2964	777.3515	0.130426	-383.672185	-383.665256	-383.664312	-383.702681	27.889	
O	-0.1875288955	 1.2996161372	-0.0754843606	-0.46493
C	 0.0031711406	-0.063950431	-0.0608774194	 0.348752
C	 0.9602948172	-0.8921834927	-0.9113772028	-0.290279
C	 0.1111781943	-2.1192686762	-0.460152188	-0.135276
C	 0.3950540503	-2.244484314	 1.0637534776	-0.22585
C	-0.3396803589	-0.9170401277	 1.2118029016	-0.223164
C	-1.0716040954	-1.0981787684	-0.1076385916	 0.332462
O	-2.3757921054	-0.9864643439	-0.4990191135	-0.447792
H	 0.4737860722	 1.7069834511	 0.4948331138	 0.285128
H	 0.8301966945	-0.6717532969	-1.9743339616	 0.108236
H	 2.0272785429	-0.9066143931	-0.657958444	 0.082547
H	 0.0343601359	-2.9969521061	-1.0979505621	 0.073967
H	-0.1535699167	-3.0723483535	 1.5237172419	 0.092877
H	 1.4483086352	-2.2970438025	 1.3631080607	 0.087704
H	-0.6891563366	-0.4048247311	 2.1001241929	 0.084872
H	-2.9045486245	-1.6190853412	 0.0003491152	 0.290745
