20
gdb 62469	2.34396	1.53271	1.28124	2.5225	80.57	-0.2479	0.0325	0.2804	1110.3525	0.169145	-403.143348	-403.134131	-403.133187	-403.176795	35.23	
C	-0.1538887123	 1.4855864178	 0.0329715789	-0.440228
C	-0.0716510617	-0.0402772087	 0.0011732789	 0.035085
C	-1.3989635578	-0.6842467776	-0.3982228911	-0.440259
C	 1.1293300023	-0.5762637488	-0.7694316728	 0.428905
N	 1.4855065517	-0.5420373637	-1.9708707287	-0.558241
O	 1.7350613882	-1.1429185446	 0.3350417842	-0.290778
C	 0.654914448	-0.6934163114	 1.1905520295	 0.455205
C	 0.9242329544	-0.2305264337	 2.5770245203	-0.339308
C	 0.175684752	-1.5355472367	 2.3176211482	-0.339296
H	 0.7988630547	 1.9315570507	 0.3310924169	 0.126642
H	-0.4124013983	 1.8678327257	-0.9587284332	 0.137739
H	-0.9239870953	 1.8175073461	 0.7380320327	 0.113768
H	-1.6878619451	-0.3564714752	-1.4009746713	 0.137763
H	-1.3284300589	-1.7753413465	-0.4047422924	 0.126632
H	-2.1945437468	-0.395681339	 0.2975578859	 0.113762
H	 2.37485166	-1.023927808	-2.1131198917	 0.226038
H	 1.9450248101	-0.303467902	 2.9360392784	 0.131128
H	 0.3680413021	 0.6204123658	 2.9565754532	 0.122157
H	-0.8896373612	-1.5722047102	 2.5207211897	 0.122159
H	 0.7069741239	-2.46187656	 2.5070217148	 0.131128
