20
gdb 26167	2.55748	1.31956	1.06016	0.8036	82.78	-0.2097	0.0248	0.2345	1234.3691	0.169939	-403.166592	-403.157079	-403.156135	-403.201566	34.705	
C	 0.0229911812	 1.4876929523	-0.0248517666	-0.324044
N	-0.0052414056	 0.0315154098	 0.06567985	-0.163846
C	 0.8341836938	-0.4682426669	 1.1497044689	-0.324047
C	-1.319463597	-0.5093442837	 0.0727283266	 0.139164
C	-1.833983205	-1.3116641034	-0.9041351959	 0.313179
C	-1.2599981124	-1.8354497836	-2.1682255048	-0.492214
O	-3.115753162	-1.6549143705	-0.5910798425	-0.18507
C	-3.4186299131	-1.0633939776	 0.598494349	-0.021437
C	-2.3645214022	-0.3484553677	 1.0587959173	-0.251869
H	 1.0542937694	 1.8222052895	-0.1817175582	 0.114334
H	-0.5794475192	 1.8135907533	-0.8763452518	 0.123635
H	-0.3607230533	 1.9917659511	 0.8810950426	 0.094067
H	 0.514790559	-0.1198780898	 2.1490533794	 0.094078
H	 0.8202356644	-1.5609388897	 1.1499653362	 0.12362
H	 1.8659923676	-0.1348632985	 0.9937435122	 0.114322
H	-1.2410613724	-2.9312620239	-2.1820400639	 0.132522
H	-1.8346577957	-1.5066774141	-3.0417271357	 0.132536
H	-0.2369886687	-1.4648657814	-2.2603946575	 0.144563
H	-4.4121765152	-1.2506803153	 0.9715866249	 0.128873
H	-2.3252307936	 0.2201097701	 1.9747744198	 0.107633
