18
gdb 89199	2.63069	1.53811	1.19856	1.8114	73.35	-0.2656	0.0162	0.2818	1082.8137	0.146931	-439.071476	-439.062935	-439.061991	-439.104517	32.402	
C	-0.8150643767	 1.2794862118	-0.0206843457	-0.407149
C	-0.0612378882	-0.0412615217	 0.0242271587	 0.0171
C	 1.0853936337	-0.2942723923	-1.01142363	-0.304719
C	 2.0816348485	-0.6243052953	 0.1362561926	 0.298254
O	 2.8013247118	-1.7927223995	-0.0181651635	-0.466778
C	 0.9429696213	-0.2683899179	 1.1721397998	 0.010735
O	 1.686974054	 0.9524766574	 1.5129910216	-0.269104
C	 2.7604122117	 0.5892263919	 0.7260357502	 0.35728
N	 3.9195055597	 1.0593743988	 0.6334037396	-0.555871
H	-0.1273169457	 2.1254926039	 0.0598479941	 0.131814
H	-1.3686604601	 1.3765381516	-0.9602026502	 0.118692
H	-1.5347602755	 1.3530517909	 0.8015925704	 0.118832
H	-0.7663551658	-0.8791516495	 0.0056159884	 0.086349
H	 0.9217025108	-1.1711147973	-1.6405306429	 0.123683
H	 1.3695989091	 0.5495216897	-1.6442306719	 0.116931
H	 3.6262430944	-1.7060307817	 0.4739284622	 0.298095
H	 0.6756587751	-0.8248105125	 2.0699969028	 0.093714
H	 4.0537036019	 1.8664685317	 1.2448239139	 0.232141
