21
gdb 53262	3.24178	0.8975	0.78467	0.265	93.97	-0.223	0.0538	0.2768	1559.6937	0.181403	-349.911886	-349.902126	-349.901182	-349.94805	35.345	
C	 0.0199353347	 1.4698070528	-0.0185393578	-0.498335
C	 0.0092502401	 0.0137700734	-0.0048905709	 0.05667
C	 0.0133511304	-1.1921084208	 0.0140068878	 0.094417
C	-0.0015869758	-2.6252159734	 0.0198162149	-0.258117
C	-0.4738867164	-3.3922008061	 1.2530046469	-0.360321
C	-1.3200972	-3.3853276665	 0.0261521567	 0.374819
C	-2.6944997887	-2.747504503	-0.202665208	-0.291477
C	-2.8935488089	-3.7202281287	-1.4039319543	-0.200697
C	-1.6562556087	-4.5392253386	-0.9280856622	-0.294451
H	 1.02933225	 1.862681438	 0.1485773964	 0.146036
H	-0.3347162274	 1.8677756359	-0.9761980254	 0.144042
H	-0.6252208129	 1.8788915399	 0.7672171409	 0.145585
H	 0.8004633457	-3.09805135	-0.5427126713	 0.101799
H	 0.0653625174	-4.2992706478	 1.5085944332	 0.111114
H	-0.799215537	-2.8017217984	 2.1031006584	 0.119014
H	-3.3923321344	-2.9380369451	 0.6188419121	 0.097738
H	-2.6950185118	-1.6771881923	-0.4233167491	 0.111004
H	-3.844206884	-4.2553498731	-1.4495366814	 0.09658
H	-2.7235837357	-3.2312701733	-2.3660323133	 0.106577
H	-0.9065939502	-4.7921389544	-1.6833094782	 0.097602
H	-1.9355813465	-5.4550959785	-0.3966451654	 0.1004
