21
gdb 97621	2.9129	0.70104	0.58815	0.6509	94.61	-0.2453	0.0409	0.2862	1970.7192	0.179092	-349.903028	-349.89175	-349.890806	-349.942212	39.528	
C	 0.0646131692	 1.5556941322	 0.0022944088	-0.363486
C	 0.0044420598	 0.0173362953	-0.0206367759	-0.316234
C	-1.3594001447	-0.5015236838	 0.0150700087	 0.123418
C	-2.4957052658	-0.8981409839	 0.0483577295	 0.03745
C	-3.8660814942	-1.421796711	 0.0804152444	-0.341443
C	-3.873598553	-2.9773287488	 0.0130179765	-0.162712
C	-5.2779238844	-3.5678431051	-0.1096058883	-0.393019
C	-4.5975582714	-0.9279877316	 1.2537198104	 0.353835
C	-5.2062979945	-0.5433924932	 2.2155773121	-0.476281
H	 1.1037906426	 1.8971381962	-0.0232153633	 0.113196
H	-0.4587163135	 1.9777125596	-0.8599374511	 0.127561
H	-0.4063973842	 1.9486931246	 0.9072198294	 0.130875
H	 0.5126669133	-0.3559900033	-0.9190598524	 0.12738
H	 0.5679114978	-0.3839717658	 0.8314629675	 0.129249
H	-4.3932643628	-1.0581305078	-0.815062598	 0.128414
H	-3.2600255558	-3.2670315898	-0.8462074693	 0.107688
H	-3.3713991286	-3.3603573981	 0.9070396687	 0.115527
H	-5.2342067315	-4.6599582088	-0.1563350946	 0.114296
H	-5.8992041156	-3.2886145101	 0.7460368607	 0.13392
H	-5.7789660864	-3.2151341725	-1.0182263218	 0.113793
H	-5.7375458963	-0.1905773543	 3.0645856282	 0.196571
