18
gdb 122257	2.88116	0.87037	0.73508	2.9188	73.86	-0.2643	-0.0001	0.2642	1558.5379	0.145231	-439.058938	-439.049163	-439.048219	-439.094744	33.729	
C	-0.2808430023	 1.3178744361	-0.0183315807	-0.233028
O	 0.1011055637	-0.0360492859	 0.0651000313	-0.232116
C	 0.5501570183	-0.5545701262	-1.1642823928	-0.05911
C	 0.9301094287	-2.0154697132	-0.933707511	-0.296176
C	 1.4175646029	-2.6960787722	-2.1956787426	 0.245993
C	 1.0785663941	-4.1016887096	-2.499914951	-0.208802
O	 0.4168165489	-3.0312457026	-3.1663332657	-0.248494
C	 2.6466824889	-2.1646401131	-2.7687012265	 0.268456
N	 3.6287471146	-1.7298990052	-3.1957069207	-0.332894
H	 0.5580204027	 1.9593439668	-0.3301091032	 0.110354
H	-1.1085876863	 1.4647249817	-0.7295877697	 0.108298
H	-0.6106211327	 1.6249093523	 0.9768190896	 0.1303
H	-0.2380945669	-0.4880253038	-1.9321749442	 0.106307
H	 1.4187807261	 0.0148282228	-1.5355238321	 0.108927
H	 1.7076665552	-2.0694738403	-0.163997226	 0.131348
H	 0.0564557253	-2.5595699266	-0.5637034132	 0.126259
H	 1.7506088391	-4.6948909594	-3.116181933	 0.141518
H	 0.4785400696	-4.6532396918	-1.7783210286	 0.13286
