13
gdb 5425	3.52045	1.88714	1.23803	4.9414	63.11	-0.253	-0.0509	0.2021	905.2027	0.095439	-398.647007	-398.639914	-398.63897	-398.678685	24.819	
C	 0.1019606033	 1.5024076126	 0.0590925944	-0.49608
C	-0.0538738806	 0.0271842031	 0.0496241052	 0.303859
C	-1.1069149709	-0.8426774326	-0.0546741367	 0.066392
C	-2.5248562884	-0.5086109489	-0.2022063794	 0.079629
O	-3.4240366782	-1.3092353375	-0.2916401866	-0.258432
N	-0.6241008451	-2.1534760439	 0.0011436662	-0.280393
C	 0.6449690692	-2.0140979789	 0.1308465414	 0.070225
O	 1.0780763421	-0.7197494966	 0.1692493224	-0.176649
H	 0.7441845832	 1.8326131375	-0.7644629347	 0.156733
H	-0.8683506678	 1.9906021165	-0.0429263619	 0.153209
H	 0.5634791733	 1.8403928731	 0.9931607107	 0.156736
H	-2.725452186	 0.5863516505	-0.227388537	 0.064008
H	 1.4058060559	-2.7745173148	 0.2125417558	 0.160765
