23
gdb 63029	3.15592	1.21338	1.14716	0.1916	90.64	-0.2366	0.0954	0.332	1233.2145	0.205102	-351.118159	-351.109133	-351.108189	-351.151064	36.28	
C	-0.0272788595	 1.5440927035	 0.0407350671	-0.461131
C	 0.0639462054	 0.0294244448	 0.0577399656	 0.337466
C	-1.1686873178	-0.6482283362	-0.522025439	-0.453627
C	 1.3460658577	-0.7220677185	-0.2132972247	-0.089696
C	 2.5908073507	-0.0164037491	 0.3494152817	-0.338508
C	 1.9325465559	-0.0496362146	 1.7451892492	 0.382204
C	 2.6265823978	-0.4179251354	 3.021664563	-0.344176
C	 2.0140702817	 0.9565500653	 2.8587520384	-0.31887
C	 0.7058611846	-0.7456349111	 1.1877709393	-0.17624
H	 0.8469109293	 2.0247197972	 0.4829679301	 0.125141
H	-0.1324273305	 1.9130181825	-0.9866767082	 0.10837
H	-0.9065906903	 1.8821375735	 0.601854165	 0.109341
H	-1.3254070894	-0.3501336709	-1.5653177598	 0.112931
H	-1.0777500002	-1.7389056845	-0.496260776	 0.111647
H	-2.0690766692	-0.373545675	 0.0396008376	 0.112454
H	 1.3783331547	-1.5197177816	-0.9468727543	 0.077677
H	 3.4844349632	-0.6446592678	 0.299091334	 0.102269
H	 2.8302717279	 0.9658922483	-0.0723139281	 0.093191
H	 2.1336487434	-1.1206013807	 3.6866657208	 0.109333
H	 3.7091393931	-0.5005817365	 3.0116285841	 0.107659
H	 2.6870110909	 1.8001023533	 2.7387519101	 0.108139
H	 1.1103163479	 1.1845807534	 3.41483352	 0.109733
H	 0.1835813227	-1.5587975299	 1.681910554	 0.07469
