18
gdb 38103	2.67318	2.02376	1.5057	1.3076	75.63	-0.2362	-0.0034	0.2327	916.4193	0.151362	-401.903875	-401.89731	-401.896366	-401.934449	27.558	
C	-0.0445313106	 1.5759039223	 0.0072968752	-0.279356
C	 1.5019980213	 1.4477797776	 0.0232818898	 0.047541
O	 1.3858404826	 0.0608366897	 0.4527713622	-0.293627
C	 0.0008772311	 0.0377454595	 0.0098064282	 0.096136
C	-0.0869710961	-0.6474574616	-1.3440859008	-0.04373
N	-0.6429102235	 0.1013407999	-2.4816810709	-0.337305
C	 0.8077130977	-0.2473882145	-2.4621419845	-0.059314
C	 1.8000476492	 0.8610442787	-2.4072310793	-0.039816
C	 2.1231995829	 1.5972612265	-1.3411005115	-0.060226
H	-0.4412205269	 1.9718459523	 0.9436783998	 0.105114
H	-0.5026768488	 2.0623535401	-0.8511387166	 0.133744
H	 2.0411888607	 2.0402991283	 0.7681073203	 0.073139
H	-0.6413374813	-0.4688201305	 0.7377565821	 0.070406
H	-0.3116263669	-1.711196637	-1.2869880475	 0.084558
H	-1.1412622535	-0.5248730516	-3.1093435353	 0.232546
H	 1.0993746864	-1.0536378933	-3.133121872	 0.089584
H	 2.2968794573	 1.0713279391	-3.3523351201	 0.091401
H	 2.8499220384	 2.3975429144	-1.4582328991	 0.089207
