22
gdb 14698	12.15676	0.51632	0.50452	0.	89.46	-0.2381	0.0615	0.2997	2290.282	0.198334	-313.062302	-313.051639	-313.050695	-313.100308	36.574	
C	-0.0341993757	 1.594691857	-0.0140724262	-0.38104
C	-0.007386777	 0.0651055114	-0.011888556	-0.15106
C	 0.727553205	-0.5088504516	 1.2168228866	-0.334756
C	 0.7643075044	-1.9672401982	 1.2377785306	 0.068462
C	 0.7756635357	-3.1721204057	 1.222633469	 0.068461
C	 0.8124165362	-4.6305106998	 1.2435894349	-0.334757
C	 1.5473896834	-5.2044667255	 2.4722811836	-0.15106
C	 1.5741989698	-6.734053121	 2.4744659938	-0.38104
H	 0.9797982455	 2.0101855082	-0.0237039151	 0.114661
H	-0.5596400728	 1.980292037	-0.8929719608	 0.113244
H	-0.5422669031	 1.9848050752	 0.8750886333	 0.114659
H	-1.0291050579	-0.3305106627	-0.0288281287	 0.10705
H	 0.4808527845	-0.305320385	-0.9202481098	 0.107051
H	 1.7521815863	-0.1125407675	 1.2403496216	 0.120867
H	 0.2436103727	-0.1377336802	 2.1309064172	 0.120863
H	-0.2122131655	-5.026818994	 1.220091024	 0.120867
H	 1.2963340145	-5.0016288759	 0.3294927532	 0.120863
H	 2.569109243	-4.8088524992	 2.4891917222	 0.10705
H	 1.0591759811	-4.8340386077	 3.3806538846	 0.107051
H	 2.0996629701	-7.119653491	 3.353351485	 0.113244
H	 0.5602006066	-7.1495444262	 2.4841258033	 0.114661
H	 2.0822411631	-7.1241684077	 1.5852913536	 0.114659
