15
gdb 31877	4.94386	1.02007	0.85008	1.3113	71.87	-0.2362	-0.0426	0.1936	1273.9521	0.113857	-453.995116	-453.987193	-453.986249	-454.028224	29.063	
O	-0.0235973758	 1.4395268752	 0.0113629312	-0.417259
C	-0.0101001663	 0.0247275857	-0.0325455659	-0.153459
C	-1.4275841069	-0.4873266071	 0.0141039726	 0.275407
N	-1.5773124961	-1.8209506754	-0.0140461092	-0.286218
C	-2.8087352007	-2.3025454647	 0.0251926227	-0.088633
C	-3.9167458227	-1.4424007389	 0.094216383	 0.40451
O	-5.1563147801	-1.968504363	 0.1324354472	-0.414608
N	-3.7839686792	-0.1268581264	 0.1226391512	-0.342999
C	-2.5330493234	 0.3524550338	 0.0822265659	-0.057867
H	 0.884523215	 1.7507554345	-0.0256536057	 0.295379
H	 0.4692767223	-0.3514744603	-0.950141099	 0.111578
H	 0.5468229577	-0.4057644401	 0.8146619456	 0.111665
H	-2.9462804454	-3.3795255055	 0.0029454225	 0.123576
H	-5.7676906106	-1.2197666245	 0.1775304145	 0.300783
H	-2.4113414878	 1.4285677667	 0.1051730135	 0.138144
