15
gdb 45727	2.63643	1.43519	1.11414	4.162	72.84	-0.2624	-0.0126	0.2498	1091.93	0.111628	-420.625211	-420.617119	-420.616174	-420.659042	29.766	
O	-0.1022312978	 0.1910967984	 0.9049189104	-0.317899
C	-0.0734970994	 1.1356267804	 0.1674156168	 0.421271
C	-1.3325817551	 1.813616941	-0.3522468895	-0.405069
C	-1.1231828702	 3.2044099815	-0.8710355872	-0.071519
C	 0.0768120901	 3.6138663295	-1.2571719485	-0.069931
C	 1.2731663891	 2.6998166945	-1.1734950344	-0.09172
O	 1.1308626362	 1.64278475	-0.2015327529	-0.22926
C	 1.6030392965	 2.1366789903	-2.4858121145	 0.340399
C	 1.86622734	 1.691671213	-3.5700451434	-0.466226
H	-1.7443942777	 1.1675948868	-1.1409839193	 0.159171
H	-2.0619995009	 1.7801094361	 0.461970539	 0.151073
H	-1.9862854407	 3.8599604611	-0.9352547788	 0.112438
H	 0.2574341197	 4.6010281529	-1.6675131258	 0.118643
H	 2.1395516419	 3.266673508	-0.8118086105	 0.13837
H	 2.1037877483	 1.2918203464	-4.5252148115	 0.210259
