23
gdb 115947	3.06818	1.19231	0.99045	1.8024	84.5	-0.2408	0.0779	0.3187	1299.1986	0.207628	-388.296102	-388.287424	-388.28648	-388.329539	33.648	
C	-0.0195937654	 1.6299433867	 0.0240928342	-0.383223
C	-0.0007543776	 0.0984915048	 0.083993026	-0.195621
C	-1.3806405209	-0.5447034917	-0.0934231054	 0.043033
C	-2.0589390318	-0.3252829712	-1.4660341839	-0.224797
C	-3.1845173547	-1.3761731148	-1.4956313925	-0.228408
C	-2.5707235061	-2.5946246154	-0.8093541758	 0.129811
O	-1.631412295	-3.2936652743	-1.6626050699	-0.29837
C	-0.5202218322	-2.936399178	-0.8161265965	-0.082136
C	-1.4196148039	-2.0754351257	 0.0980752878	-0.091554
H	 0.9784770491	 2.0433155066	 0.1994320422	 0.11164
H	-0.3596359508	 1.9906952232	-0.9518682601	 0.119781
H	-0.6903712563	 2.0474500512	 0.7836229024	 0.112572
H	 0.6843856317	-0.2838355958	-0.683244618	 0.095909
H	 0.4161926264	-0.2180935416	 1.0492309069	 0.091484
H	-2.0462942681	-0.1190969595	 0.6730355934	 0.067484
H	-2.4268269183	 0.6949376693	-1.6013008864	 0.095218
H	-1.3438638217	-0.524098454	-2.2735680973	 0.107416
H	-4.0468541293	-1.0306215711	-0.9111867467	 0.09327
H	-3.5379307695	-1.6160932308	-2.5024868203	 0.106965
H	-3.3063543634	-3.2852525161	-0.3822963647	 0.065585
H	-0.082052446	-3.8167252141	-0.3280697929	 0.095871
H	 0.2684660311	-2.4166646806	-1.373698465	 0.098174
H	-1.4217138471	-2.3713441573	 1.1483224426	 0.069896
