16
gdb 131375	3.24483	1.54704	1.06764	2.5833	71.43	-0.1816	0.0318	0.2134	1069.7663	0.128216	-434.071405	-434.063978	-434.063034	-434.103094	28.716	
O	 0.1018377144	 1.3429259348	 0.040990726	-0.43654
C	 0.0970413164	-0.0094671374	 0.0750833534	 0.283027
N	 0.2677750538	-0.7402186624	-1.0252463953	-0.335263
N	 0.188928037	-2.0359052675	-0.6049915371	-0.349591
C	 0.0293790265	-2.1076446404	 0.7373805618	 0.34421
C	-0.0553335896	-0.8261524831	 1.2119266406	 0.168997
N	-0.3852363732	-0.7783649558	 2.5876610378	-0.421335
C	-0.0933789845	-2.162496978	 3.0671016806	-0.160119
C	-0.2437457214	-3.1015345284	 1.8235598353	-0.345698
H	 0.2373690727	 1.5974690536	-0.8802996585	 0.300169
H	 0.3475043902	-2.7684440658	-1.2725301083	 0.268023
H	 0.1348342369	-0.0838358905	 3.1110520021	 0.233358
H	 0.9379917049	-2.238335043	 3.440157931	 0.102379
H	-0.7708843996	-2.4373102881	 3.8794527394	 0.111151
H	-1.2613940149	-3.5082830589	 1.7518613706	 0.122898
H	 0.4459315304	-3.9493325692	 1.8746391006	 0.114335
