14
gdb 128940	7.56452	0.75659	0.69438	2.9771	68.76	-0.2324	-0.0123	0.2202	1483.3727	0.103589	-429.04808	-429.040142	-429.039197	-429.081919	27.71	
N	-0.0110065235	-1.133110158	 0.175446096	-0.285694
C	 0.0147664576	 0.0148722371	 0.0558512271	 0.258101
C	 0.0475378539	 1.4677242005	-0.1244431891	-0.275526
N	 1.351871969	 2.001117055	 0.2342868358	-0.39615
C	 1.5334821122	 3.3711990957	 0.1100284857	 0.386162
N	 2.747046719	 3.893876382	-0.0765919663	-0.30488
N	 2.5051768325	 5.2063423414	-0.0813924062	-0.07094
N	 1.2517790947	 5.5803780127	 0.0730733978	-0.189201
C	 0.5962109253	 4.4237041049	 0.1985082196	-0.123556
H	-0.2539987377	 1.6946019712	-1.1608868787	 0.15235
H	-0.7143077525	 1.9075012803	 0.5301932667	 0.169417
H	 2.129098272	 1.4729270827	-0.1391828777	 0.261968
H	 3.2481903496	 5.8743936011	-0.2030869225	 0.296731
H	-0.4713175121	 4.4057448432	 0.3421555418	 0.121218
