18
gdb 133798	2.95651	0.8572	0.77653	1.8425	61.31	-0.2889	0.0699	0.3588	1498.1906	0.142131	-570.60397	-570.594014	-570.59307	-570.639694	35.336	
C	-0.0735682926	 1.5878575794	 0.0522721234	-0.384753
C	-0.0231597071	 0.0586458415	 0.0177616228	-0.172746
C	 0.7284941196	-0.4799225798	-1.2036260321	-0.200189
C	 0.7271706903	-2.0108796344	-1.2688547586	-0.031139
O	-0.5711383284	-2.5681318768	-1.3183590601	-0.422502
C	 1.5354684457	-2.5254521866	-2.462884775	 0.27308
F	 2.7774788978	-2.0190710301	-2.4784227895	-0.077598
F	 1.6388112178	-3.8562243702	-2.4577545202	-0.066206
F	 0.9353124414	-2.1718570508	-3.6190265963	-0.099324
H	 0.9331061758	 2.0195255953	 0.0797837349	 0.116206
H	-0.5792604307	 1.987976826	-0.8336075548	 0.115301
H	-0.6139298648	 1.9463545016	 0.9335506772	 0.116661
H	 0.4591576913	-0.3155426446	 0.9303334326	 0.09872
H	-1.038084164	-0.3525922554	 0.0201427928	 0.112871
H	 0.2764858721	-0.0905382719	-2.1263451106	 0.100239
H	 1.7662212849	-0.1281170738	-1.1970120089	 0.115118
H	 1.1962728481	-2.4269076263	-0.3703423935	 0.11657
H	-0.9853342972	-2.2698143532	-2.1371401641	 0.289693
