19
gdb 2174	3.59653	2.5718	1.89484	1.3559	66.53	-0.2603	0.0684	0.3287	764.9941	0.172695	-310.938583	-310.930911	-310.929967	-310.970575	28.595	
C	-0.1935661236	 1.539065607	 0.0361948157	-0.40945
C	 0.0656085433	 0.0345641483	 0.0627389559	 0.046585
C	 0.8342140519	-0.515025919	-1.1597918614	-0.200011
C	 1.4656199286	-1.8558710779	-0.6920188697	-0.198599
C	 1.2547079528	-1.903464437	 0.8464867189	-0.232815
C	 0.910407143	-0.4615442172	 1.2473449685	 0.127655
O	 2.0752408094	 0.3600360052	 1.3122641981	-0.442313
H	 0.7497841395	 2.0907302752	 0.0318479433	 0.133713
H	-0.7625990728	 1.8214930697	-0.8558728013	 0.105224
H	-0.7674207178	 1.8608433158	 0.9121284691	 0.10498
H	-0.8969736151	-0.4911109015	 0.1328012453	 0.064977
H	 0.1835583794	-0.6362212117	-2.0305604495	 0.087879
H	 1.6183019241	 0.1952729913	-1.4388635249	 0.107368
H	 0.9975124799	-2.7176932724	-1.1758250809	 0.095028
H	 2.5278359545	-1.8937179165	-0.946129778	 0.10148
H	 0.4137932186	-2.5577721518	 1.1037387761	 0.095884
H	 2.1270975473	-2.2827544128	 1.389940847	 0.08127
H	 0.3577823456	-0.4124467264	 2.1978632257	 0.050844
H	 2.6655176113	-0.0159722281	 1.9719358021	 0.280301
