19
gdb 100192	2.10745	1.37835	1.06632	1.931	71.17	-0.2464	-0.0236	0.2228	1199.5089	0.155826	-460.137369	-460.127239	-460.126295	-460.173025	35.808	
C	-0.2716673744	 1.572257507	-0.0401648032	-0.461119
C	-0.1315645844	 0.0388555926	-0.0757426843	 0.110617
C	 0.7760368203	-0.4246865522	 1.0884517236	-0.104269
O	 0.1867104028	-0.0228581171	 2.3155709202	-0.427921
C	-1.5135890625	-0.5822276565	 0.11196765	 0.148821
O	-2.0124097499	-1.3762659249	-0.6461219557	-0.262034
C	 0.4851241495	-0.4860688902	-1.3647531923	 0.071757
C	 0.5446055993	 0.2604258316	-2.6242077959	-0.184838
O	 1.7031118829	 0.1339535997	-1.7924705011	-0.255269
H	 0.678748847	 2.0295328308	-0.3294423814	 0.142068
H	-1.0496137359	 1.9244276032	-0.723809432	 0.122136
H	-0.5238252226	 1.9007582079	 0.9694760837	 0.143785
H	 0.8926254966	-1.5186578214	 1.0443061114	 0.098572
H	 1.7688400496	 0.0258915602	 0.9454483172	 0.116679
H	 0.7783338876	-0.269669687	 3.031873133	 0.295155
H	-2.0473665047	-0.2397760339	 1.0222808114	 0.103167
H	 0.4956010975	-1.5730723558	-1.4367750471	 0.105985
H	 0.5827641836	-0.2886985857	-3.5633752502	 0.120777
H	 0.1287308777	 1.2627025818	-2.6905490571	 0.115931
