20
gdb 93380	2.92623	1.41481	1.05515	3.2617	80.59	-0.2118	-0.012	0.1998	1167.5249	0.171887	-403.151925	-403.143582	-403.142638	-403.185021	32.257	
C	 0.0827399568	 1.425099233	-0.1008747819	-0.329953
N	-0.0561946613	-0.011391235	 0.0481571648	-0.066713
C	-1.419627493	-0.5046508447	-0.0885191459	-0.1548
C	-1.3947233878	-2.0333258276	-0.2234304027	-0.314388
C	-0.79346667	-2.679525917	 1.0176976741	 0.390993
O	-1.2295703846	-3.7061792682	 1.4904156842	-0.328188
C	 0.3141071342	-1.9236398098	 1.6746756648	-0.141233
C	 1.6402256624	-1.6288217873	 0.9700385304	-0.299745
C	 0.6520570687	-0.5246192649	 1.1991870961	 0.019107
H	 1.1433853472	 1.6946007919	-0.1089567479	 0.125223
H	-0.351674399	 1.7411810364	-1.0543330885	 0.120397
H	-0.4085904182	 2.003507594	 0.7045526312	 0.09623
H	-2.0701843015	-0.2125490365	 0.7586700871	 0.085291
H	-1.8543847455	-0.0603584757	-0.9902596512	 0.104646
H	-2.3926016827	-2.4531021905	-0.3718917005	 0.121103
H	-0.7820242694	-2.2943234283	-1.0957133204	 0.126009
H	 0.3924241396	-2.1339070244	 2.7352954163	 0.110608
H	 2.5306837305	-1.7007562261	 1.5844241638	 0.121557
H	 1.75491559	-1.9583368159	-0.0559424263	 0.126271
H	 0.8655029634	 0.2024900065	 1.9825970426	 0.087586
