16
gdb 80957	2.54068	1.36191	1.25783	4.1019	69.96	-0.2743	0.0232	0.2975	1060.9839	0.12392	-437.844743	-437.836585	-437.83564	-437.877189	31.234	
O	 0.0711542886	 1.4771513192	 0.1181720268	-0.441341
C	 0.0237825579	 0.0816841331	 0.0330943358	 0.100976
C	-0.0537227855	-0.6594152857	 1.3926404461	-0.079394
C	-1.5234847158	-0.158861104	 1.5242334106	-0.314923
C	-1.3617647948	-0.6258882277	 0.0433884264	 0.355268
O	-2.2501669979	-0.562155682	-0.99929463	-0.461152
C	-0.6152018916	-1.8974304299	 0.6197894087	-0.232268
C	 0.2605257949	-2.6720131935	-0.2413808088	 0.273707
N	 0.9426675584	-3.308982736	-0.9248364175	-0.338279
H	-0.0906357717	 1.8352691978	-0.7605442208	 0.29609
H	 0.7503487898	-0.3123002303	-0.6861986787	 0.100298
H	 0.7060005472	-0.6928103291	 2.1679905037	 0.106519
H	-2.1850389228	-0.7537267947	 2.1595070679	 0.094166
H	-1.648140966	 0.9109746195	 1.6732061065	 0.130779
H	-3.0912901871	-0.9480377404	-0.7305103435	 0.293378
H	-1.2399478336	-2.5596935865	 1.2230990467	 0.116175
