16
gdb 69132	2.83018	1.53562	1.15208	5.2374	69.8	-0.2418	-0.0869	0.1549	1059.6618	0.123209	-437.904559	-437.896565	-437.895621	-437.937305	30.114	
C	-0.0326467897	 1.511020914	 0.0251948477	-0.469894
C	-0.0135741239	 0.0029529485	-0.0170243403	 0.3098
C	 0.7018362699	-0.7096921664	-1.1012603415	-0.288741
N	 1.3067874991	-0.6382304299	 0.2597217629	-0.156972
C	 1.0977122145	-1.8141504979	 1.0259897267	 0.281263
O	 1.9357197736	-2.6102097732	 1.336395838	-0.278616
C	-0.4172199219	-1.916417933	 1.3925793367	 0.326999
O	-0.8935642323	-2.7814257799	 2.0701551617	-0.267048
C	-1.1239347322	-0.7530544332	 0.7060037524	-0.430532
H	 0.8695146358	 1.9225933407	-0.4339033324	 0.137915
H	-0.9046429556	 1.8990265725	-0.5123355836	 0.128562
H	-0.0835908093	 1.8704535198	 1.0582484322	 0.130984
H	 0.3302369071	-1.676913569	-1.4334920048	 0.135026
H	 1.2483490702	-0.1521958351	-1.8553687216	 0.14108
H	-1.6038286788	-0.1286369597	 1.467272805	 0.149922
H	-1.9159470665	-1.118814348	 0.0452723508	 0.150251
