18
gdb 80797	1.97546	1.66728	1.21856	1.7757	80.26	-0.2391	0.025	0.2641	1109.9125	0.146349	-401.843753	-401.835044	-401.8341	-401.876666	33.742	
C	-0.0968855624	 1.591384041	-0.0100483247	-0.439447
C	-0.0035478237	 0.078679331	-0.0258317013	 0.023534
C	 1.2537279726	-0.6288068444	-0.6163660324	-0.087689
N	 2.0294425856	-0.1222972716	 0.587770576	-0.350919
C	 0.7216449922	-0.6645396532	 1.1523465837	 0.204119
C	 0.4041010375	-0.6715973041	 2.5484328189	 0.042531
C	 0.1156226418	-0.7072806138	 3.7162575432	-0.36453
C	 0.8852337377	-1.8982375665	 0.181671269	 0.088607
O	-0.2185327532	-2.6372211175	-0.250328383	-0.427459
H	 0.8557878565	 2.0453466833	 0.2664552001	 0.143301
H	-0.3914336363	 1.9645562504	-0.9971478255	 0.112875
H	-0.8601190108	 1.9183512787	 0.704359092	 0.119284
H	-0.9416300085	-0.3982461768	-0.3099907345	 0.093861
H	 1.6597976553	-0.5607565443	-1.6253901355	 0.08716
H	 2.7893389437	-0.7761234437	 0.8092854714	 0.20793
H	-0.1342711137	-0.7250809702	 4.7483090627	 0.183673
H	 1.7411856675	-2.5376574851	 0.4426530232	 0.07047
H	-0.4643185017	-3.2530482332	 0.4481339167	 0.2927
