18
gdb 90697	2.68723	1.64064	1.33703	4.3771	77.36	-0.2403	-0.0344	0.2059	1015.3991	0.149611	-401.975754	-401.968188	-401.967244	-402.007852	29.343	
C	-0.0056891735	 1.5778066338	-0.1640059658	-0.403094
C	-0.0278416109	 0.0625522994	-0.0203667421	-0.008261
C	 1.0152433717	-0.7093012812	-0.8800086208	-0.198089
N	 1.7546956135	-1.0834542716	 0.3575883357	-0.102731
C	 0.7071562977	-0.5437460528	 1.2429055655	-0.043512
C	 1.4587107144	 0.2728508327	 2.2493877044	-0.094952
C	 2.7646682484	 0.2443547244	 1.9578166262	-0.17866
C	 2.9764943367	-0.4619732603	 0.6564288448	 0.353495
O	 3.9566195611	-0.450617508	-0.0542330789	-0.367869
H	 1.0076133207	 1.9764579637	-0.0555646151	 0.132545
H	-0.3773808733	 1.8734251755	-1.1507464559	 0.123367
H	-0.6378771125	 2.0574400834	 0.5907537526	 0.117963
H	-1.048254597	-0.3149803878	-0.1208133031	 0.081753
H	 0.6261792471	-1.5819663732	-1.4106119813	 0.115114
H	 1.6212012122	-0.1098697013	-1.5652504854	 0.1304
H	 0.1090267519	-1.3240490588	 1.7299665081	 0.097806
H	 0.9960934404	 0.739119612	 3.1109337639	 0.119072
H	 3.5789891513	 0.70393682	 2.5010062073	 0.125651
