15
gdb 131407	5.24999	1.03315	0.89831	2.7695	70.14	-0.2222	0.0112	0.2333	1239.2362	0.113346	-453.908969	-453.901424	-453.90048	-453.941684	28.202	
O	-0.209139639	 1.3194245762	 0.1094009675	-0.421431
C	 0.0379472451	 0.0016321273	 0.0495078167	 0.487096
N	 0.6739266348	-0.5295125996	-0.9677415542	-0.268437
O	 0.7330270212	-1.9065685072	-0.663420621	-0.224101
C	 0.1296877467	-2.1143379721	 0.5185498679	 0.519354
C	-0.3456036871	-0.9434775826	 1.0354582666	-0.471866
N	 0.1724899755	-3.4014638979	 1.0099701127	-0.15241
C	-1.0550539285	-4.0629388688	 1.4424147752	-0.226821
C	-0.3442622181	-4.5098833964	 0.2101084216	-0.221869
H	 0.1629620514	 1.7199469044	-0.6879406904	 0.31002
H	-0.8636653018	-0.7749354034	 1.9625614238	 0.121698
H	-0.9708103047	-4.6330830416	 2.3619872555	 0.134203
H	-1.9867581331	-3.5179805424	 1.3141086843	 0.13516
H	-0.7926793018	-4.2675738511	-0.7488906202	 0.143507
H	 0.2653971593	-5.407237345	 0.2250660341	 0.135898
