15
gdb 79129	5.33335	1.23017	1.1377	4.8238	64.62	-0.2664	0.004	0.2704	1029.3791	0.11409	-457.748524	-457.741933	-457.740989	-457.77942	26.262	
O	-0.0346229618	 1.4498154907	-0.0314883908	-0.441185
C	 0.0254779022	 0.0473109074	 0.0057169278	 0.114875
C	 0.0128683038	-0.6620603641	 1.3847601423	-0.128816
C	-1.4779825633	-0.2455591964	 1.5504922711	 0.124412
O	-2.1866834946	-1.2753864881	 2.2540682373	-0.250862
C	-1.6651502388	-2.422855985	 1.7048662678	 0.456797
O	-1.9850547221	-3.5292514212	 2.0172144621	-0.344268
C	-0.6665948189	-1.9011082805	 0.6945195196	-0.218015
C	-1.3482037718	-0.6379502731	 0.0488020095	-0.097563
H	 0.8613398651	 1.7982104882	 0.007187736	 0.290814
H	 0.7345180971	-0.3578925874	-0.7260286049	 0.082093
H	 0.784031884	-0.6935179241	 2.1549857535	 0.092823
H	-1.7878820017	 0.7388849551	 1.8815522816	 0.120479
H	-0.103072177	-2.6194819005	 0.1052463927	 0.100031
H	-2.1309678022	-0.637211611	-0.7091194257	 0.098386
