25
gdb 105249	1.76099	1.45602	1.01531	0.0722	92.79	-0.2507	0.094	0.3447	1368.3773	0.228035	-352.336909	-352.32654	-352.325596	-352.372429	39.364	
C	-0.7489484526	 2.3858283378	-3.647020444	-0.381665
C	-0.1564893233	 1.9238402079	-2.3085478382	-0.241832
C	 0.3585028009	 0.4862620439	-2.3171726257	 0.33676
C	 1.7293896279	 0.2295418207	-2.9141335788	-0.331846
C	 1.5251765025	 0.1081447734	-1.4224527594	-0.0447
C	 2.1914584187	 1.0586257218	-0.4488792295	-0.417914
C	-0.7261349924	-0.528213982	-2.5870491748	-0.043589
C	-0.7161232893	-1.9541818214	-2.0974085663	-0.291136
C	-1.6861892477	-0.9628799982	-1.5039269752	-0.264018
H	-0.0206546152	 2.2762527896	-4.4578118974	 0.115306
H	-1.6402460945	 1.812721712	-3.9191429178	 0.117457
H	-1.0406937882	 3.4396997221	-3.597950547	 0.107835
H	 0.6561206274	 2.6048698694	-2.0384731039	 0.08994
H	-0.9160253339	 2.0256773966	-1.5221773334	 0.094782
H	 1.8771273895	-0.6774903804	-3.4909801794	 0.105281
H	 2.2919044849	 1.0855024904	-3.2768293577	 0.101072
H	 1.5049124216	-0.9129468895	-1.0530020604	 0.077131
H	 2.3282030255	 2.058839003	-0.8676524449	 0.117545
H	 1.6134536771	 1.1611204972	 0.4768063376	 0.114394
H	 3.1852594756	 0.6850335058	-0.1777822124	 0.115308
H	-1.1782946524	-0.4097441769	-3.5688712852	 0.083783
H	-1.1029313776	-2.7144369427	-2.7674384392	 0.107578
H	 0.0968505344	-2.300743698	-1.4700968444	 0.11496
H	-1.4831415558	-0.619412705	-0.4946539321	 0.110227
H	-2.7407509235	-1.0554039177	-1.7395906206	 0.107341
