15
gdb 36756	3.50444	0.6246	0.5441	3.8265	87.79	-0.2557	-0.0335	0.2222	1896.2916	0.111073	-379.610836	-379.601305	-379.600361	-379.646551	33.147	
C	 0.479337897	-3.2980782068	 0.6506695735	-0.526902
C	 0.2788783029	-2.1495082358	 0.3373160114	 0.286074
C	 0.0537405815	-0.8547583018	-0.0156123848	-0.30011
C	-0.1558399849	 0.2958071899	-0.3307756585	 0.414162
C	-0.3466195457	 1.6965855474	-0.7193006506	-0.351276
N	 0.8750857779	 2.5050654648	-0.7761838702	-0.274739
C	 1.5657521643	 2.591525025	 0.510184676	-0.267169
C	 2.7764367356	 3.4068770692	 0.3925776538	 0.261771
N	 3.7435390892	 4.0311375117	 0.2993813763	-0.294828
H	 0.6545226513	-4.3086658972	 0.9258944089	 0.198511
H	-0.8210114622	 1.7421146545	-1.7061873272	 0.153433
H	-1.0435647409	 2.1792005117	-0.02161389	 0.149495
H	 1.5062662851	 2.1166363593	-1.4702737564	 0.242369
H	 0.8947741298	 3.0702568895	 1.2344232554	 0.158262
H	 1.8472047991	 1.6140327187	 0.9362139625	 0.150946
