17
gdb 12236	3.29544	1.55857	1.1818	1.2956	65.64	-0.2628	0.0217	0.2846	1024.1163	0.14188	-400.997438	-400.989157	-400.988213	-401.030412	30.08	
C	-0.281878542	 1.5474108904	 0.1959255012	-0.411797
C	-0.083160254	 0.047506235	 0.0070482306	-0.155306
C	 0.5301191922	-0.5329496441	-1.2966841036	 0.096434
C	 1.1391189873	 0.386763876	-2.3365991852	-0.07092
O	 1.9260327231	-0.3483770085	-3.2537398428	-0.418647
O	 1.6051439873	-1.1591156104	-0.5035420777	-0.286258
C	 1.1253654097	-0.5935055599	 0.6634828232	 0.439422
N	 1.5784431037	-0.6220340996	 1.8310363944	-0.542353
H	 0.6186785267	 2.11651286	-0.0479768809	 0.129555
H	-1.1034550244	 1.9174921993	-0.4250129878	 0.123072
H	-0.5274566232	 1.7519956603	 1.2414483949	 0.145813
H	-0.9985886839	-0.4853915153	 0.2811920871	 0.113895
H	-0.05876229	-1.3141940065	-1.7854554383	 0.100858
H	 0.3455438299	 0.8718198032	-2.9152822151	 0.117631
H	 1.7273271916	 1.1747812656	-1.8434940188	 0.095835
H	 2.5895464594	-0.817342988	-2.7341359566	 0.294508
H	 2.4434071265	-1.1624256974	 1.8866134555	 0.228259
