22
gdb 98260	2.87911	0.96841	0.84971	3.1871	79.89	-0.2231	-0.0265	0.1966	1467.3507	0.190802	-441.479377	-441.468464	-441.46752	-441.51579	39.177	
C	-0.1075866034	 1.5486410211	-0.1270934489	-0.419026
C	-0.0152385355	 0.0114447498	-0.0546587099	-0.020395
N	-1.3222959504	-0.6272283927	 0.0457780487	-0.047532
C	-1.2165972747	-2.0807941645	 0.0763689544	-0.330982
C	-2.1157606993	-0.1474818384	 1.1687749873	-0.321481
C	 0.7202802586	-0.4270666951	-1.3239204968	 0.354398
O	 0.1839103764	-0.5410364091	-2.4039411944	-0.329424
C	 2.2164394621	-0.6874138937	-1.2100722053	-0.136862
O	 2.7884317836	-0.9222919914	-2.4597224291	-0.420763
H	 0.8711698266	 1.9801188908	-0.3571141119	 0.125951
H	-0.8080170587	 1.8365052355	-0.9153619591	 0.149202
H	-0.4354456139	 1.9749718951	 0.822746398	 0.128863
H	 0.6313569349	-0.2536799498	 0.8091146935	 0.056064
H	-0.6586128875	-2.4570823254	 0.956058136	 0.089057
H	-2.2192439559	-2.5163741508	 0.1058710057	 0.123538
H	-0.7249570129	-2.4456904228	-0.828272387	 0.135337
H	-2.3434644909	 0.9149198794	 1.0633890654	 0.125124
H	-3.0668551846	-0.6872595946	 1.1844225246	 0.12378
H	-1.6255156232	-0.3017950396	 2.1500558173	 0.08984
H	 2.6962056879	 0.1666804376	-0.7052671052	 0.11597
H	 2.3442237415	-1.5499007213	-0.5308133654	 0.115683
H	 2.0376993391	-0.9377727302	-3.076288018	 0.293659
