22
gdb 120380	3.00976	0.9723	0.79787	1.6133	82.87	-0.2432	0.0248	0.268	1513.6781	0.194345	-404.377423	-404.367706	-404.366762	-404.413504	35.269	
C	-0.1929128886	 1.5362271824	 0.0704913484	-0.384104
C	 0.0086681629	 0.0192682406	 0.0378361733	-0.165389
C	 0.6247570199	-0.4716907008	-1.2771027273	-0.168394
C	 0.8058296091	-1.9948155581	-1.3111314368	-0.013603
N	-0.5080181091	-2.6751442958	-1.2646444015	-0.270534
C	-0.5562576552	-3.4203419662	-2.2865722706	 0.116072
O	 0.4907419591	-3.4822929179	-3.137325861	-0.233795
C	 1.5087410478	-2.5983433821	-2.5774417199	 0.092685
C	 1.9801675218	-1.6510715919	-3.668830107	-0.402549
H	 0.7561019332	 2.0689472955	-0.0605313161	 0.108551
H	-0.8671349134	 1.863737956	-0.7289032743	 0.113405
H	-0.6263555794	 1.8592819591	 1.0221775985	 0.111694
H	 0.6559438403	-0.283219438	 0.8721850666	 0.089635
H	-0.9468114315	-0.4922828195	 0.1913523433	 0.125074
H	-0.0111737092	-0.1622223416	-2.1160130456	 0.097302
H	 1.599554317	 0.0110188839	-1.4253202872	 0.089587
H	 1.3673975982	-2.2847161768	-0.4143526022	 0.083958
H	-1.3973635051	-4.0453867028	-2.5681128416	 0.137066
H	 2.3389187414	-3.2454115875	-2.274144589	 0.092522
H	 1.169915591	-1.0065102907	-4.0188240546	 0.129425
H	 2.7941801336	-1.0181136807	-3.3034415588	 0.123641
H	 2.3537472163	-2.224613417	-4.5214986765	 0.127751
