19
gdb 37704	2.67749	2.2353	2.02058	1.4831	75.72	-0.2394	0.0861	0.3255	824.7326	0.164601	-385.887551	-385.881853	-385.880909	-385.917137	25.796	
C	-0.0431955417	 1.5536064194	-0.0017178765	-0.227487
C	 1.4576360764	 1.8440197911	 0.0613147826	-0.066571
C	 2.1489111152	 1.4628532143	 1.3836727129	-0.089499
C	 1.7370585303	 0.0619754665	 1.7717688449	-0.040915
C	 0.3869605369	-0.519167074	 1.3729778496	-0.232071
C	-0.0084988555	 0.0103896547	-0.0157829297	 0.073308
O	 1.037216901	-0.2989521459	-0.9522954317	-0.270552
C	 2.1007357468	 0.5723829519	-0.6005184459	 0.090566
C	 2.8077824169	 0.2454775564	 0.7268374665	-0.088514
H	-0.6039148766	 1.9576481523	 0.8461051594	 0.096833
H	-0.4826145159	 1.9311712879	-0.9297716477	 0.09972
H	 1.7707268652	 2.8002749012	-0.3569096351	 0.069091
H	 2.5716713282	 2.1598965666	 2.096889763	 0.081048
H	 2.1164594167	-0.2564400639	 2.7390183031	 0.083304
H	 0.4482869052	-1.6130969794	 1.3400264063	 0.101505
H	-0.3851704921	-0.2547051509	 2.1064718258	 0.09222
H	-0.9245794784	-0.4576718516	-0.3824581619	 0.072144
H	 2.7463905391	 0.7146958366	-1.4672768828	 0.076193
H	 3.8120160724	-0.1449387533	 0.8381910973	 0.079678
