16
gdb 126349	3.35236	1.22826	0.96347	1.8858	76.88	-0.2595	-0.0644	0.1951	1217.4253	0.124422	-434.052774	-434.04453	-434.043586	-434.086755	29.695	
C	 0.4542213736	 0.9697851589	 0.6249992001	-0.386071
C	-0.2188622256	 0.2996443142	-0.586070985	-0.26373
C	-1.5728488064	-0.2531039231	-0.2520968248	 0.431884
N	-2.6580534443	 0.2627187961	-0.6846852871	-0.316836
C	-3.8630580062	-0.3249302093	-0.2875911941	 0.305154
N	-4.9737043094	 0.1443053792	-0.7096123532	-0.484017
C	-3.7226159728	-1.4754347	 0.6190457278	-0.004627
N	-2.6189409952	-1.9703318372	 1.0360485163	-0.063102
O	-1.4587128426	-1.3358717002	 0.5688476156	-0.261829
H	 1.4349271658	 1.3589554039	 0.3396516824	 0.128527
H	-0.1493464866	 1.8044755814	 0.9929857666	 0.136306
H	 0.592503094	 0.2571851052	 1.4419718262	 0.140232
H	-0.3603203891	 1.0144979137	-1.3985645071	 0.142687
H	 0.409904878	-0.520142864	-0.9509092416	 0.132036
H	-5.7527195518	-0.3951601654	-0.3272433482	 0.220256
H	-4.6084662415	-1.9842446335	 0.9943480161	 0.14313
