18
gdb 120130	2.88799	1.21366	1.14555	5.3231	72.03	-0.2358	0.0153	0.251	1148.5447	0.148	-439.070559	-439.062097	-439.061153	-439.104016	31.678	
O	-0.6439883081	 0.3086358551	 1.2508997479	-0.412711
C	-0.2249436314	-0.0088098229	-0.0731555249	-0.068846
C	-1.3211101347	-0.8447915623	-0.7293906599	-0.24056
C	-1.4456536152	-2.2411170146	-0.1427731771	-0.01758
C	-1.8874369355	-2.5409433481	 1.2545567627	-0.001051
N	-2.9215567207	-1.6154491066	 1.7219815622	-0.337492
C	-3.7661133897	-1.9306305803	 0.6371856987	 0.410123
O	-4.8323283152	-1.494194978	 0.3054151451	-0.347836
C	-2.7833496659	-2.9640879682	 0.1012251879	-0.262447
H	 0.0621152398	 0.7908688437	 1.6901228375	 0.29236
H	-0.0631300963	 0.9079316165	-0.6597005503	 0.094183
H	 0.7237968045	-0.5680553679	-0.0605875514	 0.089674
H	-2.2641725404	-0.2958661584	-0.6450891428	 0.13331
H	-1.1076517882	-0.9263492233	-1.8011677007	 0.106833
H	-0.6843712234	-2.9353229886	-0.4993778033	 0.094717
H	-1.3512739104	-3.167123738	 1.9556033	 0.105142
H	-2.681497464	-0.6571989572	 1.9567968528	 0.250044
H	-3.0002747751	-3.944496591	-0.2983967845	 0.112138
