14
gdb 25340	3.89722	1.16023	0.89406	1.5523	78.07	-0.2318	-0.0925	0.1393	1197.5065	0.101645	-436.728833	-436.721479	-436.720535	-436.761003	27.36	
N	-0.0518627856	 1.3265907535	 0.0104304029	-0.524759
C	-0.0268574519	 0.0569242429	 0.0033771382	 0.40022
O	 1.1856731315	-0.6351064445	-0.0071088978	-0.239241
C	 1.2281294129	-1.9894874838	-0.0147382889	 0.078563
C	 0.1357120851	-2.7658087176	-0.0129295972	-0.262858
C	-1.1524766808	-2.1156069018	-0.0022562583	 0.196394
C	-2.3964354014	-2.9221994584	 0.0002259272	 0.107824
O	-2.4127854167	-4.1296551534	-0.0062638995	-0.257339
C	-1.2231757668	-0.7630738192	 0.0055148068	-0.239822
H	 0.893700362	 1.7103975392	 0.0072914389	 0.228992
H	 2.2500864983	-2.347563414	-0.0223464099	 0.147576
H	 0.2040892	-3.8441022701	-0.019191505	 0.139963
H	-3.3330598539	-2.3246464258	 0.0086710134	 0.087143
H	-2.1670320728	-0.2302974269	 0.0136418291	 0.137343
