18
gdb 13507	2.99405	1.82321	1.25037	3.5128	63.85	-0.2398	0.0453	0.285	983.1794	0.152502	-422.051464	-422.042785	-422.041841	-422.084657	31.706	
C	 0.0901968372	 1.5369282049	 0.0017048383	-0.39799
C	 0.0899667408	 0.0163769113	 0.0070800451	 0.128747
O	-1.2349912351	-0.4331691586	 0.254665933	-0.445749
C	 0.5654163382	-0.5436337292	-1.3361674947	 0.099299
O	 1.9752056504	-0.3056956794	-1.5814239683	-0.291019
C	 2.2858048439	-1.7101959676	-1.4789291114	-0.095923
C	 0.7867107494	-2.0719503689	-1.3954136702	 0.030093
O	 0.332105223	-2.7551988052	-0.2421426146	-0.428388
H	 1.0879905234	 1.9114066339	-0.242510125	 0.130288
H	-0.6208141491	 1.9126960093	-0.7414956936	 0.118145
H	-0.2046424522	 1.9208779884	 0.9818982205	 0.118916
H	 0.7756234432	-0.3426960772	 0.7896279382	 0.070874
H	-1.17501733	-1.3926476963	 0.3445735388	 0.288967
H	-0.0567443446	-0.1343916391	-2.1418182149	 0.081967
H	 2.8389117371	-2.0747086133	-2.3523527764	 0.102313
H	 2.8407564223	-1.9518123095	-0.563108895	 0.105241
H	 0.3932794548	-2.5356476388	-2.3062765557	 0.087369
H	 0.3754498675	-3.7027594349	-0.398750014	 0.296849
