18
gdb 10487	2.86729	1.6472	1.26375	1.4028	73.43	-0.2474	0.0512	0.2986	1026.2781	0.150864	-347.742865	-347.733918	-347.732974	-347.776551	32.823	
C	-1.5456605175	-0.7143954507	-0.4284171201	-0.251135
O	-0.2134652637	-0.3732701454	-0.0966319299	-0.274431
C	 0.7403400282	-0.737553466	-1.0497628105	 0.457257
C	 0.6830278837	 0.0329232282	-2.3680843334	-0.439795
C	 0.8195195796	 1.4760297133	-2.2008888478	 0.329797
C	 0.9312459956	 2.6641310986	-2.0612562274	-0.456347
C	 2.0684951259	-1.1037082687	-0.4703731983	-0.305869
C	 1.1823861602	-2.1817103232	-1.0689242366	-0.334497
H	-1.9298026721	-0.1230603913	-1.2710952294	 0.114016
H	-1.6428391478	-1.7816483616	-0.6739657912	 0.105347
H	-2.1545224295	-0.4947186806	 0.4515904946	 0.1288
H	 1.4786111672	-0.341294162	-3.0231404819	 0.130317
H	-0.2583310004	-0.1888021449	-2.8875103988	 0.128673
H	 1.0310210268	 3.7133757053	-1.9340336166	 0.194656
H	 2.9643644527	-0.8075511302	-1.0047425964	 0.116393
H	 2.1467557468	-1.0686380968	 0.6096510111	 0.12632
H	 0.6877565382	-2.8537774604	-0.3768920614	 0.119703
H	 1.4734195461	-2.6337330736	-2.0113221361	 0.110796
