21
gdb 87710	2.43996	1.30181	1.16708	0.5849	78.97	-0.2289	0.0602	0.289	1209.211	0.18026	-424.199529	-424.189751	-424.188807	-424.234254	36.489	
C	 0.0412260461	 1.5236378751	 0.5254455458	-0.402118
C	-0.0568760973	 0.030546375	 0.3056164893	-0.089293
C	 1.0984426183	-0.7267341576	-0.3407097095	-0.373006
C	 0.8021147888	-0.9055809532	 1.1087952464	 0.403597
O	 1.6838068803	-0.4415457268	 2.1315745301	-0.323004
C	 1.2455543699	-1.4906004169	 3.0423052863	 0.107575
C	 0.5375979825	-0.9457531955	 4.2663802535	-0.401979
C	 0.3654226872	-2.1213955207	 1.9193044536	-0.01773
O	-1.0048428279	-2.3257392751	 2.1392793754	-0.422539
H	 1.0353123251	 1.7941335291	 0.8918289398	 0.134758
H	-0.1482217114	 2.0760593346	-0.4009161411	 0.117504
H	-0.685171151	 1.8636048713	 1.2721360041	 0.111107
H	-1.0491096062	-0.3458401995	 0.063853046	 0.089046
H	 0.8793644527	-1.5401828278	-1.0252974725	 0.114899
H	 1.9878291788	-0.1530256051	-0.5837579392	 0.120979
H	 2.100455943	-2.1106944535	 3.3373565505	 0.08015
H	-0.3108793828	-0.3104829479	 3.9925637401	 0.106716
H	 0.1686066556	-1.7649259107	 4.891636916	 0.12775
H	 1.2285347984	-0.3396420537	 4.8595547831	 0.129711
H	 0.7549598496	-3.0736016293	 1.5518441099	 0.100887
H	-1.4110596199	-1.4691376117	 2.3101472825	 0.28499
