16
gdb 65842	3.40213	1.11203	1.09209	1.9298	68.83	-0.2861	-0.0089	0.2772	1144.6549	0.124538	-437.948519	-437.940292	-437.939348	-437.981449	30.363	
C	 0.1391103364	 1.5101395039	 0.091371295	-0.435716
C	-0.0597248789	-0.0172761489	 0.0113177318	 0.078837
C	 0.7604088112	-0.6239510376	-1.1659499985	-0.103559
O	 2.0642827904	-0.8687088439	-0.6354207511	-0.214578
C	 2.0297756499	-0.9868539137	 0.7247675154	 0.429594
O	 2.9965500756	-1.2500413038	 1.3717207044	-0.319581
C	 0.6041726051	-0.73444117	 1.2071599461	-0.3908
C	-1.4812669417	-0.3350210233	-0.1226524372	 0.253803
N	-2.6043096939	-0.5827218866	-0.236442585	-0.330634
H	 1.206731675	 1.7414639745	 0.1497656952	 0.146019
H	-0.2753804796	 2.0026975559	-0.7917307913	 0.144279
H	-0.3539572552	 1.9184700242	 0.9768758201	 0.145901
H	 0.3248877189	-1.5654430306	-1.5164529842	 0.138096
H	 0.856377698	 0.0646473163	-2.0072992823	 0.141323
H	 0.6039146108	-0.1540958304	 2.1300809024	 0.155652
H	 0.1336023381	-1.700964516	 1.4137646492	 0.161363
