13
gdb 5496	3.60154	1.93526	1.26063	5.928	67.64	-0.202	-0.0024	0.1996	883.307	0.098184	-357.694958	-357.687845	-357.6869	-357.726115	26.668	
N	 0.0521998525	 1.3894430376	 0.1659603547	-0.615552
C	 0.0119390075	 0.0006305418	 0.0489632081	 0.167506
C	-1.0898293976	-0.8242157532	 0.0288349546	-0.145827
N	-0.635414294	-2.1322426401	-0.0175413151	-0.235055
C	 0.7158923175	-2.167426579	-0.0271297616	-0.164944
C	 1.1674231981	-0.8548197269	 0.0106643639	 0.125828
C	 2.5079515211	-0.412402669	-0.0022578377	 0.186243
N	 3.5926085484	-0.0012633111	-0.020586594	-0.368177
H	 0.922589171	 1.7900586656	-0.1583396446	 0.259997
H	-0.7333342377	 1.8623742307	-0.258302273	 0.247443
H	-2.1422820346	-0.5976663022	 0.0533979286	 0.122875
H	-1.2297666665	-2.941927119	-0.039597216	 0.273175
H	 1.2693899245	-3.0904708852	-0.066180198	 0.146489
