12
gdb 27613	3.62551	1.2842	0.9483	2.0504	70.19	-0.281	-0.0891	0.1919	1110.947	0.080282	-431.742584	-431.7358	-431.734856	-431.774084	25.165	
O	 0.1064266289	 1.2966192777	 0.088891917	-0.382114
C	 0.0697916705	-0.0362712154	 0.0490351872	 0.460044
N	 0.0756965896	-0.609231367	-1.1560338443	-0.395781
C	 0.0383044691	-1.946954969	-1.1612836556	 0.224905
C	-0.0041428174	-2.7016123454	 0.0074150399	-0.188273
C	-0.005411994	-1.9736621054	 1.1961648258	 0.023623
N	 0.0310619802	-0.6460630336	 1.2365492298	-0.274682
C	 0.0436017836	-2.5949785121	-2.4483501933	 0.250984
N	 0.0467188958	-3.1450789879	-3.4650997695	-0.311469
H	 0.1317770508	 1.6051714274	-0.8275960445	 0.31524
H	-0.0340778724	-3.782033292	-0.0111704295	 0.137596
H	-0.0371767446	-2.4830088074	 2.1562287472	 0.139927
