20
gdb 62755	3.49761	1.21533	1.18284	3.023	80.27	-0.2437	0.0274	0.2712	1156.0479	0.171133	-403.163831	-403.155226	-403.154282	-403.196707	33.422	
C	 0.2541523531	 1.5313553262	 0.0030190098	-0.468992
C	 0.0915085842	 0.024878949	-0.037762013	 0.27702
C	-1.2047196222	-0.4748664581	 0.5761900933	-0.45121
C	 0.6079741857	-0.8061572355	-1.2124027683	-0.129636
C	 1.6558723338	-0.2196451048	-2.1391364004	-0.330445
C	 2.8362366066	 0.095382842	-1.2314885704	 0.398381
N	 3.8979502998	 0.6790581167	-1.5821271155	-0.538343
O	 2.5739012202	-0.3354227821	 0.0463347185	-0.231512
C	 1.2770918884	-0.8930506779	 0.1353876465	 0.041425
H	 1.216057716	 1.8720762105	-0.383653096	 0.140858
H	-0.5336628791	 2.0169361351	-0.5840839826	 0.118948
H	 0.1693783955	 1.8938163489	 1.0335066786	 0.121687
H	-2.0709718176	-0.0912690386	 0.0250476688	 0.121394
H	-1.2634411312	-1.5681000667	 0.5648474247	 0.11496
H	-1.297039144	-0.1453412545	 1.6171899263	 0.121051
H	-0.0168518544	-1.6110603186	-1.5813506557	 0.092759
H	 1.9641087318	-0.9472140897	-2.89620796	 0.137098
H	 1.3455159282	 0.6838295924	-2.6705765257	 0.138541
H	 4.5316944123	 0.7802459929	-0.787601682	 0.222908
H	 1.2464147231	-1.7536684268	 0.7935397829	 0.103109
