20
gdb 57666	3.93337	0.89181	0.86696	3.3706	81.77	-0.2505	0.0259	0.2764	1396.9978	0.167439	-403.148737	-403.138162	-403.137218	-403.184002	38.727	
C	 0.0300685276	 1.6074072305	 0.0817366346	-0.40802
C	 0.0519758535	 0.0703918503	 0.094041592	 0.2708
C	 0.8008807772	-0.456912453	 1.3286006345	-0.408019
C	-1.3961662764	-0.4942663622	 0.0544288056	-0.409381
C	-2.2212592021	-0.1152309478	 1.1919917296	 0.326311
C	-2.9055965483	 0.1956562808	 2.1297127953	-0.447468
N	 0.6910531804	-0.4352674335	-1.1381754974	-0.306833
C	 1.9692076908	-0.1921956915	-1.5258226044	 0.158878
O	 2.7860340424	 0.4756062368	-0.9245974093	-0.332482
H	 1.0500374752	 1.9932533856	 0.0589371012	 0.154551
H	-0.5028579527	 1.9785852866	-0.7996712581	 0.106188
H	-0.4768153307	 1.982537645	 0.9744247053	 0.127325
H	 0.3065295514	-0.1152802067	 2.2415356913	 0.127319
H	 0.8153020269	-1.5516441232	 1.3326254839	 0.10619
H	 1.8301693668	-0.0960256614	 1.3208532201	 0.154564
H	-1.8798012199	-0.1523617508	-0.8711045705	 0.130282
H	-1.3428743161	-1.5903170185	-0.0025422951	 0.130289
H	-3.513386297	 0.4683063091	 2.956761945	 0.200617
H	 0.1380742046	-1.0126086875	-1.7525366804	 0.242899
H	 2.1982781163	-0.6897810586	-2.4910480433	 0.075988
