23
gdb 108666	1.82477	1.57517	0.94652	1.2292	89.73	-0.2202	0.0312	0.2513	1345.2086	0.204901	-388.319057	-388.308758	-388.307813	-388.354585	38.059	
C	 0.2991042326	 1.5579804307	-0.1971573694	-0.374842
C	-0.0241207624	 0.0708227479	 0.0351935304	-0.2941
C	 0.6339141812	-0.4991964919	 1.2574636111	 0.245231
C	 0.0702205218	-0.9744837728	 2.3768687916	 0.194985
C	-1.3823622221	-1.0459679582	 2.7318359967	-0.496967
C	 1.1129121138	-1.4392020191	 3.3751246766	-0.29425
C	 2.4094771661	-1.49128594	 2.540820966	-0.248289
C	 2.1470120397	-0.5475084554	 1.3477365041	 0.04272
O	 2.6917328312	-1.0064271928	 0.1114482089	-0.439685
H	 1.3740610716	 1.7084565442	-0.3344854417	 0.123111
H	-0.204803706	 1.9277660316	-1.0956098482	 0.109256
H	-0.0243290589	 2.1719805917	 0.6498294022	 0.111522
H	-1.1090949856	-0.0624732537	 0.0930891492	 0.093079
H	 0.3183357592	-0.4974852806	-0.8379944814	 0.121813
H	-1.6804873346	-2.0795670626	 2.9510263144	 0.123544
H	-1.5921751267	-0.4661395642	 3.6404778699	 0.122596
H	-2.0311147905	-0.6689302778	 1.9380312414	 0.123868
H	 1.1943221566	-0.7254171105	 4.2081594317	 0.100007
H	 0.8577978931	-2.4047657551	 3.8294605296	 0.097304
H	 3.3063749616	-1.2323796178	 3.111393811	 0.084492
H	 2.5487265484	-2.4953594155	 2.1272651645	 0.109902
H	 2.5396269143	 0.4633650277	 1.5565431083	 0.064149
H	 3.6473417856	-0.9042880559	 0.1530718731	 0.280554
