21
gdb 68411	2.49234	1.82099	1.40138	1.5244	81.49	-0.2381	0.0866	0.3247	1024.3525	0.183254	-387.064581	-387.056683	-387.055739	-387.096384	32.578	
C	-0.1204801677	 1.5116959195	 0.00311278	-0.516136
C	 0.0209071239	 0.0167449325	-0.0097315484	 0.336887
C	 0.4984054146	-0.8001982113	-1.2405497003	-0.269279
C	-0.4070620793	-1.8260303725	-0.5305503988	 0.076145
C	 0.3630736593	-2.1739511048	 0.7609304034	-0.313724
C	 0.7094101831	-0.7213815712	 1.1524524995	 0.390258
C	 2.0169264278	-0.2984703609	 1.7578420107	-0.335228
C	 0.7366513274	-0.2200264677	 2.5637435414	-0.337248
O	-1.2539547693	-0.7199582515	-0.0904456889	-0.331057
H	 0.861755368	 1.9945574459	 0.0302183812	 0.123175
H	-0.646680343	 1.8530874377	-0.8919862013	 0.128575
H	-0.6902278954	 1.8383009388	 0.8787339545	 0.133018
H	 0.0542974108	-0.4326239337	-2.1667992617	 0.102553
H	 1.5645000216	-1.0124152695	-1.3568550947	 0.09282
H	-0.9436635393	-2.617509988	-1.0532516004	 0.075906
H	-0.2869191809	-2.6660497832	 1.4892156391	 0.107442
H	 1.2399407617	-2.8044013611	 0.5830796989	 0.096362
H	 2.7378930997	-1.0696041151	 2.0103358439	 0.109274
H	 2.4666237449	 0.6341297633	 1.4303143478	 0.108235
H	 0.3325994135	 0.7637401313	 2.7796374699	 0.111093
H	 0.5881835886	-0.9418158087	 3.3605857741	 0.110929
