17
gdb 127937	3.82788	1.15115	0.8906	3.137	85.17	-0.1904	-0.0358	0.1546	1277.8324	0.137756	-414.198442	-414.190018	-414.189074	-414.23116	32.123	
C	-0.0280736338	 1.4400622801	 0.0238872329	-0.339242
N	-0.0125212972	-0.0056892681	-0.0473673135	-0.336494
C	 0.56483254	-0.652069019	 0.9018020707	 0.429808
N	 1.1844278017	-0.0473344246	 2.0117810959	-0.315823
N	 1.8012962584	-0.6604300023	 3.0319140744	-0.187597
C	 1.8415461983	-1.9534227136	 3.0066164512	-0.033807
C	 1.255090441	-2.7482739579	 1.9492485879	 0.324422
N	 1.4161990951	-4.1219036355	 2.0105268456	-0.591382
C	 0.6312502652	-2.0930820932	 0.9327545448	-0.267287
H	 0.9822341406	 1.8879805826	 0.0233031195	 0.098605
H	-0.5516621119	 1.8394020041	-0.8490029872	 0.120955
H	-0.5524778454	 1.8276770942	 0.9162516609	 0.097643
H	 1.1875746521	 0.9563028081	 2.0848503357	 0.269149
H	 2.3545988488	-2.4300488168	 3.8363236501	 0.113277
H	 1.5071621798	-4.5147400218	 2.9354356177	 0.255052
H	 0.803692319	-4.6630086911	 1.4186509442	 0.257362
H	 0.1628976083	-2.6121756551	 0.1048536792	 0.105359
