20
gdb 119803	5.29485	0.77906	0.7318	2.7409	81.61	-0.2245	0.0175	0.242	1562.9508	0.171863	-403.124428	-403.115672	-403.114728	-403.15858	32.886	
O	-0.2031948904	 1.4769902391	-0.0967135477	-0.41797
C	-0.0217818305	 0.0712464321	-0.1668830994	-0.067429
C	-1.3563082789	-0.5818009415	 0.2008455308	-0.291291
C	-1.3224506886	-2.0796815648	 0.1606374815	 0.3127
C	-1.5582290306	-2.9108359483	 1.1831270923	-0.169529
C	-1.550335796	-4.3336073949	 0.7414352968	-0.073872
N	-2.6224855955	-4.6228833414	-0.2591557149	-0.33501
C	-1.2512322804	-4.3098081656	-0.7157755505	-0.042551
C	-1.0557660623	-2.8554165258	-1.1265075135	-0.304653
H	 0.6317049717	 1.8995776595	-0.317654046	 0.285503
H	 0.2850260081	-0.2390146684	-1.1781814564	 0.086826
H	 0.7582472164	-0.2701325211	 0.532041079	 0.089007
H	-1.6446982906	-0.2375022449	 1.1993293021	 0.110553
H	-2.1143186668	-0.2004623307	-0.496829167	 0.115157
H	-1.7861445994	-2.6011721253	 2.1966926495	 0.090259
H	-1.2265176935	-5.1325982035	 1.3999616311	 0.084762
H	-2.7464130597	-5.6332905303	-0.3129398631	 0.223815
H	-0.6729025413	-5.0901497156	-1.1985439615	 0.084195
H	-1.7474198379	-2.5593758993	-1.9249491698	 0.118064
H	-0.0394633538	-2.6828617792	-1.5048205934	 0.101464
