17
gdb 34730	3.60095	1.4848	1.45159	4.7981	74.37	-0.2615	0.0254	0.2869	948.6582	0.139982	-380.881516	-380.875045	-380.874101	-380.912304	26.443	
N	-0.0460159573	-1.1629940914	-0.1126001609	-0.331964
C	-0.0075815529	-0.0096666333	-0.0540295777	 0.299999
C	 0.0040464734	 1.4502121626	 0.0365832163	-0.118121
C	-0.4852428935	 2.0213568786	 1.3953219388	-0.062511
C	 0.6724810832	 1.5793172985	 2.3145396176	-0.247767
C	 1.7982915626	 2.0997820837	 1.4289568823	-0.027876
C	 1.2827395028	 3.3002049842	 0.7125319223	-0.032592
C	-0.1601314102	 3.5119277755	 1.1587761615	-0.249846
N	 1.3890500593	 1.9965581362	 0.0001466823	-0.118782
H	-0.5628361317	 1.8530088123	-0.8088177792	 0.124933
H	-1.4974787161	 1.7670151488	 1.7007780267	 0.092323
H	 0.6443660106	 2.0751307187	 3.2891354405	 0.109962
H	 0.7112950703	 0.4979104836	 2.4690431762	 0.133668
H	 2.8454424597	 1.9311419527	 1.6440921383	 0.103571
H	 1.9116216743	 4.1029321966	 0.3489254377	 0.102757
H	-0.7870669016	 3.9732930695	 0.3896453163	 0.110133
H	-0.2327925529	 4.1082684131	 2.0731316112	 0.112114
