21
gdb 118557	2.8582	0.75387	0.63957	2.1507	76.75	-0.2462	-0.0275	0.2187	1743.5198	0.178606	-461.351139	-461.339803	-461.338859	-461.389773	38.093	
C	-0.3771786242	 1.4085388254	 0.1667512834	-0.249771
O	 0.0250115821	 0.0774565511	-0.0838010951	-0.253925
C	 0.6971723912	-0.566862415	 0.9953807769	 0.090359
C	 0.1034116409	-1.9675389917	 1.1617639269	-0.199566
C	-1.3710023224	-1.9523564116	 1.571826162	-0.072827
O	-1.8989466824	-3.2578316858	 1.7467529415	-0.417063
C	 2.2184877311	-0.6412436226	 0.7197634568	-0.271748
C	 2.8522156365	 0.7170638968	 0.5229623323	 0.144295
O	 3.5607689561	 1.2602296086	 1.3332789091	-0.243633
H	 0.4737074029	 2.0731211608	 0.3765847109	 0.116832
H	-0.8814025177	 1.7643426794	-0.7352417344	 0.131927
H	-1.0780810912	 1.4710734653	 1.0118432403	 0.114394
H	 0.5383707115	 0.0058849561	 1.9217346585	 0.086966
H	 0.2107091559	-2.4998073755	 0.206725408	 0.097065
H	 0.6764151811	-2.5256532814	 1.9101881771	 0.109135
H	-1.4836221441	-1.4575633687	 2.543477339	 0.108516
H	-1.951887609	-1.3753581385	 0.8390265108	 0.102841
H	-1.9159258211	-3.6855986596	 0.8847467293	 0.281869
H	 2.718267405	-1.1356659425	 1.5576525278	 0.121683
H	 2.3649948375	-1.2336655958	-0.1921507164	 0.116978
H	 2.6150993605	 1.2075044952	-0.4469969647	 0.085673
