16
gdb 4554	3.99727	1.7185	1.22023	3.7903	68.66	-0.1848	0.0427	0.2275	976.0876	0.131097	-379.990605	-379.982449	-379.981505	-380.022981	29.349	
C	-0.0080348699	 1.4610966939	 0.02278108	-0.344546
N	-0.0339826873	 0.0181360342	-0.0010959379	-0.086085
C	-1.1590105194	-0.8076579985	 0.020545894	-0.213592
C	-0.7464808973	-2.0931781238	-0.0147300068	 0.325523
C	-1.51316966	-3.368078999	-0.0125176659	-0.496773
N	 0.6488074663	-2.0536273723	-0.0590241577	-0.41661
C	 1.1245393785	-0.7491612197	-0.0508980597	 0.456284
O	 2.2798102965	-0.3632659	-0.0802217476	-0.448611
H	 1.0410615629	 1.7611729876	-0.002999441	 0.170363
H	-0.5243563237	 1.8842747065	-0.8461280285	 0.128531
H	-0.4719741644	 1.8536443421	 0.9345281224	 0.128515
H	-2.1572475914	-0.4052964933	 0.058601657	 0.130241
H	-1.3193050023	-3.9630074984	-0.913821387	 0.132929
H	-1.2606399526	-3.9951063992	 0.8517432267	 0.132812
H	-2.5849468577	-3.1602362811	 0.0269289369	 0.138209
H	 1.2704695818	-2.8422072091	-0.0889254248	 0.262811
