12
gdb 130753	3.48488	1.81921	1.20438	3.373	60.51	-0.2954	-0.0512	0.2442	909.3867	0.081198	-468.857214	-468.851177	-468.850233	-468.887931	22.369	
O	-0.0111766672	-0.051492705	 0.0025769416	-0.333304
C	 0.0156062592	 1.1335918747	 0.0085359334	 0.548138
O	-1.0742919046	 1.9565828411	 0.0289267524	-0.255853
C	-0.7109034796	 3.3586781211	 0.0312157695	-0.20084
C	 0.78034566	 3.3075365653	 0.0091860256	 0.376601
N	 1.8375590979	 4.0767990362	-0.0022158874	-0.35786
C	 2.8506125626	 3.137331761	-0.0220701003	 0.038013
N	 2.4766102255	 1.8670801026	-0.0232788001	-0.234264
N	 1.1284372926	 2.0047333939	-0.0028595626	-0.070217
H	-1.1450505073	 3.8366321644	-0.8514333447	 0.170352
H	-1.1190438479	 3.8269703777	 0.9312844002	 0.170351
H	 3.8941852688	 3.4145532369	-0.0358483276	 0.148885
