23
gdb 96094	2.58821	1.29863	0.98506	2.0119	85.13	-0.2548	0.0763	0.3311	1292.9377	0.207178	-388.303719	-388.295057	-388.294112	-388.336613	34.668	
C	 0.0027761019	 1.5673936132	 0.0250704611	-0.402526
C	 0.0171727969	 0.0367615829	-0.017944847	 0.038385
C	 0.6969551248	-0.494180228	-1.2922003832	-0.178788
C	 0.7240135333	-2.0286582735	-1.3387447441	-0.2142
C	 1.3981416645	-2.6152293694	-0.0872923913	-0.269757
C	 0.7509959473	-2.0707503099	 1.1707136117	 0.45337
C	-0.2357345351	-2.8769474494	 1.9062191054	-0.241903
O	 1.102443512	-2.731132722	 2.3922880629	-0.298855
C	 0.6970753303	-0.5566435681	 1.2316786627	-0.269884
H	 1.0230264872	 1.9688030639	 0.0360395095	 0.11356
H	-0.5089296906	 1.9839413258	-0.8490317684	 0.109847
H	-0.5083602189	 1.9365807147	 0.9205725874	 0.110976
H	-1.0256608251	-0.3148365408	-0.0270036149	 0.069633
H	 0.1856005534	-0.0988829445	-2.177830962	 0.089907
H	 1.7270586343	-0.1105461091	-1.3316511565	 0.091029
H	-0.304614252	-2.4075110975	-1.4071195647	 0.095259
H	 1.2434861465	-2.3732364094	-2.2394586633	 0.094824
H	 1.3561429797	-3.7087191325	-0.0870684163	 0.098726
H	 2.4609713723	-2.3367314505	-0.0789211428	 0.101474
H	-1.0045484824	-2.3849401489	 2.5016318697	 0.10659
H	-0.4971389954	-3.8736384448	 1.5512130156	 0.107339
H	 1.7255438576	-0.1728122465	 1.2976424659	 0.098271
H	 0.1829021174	-0.2389473358	 2.1449478126	 0.096723
