19
gdb 61939	2.15483	1.0375	0.82824	3.5254	81.22	-0.2452	0.0269	0.2721	1442.9805	0.157532	-382.043219	-382.032991	-382.032047	-382.079445	36.534	
C	 0.2560383739	 1.0401151663	-0.7559962755	-0.397705
C	-0.1917187801	-0.2464723321	-0.058582001	 0.057687
C	 0.8169710497	-0.6055585527	 1.0560816426	-0.338937
C	 0.4828887829	-1.8542844012	 1.7379511649	 0.25755
N	 0.1876976477	-2.8403181432	 2.2642450728	-0.313743
N	-1.5103272382	-0.0836839982	 0.5595777905	-0.291831
C	-2.626914805	 0.1379038114	-0.3656857659	-0.322444
C	-2.7996143684	-0.885415014	-1.4057225667	 0.314628
C	-2.9061148954	-1.7447856251	-2.2403715466	-0.465352
H	 1.278486848	 0.9359056459	-1.1314681152	 0.118301
H	-0.3811896728	 1.2690587504	-1.6137367871	 0.130986
H	 0.2192605529	 1.8867756874	-0.0627940325	 0.127025
H	-0.183142204	-1.0652144634	-0.7970077921	 0.09343
H	 1.8210068634	-0.6977648813	 0.6297258157	 0.150149
H	 0.8412820798	 0.2016967467	 1.7966829859	 0.157373
H	-1.715865624	-0.9160373695	 1.1056917434	 0.23971
H	-3.5402852238	 0.2015265393	 0.2363223386	 0.141203
H	-2.5110983108	 1.1201022555	-0.8373703433	 0.139609
H	-3.0151408457	-2.5021447222	-2.9770065386	 0.202362
