16
gdb 74307	2.36883	1.42778	0.95969	3.8734	72.51	-0.2233	-0.028	0.1953	1200.5332	0.122902	-437.946694	-437.938002	-437.937058	-437.980549	31.258	
C	-0.1105471029	 1.4914225109	 0.0206775748	-0.498325
C	-0.099937151	 0.0016003814	 0.0144767526	 0.357761
C	-1.1126973067	-0.8744531807	 0.0235511463	-0.219986
C	-0.5552053199	-2.2674041444	 0.0013733131	-0.271532
C	-0.9896613057	-3.1729667102	-1.1473283857	 0.152773
O	-1.9282763795	-2.9569447593	-1.8651851372	-0.237209
C	 0.9761655029	-2.0487731304	-0.0318654787	 0.401035
O	 1.8453785114	-2.8872700685	-0.0855562386	-0.370205
N	 1.1370122641	-0.6807201349	-0.0056354926	-0.375621
H	 0.3911664818	 1.8955301243	-0.8668657911	 0.140487
H	-1.1366145191	 1.8631162612	 0.0328058244	 0.147628
H	 0.4110933873	 1.8894830987	 0.8993926984	 0.138652
H	-2.1624058921	-0.6282396195	 0.0144219054	 0.11967
H	-0.7686179129	-2.8414986445	 0.9173721719	 0.14358
H	-0.3528273758	-4.0763222365	-1.2553661756	 0.109119
H	 2.0434005179	-0.2438359877	-0.0484690274	 0.262173
