25
gdb 115582	2.42509	1.01299	0.94413	1.3788	88.79	-0.2592	0.0762	0.3354	1456.1059	0.227589	-389.483157	-389.472416	-389.471471	-389.518575	40.33	
C	-0.1613024295	 1.6124378285	 0.0267045055	-0.398474
C	 0.0783796721	 0.0978563192	-0.0150028948	-0.217358
C	 0.7780487902	-0.4854849724	 1.2287103913	 0.319652
C	 2.140886794	 0.1611243578	 1.4695183119	-0.463684
C	-0.1819315981	-0.5454097151	 2.4645864233	-0.260315
C	-0.4783772727	-2.0340247758	 2.1483873826	-0.227809
C	 0.7817661013	-2.0591417369	 1.2474631043	 0.02447
C	 0.7543608248	-2.8611213337	-0.0388389681	-0.113306
O	 0.7335253996	-4.237514238	 0.3238903645	-0.42486
H	 0.7763411314	 2.1753686477	 0.0127236743	 0.118641
H	-0.7480896508	 1.9327310376	-0.8399355086	 0.110654
H	-0.7129893398	 1.9080599839	 0.9254040261	 0.118018
H	-0.8876183571	-0.4036814774	-0.1511578929	 0.093235
H	 0.6732970962	-0.1418463681	-0.9065626317	 0.091097
H	 2.0521563019	 1.2303409622	 1.6881193223	 0.114668
H	 2.6467932773	-0.3058611155	 2.3209324334	 0.109079
H	 2.7943836475	 0.0550171316	 0.5945459833	 0.107476
H	 0.3625618486	-0.4230396861	 3.4056888453	 0.093906
H	-1.0298800391	 0.1451810456	 2.4691847192	 0.090763
H	-0.506389142	-2.7335827612	 2.9857320696	 0.099605
H	-1.3978643786	-2.1604617232	 1.5684511671	 0.095631
H	 1.6433535286	-2.4050688077	 1.8297983753	 0.07329
H	-0.1323983396	-2.6018565859	-0.6372800204	 0.080354
H	 1.6425121924	-2.6269302713	-0.6499915111	 0.081296
H	 0.6591937317	-4.7582726059	-0.4810912518	 0.283972
