13
gdb 20392	4.97202	2.13081	1.51998	4.143	59.09	-0.2178	0.0093	0.2271	764.7559	0.098699	-394.760115	-394.754041	-394.753097	-394.791335	22.235	
C	 0.0370551145	 1.3806364134	-0.131019162	-0.095732
C	 1.5238750275	 1.8427416523	 0.1060532769	-0.367925
C	 2.1103311498	 0.5615164215	 0.6203457685	 0.215187
C	 1.1329631071	-0.38431203	 0.6496053132	 0.465473
N	 1.7061025758	-1.5000890601	 1.1132635048	-0.336766
N	 3.0457200332	-1.2369148331	 1.3705643522	-0.14112
N	 3.26540724	 0.0119952887	 1.0656234834	-0.275637
O	-0.0968552806	-0.0464640096	 0.2467688831	-0.282903
H	-0.6768754593	 1.9311164849	 0.4845058812	 0.135659
H	-0.262772211	 1.4520939032	-1.1782098398	 0.135656
H	 1.9801184873	 2.1929498595	-0.8253278571	 0.13218
H	 1.569682024	 2.6672813744	 0.8246092288	 0.132177
H	 1.3362036618	-2.4194165252	 1.285732867	 0.28375
