17
gdb 99449	2.99931	0.71644	0.5942	3.4361	86.88	-0.2673	-0.0629	0.2044	1816.2525	0.131891	-384.633519	-384.623051	-384.622107	-384.670844	35.555	
C	-0.1199495058	 1.5532792811	-0.0393659938	-0.394651
C	-0.069734963	 0.0267281119	-0.0828770295	-0.17002
C	 0.829635509	-0.5152098551	-1.2365339697	-0.357863
C	 2.2262318567	-0.0902962302	-1.0951219802	 0.346187
C	 3.3639175975	 0.2716583844	-0.9653247352	-0.457744
C	 0.7199882239	-1.9717692378	-1.3332113011	 0.116966
C	 0.5839890985	-3.1694113546	-1.4010508697	 0.045926
C	 0.4741599645	-4.6036678638	-1.4802711047	 0.02156
O	-0.5629749567	-5.2040196618	-1.6448793885	-0.228844
H	 0.8771597338	 1.9777071932	 0.1064795904	 0.137336
H	-0.52984061	 1.9641057774	-0.968619965	 0.119215
H	-0.7569538685	 1.8897441631	 0.7834512936	 0.12229
H	 0.3092616088	-0.3738239794	 0.862344872	 0.123235
H	-1.0720468572	-0.3876149228	-0.22937613	 0.12115
H	 0.4379522251	-0.095724233	-2.1759894568	 0.147282
H	 4.373375242	 0.5845892826	-0.8589702314	 0.205914
H	 1.4409824713	-5.1366652752	-1.3757975405	 0.102062
