18
gdb 74454	3.86837	1.18032	1.05619	4.7278	82.83	-0.2386	-0.0006	0.238	1175.0355	0.148718	-364.805993	-364.798162	-364.797218	-364.838129	30.718	
C	-0.0574703757	 1.4677667801	 0.070361209	-0.516656
C	-0.0070608029	-0.0182165989	 0.0003201729	 0.347398
C	-0.0284455707	-0.8577467365	-1.038854529	-0.252145
C	 0.0545926224	-2.2493564801	-0.3757325344	 0.201169
C	-0.9641939485	-2.0557599947	 0.8097359623	-0.240736
C	 0.0879310226	-0.9688167548	 1.2119166299	-0.141456
C	 1.1699437868	-1.9789952258	 0.7029429417	-0.240716
C	 0.0551956399	-3.428098035	-1.2113491306	 0.150213
N	 0.0564710372	-4.3787833135	-1.8697259346	-0.34638
H	 0.8327282509	 1.8736553811	 0.5674437261	 0.132782
H	-0.1221866726	 1.9114190678	-0.9267772934	 0.132682
H	-0.9221366345	 1.8101001831	 0.6530077326	 0.132813
H	-0.0880810173	-0.6715807827	-2.1008942071	 0.119307
H	-1.9671464456	-1.7213224652	 0.5398312892	 0.111125
H	-0.9977234509	-2.9115485138	 1.4896483258	 0.112809
H	 0.1224013759	-0.5373229137	 2.211119984	 0.073855
H	 1.3323335085	-2.8277738631	 1.3730050311	 0.112809
H	 2.1144288245	-1.5745010044	 0.3355975843	 0.111129
