15
gdb 129899	5.06022	1.04733	0.87588	4.8274	72.99	-0.238	-0.0717	0.1663	1252.5141	0.113519	-450.135867	-450.127742	-450.126798	-450.16917	29.932	
N	-0.1904225153	 1.308400775	 0.2090545616	-0.566868
C	-0.0646042717	-0.0505546763	 0.0615111363	 0.387439
C	-1.1124457802	-0.8652993812	-0.4118046479	-0.055195
N	-0.9565217685	-2.1701579833	-0.4858793684	-0.284947
C	 0.2323002579	-2.6526053946	-0.086812178	 0.350377
C	 0.4119015066	-4.1550858937	-0.1357991133	-0.114414
O	-0.5494697723	-4.7827053796	-0.945876146	-0.423366
N	 1.2423754854	-1.9152947509	 0.3627920478	-0.224387
N	 1.0985853876	-0.5989302826	 0.4336420261	-0.253974
H	 0.6831360529	 1.7928581618	 0.3568677233	 0.267887
H	-0.8430402898	 1.7856310516	-0.3920098366	 0.261784
H	-2.0655590493	-0.4421917638	-0.7247416212	 0.123041
H	 1.412938038	-4.3803875479	-0.5201229906	 0.129842
H	 0.3793836703	-4.5373260296	 0.8994470879	 0.111443
H	-1.3035967815	-4.1787464348	-0.9859393711	 0.291339
