17
gdb 13344	5.05236	1.25769	1.15314	2.9104	66.36	-0.2637	0.0244	0.2882	1067.3615	0.143383	-401.009791	-401.001972	-401.001028	-401.043338	27.498	
N	-0.1709241249	 1.1176475902	-0.6117223277	-0.441648
C	-0.0931807129	-0.0655250192	-0.1797471128	 0.126674
O	-1.1933414512	-0.8492529976	-0.1666630145	-0.202751
C	-0.9882255068	-2.208913552	 0.2365908018	 0.210685
C	-2.3744611578	-2.879438783	 0.2875108222	-0.263642
C	-2.3450290286	-3.8777699815	-0.8944911424	-0.213423
C	-1.1189314997	-3.418857148	-1.6936440397	-0.092867
O	-0.2212343894	-2.9074270415	-0.7003475401	-0.240574
H	 0.736330656	 1.5729989136	-0.5325033326	 0.227718
H	 0.8043704817	-0.5600319357	 0.2123358667	 0.095332
H	-0.4326560008	-2.2195389943	 1.1803754864	 0.089962
H	-2.5334440515	-3.3788328808	 1.2449263455	 0.114754
H	-3.1441548165	-2.1152678518	 0.170730914	 0.13519
H	-2.1970743043	-4.8992293745	-0.5336997853	 0.112849
H	-3.2618844687	-3.8587469823	-1.4873007046	 0.112566
H	-0.5999377125	-4.2204633611	-2.2227054679	 0.113576
H	-1.3788708121	-2.6288990505	-2.4104187292	 0.115599
