22
gdb 101370	3.45969	0.95789	0.85655	1.657	81.47	-0.2291	0.0623	0.2914	1442.6771	0.193834	-404.29918	-404.289734	-404.28879	-404.333669	35.624	
C	-0.0779998996	 1.5972049669	-0.0125732124	-0.382932
C	 0.0925728181	 0.0763807027	-0.0080667882	-0.188953
C	 0.7018162339	-0.4582058507	 1.2943168683	 0.115726
O	-0.0840130915	-0.1038636169	 2.4327857625	-0.432168
C	 0.925338731	-1.9677924063	 1.2525586055	-0.008217
C	 2.0150487786	-2.6002439607	 0.3396626509	-0.196515
N	 2.6264086737	-3.3611778822	 1.489039984	-0.130511
C	 3.0975601942	-2.3269110567	 2.4259331407	-0.236035
C	 1.6556986192	-2.6374277155	 2.4159275705	-0.040655
H	 0.8924777086	 2.101522952	 0.0522119684	 0.114809
H	-0.5718623709	 1.9394503804	-0.926789646	 0.109717
H	-0.6746737463	 1.918354479	 0.8451251812	 0.128535
H	-0.8818290845	-0.411220082	-0.1621784896	 0.083885
H	 0.7235668649	-0.2363987386	-0.8498194568	 0.101223
H	 1.6616988213	 0.0452187352	 1.4662249045	 0.082363
H	-0.9488826208	-0.5173355003	 2.328942262	 0.275379
H	-0.0390413116	-2.4597379062	 1.075050457	 0.068998
H	 1.6263823164	-3.2901067892	-0.4112389429	 0.111819
H	 2.7149486515	-1.9078689196	-0.1428335044	 0.100144
H	 3.6854075765	-2.7332026176	 3.2433289936	 0.121223
H	 3.4693232691	-1.3837114617	 2.0305433866	 0.109493
H	 1.1757904384	-3.1509731218	 3.2425189047	 0.092672
