17
gdb 50004	4.04428	1.08959	1.0504	4.9111	74.72	-0.2423	0.0046	0.2469	1174.1738	0.136091	-417.945107	-417.937317	-417.936373	-417.977832	29.414	
O	 0.1413377037	 0.1950142306	-0.5400165359	-0.288278
C	 0.1016583268	 1.2975140535	-0.05111874	 0.131593
N	 1.160991075	 1.9205203308	 0.5859302802	-0.110707
C	 2.5408401896	 1.852237299	 0.1468527824	-0.320038
C	 1.7990615003	 3.1507985646	 0.1923954208	 0.382045
C	 1.4948589028	 4.0781462119	-1.0184900274	-0.314067
C	 1.7721325813	 5.2607794116	-0.0780773215	-0.035245
N	 0.777236435	 5.1496631672	 1.011242192	-0.333685
C	 2.0331323392	 4.3538229082	 1.0777380972	-0.149954
H	-0.8166493905	 1.9116329901	 0.0000520638	 0.094935
H	 3.2715611079	 1.6145875784	 0.9160733803	 0.126454
H	 2.7296189644	 1.4041193806	-0.8261318421	 0.136089
H	 2.2278662707	 3.9650045422	-1.8202736263	 0.118271
H	 0.4821566624	 4.0435904678	-1.4258237168	 0.122095
H	 2.2356461009	 6.2056526313	-0.3284120438	 0.104071
H	 0.9080160483	 5.9530395472	 1.6263703341	 0.233787
H	 2.7146582819	 4.4454521348	 1.9138705728	 0.102634
