18
gdb 81699	2.78135	1.62835	1.33524	1.7212	71.87	-0.2444	0.0305	0.2748	995.7488	0.149626	-439.073477	-439.066026	-439.065082	-439.105053	29.63	
O	 0.1774325727	 1.1874921383	 0.1978371901	-0.442092
C	 0.0485542714	-0.1938092293	-0.0667500389	 0.105387
C	-1.4519258781	-0.5746323966	-0.0986679774	-0.041512
C	-1.4433110712	-0.3410965789	-1.6355203205	-0.26085
C	 0.094281552	-0.5169222883	-1.5920996346	 0.082749
O	 0.5452484171	-1.8340209473	-1.8865441851	-0.235486
C	-0.0112673806	-2.917242316	-1.2767901979	 0.120871
N	-0.9099340353	-3.0656243278	-0.4051664425	-0.261169
C	-1.6823114465	-2.0391174548	 0.2682203896	-0.175803
H	 1.0993320547	 1.4338680826	 0.066994414	 0.285451
H	 0.7067847668	-0.8001479354	 0.5709343639	 0.075541
H	-2.0966027024	 0.0726762818	 0.501197496	 0.080799
H	-1.9996606996	-1.0385062869	-2.2657885455	 0.111109
H	-1.7093032436	 0.6838037684	-1.899541377	 0.118466
H	 0.7068837055	 0.1405038288	-2.2124620283	 0.08412
H	 0.4804363367	-3.8020742172	-1.6814014326	 0.120366
H	-1.5133004473	-2.1711444292	 1.3464661665	 0.115641
H	-2.7411276321	-2.2830623222	 0.1058735501	 0.116411
