19
gdb 119226	1.92801	1.21184	0.8642	2.6109	73.36	-0.2585	-0.0395	0.219	1386.0701	0.155784	-460.150816	-460.140642	-460.139698	-460.18669	35.809	
C	-0.0471842936	 1.5193213784	 0.0772873586	-0.427601
C	 0.1338291634	 0.0240337701	 0.0915839511	 0.031066
O	 1.4549272855	-0.4952461639	 0.0382899865	-0.287425
C	 0.694027358	-0.7360636493	 1.2435876563	 0.267089
C	 1.1764217142	-0.1143395781	 2.5325743021	-0.318809
C	 2.591172493	-0.5821549443	 2.9060127687	-0.060407
O	 3.0495899505	 0.0168562961	 4.1051690113	-0.416406
C	 0.2344231146	-2.1644254018	 1.3232647626	 0.132086
O	-0.013623537	-2.7457133378	 2.3490274667	-0.262313
H	 0.7060189229	 2.025130226	 0.68291815	 0.140342
H	 0.0392188141	 1.8890388948	-0.9495798098	 0.138261
H	-1.0421089087	 1.7869051776	 0.4477982165	 0.132803
H	-0.5679937319	-0.5170317877	-0.5488118864	 0.094777
H	 1.1723096104	 0.9762569623	 2.4798202615	 0.112625
H	 0.4765283398	-0.4152418717	 3.3210056918	 0.116903
H	 2.6203030214	-1.6798168613	 2.9659832328	 0.104091
H	 3.2925936835	-0.2756365137	 2.1245215307	 0.127031
H	 2.5257051594	-0.3384033928	 4.8303047374	 0.28453
H	 0.1429903704	-2.650256793	 0.3264296917	 0.091357
