14
gdb 76458	2.42765	1.34456	1.2582	1.7096	65.61	-0.279	-0.0704	0.2086	1045.9695	0.098605	-473.819681	-473.811109	-473.810165	-473.852638	31.383	
O	 0.2173385425	 1.2698593744	-0.2203718826	-0.402365
C	 0.101795424	-0.0618933638	 0.0407534395	 0.075376
C	-0.4791127132	-0.6237414522	 1.2669571574	 0.075417
O	-0.9753203324	 0.1162112052	 2.297172341	-0.402412
C	-1.3389763608	-0.779024589	-0.09103301	-0.088003
C	-2.4616044574	 0.1419589808	-0.2018248115	 0.122402
O	-2.4542125643	 1.2580829658	 0.3124659316	-0.352443
C	-1.4237579582	-2.0581597402	-0.717125645	 0.215117
N	-1.4674651771	-3.1023674329	-1.2161740258	-0.326989
H	-0.5866729309	 1.7237697875	 0.083811213	 0.312117
H	 0.8792225249	-0.6376138325	-0.4510685752	 0.160314
H	-0.095433532	-1.5803920709	 1.6065853364	 0.160331
H	-1.4645421194	 0.8747526613	 1.9362043971	 0.312128
H	-3.3371978958	-0.2061926434	-0.7753320361	 0.139009
