16
gdb 8818	3.00552	1.46804	1.08017	2.9324	66.76	-0.2604	-0.034	0.2264	1099.6258	0.12667	-383.722307	-383.71307	-383.712126	-383.757124	32.428	
C	-0.0788492304	 1.5143685237	 0.0034296665	-0.379051
C	-0.0299370677	-0.0055722063	 0.1447474755	-0.288405
C	 0.7905736488	-0.4773582338	 1.3210580974	 0.363617
O	 1.363249844	 0.2658662708	 2.0847604727	-0.3144
C	 0.9286166462	-2.0070293571	 1.561369965	-0.108742
O	 1.8182399017	-2.241171224	 2.6176692648	-0.41467
C	-0.3960770775	-2.5926492277	 1.8003440682	 0.327829
C	-1.4836682162	-3.0637577424	 1.9995964003	-0.478378
H	 0.9244786365	 1.9297859631	-0.1197364706	 0.134479
H	-0.6799837454	 1.7977008532	-0.8644332284	 0.117738
H	-0.5168970996	 1.9750957582	 0.8923132263	 0.136728
H	-1.0330358682	-0.4363700031	 0.2507690563	 0.150477
H	 0.3868228074	-0.4783372113	-0.7558146503	 0.131102
H	 1.337971385	-2.4413770043	 0.6340563216	 0.118734
H	 1.9923855493	-1.3608583038	 2.9930593614	 0.296872
H	-2.4384429039	-3.4927082253	 2.1810512533	 0.206071
