18
gdb 10689	2.33095	1.93568	1.50123	1.3206	73.95	-0.25	0.0421	0.2921	957.6639	0.151173	-347.760302	-347.751349	-347.750405	-347.793329	33.751	
C	 0.2458808646	 1.4193398377	 0.3311977414	-0.404788
C	-0.0795341336	-0.0309648109	-0.030569088	 0.064422
O	-1.4751964858	-0.2274105341	-0.1980846762	-0.433593
C	 0.6948811005	-0.5171727741	-1.2613734284	 0.161666
C	 2.1170242838	-1.0184539365	-1.0657915644	-0.299659
C	 1.0183823873	-1.9986717437	-1.3568433585	-0.302311
C	 0.3640075221	 0.1777280051	-2.4771548893	 0.258482
C	 0.0337971441	 0.7753426579	-3.4692903694	-0.464285
H	 1.3087639282	 1.539716402	 0.5642322609	 0.114225
H	 0.0058700193	 2.0869441845	-0.5030485905	 0.123045
H	-0.3418615519	 1.7245899072	 1.2007021731	 0.121947
H	 0.1982077389	-0.6820553496	 0.8071070055	 0.08192
H	-1.7340558016	 0.2469638137	-0.9978318396	 0.282219
H	 2.837191787	-0.8018794036	-1.8455946552	 0.126882
H	 2.5147340204	-0.9732998009	-0.0571578181	 0.119823
H	 0.6535894078	-2.6270902095	-0.551877638	 0.12688
H	 0.9860063388	-2.4545995969	-2.3389956996	 0.12758
H	-0.2334660298	 1.2957826617	-4.3554867457	 0.195545
