18
gdb 27530	5.01634	0.98757	0.86359	1.2606	80.89	-0.1953	0.0273	0.2227	1353.3454	0.147827	-401.947608	-401.939259	-401.938315	-401.981064	31.062	
C	-0.0165744711	 1.4891198843	-0.1871169089	-0.488404
C	-0.0833708194	 0.0110653044	-0.0413055645	 0.392637
C	-1.0644423057	-0.9037084242	-0.2666354064	-0.38129
C	-0.5086618274	-2.1896388039	 0.058662014	 0.260862
C	 0.7729897009	-1.9535091008	 0.4569894913	-0.113031
O	 1.0408255019	-0.6122992816	 0.4052066184	-0.186926
N	-1.2074450518	-3.4069818364	 0.0440503792	-0.149516
C	-1.568838269	-3.9982217402	-1.2442462132	-0.225429
C	-0.5121200672	-4.6108879864	-0.3900462156	-0.227867
H	 0.7559608122	 1.7882113564	-0.9048569148	 0.136706
H	-0.9770857287	 1.8717158638	-0.5389466778	 0.134239
H	 0.2182613823	 1.9754642717	 0.766466805	 0.13848
H	-2.0653789975	-0.7038895725	-0.6159316012	 0.105393
H	 1.5663570772	-2.5842240312	 0.8191351219	 0.125624
H	-2.560727207	-4.437366568	-1.2935705964	 0.119781
H	-1.241795178	-3.4837744118	-2.1448705371	 0.120788
H	 0.5164791791	-4.5047855762	-0.7283214308	 0.117675
H	-0.7199569605	-5.5075405175	 0.1860854669	 0.120279
