23
gdb 63057	3.03708	1.61527	1.38222	0.0845	88.6	-0.2662	0.0889	0.3551	1060.1399	0.207891	-351.129518	-351.1217	-351.120756	-351.161053	33.134	
C	-0.151131163	 1.593868389	 0.0070573817	-0.467324
C	-0.0075767689	 0.0702581943	 0.0063641738	 0.347184
C	-1.3959292709	-0.5569899335	-0.1785675369	-0.449109
C	 1.0786783992	-0.6232936848	-0.8965344509	-0.073826
C	 2.3659114904	 0.1389400425	-0.5388225068	-0.223974
C	 2.355146681	-0.2866609188	 0.951124463	-0.051465
C	 2.5870337491	-1.8121525061	 0.8016939032	-0.245539
C	 1.1785125495	-1.7894301011	 0.1922174249	-0.03398
C	 0.7994506684	-0.6035450845	 1.1352395835	-0.049833
H	 0.760756851	 2.1126791146	 0.309938456	 0.114455
H	-0.4382695761	 1.9657036417	-0.984114627	 0.110055
H	-0.9395202272	 1.8949394412	 0.7066503553	 0.108858
H	-1.851738089	-0.202780302	-1.1106294034	 0.108936
H	-1.3680438108	-1.6484036547	-0.2187765305	 0.11338
H	-2.0650942663	-0.2715347588	 0.6413069507	 0.108431
H	 0.8746932186	-0.8346583045	-1.9474761822	 0.050929
H	 3.2526115187	-0.2384205833	-1.0572149518	 0.088132
H	 2.3021154232	 1.2121416261	-0.7218227433	 0.091671
H	 2.9145510171	 0.3133324076	 1.668447223	 0.057072
H	 3.4442019429	-2.1442047542	 0.2059295945	 0.084478
H	 2.5783782111	-2.3387746742	 1.761010121	 0.092081
H	 0.5737653219	-2.6827786744	 0.0542381385	 0.065577
H	 0.4300758803	-0.7394664622	 2.1530960637	 0.053812
