19
gdb 121507	10.12284	0.44155	0.4389	5.6708	83.44	-0.2644	0.0047	0.2691	2444.7427	0.157195	-419.223438	-419.21294	-419.211996	-419.261128	35.176	
C	 0.0175855394	 1.5362479592	 0.0876874515	-0.385258
C	-0.0358414614	 0.0206082945	 0.0847950391	-0.057494
O	 0.738996324	-0.4473409717	 1.197771816	-0.200184
C	 0.8158562406	-1.7767458822	 1.3469280845	 0.130303
N	 1.47591237	-2.2823754969	 2.2950830345	-0.217719
C	 1.5079412258	-3.7251244888	 2.3844248104	-0.15492
C	 2.9781250784	-4.1983217219	 2.3861411947	-0.31877
C	 3.0953306734	-5.6453622588	 2.5399176289	 0.250791
N	 3.165305816	-6.792790565	 2.6583650186	-0.306196
H	 1.0490358432	 1.8849867613	-0.0094204084	 0.138359
H	-0.565118362	 1.932140083	-0.7489289575	 0.124831
H	-0.3945050655	 1.9336326299	 1.0189242884	 0.139213
H	-1.0697754575	-0.3360585483	 0.1816954848	 0.113755
H	 0.378208755	-0.385335028	-0.847669722	 0.112515
H	 0.2640541012	-2.3597406998	 0.592113522	 0.080913
H	 1.0444497296	-4.0365076956	 3.3278102396	 0.130365
H	 0.9624193855	-4.2290713467	 1.5696386691	 0.102485
H	 3.464445579	-3.8975747238	 1.4519161558	 0.151045
H	 3.5146749351	-3.6988416702	 3.1990389497	 0.165965
