17
gdb 85775	2.67932	1.25112	1.03038	5.3697	70.45	-0.2374	-0.0343	0.2031	1195.7608	0.134907	-455.176158	-455.166937	-455.165993	-455.210889	33.289	
C	-0.9301628249	 1.1926737251	-0.5309995161	-0.390519
C	-0.0883953572	-0.0470121796	-0.273273642	-0.064025
N	 1.183446295	-0.1575849254	-1.0536992216	-0.355547
C	 2.0095831346	-0.4402835435	 0.1506043128	-0.194797
C	 3.2493326176	 0.4323767237	 0.3657522178	 0.393838
N	 3.3162524163	 1.4878636162	-0.4837537348	-0.520635
O	 4.0452482985	 0.1863632391	 1.2480997625	-0.359363
C	 0.7644199057	-0.0910064806	 1.0082643608	 0.378549
O	 0.556090176	 0.1007957349	 2.1641344242	-0.269456
H	-0.316700363	 2.0951819287	-0.4625068765	 0.12802
H	-1.3818387502	 1.15669867	-1.527066461	 0.124269
H	-1.7326728964	 1.2598892764	 0.2096817217	 0.138857
H	-0.7101138487	-0.9528182397	-0.3324969603	 0.105323
H	 1.186581853	-0.9031738629	-1.7400534629	 0.231569
H	 2.3096496428	-1.4842482703	 0.2986527773	 0.125778
H	 2.6433093216	 1.5518606521	-1.231266585	 0.265618
H	 4.1133262194	 2.0999214059	-0.4428064768	 0.26252
