17
gdb 13973	5.81898	1.07491	1.0003	1.4647	80.04	-0.2287	0.04	0.2687	1221.5672	0.141972	-326.663266	-326.655108	-326.654164	-326.697601	29.264	
C	-0.0045930804	 1.4882755156	 0.0505996112	-0.507746
C	-0.0246609353	 0.0340913091	 0.0097896581	 0.214612
C	-0.0480816141	-1.1707686788	-0.00971761	-0.089704
C	-0.0440603617	-2.5945724542	-0.0813031481	 0.15677
C	 0.7578502732	-3.4404851527	-1.0960626563	-0.297041
C	-0.4102008499	-4.4795038251	-1.1232575067	-0.238622
C	-1.1670251164	-3.6177750625	-0.1059772136	-0.091597
N	-0.3856032367	-3.3979497858	 1.0991433851	-0.347134
H	 0.8987689744	 1.8862916656	-0.4250895945	 0.147618
H	-0.868713838	 1.9163311594	-0.4700995502	 0.147377
H	-0.0239095187	 1.8555074103	 1.0827294351	 0.151436
H	 0.8880055246	-2.9368917884	-2.0556333491	 0.117537
H	 1.7354762161	-3.7839430435	-0.7422226386	 0.098032
H	-0.8973347958	-4.5265833269	-2.0998055659	 0.111602
H	-0.1836391903	-5.4998271394	-0.7958551639	 0.099706
H	-2.2383732932	-3.4622068449	-0.0504182891	 0.103173
H	 0.2946816822	-4.1381725277	 1.2694659366	 0.223982
