18
gdb 12880	2.58764	2.37176	1.79702	1.8781	66.9	-0.2334	0.0774	0.3108	838.0361	0.154254	-384.92912	-384.921582	-384.920638	-384.960478	29.321	
C	-0.0595512456	 1.5062876934	-0.0297103321	-0.47062
C	 0.0690190079	 0.0132382889	 0.0701148167	 0.364547
O	-1.0879521596	-0.7143426573	-0.3171726658	-0.311831
C	-1.4845260016	-1.5506873508	 0.7833734819	-0.084537
C	-0.187540721	-1.9246341127	 1.5261583533	-0.24944
C	 0.7397393666	-0.7619058461	 1.1833071227	-0.167007
C	 1.3222728559	-0.7668183827	-0.2295994013	 0.069226
O	 1.2370210728	-1.9029941335	-1.0266571147	-0.430571
H	 0.8830192201	 1.9885804595	 0.2462397605	 0.119345
H	-0.3086811043	 1.8088473985	-1.0522187815	 0.129323
H	-0.8436823912	 1.8804657117	 0.6375221716	 0.120412
H	-2.1666719649	-0.9913460599	 1.4396169633	 0.100505
H	-2.0256451642	-2.4054231327	 0.3684394586	 0.109256
H	-0.3476987955	-2.0147447393	 2.6030749228	 0.10418
H	 0.220250323	-2.870886475	 1.1575096078	 0.121761
H	 1.2847141203	-0.2547025453	 1.9713839512	 0.088939
H	 2.2479601057	-0.217792052	-0.3825420681	 0.094349
H	 0.3246355654	-1.9229835845	-1.350767787	 0.29216
