15
gdb 49612	2.32636	1.87047	1.18025	3.2891	64.6	-0.2647	-0.0394	0.2253	1000.9135	0.112298	-457.794816	-457.787388	-457.786443	-457.82724	27.591	
O	-0.5139720415	 0.5407485087	-0.6130959813	-0.230429
C	 0.2364363187	 0.8972882876	 0.2542036218	 0.152765
C	 1.2858197737	 1.9912369693	 0.0776760847	-0.282087
C	 1.2227451053	 2.8259365731	-1.1763093597	-0.060398
C	-0.0107351398	 3.6859227114	-1.374645529	-0.308462
C	 1.1959111171	 4.2529580764	-0.6949752494	 0.079781
O	 1.1629695378	 4.2711606011	 0.7240376828	-0.211832
C	 1.1897023505	 3.009737652	 1.2319418839	 0.42232
O	 1.1166145487	 2.771623291	 2.4007138861	-0.329378
H	 0.2290896111	 0.4500448594	 1.2696453954	 0.11561
H	 2.2597042093	 1.4937293371	 0.1912356016	 0.142153
H	 1.8033701099	 2.5312205905	-2.0400503295	 0.113797
H	-0.2163271685	 4.0147989755	-2.3868383873	 0.132544
H	-0.8918853893	 3.4920394713	-0.7729976645	 0.140641
H	 1.7894891972	 5.0606805055	-1.1013731056	 0.122974
