20
gdb 22304	2.441	1.27659	0.88804	0.6981	85.36	-0.2345	0.0158	0.2502	1330.8693	0.170967	-403.138825	-403.129867	-403.128923	-403.17247	34.283	
C	 0.0856972619	 1.5359150936	 0.0520963815	-0.470466
C	-0.0056929802	 0.0380571279	-0.0554357131	 0.307452
C	 0.0304010174	-0.6011019035	-1.2272215982	-0.147568
C	-0.0427694424	-2.098029577	-1.3775177416	-0.255798
C	 0.3758751609	-2.8150845731	-0.0826488624	-0.282932
C	-0.2870528205	-2.188963066	 1.1120962436	 0.377062
C	-0.1780229689	-0.6927289661	 1.2590994817	-0.380083
N	-0.8982907662	-2.9674230571	 1.9193229628	-0.203221
O	-1.4534385017	-2.2712104233	 3.0106921258	-0.399039
H	 0.9384107618	 1.8366171622	 0.6750582915	 0.121216
H	 0.1992210773	 2.0048744569	-0.9287485608	 0.119578
H	-0.8089290516	 1.9553436919	 0.5304877499	 0.123496
H	 0.11564141	-0.018653416	-2.1422760949	 0.076936
H	-1.0621238376	-2.399964461	-1.6589327021	 0.115835
H	 0.6019021516	-2.4239908716	-2.2022060595	 0.10331
H	 0.1451492777	-3.8822905985	-0.1126051812	 0.114404
H	 1.4641330655	-2.7111008241	 0.0310967384	 0.110761
H	 0.6607663769	-0.4534779495	 1.9324332472	 0.124921
H	-1.0659824565	-0.3209896198	 1.7833957947	 0.139456
H	-1.9033691054	-2.9764574959	 3.4869506867	 0.304679
