21
gdb 94841	3.53319	1.15668	1.01528	0.2952	78.62	-0.2401	0.0695	0.3096	1236.6084	0.183569	-424.220444	-424.212066	-424.211121	-424.252965	33.681	
O	-0.0791726976	 1.4355353383	-0.1057971869	-0.431194
C	 0.0060399443	 0.0210571288	-0.0085912118	 0.112827
C	-1.4137480529	-0.5321107195	 0.0815221945	-0.209755
C	-1.3874469632	-2.0685692854	 0.0251990116	-0.278227
C	-0.5731069331	-2.5356882409	-1.1639884567	 0.463753
C	-0.6673423046	-3.9296610269	-1.6876153262	-0.33731
C	-1.2278954766	-2.7782843064	-2.5047842757	-0.321504
O	 0.7266140244	-1.9962043467	-1.1847185344	-0.289851
C	 0.7128556578	-0.5767376173	-1.2335351376	-0.117291
H	 0.8135658123	 1.7940210004	-0.0708471895	 0.282906
H	 0.565421778	-0.278370876	 0.8928774683	 0.068947
H	-1.8968955774	-0.1760795704	 0.9966255797	 0.100759
H	-1.9869801348	-0.1337897572	-0.7649504018	 0.107045
H	-0.9334609807	-2.466783151	 0.942007236	 0.103002
H	-2.4046133504	-2.4689726227	-0.0314624396	 0.097487
H	 0.2555642695	-4.3801753208	-2.0343379857	 0.123548
H	-1.3592069806	-4.6146092724	-1.2091823137	 0.111055
H	-2.3047389464	-2.6766242895	-2.5890654506	 0.110373
H	-0.6709798652	-2.4838870155	-3.3871317129	 0.117629
H	 0.2068829716	-0.2165636318	-2.1432560986	 0.094992
H	 1.7613221658	-0.2613018672	-1.2751501584	 0.090809
