21
gdb 63740	3.28925	1.13058	1.10934	1.9537	85.19	-0.2403	0.0103	0.2506	1236.0269	0.181538	-387.090861	-387.081982	-387.081038	-387.124408	34.832	
C	 0.1430422535	 1.5301887549	-0.0637819473	-0.4272
C	-0.0508009525	 0.0057089463	 0.0058098498	 0.255901
C	-1.5539726485	-0.3196791193	 0.1268896479	-0.418222
C	 0.589850468	-0.7260956092	-1.2164998047	-0.361895
C	 1.4342267568	-1.8614398998	-0.6315538741	 0.431977
C	 1.5767042598	-3.1967188874	-1.2352584259	-0.250582
O	 2.6348931398	-2.2423061018	-1.3239688689	-0.283248
C	 1.5020556849	-1.6084866358	 0.8307336091	-0.167114
C	 0.708030146	-0.5971338991	 1.1766107716	-0.093845
H	 1.2043899381	 1.7897320192	-0.1265570285	 0.118616
H	-0.3615372263	 1.9480673914	-0.9421154968	 0.113566
H	-0.2727255108	 2.0216680514	 0.8230976182	 0.109952
H	-2.1112160133	 0.1008042783	-0.7178396344	 0.112604
H	-1.7227136932	-1.4009728986	 0.1436510973	 0.115096
H	-1.9762910827	 0.0995639253	 1.0468450458	 0.110867
H	-0.1629902677	-1.0837425694	-1.9240405215	 0.10023
H	 1.2581348237	-0.0535219102	-1.7630892943	 0.117325
H	 1.7771677646	-4.0637256936	-0.6052469501	 0.108525
H	 1.0616457097	-3.4168681032	-2.1706465632	 0.109669
H	 2.1228921155	-2.2020582636	 1.4915418292	 0.10285
H	 0.5656380845	-0.2290844256	 2.1881446408	 0.09493
