17
gdb 65733	3.66683	1.10452	1.00614	2.0678	67.93	-0.2484	-0.0259	0.2225	1182.5545	0.133518	-458.926686	-458.918175	-458.917231	-458.960951	31.397	
O	-0.0131501372	 1.3760193699	-0.0763398435	-0.485357
C	 0.0178480993	-0.0260140629	-0.0066664045	 0.396525
C	 0.9470416512	-0.5331912428	-1.1100742637	-0.332107
C	 2.3701759973	-0.0662992928	-0.8747717682	 0.15911
O	 3.2570503971	-0.7900125142	-0.4970600635	-0.2441
C	 0.2905332265	-0.6633272532	 1.422223974	-0.328085
C	-1.1195148391	-1.2476036468	 1.3680139928	 0.038128
O	-2.0231994291	-0.1408095581	 1.1785410412	-0.264312
C	-1.3747682276	-0.6997268692	 0.0278671519	-0.043778
H	-0.7031859292	 1.6563020348	 0.5396882874	 0.29094
H	 0.9377162478	-1.625983267	-1.1406480835	 0.121299
H	 0.5872015605	-0.1351543592	-2.0666994302	 0.122418
H	 2.5434302052	 1.0155314949	-1.0518043356	 0.101076
H	 1.0853906607	-1.4120946844	 1.398565286	 0.132208
H	 0.4763549784	 0.0486004864	 2.2295776336	 0.114089
H	-1.5237220665	-2.1316632399	 1.8450945526	 0.114713
H	-2.0041348653	-1.0351352253	-0.789408497	 0.107231
