14
gdb 27455	2.58767	1.67633	1.06888	2.1197	78.5	-0.2307	-0.0891	0.1416	1053.0992	0.102639	-432.879765	-432.872519	-432.871574	-432.911608	27.571	
O	 0.0321196193	 1.2909468578	-0.3271530194	-0.398579
C	-0.0279381812	-0.0322533881	-0.0647757912	 0.415065
C	-1.2582817093	-0.6193788003	-0.032825962	-0.190883
C	-1.5205468687	-2.0327751881	 0.1432204111	 0.237578
N	-2.6521053213	-2.4584579929	 0.5782809458	-0.506541
C	-0.4809485443	-2.9458581182	-0.407791059	-0.029619
N	 0.7937828392	-2.8797351631	-0.3022104235	-0.209524
C	 1.480716882	-1.8240806626	 0.2405765449	 0.085317
N	 1.1941033974	-0.5667262321	 0.2572621731	-0.324173
H	 0.9521761179	 1.5529235777	-0.1876697206	 0.302178
H	-2.1253377785	 0.0236093135	-0.1378275871	 0.130719
H	-2.6958677802	-3.4799456586	 0.5291309682	 0.213486
H	-0.8770210952	-3.8022729718	-0.9630437041	 0.138386
H	 2.4678717831	-2.0972193531	 0.6102798938	 0.136589
