22
gdb 40716	4.64909	0.90405	0.89427	1.0224	87.39	-0.2222	0.0882	0.3105	1416.7063	0.19454	-367.150836	-367.142252	-367.141308	-367.184423	33.715	
C	-0.2489726542	 1.0400721638	-0.4776044563	-0.229153
C	 1.1194882047	 1.0510077647	 0.113508862	-0.219126
N	 0.3077316133	-0.1577052216	 0.1347954808	-0.078865
C	-0.2021991108	-0.6294986539	 1.4074343017	 0.074566
C	-0.7770607344	 0.3052040631	 2.531990941	-0.343126
C	-1.881849024	-0.7416390332	 2.7297313125	 0.389279
C	-2.148950143	-1.4861986952	 4.005715533	-0.314821
C	-3.2094559249	-0.588053647	 3.4038342471	-0.33363
C	-1.555116812	-1.3874481124	 1.3778928366	-0.316615
H	-1.0209926476	 1.5986100915	 0.0471383131	 0.111213
H	-0.3839634333	 0.9905672203	-1.5546807361	 0.114732
H	 2.0010058425	 1.023585892	-0.5214737027	 0.114324
H	 1.2455013221	 1.6010656367	 1.0449205531	 0.112105
H	 0.5765579671	-1.2654493545	 1.8401922036	 0.084914
H	-0.1232413145	 0.5182153222	 3.3821199848	 0.096206
H	-1.1725656935	 1.2515458895	 2.1485833437	 0.100148
H	-2.299512973	-2.5600844294	 3.9519099038	 0.110125
H	-1.6515348445	-1.1511803437	 4.9108120598	 0.108758
H	-3.4259715743	 0.3510553491	 3.903835275	 0.108114
H	-4.0748465313	-1.0563066991	 2.9449325951	 0.1098
H	-2.1974096809	-1.0127674006	 0.5732578888	 0.101395
H	-1.5183510834	-2.4784489022	 1.3226322895	 0.099657
