22
gdb 58497	2.29031	1.15273	0.983	3.2561	83.67	-0.2447	-0.0265	0.2182	1344.5643	0.191481	-404.344861	-404.334408	-404.333464	-404.380289	38.455	
C	 0.4122111562	 0.261855904	-2.6325990959	-0.407128
C	 0.2654055304	-0.453180714	-1.2807932853	 0.00002
C	 0.8464732605	 0.3802177159	-0.1295974493	-0.404643
C	-1.1869585341	-0.8646928123	-1.0210076388	 0.330863
C	-2.2167644925	 0.2504981921	-0.9651182354	-0.477187
N	-1.5801646368	-2.1228321423	-1.6514405879	-0.37316
C	-1.4926099262	-2.0791543803	-0.1737696869	-0.171752
C	-0.4448932668	-2.9318906007	 0.4523634396	 0.164995
O	-0.4560658429	-3.2484240205	 1.6169084777	-0.265558
H	 1.4695316845	 0.4232309739	-2.8646418093	 0.115535
H	-0.0229713711	-0.3361607432	-3.4391589865	 0.125197
H	-0.073730315	 1.2433924471	-2.6308566007	 0.113951
H	 0.8399688589	-1.3824329368	-1.3507335048	 0.083048
H	 0.3507588304	 1.3532206421	-0.0443202462	 0.115542
H	 0.7443282958	-0.1341893477	 0.8314428917	 0.126674
H	 1.9110651719	 0.5716726244	-0.2963404627	 0.117517
H	-2.2855653481	 0.7680590713	-1.9274439017	 0.130957
H	-3.208173725	-0.1469814837	-0.7265761794	 0.117602
H	-1.9662836167	 0.9949551069	-0.203564772	 0.13508
H	-2.5562587955	-2.1040912617	-1.937598887	 0.234849
H	-2.407523221	-2.0290192477	 0.4125093434	 0.099205
H	 0.354389753	-3.272476237	-0.2400512727	 0.088392
