15
gdb 108747	2.53918	1.35337	0.88767	0.8731	73.56	-0.2641	-0.0719	0.1922	1225.0718	0.113157	-453.996478	-453.988082	-453.987137	-454.029943	30.351	
O	-0.0033750829	 1.4201358807	 0.0080885626	-0.41716
C	-0.0194994278	 0.007424316	 0.0022880682	-0.171019
C	-1.4317697795	-0.4594467966	 0.011964453	 0.175475
C	-2.5731799621	 0.2401577897	 0.0235326759	-0.246059
C	-3.7209625942	-0.6930046351	 0.0298126968	 0.401565
N	-4.9443199767	-0.3426605893	 0.0411057275	-0.521607
N	-3.1573849523	-1.9743858647	 0.0211936383	-0.414136
C	-1.7669488181	-1.921407766	 0.0092616175	 0.379926
O	-1.0102378172	-2.8649023842	 0.0008699423	-0.357552
H	 0.9129160699	 1.7106508405	 0.0019436967	 0.296337
H	 0.485766075	-0.4115262729	-0.8839367643	 0.121876
H	 0.5003383195	-0.4189966499	 0.8764251665	 0.121912
H	-2.6982685283	 1.3118566858	 0.0283264664	 0.150112
H	-5.5698077186	-1.1509992366	 0.0436779091	 0.21851
H	-3.6720101967	-2.8395966575	 0.0231077634	 0.261818
