14
gdb 11387	4.56923	1.5563	1.23156	3.9421	60.23	-0.2728	-0.0534	0.2194	944.5938	0.107045	-419.713954	-419.70676	-419.705815	-419.745814	25.668	
C	-0.0306553694	 1.3821188411	-0.1112710598	-0.244067
O	-0.0119176801	-0.0357444676	 0.0057118609	-0.229741
C	-1.2679236881	-0.6144303289	 0.0056372511	 0.174182
O	-1.9187725678	-0.4880293884	-1.2677515091	-0.24056
C	-2.1767919053	-1.7337668381	-1.7897968873	 0.428789
O	-2.7155386204	-1.8951889513	-2.8452440421	-0.334541
C	-1.6818079751	-2.7391666442	-0.8103833099	-0.22073
C	-1.150888291	-2.1014024589	 0.2264301425	-0.101031
H	 1.004713844	 1.7159952237	-0.0273057513	 0.137438
H	-0.4404429454	 1.695055429	-1.0773851689	 0.142643
H	-0.6243207366	 1.83635581	 0.6951554812	 0.113752
H	-1.9261148237	-0.1213951734	 0.7403948229	 0.092697
H	-1.7642769949	-3.8006106054	-0.991570804	 0.141609
H	-0.6792359264	-2.5125904477	 1.108288854	 0.139561
