21
gdb 90299	2.85757	1.61791	1.3142	0.4887	87.91	-0.2169	0.0208	0.2377	1058.7806	0.184611	-349.924113	-349.916488	-349.915543	-349.955791	31.552	
C	-0.2288147642	 1.5260909077	-0.2444108825	-0.395231
C	-0.0266722251	 0.0269466634	-0.0724973069	-0.011367
C	 1.1607975717	-0.5759412158	-0.92639439	-0.339089
C	 1.9419156568	-0.6035649727	 0.3681073853	 0.29623
C	 3.061393519	-0.1846730513	 0.9606704763	-0.25502
C	 2.7524070421	 0.2470011394	 2.3664671686	-0.058629
C	 1.9567201016	 1.5320225766	 2.4399484682	-0.284762
C	 1.2128912222	 0.2188574934	 2.4870141857	-0.080324
C	 0.7196261918	-0.4915381081	 1.2370757292	-0.046976
H	 0.7205804714	 2.0688818652	-0.2343832365	 0.121153
H	-0.7147365534	 1.7357579877	-1.2037139423	 0.111821
H	-0.8601986183	 1.9380686873	 0.5493073491	 0.118441
H	-0.9773663631	-0.4903026435	-0.2303511684	 0.070725
H	 0.9178864345	-1.5690557597	-1.3181915493	 0.106256
H	 1.5513497748	 0.0392780347	-1.7417939162	 0.10572
H	 4.023517328	-0.0087346808	 0.4923054674	 0.089137
H	 3.3996433513	-0.0169180938	 3.1966488624	 0.082386
H	 1.9871992619	 2.0834944457	 3.374700045	 0.106316
H	 1.9166742191	 2.1583805965	 1.5575366892	 0.110804
H	 0.763582221	-0.0417627726	 3.4382280006	 0.080141
H	 0.286030037	-1.4624086092	 1.508870155	 0.072266
