15
gdb 130276	5.78995	0.95441	0.82038	5.2939	75.01	-0.2116	-0.0041	0.2075	1328.7349	0.11398	-450.115653	-450.107344	-450.1064	-450.149415	30.459	
N	 0.0910497579	 1.4691525403	 0.1335004295	-0.592705
C	 0.0522494049	 0.086243663	 0.0481877472	 0.438517
N	-1.0982565113	-0.5538573541	 0.0570855688	-0.231173
O	-0.7528264062	-1.9280482851	 0.0490825532	-0.194591
C	 0.5731400389	-2.0294233167	 0.0167035661	 0.597787
N	 1.1636195565	-3.2746717876	 0.0065631395	-0.406108
C	 0.5879787123	-4.5349274312	-0.0375177137	 0.075566
N	-0.6606664083	-4.7481429716	-0.0835734797	-0.415998
C	 1.1666899178	-0.7974150901	 0.0126122714	-0.473588
H	 0.814321855	 1.8951541364	-0.4284812306	 0.251449
H	-0.81153903	 1.8895532018	-0.0469114416	 0.259278
H	 2.1694618962	-3.2528044234	 0.0242815325	 0.264183
H	 1.3719543017	-5.3023047148	-0.0264465606	 0.094252
H	-0.8418271147	-5.7492947801	-0.1080147134	 0.22992
H	 2.2168409593	-0.5586061668	 0.0088824014	 0.10321
