25
gdb 104407	1.95679	1.43856	1.1575	1.3074	87.52	-0.2559	0.07	0.3259	1274.1245	0.228767	-389.516232	-389.505881	-389.504936	-389.551125	39.656	
C	 0.2748915804	 1.5858039342	 0.2285772483	-0.414274
C	 0.4667421029	 0.0665315978	 0.1408768953	-0.199057
C	 0.6490820043	-0.4827640933	-1.2906680445	 0.376458
O	-0.4733816129	-0.1319766506	-2.1002298452	-0.493609
C	 1.9956361831	-0.0578937347	-1.9230397992	-0.265708
C	 3.0413343161	-1.0649198545	-1.3894586548	-0.214341
C	 2.2271889743	-2.3108379478	-0.9324598512	-0.224523
C	 0.7672651767	-2.0274662591	-1.3364808921	 0.045993
C	-0.2869086989	-2.8171366616	-0.5641564608	-0.429385
H	 1.1230690085	 2.1400784242	-0.186180502	 0.119492
H	-0.6310822007	 1.9066639704	-0.2978355325	 0.111952
H	 0.1608357642	 1.898039711	 1.2709477627	 0.118413
H	 1.33117139	-0.2230680798	 0.7506599922	 0.095079
H	-0.4074612398	-0.4181238704	 0.5868147718	 0.104266
H	-0.5150039807	 0.8274262362	-2.1581833829	 0.2752
H	 1.8848093252	-0.1538912742	-3.0081806872	 0.101826
H	 2.2661915753	 0.982099424	-1.7174327699	 0.084778
H	 3.7766037837	-1.3148371108	-2.1589706149	 0.099243
H	 3.6041411585	-0.6421228287	-0.5518230293	 0.097628
H	 2.5950194845	-3.2385328826	-1.3799902707	 0.095256
H	 2.2994967448	-2.44284758	 0.1532317611	 0.094284
H	 0.6511604783	-2.2705202941	-2.4010223388	 0.077395
H	-0.178291597	-2.6968996807	 0.518967468	 0.109724
H	-1.2943090638	-2.4957499779	-0.8460743001	 0.12699
H	-0.2026221972	-3.8871816069	-0.7815828934	 0.10692
