16
gdb 37855	2.72761	2.62265	2.01058	2.9233	64.92	-0.2256	0.035	0.2606	749.1727	0.129032	-437.825569	-437.820488	-437.819544	-437.854749	23.017	
N	-0.0776817684	 1.5283837963	-0.0508418255	-0.299966
C	 1.3364828353	 1.8086481437	 0.0147742629	-0.05408
C	 2.0986296127	 0.8308359812	 0.9901609998	 0.040459
O	 3.0937177951	 0.5993379772	-0.0308736807	-0.26116
C	 2.0538676386	 0.8675073994	-0.9946380389	 0.064351
C	 1.0749796175	-0.383873541	-0.9919340562	 0.064351
O	 1.587643261	-1.3259831209	-0.0267135691	-0.26116
C	 1.1255127547	-0.4131683415	 0.9928489572	 0.040459
C	-0.009078839	 0.0885219429	 0.0184915599	-0.05408
H	-0.6012738786	 1.9396187952	 0.7160099397	 0.224832
H	 1.6143323198	 2.8605587122	 0.0248448751	 0.086011
H	 2.5175647006	 1.1323255445	 1.9504420289	 0.078318
H	 2.4235900348	 1.1965845615	-1.9652930542	 0.083668
H	 0.8425646498	-0.8245499232	-1.960925879	 0.083668
H	 0.9357728535	-0.8897915374	 1.9548112128	 0.078318
H	-0.9631247674	-0.4343856599	 0.0319658875	 0.086011
