14
gdb 42459	7.42867	0.65547	0.60683	5.1531	69.78	-0.2893	-0.0151	0.2742	1696.3486	0.097707	-436.68735	-436.677883	-436.676939	-436.723875	31.763	
O	-0.0669761055	-0.2016787613	 0.0025679833	-0.324313
C	-0.0602084351	 0.9975623879	 0.0055346343	 0.483207
C	 1.1798610113	 1.8915965564	 0.0008648006	-0.47997
C	 2.4275455982	 1.1388336173	-0.0141346473	 0.294121
N	 3.4334547797	 0.5733953139	-0.0260871994	-0.292287
O	-1.154656904	 1.7772280035	 0.013988558	-0.243902
C	-2.4115560965	 1.0561968317	 0.0201057892	-0.232916
C	-3.4975291241	 2.0181194828	 0.0298080724	 0.284949
C	-4.4191388754	 2.7868828533	 0.0380070378	-0.403463
H	 1.1302584335	 2.5544143841	-0.8697902358	 0.188916
H	 1.1445998284	 2.5427823484	 0.8810124847	 0.188983
H	-2.453999761	 0.4103228208	-0.8629762938	 0.162156
H	-2.4425678282	 0.4052812524	 0.899957217	 0.16215
H	-5.2342369913	 3.4681963487	 0.0456484389	 0.212368
