19
gdb 41404	2.46481	2.03988	1.42687	1.8621	73.72	-0.2333	0.0698	0.3031	960.2679	0.16162	-423.002424	-422.995395	-422.994451	-423.033704	28.507	
C	 0.1555997105	 1.3488140103	 0.4768914282	-0.273147
C	 1.5162438061	 1.5719871734	-0.2547766432	-0.325321
C	 1.5237485252	 0.073701363	-0.5689177565	 0.45326
O	 2.1078579574	-0.5071621303	-1.7337307284	-0.329776
C	 2.5311056234	-1.6674127786	-0.9789086722	-0.101643
C	 2.1143156196	-1.0155051173	 0.3593543961	-0.158485
C	 0.9279162367	-1.5852844482	 1.1415330674	-0.106433
O	-0.2561238506	-1.2062919063	 0.4349347849	-0.265562
C	 0.0147650463	-0.0179626128	-0.2764134472	 0.065127
H	 0.2707773612	 1.2134407577	 1.5546425385	 0.11062
H	-0.6295062807	 2.0840538327	 0.296880298	 0.109135
H	 1.3942459867	 2.1608816855	-1.1683496925	 0.119171
H	 2.3552183931	 1.9758222006	 0.3164835142	 0.102048
H	 1.9593719345	-2.5631951197	-1.2511750449	 0.108527
H	 3.6005254904	-1.8638967527	-1.1080363131	 0.106146
H	 2.951182272	-0.7250098846	 0.9952953906	 0.085858
H	 0.9311982723	-2.6774166277	 1.2158338453	 0.111344
H	 0.9166795643	-1.1771069827	 2.1632079955	 0.097217
H	-0.6541594184	 0.0285839778	-1.1380218209	 0.091914
