19
gdb 88555	3.36611	1.15489	1.08978	0.4692	76.15	-0.2478	0.0678	0.3156	1201.3034	0.157887	-422.969432	-422.960953	-422.960009	-423.002912	31.998	
C	-0.1723376603	 1.4190493571	-0.1401542422	-0.435458
C	-0.1274436392	-0.0489444756	 0.1945456034	 0.086741
O	 1.1019194045	-0.7530832265	-0.0271341487	-0.262377
C	 0.6186070048	-0.6473024404	 1.3169625869	-0.088844
C	 1.4694570671	 0.0948569489	 2.2775807048	 0.448846
C	 2.4640044569	 1.2500731074	 2.0638087552	-0.297133
C	 3.2914471991	 0.7032172828	 3.2790895929	-0.254651
C	 2.2520552002	-0.4150560981	 3.4236139685	-0.044978
O	 0.9755355855	 0.2036299951	 3.6222526949	-0.294751
H	 0.7259654729	 1.9409348537	 0.1911440868	 0.137696
H	-0.2668285251	 1.5546371972	-1.2227286091	 0.129515
H	-1.0427612934	 1.8865125891	 0.3325138952	 0.128708
H	-1.0041077833	-0.6104978257	-0.1367349915	 0.091577
H	 0.2271120822	-1.5758219603	 1.7372159121	 0.092148
H	 3.0007332045	 1.1690828786	 1.1172097128	 0.125288
H	 2.040789963	 2.2514240619	 2.170135238	 0.108628
H	 4.2769508694	 0.3374018267	 2.9827903545	 0.111369
H	 3.3884655801	 1.3591995343	 4.1470655714	 0.113221
H	 2.3734508809	-1.4239237865	 3.8027378741	 0.104453
