13
gdb 129197	3.6323	1.22858	0.91806	3.6906	78.	-0.2376	-0.095	0.1427	1158.4772	0.091972	-411.810416	-411.803253	-411.802308	-411.842286	26.761	
N	-0.0391052589	 1.3440124731	 0.0107464567	-0.54608
C	-0.0085394015	 0.0629419394	 0.0033078585	 0.413695
N	 1.1473461291	-0.7351000891	-0.0073240016	-0.302939
N	 1.2281881367	-2.0748305315	-0.0153637524	-0.173233
C	 0.1162647486	-2.7368074401	-0.0132603912	-0.056709
C	-1.1745703519	-2.080625993	-0.0027232974	 0.173867
C	-1.2293117412	-0.7247111208	 0.0052705276	-0.21102
C	-2.3595653663	-2.8803465953	-0.0010173475	 0.224492
N	-3.3036875636	-3.5493982503	 0.0001602924	-0.313126
H	 0.8965184793	 1.7531171418	 0.0081350085	 0.208698
H	 2.0470081031	-0.2763978748	-0.0094633742	 0.272671
H	 0.1912981515	-3.8168145461	-0.0197931393	 0.150858
H	-2.1628615749	-0.1773882234	 0.0133049199	 0.158826
