16
gdb 56711	2.0429	1.37303	1.24875	5.7819	73.28	-0.2785	0.0017	0.2802	1116.6409	0.124324	-396.930975	-396.921923	-396.920978	-396.965038	32.656	
N	 0.1259900337	 1.3837430335	 0.2567482369	-0.501125
C	-0.0257072321	-0.037986109	-0.0205496834	-0.218845
C	-1.4567222645	-0.3909294495	 0.0042284893	 0.315137
N	-2.5716974729	-0.6909711878	 0.0081943294	-0.307276
C	 0.6225534567	-0.5493374509	-1.325380421	 0.168992
C	 2.0573964429	-1.0556254652	-1.2570594984	-0.313356
C	 0.936204571	-2.0286646225	-1.4598550345	-0.285018
C	 0.2291638144	 0.1796525465	-2.5040082043	 0.250232
N	-0.0878821963	 0.7974250909	-3.4293101114	-0.334985
H	 1.1123048818	 1.6257450275	 0.2627053547	 0.243866
H	-0.3159325665	 1.933810189	-0.4748496958	 0.260553
H	 0.4487991835	-0.5910929655	 0.8002587262	 0.138593
H	 2.7048048581	-0.8315998691	-2.0959860718	 0.151993
H	 2.5408481398	-1.0150768639	-0.2865440771	 0.133904
H	 0.6366494775	-2.658519745	-0.6292066426	 0.143719
H	 0.8098385328	-2.478778619	-2.436545886	 0.153617
