25
gdb 114514	2.35126	1.35357	1.03955	0.1335	91.98	-0.2578	0.0694	0.3272	1308.0405	0.229691	-352.33476	-352.325277	-352.324333	-352.369221	36.892	
C	 2.3005968409	 0.5630422925	-0.611388496	-0.378995
C	 0.9631304116	 0.573490116	 0.1368524219	-0.206181
C	 0.9216571634	-0.409369711	 1.3030431852	 0.069598
C	-0.383450531	-0.6090186265	 2.1275640814	-0.277784
C	-0.071422635	-2.1309727787	 2.2394916559	 0.000642
C	-0.886097316	-3.0304528478	 1.2840970151	-0.2515
C	 0.1786349324	-2.8024682877	 0.161478109	 0.042553
C	-0.317597773	-2.2506682756	-1.1707379564	-0.412694
C	 1.0545922319	-1.9553213692	 1.1563573082	-0.069353
H	 2.5083346761	-0.4229193252	-1.040931269	 0.11821
H	 2.3072785635	 1.2903740772	-1.4292620811	 0.109375
H	 3.1311448286	 0.8095877705	 0.0599368815	 0.111014
H	 0.777867723	 1.58120676	 0.5339068925	 0.089398
H	 0.1471548696	 0.3747786732	-0.5646494946	 0.094465
H	 1.7153888771	-0.1178225655	 2.0047048238	 0.068471
H	-0.4412513129	-0.0520834006	 3.0664249744	 0.093623
H	-1.2984204962	-0.4069289361	 1.5596756014	 0.090349
H	 0.1340740061	-2.5029935137	 3.2441462259	 0.057799
H	-0.9632490347	-4.073132244	 1.6045885974	 0.092795
H	-1.8958122671	-2.6703318535	 1.0579692059	 0.088366
H	 0.7138542837	-3.7359765213	-0.0423034477	 0.072181
H	 0.5090521092	-1.9519823681	-1.824281107	 0.114955
H	-0.8961046545	-3.0171349472	-1.699861654	 0.109252
H	-0.9752275015	-1.3861917405	-1.0409771345	 0.11858
H	 2.0643813548	-2.351278937	 1.2846258009	 0.054879
