22
gdb 118003	3.39499	0.7694	0.65632	5.0067	83.54	-0.2821	0.0351	0.3171	1746.0518	0.191737	-404.373055	-404.361898	-404.360954	-404.410016	39.53	
C	 0.0609926631	 1.585850162	 0.1392772555	-0.384113
C	 0.0351281396	 0.0579225163	 0.0550021085	-0.16635
C	-1.3869827404	-0.5103122067	-0.0249361462	-0.202582
C	-1.4184570385	-2.0429825062	-0.0556430539	 0.1303
O	-0.760766325	-2.6030644606	 1.0695898194	-0.416915
C	-2.8616766576	-2.6095729118	-0.1797672886	-0.178053
C	-3.5860847328	-2.2041015222	-1.4796417121	-0.402035
C	-2.8342472761	-4.0728038736	-0.0659856183	 0.283286
N	-2.845190262	-5.226779723	-0.0076301197	-0.324829
H	 1.0872561759	 1.9615892491	 0.1920195266	 0.117698
H	-0.4159203271	 2.0431809011	-0.7349640213	 0.113768
H	-0.469607392	 1.9442250851	 1.0287186317	 0.113271
H	 0.6005350503	-0.27259743	-0.8260028636	 0.100195
H	 0.5441884362	-0.3773144269	 0.9208111057	 0.112741
H	-1.9752031882	-0.1625385982	 0.839249028	 0.085373
H	-1.887174192	-0.1108466085	-0.9146102394	 0.104088
H	-0.8419287691	-2.4014411144	-0.9173786336	 0.105649
H	-1.19878622	-2.2833864865	 1.8669985347	 0.281502
H	-3.439969124	-2.2336212766	 0.6767964466	 0.114079
H	-2.9963819421	-2.4893065896	-2.3558236154	 0.139317
H	-4.5553094629	-2.7030809801	-1.5487931886	 0.142982
H	-3.7557818354	-1.1260821686	-1.5090175363	 0.130628
