16
gdb 45905	2.32691	1.86345	1.25061	3.4663	71.84	-0.2378	-0.0351	0.2027	1002.6839	0.124478	-437.888932	-437.881142	-437.880198	-437.922002	28.918	
O	 0.0785563988	 0.285230681	-0.9654044542	-0.308783
C	-0.0368696609	 1.232898615	-0.220649551	 0.324025
C	-1.4544301297	 1.6792345077	 0.1859045158	-0.250118
N	-1.6535095436	 2.5278736234	 1.3481210659	-0.216364
C	-0.9533859866	 2.3021949374	 2.3662813863	 0.101882
O	-0.0661817974	 1.2625006159	 2.4826532992	-0.221754
C	 1.2859241386	 1.6954427207	 2.5993091948	-0.149239
C	 1.8009947185	 2.1988478961	 1.2828722208	-0.048022
C	 1.198532005	 2.0335431038	 0.1055987994	-0.135804
H	-1.8492898587	 2.216731426	-0.6863414458	 0.137498
H	-2.0509223877	 0.7642217449	 0.2701584959	 0.151302
H	-1.0314509841	 2.9319431164	 3.255623216	 0.120211
H	 1.3753578217	 2.4746052584	 3.3728430415	 0.117039
H	 1.8608472176	 0.8287892685	 2.944142973	 0.143315
H	 2.763060918	 2.705630827	 1.3211141633	 0.107873
H	 1.7058728003	 2.3850751678	-0.789728601	 0.126939
