18
gdb 13983	5.29492	1.23372	1.13413	1.3479	68.86	-0.2306	0.0733	0.3039	1102.5841	0.152658	-384.879429	-384.871288	-384.870343	-384.912573	29.356	
C	 0.647759076	 1.3753104214	-0.2128397506	-0.221069
O	 0.9053453162	-0.0024302402	-0.3469322871	-0.235839
C	-0.1602061849	-0.7031434042	-0.9456235782	-0.171924
C	 0.2119707176	-2.1516084162	-1.0315012513	 0.457255
C	 1.071186871	-2.9229527663	-0.0856879343	-0.327451
C	 1.4079419553	-2.9024915725	-1.5684688322	-0.171834
C	 0.376003241	-3.7334120308	-2.3205479311	-0.087576
O	-0.7235391241	-3.015138473	-1.6900085902	-0.332999
H	 0.4781736661	 1.855754144	-1.1891864869	 0.106925
H	-0.2328473363	 1.5654058013	 0.4205560718	 0.107855
H	 1.5253282188	 1.8267204897	 0.2558355833	 0.128793
H	-1.0874069694	-0.5974616775	-0.3541925252	 0.098407
H	-0.3749338164	-0.3125990042	-1.954584212	 0.095895
H	 1.7292111934	-2.3167473712	 0.5268064928	 0.131285
H	 0.6834569626	-3.8245738867	 0.3820521679	 0.10741
H	 2.3502454627	-2.5425925291	-1.9575905729	 0.103673
H	 0.3717020535	-3.5610317479	-3.4027554519	 0.107665
H	 0.3368563167	-4.8104955468	-2.1173179119	 0.103529
