12
gdb 24483	4.13111	1.77972	1.24386	3.8618	69.28	-0.2635	-0.0831	0.1803	885.1496	0.082007	-431.712072	-431.706495	-431.70555	-431.74205	21.74	
O	-0.0125459782	 1.3158622286	 0.0095072379	-0.155477
C	 1.1475093356	 2.0188583246	 0.0018701616	 0.110263
N	 2.3398410935	 1.5419894227	-0.01241965	-0.30464
C	 2.4141832393	 0.1791968139	-0.0204616052	 0.34729
N	 3.4836513794	-0.5865787502	-0.0351465715	-0.334822
C	 2.9260613062	-1.8551451188	-0.0364932871	 0.029211
N	 1.6058840733	-1.972356836	-0.0240614989	-0.339634
C	 1.2170337079	-0.6569172514	-0.013193435	 0.201751
C	 0.0170442461	-0.036771397	 0.0019476795	-0.01883
H	 0.9453717344	 3.0828962	 0.0095772902	 0.163517
H	 3.5705539937	-2.7263742486	-0.0475182448	 0.128728
H	-0.9702641312	-0.4793517078	 0.0092964935	 0.172643
