16
gdb 15291	5.8158	0.96583	0.87935	2.7142	72.81	-0.2512	-0.024	0.2272	1260.9125	0.128238	-346.566073	-346.557702	-346.556758	-346.5995	30.126	
O	-0.1774886598	 0.1369176428	-0.6367421206	-0.269315
C	-0.0500436821	 1.2178055507	-0.115969092	 0.166823
C	 1.2412523287	 1.924735659	 0.0323519463	-0.124088
C	 1.2490441777	 3.4518752591	 0.0038371786	-0.288503
C	 1.5697072975	 2.7517158492	 1.2767139867	 0.008008
C	 0.6410088416	 2.8188123447	 2.4849001712	-0.386668
C	 0.9685468484	 3.9429891886	 3.3565356571	 0.301057
C	 1.2606243461	 4.8708179043	 4.0619865218	-0.435285
H	-0.93670766	 1.7676652975	 0.277491106	 0.064735
H	 2.0714636884	 1.4042811477	-0.432649166	 0.111091
H	 2.038930337	 3.9344806844	-0.5593756786	 0.132252
H	 0.28168057	 3.9400866132	-0.0715738451	 0.127763
H	 2.6196699854	 2.7151660561	 1.5506880203	 0.114854
H	-0.4030608402	 2.9045107367	 2.162864494	 0.134593
H	 0.7076033462	 1.8829682499	 3.0546510814	 0.143086
H	 1.508035605	 5.689748296	 4.690997229	 0.199599
