15
gdb 23160	2.65559	1.20817	0.92048	3.4228	70.11	-0.2708	-0.0273	0.2436	1221.7476	0.111097	-453.895395	-453.886665	-453.885721	-453.929215	31.711	
O	-0.1364014384	 1.3683688595	 0.5260700635	-0.380593
N	-0.0276992667	-0.0245048361	 0.561945346	-0.2181
C	-1.0122309019	-0.5750443796	-0.0088180878	 0.423745
C	-2.3151076404	-0.1459187853	-0.64159097	-0.366247
C	-2.8215291719	-1.6114271141	-0.4435461614	 0.152894
O	-3.5111860218	-2.2571701056	-1.4580060449	-0.415437
C	-1.3260222104	-2.0648451052	-0.1080498918	-0.311382
C	-0.7066618651	-2.7226912165	-1.2475729935	 0.281972
N	-0.2868862973	-3.2230026481	-2.2024640356	-0.32523
H	 0.6567833797	 1.6506212751	 0.9955326306	 0.315147
H	-2.8667142039	 0.6566456961	-0.1484873747	 0.14146
H	-2.1995696827	 0.1076504703	-1.7019917692	 0.139125
H	-3.4302401445	-1.7019564201	 0.4582607057	 0.121485
H	-2.943766498	-2.326984572	-2.2365082729	 0.299484
H	-1.1874108468	-2.6582056883	 0.7983127458	 0.141675
