15
gdb 17041	3.94598	1.72145	1.40881	3.6578	62.05	-0.2448	-0.0398	0.205	871.1071	0.119105	-399.724328	-399.717484	-399.71654	-399.755668	25.877	
O	-0.0572721113	 1.3563343527	-0.3330441263	-0.445205
C	-0.0072329846	-0.0129078411	-0.1439530978	 0.211984
C	 0.0828162813	-0.5594270473	 1.3172590796	-0.100071
N	-1.327817639	-0.0255740404	 1.4874686085	-0.361376
C	-1.3362219034	-0.7825973181	 0.1593401236	-0.087112
C	-0.5090175447	-1.9235875034	 0.8030028762	-0.080337
C	 0.320597748	-2.8882872754	-0.0017072451	 0.124454
O	 0.443088559	-2.8741795047	-1.2017377777	-0.244249
H	-0.6649757057	 1.6849732508	 0.3466323949	 0.29177
H	 0.6514451385	-0.451251006	-0.8887447457	 0.117923
H	 0.8532936485	-0.4057228756	 2.0743488216	 0.093717
H	-1.8266638487	-0.558848123	 2.2047701435	 0.214399
H	-2.2362608047	-0.8645949638	-0.4500417968	 0.096099
H	-1.0256395207	-2.4626239566	 1.606148459	 0.086763
H	 0.8401629673	-3.6592513882	 0.6136206125	 0.081241
