21
gdb 104808	2.42534	1.34899	1.18738	1.7178	79.4	-0.235	0.0282	0.2632	1173.7354	0.181551	-424.218749	-424.209207	-424.208263	-424.252922	35.679	
C	-0.2574094182	 1.5289526759	 0.0362584455	-0.240641
O	-0.2209147214	 0.1143952907	-0.0180424685	-0.30179
C	 0.6335411179	-0.4913601871	-0.9791136067	 0.408816
C	 0.1853493849	-0.2021289703	-2.4215980927	-0.126616
O	 0.5164550989	 1.1296413577	-2.7957767581	-0.421126
C	 2.1468408442	-0.1586249454	-0.7880920762	-0.318133
C	 2.8233743509	-1.500870938	-0.9123642871	-0.061188
C	 1.9538543293	-2.5093073037	-0.8890674842	-0.06679
C	 0.5340043742	-2.0258315413	-0.7476173246	-0.313227
H	 0.7417042853	 1.9644314809	 0.1755254361	 0.104507
H	-0.6969109793	 1.9718330854	-0.8632231689	 0.119667
H	-0.8713465767	 1.7831047866	 0.9048261684	 0.113699
H	 0.683224156	-0.9255834675	-3.0846264527	 0.094771
H	-0.9001903974	-0.3741518839	-2.4768650539	 0.095296
H	 0.2753399117	 1.250445139	-3.7185721	 0.289
H	 2.5001490146	 0.5784067762	-1.5142615543	 0.119728
H	 2.3115184897	 0.2682424796	 0.2100622945	 0.110275
H	 3.9012407069	-1.6039537169	-0.9786760426	 0.088909
H	 2.2102680574	-3.5620269077	-0.9341690627	 0.089415
H	 0.137533113	-2.2060131266	 0.2586607783	 0.120775
H	-0.1607649019	-2.5062470437	-1.4481126994	 0.094652
