23
gdb 103753	2.83519	1.06266	0.92512	2.1353	82.	-0.255	0.0788	0.3339	1400.7204	0.202454	-425.418466	-425.407439	-425.406495	-425.45448	40.506	
C	-0.0099307415	 1.1530091139	-0.8237855595	-0.374285
C	-0.0975293052	 0.1862001096	 0.3650055829	-0.261739
C	-1.4472866679	-0.5233696522	 0.4473952503	 0.346859
C	-2.5412066924	 0.3462428899	 1.0453442318	-0.468811
O	-1.8270474036	-1.2539110431	-0.7396196083	-0.341463
C	-1.5315032346	-2.0073166526	 0.4590099455	 0.294057
C	-0.3100313086	-2.9025110905	 0.3723445729	-0.469175
C	-2.7501531117	-2.7410906332	 1.004202082	-0.12885
O	-3.2034907833	-3.7040523979	 0.0644123434	-0.418504
H	 0.976755815	 1.6233575242	-0.8666811316	 0.112375
H	-0.1772335024	 0.6147242813	-1.7605559059	 0.135869
H	-0.7542494101	 1.952995198	-0.7595033737	 0.116924
H	 0.7152779993	-0.5391646964	 0.2938686782	 0.102646
H	 0.057187538	 0.7313985806	 1.3044626324	 0.098858
H	-2.4940595809	 1.3546788949	 0.6224933111	 0.125539
H	-3.5358232633	-0.0481084035	 0.8385093218	 0.130706
H	-2.4155532871	 0.438000315	 2.1297783315	 0.122306
H	 0.4364903922	-2.5063026986	-0.3160654648	 0.128278
H	 0.1499843249	-3.0353853232	 1.3579129053	 0.117691
H	-0.6215409348	-3.8855708864	 0.0075321494	 0.140784
H	-2.4769461314	-3.2972891169	 1.9075398988	 0.108051
H	-3.5538553291	-2.046403905	 1.2714743111	 0.089308
H	-3.3454705414	-3.2224197677	-0.7596559644	 0.292576
