11
gdb 33336	3.21166	0.87337	0.71607	5.5682	74.66	-0.3045	-0.0786	0.2259	1435.7871	0.064795	-414.365977	-414.357916	-414.356971	-414.399773	27.532	
N	-0.1159224634	-3.7586438189	-0.018856938	-0.318368
C	-0.0665725556	-2.5985543001	-0.0089480927	 0.218231
C	-0.0154284216	-1.2341172827	-0.0004247543	 0.128985
C	 0.0298529577	-0.027816863	 0.0083177584	 0.127198
C	 0.0447085084	 1.4056085029	-0.0020219577	-0.194492
O	 0.5249842498	 2.0727085233	 1.1691453615	-0.198083
C	 1.317480746	 2.1810866155	-0.0053787305	-0.091746
C	 2.6008576779	 1.5148512322	-0.0029057388	 0.317495
N	 3.6382824446	 1.0075099907	-0.0262620781	-0.302043
H	-0.816700784	 1.8799476202	-0.4703909706	 0.153164
H	 1.3137374901	 3.1592991599	-0.4827611392	 0.159659
