23
gdb 91533	2.77855	1.28194	1.05306	0.3447	89.69	-0.2332	0.0915	0.3247	1265.6435	0.206249	-351.118573	-351.109655	-351.108711	-351.152345	35.098	
C	-0.2547959754	 1.4788529833	-0.2717691477	-0.410326
C	 0.0567581353	-0.0051522285	-0.1179756987	-0.028166
C	 1.2915488662	-0.6189684122	-0.8648333677	-0.250025
C	 1.8118725672	-1.151974804	 0.4724517097	-0.104551
C	 2.0233638968	-0.0074162587	 1.425792976	-0.344879
C	 0.6251896282	-0.5266541812	 1.2230084937	 0.388966
C	-0.2480781017	-1.0671949756	 2.2993295243	-0.11696
C	 0.2275747884	-1.3269755842	 3.7077617409	-0.278685
C	-0.7217466627	-0.1888666364	 3.4399690871	-0.258018
H	 0.6119542314	 2.1038735672	-0.0326127721	 0.112228
H	-0.5541014263	 1.7116552319	-1.3000083932	 0.111071
H	-1.0751112345	 1.7791988489	 0.3893541593	 0.11587
H	-0.8377964715	-0.5856984503	-0.3697626764	 0.067813
H	 1.0094519892	-1.3976885622	-1.5771416889	 0.097305
H	 1.9500377507	 0.093978777	-1.3746257849	 0.089738
H	 2.2808055272	-2.1156333444	 0.6339153736	 0.08159
H	 2.4908031949	-0.2736668708	 2.367837516	 0.109018
H	 2.3222843128	 0.9697078029	 1.0519686967	 0.099644
H	-0.9896061649	-1.7752761977	 1.933827179	 0.076917
H	-0.1530332403	-2.208957395	 4.2110892088	 0.109618
H	 1.250571071	-1.0803451037	 3.9679298974	 0.111163
H	-0.3197633417	 0.8172472468	 3.4903558682	 0.112769
H	-1.7503854004	-0.2788306033	 3.7713727089	 0.1079
