17
gdb 125761	2.999	1.27986	0.93429	2.9489	72.48	-0.2085	-0.0026	0.2059	1230.3903	0.13585	-455.137117	-455.128019	-455.127075	-455.171014	33.148	
C	-0.0341832085	 1.471591336	 0.0389019499	-0.506552
C	 0.0152086939	-0.0209366665	 0.0197380815	 0.363103
N	 0.1179213051	-0.680013679	-1.1128849371	-0.212593
O	 0.1452686354	-2.0233868996	-0.7797654208	-0.224271
C	 0.0549501707	-2.1485416336	 0.5668801211	 0.33293
C	 0.0561878648	-3.5166009054	 1.1635735271	-0.19365
O	-0.8476901754	-3.6058932894	 2.2653910504	-0.408502
C	-0.0333151143	-0.9122977915	 1.136783946	-0.008268
N	-0.0665987591	-0.5736882129	 2.4933475372	-0.615585
H	 0.7767496338	 1.8814637197	 0.6506751982	 0.142638
H	 0.0585581852	 1.8619305918	-0.9761476813	 0.153214
H	-0.9786752807	 1.8344627157	 0.4618762333	 0.127658
H	-0.1657009252	-4.2566830846	 0.3825227967	 0.124777
H	 1.0372146102	-3.7685029834	 1.5826135283	 0.137003
H	-1.7322163742	-3.434509471	 1.923312939	 0.289144
H	-0.3623506391	-1.3590170901	 3.0614754739	 0.25523
H	-0.6435298726	 0.2345387636	 2.6883190064	 0.243724
