17
gdb 44626	4.20836	1.39672	1.3579	4.662	71.11	-0.2617	0.0131	0.2748	977.4802	0.139679	-421.858407	-421.852184	-421.851239	-421.888884	25.774	
O	 0.0045559033	 0.0560839307	-0.0492318364	-0.350776
C	 0.0547249872	 1.2477870328	-0.0088933276	 0.447702
O	-1.0487495701	 2.0713772985	 0.0017996936	-0.247274
C	-0.4423992138	 3.381774671	 0.0544815554	 0.102199
C	 0.7286151447	 3.3414856743	-0.9666240511	-0.033651
C	 1.5877174796	 4.5669806657	-0.6565274817	-0.2434
C	 1.5641548055	 4.5151673297	 0.9034651805	-0.2434
C	 0.6973217423	 3.2726583364	 1.1055208455	-0.033649
C	 1.2080314041	 2.2257230467	 0.0410070515	-0.206946
H	-1.2147209289	 4.1489595859	 0.0683012145	 0.096161
H	 0.5313359893	 3.0892832119	-2.0089898501	 0.087512
H	 2.5958187736	 4.4794324127	-1.0701008954	 0.112401
H	 1.1456067949	 5.4856451803	-1.0538042469	 0.109324
H	 2.5594071133	 4.3993772113	 1.3405469086	 0.112401
H	 1.109328885	 5.4058921566	 1.3472882845	 0.109324
H	 0.4689439952	 2.9520553311	 2.1224322569	 0.087511
H	 2.2143746248	 1.8132687444	 0.0425043383	 0.09456
