12
gdb 129315	3.42707	1.46388	1.13668	1.9669	70.7	-0.2732	-0.1215	0.1517	994.7758	0.075209	-468.753138	-468.745481	-468.744537	-468.785616	27.617	
N	 0.0388308836	 1.1225799082	 0.7968518312	-0.469311
C	-0.0396079074	 0.2252261578	-0.1065278129	 0.343325
O	 0.8547881763	 0.0990754399	-1.1193395753	-0.329167
N	 1.5744684562	-1.3568124145	-1.1563188071	 0.02052
N	 0.8785368812	-2.2094259348	-1.5946262276	-0.018715
C	-0.5290876649	-2.0246790488	-2.0732882723	 0.390892
O	-0.7758332477	-2.3625483867	-3.1889255329	-0.255094
C	-1.4713071858	-1.60845843	-1.023733997	-0.190234
C	-1.2327578299	-0.6389064828	-0.1305498887	-0.036735
H	 0.9117115917	 1.6440330613	 0.6833911245	 0.239836
H	-2.4269749621	-2.1217250843	-1.0546233366	 0.154267
H	-1.9790604213	-0.3904179453	 0.6157928346	 0.150415
