16
gdb 106914	3.10031	1.31023	1.2339	3.4705	70.61	-0.2565	-0.0578	0.1987	1059.4858	0.124834	-437.88735	-437.879599	-437.878654	-437.919902	29.39	
O	 0.1024114914	 1.3357819023	 0.3266147679	-0.412416
C	 0.0172650912	 0.0163747818	-0.1725850237	-0.142109
C	-1.3926826967	-0.5262523613	-0.0882001514	 0.231865
C	-1.6508894813	-1.9600976433	 0.2526128415	-0.283129
N	-1.8769728768	-0.8954883715	 1.2522050114	-0.169871
C	-3.2701397505	-0.4729467219	 1.317183645	 0.35989
O	-3.997732757	-0.720805437	 2.2400798403	-0.318228
C	-3.5704600463	 0.2688270389	 0.0639957289	-0.198076
C	-2.5078307616	 0.2159598239	-0.7467116995	-0.113844
H	-0.1929564218	 1.3080469361	 1.2441924156	 0.295567
H	 0.3357122844	 0.0624540427	-1.2200555267	 0.116097
H	 0.69833183	-0.6675939209	 0.3543060831	 0.100965
H	-2.5252020088	-2.4375659869	-0.1818132736	 0.136905
H	-0.8158300729	-2.621726386	 0.4674975039	 0.134282
H	-4.5412336017	 0.7017641459	-0.1336353223	 0.131693
H	-2.4168082415	 0.6583132774	-1.7313043304	 0.130409
