21
gdb 78111	2.21177	1.71536	1.19069	1.8183	78.59	-0.2292	0.0728	0.302	1133.5835	0.179797	-424.198744	-424.189211	-424.188267	-424.23204	37.147	
C	-0.0983876842	 1.4748559757	 0.1378176853	-0.496858
C	 0.1057196799	-0.0043776766	 0.0923605633	 0.385738
O	-1.055687673	-0.8312060325	-0.1286549158	-0.381386
C	-0.6192129125	-1.7684857999	 0.9309693513	 0.400654
C	-1.4844340187	-1.5391140977	 2.1660417856	-0.419387
C	-0.6621573389	-3.2228411814	 0.4813861842	-0.455976
C	 0.7297475315	-1.0511800509	 1.02008174	-0.273728
C	 1.293202528	-0.772058268	-0.3693391328	 0.073024
O	 1.2346188346	-1.6441222591	-1.456170265	-0.438165
H	 0.8468086332	 1.9829663842	 0.3498702315	 0.125547
H	-0.4693588987	 1.839808219	-0.8268893269	 0.133532
H	-0.825822038	 1.7539457094	 0.906763099	 0.127653
H	-2.517931008	-1.8373160065	 1.9641107636	 0.122687
H	-1.1138266828	-2.1334435256	 3.0084242756	 0.114335
H	-1.4781023864	-0.4861398555	 2.4590744829	 0.118781
H	 0.0068845433	-3.404020714	-0.3594599594	 0.137704
H	-0.3560385457	-3.8743406288	 1.3066949399	 0.118339
H	-1.6838746042	-3.4992510364	 0.1989537319	 0.119552
H	 1.3118255815	-0.9330146397	 1.9263084127	 0.090247
H	 2.237322634	-0.2335728988	-0.3417176172	 0.105127
H	 0.301608745	-1.678169497	-1.7090826698	 0.29258
