21
gdb 102963	2.94188	0.70742	0.60218	3.3798	81.05	-0.253	-0.0354	0.2176	1846.138	0.17842	-424.251405	-424.240383	-424.239439	-424.289795	37.218	
C	 0.1368523222	 1.6083014289	 0.1687672829	-0.393381
C	 0.1246939083	 0.0804115929	 0.0569571385	-0.202084
C	 0.6825909742	-0.4416706974	-1.2796030342	-0.047265
C	 0.7760715564	-1.9855275279	-1.290542654	-0.22925
C	 1.5757618536	-2.5437624901	-2.4816728414	-0.283293
C	 1.4977549896	-4.0519834375	-2.5446956734	 0.15925
O	 2.4434355781	-4.7958046254	-2.5239999	-0.234388
C	-0.2133279699	-0.011983113	-2.4261366025	 0.167393
O	 0.1555465391	 0.4775815828	-3.4620331026	-0.251652
H	 1.1542525653	 2.0017351709	 0.0726723521	 0.125748
H	-0.4705526172	 2.0774068241	-0.6128087975	 0.127556
H	-0.2585520338	 1.9332957196	 1.1354452221	 0.12103
H	 0.7139053806	-0.3548450535	 0.8723332143	 0.106957
H	-0.8993237286	-0.29538853	 0.1888918972	 0.102997
H	 1.6770459159	-0.0187768478	-1.4636149359	 0.096864
H	 1.2427699678	-2.3120635892	-0.3542324535	 0.119828
H	-0.2380266091	-2.4103888903	-1.2901282166	 0.10685
H	 1.1619553685	-2.1484797448	-3.4199339448	 0.137761
H	 2.6273157648	-2.2484008395	-2.4280348507	 0.127015
H	 0.4572538157	-4.4520196016	-2.6084976285	 0.070137
H	-1.2969142716	-0.2220230914	-2.2457138016	 0.071929
