14
gdb 30528	3.60227	1.08768	0.83582	3.0299	77.61	-0.1815	-0.0136	0.1679	1285.1975	0.101746	-470.04016	-470.032078	-470.031134	-470.072985	29.775	
N	 0.0937546719	 1.3767167783	-0.0781868705	-0.501505
C	 0.0281502365	 0.0128585794	 0.0040404409	 0.081506
N	-1.0910849836	-0.6078035475	-0.0429028497	-0.343905
C	-1.1566488997	-1.9615787607	-0.0411748398	 0.327019
C	-2.2110302938	-2.8317577808	-0.0737735337	 0.228454
O	-3.5231561575	-2.5324258852	-0.1213284536	-0.422824
N	-1.7642975384	-4.1348012181	-0.0502749679	-0.334716
C	-0.472948419	-4.0269546127	-0.0050747307	 0.066442
O	-0.0131046301	-2.764078745	 0.0041832908	-0.191009
H	 0.9105421439	 1.8335264681	 0.2919706692	 0.259443
H	-0.7786133681	 1.8708297902	 0.0397900364	 0.263944
H	 1.001147957	-0.482357484	 0.0628016137	 0.117426
H	-3.9942054212	-3.3740996839	-0.1367665002	 0.303348
H	 0.258228752	-4.8194096181	 0.024412355	 0.146375
