16
gdb 29948	3.38398	1.42456	1.01511	4.0932	74.46	-0.2578	-0.0537	0.204	1139.7374	0.125141	-434.14672	-434.138366	-434.137422	-434.180058	29.81	
C	-0.0014158889	 1.4468914266	-0.0097756924	-0.334271
N	 0.0139817467	-0.0106954871	-0.0280612609	-0.105419
C	-0.0546241811	-0.7230289033	-1.1664072037	 0.113851
N	-0.0436571734	-2.0206337272	-1.2243682728	-0.32686
C	 0.0457884163	-2.6473442252	-0.0008559767	 0.348407
C	 0.0598261518	-4.1454507255	-0.0555092486	-0.454819
N	 0.1176684312	-2.0629239734	 1.164590391	-0.343331
C	 0.1065930292	-0.687010334	 1.2328934117	 0.441137
O	 0.1672414726	-0.0274177704	 2.2449544294	-0.380139
H	 0.9108079461	 1.8208905893	 0.4595939419	 0.165709
H	-0.0749534242	 1.8166512443	-1.0341901696	 0.13272
H	-0.8503864958	 1.8007104657	 0.5787638746	 0.165727
H	-0.1231469555	-0.1467153058	-2.0880114149	 0.137935
H	 0.9050912606	-4.4846473371	-0.6633691533	 0.146314
H	 0.1286421562	-4.5648213587	 0.9473354657	 0.146807
H	-0.847061652	-4.5053205279	-0.5524272413	 0.14623
