25
gdb 120554	5.24144	0.61459	0.59769	0.9673	91.28	-0.2415	0.0868	0.3283	2025.7712	0.227491	-389.487072	-389.476361	-389.475417	-389.523772	38.98	
C	-0.024682629	 1.5392390041	 0.1661618574	-0.384308
C	 0.3018579373	 0.0633411914	 0.0107870046	-0.039351
O	 0.3647103883	-0.5211859899	 1.2976896964	-0.252476
C	 0.6346238496	-1.896559779	 1.2810953138	 0.168656
C	 2.0872070903	-2.3839531788	 1.0073180176	-0.28684
C	 1.9042457064	-3.4055791163	 2.1664131583	 0.056645
C	 3.0737107461	-3.6692414035	 3.1063861052	-0.190635
C	 2.7126321497	-4.5924391017	 4.2744300292	-0.377696
C	 0.7073094201	-2.5469890738	 2.6744996847	-0.273414
H	 0.7475089508	 2.0426711115	 0.7549066207	 0.125081
H	-0.0857637601	 2.0232287316	-0.8132678529	 0.112184
H	-0.9823581464	 1.6675476438	 0.6787156022	 0.125513
H	-0.4689080438	-0.4419401565	-0.5963152036	 0.083075
H	 1.2608909293	-0.0649705644	-0.5171194359	 0.088516
H	-0.0817838535	-2.4181298495	 0.626017707	 0.058913
H	 2.3361048063	-2.7669697788	 0.0146381452	 0.091102
H	 2.8010126421	-1.5999013276	 1.2822120431	 0.101105
H	 1.5344770599	-4.3581860592	 1.7677352761	 0.065707
H	 3.9040495106	-4.1058378059	 2.5350674991	 0.092614
H	 3.4417768188	-2.710097803	 3.4949075713	 0.091228
H	 1.9042443868	-4.1676029071	 4.8793541993	 0.119327
H	 2.3766472539	-5.5717791933	 3.9154093329	 0.112058
H	 3.5705775214	-4.756274153	 4.9339031485	 0.110594
H	 1.0384895358	-1.8035142562	 3.4070042673	 0.107105
H	-0.1839915606	-3.051434505	 3.0535759327	 0.095298
