21
gdb 52786	2.97599	0.84616	0.74288	1.6214	88.32	-0.2386	0.0579	0.2965	1621.0174	0.180001	-387.060496	-387.050007	-387.049063	-387.097133	38.031	
C	 0.388424532	 1.664229715	-0.5178695295	-0.501104
C	 0.2315721112	 0.2332082903	-0.2973944997	 0.10387
C	 0.1021113292	-0.9513008275	-0.1153330024	-0.010614
C	-0.0582718812	-2.3791936453	 0.1087484989	 0.142137
C	 0.8572414621	-3.1881296265	-0.8252618714	-0.442348
C	 0.0423196534	-2.856930418	 1.6022643845	-0.298169
C	-1.2043017768	-3.7493654434	 1.3696968583	 0.167568
O	-2.1641508542	-3.8799038276	 2.3866256727	-0.435912
C	-1.5355420299	-2.9145900716	 0.1055585975	-0.298167
H	 1.1246657548	 1.8688203574	-1.3032427643	 0.146687
H	-0.5565354961	 2.1275695798	-0.8234282561	 0.145518
H	 0.7264305705	 2.1741195561	 0.3913955032	 0.145519
H	 1.9065528764	-2.929756922	-0.6543283403	 0.123395
H	 0.738869742	-4.2636767719	-0.6589757878	 0.114405
H	 0.6220706642	-2.9767485886	-1.8726591527	 0.123396
H	 0.974892022	-3.3344141942	 1.9131185417	 0.103169
H	-0.1857798409	-2.0379355979	 2.290762881	 0.098816
H	-0.9216624252	-4.7733964557	 1.1111741409	 0.093747
H	-2.4431300728	-2.9953891547	 2.6468178237	 0.2761
H	-2.242228682	-2.1130919643	 0.3400808434	 0.098819
H	-1.8758600387	-3.4386078093	-0.7910450716	 0.103168
