16
gdb 40481	3.92023	1.33511	1.21032	1.6513	68.66	-0.2392	0.0463	0.2855	1035.8883	0.12358	-437.7284	-437.721339	-437.720395	-437.760454	27.403	
C	 0.4339895498	 1.5532036936	 0.2694507099	-0.233447
N	 1.256424081	 0.4138473284	-0.1685819821	-0.306286
C	-0.1678373748	 0.2011482677	 0.1405951552	-0.227765
C	-0.4683513356	-0.6207305795	 1.3345374896	 0.503475
O	 0.1488889161	-0.3155921011	 2.6191744732	-0.344035
C	-0.6877974436	-1.4614285031	 2.939129184	 0.03128
C	-1.8387202456	-1.0555732468	 1.9688023002	-0.011415
O	-1.8786358527	-2.3385869274	 1.2861194873	-0.329924
C	-0.4598804565	-2.1740166334	 1.5726118993	-0.003597
H	 0.6755869638	 1.9256719368	 1.2596097388	 0.142874
H	 0.1463099725	 2.3095194461	-0.4558685938	 0.115283
H	 1.3847237996	 0.4420488697	-1.1768551518	 0.235692
H	-0.8552004086	 0.0261623934	-0.6844911245	 0.103734
H	-0.7008388462	-1.8395332047	 3.9600386575	 0.107496
H	-2.766045307	-0.5070800689	 2.1326747213	 0.10579
H	 0.2435523978	-2.9460051008	 1.264175626	 0.110843
