21
gdb 122597	4.1274	0.70646	0.62793	2.1277	81.22	-0.2414	-0.0196	0.2218	1810.9422	0.180161	-424.23023	-424.220137	-424.219193	-424.266856	35.399	
C	-1.0797754154	 1.1735610713	 0.6232559987	-0.384618
C	 0.0117173932	 0.2555828343	 0.1000266653	-0.028133
O	 0.5969344662	-0.4198750552	 1.1962614233	-0.249427
C	 1.627011275	-1.3060468729	 0.8186708869	-0.064979
C	 2.1624146803	-1.9811604643	 2.0659945284	-0.116134
C	 1.3118796899	-3.0692786618	 2.7930349256	-0.23571
C	 2.5449022644	-4.0238557061	 2.8371143928	-0.3396
C	 3.250827373	-3.0553116423	 1.874855225	 0.384047
O	 4.2087914945	-3.1351318405	 1.1613632526	-0.297857
H	-0.6637001253	 1.9048345792	 1.3220177709	 0.126949
H	-1.5532609277	 1.7124124946	-0.2028211769	 0.115681
H	-1.8472937529	 0.5972419993	 1.1476656367	 0.125984
H	-0.4047465804	-0.4733086643	-0.6160100566	 0.086019
H	 0.778740856	 0.8342184085	-0.4420640114	 0.087948
H	 1.2463461755	-2.0623947986	 0.109874407	 0.085149
H	 2.4440710328	-0.7699960551	 0.3083125679	 0.1039
H	 2.5117572103	-1.2134916855	 2.7673801694	 0.110927
H	 0.8901128557	-2.7808310448	 3.7555977726	 0.113144
H	 0.5096870585	-3.4520925232	 2.1576756957	 0.114239
H	 3.0411900437	-4.0558145175	 3.8127975009	 0.133061
H	 2.4231457427	-5.0492543751	 2.479152575	 0.129409
