21
gdb 81034	2.40323	1.79138	1.31135	1.6321	77.58	-0.2399	0.0829	0.3228	1059.436	0.182882	-424.213148	-424.20482	-424.203876	-424.245257	33.476	
C	-0.1256578027	 1.5298785769	-0.0994558818	-0.432816
C	 0.0186213835	 0.0155118015	-0.0078852413	-0.007482
C	 1.1882755227	-0.618466803	-0.8218055979	 0.104332
C	 2.0972472666	-0.4059005417	 0.4189315742	-0.328816
C	 0.7795798552	-0.5727208526	 1.2333270537	 0.418013
C	 0.6226068143	 0.0011327617	 2.6200374226	-0.474757
O	 0.4259718355	-1.9689436701	 1.2930849002	-0.314003
C	 0.9398908606	-2.7100190966	 0.2084974111	 0.018552
O	 0.9012504931	-2.0044818354	-1.0144971625	-0.277783
H	 0.8174426768	 2.0591370957	 0.0708806595	 0.114323
H	-0.4870969775	 1.8186228001	-1.0925592547	 0.120679
H	-0.8483872804	 1.9009274218	 0.6346256296	 0.122376
H	-0.9415126925	-0.4761171732	-0.185647088	 0.076281
H	 1.4691755974	-0.205895772	-1.7929090514	 0.07583
H	 2.9304560506	-1.0871716813	 0.5998077297	 0.106639
H	 2.4632809232	 0.6201149537	 0.4705624436	 0.108804
H	 0.8082109683	 1.0787882675	 2.6174766637	 0.115355
H	-0.3909323344	-0.1776919345	 2.9926820796	 0.128072
H	 1.3259132144	-0.471696663	 3.3125014521	 0.123335
H	 1.9748925818	-3.0199238678	 0.4247712255	 0.086181
H	 0.3163568435	-3.6009312278	 0.0944841527	 0.116885
