20
gdb 116792	4.17738	0.72661	0.65317	2.6296	80.55	-0.2356	0.0244	0.26	1748.7992	0.169358	-440.253967	-440.243985	-440.24304	-440.291224	33.835	
C	 0.3721430646	 1.2490980505	 0.1156335039	-0.249481
O	 0.0302297512	-0.123862107	-0.028937378	-0.191395
C	 0.6701249805	-0.779846631	-1.0146565241	 0.147696
N	 0.4635190356	-2.0069829718	-1.206290451	-0.220393
C	 1.2315377958	-2.642309866	-2.2567372636	-0.178096
C	 2.3850369093	-3.4373320109	-1.6601776905	 0.171308
C	 3.3879589318	-4.0789269465	-2.6437595557	-0.300491
C	 4.427792337	-3.1847515246	-1.9408683722	-0.05687
O	 3.4140936288	-2.5702899215	-1.1183789615	-0.293534
H	 1.4253962679	 1.3719172986	 0.3949269594	 0.132204
H	 0.1736810983	 1.8128922864	-0.8042539857	 0.124692
H	-0.2576878726	 1.6400280682	 0.9155789847	 0.145072
H	 1.3527910899	-0.1566860695	-1.6120676413	 0.07728
H	 0.5807901798	-3.3361722187	-2.8052971452	 0.102287
H	 1.647301	-1.9253320522	-2.9856276274	 0.080928
H	 2.0010361927	-4.113560815	-0.8863546478	 0.087611
H	 3.5330898293	-5.1554377348	-2.5461293448	 0.111772
H	 3.2058996855	-3.8345142489	-3.6929378212	 0.10781
H	 5.1708347363	-3.7215066143	-1.3374362345	 0.101458
H	 4.9482514982	-2.452058711	-2.5694152037	 0.100142
