16
gdb 43467	2.66418	1.8345	1.29021	2.1989	73.21	-0.2512	-0.0107	0.2406	970.2675	0.127594	-434.066441	-434.059521	-434.058576	-434.097706	27.685	
N	-0.1101230209	 1.2824966136	-0.2740632879	-0.532927
C	-0.0429239839	 0.0460924358	 0.0102080847	 0.411102
N	 1.0969171874	-0.6879664648	 0.3501657839	-0.39163
C	 1.0375164282	-2.0548151317	 0.6362565276	 0.411102
N	 2.0006862759	-2.8219547653	 0.9490213225	-0.532927
C	-0.3820992216	-2.5718506824	 0.5158672633	 0.027995
C	-1.0031962078	-2.1184220465	-0.8257923822	-0.262216
C	-1.2733576927	-0.8388057353	-0.0005626657	 0.027995
O	-1.2546169279	-1.638960762	 1.2170969764	-0.28813
H	 0.8061540134	 1.736066631	-0.2382105736	 0.207638
H	 1.9800874633	-0.2057934951	 0.4440684034	 0.241842
H	 2.8954308685	-2.3265150705	 0.9723974673	 0.207638
H	-0.4583176674	-3.6006277106	 0.8633434126	 0.111823
H	-0.3701021634	-2.0570403023	-1.7124042078	 0.121935
H	-1.9267585358	-2.656867162	-1.0388255059	 0.126937
H	-2.1803971354	-0.2520584618	-0.1344961387	 0.111823
