19
gdb 71035	3.75927	1.6122	1.33916	1.3577	79.17	-0.2483	0.0822	0.3306	982.1651	0.16108	-385.813072	-385.806194	-385.805249	-385.843776	29.197	
O	 0.0213949321	 1.3645027292	 0.0089459118	-0.471571
C	 0.0359371335	-0.0172209434	 0.0422824028	 0.367914
C	 0.6592806022	-0.9539650517	 1.1400826671	-0.424948
C	-0.0454150782	-1.8891337341	 0.137306738	 0.347227
C	-0.4542054835	-3.2732492532	-0.3192848878	-0.348442
C	-1.2423796747	-2.825986959	-1.6138309082	-0.223506
C	-1.0868181509	-1.2790048114	-1.5782853769	-0.07258
C	-1.2325226554	-0.8889960472	-0.0910700518	-0.092698
C	 0.361814895	-1.0262039406	-1.10508669	-0.132033
H	 0.9312340394	 1.6789887754	-0.0267315965	 0.28158
H	 1.7526035545	-1.0083734147	 1.1866341662	 0.087238
H	 0.2295859305	-0.8833329592	 2.1442835573	 0.097649
H	 0.3937058456	-3.9239451322	-0.553060561	 0.099644
H	-1.0943012897	-3.7967572221	 0.3970678215	 0.100868
H	-0.8096477835	-3.2578247258	-2.5220532776	 0.098026
H	-2.2931814188	-3.1310022023	-1.5755392158	 0.099
H	-1.5537902973	-0.7143004003	-2.3868054834	 0.061599
H	-2.1264663553	-0.8448683163	 0.5343024461	 0.065938
H	 1.3019657647	-1.1407770611	-1.6501697117	 0.059093
