23
gdb 123269	10.02364	0.36773	0.35949	3.5267	80.95	-0.2506	0.077	0.3276	2946.3588	0.20283	-462.539443	-462.527567	-462.526623	-462.578539	39.814	
O	-0.1842765268	 1.4403360972	 0.0114686635	-0.419274
C	-0.0272737719	 0.0297883466	 0.0021660565	-0.071639
C	-1.4175017833	-0.5911726492	 0.0123723805	-0.182671
C	-1.3799699019	-2.1128175419	 0.0037310085	-0.05382
O	-2.7059498508	-2.5933464587	 0.0138796978	-0.245176
C	-2.7902578005	-4.0012107084	 0.0072923964	-0.05382
C	-4.259929393	-4.3972089619	 0.0190245713	-0.182671
C	-4.4606437048	-5.9065515247	 0.0135861961	-0.071639
O	-5.8577168301	-6.1564454397	 0.0245424999	-0.419274
H	 0.6903310797	 1.8397281398	 0.0049634333	 0.285207
H	 0.5259774247	-0.3031079435	-0.891904763	 0.084131
H	 0.5433550372	-0.3128660792	 0.8815091671	 0.084127
H	-1.9583743332	-0.246914429	 0.9001337558	 0.116607
H	-1.9755843525	-0.2373489778	-0.8608558832	 0.116611
H	-0.8457675263	-2.4827844572	-0.889723636	 0.081655
H	-0.828706069	-2.4924218218	 0.8826581713	 0.081654
H	-2.2851459215	-4.4105814152	-0.8858917182	 0.081661
H	-2.2684892594	-4.4198646807	 0.8864961866	 0.081648
H	-4.7424032957	-3.9736282381	 0.9061398472	 0.116604
H	-4.7588021955	-3.9652110689	-0.8548636141	 0.116613
H	-3.9849443204	-6.3452663572	-0.8794549043	 0.084121
H	-3.9695186702	-6.3537173144	 0.8939834876	 0.084137
H	-5.9923613049	-7.1084739459	 0.0218508652	 0.285207
