20
gdb 66184	2.71352	1.41649	1.24793	1.3451	78.47	-0.2492	0.0214	0.2706	1108.4937	0.171689	-403.15383	-403.145311	-403.144367	-403.187306	32.447	
C	 0.1267626286	 1.5018467006	-0.1092605152	-0.418053
C	-0.0326055882	-0.021327303	 0.0002810864	 0.25148
C	 0.735764258	-0.7702550492	-1.134792428	-0.142543
O	 1.8229718261	-1.4472480406	-0.4566206641	-0.221292
C	 1.6164576156	-1.2123607014	 0.8579896016	 0.115956
N	 0.6514958355	-0.4832354402	 1.2330056953	-0.294915
C	-1.5107963663	-0.3926919322	 0.0200667374	-0.008962
C	-2.0021897282	-1.6703736299	 0.6483245156	-0.283818
C	-2.3158188186	-0.3392800007	 1.2901854432	-0.27057
H	 1.1844747141	 1.7799206838	-0.1500381241	 0.11524
H	-0.3637640994	 1.8776086945	-1.0140635829	 0.109247
H	-0.3241955975	 1.9909968353	 0.7575382063	 0.132182
H	 0.123618361	-1.5277889026	-1.6324173004	 0.118076
H	 1.1688213341	-0.1024025701	-1.8839291875	 0.115357
H	 2.3368274676	-1.6894384312	 1.5142721444	 0.140219
H	-2.0282079982	-0.0790804598	-0.8842312909	 0.078584
H	-2.8007490733	-2.2122372595	 0.1535930151	 0.105395
H	-1.2734438234	-2.2954548474	 1.1516583257	 0.119104
H	-1.7816553565	-0.1002035068	 2.2020970627	 0.133984
H	-3.331887881	 0.0362574005	 1.2405546394	 0.105329
