21
gdb 37289	2.98891	1.6671	1.57793	0.2231	84.11	-0.2268	0.074	0.3008	974.6052	0.185859	-349.865593	-349.858862	-349.857918	-349.896222	29.417	
C	 0.0456597472	 1.420781764	 0.2588956042	-0.287447
C	 1.3671041318	 0.7187407057	 0.1486875915	-0.073083
C	 0.0319456362	-0.076104654	 0.1570840251	-0.073083
C	 0.3796560333	-0.6665953021	-1.2316850192	-0.024155
C	 0.0094901996	-0.0872754018	-2.6462702464	-0.032056
C	-0.7780692245	 1.240215803	-2.8296576876	-0.245349
C	 0.5682847229	 2.0417461042	-2.8380874992	-0.245351
C	 1.3615872215	 0.7176706291	-2.6547683781	-0.032057
C	 1.7075616231	 0.1239377271	-1.24003856	-0.024154
H	-0.1595324315	 1.7761034053	 1.2656904172	 0.107686
H	-0.3486936757	 2.0751743972	-0.5008373191	 0.112431
H	 2.0975389931	 0.8084208074	 0.9448139981	 0.080958
H	-0.3876349031	-0.6710552119	 0.9604398244	 0.080958
H	 0.423146002	-1.7568805087	-1.2091576575	 0.06667
H	-0.2007540548	-0.8619310049	-3.3866113729	 0.059428
H	-1.2931479864	 1.2827458686	-3.7929573	 0.095434
H	-1.510109413	 1.4854363215	-2.0585014552	 0.105818
H	 0.7674662837	 2.5095375861	-3.8058468778	 0.095433
H	 0.7087512273	 2.8063655362	-2.0723695451	 0.105821
H	 2.1358911106	 0.5291558656	-3.4013035022	 0.059428
H	 2.6454728469	-0.4338774977	-1.2231346502	 0.066669
