18
gdb 11414	3.65411	1.51194	1.21354	4.0856	67.96	-0.2432	0.0616	0.3047	1030.6973	0.156119	-381.180649	-381.172715	-381.171771	-381.213074	29.633	
C	 0.0538906381	 1.5167380404	 0.1090493918	-0.395132
C	-0.0275247425	-0.0107215432	 0.0460373807	-0.173208
C	-1.460465447	-0.5465357765	-0.1079843974	 0.035931
C	-1.5259715892	-2.0962554526	-0.0795342541	-0.182617
N	-1.7712571191	-2.355441612	 1.3306675457	-0.337925
C	-2.401003121	-1.2707436626	 1.9314263589	 0.426913
O	-2.9004664625	-1.2398159735	 3.0334973012	-0.410881
N	-2.3409233422	-0.2306530013	 1.0125230565	-0.339666
H	 1.0930896595	 1.8516466153	 0.1734531797	 0.123274
H	-0.3894076726	 1.9764624078	-0.7817228786	 0.117453
H	-0.466803519	 1.9153676219	 0.986403591	 0.11696
H	 0.5592165633	-0.3708757949	-0.8087808395	 0.098354
H	 0.4192033732	-0.4513577678	 0.9454872284	 0.115922
H	-1.8858254224	-0.1638389559	-1.0431966546	 0.084263
H	-2.3406292326	-2.4625586188	-0.7200972219	 0.106345
H	-0.5889960153	-2.5469737545	-0.4204995755	 0.112252
H	-2.0435194696	-3.2706238383	 1.6516690313	 0.251655
H	-2.4175504989	 0.7060956066	 1.3743036264	 0.250109
