21
gdb 108639	2.60031	1.37627	0.98154	1.4222	85.91	-0.2076	0.0332	0.2407	1252.9283	0.182438	-387.089577	-387.080387	-387.079443	-387.123678	34.737	
C	 0.2281221353	 1.5452566791	-0.1281236595	-0.499912
C	 0.0543658464	 0.0602546192	-0.0219333423	 0.191162
C	-1.0649378886	-0.6777413234	 0.0671649507	 0.214916
C	-2.5113895332	-0.2891346998	 0.1212397301	-0.184191
O	-2.7000571494	 1.1019021954	 0.3184383801	-0.409753
C	-0.7582699784	-2.1453338349	 0.0513302013	-0.115692
C	-0.112240343	-2.6618318653	-1.2204532688	-0.2799
C	 0.7495883213	-2.2508077557	-0.0549497655	-0.042221
C	 1.292006684	-0.8277567929	-0.0265785464	-0.30106
H	 0.8608453616	 1.9172175123	 0.6893472785	 0.112861
H	 0.7498617476	 1.8058675819	-1.0589448644	 0.1115
H	-0.723288476	 2.0712363227	-0.1012303799	 0.153589
H	-3.000404549	-0.626354706	-0.8107518535	 0.098881
H	-2.9884563494	-0.864792539	 0.9350160669	 0.091956
H	-3.6438447162	 1.279582106	 0.2791091221	 0.288009
H	-1.3508384032	-2.8269921399	 0.6542639972	 0.075854
H	-0.1825995313	-3.7251320333	-1.4271253786	 0.103851
H	-0.1482381554	-2.024912126	-2.09929846	 0.106852
H	 1.2875885514	-3.0292000023	 0.4730224007	 0.081418
H	 1.9443424634	-0.6065305463	-0.8826892295	 0.101634
H	 1.9003417421	-0.6469414017	 0.8714830308	 0.100244
