16
gdb 47323	2.95867	1.34043	1.01669	4.7652	66.28	-0.2582	-0.0036	0.2546	1128.9489	0.125615	-475.079978	-475.071909	-475.070964	-475.113521	29.487	
O	-0.0658424244	-0.0889570496	-0.0003359095	-0.348277
C	-0.0313406337	 1.1245886101	 0.0091358341	 0.371803
C	-1.3048968984	 1.9760549033	-0.052494915	-0.179794
O	-1.6093631493	 2.7221275424	 1.1334498653	-0.222775
C	-0.8731287569	 3.7355815532	 1.6557524332	 0.390622
O	-1.3900238645	 4.4399224598	 2.478011642	-0.30053
C	 0.6030872303	 3.9279817623	 1.3024979382	-0.309716
C	 1.1920701535	 3.2929691543	 0.040907969	-0.209145
N	 1.1260003808	 1.8432151688	 0.0405796964	-0.289585
H	-1.2868914697	 2.6438780802	-0.9226452183	 0.125471
H	-2.1364675262	 1.282147683	-0.1628634355	 0.157254
H	 0.7583728781	 5.0103460085	 1.2826932773	 0.14671
H	 1.1530280883	 3.5555292336	 2.1754446988	 0.152299
H	 0.7124936052	 3.7005791034	-0.8578881294	 0.128259
H	 2.2461767263	 3.5731092025	-0.02470418	 0.129897
H	 1.9755034405	 1.3017436441	 0.0948518134	 0.257508
