13
gdb 4990	3.48046	2.2793	1.37732	2.4716	62.71	-0.2298	-0.0073	0.2225	817.6815	0.097533	-398.660109	-398.653608	-398.652663	-398.69047	25.11	
O	 0.0807207393	 1.3678440328	-0.0859021592	-0.434914
C	 0.0625591368	 0.0170804191	-0.0585178064	 0.349936
C	-0.0233149544	-0.7237268663	-1.2296060043	-0.214146
C	-0.0381931267	-2.113909358	-1.139405649	 0.004092
N	 0.0253483542	-2.7892819534	 0.0092421477	-0.278133
C	 0.1080804099	-2.0682182205	 1.1317211027	-0.098732
C	 0.1299768094	-0.681810976	 1.1549560062	 0.207274
O	 0.2135861338	 0.0883596188	 2.2856568509	-0.467871
H	 0.1449192548	 1.6812963131	 0.8259534622	 0.313457
H	-0.076866995	-0.2159564667	-2.1853488212	 0.109929
H	-0.1048821366	-2.7109472462	-2.0451105874	 0.107537
H	 0.1597191505	-2.6217197946	 2.0701020538	 0.094109
H	 0.255244544	-0.4772674722	 3.0633365739	 0.307462
