15
gdb 124012	3.76507	1.59587	1.1341	3.6243	75.54	-0.2072	-0.0205	0.1867	1002.9408	0.116168	-416.812529	-416.80589	-416.804946	-416.843614	26.151	
C	 0.0903226474	 1.4506999234	 0.3334477399	-0.221963
N	 1.1315293245	 2.1409073477	-0.4295216194	-0.405764
C	 2.1838106413	 1.4254374552	-0.9300109792	 0.410894
N	 3.3278475847	 1.9248749718	-1.3317410237	-0.269173
O	 4.0388029734	 0.8071572037	-1.8376577781	-0.183891
C	 3.2816443928	-0.2914010677	-1.7026114072	-0.037555
C	 2.0879002163	 0.0093364674	-1.1315168623	 0.121168
C	 0.8867596723	-0.6840617324	-0.7258089233	-0.170702
C	-0.0520236164	-0.0017903381	-0.0572077946	-0.086306
H	 0.2767817156	 1.5085098682	 1.4224042976	 0.114382
H	-0.8624549085	 1.9692190939	 0.1646459966	 0.121925
H	 1.3249958221	 3.0962232093	-0.1710555767	 0.252744
H	 3.7228207251	-1.2126997254	-2.0518944959	 0.147999
H	 0.7549462773	-1.7346306899	-0.9615805371	 0.10179
H	-0.9612992679	-0.4906800071	 0.2762670133	 0.104451
