23
gdb 41189	2.68333	1.67605	1.50724	0.0867	89.88	-0.2235	0.0751	0.2986	1032.1068	0.2098	-351.077791	-351.070615	-351.069671	-351.108728	31.405	
C	-0.0119560683	 1.6063353857	-0.2321843093	-0.30086
C	 1.5598405302	 1.4490342905	 0.0046205611	-0.326156
C	 1.1783487189	 0.2257698074	 0.9123530653	 0.33537
C	 1.2264169192	-1.3388179437	 0.9903551421	-0.32041
C	-0.3699586226	-1.2526504032	 0.8674538599	-0.08881
C	-1.0057781574	-1.0343916963	 2.2392949856	-0.195712
C	-0.5802390397	 0.333142193	 2.8046884116	-0.193421
C	 0.8429663521	 0.7175703797	 2.3533027888	-0.236582
C	-0.0380062498	 0.0591081713	 0.0425858033	 0.053703
H	-0.4692456099	 2.2261849177	 0.5410817632	 0.110882
H	-0.3443330145	 1.9532651308	-1.2138340053	 0.094441
H	 2.0610602111	 1.1639772388	-0.9245805614	 0.101309
H	 2.0913953763	 2.2880186697	 0.4642305721	 0.091016
H	 1.6673245481	-1.8166012242	 0.1118612874	 0.096245
H	 1.6268487904	-1.797457023	 1.9015424034	 0.083662
H	-0.8559180264	-2.0641894754	 0.3192394544	 0.062288
H	-2.0982809279	-1.085567043	 2.1692064133	 0.092388
H	-0.6999330802	-1.8499615648	 2.9069508337	 0.094232
H	-1.2783605489	 1.0883907023	 2.4277261834	 0.10217
H	-0.6659451822	 0.3565554254	 3.8960935236	 0.087848
H	 1.5895516228	 0.2827322409	 3.0298330584	 0.092279
H	 0.9645688354	 1.8025461041	 2.4329659885	 0.088814
H	 0.3214254035	-0.3511826437	-0.9111315529	 0.075304
