16
gdb 66394	2.30083	1.50461	1.28608	5.2359	74.33	-0.2579	-0.0301	0.2277	1056.8194	0.123324	-400.758962	-400.750599	-400.749655	-400.792058	30.743	
C	-0.061694381	 1.5725574647	 0.0069288503	-0.502031
C	 0.0586576695	 0.0769720545	-0.0113756577	 0.191727
C	 0.6365899509	-0.9336269528	-1.0346781371	-0.109412
C	 1.2072150647	-1.8277345756	 0.0756064448	-0.371407
C	 0.6737566719	-0.7722380199	 1.0795676839	 0.372956
O	 0.8732581154	-0.5650486783	 2.2398925859	-0.296689
C	-0.8518557115	-0.8053411977	-0.8766680563	-0.228834
C	-1.6740673579	-1.8649796824	-0.3479342392	 0.303181
N	-2.3303245874	-2.7212453886	 0.0691170658	-0.338373
H	 0.8732651679	 2.0298174223	 0.344374633	 0.142957
H	-0.2991245336	 1.9669318626	-0.985704829	 0.127914
H	-0.8530761629	 1.8869140531	 0.6946478551	 0.151796
H	 1.1181542719	-0.7069019328	-1.9767862234	 0.119966
H	 0.8147057839	-2.8447824164	 0.1460504461	 0.151835
H	 2.2997254053	-1.8536512016	 0.1046722334	 0.140601
H	-1.3455370173	-0.232989641	-1.6574361554	 0.143813
