17
gdb 109048	2.91265	1.31731	1.02368	1.1724	68.67	-0.2485	-0.0115	0.2371	1152.5718	0.135789	-458.934533	-458.926316	-458.925371	-458.967491	31.136	
O	 0.1578114168	 1.3851761041	 0.0062970684	-0.408731
C	 0.0171606215	-0.0146478213	 0.1668582624	-0.164761
C	-1.401776457	-0.4923274945	 0.1611338521	 0.225964
C	-2.5129897408	 0.2505678362	 0.1349284	-0.200473
C	-3.7189349394	-0.6229145982	 0.009056445	 0.006533
O	-3.7278601113	-1.4173736683	-1.2144054442	-0.273047
C	-3.2509719668	-2.0099988389	 0.001478932	-0.005306
C	-1.7199102205	-1.9893385831	 0.0662087773	 0.017946
O	-1.1228470402	-2.5975168047	-1.0690340552	-0.430644
H	-0.1851258287	 1.6109023667	-0.8648543976	 0.284579
H	 0.5794563704	-0.5798714583	-0.5932585256	 0.118042
H	 0.4847659705	-0.2537794739	 1.1316316084	 0.12639
H	-2.5493974096	 1.3320255192	 0.1655382963	 0.110062
H	-4.7012632832	-0.3213239004	 0.3570996742	 0.104932
H	-3.8199219428	-2.857841277	 0.3710048636	 0.104668
H	-1.345706617	-2.5418194114	 0.9361507638	 0.093357
H	-1.6216267918	-2.2626028262	-1.827018171	 0.290488
