19
gdb 14967	4.31485	1.46797	1.15475	1.7878	73.13	-0.2382	0.035	0.2732	1077.6962	0.166753	-365.093094	-365.08499	-365.084046	-365.1261	29.725	
C	 0.1380369838	 1.519709793	-0.0688034397	-0.366321
C	-0.057258765	 0.0101587298	 0.0441289842	-0.262631
C	-1.4998304216	-0.4273719418	 0.0777647767	 0.407452
N	-2.4636119825	 0.3953655407	 0.0942680006	-0.312462
C	-3.8330662425	-0.1057859749	 0.0717508253	-0.150945
C	-3.9376893888	-1.5550573282	-0.4116400148	-0.231276
C	-2.8620755706	-2.3673662838	 0.2950894148	-0.068138
O	-1.5670740466	-1.7923884946	 0.0854674564	-0.262326
H	 1.2044475341	 1.7643034072	-0.0820118494	 0.102533
H	-0.3190157388	 1.9069052745	-0.9827826206	 0.125389
H	-0.3293193733	 2.038786092	 0.7711049484	 0.129456
H	 0.4260403951	-0.5138550795	-0.7902314094	 0.118948
H	 0.4293841152	-0.3808737758	 0.947180676	 0.118088
H	-4.2569441888	-0.009610382	 1.0813307458	 0.107168
H	-4.4255805236	 0.5586997787	-0.5671872524	 0.108269
H	-4.9271727639	-1.9776296819	-0.2086192466	 0.101907
H	-3.7720127733	-1.6030064388	-1.4939693394	 0.113125
H	-3.0567470421	-2.4079147879	 1.3757366522	 0.107488
H	-2.7956542069	-3.3924460868	-0.0779998781	 0.114275
