17
gdb 6193	3.76847	1.66446	1.55603	4.3796	65.55	-0.25	0.0586	0.3086	903.2987	0.141887	-401.035194	-401.027358	-401.026414	-401.06718	29.428	
C	-0.0773687267	 1.5896281835	 0.0479420408	-0.436982
C	 0.0488867459	 0.0754540579	-0.0404016364	 0.347403
C	-1.3075947407	-0.6294596402	 0.0182353672	-0.421823
C	 0.9046228179	-0.40506714	-1.2282975423	-0.134061
O	 1.6562349572	-1.4897691651	-0.6825640201	-0.254135
C	 1.679090956	-1.3664175476	 0.6793153814	 0.482811
N	 2.355819884	-2.0535096907	 1.4859056887	-0.580206
O	 0.8502914455	-0.3769439713	 1.0778476986	-0.256431
H	 0.9101174322	 2.0564911055	 0.0881671027	 0.132022
H	-0.613811233	 1.9774379964	-0.823835219	 0.123905
H	-0.6321983751	 1.8763846449	 0.9451923916	 0.137756
H	-1.9561014937	-0.2830717228	-0.7927447192	 0.119638
H	-1.1855758247	-1.7125876727	-0.0753883029	 0.135367
H	-1.7995695387	-0.4197466121	 0.9713877142	 0.136996
H	 0.311063096	-0.7758873436	-2.0666496963	 0.124903
H	 1.5897197945	 0.3742809136	-1.5832752567	 0.113609
H	 2.9422524934	-2.7094361457	 0.9753570376	 0.229226
