22
gdb 115867	2.46809	1.35453	1.04124	2.1165	81.46	-0.2252	0.0755	0.3007	1236.2416	0.194784	-404.333981	-404.324822	-404.323878	-404.367583	35.279	
C	 0.0900947648	 1.4884041765	 0.0220654932	-0.47895
C	-0.0382001696	-0.0156176746	 0.0101574146	 0.331567
C	-0.6112604401	-0.7444365906	 1.1776257329	-0.298834
N	 0.8375522589	-0.7816343581	 0.9218923593	-0.137303
C	 1.2732728596	-1.9912535998	 0.1971196738	-0.163398
C	 0.3621184881	-2.1660758649	-1.0379898184	-0.248068
C	-0.1138574893	-0.7293712108	-1.3425070444	-0.012577
C	-1.4772871093	-0.6577354544	-2.0166225957	-0.098631
O	-1.3760418283	-1.3146327519	-3.2731662195	-0.422862
H	 0.94086158	 1.8124498189	-0.5883018279	 0.118023
H	-0.8109155049	 1.9676651293	-0.3777249295	 0.114056
H	 0.2460347926	 1.8537512797	 1.04023658	 0.126171
H	-0.8970853397	-0.1885342616	 2.0667057375	 0.108955
H	-1.1978538413	-1.6442292891	 1.0087894651	 0.104147
H	 2.3122547237	-1.8248739487	-0.1086589904	 0.105673
H	 1.2631525499	-2.8577605832	 0.8662271086	 0.102358
H	 0.881237282	-2.6200785252	-1.883759832	 0.112644
H	-0.494865663	-2.8106287502	-0.8154010796	 0.101338
H	 0.6070519788	-0.243479994	-2.013949115	 0.079582
H	-2.2316080563	-1.1404283948	-1.3740240859	 0.083875
H	-1.779781532	 0.393839254	-2.1450569818	 0.085915
H	-2.2369624348	-1.2829565264	-3.700287505	 0.286321
