19
gdb 106104	3.82776	1.1481	1.08884	1.7593	75.01	-0.2329	0.0748	0.3077	1188.6381	0.158756	-422.953926	-422.945544	-422.9446	-422.98695	32.034	
C	 0.0996551797	 1.6275032233	-0.0424525367	-0.421507
C	 0.0645698583	 0.1076029466	-0.0385530847	 0.027559
C	 0.8136418138	-0.6954502241	-1.1103884159	-0.197531
C	 2.233965645	-0.8677417878	-0.5450704212	 0.019845
O	 2.3103422121	-0.1635011568	 0.6925472033	-0.289197
C	 0.9698164785	-0.6663760351	 0.9657513777	-0.005028
C	 1.1498573211	-1.805270103	-0.1137969494	 0.27969
C	 0.9801676376	-3.2854919978	-0.1229345336	-0.215348
O	 1.7592087845	-3.940072227	 0.8679222535	-0.410178
H	 1.1322566162	 1.9840044072	-0.0335243025	 0.134216
H	-0.3985063687	 2.0284122866	-0.9317754786	 0.11175
H	-0.4122912541	 2.0350426355	 0.8365861941	 0.112172
H	-0.9587303265	-0.2743124439	 0.04375033	 0.076454
H	 0.591731802	-0.795621001	-2.1661759042	 0.089303
H	 3.1304500045	-0.99532878	-1.1385854538	 0.107116
H	 0.7511773367	-0.7595529313	 2.0274455082	 0.089059
H	-0.0588055069	-3.5593907474	 0.0940306897	 0.115213
H	 1.2046943119	-3.6630990382	-1.1349918282	 0.090853
H	 2.6641836845	-3.6231687857	 0.7768075225	 0.285561
