20
gdb 75148	3.10184	1.07429	1.03791	4.2807	85.39	-0.2466	0.015	0.2616	1279.8752	0.170721	-366.057504	-366.048332	-366.047388	-366.091143	34.684	
C	 0.4972301315	 1.4068476465	 0.1289518805	-0.495969
C	 0.0721640328	-0.0216940988	 0.0047362511	 0.335244
C	 0.1535801391	-0.8060932098	-1.0711500951	-0.166554
C	-0.4194126374	-2.1799696266	-0.8444020312	-0.29151
C	-0.5628519652	-2.2494768402	 0.7153506242	 0.135966
C	 0.6531996374	-2.9744434577	 1.3292673714	-0.427574
C	-0.5799599664	-0.749621055	 1.1606920611	-0.337564
C	-1.7907060921	-2.9430754852	 1.1121271968	 0.24738
N	-2.7587383655	-3.4918172343	 1.4265937461	-0.353499
H	 1.2438463369	 1.5316320053	 0.9234116677	 0.128032
H	 0.9256586021	 1.7819858983	-0.8041082682	 0.127687
H	-0.3510303666	 2.0495332061	 0.3969452392	 0.131133
H	 0.5525721127	-0.4984683754	-2.0318039249	 0.093262
H	-1.3908717364	-2.2955510452	-1.341232268	 0.127627
H	 0.2188861161	-2.9896964357	-1.2153177823	 0.113644
H	 1.5688145617	-2.4562543939	 1.0295599463	 0.12886
H	 0.596267295	-2.9809827996	 2.4210878266	 0.132506
H	 0.7085614174	-4.009632985	 0.9821217554	 0.133334
H	-0.0498342737	-0.6129504411	 2.1106502091	 0.111045
H	-1.6033129295	-0.3869213725	 1.3210764042	 0.126948
