19
gdb 44736	2.73792	1.67506	1.47791	2.7829	78.48	-0.2344	-0.0088	0.2256	973.0758	0.162341	-385.933296	-385.926308	-385.925364	-385.964648	28.887	
O	 0.0066286473	-0.086675938	 0.2488640447	-0.309718
C	-0.0130081655	 1.0996930558	 0.0215924024	 0.395827
C	-1.3400675093	 1.8624670123	-0.0935968932	-0.303707
C	-1.2400731794	 3.0962360758	-1.0251796631	-0.062727
C	-0.0608324243	 3.9710307909	-0.550839959	-0.216846
C	 1.1293277181	 3.129388674	-1.0568343038	-0.062727
C	 1.2886429376	 1.8992499231	-0.1287138019	-0.303707
C	 0.5998247187	 2.6744056539	-2.4110228122	-0.071447
C	-0.7344093665	 2.6557420428	-2.3931993801	-0.071447
H	-2.0995745326	 1.1474855138	-0.4219232882	 0.12149
H	-1.6240407227	 2.1847440274	 0.9185235511	 0.119536
H	-2.1966559567	 3.6249404803	-1.0530721578	 0.069603
H	-0.0811217731	 4.9438904328	-1.0506447344	 0.100137
H	-0.0486590236	 4.1347792482	 0.531871263	 0.088202
H	 2.0696599604	 3.6846347619	-1.1100701675	 0.069603
H	 1.5904194607	 2.2297246843	 0.8755811822	 0.119536
H	 2.0588146832	 1.2056728272	-0.477474452	 0.12149
H	 1.2363264884	 2.3319369284	-3.2185985066	 0.098452
H	-1.3824255307	 2.295303745	-3.1836151235	 0.098452
