21
gdb 63847	2.85141	1.54046	1.49698	1.0307	77.91	-0.2318	0.088	0.3197	1029.989	0.181885	-424.21625	-424.207823	-424.206879	-424.249157	33.749	
C	-0.0448583744	 1.5568948575	 0.0118816134	-0.397213
C	 0.0131734102	 0.0286170955	 0.0006938218	 0.439636
C	-1.3862878606	-0.5853414744	 0.0614008565	-0.397213
O	 0.6229282216	-0.3816732061	-1.2343651977	-0.325137
C	 1.8227967577	-1.1305966996	-1.1286022787	 0.126869
C	 1.6605207171	-2.271342956	-0.0876216016	-0.266229
C	 1.9179140435	-1.1421599153	 0.9467640933	 0.126868
C	 2.7993457902	-0.4525225917	-0.1296897486	-0.266234
O	 0.7330416667	-0.3952135162	 1.1701531142	-0.325132
H	 0.9626176734	 1.9755708749	-0.031292196	 0.117889
H	-0.6100105723	 1.9172700336	-0.8519245928	 0.119862
H	-0.529615161	 1.9073959127	 0.9270866646	 0.11984
H	-1.975769196	-0.2619323339	-0.8007809002	 0.119839
H	-1.3235882637	-1.6753585851	 0.0517288961	 0.11789
H	-1.8936418524	-0.2729295722	 0.9781450274	 0.119863
H	 2.1353332208	-1.3499500974	-2.150668856	 0.077887
H	 0.7085675179	-2.8027054601	-0.0469042179	 0.104728
H	 2.4896495042	-2.9819845895	-0.1296234543	 0.101686
H	 2.3225388574	-1.3726627002	 1.9334564872	 0.077887
H	 3.7998029145	-0.8895446178	-0.1779353869	 0.101687
H	 2.8620676651	 0.6366395011	-0.1265415539	 0.104728
