13
gdb 130553	3.72252	1.33898	0.98476	1.7248	74.89	-0.2667	-0.0726	0.1942	1103.445	0.089661	-415.608532	-415.601096	-415.600152	-415.640919	27.133	
O	 0.0128824492	-0.0290513318	 0.0040390933	-0.311646
C	-0.0160727141	 1.1789574583	 0.0076682956	 0.298969
C	 1.1600220929	 2.0136273105	 0.0014978035	 0.247995
C	 2.2045883455	 2.6075041965	-0.0044358867	-0.375635
N	-1.2417949839	 1.8724482937	 0.0184212867	-0.032862
C	-2.4860295106	 1.2928132262	 0.0257526687	 0.014086
C	-3.3888853685	 2.3184350172	 0.0351119625	-0.251301
C	-2.5942406193	 3.5007463924	 0.0326778789	 0.015531
N	-1.3032483014	 3.2339600844	 0.0226788293	-0.243922
H	 3.1187961792	 3.1498290761	-0.0099438869	 0.218456
H	-2.5866437728	 0.2208685473	 0.0234849614	 0.167786
H	-4.4640157742	 2.2416110595	 0.0426333935	 0.122509
H	-2.9268567221	 4.5289463996	 0.0379343102	 0.130036
