19
gdb 106484	2.65343	1.61556	1.24876	3.4554	74.87	-0.2435	-0.0172	0.2263	1049.9835	0.160845	-423.035752	-423.028006	-423.027062	-423.067888	30.843	
O	 0.0631562822	 1.3939348663	-0.056978546	-0.426049
C	 0.0564719305	-0.0207162816	-0.0058516548	-0.189059
C	-1.3498979961	-0.5751089141	-0.0349677366	 0.209838
C	-2.3054332721	-0.5471222326	-1.2845691745	-0.264591
C	-3.0947827736	-1.6140407425	-0.4733762956	-0.029399
C	-1.7123578802	-2.0993962738	 0.0491960784	-0.286156
C	-3.6156478154	-0.7888295656	 0.7206802443	-0.327321
C	-2.3124262217	-0.0218010269	 1.0065002727	 0.422189
O	-2.0965615949	 0.8340753057	 1.830416582	-0.367889
H	-0.4209780998	 1.6880232501	 0.7263100978	 0.297443
H	 0.6264392582	-0.3723315767	-0.8730021278	 0.104606
H	 0.5707694444	-0.3970947424	 0.8944891514	 0.091764
H	-2.8010995459	 0.3940636735	-1.5358651564	 0.110714
H	-1.8095680039	-0.9609014069	-2.1657843484	 0.109819
H	-3.7939795903	-2.2971034731	-0.9530651326	 0.075686
H	-1.1592439642	-2.6805162041	-0.6927085711	 0.110681
H	-1.6647991836	-2.5906789134	 1.0257790639	 0.103359
H	-4.432104277	-0.1033558729	 0.473006536	 0.12794
H	-3.9229336566	-1.391186129	 1.5815136073	 0.126426
