16
gdb 125313	3.57816	1.15006	0.87589	5.1222	78.9	-0.2222	-0.0306	0.1916	1269.9847	0.124972	-434.112382	-434.103862	-434.102918	-434.145535	31.25	
C	-0.0549507708	 1.5561989102	 0.0156469357	-0.518965
C	-0.0130938134	 0.0627655828	-0.0202756826	 0.123706
C	-0.0123629473	-0.7783005112	-1.0926956845	-0.083351
N	 0.0138951054	-2.0694440533	-0.6143903983	-0.023547
C	 0.0218344754	-3.2188556449	-1.3974778516	 0.185579
O	 0.0455913989	-4.3451305487	-0.9855522362	-0.277914
N	 0.0404546477	-2.1027661394	 0.7551765618	-0.324637
C	 0.0170040793	-0.8320163535	 1.1089353471	 0.349279
N	-0.0465983075	-0.4524896149	 2.4359187469	-0.581774
H	 0.8501923994	 1.979780053	 0.4695407865	 0.128432
H	-0.1403962871	 1.9744720361	-0.9903654701	 0.133267
H	-0.9076640944	 1.9159333543	 0.6029763727	 0.141965
H	-0.0341247077	-0.5772908138	-2.1528751479	 0.14549
H	 0.0040104456	-2.9459313932	-2.4700970319	 0.086538
H	 0.1759570775	-1.2040232065	 3.0745505025	 0.263124
H	 0.4473902989	 0.399002283	 2.6599209	 0.252808
