17
gdb 48691	2.84968	1.18802	0.98023	3.0104	80.88	-0.248	-0.0228	0.2252	1221.8659	0.134331	-384.640087	-384.631714	-384.63077	-384.673287	31.695	
O	-0.1881429092	 0.0310155145	 0.1859012918	-0.266983
C	-0.0461559098	 1.2212166896	 0.0313073057	 0.052948
C	 1.2496652114	 1.9060488693	 0.0063426875	 0.290654
C	 1.3843672375	 3.3825325768	 0.3226412654	-0.347441
C	 1.7297664845	 2.9415771954	-1.0517324727	-0.090775
C	 3.1204600513	 2.2652691005	-1.0819219603	-0.175693
C	 2.6138390655	 1.2192932198	-0.0155664156	-0.31975
C	 3.499361471	 1.698454887	-2.3604001879	 0.299292
C	 3.802770432	 1.2279315066	-3.4242616407	-0.434355
H	-0.9220517763	 1.8953231772	-0.1202233109	 0.06325
H	 0.4466348418	 3.9213217141	 0.4206682633	 0.128523
H	 2.1578590563	 3.6944757255	 1.0202912636	 0.122478
H	 1.1926990415	 3.2788904298	-1.9291329324	 0.11687
H	 3.917537929	 2.9234999898	-0.7172813242	 0.108005
H	 3.1613131865	 1.1959320453	 0.9305081867	 0.107741
H	 2.5556343863	 0.2122628054	-0.4273187163	 0.146279
H	 4.0779532406	 0.8106687033	-4.361145483	 0.198957
