21
gdb 58639	2.60168	1.32993	1.03371	1.3497	77.6	-0.2625	0.0716	0.334	1224.7055	0.180686	-424.18686	-424.17724	-424.176296	-424.221487	36.241	
C	 0.062752573	 1.6732300192	-0.2352416649	-0.424757
C	 0.0687050736	 0.1519556563	-0.0768047229	 0.057672
O	 0.9138294111	-0.2401143801	 1.0081800166	-0.430299
C	-1.2976089075	-0.5162915122	 0.0617186974	 0.304096
C	-2.3192398996	 0.0194514938	 1.0380172343	-0.323114
C	-2.5648939387	 0.129892501	-0.446051217	-0.315548
C	-1.2078981324	-2.0120896863	-0.0877028729	 0.022784
C	-1.0590889865	-2.9217441709	 1.0510955557	-0.16559
O	-2.3133709405	-2.791633319	 0.3696092118	-0.246856
H	 1.0969973754	 2.0260009397	-0.2493743781	 0.128756
H	-0.4183142252	 1.984432614	-1.1667203121	 0.121455
H	-0.4481945924	 2.1698621531	 0.5974025847	 0.113293
H	 0.5631523007	-0.2756087416	-0.9594051377	 0.087349
H	 0.4719495511	 0.0309029485	 1.82094088	 0.276068
H	-2.9057928441	-0.7099469902	 1.5842393104	 0.133935
H	-2.0929265901	 0.9282743348	 1.5857229032	 0.105056
H	-2.5093968509	 1.110240313	-0.9036857914	 0.112294
H	-3.3137276205	-0.5276902851	-0.8737981757	 0.127071
H	-0.8071083022	-2.341929013	-1.0491837816	 0.091588
H	-0.5573240732	-3.8791465349	 0.9233504908	 0.116927
H	-1.033865261	-2.5101008202	 2.0579600995	 0.107821
