10
gdb 29	80.28766	3.3688	3.3688	0.	42.32	-0.2412	0.0684	0.3096	400.2236	0.083896	-155.908941	-155.90318	-155.902236	-155.937641	17.447	
C	-0.01787959	 1.4667689295	 0.0101118041	-0.493535
C	 0.0018664364	 0.0107291322	 0.0021110887	 0.060147
C	 0.0181970373	-1.1927286061	-0.0045072299	 0.060149
C	 0.0379517014	-2.6487679252	-0.0125119251	-0.493535
H	 0.8646031176	 1.8758997916	 0.514797188	 0.144462
H	-0.0321762362	 1.8721058086	-1.0079100178	 0.144462
H	-0.9023311457	 1.8518552354	 0.5300395321	 0.144462
H	-0.8347701131	-3.0633900659	 0.5045143637	 0.144462
H	 0.0327642194	-3.0431556444	-1.0349122341	 0.144462
H	 0.932134863	-3.0393164157	 0.4862660603	 0.144462
