17
gdb 61040	2.69151	1.214	0.97649	5.6935	71.29	-0.2491	0.0104	0.2596	1223.1209	0.135615	-455.180007	-455.170862	-455.169918	-455.214949	31.859	
C	 0.2758283137	 1.388497855	-0.0245769577	-0.351581
N	-0.1279922164	-0.0056279226	 0.0835912289	-0.062389
C	-0.4007459197	-0.5356204555	 1.3205811276	 0.147189
O	-0.3170622167	 0.0759126451	 2.3639342795	-0.340887
C	-0.1619795123	-0.7809520421	-1.121742636	-0.110908
C	 1.1514005704	-1.4728879591	-1.6375124114	-0.176229
N	 0.4065251518	-2.7321032274	-1.6102043473	-0.314482
C	-0.7579182912	-2.2301300806	-1.0936461464	 0.397408
O	-1.8061740627	-2.7265159355	-0.7859369527	-0.352273
H	 1.3055183812	 1.4782965555	-0.3915416589	 0.124787
H	-0.3867038816	 1.9259398126	-0.712960476	 0.128177
H	 0.2108490539	 1.8301436032	 0.9694079649	 0.174536
H	-0.7258319497	-1.5868985067	 1.26415553	 0.112366
H	-0.6379062439	-0.1974477078	-1.9178736537	 0.118213
H	 1.4893149815	-1.1688641838	-2.6327350336	 0.119264
H	 1.9810356781	-1.426974616	-0.925596465	 0.125042
H	 0.6484098934	-3.6664958444	-1.9040473522	 0.261768
