23
gdb 122115	2.11442	0.83106	0.62931	2.1795	84.2	-0.2417	-0.0283	0.2134	1855.3479	0.201808	-425.438096	-425.426601	-425.425657	-425.476341	39.473	
C	 0.2511687111	 1.5242777281	 0.0418005807	-0.383825
C	 0.1021988699	 0.0221042375	-0.2112573882	-0.183865
C	-1.3042557115	-0.4791875292	 0.0825501822	-0.047259
O	-1.3550471132	-1.8720213352	-0.1840405255	-0.25691
C	-2.6179151212	-2.4587769249	 0.0481760549	 0.047557
C	-2.6490739625	-3.8327469543	-0.6381797047	-0.195428
C	-2.4670382562	-3.7382049531	-2.1546505613	-0.388759
C	-2.8551607121	-2.6446980209	 1.5448945448	 0.133485
O	-3.9383068022	-2.7578920592	 2.05567	-0.246738
H	 1.2687108184	 1.8591022137	-0.1781761033	 0.120091
H	-0.4325752654	 2.1055320308	-0.586545791	 0.11839
H	 0.0372225812	 1.7771902165	 1.08606653	 0.119085
H	 0.343796359	-0.2150664668	-1.253693601	 0.108777
H	 0.8090456432	-0.5407904268	 0.4089485338	 0.10844
H	-1.5708171998	-0.2735928813	 1.1332201777	 0.091532
H	-2.0426874004	 0.0494913003	-0.5433226088	 0.092444
H	-3.4288649666	-1.8306954344	-0.3547098114	 0.086364
H	-1.8571925388	-4.4550717852	-0.2032637883	 0.108444
H	-3.6045331533	-4.306621601	-0.3891896234	 0.119213
H	-1.5215272483	-3.2487769018	-2.3990461055	 0.135132
H	-2.4675608135	-4.7341306999	-2.6072974337	 0.115721
H	-3.2770435503	-3.1606727839	-2.6134146296	 0.114988
H	-1.9093404976	-2.707884959	 2.1336037817	 0.083122
