17
gdb 76390	2.10393	1.55678	1.33017	4.7138	65.76	-0.2197	0.012	0.2317	1049.4706	0.135536	-492.28941	-492.28034	-492.279396	-492.322563	35.011	
N	 0.0574576988	 1.2219989106	 0.1338377649	-0.532879
C	 0.0444962177	-0.11130514	-0.0322570713	 0.458884
O	 1.0840052459	-0.783167134	-0.1614160083	-0.460291
C	-1.300558125	-0.7499406916	-0.0536351096	 0.026235
N	-2.4267381601	 0.1386953912	 0.1064354005	-0.603633
C	-1.3937110386	-2.0144597703	-0.960900366	 0.060931
O	-0.3715872008	-2.3774882488	-1.8109819428	-0.424569
C	-1.329394771	-2.1994020702	 0.5199383765	 0.060938
O	-0.2423648774	-2.7490649199	 1.1644432633	-0.424559
H	 0.9358770614	 1.7108490945	 0.1575744346	 0.266216
H	-0.8257577255	 1.6984649085	 0.2326397572	 0.273614
H	-3.0442646799	 0.120242095	-0.6972320584	 0.241553
H	-2.9746507019	-0.0845399876	 0.9295389675	 0.241553
H	-2.3647756839	-2.1391055619	-1.4346236099	 0.105681
H	 0.4555320662	-2.0370118569	-1.4259481728	 0.30232
H	-2.2577329223	-2.446914344	 1.0296907888	 0.105686
H	 0.5524591364	-2.3158226845	 0.8054806659	 0.302319
