18
gdb 71848	2.81941	1.96943	1.6869	1.1814	75.49	-0.2283	-0.004	0.2242	888.8068	0.149642	-401.904339	-401.897542	-401.896598	-401.93497	28.63	
C	 0.0472186252	 1.5217357498	-0.0832644091	-0.501957
C	-0.0841283219	 0.0275023055	-0.0468291118	 0.474219
O	 0.315043415	-0.641291203	-1.2304537087	-0.322375
C	-0.5002899876	-1.7994561296	-0.8275813202	 0.017813
C	 0.4146730274	-2.6931358023	-0.0495827224	-0.075701
C	 0.962907344	-2.0774456857	 1.0073890547	-0.067181
C	 0.3596581957	-0.7369131435	 1.318950807	-0.137
N	-1.1119871909	-0.9312273199	 1.5677925331	-0.29835
C	-1.3491317879	-0.8258251295	 0.1398992393	-0.107901
H	 1.1014183675	 1.8085778403	-0.1643213925	 0.130331
H	-0.4860332434	 1.9347532997	-0.9444452111	 0.126987
H	-0.3611032093	 1.9602009003	 0.831374572	 0.135372
H	-1.0032475297	-2.2465905691	-1.6852555877	 0.071542
H	 0.6529395609	-3.6999026006	-0.372499285	 0.100193
H	 1.7319284564	-2.511427878	 1.6377425334	 0.099659
H	 0.8742438119	-0.159843175	 2.0892834018	 0.065486
H	-1.3345860155	-1.8324799344	 1.9894460129	 0.208058
H	-2.3585997279	-0.5817550551	-0.1974973157	 0.080806
