19
gdb 39987	4.2226	1.41034	1.34015	1.3275	79.68	-0.2218	0.0969	0.3187	1020.098	0.161038	-385.829239	-385.822565	-385.821621	-385.860036	28.341	
C	-0.0457919243	 1.4953130253	 0.0343532778	-0.341079
C	 1.2918193946	 0.7646738104	 0.0489664994	-0.341079
C	 0.0084925257	 0.0030798489	-0.0526322529	 0.46561
O	-0.4251846307	-0.7685109039	 1.065354373	-0.3169
C	-1.0256590873	-1.8805893771	 0.4277229712	 0.128822
C	-0.1793127907	-2.3362637732	-0.7996046726	-0.083033
C	-1.4817082974	-2.7544086424	-1.5172041145	-0.261179
C	-1.8456268788	-1.4260858226	-0.8178110338	-0.083033
C	-0.4415832804	-0.8441063062	-1.2129721511	-0.131687
H	-0.3892205345	 1.9187013314	 0.9715698657	 0.123848
H	-0.3200330999	 2.0608341263	-0.8504175274	 0.111186
H	 1.9306599918	 0.8314458195	-0.8258281468	 0.111186
H	 1.8177964979	 0.7131673946	 0.9956824032	 0.123848
H	-1.4186520123	-2.5854346807	 1.1591433049	 0.084823
H	 0.7838159419	-2.8469240885	-0.7823088129	 0.074085
H	-1.4598022041	-2.7361540548	-2.6095681543	 0.096544
H	-1.9792533115	-3.6579988715	-1.1525574566	 0.092706
H	-2.7958960899	-0.8916090883	-0.8214216878	 0.074085
H	-0.2458257103	-0.5060756571	-2.2304355245	 0.071247
