17
gdb 45030	2.40383	1.67052	1.16352	3.0216	72.8	-0.2428	-0.0281	0.2147	1054.799	0.136412	-421.86737	-421.859662	-421.858718	-421.900186	29.501	
O	-0.0745137756	 0.8024875581	 1.3513742426	-0.307575
C	-0.0431579363	 1.359763543	 0.2799067091	 0.357367
C	-1.3015341494	 1.6972736692	-0.5085656775	-0.310736
C	-1.329938334	 3.1655717023	-0.9059872874	-0.046316
C	-0.8143075071	 4.1883416422	 0.0519558731	-0.298493
C	-0.0177329882	 3.8682982902	-1.2148665124	-0.122485
C	 1.2708592411	 3.1310775695	-1.1069520476	 0.387687
O	 2.2914616352	 3.5483789738	-1.6021630799	-0.321221
C	 1.2623601468	 1.7762027247	-0.3778313535	-0.404411
H	-1.3178771927	 1.0730676165	-1.4130581283	 0.123862
H	-2.1697973249	 1.4321677004	 0.1002485266	 0.131281
H	-2.1688729852	 3.4511308059	-1.5323154936	 0.106651
H	-1.27813252	 5.1668777614	 0.0868682046	 0.132986
H	-0.4193267544	 3.8505653574	 1.0049006759	 0.143475
H	-0.0053302531	 4.6362736842	-1.9793742879	 0.113124
H	 2.0780661297	 1.7322255145	 0.3474215772	 0.155198
H	 1.4950336179	 1.0348824466	-1.156146491	 0.159606
