23
gdb 107840	3.29489	1.33215	1.27366	0.0878	88.73	-0.2642	0.0879	0.3521	1143.2666	0.208283	-351.133841	-351.126031	-351.125087	-351.165939	32.444	
C	 0.0533620444	 1.50874059	-0.029533952	-0.382909
C	-0.0332415801	-0.0197329287	 0.0711256611	-0.299947
C	-1.4492915893	-0.5548594897	 0.0225363068	 0.361531
C	-2.3524226056	-0.4112867784	-1.241567787	-0.277082
C	-3.0895142482	-1.6157737439	-0.6455588452	-0.027524
C	-3.4183982723	-1.332069105	 0.8875590277	-0.042503
C	-2.5139182289	-2.5401680916	 1.2519391698	-0.239944
C	-1.7563201971	-2.1254184084	-0.0170623258	-0.074775
C	-2.4559208952	-0.1517054099	 1.1291978214	-0.24486
H	 1.0943708707	 1.8458505997	-0.0118199615	 0.110271
H	-0.397579198	 1.8699971451	-0.959963104	 0.118177
H	-0.4676632633	 1.9945155819	 0.801855818	 0.117886
H	 0.5487935875	-0.4689143032	-0.7443568166	 0.09011
H	 0.4434205274	-0.3522996398	 1.0035229148	 0.092069
H	-2.8821128222	 0.5350595694	-1.3965280122	 0.08423
H	-1.8266882739	-0.6929954315	-2.1602376199	 0.089336
H	-3.7735728015	-2.256840813	-1.2009877179	 0.060841
H	-4.4415087745	-1.2493096607	 1.2544822658	 0.056617
H	-2.0098208269	-2.5310342855	 2.2246095377	 0.083827
H	-3.016935849	-3.5014005565	 1.1075044562	 0.092783
H	-1.0440923531	-2.7584848961	-0.5474138879	 0.057516
H	-2.0318615426	-0.1611444809	 2.1389610788	 0.085695
H	-2.8996840583	 0.8322657068	 0.951128312	 0.088655
