14
gdb 16410	3.7284	2.30183	1.81814	4.3421	56.68	-0.2502	-0.0035	0.2467	730.6206	0.109238	-419.687148	-419.681191	-419.680247	-419.717221	23.004	
O	 0.0050330261	 0.0180595383	-0.3016973962	-0.328755
C	 0.0343840139	 1.1696068724	 0.0250856611	 0.454508
O	-1.1015278181	 1.8145457816	 0.4057744572	-0.243521
C	-1.0255322873	 3.1983871283	 0.8112806073	-0.069268
C	 0.3748229778	 3.7515103751	 0.6156525882	 0.069638
C	 0.950994642	 3.350904138	-0.7577279018	-0.258702
C	 1.2714532741	 2.0594444447	 0.0238791583	-0.056236
O	 1.2845951319	 2.816896014	 1.265952183	-0.286232
H	-1.7656267886	 3.7510382746	 0.2221609269	 0.122961
H	-1.3051471847	 3.2442322897	 1.8687343433	 0.133512
H	 0.4733197727	 4.7766474966	 0.9810472275	 0.097221
H	 0.2814526577	 3.2954276957	-1.6181821261	 0.124245
H	 1.8557820693	 3.9083318154	-1.000669651	 0.12771
H	 2.1788590632	 1.4847614756	-0.1561982475	 0.112918
