16
gdb 33429	2.76109	1.09101	0.82765	4.2801	73.94	-0.2596	-0.02	0.2397	1342.0821	0.123925	-396.910314	-396.90131	-396.900366	-396.945038	31.907	
N	 0.7297849268	-1.0488765516	-0.1880916691	-0.312786
C	 0.3822912071	 0.0497588756	-0.1067909891	 0.299635
C	 0.0072905465	 1.4851884994	 0.0055578159	-0.247912
N	 1.1244218007	 2.4077811278	 0.1430574682	-0.282886
C	 1.8154321437	 2.3502423763	 1.4094545555	 0.050498
C	 2.8230722436	 1.2759218915	 1.7678156513	-0.272128
C	 3.2738310939	 2.6861791439	 1.4600434415	-0.293357
C	-0.8228708939	 1.8662543275	-1.1525148091	 0.306
N	-1.4684297452	 2.17354508	-2.0582005193	-0.296113
H	-0.6168676689	 1.5858880358	 0.9032131024	 0.181102
H	 1.7574888869	 2.3257437534	-0.6444573233	 0.245385
H	 1.1983235183	 2.7320228788	 2.2192409392	 0.108442
H	 2.8590011654	 0.9297886534	 2.7947670801	 0.124338
H	 3.033567723	 0.5102747509	 1.0304567744	 0.137935
H	 3.7853559424	 2.8544631252	 0.5172697365	 0.122637
H	 3.6243190697	 3.318941642	 2.2669609749	 0.12921
