20
gdb 11790	3.99291	1.61933	1.50283	1.8083	73.93	-0.2343	0.0783	0.3125	946.0883	0.178518	-348.98922	-348.981833	-348.980889	-349.020724	29.361	
C	-0.149949406	 1.5347989955	-0.0008067437	-0.385056
C	 0.0887389021	 0.0190418775	-0.022082546	-0.296164
C	 0.7592088529	-0.5215493873	 1.2233648352	 0.307847
C	 0.1172081809	-0.4666639848	 2.6555741276	-0.26814
C	 1.2029134883	-1.535815132	 2.9187224957	 0.105721
C	 0.9366325616	-2.0568877451	 1.4887247233	-0.279851
O	 2.4320101654	-0.8036959582	 2.781309164	-0.280786
C	 2.1831691709	-0.0495492556	 1.5747621261	-0.106982
H	 0.7901683201	 2.0925867763	 0.0563816236	 0.120061
H	-0.6714858825	 1.8595490765	-0.9061219442	 0.114526
H	-0.7622860572	 1.826678299	 0.8589159673	 0.120997
H	-0.8707591315	-0.4961289278	-0.1564832028	 0.096761
H	 0.6983109155	-0.2442848278	-0.897451468	 0.097521
H	 0.1858798286	 0.4633068892	 3.2256342605	 0.096873
H	-0.9003532144	-0.8627123965	 2.6725349925	 0.09616
H	 1.2470815325	-2.1640429802	 3.8067276276	 0.076655
H	-0.0011544831	-2.6073607557	 1.3888298719	 0.096009
H	 1.7546048151	-2.5810134741	 0.9871450505	 0.095906
H	 2.9220895355	-0.3081755343	 0.8055474199	 0.094578
H	 2.2516271451	 1.0239856456	 1.785519379	 0.097363
