16
gdb 18493	6.14118	1.2597	1.16121	4.4896	69.04	-0.2327	0.0247	0.2574	1018.5607	0.13124	-342.742038	-342.73485	-342.733906	-342.773913	26.756	
N	 0.0664097315	-1.1500172503	-0.1933376085	-0.304447
C	 0.0239455796	-0.0144082795	 0.0132730801	 0.276438
C	-0.039085575	 1.4325416019	 0.2487700244	-0.292452
N	 1.256698389	 2.0545481259	 0.0297823563	-0.081735
C	 1.7865211761	 2.1718990009	-1.3646767551	-0.184762
C	 1.9740395518	 3.6765420497	-1.1555433344	-0.064782
C	 0.642123289	 4.3055783478	-0.8362155076	-0.295066
C	 1.3561097649	 3.5012192213	 0.2211324721	-0.007363
H	-0.8518216545	 1.8396966301	-0.3798516519	 0.128467
H	-0.3308712796	 1.6015710318	 1.2920791739	 0.155498
H	 2.709056123	 1.5988521482	-1.4884353324	 0.125585
H	 1.0799066357	 1.8886975415	-2.1560638392	 0.107772
H	 2.847726754	 4.2475440276	-1.4367706775	 0.102868
H	 0.6611211664	 5.3794549051	-0.6793327985	 0.121103
H	-0.2655551532	 3.9408453275	-1.3108498081	 0.110439
H	 1.6446437513	 3.9085440504	 1.1840240163	 0.102436
