16
gdb 66032	2.62948	1.25916	1.13411	4.0627	75.4	-0.2805	-0.0055	0.275	1136.6241	0.121846	-400.70763	-400.698555	-400.697611	-400.741913	32.807	
C	-0.2586876093	 1.5860110346	 0.0139707022	-0.432357
C	-0.0165406195	 0.0850449855	 0.0346712241	 0.25842
O	 1.1155204664	-0.2971625293	-0.7749556247	-0.297023
C	 1.8319728265	-0.8492889014	 0.3483459202	-0.080125
C	 0.6609283132	-0.5408777537	 1.3196202255	-0.303787
C	 0.922923726	 0.3289468789	 2.4428259932	 0.337433
C	 1.1549923407	 1.0513344841	 3.3753035052	-0.443959
C	-1.2240531731	-0.64988085	-0.3773942991	 0.267178
N	-2.1741443516	-1.2332326741	-0.6817201904	-0.335039
H	 0.6354117422	 2.1071603561	 0.3609040687	 0.14049
H	-0.4873476756	 1.903030678	-1.0067514145	 0.147046
H	-1.0976629936	 1.8509460714	 0.6631897875	 0.144303
H	 2.0536608638	-1.9122882801	 0.2122885758	 0.12561
H	 2.7549662957	-0.2991164028	 0.5536686105	 0.123629
H	 0.1393543911	-1.4420937651	 1.6481064447	 0.13811
H	 1.355314367	 1.6840260377	 4.2048522209	 0.210071
