15
gdb 52378	5.12638	0.60167	0.55549	3.6282	70.9	-0.2806	-0.0734	0.2071	1849.7868	0.108583	-457.758528	-457.748806	-457.747862	-457.795385	32.363	
O	 0.3045041631	 0.01929764	-0.2559715925	-0.270004
C	 0.278236075	 1.2108147098	-0.309891305	 0.168302
O	 0.9018308242	 1.9951824394	 0.5909485177	-0.17989
C	 0.8210744887	 3.4144621715	 0.424024998	-0.093096
C	 2.2203300579	 3.9727284197	 0.1908000269	-0.313014
C	 2.2141883189	 5.4850148064	 0.0604666671	 0.226486
O	 1.1951881262	 6.1409907524	 0.1102196515	-0.28829
C	 3.5151657647	 6.0993062553	-0.1319248581	 0.246548
C	 4.6041501355	 6.5863954865	-0.2913325026	-0.374662
H	-0.2529453031	 1.793449744	-1.0886220265	 0.08046
H	 0.1564751113	 3.6691698674	-0.4089964221	 0.130302
H	 0.3840510725	 3.8307755332	 1.3345479421	 0.143971
H	 2.8907160413	 3.6879496845	 1.0108314026	 0.154963
H	 2.6667133871	 3.5446796687	-0.7161012713	 0.146446
H	 5.5584352067	 7.0340449313	-0.432286918	 0.221479
