18
gdb 88065	2.32262	1.38707	1.08894	3.9048	73.1	-0.2388	-0.0327	0.2061	1172.3518	0.145085	-439.030184	-439.02117	-439.020226	-439.064635	32.197	
C	-0.1229763324	 1.2929247591	-0.2137263588	-0.322107
N	 0.0702684946	-0.1324284172	 0.0185272443	-0.108216
C	 1.4344578666	-0.649635639	-0.0961254769	-0.310915
C	 0.7667487663	-0.5362185643	 1.2189686517	 0.266559
C	 1.130024123	 0.2897831434	 2.4529694354	-0.14805
O	 0.6109469167	-0.7498655617	 3.3129283122	-0.291889
C	 0.2721508463	-1.6091416282	 2.2029782741	-0.037722
C	-1.2139345287	-1.9012289868	 2.1265846815	 0.161275
O	-1.6755910161	-2.9014924253	 1.6460789839	-0.237798
H	 0.724096488	 1.915788284	 0.1178069856	 0.104058
H	-0.2689431383	 1.4585420879	-1.2848319041	 0.135292
H	-1.0242225033	 1.6286448969	 0.3085063713	 0.131261
H	 1.5389338115	-1.6146509272	-0.5851256781	 0.130849
H	 2.2352252359	 0.061241803	-0.3025981171	 0.112923
H	 2.1994833829	 0.4642320782	 2.6215174916	 0.113816
H	 0.5862707904	 1.23452336	 2.5765485655	 0.113597
H	 0.8371551395	-2.5484731939	 2.2061204131	 0.105037
H	-1.847998443	-1.0903069491	 2.5504204448	 0.08203
