16
gdb 43390	2.3495	2.03982	1.23801	6.5886	72.23	-0.2177	-0.0381	0.1797	979.2277	0.126535	-437.889098	-437.881715	-437.880771	-437.921428	27.856	
O	 0.0650568523	-0.0972297395	-0.1451386457	-0.353977
C	-0.0345666565	 1.1116268009	-0.0286477271	 0.374991
C	-1.2863721622	 1.8407804589	-0.02176425	-0.245577
C	-1.3241729897	 3.1988752293	-0.0179068792	 0.031944
N	-0.2323585805	 4.0072541931	 0.011401593	-0.298368
C	 1.0791833283	 3.4822571516	 0.3014775703	-0.057499
C	 1.4636159861	 3.1944096074	 1.7751165672	-0.085056
O	 1.7908313911	 1.8287113422	 1.4585408147	-0.272956
C	 1.250246432	 1.9500461882	 0.118909186	-0.002353
H	-2.2067005569	 1.2755920111	-0.0927963693	 0.103685
H	-2.2718844092	 3.7268700419	-0.0752943562	 0.127423
H	-0.3729497574	 5.0001049606	 0.0893231919	 0.255054
H	 1.8306178526	 4.0715065055	-0.2281081994	 0.105751
H	 2.3227803009	 3.7421346771	 2.178598373	 0.10854
H	 0.6190454456	 3.271863818	 2.4722924067	 0.107801
H	 1.9742601435	 1.6183796438	-0.6324696859	 0.100598
