16
gdb 39846	2.99508	1.76821	1.40193	2.6283	67.51	-0.2545	0.0466	0.3011	927.9152	0.125281	-437.808051	-437.801374	-437.80043	-437.839023	26.912	
C	-0.1040424027	 1.470185292	-0.0054544973	-0.272708
N	 1.1958619299	 0.7823173729	 0.0606668351	-0.362776
C	-0.0435339227	-0.0111308689	 0.0069207133	 0.328781
C	-0.3262646312	-0.8721881929	 1.2168466594	-0.051153
O	-1.6826559483	-1.3032772639	 1.3516837679	-0.235479
C	-0.7524487023	-2.2067602834	 0.7562434507	 0.003814
C	-0.7733859076	-2.1917337123	-0.7682606114	 0.006902
O	-1.7215111696	-1.2779189352	-1.3205305408	-0.231078
C	-0.3629692476	-0.8467246006	-1.2117503765	-0.085386
H	-0.3857321665	 2.0050725136	 0.8967493563	 0.131005
H	-0.3980912252	 1.9549777954	-0.9326964129	 0.122412
H	 1.6492771151	 0.7905570687	-0.8508103888	 0.234626
H	 0.2159216498	-0.6776887555	 2.1384740691	 0.108752
H	-0.557186024	-3.1294179974	 1.2943212728	 0.103346
H	-0.5910420035	-3.1017590341	-1.3319990887	 0.103478
H	 0.1409888363	-0.6365039484	-2.1548665382	 0.095463
