14
gdb 20196	3.63996	3.15874	2.37541	1.9896	64.4	-0.2411	-0.014	0.2271	623.7316	0.110574	-341.559913	-341.554708	-341.553764	-341.588787	21.673	
C	-0.0246834369	 1.4686322862	 0.0433361182	-0.065888
C	 1.2157988686	 1.984761125	 0.026688893	-0.067057
C	 2.2450820288	 0.8636245927	-0.0306996972	-0.080055
N	 2.4957094593	 0.6720973041	 1.4286948386	-0.205205
C	 1.6456551784	-0.2111735963	 1.7997439143	 0.054479
N	 0.8994132929	-0.9051669398	 0.826460671	-0.172383
C	 0.0131985594	 0.0133974817	-0.1589510036	-0.059644
C	 1.4087133035	-0.3698076773	-0.4415840338	-0.052058
H	-0.938092968	 2.0167131452	 0.2378085885	 0.106216
H	 1.4866632699	 3.0113048473	 0.2382323603	 0.118882
H	 3.1621028069	 1.0575607819	-0.5855360124	 0.083429
H	 1.4764685324	-0.4599590692	 2.8432574911	 0.124211
H	-0.8432830019	-0.551710687	-0.5017244921	 0.1151
H	 1.7123007268	-1.0757976343	-1.2079537359	 0.099974
