21
gdb 103476	2.30662	1.61401	1.18597	1.0439	78.64	-0.2368	0.0734	0.3102	1136.8323	0.180277	-424.185027	-424.175342	-424.174398	-424.218784	36.662	
C	 0.0889175205	 1.1796248096	-0.3366523864	-0.249121
O	-0.0537643033	-0.1034954595	 0.242017223	-0.284368
C	-1.3377074782	-0.6596912058	 0.1204744293	 0.358629
C	-2.4079217967	 0.0251811766	 0.9476479115	-0.472153
C	-1.7898167338	-1.2632811299	-1.1964194623	-0.188399
C	-0.5936910714	-1.8390255497	-1.9651845794	-0.230313
C	-0.243530309	-2.748100481	-0.7444660648	-0.289024
C	-1.4337267571	-2.1508391586	 0.01367277	 0.313705
O	-2.2970558978	-2.9035920963	 0.7957672742	-0.458185
H	 1.1565101762	 1.4136809679	-0.333425135	 0.124328
H	-0.2794907518	 1.2002005061	-1.3719306172	 0.110745
H	-0.4395229904	 1.955230159	 0.2352382011	 0.108292
H	-2.6045139569	 1.0398465126	 0.5876056558	 0.117691
H	-3.3429754434	-0.536608496	 0.9092096739	 0.137454
H	-2.0911475332	 0.0947006539	 1.9941679024	 0.11614
H	-2.7604027595	-1.0267270676	-1.6179538598	 0.085715
H	-0.8963193295	-2.4153754076	-2.841703953	 0.102594
H	 0.1745191396	-1.1208295386	-2.2620161268	 0.100905
H	-0.4079912662	-3.8061503866	-0.9587986675	 0.105416
H	 0.7397948293	-2.610958843	-0.2886633276	 0.103355
H	-1.9720103774	-2.8924332954	 1.7033430984	 0.286594
