20
gdb 89592	4.22209	0.92442	0.88894	1.7602	85.19	-0.2262	0.0466	0.2728	1394.5867	0.169676	-365.938041	-365.928897	-365.927953	-365.972094	34.922	
C	-0.0967814049	 1.5973484807	 0.172508584	-0.403792
C	-0.0069907835	 0.0803847946	 0.0902603665	 0.042096
C	 0.9474024949	-0.5639687651	-0.9866453133	-0.288507
C	 1.6849758455	-1.2843863996	 0.1508299608	 0.37504
C	 2.3125718661	-2.6542538841	 0.1014657099	-0.492277
C	 3.5508407371	-2.692854334	-0.6748515951	 0.317
C	 4.5627100038	-2.7081295592	-1.3224750102	-0.449927
N	 2.2152225033	-0.2073174176	 1.0187847117	-0.361383
C	 0.8037853876	-0.654902372	 1.1713263934	-0.139485
H	 0.8980703291	 2.028746769	 0.3102712566	 0.138798
H	-0.5311104464	 2.0151086486	-0.7422725369	 0.109648
H	-0.7264455591	 1.9112235549	 1.0128175942	 0.107163
H	-1.0051061692	-0.3612832863	 0.0075963663	 0.070815
H	 0.4219981797	-1.2418718181	-1.66365512	 0.098518
H	 1.5634517796	 0.1284474787	-1.5649151626	 0.108801
H	 2.507880611	-3.0007079506	 1.1257933447	 0.125745
H	 1.5945111804	-3.3658558871	-0.3279910563	 0.135246
H	 5.4592029046	-2.7227710859	-1.8911506264	 0.197789
H	 2.7516549008	-0.6533949174	 1.7633727974	 0.223655
H	 0.4520308396	-1.0368977892	 2.1235092353	 0.08506
