20
gdb 97362	2.01131	0.85886	0.6249	3.3012	89.3	-0.2455	0.0262	0.2716	1839.6103	0.16677	-403.122927	-403.111538	-403.110594	-403.162234	38.119	
C	-0.0072104388	 0.9078692842	 0.7965103184	-0.313815
N	-0.2163003511	-0.0501983852	-0.2681516487	-0.208213
C	-1.1690945649	-0.8596709367	-0.136918015	 0.137044
O	-1.4318375069	-1.7694029535	-1.0997597057	-0.205583
C	-2.5396019265	-2.656961611	-0.8485019327	-0.060856
C	-2.8168559785	-3.3710409711	-2.1702322165	-0.39137
C	-2.2521015687	-3.5879010688	 0.2437140127	 0.133432
C	-2.0138181896	-4.3550195996	 1.1407576896	 0.013608
C	-1.7201063185	-5.2814055551	 2.2239751837	-0.497956
H	-0.0790884739	 1.9257511867	 0.3958927629	 0.125687
H	-0.7207003407	 0.8154071296	 1.6323582998	 0.093851
H	 1.006670546	 0.7967943106	 1.1980606985	 0.126229
H	-1.8472949957	-0.8996652467	 0.728873388	 0.080079
H	-3.4152096638	-2.0478328849	-0.5791728628	 0.10676
H	-3.0294571905	-2.6351951366	-2.9495643447	 0.130309
H	-1.9455518974	-3.9592857156	-2.4667120906	 0.141744
H	-3.6738608792	-4.0398865358	-2.0614985718	 0.127638
H	-2.3461757469	-5.0827338784	 3.1005276029	 0.151116
H	-1.8935690881	-6.3183972656	 1.9168619298	 0.153274
H	-0.6734486862	-5.1986352066	 2.5361552021	 0.157018
