17
gdb 85096	2.02271	1.59651	1.25395	2.7347	77.01	-0.2403	0.0137	0.254	1097.8057	0.133395	-417.961032	-417.951472	-417.950527	-417.995068	35.44	
C	-0.3214111627	 1.4208881511	 0.0524401336	-0.395925
C	 0.0211442948	-0.0553634771	-0.0392441436	 0.012139
N	 1.2358411066	-0.391220726	-0.8156651001	-0.339515
C	 1.9867038391	-0.7721353547	 0.2757377504	 0.327274
N	 3.1888825706	-1.0276999882	 0.5682835251	-0.558351
C	 0.7625898363	-0.6798413084	 1.2118904956	 0.118221
O	 0.9578078751	 0.2366109542	 2.2642193163	-0.45116
C	 0.2188875718	-1.952645518	 1.6672566154	 0.328091
C	-0.2375267579	-3.0011116567	 2.036982162	-0.475145
H	 0.5244739366	 1.9990489791	 0.4295875996	 0.13334
H	-0.6070819422	 1.8042271516	-0.9333284591	 0.112398
H	-1.1666692047	 1.5721677936	 0.7301001777	 0.137428
H	-0.8444582682	-0.6432004952	-0.3575402856	 0.095682
H	 1.5615726013	 0.0465258602	-1.6659284462	 0.240674
H	 3.8204132476	-0.9196754338	-0.2263993924	 0.213929
H	 1.8445373185	 0.0655677548	 2.6075637686	 0.300933
H	-0.6297196724	-3.9292411866	 2.3728705426	 0.199986
