22
gdb 117348	2.67097	0.77867	0.69457	1.3472	80.08	-0.222	-0.0142	0.2078	1735.2246	0.190703	-441.479157	-441.467883	-441.466939	-441.516894	39.166	
C	 0.5777858532	 0.4380992883	-0.7811375254	-0.321449
N	-0.4132720418	-0.3163886026	-0.0254791301	-0.057039
C	 0.1573011138	-0.8764555854	 1.1904837606	-0.312987
C	-1.6071206326	 0.4734197855	 0.2319772203	-0.237228
C	-2.4849910588	 0.6803344191	-1.0075394192	 0.351415
O	-3.015839105	 1.748924445	-1.2153657591	-0.305841
C	-2.6991675909	-0.5205275573	-1.9075297462	-0.27346
C	-3.6446166926	-0.2364084207	-3.0641603649	-0.074879
O	-3.7570741454	-1.4346682457	-3.8193319348	-0.426239
H	 1.4205516542	-0.2111055558	-1.0368681926	 0.1222
H	 0.1413950539	 0.8090801082	-1.7137963277	 0.124977
H	 0.9700688298	 1.3096729322	-0.2239538962	 0.099823
H	 0.5079956336	-0.1068717324	 1.9038511419	 0.09612
H	-0.5859068035	-1.498006351	 1.6991839958	 0.119632
H	 1.0123704577	-1.5102917984	 0.9351623586	 0.121
H	-2.2274590469	-0.0686206276	 0.9589779136	 0.117893
H	-1.3995727211	 1.4698043683	 0.6608527946	 0.100862
H	-1.7296670536	-0.8716152842	-2.2777171531	 0.144344
H	-3.0795333342	-1.3526888147	-1.3001019174	 0.127365
H	-4.6190258052	 0.0923663357	-2.6753277607	 0.098587
H	-3.2478898071	 0.5907436058	-3.6702451791	 0.098763
H	-4.3575619274	-1.2683406424	-4.5515838688	 0.286141
