19
gdb 99482	2.55408	1.05275	0.84099	1.4337	78.33	-0.2588	0.0049	0.2637	1444.8254	0.155661	-423.028853	-423.018133	-423.017189	-423.065852	36.989	
C	 0.2454286556	 1.6598907067	 0.3103754842	-0.396327
C	 0.2487934693	 0.132985432	 0.3812789938	-0.169933
C	 0.4373058579	-0.5349523969	-0.9977323016	-0.263616
C	 1.71906909	-0.1987871488	-1.6163119093	 0.348308
C	 2.7856782732	 0.0741905835	-2.098192494	-0.484806
C	 0.3241488252	-2.0625055509	-0.8833743212	 0.446644
O	 0.4393906218	-2.6918170719	 0.1353555104	-0.352899
O	 0.0730379301	-2.6075698579	-2.0854788544	-0.230499
C	-0.0075184211	-4.0394395008	-2.105694353	-0.242161
H	 1.1870831975	 2.0382991514	-0.0977345821	 0.132678
H	-0.5673919683	 2.0288883657	-0.3254624164	 0.112724
H	 0.1098845743	 2.0908177652	 1.3065802501	 0.116919
H	 1.0399301071	-0.222968098	 1.0468249991	 0.125959
H	-0.6947361583	-0.2308527995	 0.8015445788	 0.107361
H	-0.3637466038	-0.2098047988	-1.6748236332	 0.126363
H	 3.7227726611	 0.3166389633	-2.5349455176	 0.200996
H	 0.9336644767	-4.4811363602	-1.7691572527	 0.144396
H	-0.813094281	-4.3888531264	-1.4550897541	 0.141801
H	-0.2079528171	-4.3097431976	-3.1422235267	 0.136092
