21
gdb 38444	3.76179	1.25331	1.16399	1.8697	81.27	-0.2372	0.0811	0.3183	1139.7304	0.184566	-387.062752	-387.054897	-387.053953	-387.095491	30.899	
C	 0.1412569358	 1.5304082605	 0.1488051245	-0.290882
C	 1.4092082705	 0.7425805199	-0.0088709224	-0.03277
C	 1.7378607648	 0.0053155337	 1.2948355386	-0.2964
C	 0.3543352777	-0.738093338	 1.1986646117	 0.340106
C	 0.4702478566	-2.2614501648	 1.0526512118	-0.30592
C	 0.4587330922	-2.7295692711	 2.5133104475	-0.066809
O	-0.2690642848	-1.742392113	 3.2490667079	-0.266937
C	-0.6004033855	-0.6539012575	 2.3914663565	-0.119944
C	 0.0489918662	 0.0448058282	-0.0817919167	-0.121684
H	-0.1229705006	 1.9669370087	 1.1089509829	 0.106594
H	-0.1366606781	 2.1414299034	-0.7042241938	 0.111213
H	 2.109729432	 0.943153517	-0.8098698673	 0.085299
H	 2.5830142212	-0.6822448579	 1.2083427524	 0.10093
H	 1.8940561275	 0.6388755568	 2.1745894198	 0.096581
H	-0.4082504008	-2.6457183548	 0.5201431516	 0.101463
H	 1.3599376225	-2.5819191626	 0.5047017857	 0.101891
H	-0.0213751971	-3.7070514895	 2.6417126001	 0.098388
H	 1.4776521473	-2.8006761946	 2.920366813	 0.095209
H	-0.5052048204	 0.2735319082	 2.9653754586	 0.099108
H	-1.645441768	-0.7346435541	 2.04842643	 0.084587
H	-0.4648597793	-0.3657702185	-0.9441168726	 0.079977
