19
gdb 73418	2.63039	2.30772	1.609	1.4932	76.88	-0.2325	0.0924	0.3248	891.2591	0.161195	-385.850923	-385.844187	-385.843243	-385.881513	28.571	
C	 0.0177883915	 1.4508742983	-0.0453259521	-0.47526
C	-0.0259106164	-0.0574905411	-0.0008418012	 0.469968
O	 0.3466723649	-0.585246643	-1.2681237692	-0.321123
C	-0.1349293927	-1.9360313476	-1.3429380181	-0.092425
C	-0.8623036126	-2.1723564109	-0.0187196693	-0.068538
C	 0.061025209	-2.151141501	 1.2105755021	-0.083488
C	-0.6891745191	-1.0218432837	 1.8708077572	-0.10993
C	 0.641661525	-0.7317483576	 1.2139458429	-0.129027
C	-1.3336763194	-0.7671834786	 0.4651182073	-0.140155
H	 1.0321786825	 1.7977732397	-0.2665289506	 0.124067
H	-0.6488069344	 1.8301232707	-0.8255525822	 0.120149
H	-0.2865468212	 1.8713798354	 0.9174039325	 0.119481
H	-0.7980999038	-2.0290815205	-2.2139807586	 0.093577
H	 0.7077463335	-2.6266361914	-1.4794537044	 0.097309
H	-1.6083952102	-2.9676830918	-0.0216316159	 0.070285
H	 0.5860682428	-2.9776991878	 1.6719343337	 0.085455
H	-1.0339852112	-0.8759576708	 2.882524888	 0.091742
H	 1.592312891	-0.5010496573	 1.6782059946	 0.081551
H	-2.3188012892	-0.3648714909	 0.2391990733	 0.066363
