16
gdb 18545	4.17777	1.90934	1.52181	2.8948	69.88	-0.2288	-0.02	0.2087	836.7495	0.131723	-346.626141	-346.619638	-346.618694	-346.656982	25.4	
O	 0.069778039	 0.2067055861	-0.9798912422	-0.293854
C	 0.0441503453	 1.2018994291	-0.3184166498	 0.406525
C	-1.0662349455	 1.9602509394	 0.4308765988	-0.3598
C	-0.0675691042	 3.1369572029	 0.6610579775	-0.018101
C	 0.3208392637	 3.4281386199	 2.1252526314	-0.273238
C	 1.5006754873	 2.5149063778	 2.3622174443	-0.056206
C	 1.927241259	 1.9128981349	 1.250520792	-0.078777
C	 1.097392575	 2.2748857067	 0.0460620118	-0.184342
H	-1.9473528239	 2.1735376602	-0.1806532087	 0.13038
H	-1.3965498442	 1.4558810099	 1.3450802536	 0.130488
H	-0.3313502991	 4.0311196624	 0.0964214391	 0.079234
H	 0.5966336991	 4.4791233075	 2.2840390035	 0.109535
H	-0.510993683	 3.2250424526	 2.812693046	 0.108118
H	 1.9498139079	 2.3894542539	 3.3416987567	 0.098265
H	 2.7598314457	 1.2218308969	 1.1872226414	 0.107444
H	 1.6806090281	 2.6528321196	-0.7998427554	 0.094329
