17
gdb 45818	2.50524	1.80883	1.29292	3.4018	73.31	-0.2346	-0.0302	0.2044	995.4301	0.137506	-421.830826	-421.823478	-421.822534	-421.863035	28.095	
O	-0.0140118949	-0.0207718071	-0.1694143362	-0.308791
C	-0.015231407	 1.1776506378	-0.0175958007	 0.384775
C	-1.2825522607	 1.9969065274	 0.1467483919	-0.356885
C	-1.2585788787	 3.2155569207	-0.7478052473	-0.072439
C	-0.1396001222	 3.7748935313	-1.2079960684	-0.057262
C	 1.2393947718	 3.3086689533	-0.8503502414	-0.134151
C	 1.7902026287	 3.9311147199	 0.4630311014	-0.07154
O	 1.4862709321	 2.7234232642	 1.1946181587	-0.291242
C	 1.272627857	 1.9866453237	-0.032909142	 0.031371
H	-2.1413775295	 1.3534503203	-0.0598339129	 0.129353
H	-1.3551399767	 2.3094327797	 1.1989253945	 0.149337
H	-2.2228266588	 3.6401188215	-1.01375687	 0.102421
H	-0.2016301572	 4.657045592	-1.8406297496	 0.096184
H	 1.9169722643	 3.3494844129	-1.7058208072	 0.092926
H	 2.8692416975	 4.1343733091	 0.4521610137	 0.103964
H	 1.2541664601	 4.7998819299	 0.8573485771	 0.112756
H	 2.1120032942	 1.3202180435	-0.2612196415	 0.089223
