20
gdb 117011	4.69048	0.57372	0.51813	1.9446	89.84	-0.2506	-0.0139	0.2366	2184.6583	0.168815	-403.139526	-403.128732	-403.127788	-403.177019	37.097	
C	 0.0186462687	 1.5319721319	-0.1766444087	-0.391099
C	 0.0054414177	 0.0230543207	-0.0195575768	-0.035488
O	 0.66903524	-0.531781171	-1.1673283414	-0.232329
C	 0.7580259897	-1.8741116205	-1.2140178211	 0.228276
N	 0.2806018206	-2.6144306764	-0.2915449335	-0.549213
C	 1.4357690166	-2.3238708902	-2.3971419773	-0.032055
C	 1.9995677252	-2.7432903672	-3.3770883714	 0.198013
C	 2.6757828169	-3.2658176847	-4.5574105342	-0.325685
C	 2.5910193477	-4.7981520751	-4.6798411574	-0.368203
H	 1.0436177282	 1.9097539511	-0.229342262	 0.128131
H	-0.5058737012	 1.8339497544	-1.0875628252	 0.128097
H	-0.4782247653	 1.9985282395	 0.6792059031	 0.119365
H	 0.5266489256	-0.302180737	 0.8869944461	 0.120371
H	-1.0123500987	-0.3775397991	 0.0338170784	 0.120503
H	 0.4473885585	-3.5942244896	-0.5085788041	 0.228288
H	 2.2453846306	-2.7970763501	-5.4516217619	 0.139421
H	 3.7276534294	-2.9532170081	-4.5321210311	 0.139388
H	 3.0492560647	-5.2835607892	-3.814117257	 0.131738
H	 1.5500967887	-5.1264413897	-4.7407481811	 0.132411
H	 3.1123691765	-5.1349056398	-5.5803677833	 0.12007
