17
gdb 24139	5.0133	0.99257	0.93396	1.0883	75.18	-0.2009	0.0299	0.2308	1283.1265	0.136084	-421.824709	-421.816857	-421.815913	-421.858647	29.426	
C	-0.4236773035	 1.0446214076	 0.0445112389	-0.282455
C	 1.0874290808	 1.015314039	 0.1761124858	-0.285469
C	 0.3357752465	-0.2387721274	-0.1171462899	 0.121175
O	 0.2988051516	-1.1779049509	 0.9416182554	-0.278556
C	-0.790544056	-1.9558204854	 1.0117964409	 0.4418
C	-1.4859287406	-2.4159744719	 2.0842859486	-0.310534
C	-2.4899991617	-3.2894521779	 1.5410655017	-0.164526
C	-2.3284892501	-3.2795994089	 0.196005066	-0.021811
O	-1.2776904722	-2.4659206076	-0.147198215	-0.184459
H	-0.9977612849	 1.1609835024	 0.9565526301	 0.128972
H	-0.8688389909	 1.4935757266	-0.8362091339	 0.120561
H	 1.695204604	 1.4462035284	-0.6112580964	 0.119665
H	 1.4981341099	 1.1105963108	 1.1745376857	 0.130885
H	 0.4108106234	-0.6957531749	-1.0981202207	 0.113541
H	-1.3042906914	-2.1655409318	 3.1159140868	 0.109879
H	-3.2364178306	-3.841334448	 2.0907814747	 0.109954
H	-2.8394892745	-3.7476964699	-0.6276502186	 0.13138
