21
gdb 103497	2.46128	1.59654	1.31124	0.8103	77.88	-0.215	0.082	0.297	1091.5263	0.182138	-424.203784	-424.194666	-424.193721	-424.237309	34.186	
C	-0.5944200023	 1.0131653665	-0.1345172456	-0.25451
O	 0.1958670929	-0.1561994582	 0.0283031275	-0.285245
C	 0.7878941067	-0.6157839323	-1.1531832593	 0.396663
C	 1.9982140058	 0.167300655	-1.615644915	-0.461509
C	 0.8114602093	-2.1210093708	-1.3322332381	-0.167693
C	-0.1155738361	-2.9614187038	-0.4669745631	-0.248013
C	-1.5214235631	-2.3688715642	-0.7213348477	-0.071309
O	-1.4368553381	-1.5252112964	-1.8794882426	-0.264428
C	-0.0961133065	-1.2769316137	-2.1947394491	 0.021229
H	 0.0096695305	 1.8800887667	-0.4352972065	 0.106492
H	-1.3882258597	 0.8529506105	-0.8730956576	 0.132535
H	-1.0409992211	 1.2261612996	 0.8398106167	 0.122039
H	 2.7797376094	 0.1520394945	-0.8485631588	 0.125448
H	 2.4117047414	-0.2622711972	-2.5329048929	 0.118053
H	 1.7465516561	 1.2120100387	-1.8265109563	 0.120058
H	 1.7146123456	-2.5794195019	-1.7194844752	 0.08676
H	-0.0565232757	-4.005183416	-0.7902255563	 0.104288
H	 0.1401569387	-2.9212497131	 0.594856264	 0.116774
H	-2.2772101745	-3.135811831	-0.923306435	 0.099425
H	-1.8487961386	-1.7731216615	 0.1355404774	 0.109256
H	 0.0542555992	-1.0976020417	-3.2546655764	 0.093689
