16
gdb 36580	2.95919	0.93325	0.77261	4.1196	75.75	-0.2788	0.0073	0.2861	1428.665	0.121882	-400.706429	-400.697264	-400.696319	-400.741186	32.769	
C	 0.0467423313	-1.2579816152	 0.2841961086	-0.435489
C	-0.0022847274	-0.0589715708	 0.2149481117	 0.311782
C	-0.1120373776	 1.3782464666	 0.1104105626	 0.198587
C	-1.3858163719	 1.9019977368	-0.530000202	-0.281968
C	-1.475561993	 1.4800245234	-2.0113009764	-0.336424
C	-2.6901071728	 1.9723744135	-2.6540918828	 0.255797
N	-3.6574639991	 2.370073085	-3.1453487059	-0.304087
C	 0.653640897	 2.232253324	 1.0418022155	-0.213851
O	 1.0876051744	 2.0624586679	-0.3035937736	-0.261819
H	 0.1047874212	-2.3167395315	 0.3534093976	 0.209164
H	-2.2545007296	 1.5241728586	 0.0179773263	 0.135511
H	-1.3935663105	 2.9928454714	-0.4589271136	 0.131941
H	-0.6044715698	 1.8633399686	-2.5534271504	 0.170092
H	-1.4494199625	 0.3878732746	-2.0919685118	 0.165595
H	 0.2630847983	 3.2176545102	 1.2925923543	 0.124176
H	 1.2781221522	 1.7630872968	 1.7991122098	 0.130992
