20
gdb 90245	3.56769	1.4453	1.36651	2.3958	79.72	-0.2049	0.053	0.258	1031.971	0.172197	-403.015867	-403.00852	-403.007576	-403.047148	30.426	
C	-0.131617021	 1.4799483136	 0.0045993128	-0.326859
N	 0.1026039722	 0.0484094726	 0.0042616944	-0.034802
C	 1.0651594809	-0.4534053678	-1.0076127804	-0.186299
C	 2.0319160907	-1.2900729544	-0.1257332165	 0.193432
C	 2.1697112309	-2.7306106798	-0.692750352	-0.198169
O	 0.8257607485	-3.0284896316	-0.144297221	-0.320853
C	 1.1022096793	-1.9588194467	 0.8314837374	 0.16601
C	 0.688057806	-0.499168964	 1.2125112033	-0.079678
C	 2.3014129991	-0.2705743767	 1.0425620774	-0.351084
H	 0.7786305503	 2.0921964579	 0.1487493563	 0.089572
H	-0.5823891881	 1.7731371203	-0.9486598236	 0.123914
H	-0.8399571091	 1.7370981241	 0.7990188361	 0.11975
H	 0.5582639337	-1.0512323076	-1.769348425	 0.114533
H	 1.6057071224	 0.3656847298	-1.5007456651	 0.088033
H	 2.1980258242	-2.8611922523	-1.7777443445	 0.115423
H	 2.930825082	-3.3509715005	-0.205925492	 0.109558
H	 1.601626624	-2.4233912262	 1.6894531508	 0.080732
H	 0.1568233804	-0.2352296419	 2.1288669117	 0.075859
H	 2.895678092	-0.6613532591	 1.8675961234	 0.114257
H	 2.6139538115	 0.7446580204	 0.7858426462	 0.106672
