24
gdb 122701	5.84129	0.48098	0.46662	2.785	93.28	-0.2445	0.0271	0.2716	2501.0278	0.214114	-405.561129	-405.549442	-405.548498	-405.5996	40.639	
C	-0.0041196375	 1.4974376699	 0.0100699552	-0.385596
C	-0.027431678	-0.033033858	 0.0017006129	-0.182636
C	-1.4441993222	-0.5854526415	 0.0126819422	-0.055568
O	-1.3643423531	-2.012382301	 0.0039116938	-0.208394
C	-2.5402800627	-2.6698320165	 0.0112231494	 0.118818
N	-2.5783355994	-3.9268946075	 0.0051776855	-0.215173
C	-3.8884158794	-4.5645535159	 0.0144992362	 0.061726
C	-4.0414404686	-5.4108658658	-1.2550588218	-0.367041
C	-4.0170616696	-5.4240132084	 1.2779199942	-0.367049
H	 1.0233204132	 1.8713051522	 0.0019440017	 0.122933
H	-0.5144307623	 1.9106702558	-0.8669208052	 0.118597
H	-0.4968274409	 1.900731899	 0.901632713	 0.1186
H	 0.4896734134	-0.4185287906	-0.8839494642	 0.115664
H	 0.5071308227	-0.4283991458	 0.8725089907	 0.115673
H	-1.9843924021	-0.2460033806	 0.9082787076	 0.10377
H	-2.002035452	-0.2360722142	-0.8681563948	 0.103765
H	-3.4278468674	-2.0163683555	 0.0232996814	 0.06947
H	-4.6960280211	-3.8088957978	 0.0261876549	 0.052095
H	-3.2495161882	-6.1645893483	-1.3048180824	 0.124845
H	-5.0102699602	-5.9208547896	-1.2665729236	 0.105655
H	-3.969446243	-4.786503112	-2.1505832183	 0.109667
H	-3.927782726	-4.8089648086	 2.1783195416	 0.109668
H	-4.9855343291	-5.9342053405	 1.3027986802	 0.105663
H	-3.2243927464	-6.1781243289	 1.3046051997	 0.124848
