21
gdb 84883	2.16498	1.75612	1.23699	1.6943	83.46	-0.241	0.0266	0.2676	1109.8606	0.183403	-387.092965	-387.084558	-387.083614	-387.125636	33.204	
C	-0.0960570911	 1.5902619137	-0.0187240965	-0.394261
C	 0.0358426986	 0.0544374788	 0.0291968033	-0.094025
C	 0.7080211096	-0.4736769917	-1.2173270795	-0.053498
C	 1.8945987547	-1.0798529458	-1.2318890362	-0.064147
C	 2.7243162092	-1.3176139414	 0.0028338103	-0.249522
C	 2.2793990427	-0.4160347646	 1.1659309556	-0.286889
C	 0.7695760369	-0.4276898508	 1.2761516828	 0.432856
C	 0.1043739318	-0.3921761117	 2.5831039662	-0.25062
O	 0.2345583886	-1.6255637129	 1.8708198146	-0.291275
H	 0.8866757164	 2.072450247	-0.0230935731	 0.119882
H	-0.61888906	 1.9030093054	-0.9282663271	 0.116185
H	-0.6590406975	 1.9665977386	 0.8411672307	 0.113336
H	-0.9761052713	-0.3686440425	 0.0826742929	 0.091016
H	 0.1641812665	-0.3281328296	-2.1484886553	 0.082985
H	 2.298048875	-1.443782445	-2.1739530514	 0.08488
H	 2.6395775015	-2.3713418542	 0.3032585392	 0.125682
H	 3.785640345	-1.1531185813	-0.2179487757	 0.100216
H	 2.7255365052	-0.7469805581	 2.1081438065	 0.099847
H	 2.618110334	 0.6110142565	 0.9818522619	 0.10373
H	 0.6992296736	-0.3097720647	 3.4926954594	 0.10702
H	-0.9124017993	-0.0077344657	 2.6649654614	 0.106601
