18
gdb 71173	2.65875	1.6089	1.33296	1.2206	80.69	-0.2479	0.0372	0.2851	1027.5486	0.147219	-364.72827	-364.720336	-364.719391	-364.760365	31.415	
C	-0.0575308113	 1.5309641899	 0.0274933751	-0.503487
C	-0.039300511	 0.0323585498	-0.0019830619	 0.33075
C	 0.389188578	-0.7737553147	-1.2470715039	-0.287964
C	-0.6020270533	-1.800669915	-0.7363389543	-0.033818
C	-0.5536927305	-1.8150353741	 0.7543680698	-0.064045
C	 0.4725176581	-0.7911520829	 1.2240845356	-0.201699
C	 1.8777695294	-1.1284676684	 1.3513014319	 0.29883
C	 3.0459664452	-1.401735765	 1.4392694083	-0.449694
N	-1.3820325952	-0.7811556615	 0.0502889798	-0.199698
H	 0.9660211611	 1.9227021555	 0.0152376864	 0.131006
H	-0.5887848304	 1.9312723257	-0.8416105696	 0.12837
H	-0.5553001613	 1.899369348	 0.9301003339	 0.127527
H	 0.0236716177	-0.2973465906	-2.1608475536	 0.108556
H	 1.4438311344	-1.042221863	-1.3542022476	 0.112723
H	-1.1092416478	-2.5789062761	-1.2949913997	 0.097029
H	-1.0118468118	-2.5976584107	 1.3478172609	 0.100199
H	 0.1050647785	-0.3144065455	 2.1397760019	 0.108993
H	 4.0754864504	-1.6479694715	 1.5239427669	 0.196421
