16
gdb 17712	6.66913	1.47059	1.41363	3.4262	69.26	-0.2398	0.009	0.2488	901.5797	0.130797	-346.550493	-346.543921	-346.542977	-346.581035	25.71	
C	-0.1563601889	 1.5985401875	-0.0284713789	-0.421669
C	-0.0222559764	 0.0850241598	 0.0081172012	-0.006858
C	 1.1945834334	-0.6005809019	-0.6542076167	-0.036728
C	 2.1585156101	-0.2545425756	 0.5512588371	-0.206879
C	 0.7418330129	-0.5967152387	 1.1660615168	-0.036728
C	 1.0722681584	-1.8648517617	 0.2845006278	-0.201892
C	 2.5440753464	-1.7261538037	 0.6502019899	 0.44881
O	 3.4950031851	-2.4070392096	 0.8883282853	-0.334223
H	 0.7883723933	 2.0995935932	 0.2055788723	 0.117493
H	-0.4785104078	 1.9370875622	-1.0193205731	 0.120836
H	-0.905015385	 1.9407327555	 0.6944354243	 0.120835
H	-0.9809208948	-0.3925765081	-0.2293156679	 0.072658
H	 1.4947641193	-0.6312086002	-1.7022258979	 0.088602
H	 2.7367722062	 0.654939528	 0.6931721864	 0.094951
H	 0.516039462	-0.622852603	 2.2327022619	 0.088604
H	 0.4287987958	-2.7279742437	 0.1263035815	 0.092191
