20
gdb 81339	2.65307	1.38223	1.13618	2.3526	81.78	-0.2099	0.0185	0.2284	1171.4048	0.171446	-403.115697	-403.107056	-403.106112	-403.148584	33.521	
C	-0.0188258957	 1.4591979124	 0.1292715121	-0.516502
C	-0.042675757	-0.0276802009	 0.0220934598	 0.223446
C	-0.0405176894	-0.8558612331	-1.0395245319	 0.223477
C	-0.0136600689	-0.5979706023	-2.5077286979	-0.516505
C	 0.0336776592	-2.2338050412	-0.3738523602	-0.155695
N	-0.8883370839	-2.1387180303	 0.8132207032	-0.334646
C	 0.0302610162	-1.0085164891	 1.1968233407	-0.155681
C	 1.1799720671	-1.9728582463	 0.6883561806	 0.217168
O	 1.522078048	-3.032792402	 1.5159780081	-0.449414
H	 0.8881905735	 1.8083791046	 0.6395674518	 0.130794
H	-0.0502700068	 1.9375625503	-0.8539739694	 0.124536
H	-0.8680288695	 1.8365303606	 0.7134561672	 0.125953
H	-0.0448427662	 0.4721163735	-2.7325251588	 0.124531
H	 0.8944031405	-1.0077974837	-2.9686544508	 0.130784
H	-0.8616972281	-1.0729432459	-3.0176810972	 0.125965
H	-0.0083433193	-3.1369046847	-0.9849492069	 0.064778
H	-1.8192437372	-1.8079591933	 0.5531646614	 0.200806
H	-0.0153296924	-0.6356456067	 2.2213645829	 0.06478
H	 2.0965231378	-1.505777477	 0.3259903027	 0.085067
H	 0.678016182	-3.408188825	 1.8069881825	 0.286355
