16
gdb 48922	3.84288	1.58248	1.38711	3.2317	71.86	-0.2372	-0.0345	0.2027	925.7208	0.12483	-400.664165	-400.657512	-400.656568	-400.695499	26.269	
O	-0.8456895207	 1.0833275997	 0.4296659552	-0.25623
C	 0.284487644	 0.8628382778	 0.0671492465	 0.048925
C	 1.3534314784	 1.8994119479	 0.0223757084	 0.278036
C	 1.3062723789	 3.2309936143	 0.784326296	-0.286392
C	 2.3694868505	 3.6704942555	-0.2477203165	-0.078818
C	 3.5254367778	 2.6538638864	-0.1143244629	-0.044998
C	 3.1068850882	 1.8426385384	-1.2795896718	-0.059374
C	 1.7865476549	 2.6461480698	-1.302347975	-0.121444
N	 2.7828111401	 1.363552775	 0.100746719	-0.186527
H	 0.5965590359	-0.1424071186	-0.2920085604	 0.084592
H	 0.3446045399	 3.7259561585	 0.6286450473	 0.126776
H	 1.567846331	 3.2244078372	 1.8451892353	 0.112738
H	 2.5981614281	 4.7084014272	-0.4800046519	 0.083659
H	 4.489952564	 2.7603597127	 0.364950018	 0.104671
H	 3.6525368933	 1.2493472431	-2.0023875566	 0.103073
H	 1.1299809857	 2.904928385	-2.1279859707	 0.091311
