17
gdb 95099	2.53454	1.59375	1.17721	4.3821	73.26	-0.2398	0.0008	0.2406	1067.1432	0.136459	-418.000423	-417.992311	-417.991366	-418.032964	30.723	
C	 0.1072365731	 1.5692066399	-0.0319532867	-0.399527
C	 0.0550840345	 0.0447086803	 0.0160592772	-0.037369
N	 0.7662371003	-0.5570799783	-1.1220264038	-0.323791
C	 1.2750118888	-1.8801162073	-0.7525012988	-0.197121
C	 1.5416444082	-1.7459829678	 0.731374459	-0.020143
O	 2.2110054126	-0.5420909044	 1.1085390651	-0.271738
C	 0.7815841116	-0.5768454045	 1.2078775974	 0.311045
C	 0.2157502189	-0.4668816437	 2.5288698158	 0.223312
N	-0.26945335	-0.3606678568	 3.5725643499	-0.334049
H	 1.1467191784	 1.9052597254	-0.031180016	 0.143154
H	-0.3738147842	 1.9373687242	-0.9430757319	 0.118084
H	-0.4155291683	 2.0045557844	 0.8254067141	 0.130271
H	-0.9966539322	-0.2855469288	 0.0958926248	 0.079406
H	 0.2036753763	-0.570564689	-1.962359706	 0.230327
H	 0.5574865092	-2.7084543966	-0.8867963559	 0.099812
H	 2.1784884801	-2.1216697151	-1.3242861482	 0.124916
H	 1.7397644527	-2.615184012	 1.351059344	 0.123412
