14
gdb 15735	6.96923	1.05095	0.98625	4.5279	63.77	-0.2755	-0.0487	0.2268	1134.1431	0.106819	-378.721638	-378.713789	-378.712845	-378.754877	27.047	
O	-0.0605544142	 0.1051708659	-0.6296862534	-0.300829
C	-0.0043936382	 1.2366658348	-0.2108455859	 0.39129
C	 1.2908235295	 1.8567644807	 0.3345374894	-0.468662
C	 2.4648898653	 1.0103688661	 0.1689491618	 0.290429
N	 3.4091114018	 0.3584149244	 0.0438775458	-0.29055
C	-1.1981460441	 2.1328702488	-0.1788487665	-0.109953
C	-2.0076776372	 2.194147262	-1.4435879778	-0.215361
N	-2.5196326527	 1.4990939539	-0.2751420867	-0.297179
H	 1.4565259096	 2.8256900952	-0.152795541	 0.178451
H	 1.1420083643	 2.0789085212	 1.3993554014	 0.183394
H	-1.1414958756	 3.0126966908	 0.4557777446	 0.106034
H	-2.505610986	 3.1265618454	-1.692392674	 0.135737
H	-1.6455075431	 1.6093103386	-2.2844200532	 0.141838
H	-2.3629606495	 0.4971655021	-0.3925673947	 0.25536
