20
gdb 58453	2.66213	1.23614	1.05878	3.8726	75.43	-0.2515	0.0236	0.2751	1220.6442	0.169188	-440.316379	-440.306842	-440.305898	-440.350365	36.522	
C	 0.0188822986	 1.6006791	 0.1593595187	-0.413143
C	 0.0057622787	 0.0808683047	-0.0309145594	 0.093574
O	 0.8247806271	-0.5487310402	 0.9421749762	-0.436769
C	-1.4126678962	-0.5280867194	-0.0244474542	 0.321315
C	-2.3267470585	 0.0491660083	-1.101917902	-0.459935
C	-1.444426386	-2.0897741272	 0.0707995562	-0.439654
C	-2.2009317322	-1.888765705	 1.3990535524	 0.422764
O	-2.7699707615	-2.5858134915	 2.1923261195	-0.347902
N	-2.0098380915	-0.516190266	 1.3391665615	-0.373169
H	 1.0534325077	 1.9435090651	 0.236273589	 0.132733
H	-0.4574962233	 2.1282905734	-0.6717167282	 0.1185
H	-0.4977446604	 1.8813110605	 1.0853180235	 0.107412
H	 0.4659263341	-0.1662330414	-0.9958014875	 0.093034
H	 0.3573488668	-0.475340208	 1.7843401819	 0.283082
H	-1.869887728	-0.0536543854	-2.0919699444	 0.128405
H	-3.285714431	-0.4773452871	-1.1135760919	 0.126543
H	-2.5290073002	 1.1114912093	-0.9358413677	 0.124005
H	-2.0285269421	-2.5948166132	-0.7001829669	 0.12643
H	-0.4668623311	-2.5579539634	 0.1825282053	 0.148346
H	-2.561331371	 0.2025698365	 1.7900340779	 0.244429
