15
gdb 29960	3.51851	1.24099	0.92274	6.7933	73.09	-0.2266	-0.0282	0.1984	1193.2809	0.112401	-453.989711	-453.981155	-453.980211	-454.023536	30.041	
C	 0.0026848689	 1.4721448744	 0.0424410868	-0.340224
N	-0.0237076125	 0.021802471	 0.0040222029	-0.058703
C	-0.192370767	-0.8014335279	-1.0988274861	 0.002388
N	-0.1670472161	-2.0626417869	-0.7932255753	-0.301062
C	 0.027724926	-2.1137836903	 0.5813875931	 0.067385
C	 0.1236885748	-3.3177383112	 1.3777945981	 0.084481
O	 0.0525582676	-4.4621903831	 0.9932945768	-0.280387
C	 0.1155930914	-0.814189115	 1.067918077	 0.315145
O	 0.2962746697	-0.2682169046	 2.2829597946	-0.423191
H	 0.960619869	 1.832076692	 0.4272920601	 0.156983
H	-0.1371887719	 1.8475832199	-0.9721299822	 0.151007
H	-0.7982779368	 1.8573994333	 0.6791034604	 0.157004
H	-0.3266425768	-0.3815200899	-2.0854201742	 0.137419
H	 0.2821307615	-3.1016910695	 2.4700251184	 0.01072
H	 0.3786431422	-0.9729512321	 2.9356462897	 0.321034
