22
gdb 7588	2.53371	1.66801	1.41607	1.3258	77.98	-0.2496	0.0806	0.3302	1049.7653	0.198057	-350.197718	-350.187957	-350.187013	-350.23136	36.98	
C	 0.1126235897	 1.4388394491	-0.2846320598	-0.401506
C	 0.0292526074	-0.0305832026	 0.1546964095	-0.00309
C	 0.6759272594	-0.2417702883	 1.5327141514	-0.403452
C	-1.4053386893	-0.5644675922	 0.1065960554	 0.354899
C	-2.4237557288	 0.1038706334	 1.0142737648	-0.471256
C	-1.9115144637	-1.0602818393	-1.2405784937	-0.382969
C	-1.5912688467	-2.0393168464	-0.135523748	 0.0543
O	-0.4448872843	-2.8390841977	-0.222316075	-0.420517
H	 1.1566069559	 1.7635464416	-0.3460850158	 0.107457
H	-0.34532427	 1.5885819778	-1.268004151	 0.109286
H	-0.393143106	 2.1030819321	 0.4247842881	 0.111365
H	 0.6054622647	-0.6274582957	-0.5597613606	 0.079784
H	 0.6434611332	-1.2968483522	 1.8178863616	 0.129242
H	 1.7247448026	 0.0735132193	 1.5165828914	 0.104688
H	 0.1742228136	 0.3418847159	 2.312410593	 0.107407
H	-2.5660340795	 1.157866849	 0.7523835792	 0.118279
H	-3.3996816162	-0.3849546713	 0.9310712329	 0.109668
H	-2.1219301465	 0.0567156861	 2.0658270627	 0.119825
H	-2.9497133849	-0.8948695235	-1.5110620713	 0.103322
H	-1.215219698	-1.0244535893	-2.0729546854	 0.107265
H	-2.4312343656	-2.5187839959	 0.3690585566	 0.078897
H	-0.5844901071	-3.4836115997	-0.9235171763	 0.287107
