18
gdb 11358	3.84277	1.33031	1.07801	3.3158	70.36	-0.2384	0.0194	0.2577	1107.2162	0.153653	-384.944513	-384.936014	-384.93507	-384.977863	30.919	
O	-0.0126245389	 1.4149914307	 0.2189581967	-0.4123
C	-0.0471967734	 0.019606061	-0.0138941923	-0.174784
C	-1.4604308949	-0.4646313387	-0.0200360676	 0.314475
C	-2.5567108853	 0.2583344075	 0.2182179455	-0.203797
C	-3.8217416925	-0.5430455307	 0.037956902	 0.101379
O	-4.5643984552	-0.1160645006	-1.1082326345	-0.434322
C	-3.3058832125	-2.0058295274	-0.0532251864	-0.240474
C	-1.7854949845	-1.9098880054	-0.3342326595	-0.31342
H	 0.9076105918	 1.6884415554	 0.2665074138	 0.29037
H	 0.4253533319	-0.2414697578	-0.9784250178	 0.09451
H	 0.5171349698	-0.532895495	 0.7587197428	 0.097535
H	-2.5624404831	 1.3180828744	 0.4388032716	 0.109249
H	-4.5275208304	-0.4220153347	 0.8664433321	 0.082598
H	-3.929404438	 0.0232280127	-1.8195754203	 0.271106
H	-3.4750408162	-2.515456827	 0.9000439747	 0.103763
H	-3.857154854	-2.5551124704	-0.8199239985	 0.106112
H	-1.5269252652	-2.1511666001	-1.3748012215	 0.103986
H	-1.2078546994	-2.6070269239	 0.2851117892	 0.104013
