19
gdb 95593	2.18214	1.65046	1.02417	4.5212	75.93	-0.2306	-0.0643	0.1663	1180.0489	0.158984	-423.076524	-423.067729	-423.066784	-423.110287	32.687	
C	-0.1322925635	 1.5381848446	 0.0311381804	-0.403564
C	 0.0503611483	 0.0215989512	 0.0146722447	-0.093417
C	 0.7484498748	-0.5047421724	-1.2606569683	-0.203098
C	 0.8809799817	-2.0317321914	-1.2622651689	-0.224944
C	 1.6872311903	-2.5313297284	-0.0487977775	-0.305359
C	 1.1284276786	-1.9953217589	 1.257325159	 0.31818
O	 0.9512031589	-2.6591928219	 2.2475046499	-0.281497
C	 0.787083893	-0.4803460558	 1.2524617437	 0.302591
O	 1.1028656759	 0.2167182429	 2.1845792191	-0.289144
H	 0.8355340973	 2.045971648	-0.0231504642	 0.127639
H	-0.739157966	 1.8611512507	-0.8198260685	 0.112207
H	-0.6193358337	 1.8637333987	 0.9528094623	 0.137027
H	-0.9394372383	-0.4645453461	 0.0560578263	 0.10572
H	 0.181111485	-0.1732244789	-2.1368437875	 0.10908
H	 1.7429646136	-0.0450426868	-1.34177377	 0.107603
H	-0.1177148762	-2.4865737042	-1.2481514069	 0.112154
H	 1.3642731113	-2.3693638231	-2.1845273545	 0.111056
H	 1.7364981934	-3.6217710565	 0.0097229561	 0.127124
H	 2.7190311457	-2.1566642316	-0.1300905752	 0.130643
