20
gdb 92230	3.07134	1.58352	1.26266	1.7089	78.87	-0.2118	0.0834	0.2952	1056.5019	0.172059	-403.105898	-403.098217	-403.097273	-403.137971	30.534	
C	-0.0581709482	 1.5815973504	 0.1120254876	-0.329863
N	 0.0067109337	 0.1403302108	 0.0972366502	-0.057602
C	-1.2193782852	-0.6469469118	 0.3291031433	-0.196377
C	-0.4072492648	-1.6227562479	 1.2072478555	 0.102554
O	 0.0826719991	-2.7827866303	 0.5501981433	-0.278052
C	 1.4855419345	-2.7173901465	 0.4225341185	 0.100903
C	 2.0637108076	-1.8383271262	-0.6458544999	-0.310339
C	 1.9887866593	-1.3451899736	 0.7880771973	-0.084107
C	 0.7347446472	-0.569771346	 1.1737037592	-0.026014
H	 0.9471152453	 1.9999542348	-0.006191605	 0.122894
H	-0.6667529704	 1.9354228753	-0.7271308722	 0.122217
H	-0.4936223271	 1.993678211	 1.0433841919	 0.087305
H	-1.9820057315	-0.1133450697	 0.9188620695	 0.0838
H	-1.6827354406	-1.0611922985	-0.5724122187	 0.107863
H	-0.8543696316	-1.8993456855	 2.1665281577	 0.080104
H	 1.9839262242	-3.6332741999	 0.7230532554	 0.093722
H	 3.0427067642	-2.096059792	-1.0364038942	 0.106237
H	 1.3805369476	-1.3748274503	-1.348087882	 0.131357
H	 2.8948741808	-1.2041613748	 1.3648219602	 0.085595
H	 0.870069546	 0.0217921808	 2.0882191523	 0.057802
