20
gdb 106390	3.32244	1.46748	1.27376	1.0047	77.82	-0.2196	0.0812	0.3008	1062.6463	0.172455	-403.064165	-403.056581	-403.055637	-403.096104	30.815	
C	-0.1191624229	 1.3499231842	-0.0599959793	-0.260485
O	 0.0196236346	-0.053012267	 0.039161581	-0.29926
C	 0.6589854813	-0.5143687006	 1.1780965126	 0.418288
C	 2.1043114796	-0.108061689	 1.6761625316	-0.233809
N	 1.6483718902	-0.733659987	 2.9890694348	-0.144649
C	 0.2857975186	-0.1658656289	 2.6433616574	-0.259139
C	 1.5445494046	-2.1537627911	 2.5222513733	 0.005731
C	 0.2148607414	-2.8318420548	 2.3382883572	-0.317202
C	 0.8208909052	-2.0473661975	 1.198652803	-0.101509
H	 0.8541285985	 1.8602212451	-0.0632968253	 0.112225
H	-0.6234593182	 1.551034927	-1.0077113137	 0.130619
H	-0.7279465625	 1.7628124331	 0.7563358182	 0.112653
H	 2.968738447	-0.5912249572	 1.2145442237	 0.101324
H	 2.2758583377	 0.9640171192	 1.802120871	 0.100606
H	 0.29384759	 0.9052202061	 2.8522129532	 0.105691
H	-0.5732435514	-0.6192626276	 3.1358523434	 0.106251
H	 2.4408497564	-2.7388011347	 2.6877584089	 0.096236
H	 0.282088441	-3.910977603	 2.2336698373	 0.113692
H	-0.686828069	-2.5140212185	 2.8466717894	 0.118327
H	 1.1276797279	-2.5313221878	 0.2794739723	 0.094409
