20
gdb 53015	4.10852	0.89842	0.83511	1.3798	89.67	-0.2234	0.0479	0.2713	1481.8577	0.171501	-365.978142	-365.969151	-365.968207	-366.013	33.326	
C	-0.0442436364	 1.4773378722	-0.1266073278	-0.508188
C	-0.0241338403	 0.0235772003	-0.0609023914	 0.278366
C	-0.0222378557	-1.1801501317	-0.0108140146	-0.169467
C	 0.0281774641	-2.6140450851	 0.0667399326	 0.158335
C	-0.3325241536	-3.4641041415	-1.1112328999	-0.283986
N	-1.2518749853	-3.3826259305	 0.0250966335	-0.125523
C	-1.1092849658	-4.4942719634	 0.9829011864	-0.147821
C	 0.3917074396	-4.660703454	 1.318387576	-0.249793
C	 0.9678187851	-3.2484186015	 1.0963580486	-0.276491
H	 0.8029160457	 1.9111871673	 0.4163053908	 0.146656
H	 0.009501727	 1.8322526542	-1.1619237183	 0.1472
H	-0.9617127338	 1.8821602683	 0.3151645225	 0.149908
H	-0.6911396656	-2.9815962792	-2.0149913525	 0.120594
H	 0.2328087677	-4.3787219688	-1.2775430534	 0.107192
H	-1.6774157026	-4.220215671	 1.8783743723	 0.110332
H	-1.5597461961	-5.4024517191	 0.5695786434	 0.106323
H	 0.5489542138	-5.0209388099	 2.3378788569	 0.104677
H	 0.8667991802	-5.384698929	 0.650197471	 0.108092
H	 2.0080991074	-3.2582273101	 0.7590819511	 0.109258
H	 0.9268174246	-2.6550041977	 2.0152751929	 0.114338
