10
gdb 4256	4.18955	2.1351	1.41432	4.821	51.61	-0.3044	-0.0812	0.2232	768.3713	0.061047	-450.642351	-450.636232	-450.635288	-450.673439	21.468	
N	-0.0628484973	 1.2937247754	-0.3279028464	-0.5165
C	-0.0095126673	 0.1201687311	 0.0946633832	 0.502716
O	 1.1921506501	-0.5521732693	 0.307336764	-0.205772
C	 1.1503717747	-1.815972205	 0.7654364751	 0.15036
N	 0.1180560726	-2.5035442189	 1.0403857729	-0.319286
C	-1.1261984796	-1.8992469372	 0.8533075842	 0.468514
O	-2.17656034	-2.408374492	 1.0644656392	-0.288074
O	-1.1264948746	-0.5771051936	 0.3745561273	-0.217134
H	 0.8678435473	 1.6714791428	-0.4878060796	 0.251077
H	 2.152402194	-2.2185239934	 0.8856128801	 0.1741
