18
gdb 114652	2.85043	1.30018	1.13389	2.6622	71.22	-0.2427	-0.0117	0.231	1122.6214	0.148879	-439.059476	-439.051461	-439.050517	-439.092278	30.552	
O	-0.0886867073	 1.409654083	-0.0843220338	-0.420291
C	 0.0210723086	 0.0028379001	 0.0771128427	-0.106815
C	-1.3838399171	-0.577373456	 0.0073872735	 0.010729
C	-2.0835744536	-0.418158955	-1.3926586492	-0.244126
C	-2.3698592534	-1.9102988724	-1.6957076996	-0.126243
N	-2.8217952524	-2.4864441353	-0.3808656821	-0.32647
C	-1.45455784	-2.1262322674	 0.1254305121	-0.152026
C	-1.0149302438	-2.536684638	-1.2998117885	 0.48399
O	-0.1105728399	-3.1080968172	-1.8211393489	-0.320847
H	 0.7976436573	 1.7828739706	-0.0907091579	 0.290003
H	 0.6495536853	-0.4422768989	-0.710595297	 0.103292
H	 0.4804275028	-0.2528788064	 1.0456956252	 0.090501
H	-1.9814570751	-0.116710424	 0.8009390751	 0.085309
H	-3.0073596682	 0.163482393	-1.3377772827	 0.109333
H	-1.4320868275	 0.0584852581	-2.1303674271	 0.122669
H	-2.9196550332	-2.1811020012	-2.5951765521	 0.092175
H	-3.5502272737	-1.9179012866	 0.0534271674	 0.219056
H	-1.0964508389	-2.6082364065	 1.0338513428	 0.089762
