14
gdb 45403	2.24888	1.79101	1.26014	4.9719	66.4	-0.2948	-0.0237	0.2712	989.7345	0.101654	-436.705416	-436.698075	-436.697131	-436.737553	27.053	
O	-0.1241326867	 0.1899520137	 0.3702052698	-0.305002
C	-0.0039826798	 1.315003011	 0.0233668712	 0.446575
O	-0.9673520149	 2.1778736207	-0.4352602005	-0.249333
C	-0.0116808628	 3.2614501452	-0.6480787638	 0.075973
C	 0.0746002076	 4.196846021	 0.5694222177	-0.23716
C	 1.1703016978	 3.2828451832	 1.1964100993	-0.285341
C	 1.1283468443	 2.3583457263	-0.0784545086	-0.013127
C	 2.3554339707	 2.0095348843	-0.7408979311	 0.204102
N	 3.3470402715	 1.7489700828	-1.275392298	-0.327528
H	-0.058278113	 3.6390384882	-1.666918881	 0.127555
H	 0.4458675629	 5.1911810628	 0.3143166812	 0.132323
H	-0.8621298656	 4.2937203055	 1.1196631636	 0.13849
H	 2.1376031036	 3.7724436282	 1.3063990798	 0.148352
H	 0.9231475145	 2.770876927	 2.1268259304	 0.14412
