17
gdb 99326	5.92848	0.64921	0.60813	3.2666	66.57	-0.2716	0.0008	0.2724	1770.1989	0.133412	-496.097784	-496.088237	-496.087293	-496.134263	32.475	
O	 0.2139410228	 1.233286734	-0.1697652026	-0.418783
C	 0.007000963	-0.149296036	-0.2172832519	-0.14331
C	-1.4523587498	-0.4831524844	 0.0318998049	 0.41834
O	-2.2938790544	 0.3647069801	 0.2184175094	-0.370689
O	-1.6846307786	-1.7989978731	 0.0179407151	-0.239377
C	-3.0538066327	-2.2002248245	 0.2355174831	-0.092436
C	-3.0864637952	-3.6992022723	 0.2573062229	 0.074649
C	-4.2936664905	-4.4270073779	-0.1516300289	-0.179956
O	-3.1536987078	-4.3577053554	-1.0063173843	-0.223399
H	-0.6581925269	 1.6233274002	-0.0099061568	 0.297293
H	 0.2905833765	-0.5679703101	-1.1948183286	 0.129715
H	 0.6144930744	-0.6717394279	 0.536465778	 0.126306
H	-3.4027057467	-1.7798410344	 1.1844266256	 0.132657
H	-3.6805722435	-1.8081606625	-0.570255315	 0.134432
H	-2.4119479862	-4.1670298776	 0.9746922564	 0.107889
H	-4.5015149553	-5.4030696821	 0.283027216	 0.12489
H	-5.168529289	-3.874511186	-0.4923968932	 0.121779
