19
gdb 39334	2.68261	1.89807	1.3916	0.8119	74.08	-0.2367	0.0828	0.3196	970.7206	0.16172	-423.018586	-423.011342	-423.010398	-423.050448	28.769	
C	-0.1286299787	 1.4191696219	 0.0639905769	-0.37838
C	 1.2617329573	 0.7994737369	-0.0493032055	-0.140481
C	 2.0688336476	 0.5251911681	 1.1992921487	-0.094753
O	 1.2489352348	-0.2749265225	 2.0646303755	-0.27792
C	 0.142802253	-0.8205251048	 1.3601897226	 0.05308
C	 0.2713871182	-2.2835270639	 0.8498250628	-0.264263
C	 0.1745998071	-2.153619323	-0.6897649312	-0.102033
O	-0.462286659	-0.8920494909	-0.9438112857	-0.288507
C	 0.0165437457	-0.0551648394	 0.0524831943	 0.426162
H	-0.4284354484	 1.9012124602	 0.9908991435	 0.120317
H	-0.5046257188	 1.8900431297	-0.8377813856	 0.125986
H	 1.7768200985	 0.9032730283	-0.9966436464	 0.09944
H	 2.9910792431	-0.0135759948	 0.93432528	 0.095432
H	 2.3542711499	 1.4199848079	 1.7658556352	 0.105834
H	-0.72473557	-0.716188235	 2.0200882639	 0.084855
H	 1.2155346244	-2.7253365909	 1.17521609	 0.116447
H	-0.5421964098	-2.8974670519	 1.2433201036	 0.110782
H	 1.1742229992	-2.1591184552	-1.1473684814	 0.096942
H	-0.4298147342	-2.9289077607	-1.1648178614	 0.11106
