20
gdb 59909	2.413	1.08132	0.84106	3.0682	79.39	-0.2412	0.0001	0.2413	1437.8718	0.17073	-436.527747	-436.517571	-436.516627	-436.563789	36.577	
C	-0.5365311623	 1.052101117	 0.4976561314	-0.381454
C	 0.0801903893	-0.3012264648	 0.1182557985	 0.078843
C	 1.0094787249	-0.841054492	 1.206362787	-0.405245
N	-0.9509073189	-1.2968957051	-0.165319023	-0.354004
C	-1.5745579819	-1.3352927381	-1.3599814392	 0.493509
O	-1.3479236627	-0.6100680699	-2.3134208308	-0.422665
N	-2.5783584264	-2.3333954513	-1.4901964291	-0.354456
C	-3.0460134262	-3.2537490229	-0.5895044529	 0.121216
N	-2.6077089406	-3.3708728911	 0.6048473603	-0.478782
H	 0.2463588309	 1.7989667901	 0.6662897149	 0.10979
H	-1.1833747314	 1.4080684442	-0.3077553203	 0.138122
H	-1.1315341474	 0.9661233619	 1.413616369	 0.108877
H	 0.6465955459	-0.168351141	-0.8092500156	 0.108491
H	 0.46468847	-1.0017663696	 2.1442615958	 0.118662
H	 1.4586910754	-1.7918545862	 0.9052790471	 0.122364
H	 1.8134605016	-0.1277146778	 1.4079907236	 0.119724
H	-1.2732711471	-1.9436712576	 0.5510908757	 0.27552
H	-2.9960309701	-2.3126755147	-2.4070382028	 0.262715
H	-3.8399556749	-3.87333428	-1.0205857808	 0.106966
H	-3.093500308	-4.1131590211	 1.0988188811	 0.231807
