22
gdb 90891	2.36944	1.89495	1.37905	1.917	83.84	-0.2199	0.0767	0.2967	1043.6318	0.195744	-367.187287	-367.179216	-367.178272	-367.219125	33.18	
C	-0.0995859512	 1.5706588819	-0.0082985061	-0.420114
C	 0.0391229027	 0.048373901	 0.0071689949	 0.008895
C	 0.8546780976	-0.5331343563	-1.1807821617	-0.268263
C	 1.5274075931	-1.7696707236	-0.5989459047	-0.018407
C	 1.1133291901	-1.9969772548	 0.7982005626	-0.103511
N	 2.5371378038	-1.6137380857	 0.4933180026	-0.152913
C	 2.2837092585	-0.2866941461	 1.1469039602	-0.200405
C	 0.753814181	-0.5504968717	 1.2427365233	 0.31128
C	 0.0755462456	-0.3293038637	 2.5794782618	-0.501918
H	 0.877189396	 2.063537487	 0.0539984135	 0.116748
H	-0.5783449712	 1.907413467	-0.9336493712	 0.115801
H	-0.709791649	 1.9296992145	 0.8265845651	 0.115245
H	-0.9673112125	-0.3933580839	-0.0227605177	 0.067958
H	 0.2134309429	-0.8002687987	-2.026277527	 0.101023
H	 1.5904558513	 0.1869724919	-1.5591259115	 0.102609
H	 1.7691813533	-2.6063778142	-1.2457599164	 0.09209
H	 0.8399465003	-2.936512133	 1.2661232215	 0.08422
H	 2.776671211	-0.2874664121	 2.122868703	 0.104224
H	 2.6309149799	 0.5843108754	 0.5791963613	 0.093272
H	 0.0437336253	 0.7343867768	 2.8392441034	 0.11964
H	-0.9570389845	-0.6981726979	 2.565507008	 0.114382
H	 0.605890426	-0.8498174239	 3.3837288152	 0.118142
