19
gdb 68206	3.61675	1.21433	1.16809	2.0162	75.27	-0.246	-0.0255	0.2205	1128.9826	0.158796	-423.023316	-423.015109	-423.014165	-423.056229	31.43	
C	 0.1821951164	 1.4855672238	-0.0270225045	-0.49602
C	 0.0281202059	-0.0085367279	-0.0535528594	 0.419455
C	 0.6537131464	-0.9373460722	-1.1246263337	-0.269786
C	 0.5835349461	-1.883801611	 0.0863622252	 0.071807
O	 0.8138431156	-0.7335859316	 0.9558672608	-0.332878
C	-0.9286906844	-2.1207081295	 0.3031674617	-0.082778
C	-1.3818309666	-0.6208090859	 0.161779092	-0.286495
C	-1.607690744	-3.0617976616	-0.6553546151	 0.13338
O	-1.0827240973	-3.5666841306	-1.6177077171	-0.250457
H	 1.2304694332	 1.7694163822	-0.1521969376	 0.130938
H	-0.4007232748	 1.9429415766	-0.8331595577	 0.124314
H	-0.1744396709	 1.8927180469	 0.9248655291	 0.129294
H	 0.0953169525	-1.1846095817	-2.0284475399	 0.111843
H	 1.6813158868	-0.6489233374	-1.3485632664	 0.109256
H	 1.2676438554	-2.7154067114	 0.2448935941	 0.088142
H	-1.1251397218	-2.474107369	 1.3215977074	 0.098727
H	-1.8531115718	-0.2394249053	 1.0696696695	 0.112679
H	-2.0516602562	-0.442377068	-0.6849179874	 0.108123
H	-2.6761026806	-3.2731504065	-0.4168720712	 0.080457
