15
gdb 67363	3.03829	1.96131	1.37918	2.8562	66.45	-0.2515	0.0046	0.2561	892.0274	0.114363	-453.882209	-453.875645	-453.874701	-453.912876	26.851	
O	 0.0628863604	 1.399222959	-0.0208943048	-0.476574
C	 0.0097577741	 0.0358147316	-0.005014435	 0.382118
C	 0.0687525755	-0.8372694025	 1.3084997814	-0.123057
N	-1.3823361563	-0.5238971806	 1.5713975644	-0.331218
C	-1.327547818	-0.7971716922	 0.0897458467	-0.123079
C	-0.3163600567	-1.9560075661	 0.3030023145	 0.071781
O	 0.6307039423	-2.0161609289	-0.7840224263	-0.246746
C	 0.8627951812	-0.6889909193	-1.0062526201	 0.369806
N	 1.6137689104	-0.1309233579	-1.848398584	-0.583676
H	 0.6856458914	 1.6321015417	-0.727311357	 0.303004
H	 0.8305355023	-0.8383936503	 2.0879708895	 0.099752
H	-1.8238519248	-1.3159459156	 2.0511720186	 0.212135
H	-2.2020958629	-0.7512886424	-0.5590602259	 0.09975
H	-0.6258114331	-2.9466725335	 0.6249498238	 0.109789
H	 2.1114722344	-0.7949972832	-2.4405819457	 0.236214
