15
gdb 75984	2.30262	1.59432	1.30287	3.0113	61.65	-0.2604	-0.0589	0.2014	1006.574	0.112197	-494.940792	-494.932658	-494.931714	-494.974057	29.578	
O	-0.8157149903	 1.0999673474	-1.1900964311	-0.428664
C	-0.1714076408	 0.2557937513	-0.2348412028	-0.142836
C	-1.2690074284	-0.662372599	 0.3216117703	 0.424269
O	-1.7099490085	-0.5318088901	 1.4326899205	-0.293503
C	-1.6970752122	-1.7693720625	-0.6342863501	-0.333065
C	-0.9346326789	-1.7144903622	-1.9551130616	-0.080763
O	 0.4859505439	-1.5584400574	-1.7468743053	-0.230269
C	 0.9197869002	-0.5739682661	-0.9297717583	 0.402334
O	 2.0928680347	-0.364230026	-0.7887964427	-0.324808
H	-0.1504448792	 1.7024206131	-1.5428631192	 0.308074
H	 0.2837956199	 0.8226860252	 0.5814296479	 0.119009
H	-1.521459392	-2.7220177685	-0.1211693941	 0.153915
H	-2.7756016617	-1.6969535759	-0.8068609789	 0.151633
H	-1.0333693396	-2.6490185032	-2.5087554234	 0.133254
H	-1.2901106871	-0.890377336	-2.5774789613	 0.141421
