18
gdb 106984	2.65968	1.3517	1.12314	3.2348	72.74	-0.2432	-0.0246	0.2186	1152.029	0.146299	-439.054198	-439.045203	-439.044259	-439.088152	32.965	
C	-0.3273914967	 1.4298528258	-0.0701837402	-0.417092
C	 0.1300340992	-0.0170499281	-0.0713240116	-0.058928
N	 0.9107286975	-0.5381814063	-1.2637258624	-0.177367
C	 2.2122104181	 0.1253382757	-1.233519762	-0.287068
C	 2.0153241233	-1.0434489432	-0.3267122243	 0.156548
C	 2.6393303963	-2.3980843053	-0.5022870266	-0.169865
O	 1.6764789672	-3.4287239713	-0.3873927365	-0.411666
C	 1.2319866173	-0.5590078752	 0.8692393089	 0.363403
O	 1.3339818874	-0.7034897286	 2.0517025559	-0.307535
H	 0.4996945498	 2.1357766981	-0.1812652459	 0.12464
H	-1.0408429993	 1.606573231	-0.8809794031	 0.13511
H	-0.8262267151	 1.6504450047	 0.8782851896	 0.143918
H	-0.7368672178	-0.6787252801	 0.0493772046	 0.120608
H	 2.811734645	-0.0501490034	-2.1223505432	 0.135066
H	 2.3069298461	 1.1261443522	-0.8216282766	 0.127211
H	 3.1708690812	-2.4417064769	-1.4653808354	 0.096348
H	 3.3739645302	-2.5676321402	 0.2918118895	 0.134201
H	 0.9971514904	-3.2431790589	-1.0463620807	 0.292468
