18
gdb 41214	3.95798	1.47338	1.44343	0.9938	78.74	-0.2197	0.0323	0.252	967.6077	0.147222	-401.717694	-401.710886	-401.709942	-401.748314	28.912	
C	 0.0818445639	 1.5864032467	-0.2820598019	-0.20139
C	 1.5777380157	 1.41152923	 0.1760056579	-0.318376
C	 1.0637554508	 0.1107709266	 0.8460558424	 0.221996
C	 0.9368545908	-1.4048691076	 0.9926198319	-0.302017
C	-0.5252411749	-0.7534875014	 1.1180166607	 0.217024
C	-1.3645216337	-1.3000252395	 2.2976224928	-0.185933
O	-0.364536084	-0.6385836836	 3.1715349632	-0.313595
C	-0.0043485284	 0.2546460232	 2.0499514211	 0.071619
N	-0.0818862963	 0.0776360933	-0.1504716853	-0.20964
H	-0.5006983491	 2.2264368689	 0.3872660163	 0.11404
H	-0.0897166866	 1.9013135892	-1.3129132318	 0.115073
H	 2.2533708077	 1.2442787072	-0.6652383682	 0.124951
H	 1.9901296189	 2.1660358777	 0.8478758673	 0.113211
H	 1.1099059413	-1.9714786324	 0.0781200893	 0.109372
H	 1.3056492484	-1.8868357863	 1.8965384496	 0.120319
H	-2.3540692231	-0.8499307766	 2.4343953753	 0.116902
H	-1.3972638952	-2.3820954641	 2.4513767982	 0.123218
H	-0.4837333962	 1.2238080384	 2.1880651314	 0.083225
