16
gdb 54879	2.5968	1.56156	1.07669	2.7791	70.94	-0.2261	-0.0217	0.2043	1095.3821	0.12342	-437.949995	-437.94152	-437.940576	-437.983635	30.982	
C	-0.9124373009	 0.9885904219	 0.1883146039	-0.48697
C	 0.3094938197	 0.108878014	 0.0577492691	 0.371371
O	 1.1752414146	 0.0401511452	 0.8949186292	-0.286136
C	 0.3970629058	-0.7109114414	-1.2476321239	-0.280155
C	 1.6666909448	-1.493611995	-1.4369857314	-0.126512
C	 1.3565424701	-2.7822167233	-1.5917193962	-0.029582
N	-0.0338720032	-2.9810382108	-1.5343339873	-0.317731
C	-0.709245949	-1.8019219848	-1.3146748827	 0.409957
O	-1.9075124423	-1.6694176778	-1.2042052713	-0.367628
H	-0.8570915399	 1.8004994179	-0.5472215079	 0.137177
H	-1.8125440069	 0.4102647524	-0.0428357828	 0.178627
H	-0.9593199193	 1.4130340633	 1.1916702234	 0.137986
H	 0.1948000095	-0.0191126033	-2.0775038526	 0.132474
H	 2.6581050918	-1.0718562874	-1.4086067741	 0.123992
H	 2.0043950419	-3.6328863368	-1.7453177628	 0.136666
H	-0.5068722269	-3.8671520241	-1.5962525627	 0.266466
