19
gdb 60904	3.2954	1.10519	1.05343	2.1562	76.5	-0.2517	-0.037	0.2147	1219.0593	0.158357	-423.004783	-422.996204	-422.995259	-423.038388	32.434	
O	 0.2255531149	 1.567907913	-0.0611586526	-0.431628
C	 0.0427487544	 0.1816517478	 0.0543894838	-0.076383
C	 0.4920257191	-0.5094445087	-1.2221287646	 0.137406
O	 0.9396943481	 0.108573755	-2.1579726362	-0.264313
C	 0.7819628185	-0.3887928831	 1.2403447358	 0.377258
C	 0.3338594144	-1.629983462	 1.9663925329	-0.341459
C	 0.4148081476	-0.3356698524	 2.7271332968	-0.107118
C	 1.8698728252	-0.0223171756	 3.0923844988	-0.217761
C	 2.2484641217	-0.0765893393	 1.5753696699	-0.296378
H	 0.5671907011	 1.7102916789	-0.9585538472	 0.294111
H	-1.0302176934	-0.0623372337	 0.1748402547	 0.08886
H	 0.392441733	-1.613064685	-1.2406445998	 0.102993
H	-0.6730017404	-1.9695057981	 1.7403889115	 0.11082
H	 1.0389448807	-2.4347109327	 2.1637227372	 0.107288
H	-0.4625771722	 0.1040881918	 3.1862336867	 0.093037
H	 2.0020833492	 0.9758168919	 3.5139062269	 0.111482
H	 2.3600507943	-0.7483083197	 3.7491209883	 0.097277
H	 2.9867632643	-0.8255442051	 1.2704639781	 0.092642
H	 2.5494924296	 0.900197817	 1.1939718388	 0.121866
