19
gdb 29280	5.3288	0.91431	0.83299	1.7153	85.46	-0.167	0.0505	0.2175	1409.795	0.161004	-382.0871	-382.078334	-382.07739	-382.120709	33.616	
N	 0.0130963132	 1.446778816	 0.1514262258	-0.606894
C	 0.011734533	 0.0401157843	 0.0447658497	 0.264895
C	-1.0825724937	-0.7947093243	 0.0169350916	-0.173947
N	-0.611093248	-2.0977379705	-0.0004974891	-0.33606
C	 0.7586260937	-2.1053452705	 0.0044498182	 0.365788
C	 1.1726005711	-0.7883792568	 0.0361753758	-0.326222
C	 1.5668711559	-3.3378688132	-0.0191506834	-0.074781
C	 1.1327883762	-4.600307534	 0.6998668749	-0.273798
C	 1.1442903549	-4.5649941685	-0.8040181925	-0.275029
H	 0.7710478528	 1.8627289657	-0.3759907959	 0.236719
H	-0.8569348333	 1.8541795764	-0.168395779	 0.233598
H	-2.1390127862	-0.5813518233	 0.01830779	 0.098079
H	-1.1969045132	-2.9123338083	-0.0321469807	 0.252237
H	 2.1993586443	-0.4539313307	 0.0614344181	 0.079251
H	 2.6319613844	-3.1333407803	-0.0061543149	 0.089955
H	 1.8901928186	-5.1841015764	 1.2113392667	 0.116256
H	 0.1748881532	-4.5812513733	 1.2096653113	 0.107644
H	 0.1941190781	-4.5221690582	-1.326795265	 0.10652
H	 1.9095729152	-5.1245405642	-1.3307252717	 0.115788
