21
gdb 86407	2.3254	1.58669	1.21794	1.9969	78.17	-0.2411	0.0799	0.321	1131.654	0.181527	-424.222199	-424.213123	-424.212178	-424.256392	34.463	
C	 0.7312809623	 1.3904955011	-0.004871108	-0.392808
C	-0.0444861471	 0.0758281909	-0.0340092176	 0.14015
C	 0.2955200902	-0.813708821	-1.2467255375	-0.329257
C	 1.374172195	-1.7141687936	-0.681246964	 0.397648
C	 2.2119078993	-2.6252817205	-1.4566282348	-0.263232
O	 2.7368454811	-1.3801113984	-0.9779676016	-0.26538
C	 0.9858295271	-1.904650611	 0.7797889915	 0.076826
C	 2.138944596	-2.1296279899	 1.7440636545	-0.399208
O	 0.288365759	-0.7047384695	 1.1281948844	-0.298847
H	 1.8039371186	 1.2097257271	-0.1254958064	 0.134004
H	 0.3985830463	 2.0543099801	-0.8103917848	 0.107584
H	 0.5706822331	 1.8985951113	 0.9499768968	 0.123071
H	-1.1201479162	 0.2862949687	 0.0113214876	 0.072766
H	-0.5720512993	-1.4126168375	-1.544002001	 0.108246
H	 0.6451934068	-0.2510221591	-2.1143526971	 0.11744
H	 2.6280622858	-3.5161364264	-0.9872248946	 0.115114
H	 2.0803619869	-2.6940229941	-2.5360589064	 0.11448
H	 0.2817429386	-2.7519973527	 0.8436417182	 0.070972
H	 2.8798845915	-1.3341301832	 1.6464239947	 0.136019
H	 1.7620103922	-2.1441274459	 2.769846193	 0.123816
H	 2.6284722525	-3.0890294463	 1.547275803	 0.110596
