21
gdb 92927	2.69337	1.15718	0.90237	3.0426	85.47	-0.2364	-0.0264	0.21	1343.3106	0.18262	-387.123498	-387.114444	-387.1135	-387.157707	33.974	
C	 0.035804986	 1.60347226	-0.0350558522	-0.4047
C	 0.0241377178	 0.0727016099	-0.0405640308	 0.025754
C	 0.7572827559	-0.499181917	-1.2645538423	-0.239709
C	 0.9938891855	-1.9815097728	-1.1618550884	-0.066003
C	 0.9148743064	-2.6686697935	-0.0225743626	-0.071726
C	 0.5800145308	-2.0429951494	 1.3134539271	-0.125435
C	 0.6279918104	-0.5018285845	 1.2521253424	-0.231765
C	-0.7906040295	-2.5528681058	 1.745501339	 0.160703
O	-0.9715673844	-3.4366361492	 2.5421477535	-0.252007
H	 1.058502574	 1.988197605	 0.0573466613	 0.114542
H	-0.3887076962	 2.0071121277	-0.9604231907	 0.113148
H	-0.5462517888	 2.0020940125	 0.8024387411	 0.113809
H	-1.0219789627	-0.2575674054	-0.1051740269	 0.079787
H	 0.1899858009	-0.2757590567	-2.1771933429	 0.105314
H	 1.7234443242	 0.0139673102	-1.3925829276	 0.10886
H	 1.2634637101	-2.501794485	-2.0782195448	 0.092435
H	 1.088616435	-3.7413993092	-0.0157913762	 0.101768
H	 1.2821008528	-2.4154917158	 2.0683450319	 0.096611
H	 1.6774818531	-0.188718832	 1.3226079179	 0.105025
H	 0.1209335121	-0.0756342268	 2.1266848558	 0.099779
H	-1.6487953433	-2.0520515021	 1.2403699552	 0.07381
