21
gdb 123081	7.6267	0.41975	0.40289	0.5083	86.82	-0.2433	0.039	0.2823	2706.9178	0.178347	-424.174552	-424.162731	-424.161787	-424.215502	38.203	
C	-0.9479531615	 1.605569488	-0.7323454473	-0.224812
O	-0.7718592194	 0.2118570087	-0.8089644603	-0.233524
C	-0.5166758438	-0.3774176244	 0.444776025	-0.069837
C	-0.3470725112	-1.8724464482	 0.2245057765	-0.057159
O	-0.091930808	-2.4603791783	 1.4808095797	-0.248234
C	 0.0846276804	-3.8630783512	 1.395076142	-0.20438
C	 0.3442378975	-4.4203467181	 2.7149577736	-0.000154
C	 0.5604571236	-4.9038964129	 3.7952044732	 0.137651
C	 0.8209237164	-5.4794942372	 5.1061026727	-0.498874
H	-1.1390205087	 1.9680665467	-1.7453404433	 0.126535
H	-1.8020589974	 1.8750627849	-0.0908626943	 0.104771
H	-0.0517619115	 2.1097251393	-0.3370106985	 0.104772
H	 0.3968202334	 0.0357548887	 0.9024578943	 0.096877
H	-1.346655316	-0.1981165034	 1.1473747685	 0.096879
H	-1.2605250291	-2.2862254301	-0.2328880691	 0.09621
H	 0.4832934819	-2.0523425083	-0.477600764	 0.096201
H	-0.8138764015	-4.3329281419	 0.9581704923	 0.11349
H	 0.921790841	-4.0996138819	 0.7152518723	 0.113498
H	 0.0842285184	-6.2502552114	 5.3578832263	 0.148481
H	 1.8143233717	-5.9390622549	 5.1517560169	 0.148385
H	 0.7753649338	-4.7112268941	 5.8857565535	 0.153224
