21
gdb 120656	4.75333	0.73202	0.68955	2.0411	79.81	-0.2519	0.0707	0.3227	1706.6527	0.180801	-424.188444	-424.17888	-424.177936	-424.223815	34.47	
C	 0.2083991489	 1.5554921711	-0.181772299	-0.382705
C	 0.2799155794	 0.0300876769	-0.083218295	-0.158604
C	 0.2776520338	-0.4763165723	 1.3661711282	-0.209563
C	 0.3538784166	-1.9798091388	 1.4544526906	-0.037467
O	 1.6372335497	-2.5813163227	 1.1628704193	-0.281276
C	 1.1301991935	-2.6817632573	 2.4741846148	 0.353493
C	 1.8393853967	-2.1931569502	 3.7343988958	-0.152824
O	 1.4844028238	-3.4184830221	 4.414153735	-0.276201
C	 0.8923528414	-3.9885229521	 3.2247069139	-0.155266
H	 1.060858872	 2.0249130321	 0.3216330379	 0.116812
H	 0.2146426047	 1.8868708069	-1.2245688655	 0.115581
H	-0.7044128346	 1.9419720728	 0.2853971683	 0.113774
H	-0.566734598	-0.4148722579	-0.6222768534	 0.096611
H	 1.186381808	-0.3357073652	-0.5792931737	 0.11705
H	 1.1235572437	-0.0407270323	 1.9115183368	 0.101513
H	-0.6359631206	-0.141397447	 1.8767866729	 0.101372
H	-0.4826576842	-2.518162474	 1.0023650645	 0.092245
H	 2.9246796953	-2.0747162381	 3.6219625891	 0.113816
H	 1.423283779	-1.3081936544	 4.2312050371	 0.108547
H	-0.1498020579	-4.2906944803	 3.3835739311	 0.108619
H	 1.4671893787	-4.8390248449	 2.8360961113	 0.114475
