19
gdb 90133	3.39335	1.507	1.37606	1.4246	79.47	-0.2225	0.0108	0.2333	1020.1437	0.160002	-385.846234	-385.838752	-385.837808	-385.877642	30.534	
C	-0.0530069811	 1.5666831425	-0.0397411312	-0.402145
C	 0.0930184706	 0.0621914754	 0.0314949775	 0.092888
O	 1.166845337	-0.4546306894	-0.8255526062	-0.342763
C	 1.6943641914	-1.1998093803	 0.281247814	 0.387415
C	 2.1957642799	-0.3146907464	 1.3685352253	-0.371251
C	 0.7033886077	-0.6233845163	 1.2735727792	 0.103667
C	 0.1694848017	-1.8069227397	 2.0010572442	-0.174024
C	 0.7113679802	-2.9417425351	 1.532328138	-0.059257
C	 1.6717061619	-2.7155834069	 0.3640044028	-0.35618
H	 0.8588525577	 2.0745188554	 0.2852538994	 0.120859
H	-0.2712293867	 1.8786269888	-1.0661279547	 0.126314
H	-0.8797267368	 1.8926346101	 0.6006376731	 0.118621
H	-0.8479267912	-0.4291843048	-0.245978524	 0.08391
H	 2.7043066473	-0.7920673015	 2.1984374964	 0.122585
H	 2.5618560069	 0.6724637779	 1.1058160532	 0.118941
H	-0.5450395101	-1.7578925384	 2.8160496656	 0.095419
H	 0.5252311627	-3.9315939926	 1.9393000156	 0.095385
H	 1.2863844759	-3.1463871906	-0.5682284676	 0.12603
H	 2.6560477151	-3.1654347684	 0.5393393195	 0.113586
