18
gdb 89973	3.43001	1.22223	1.05541	3.726	74.65	-0.2314	0.0172	0.2487	1190.2021	0.147421	-439.084606	-439.075806	-439.074862	-439.118695	31.154	
C	-0.1278918745	 1.4271565713	-0.1049464396	-0.343241
N	-0.0199855738	-0.0071313138	-0.1070501834	-0.089324
C	-1.0289873266	-1.0693707533	-0.1429458364	-0.240137
C	 0.1436357556	-2.0876279353	-0.0362192162	 0.297767
C	 0.2841230203	-3.1579106871	 1.0612406215	-0.35345
C	 0.5136097053	-4.121235319	-0.1203669295	-0.070817
O	 0.2897309717	-3.0555184646	-1.0744379627	-0.305948
C	 1.071957865	-0.8372545162	-0.0519334984	 0.359555
O	 2.2560537761	-0.6251392377	-0.0050512277	-0.380219
H	 0.8846597352	 1.8348735349	-0.0539880726	 0.162552
H	-0.6126329981	 1.795763071	-1.0172255384	 0.131749
H	-0.6993885862	 1.786838837	 0.7598106378	 0.128049
H	-1.7296532998	-1.0552567278	 0.7007711929	 0.105973
H	-1.579863793	-1.1390696265	-1.0873026045	 0.120785
H	 1.1325361778	-3.0161301517	 1.731807736	 0.134041
H	-0.6208443333	-3.3402648934	 1.6429664195	 0.116216
H	 1.5268136347	-4.5283917313	-0.202714414	 0.119184
H	-0.2147619764	-4.9306355464	-0.2403601541	 0.107263
