20
gdb 124531	3.94574	0.97025	0.94309	2.7784	82.25	-0.2483	0.0149	0.2632	1381.9351	0.171615	-399.371872	-399.362379	-399.361434	-399.406873	33.904	
C	 0.0076966683	 1.485555221	-0.0837147036	-0.386626
C	-0.0474202434	-0.0477588732	 0.0325371657	-0.06802
C	 0.7037611997	-0.5374337392	 1.2829572991	-0.386626
C	-1.4691343801	-0.5280713649	 0.0456627104	 0.354898
N	-1.9649636942	-1.3297896004	-0.8884944209	-0.321958
N	-3.2505119431	-1.5016776531	-0.4881875794	 0.059211
C	-4.1602026538	-2.3284979663	-1.248776222	-0.319765
C	-3.4622917911	-0.8077296499	 0.6468327102	-0.002264
N	-2.3647693483	-0.1790029701	 1.0184929366	-0.316347
H	 1.0460622779	 1.8321801653	-0.1005941998	 0.106942
H	-0.4823013522	 1.8313471303	-0.9990343356	 0.114134
H	-0.4976518665	 1.951850397	 0.7672706681	 0.133519
H	 0.4199344741	-0.4869329335	-0.8555705245	 0.090764
H	 1.7424532311	-0.1917572331	 1.2667246198	 0.106942
H	 0.2269326652	-0.1540413027	 2.1899464913	 0.133519
H	 0.7087612408	-1.630253942	 1.3395182401	 0.114135
H	-3.7828793073	-3.352764493	-1.3056078157	 0.154238
H	-5.132923512	-2.3288056371	-0.7533818618	 0.14207
H	-4.2707779764	-1.9355584294	-2.2627293994	 0.15423
H	-4.4161507289	-0.7933334157	 1.1539434412	 0.137005
