20
gdb 58693	2.17002	1.19415	0.97632	4.2509	75.27	-0.2392	-0.0198	0.2194	1304.3261	0.168277	-440.26197	-440.251862	-440.250918	-440.297973	36.507	
C	 0.8957275397	-1.4839138652	 0.4058370058	-0.438003
C	-0.0122016281	-0.8062789589	-0.6224563792	 0.066722
O	 0.0377343431	-1.4782342566	-1.8794195098	-0.421262
C	-1.4753675226	-0.6160094789	-0.2067754891	 0.279987
C	-2.2361850623	 0.3497472268	-1.1082453312	-0.329109
C	-1.8429358464	 1.7892902675	-0.8391797193	 0.157054
O	-1.5300627222	 2.5875218241	-1.6853425247	-0.243286
C	-2.2125604059	-1.7451448319	 0.4262866846	-0.299131
N	-1.8811031604	-0.5425405136	 1.2080940674	-0.352033
H	 1.8826832406	-1.6211749856	-0.0423007786	 0.139904
H	 1.0213678808	-0.8758082997	 1.3075573212	 0.123723
H	 0.526085276	-2.4726576027	 0.7007549041	 0.116171
H	 0.4064996908	 0.1846406096	-0.8388983671	 0.106731
H	-0.4064636056	-2.3270640978	-1.7710174668	 0.278382
H	-2.065486259	 0.1178149789	-2.161900239	 0.133437
H	-3.3089748026	 0.2660145518	-0.8928583627	 0.120808
H	-1.869085098	 2.067810649	 0.2377903145	 0.090008
H	-3.2694889624	-1.8820365501	 0.21400316	 0.123069
H	-1.6788870197	-2.6657310326	 0.6475450781	 0.112523
H	-1.0954276259	-0.738450254	 1.8219479219	 0.234304
