13
gdb 309	10.23307	2.52788	2.17036	2.5981	51.1	-0.2304	-0.0233	0.2071	581.4874	0.107085	-286.476486	-286.470495	-286.469551	-286.505845	21.382	
C	-0.0455869171	 1.5121183858	 0.1118670138	-0.321402
N	-0.0051770238	 0.0665427767	 0.0571387393	-0.073894
C	-1.2406901405	-0.6720940008	 0.4042680025	-0.280226
C	-0.3695554295	-1.6184127106	 1.2440481349	 0.391527
O	-0.5314587323	-2.6687623453	 1.785637069	-0.277603
C	 0.8031073018	-0.6404175737	 1.0766775051	-0.280226
H	 0.9482166195	 1.9193088978	-0.0988752468	 0.127709
H	-0.7311567473	 1.8932819602	-0.6513959793	 0.127709
H	-0.3749248049	 1.9023654872	 1.094498551	 0.093143
H	-1.945628573	-0.1118265443	 1.0425353473	 0.114067
H	-1.7904990824	-1.0998564131	-0.4407682652	 0.132564
H	 1.7588823734	-1.0448449571	 0.7269786016	 0.132564
H	 0.9755218363	-0.0665522828	 2.0035944068	 0.114067
