21
gdb 74996	3.31946	1.27847	1.01373	2.1685	84.88	-0.2372	0.0174	0.2545	1231.3721	0.184401	-387.09479	-387.086619	-387.085674	-387.127528	31.926	
C	 0.0018634519	 1.5439179004	 0.0774685154	-0.477814
C	 0.027564296	 0.0426934056	 0.0031472377	 0.326593
C	 0.1597770225	-0.6177812166	-1.1516229653	-0.180525
C	 0.0783542365	-2.1035684289	-1.2421004699	 0.114194
O	 1.2886216691	-2.7732524975	-1.7090906332	-0.302062
C	 1.1830237308	-3.7432189292	-0.646579542	-0.089379
C	 0.1132686023	-2.9021700655	 0.0803945823	-0.062443
C	 0.6128416418	-2.0646605953	 1.2588614783	-0.22062
C	-0.0991155629	-0.7047966967	 1.3161495737	-0.301768
H	 0.8225982326	 1.9208105538	 0.7013803679	 0.124525
H	 0.0829191545	 2.0019071765	-0.9117755464	 0.121965
H	-0.9273313758	 1.8984593996	 0.5426838484	 0.123891
H	 0.2765943478	-0.073659353	-2.0865802486	 0.083767
H	-0.763676139	-2.3936341053	-1.8903639283	 0.070876
H	 0.8233347194	-4.7142245973	-1.0154124838	 0.090872
H	 2.1369194529	-3.8905331564	-0.1257115099	 0.099492
H	-0.8156508763	-3.4210305918	 0.3300835127	 0.069294
H	 0.486403314	-2.6100890481	 2.2003354924	 0.093074
H	 1.6864135471	-1.878672257	 1.1376261799	 0.108646
H	 0.3254272645	-0.0961689476	 2.1237665888	 0.099339
H	-1.1605891299	-0.8361660396	 1.5737145899	 0.108083
