19
gdb 87885	3.12609	1.3304	1.29484	2.8365	74.97	-0.2325	0.0587	0.2911	1079.4275	0.158973	-422.966938	-422.958978	-422.958034	-422.999526	31.379	
O	-0.4662020085	 1.4001968396	-0.1528991437	-0.438383
C	-0.1509601551	 0.0430275029	-0.1663904651	 0.062777
C	-0.1981638275	-0.7587142076	 1.1310719653	-0.401358
C	-1.2686772571	-0.913157233	 0.0940298171	 0.415553
O	-2.5673740208	-0.3345555995	 0.3191059833	-0.33877
C	-3.1951931353	-1.4244437595	-0.40483693	 0.126784
C	-3.3620658416	-1.1522693395	-1.9189695863	-0.236374
C	-2.002867806	-1.8735730308	-2.1931757413	-0.234975
C	-1.8233451748	-2.1085602899	-0.6683387338	-0.190075
H	-1.4318792414	 1.4523703958	-0.1134662923	 0.293774
H	 0.6168074002	-0.2090881587	-0.8943384214	 0.098062
H	 0.5132951089	-1.5679542396	 1.2651569645	 0.113667
H	-0.4686605466	-0.216742508	 2.031699875	 0.12742
H	-4.0284299127	-1.8494496756	 0.1577266727	 0.084583
H	-4.2258659685	-1.6519002245	-2.3647171066	 0.106591
H	-3.4049187785	-0.0892484558	-2.1654715037	 0.113565
H	-2.1201934072	-2.8025839504	-2.7554039756	 0.105851
H	-1.2213369299	-1.2770823468	-2.6695341205	 0.109826
H	-1.5475286176	-3.1000663391	-0.3114520075	 0.081481
