16
gdb 11606	6.14105	0.97233	0.88705	1.1262	62.06	-0.2514	0.0546	0.3059	1267.1082	0.130826	-417.070543	-417.062127	-417.061182	-417.10489	29.522	
N	-0.2017302992	 1.2191730715	 0.2352885264	-0.562819
C	 0.0339092864	-0.0997300905	-0.0295457974	 0.499388
O	 1.1098137703	-0.5807169046	-0.2986890136	-0.397974
O	-1.1303442105	-0.795099932	 0.0230244253	-0.26179
C	-1.016091493	-2.1901644848	-0.3058102958	-0.081611
C	-2.3879495005	-2.7922531645	-0.2255339595	 0.009416
C	-2.5299462942	-4.2085126712	 0.1948486328	-0.245674
N	-2.9814234399	-3.1225620964	 1.0786588305	-0.307244
H	 0.6051670843	 1.7876061043	 0.4250622429	 0.269234
H	-1.0795747075	 1.4844765445	 0.6479931949	 0.266409
H	-0.5902002489	-2.2897392895	-1.3098472003	 0.127823
H	-0.3269562531	-2.6754153489	 0.3952499921	 0.111491
H	-3.1041275501	-2.3847622891	-0.9355964267	 0.101634
H	-3.322763636	-4.8201078598	-0.2252171618	 0.124363
H	-1.6269737151	-4.7561037648	 0.4540934049	 0.115635
H	-2.297514473	-2.9673148043	 1.8162868255	 0.231718
