16
gdb 33989	2.37223	1.73088	1.20808	4.2184	74.38	-0.2746	-0.0047	0.2699	1035.1527	0.123794	-400.702577	-400.694898	-400.693954	-400.734792	29.439	
N	 0.0002918853	-1.1525424751	-0.1255120424	-0.344106
C	 0.0395261216	 0.0002290985	-0.0394639604	 0.197169
C	 0.0424028039	 1.419090154	 0.1298686776	 0.280468
O	 0.242775602	 2.2578457348	-1.0204156911	-0.274821
C	 1.1403717422	 2.4145349104	 0.0758714078	-0.05227
C	 0.452633792	 3.2936630266	 1.1351375255	-0.340825
C	-0.6855599702	 2.2423579269	 1.1819878157	 0.285725
C	-2.1636305171	 2.4154732176	 1.3351483655	-0.31624
C	-1.3647688716	 1.6965575774	 2.4006061091	-0.333237
H	 2.196001083	 2.2635301264	-0.114991906	 0.132624
H	 1.0139214243	 3.3527738628	 2.07093096	 0.123016
H	 0.1909824072	 4.2963355414	 0.7899856133	 0.125566
H	-2.5293268263	 3.4125350172	 1.5564137793	 0.124948
H	-2.818096016	 1.8281727033	 0.7001651775	 0.131801
H	-1.4747027738	 0.6197055875	 2.4799004368	 0.138032
H	-1.1904824364	 2.2005400002	 3.3454554319	 0.122148
