23
gdb 100137	2.25205	1.10548	0.94374	1.1025	87.33	-0.2559	0.0369	0.2929	1409.4389	0.201188	-388.254598	-388.24335	-388.242406	-388.290834	41.675	
C	 0.0329956002	 1.4209652546	-0.5081306898	-0.394539
C	-0.1134582037	 0.0338643953	 0.1233633759	-0.176996
C	-1.5182357019	-0.5933556702	 0.0155112429	 0.358186
C	-1.496567422	-1.9934080948	 0.649631125	-0.413664
C	-2.582969068	 0.2836049126	 0.6904763371	-0.422229
O	-1.725844396	-0.7067583741	-1.4094272268	-0.271632
C	-2.9925641528	-1.1178292452	-1.8847816593	-0.244292
C	-3.9090400104	-0.0095701631	-2.1740628626	 0.332876
C	-4.6595549602	 0.8907270317	-2.440599944	-0.469964
H	 1.0798720578	 1.7393662566	-0.4897647898	 0.106724
H	-0.3029990579	 1.4053805316	-1.5475336733	 0.135659
H	-0.5485126814	 2.1790099557	 0.0255638842	 0.111895
H	 0.586982199	-0.6572808448	-0.3598559098	 0.099051
H	 0.1631321543	 0.0703362953	 1.1839456368	 0.089248
H	-1.2372107467	-1.9286597554	 1.7110208374	 0.115099
H	-2.4710236763	-2.4877861318	 0.5850977053	 0.109593
H	-0.7563106551	-2.6250144749	 0.1501945272	 0.11892
H	-2.6707365321	 1.2538604562	 0.1989058411	 0.134843
H	-3.5682032027	-0.191060833	 0.6712409396	 0.115066
H	-2.315980422	 0.4461792598	 1.7397719552	 0.110575
H	-2.802519801	-1.6667162208	-2.8154100038	 0.136386
H	-3.479840759	-1.8263304454	-1.2013322125	 0.120073
H	-5.3237640323	 1.6871135744	-2.6694469059	 0.199121
