20
gdb 116626	3.83492	1.01138	0.86058	2.495	84.78	-0.2382	0.0144	0.2526	1402.4904	0.171052	-403.165208	-403.156014	-403.155069	-403.200869	33.129	
C	 0.3254177798	 1.5092834426	 0.1724056077	-0.36366
C	-0.1218814628	 0.0770004132	-0.1404142676	-0.131729
N	 0.6074800654	-0.4562046156	-1.2837495668	-0.291075
C	 1.606818626	-1.2082570576	-1.1047038027	 0.381264
C	 2.3957215	-1.7186355534	-2.2914965816	-0.335771
C	 3.1911579103	-2.9564894647	-2.0017664242	-0.064269
C	 3.3384669403	-3.4202842728	-0.7670523312	-0.077502
C	 2.7345553895	-2.7434961711	 0.4200393826	-0.112589
O	 2.0810363216	-1.503065847	 0.1459188869	-0.264763
H	 1.3696363909	 1.5248984625	 0.4995566021	 0.119129
H	 0.2369618832	 2.1428205795	-0.7150600819	 0.121773
H	-0.2896962829	 1.9402101711	 0.9690334779	 0.106684
H	-0.0085862696	-0.5469121864	 0.7548873509	 0.095533
H	-1.1844290716	 0.0860056144	-0.410345045	 0.095143
H	 1.6930243554	-1.8764590001	-3.1148415626	 0.140624
H	 3.0661149919	-0.9144068889	-2.6297989408	 0.137655
H	 3.6517416691	-3.4632680411	-2.8448954775	 0.098807
H	 3.9086001677	-4.3209398418	-0.5579964073	 0.099284
H	 2.0097946922	-3.4112540694	 0.9115508503	 0.120232
H	 3.5061071437	-2.5172463136	 1.1672501208	 0.125232
