16
gdb 33730	3.37172	1.54253	1.31102	3.1758	74.64	-0.2369	0.0218	0.2586	975.2025	0.124881	-400.635554	-400.6287	-400.627756	-400.66657	28.318	
C	 0.0493712354	-1.184934288	-0.0305795304	-0.327663
C	 0.0387461211	 0.0173851143	-0.0183046577	 0.022496
C	 0.014521106	 1.4535328165	 0.0190445094	 0.225323
C	-0.3124671195	 2.2800090474	 1.320075775	-0.266401
C	 0.4867724645	 3.3394300641	 0.5014976227	-0.089044
N	 1.3147811373	 2.2318605571	-0.099186017	-0.324458
C	-0.5199855497	 3.60751792	-0.6460230788	 0.052363
O	-0.1519981281	 3.0601099057	-1.9146647666	-0.220114
C	-0.87113916	 2.2365496205	-1.0050602065	 0.00582
H	 0.0640696937	-2.2466277154	-0.0513570297	 0.187813
H	-1.3636992374	 2.4706670582	 1.5649339557	 0.100019
H	 0.2266383202	 1.9067372068	 2.1948185368	 0.108503
H	 1.008375537	 4.1807344832	 0.9540532443	 0.082696
H	 1.9156402356	 1.8791027965	 0.6472463827	 0.222263
H	-1.1923302417	 4.4578821685	-0.643447278	 0.107787
H	-1.8410403147	 1.8622881546	-1.3112702019	 0.112595
