18
gdb 95032	2.45093	2.04274	1.48337	2.9616	69.36	-0.2318	0.0632	0.295	923.5821	0.150473	-439.029718	-439.022731	-439.021787	-439.06104	28.43	
O	 0.0177816042	 1.4531757803	 0.1995087762	-0.43851
C	 0.0049266065	 0.0554822625	 0.015587692	 0.093321
C	 0.7660711739	-0.709315064	 1.1434308798	-0.098984
O	 0.0121299934	-1.8640170327	 1.5146403875	-0.266658
C	-1.3155351647	-1.7189497186	 1.0880948584	 0.12116
C	-2.3458086197	-0.9492182359	 1.9457301873	-0.08778
N	-1.8427579945	 0.4341001586	 2.1554469372	-0.356942
C	-2.4940449216	 0.0764297342	 0.8709618693	-0.058055
C	-1.4025741155	-0.5937650816	 0.0163113628	-0.094997
H	-0.4087559191	 1.5963002614	 1.0565395702	 0.292624
H	 0.4895200632	-0.1169158287	-0.9492932997	 0.089498
H	 1.7553587712	-1.0542186861	 0.8245836748	 0.099313
H	 0.8904083817	-0.0341047001	 1.9979324301	 0.105522
H	-1.7047484687	-2.696189971	 0.7888960825	 0.085258
H	-3.08086892	-1.3601766503	 2.6269274191	 0.096643
H	-2.5342620005	 0.9118747347	 2.7313769982	 0.237753
H	-3.3741569257	 0.60418793	 0.52830871	 0.101848
H	-1.7408411642	-0.9110566128	-0.9694860359	 0.078986
