20
gdb 119535	3.00877	1.06079	0.87696	3.4045	80.04	-0.2414	0.0111	0.2525	1388.6167	0.170698	-403.151867	-403.142794	-403.14185	-403.186285	33.732	
C	-0.0052159847	 1.5979337806	-0.0760228395	-0.385255
C	-0.0368898828	 0.0686378461	-0.1104173029	-0.161206
C	-1.4470922455	-0.5027803983	 0.1125271962	-0.313672
C	-1.4573420211	-2.0047734569	 0.1277586748	 0.201003
C	-1.5848147456	-2.8917474705	-1.120440907	-0.324459
C	-2.5654020837	-3.038216814	 0.0014967116	-0.072251
N	-1.9902098629	-3.7951477287	 1.1189834274	-0.345744
C	-0.8987655604	-2.9079910332	 1.224696895	 0.376743
O	 0.0698516754	-2.9121214774	 1.9316581408	-0.346024
H	 1.0081740306	 1.9774698335	-0.2382261699	 0.114523
H	-0.6499135243	 2.0276824417	-0.8513859143	 0.110124
H	-0.3521195143	 1.9798888429	 0.8905600823	 0.116797
H	 0.3458995955	-0.2902785253	-1.0741079269	 0.095943
H	 0.6310428436	-0.339888458	 0.6562274062	 0.129484
H	-1.8431009618	-0.1277976353	 1.0654204962	 0.109143
H	-2.1255240488	-0.1373071971	-0.6695994787	 0.095668
H	-1.9299572578	-2.3622826131	-2.0052603449	 0.121844
H	-0.8669238204	-3.6828688661	-1.3186619231	 0.120891
H	-3.6331308856	-2.8765117454	-0.0659116921	 0.116193
H	-1.8756148853	-4.8031928255	 1.1113789389	 0.240255
