15
gdb 15739	5.7475	1.16118	1.01879	3.9653	64.88	-0.2464	-0.0251	0.2213	1106.8126	0.119557	-395.968076	-395.960084	-395.95914	-396.00185	27.727	
N	 0.0132819384	 1.223439192	 0.6369336418	-0.455011
C	-0.0194600737	 0.0394163851	 0.1775161022	 0.332326
N	-1.2082470741	-0.5356036059	-0.2970961749	-0.322205
C	-2.459268528	 0.0391302373	-0.4737258607	 0.163066
O	-2.774048975	 1.174992368	-0.2495332807	-0.254879
C	 1.1269933161	-0.9296492872	 0.0628489996	-0.089576
C	 2.2527982286	-0.8996182988	 1.0203900351	-0.240208
N	 1.2740506298	-2.0003569947	 1.0809733899	-0.315046
H	 0.9707797492	 1.462566055	 0.8933317976	 0.223096
H	-1.1461793022	-1.5100841569	-0.5525289913	 0.261813
H	-3.1628723335	-0.7217937259	-0.8720183695	 0.079348
H	 1.316728405	-1.2852200581	-0.9491344941	 0.11559
H	 3.2452308052	-1.1848905412	 0.6854297791	 0.132296
H	 2.2357315468	-0.1536826138	 1.8101266418	 0.126309
H	 0.6286513773	-1.8207878748	 1.848557204	 0.243082
