21
gdb 50038	3.51909	0.98415	0.90264	3.5195	84.42	-0.2421	-0.0153	0.2268	1366.9087	0.183275	-387.108832	-387.10015	-387.099206	-387.143095	32.876	
O	-0.1619523211	 0.2587341658	-0.8495257272	-0.274367
C	-0.0357175841	 1.2996730195	-0.2511062566	 0.164062
C	 1.2454059052	 2.007200498	-0.0495410521	-0.171363
C	 1.216681415	 3.5307962647	 0.0570565254	-0.346869
C	 1.5321780823	 2.7202154683	 1.2698747239	 0.371869
C	 0.5726009942	 2.6879924929	 2.4766499226	-0.291517
C	 1.4744915659	 2.9450335873	 3.7164138683	-0.202566
C	 2.8025474003	 3.4815330943	 3.1498361961	-0.203948
C	 2.9536324835	 2.7133464391	 1.8279327628	-0.272267
H	-0.9196694305	 1.8137764989	 0.1952462657	 0.062912
H	 2.0891639596	 1.5481184843	-0.5551087134	 0.100611
H	 2.011716294	 4.0701125196	-0.4471380138	 0.12259
H	 0.2410189318	 4.0055120202	-0.0033041201	 0.118133
H	-0.1998071203	 3.4568642128	 2.3782227938	 0.104995
H	 0.0547180099	 1.7288329499	 2.5662604228	 0.111545
H	 1.0119946613	 3.6266990601	 4.4347095289	 0.0999
H	 1.6569992073	 2.002288312	 4.2434131533	 0.105084
H	 2.7224438157	 4.555758585	 2.9448018088	 0.101547
H	 3.6458177407	 3.337705257	 3.830709512	 0.097468
H	 3.2752463269	 1.6834451251	 2.0304888435	 0.105162
H	 3.6800362126	 3.1552579253	 1.1399060752	 0.09702
