21
gdb 116491	3.05825	1.15156	0.88097	2.6672	80.94	-0.2496	0.0076	0.2572	1339.9795	0.183739	-424.224712	-424.215903	-424.214959	-424.258819	33.715	
O	 0.2447545658	 1.326422829	-0.4412119508	-0.429291
C	 0.1269351614	-0.0489886064	-0.1612766426	-0.065976
C	-1.3229210351	-0.4396009173	 0.1366712022	 0.039498
O	-2.0551180294	-0.0011909553	-1.0052191305	-0.266857
C	-3.4585874103	 0.0996403757	-0.8437255448	-0.069187
C	-4.1771635484	-1.242465646	-0.9693565335	-0.192186
C	-3.9691261187	-2.2053719885	 0.2091975887	-0.25733
C	-2.551045388	-2.6533042059	 0.473193249	-0.078461
C	-1.4423294102	-1.9142451077	 0.4457641425	-0.040865
H	-0.4626706924	 1.5149305436	-1.0707202462	 0.285662
H	 0.491164439	-0.6704895823	-0.9965037072	 0.092735
H	 0.7506266596	-0.2627879197	 0.7129934388	 0.106077
H	-1.6603225092	 0.1500331055	 1.0084057165	 0.082441
H	-3.6956553825	 0.5753899011	 0.1228555176	 0.087418
H	-3.7996904793	 0.7742894859	-1.6363013467	 0.103973
H	-5.251550313	-1.0428808212	-1.0719218446	 0.094517
H	-3.8478833803	-1.7191095876	-1.8995864696	 0.11092
H	-4.366505264	-1.7377471855	 1.1240089648	 0.113038
H	-4.5908524399	-3.0923709262	 0.045993835	 0.104953
H	-2.4417110796	-3.7002543808	 0.7496127301	 0.091284
H	-0.5024233255	-2.4012963406	 0.7020746511	 0.08764
