16
gdb 27933	2.44343	1.38715	0.89119	7.5981	78.42	-0.2096	-0.02	0.1896	1253.7238	0.124569	-434.124031	-434.11521	-434.114266	-434.157527	31.968	
C	-0.0299060887	 1.4967175763	 0.0654989494	-0.500801
C	 0.0140432511	 0.0094083525	-0.0227761342	 0.338051
N	-0.0104061963	-0.7058112006	-1.1069377339	-0.325046
C	 0.0340767721	-2.0376807661	-0.7026873888	 0.132104
C	-0.0060573979	-3.1709596168	-1.6027312718	 0.071359
O	-0.0562444736	-3.1385987577	-2.8125300947	-0.287282
C	 0.0971919238	-2.0996167065	 0.6850649098	 0.271935
N	 0.2432002709	-3.1437220053	 1.5868327463	-0.606403
N	 0.0793320388	-0.7989283611	 1.1071368826	-0.334148
H	 0.8609593286	 1.9033503227	 0.5585478637	 0.132831
H	-0.0798594288	 1.8999801211	-0.9463003992	 0.16722
H	-0.9061265473	 1.8460425625	 0.6241955879	 0.132625
H	 0.00637314	-4.1560985375	-1.0683761401	 0.021715
H	 0.205500077	-4.0504182599	 1.1417350097	 0.266393
H	-0.4006545179	-3.1141007996	 2.3685951311	 0.25595
H	 0.1896990481	-0.4928334939	 2.060431912	 0.263497
