16
gdb 83731	2.66475	1.77836	1.29694	3.3532	65.23	-0.2639	0.0099	0.2738	970.4006	0.125418	-475.00978	-475.00237	-475.001426	-475.041841	28.242	
O	 0.0665296902	 1.4256135294	 0.1275149373	-0.429837
C	 0.0014470229	 0.0364497109	 0.0230866723	 0.070041
C	-1.4009908229	-0.55180881	-0.090085142	 0.05933
O	-2.2442052896	 0.095874346	-1.0658054647	-0.280951
C	-2.3365698531	-1.1147542736	-1.8516342792	-0.089663
C	-1.2304335764	-1.7751767787	-1.0194626971	 0.037093
O	 0.0634570322	-1.6498496516	-1.6362120074	-0.24576
C	 0.6716197407	-0.5016345	-1.229704464	 0.369873
N	 1.647831588	 0.0732416117	-1.7801239382	-0.55328
H	 0.7567896418	 1.703525066	-0.4924268626	 0.301233
H	 0.4869744653	-0.4512621089	 0.8891750724	 0.095305
H	-1.9121962323	-0.6948380109	 0.865777196	 0.0915
H	-3.3191069894	-1.5934882792	-1.7518793785	 0.110523
H	-2.1028732631	-0.9526895838	-2.9083664186	 0.124006
H	-1.3534253014	-2.7972787737	-0.6644984538	 0.106475
H	 1.9519547272	-0.3995681836	-2.6307859321	 0.234113
