22
gdb 7836	3.4847	1.28919	1.10325	1.0611	79.2	-0.2291	0.0843	0.3134	1198.2986	0.197819	-350.193827	-350.184145	-350.183201	-350.228243	35.802	
C	 0.3834230801	 1.4178797779	 0.4066765865	-0.389696
C	 0.0433685066	-0.0280394246	 0.038514522	 0.152969
C	 0.7003881563	-0.4628070838	-1.2661812108	-0.390559
O	 0.4699490532	-0.9654099082	 1.0280599003	-0.260172
C	-0.2442628109	-0.9300345356	 2.2256249337	 0.139549
C	 0.2113377094	-1.8675964916	 3.2998185855	-0.333933
C	 0.3799631502	-0.3700590533	 3.4879978285	-0.022459
C	 1.7679159532	 0.228879248	 3.4708302468	-0.401905
H	 1.4666145334	 1.5462984137	 0.497844246	 0.120645
H	 0.0195187963	 2.1003487078	-0.3684345178	 0.110734
H	-0.0793123058	 1.7062227354	 1.3541948212	 0.121465
H	-1.0518195692	-0.1139086517	-0.0661630109	 0.064829
H	 1.7899579865	-0.3978927527	-1.1819328358	 0.121486
H	 0.4364258589	-1.4972288315	-1.50057794	 0.12174
H	 0.3791180498	 0.1779905202	-2.0926252075	 0.111142
H	-1.3185636324	-0.795628868	 2.090769717	 0.078338
H	-0.5311705528	-2.4045339222	 3.879833184	 0.107998
H	 1.1121359819	-2.4328605113	 3.0832936314	 0.120017
H	-0.3140906813	 0.101233844	 4.1802460202	 0.077703
H	 2.3694119304	-0.2199706821	 2.6759211464	 0.126879
H	 1.73550345	 1.3093655047	 3.2924542592	 0.111347
H	 2.2815280161	 0.0632018751	 4.4241397741	 0.111883
