13
gdb 133185	3.09374	1.47017	1.00274	2.9536	66.23	-0.2605	-0.0992	0.1613	1076.4598	0.087211	-494.004046	-493.996293	-493.995348	-494.037216	28.04	
C	-0.0372340292	 1.5065728722	 0.0424573664	-0.488665
C	-0.0064540655	 0.013918614	-0.0435956205	 0.222421
N	-0.0294218182	-0.591881622	-1.1752663507	-0.292165
C	 0.0010251913	-1.9806664456	-1.1999377194	 0.45774
N	-0.0191833457	-2.6243515962	-2.2853842603	-0.497821
O	 0.0562857732	-2.6896857152	 0.018050002	-0.274585
N	 0.0813428692	-2.045242822	 1.2398890851	-0.116131
C	 0.0509687788	-0.7745083118	 1.1844911105	 0.310023
F	 0.0738045118	-0.1197251723	 2.335121197	-0.042507
H	 0.8505725455	 1.8780606741	 0.5658615392	 0.158819
H	-0.0792723059	 1.9286127415	-0.9611873153	 0.164341
H	-0.9050475346	 1.8385897142	 0.6228153439	 0.158814
H	 0.0092612695	-3.628770821	-2.108474988	 0.239716
