21
gdb 83552	2.86203	1.33595	1.1417	0.7964	88.8	-0.2474	0.0552	0.3026	1174.3076	0.183742	-349.917798	-349.909528	-349.908584	-349.950106	33.538	
C	-0.0977869397	 1.7116550177	 0.0024613311	-0.442782
C	 0.0232433424	 0.1956701602	 0.0145963556	 0.04626
C	 1.1205224922	-0.5551375501	-0.8057813876	-0.032251
C	 2.4358850008	 0.0327594074	-0.2616165885	-0.230465
C	 2.1018006683	 0.018349946	 1.268307587	-0.230461
C	 0.6816622755	-0.5740928477	 1.2040091464	-0.032246
C	 0.900854279	-1.7542795316	 0.1878387624	-0.174239
C	-0.2408538856	-2.6074329239	-0.0695334753	 0.294131
C	-1.1708139741	-3.341764632	-0.279299086	-0.436604
H	 0.84639449	 2.2214822287	 0.2135082987	 0.115925
H	-0.4493345488	 2.0619300394	-0.9745285334	 0.116833
H	-0.8260333307	 2.0456617627	 0.7500462399	 0.116831
H	-0.95101293	-0.2495865363	-0.2023433239	 0.088856
H	 1.034158498	-0.7015322133	-1.8826653158	 0.065532
H	 3.2980237048	-0.5928333126	-0.5095921894	 0.09742
H	 2.6356508205	 1.0364252491	-0.6454243953	 0.099499
H	 2.7845693968	-0.6149723884	 1.8417802641	 0.097419
H	 2.1194561226	 1.0141617874	 1.7184272932	 0.099502
H	 0.1548762933	-0.7395119445	 2.1440634304	 0.065531
H	 1.7885090856	-2.3686248799	 0.37587548	 0.087905
H	-1.9938240006	-3.9863150883	-0.4643539136	 0.187404
