16
gdb 112398	3.46596	1.15951	0.90378	1.0884	66.19	-0.2649	-0.0312	0.2337	1216.3231	0.12569	-475.106489	-475.098483	-475.097539	-475.139648	29.732	
O	-0.0018846994	 1.4726646256	-0.1481378242	-0.422134
C	 0.067499437	 0.0705354762	-0.0880440287	-0.063613
C	-1.327521963	-0.5703689795	 0.0335333445	-0.148463
C	-1.3682467117	-2.1080100716	 0.0460530972	-0.378288
C	-2.245674507	-2.4879544073	 1.2376005002	 0.420181
O	-2.6312890946	-3.5774066725	 1.5668126599	-0.332341
N	-2.517288189	-1.3020135727	 1.9254350104	-0.354301
C	-1.9827017128	-0.1636581678	 1.3523158126	 0.436312
O	-2.0195670821	 0.9471052154	 1.8354124254	-0.37021
H	-0.5407892084	 1.7572185632	 0.6044331097	 0.299577
H	 0.5423894707	-0.2711663169	-1.0140174607	 0.115015
H	 0.6968243427	-0.2803228476	 0.7488349678	 0.090169
H	-1.9478721535	-0.1605532802	-0.771432502	 0.129597
H	-1.7695729392	-2.5540548622	-0.8656669239	 0.151605
H	-0.3763291457	-2.5456656261	 0.208142923	 0.150176
H	-3.0279378841	-1.2874022859	 2.7976815986	 0.276719
