15
gdb 66305	2.41438	1.52905	1.26322	2.5805	63.15	-0.2493	-0.0659	0.1834	1021.2929	0.110653	-494.915211	-494.906988	-494.906044	-494.948282	30.004	
O	 0.1308545288	 1.5140604867	 0.1084005683	-0.463169
C	-0.0087058815	 0.1385119093	-0.0198284428	 0.199916
C	-1.4686083835	-0.3353065239	-0.2072929045	-0.153212
O	-1.3716160223	-1.5455885236	-0.9465781717	-0.246262
C	-0.3948719767	-1.3572420134	-1.9560788181	-0.189619
C	 0.6233133743	-0.392079027	-1.3565371444	 0.321314
O	 1.6733394009	-0.047318633	-1.8134264833	-0.280432
C	 0.6342689394	-0.5774023718	 1.1523782259	 0.116229
O	 1.2862973058	 0.0295440817	 1.9664733367	-0.268198
H	 0.7571769429	 1.6499538848	 0.8384221459	 0.302391
H	-1.9930259545	-0.5574409302	 0.7244143526	 0.130446
H	-2.0181761373	 0.4477208137	-0.7497488661	 0.126426
H	 0.0515575714	-2.3206774056	-2.216199879	 0.149075
H	-0.8198623042	-0.9103019903	-2.8695342303	 0.135732
H	 0.4659334066	-1.6689581774	 1.2174334508	 0.119362
