10
gdb 23770	3.39784	2.41396	1.41131	2.6092	52.03	-0.2676	-0.076	0.1916	755.9081	0.060752	-458.606402	-458.600526	-458.599582	-458.636641	21.371	
F	-0.0202726423	 0.0256080154	 0.0044154137	-0.041804
C	-0.052477448	 1.3487992123	 0.0113107127	 0.103314
C	-1.2091009045	 2.043583929	 0.0295939123	-0.105266
N	-1.2375185817	 3.4246570477	 0.0367745479	-0.264801
C	-0.1010265119	 4.0106282381	 0.0250737192	 0.149986
O	 1.1056810567	 3.4211610977	 0.0066246068	-0.198236
C	 1.2397589926	 2.0173822027	-0.002041814	 0.364107
O	 2.3303952627	 1.5333869188	-0.0184256873	-0.316166
H	-2.1638997309	 1.5284907151	 0.0393332298	 0.148107
H	-0.0155139228	 5.0923529332	 0.0293490788	 0.160757
