17
gdb 34982	2.75496	1.69045	1.45811	2.4563	77.79	-0.2172	0.0345	0.2517	957.34	0.137064	-380.773167	-380.765857	-380.764913	-380.804673	29.444	
C	-0.3534851397	-1.2839468731	-0.2342636341	-0.467333
C	-0.1495606582	-0.1231388585	 0.0077841409	 0.383741
C	-0.021651759	 1.3028249495	 0.1032199837	-0.20983
C	 0.5372595046	 2.1019761402	 1.2446111928	-0.03013
C	 1.3925587449	 1.505527481	 2.3311894	-0.065286
N	 1.6669877453	 0.06152876	 2.2200114831	-0.318304
C	 2.6469331494	 1.0237390351	 1.6899964483	-0.036918
C	 2.5148649239	 1.2734853769	 0.189447315	-0.175483
N	 1.2625522235	 2.0406496563	-0.041862769	-0.130774
H	-0.5058037838	-2.3238651655	-0.3843250481	 0.190777
H	-0.8084311889	 1.8087548987	-0.4567441886	 0.115464
H	 0.0549167913	 3.0478510302	 1.4811073866	 0.091563
H	 1.3785205666	 1.9743415871	 3.308910329	 0.090559
H	 1.9817780746	-0.292056368	 3.1207573887	 0.231977
H	 3.6173425762	 1.1143445385	 2.1687570672	 0.090842
H	 3.3444303961	 1.8931919188	-0.1645253099	 0.110564
H	 2.5087815231	 0.3413468726	-0.3840614756	 0.128571
