21
gdb 109796	2.76651	1.05609	0.90441	2.3933	80.16	-0.2436	0.0757	0.3193	1388.1165	0.18045	-424.173362	-424.163436	-424.162492	-424.208939	35.52	
C	 0.446008321	 1.2456811047	 0.2937080177	-0.233803
O	-0.2623346567	 0.1564171541	-0.2665554239	-0.237314
C	 0.4544320024	-0.4967169474	-1.2679954705	 0.089905
C	 1.3496663453	-1.6639025048	-0.9109354894	-0.065307
C	 1.578591344	-2.0782454637	 0.527146298	-0.413575
C	 0.0095853121	-1.8929967995	-1.6078907356	-0.114679
C	-1.1447649704	-2.5121264033	-0.8947238479	 0.106037
C	-2.2888549363	-3.0689851891	-1.6275608178	-0.188912
O	-1.3034017121	-3.9305301349	-1.057390654	-0.247684
H	 1.3841309824	 0.9241566729	 0.7661947539	 0.113828
H	 0.6827937449	 2.0026678645	-0.4690885497	 0.108731
H	-0.2017881725	 1.695743259	 1.0494776526	 0.128584
H	 0.7592954531	 0.158410989	-2.0863393456	 0.083071
H	 2.2141140102	-1.7958621532	-1.55675133	 0.085742
H	 0.7669522735	-1.7445588714	 1.1775005157	 0.13013
H	 1.6563900061	-3.1665795244	 0.6163170495	 0.130307
H	 2.508740807	-1.6446336599	 0.9098078252	 0.112636
H	 0.0633863321	-2.1693836026	-2.657136436	 0.088598
H	-1.3255029512	-2.1584722631	 0.1170392854	 0.103811
H	-3.2716458509	-3.1011626724	-1.1583847133	 0.111835
H	-2.2994996539	-3.0264193444	-2.7165541641	 0.108059
