23
gdb 111489	2.55745	1.34365	1.08874	1.1482	84.19	-0.2597	0.0746	0.3343	1222.4562	0.207384	-388.286351	-388.277355	-388.276411	-388.319556	35.581	
C	-0.9151589332	 1.1976508924	 0.0973302618	-0.410839
C	-0.2288200333	-0.1772070267	 0.0606380422	 0.003829
C	 0.5174378015	-0.4599320639	-1.2785144167	-0.232892
C	 2.005463812	-0.3101625915	-0.9937599256	-0.029698
C	 2.4827046804	 0.9490845029	-0.3144786134	-0.294853
C	 2.202545571	-0.2921446952	 0.5029488529	-0.051009
C	 0.8429494241	-0.4423575618	 1.174942621	 0.015788
C	 0.7001134647	 0.3786844709	 2.450736147	-0.093143
O	-0.5448912917	 0.048161288	 3.0588921502	-0.421521
H	-0.2240077907	 2.0325072657	-0.0538328866	 0.111891
H	-1.6657771183	 1.2559307143	-0.6982175489	 0.105988
H	-1.4248874695	 1.3453936563	 1.0528345038	 0.127469
H	-1.0287750204	-0.9127235574	 0.1847457316	 0.081659
H	 0.3251246437	-1.4873717274	-1.6090455313	 0.09423
H	 0.1674900264	 0.199270629	-2.081739866	 0.09214
H	 2.7038635694	-0.8322978974	-1.6391461143	 0.076462
H	 3.5255408567	 1.2158288483	-0.4515294492	 0.105681
H	 1.8217400389	 1.8048472192	-0.2463910109	 0.110319
H	 3.0484348721	-0.7944281293	 0.9615243142	 0.076137
H	 0.7468987137	-1.4937184964	 1.4771065517	 0.078218
H	 1.5387749281	 0.1435479591	 3.1252446161	 0.081829
H	 0.7585542809	 1.45331317	 2.2232334274	 0.087171
H	-0.6359990962	 0.5722388109	 3.859978263	 0.285146
