19
gdb 76958	2.2204	1.20118	1.01358	4.518	78.48	-0.2378	-0.0376	0.2001	1287.0757	0.156295	-423.049369	-423.039453	-423.038509	-423.084843	35.191	
C	-0.1543779186	 0.7371645022	-2.223671412	-0.427159
C	-0.0012348696	-0.2870793745	-1.1191644042	-0.03092
C	 1.3202604555	-0.6099696036	-0.4588405706	-0.134192
C	 2.5932551653	 0.0680430958	-0.8348367627	 0.146384
O	 3.6497776171	-0.5201827662	-0.8243352508	-0.272362
C	 0.2014272593	 0.0901219579	 0.3402130196	-0.152667
C	 0.3012391342	 1.515809501	 0.7817843079	 0.396493
C	-0.4529668085	 1.8492751712	 2.0559190264	-0.483176
O	 0.9242928493	 2.3631103677	 0.1740806651	-0.325045
H	 0.3964833419	 1.6544012187	-2.0165899514	 0.162929
H	 0.1951581903	 0.3231830266	-3.1749499165	 0.128158
H	-1.210376685	 1.0001941639	-2.3440010074	 0.122351
H	-0.6393485263	-1.1581450059	-1.2439860365	 0.108336
H	 1.4875571223	-1.6456955409	-0.1804112297	 0.112384
H	 2.5228470538	 1.1284873158	-1.129356267	 0.114783
H	-0.2912003412	-0.5580785145	 1.0577579578	 0.099378
H	-0.0542786897	 1.2634448827	 2.8924143522	 0.146321
H	-0.3574533507	 2.91303283	 2.2743262533	 0.145676
H	-1.5110554095	 1.5813514521	 1.9568991665	 0.142327
