17
gdb 75072	2.27128	1.78705	1.01266	4.9239	78.37	-0.2267	-0.023	0.2036	1135.2362	0.136642	-418.062192	-418.053989	-418.053045	-418.094874	30.897	
C	-0.0254969132	 1.5073462099	 0.0450162896	-0.504595
C	-0.0096048362	 0.0164121297	-0.0219575891	 0.38136
C	-0.0260487076	-0.7700450661	-1.1009441439	-0.225182
C	 0.0003260631	-2.2192087383	-0.7077220688	-0.340911
C	 0.0358951991	-2.1708878336	 0.8128126715	 0.378861
N	 0.0658539085	-3.1698027109	 1.5815705811	-0.52562
N	 0.0279014883	-0.7738849694	 1.1652149857	-0.180501
C	 0.0528541652	-0.2911157552	 2.4501947518	 0.152438
O	 0.0848990394	-0.9768341831	 3.451141761	-0.323416
H	 0.8652008469	 1.9042112197	 0.5457864015	 0.144518
H	-0.0544088883	 1.9135356778	-0.9678503641	 0.142488
H	-0.9003802213	 1.8834998087	 0.5878803741	 0.144515
H	-0.054502341	-0.4103213001	-2.1190864015	 0.110358
H	-0.8791666542	-2.7784776387	-1.0474611988	 0.146406
H	 0.8756115685	-2.7578286721	-1.0891449871	 0.146407
H	 0.0855596023	-2.8730725402	 2.558014753	 0.255584
H	 0.0411108705	 0.8110547217	 2.4905161441	 0.09729
