25
gdb 121563	6.05427	0.38447	0.37651	0.1716	100.79	-0.238	0.0649	0.3029	3054.1959	0.226731	-352.350793	-352.338802	-352.337858	-352.391129	41.444	
C	-0.540499583	 1.4355925134	 0.3150566771	-0.385066
C	 0.0464711557	 0.0538930923	 0.0146165903	-0.160249
C	 0.7613671518	-0.5670275006	 1.2182159025	-0.148143
C	 1.3505185781	-1.9582381217	 0.9098131599	-0.358362
C	 2.0346972957	-2.5616391409	 2.0487006286	 0.065888
C	 2.600362998	-3.0302895363	 3.0039195125	 0.074177
C	 3.2612003182	-3.6282977067	 4.1591489254	-0.335218
C	 2.4308651618	-4.7414268603	 4.8302712005	-0.151406
C	 3.1428477872	-5.3531167414	 6.0382973146	-0.381168
H	 0.2417235763	 2.1401544114	 0.6186377706	 0.114999
H	-1.0445017772	 1.8550115809	-0.5612700642	 0.111516
H	-1.2726764989	 1.3859578608	 1.1286302919	 0.11488
H	-0.7537766528	-0.6201024723	-0.3195012565	 0.094636
H	 0.7493724169	 0.1286318113	-0.8259944589	 0.094768
H	 1.5687941611	 0.0946165921	 1.5547386475	 0.103827
H	 0.0653957507	-0.6544287782	 2.0614056506	 0.103337
H	 0.5449882363	-2.6235347306	 0.5695483315	 0.121583
H	 2.0460962922	-1.8759509725	 0.0632384149	 0.121739
H	 4.2348324107	-4.038214772	 3.8566913766	 0.121226
H	 3.4841544689	-2.8490046022	 4.9010782586	 0.121064
H	 1.4629020431	-4.3263127845	 5.1327834786	 0.106526
H	 2.214070978	-5.5170849435	 4.0872270141	 0.107022
H	 4.1026360037	-5.7973532559	 5.7512625788	 0.114702
H	 3.3453964651	-4.5971352993	 6.8053766381	 0.114576
H	 2.5372089726	-6.1395808733	 6.4986645363	 0.113146
