21
gdb 60962	2.35586	1.30118	1.04923	1.8246	78.6	-0.2424	-0.0249	0.2175	1260.4532	0.180091	-424.228852	-424.218947	-424.218003	-424.264125	35.763	
C	-0.0337035216	 1.5774227778	 0.0807049821	-0.420911
C	 0.0133939228	 0.0461470575	 0.0119396303	-0.086651
C	 0.6808478048	-0.5316589518	 1.2528700229	 0.168278
O	 1.2171897741	-1.6107788105	 1.2973291334	-0.262071
C	-1.397711303	-0.5438293592	-0.1339191105	 0.154088
C	-1.5975823331	-2.0706929588	-0.1935306675	-0.336697
C	-2.5702075569	-1.8481754304	 0.9871274507	 0.17604
C	-2.357800584	-2.6206479724	 2.2714055347	-0.408194
O	-2.1596251696	-0.4547597537	 1.0944934678	-0.323897
H	 0.9644932318	 2.0046207115	 0.2197250442	 0.120544
H	-0.4520495793	 1.9942256731	-0.8399328075	 0.123152
H	-0.6637574601	 1.9034320134	 0.9145013866	 0.143358
H	 0.5954589591	-0.2897084379	-0.8554681517	 0.102082
H	 0.6334304351	 0.1178285375	 2.1550243841	 0.085557
H	-1.9125905539	-0.011000239	-0.9475172754	 0.071942
H	-2.0230307548	-2.4663613829	-1.1167243278	 0.104183
H	-0.7053481615	-2.6372237255	 0.0776224398	 0.137562
H	-3.625235817	-1.8980555787	 0.6827127093	 0.074194
H	-1.3041310513	-2.6100827986	 2.5637033558	 0.135202
H	-2.9506740545	-2.1848580732	 3.0820845256	 0.124861
H	-2.672918257	-3.6619359278	 2.1414350531	 0.117378
