19
gdb 85833	2.38227	1.35016	1.15541	4.6004	76.02	-0.251	0.0183	0.2694	1170.4992	0.157711	-419.20224	-419.192471	-419.191527	-419.23691	35.937	
C	-0.8872216372	 1.0838536177	-0.0648619852	-0.389323
C	 0.0602768979	-0.0974343168	 0.0335084678	 0.00819
N	 1.3426774786	 0.059715434	-0.6985417221	-0.342556
C	 2.134568528	-0.4955435488	 0.4242044167	 0.096349
C	 2.5802700858	-1.9539665147	 0.2791070446	-0.456258
C	 3.2743615447	 0.3638419431	 0.7751119328	 0.27891
N	 4.145698231	 1.0636098815	 1.0710973868	-0.346021
C	 0.8714016283	-0.2984308167	 1.3548121163	 0.104304
O	 0.9047643433	 0.7524609135	 2.2708644701	-0.416192
H	-0.3913839619	 2.014138835	 0.2235570289	 0.116078
H	-1.2452511499	 1.1994088183	-1.0929786506	 0.119877
H	-1.7556411767	 0.9380909458	 0.5853431799	 0.124357
H	-0.4749934254	-1.0226778129	-0.2246964084	 0.069531
H	 1.4366773153	-0.436419297	-1.5783168627	 0.221688
H	 3.2949051761	-2.0613120066	-0.5428186161	 0.138143
H	 3.0610065841	-2.309557873	 1.1953481001	 0.145798
H	 1.7133679721	-2.5886222213	 0.0718393602	 0.12673
H	 0.6116711711	-1.1909579619	 1.9269076474	 0.100334
H	 1.3063509047	 1.5269480807	 1.8595433637	 0.300061
