11
gdb 727	9.28026	3.56436	2.61716	3.1194	48.06	-0.2527	-0.0071	0.2456	483.7794	0.08558	-285.293918	-285.288674	-285.28773	-285.322634	18.293	
C	 0.0263714817	 1.4944410895	 0.028736455	-0.489441
C	-0.0849961044	 0.0110688664	 0.044901192	 0.427971
C	-1.0956514001	-0.8588138849	-0.2308144918	-0.32666
C	-0.5082197137	-2.1325910766	-0.0112616785	 0.038121
N	 0.74334769	-2.0451454739	 0.3632041944	-0.140578
O	 1.0156136918	-0.6777310818	 0.3996886862	-0.203035
H	 0.8031512016	 1.8213433648	-0.6701653698	 0.152402
H	-0.9230385017	 1.9401178818	-0.2734225823	 0.141664
H	 0.2923076908	 1.8782058882	 1.0190412015	 0.15239
H	-2.1005454996	-0.6271302656	-0.5414538206	 0.116632
H	-0.9558623964	-3.1113179178	-0.1135680659	 0.130534
