15
gdb 22792	2.85655	1.51383	1.04728	2.9068	72.93	-0.2217	-0.0461	0.1756	1087.2216	0.113553	-453.940463	-453.932634	-453.93169	-453.973074	29.603	
O	-0.002832557	 1.3435917101	 0.0395177629	-0.35314
N	 0.0280448983	-0.0350623362	-0.0171780246	-0.179022
C	-1.1145806551	-0.611646531	 0.0138588691	 0.246057
C	-1.1020857441	-2.1253311705	-0.0374556289	-0.342175
C	-2.2197613481	-2.6574831603	-0.8951914275	-0.128151
C	-3.3172059362	-1.9268220546	-1.0865694148	 0.029391
N	-3.4608957962	-0.6493013858	-0.5360208532	-0.356295
C	-2.4524785511	 0.0870379614	 0.0615992961	 0.366467
O	-2.6645878849	 1.1795212915	 0.5417031787	-0.342122
H	 0.931868776	 1.5678309494	-0.0372724496	 0.312082
H	-0.1192434501	-2.4503370208	-0.3887959662	 0.135066
H	-1.2064172204	-2.5236999441	 0.9860898048	 0.132009
H	-2.1396359182	-3.6459665358	-1.3283985187	 0.104197
H	-4.1654685612	-2.2659780252	-1.6688105409	 0.118254
H	-4.3529884818	-0.1794423082	-0.575874277	 0.257381
