19
gdb 67248	3.04726	1.54632	1.28687	1.9277	79.63	-0.2243	0.0799	0.3043	1054.7274	0.158853	-385.805051	-385.797337	-385.796392	-385.836916	30.945	
C	-0.0302899952	 1.5854189556	-0.1169362008	-0.532505
C	 0.0055619407	 0.0977878836	-0.0026991681	 0.311869
C	 0.0671377661	-1.0442684089	-0.9557932297	 0.035209
O	 1.181550542	-1.6943086488	-0.3459097492	-0.291966
C	 0.8531077666	-0.9359297684	 0.8561243832	-0.108996
C	-0.4613553883	-1.5601875831	 1.3310542093	 0.463899
C	-0.6880195741	-2.8334076991	 2.0736370115	-0.339207
C	-1.0060565701	-1.4940120689	 2.7228556631	-0.343452
C	-1.0815093667	-0.9808948374	 0.0809790739	-0.294934
H	 0.947488338	 1.990344527	-0.4011829017	 0.128279
H	-0.7533170874	 1.8935565799	-0.879972195	 0.12553
H	-0.3285897482	 2.0540396829	 0.8277134763	 0.125633
H	-0.0656170601	-1.1174427033	-2.0279476037	 0.104352
H	 1.7055861541	-0.7560464884	 1.5097412354	 0.080266
H	-1.5211234498	-3.4614048592	 1.7746511235	 0.112576
H	 0.1769361412	-3.3831178275	 2.4308515542	 0.114776
H	-0.3532377826	-1.1479934188	 3.5188668172	 0.109913
H	-2.0490549553	-1.2269790172	 2.8603203623	 0.111326
H	-2.1262492911	-0.9046523301	-0.1951978719	 0.087432
