20
gdb 59137	4.14217	1.0805	0.99616	1.1462	79.34	-0.2309	0.0687	0.2996	1256.7601	0.170604	-403.042718	-403.034448	-403.033504	-403.075685	32.174	
C	 0.0464983092	 1.5764627962	-0.0274808989	-0.403425
C	 0.0652760179	 0.0551498879	 0.1295593678	 0.100639
O	 0.7121458256	-0.3373459531	 1.3405484112	-0.432017
C	-1.3276976113	-0.5522417334	 0.0476561532	-0.01117
C	-2.0074890881	-0.7771299413	-1.3122646696	-0.028826
C	-1.1917616518	-2.0646100258	-1.6492203461	-0.073662
C	-2.4997799202	-2.811053577	-1.8757041121	-0.185704
N	-2.9005592752	-1.9018054759	-0.7179325631	-0.169115
C	-1.4765545349	-2.0695883609	-0.1144042423	-0.01806
H	 1.0585572743	 1.9793406612	 0.0650671037	 0.124989
H	-0.3586171553	 1.8705191859	-1.0014460677	 0.11871
H	-0.5792605002	 2.0386788574	 0.7462620989	 0.108205
H	 0.6926238597	-0.3759769267	-0.6599456731	 0.086748
H	 0.2034669241	 0.0278760292	 2.0733660602	 0.276511
H	-1.99830801	-0.1230052481	 0.8050887242	 0.070237
H	-2.4323394937	-0.0557463368	-2.0137214756	 0.080132
H	-0.228873048	-2.1464275157	-2.1635204495	 0.069813
H	-3.0570572797	-2.6139266814	-2.7977615118	 0.099343
H	-2.537947805	-3.8765131474	-1.6253234777	 0.100955
H	-1.2697219376	-2.8698016942	 0.5976442383	 0.085696
