20
gdb 95637	2.25696	1.51991	1.14292	1.4308	75.31	-0.2114	-0.023	0.1883	1148.1792	0.171825	-440.301116	-440.292055	-440.291111	-440.334727	34.33	
C	-0.0150170063	 1.5807998366	 0.0211416191	-0.406642
C	 0.0337952592	 0.0498702983	-0.0030226674	-0.002829
C	 0.7048794058	-0.5036239526	-1.2774166778	-0.167398
N	 0.769373412	-1.9656135246	-1.3314733628	-0.29465
C	 1.45777619	-2.5430162304	-0.1691713318	-0.254504
C	 0.8532959488	-2.0528175432	 1.1436206215	 0.352298
O	 0.4839842141	-2.784681842	 2.0337601298	-0.317773
C	 0.738202087	-0.5238528214	 1.2388139251	 0.020155
O	 2.0596693254	 0.0225136938	 1.2834016115	-0.434747
H	 0.9941311699	 1.999919066	 0.0324054889	 0.13789
H	-0.5392438075	 1.9655944191	-0.8595603199	 0.112114
H	-0.5405138272	 1.945166773	 0.9100019994	 0.113284
H	-0.995268232	-0.33824781	 0.0224227709	 0.075678
H	 0.1667551806	-0.1501332181	-2.1632998848	 0.101214
H	 1.728241381	-0.1158656154	-1.344852076	 0.123301
H	-0.1730234812	-2.3437195923	-1.3774026509	 0.219622
H	 1.4077106689	-3.6337966089	-0.2027145064	 0.120519
H	 2.5118257532	-2.2416842699	-0.2101183007	 0.129294
H	 0.1791171497	-0.2760601958	 2.1513990368	 0.077408
H	 2.4604116286	-0.237752292	 2.1191599855	 0.295767
