21
gdb 76183	1.96575	1.47509	1.24211	2.1539	80.93	-0.2419	-0.0206	0.2213	1172.2565	0.178613	-424.231068	-424.2205	-424.219555	-424.26565	39.102	
C	-0.0827262053	 1.4612268083	-0.0165616416	-0.445376
C	 0.0408942761	-0.0529079837	 0.0064005484	 0.235305
C	-1.1674424151	-0.7591515289	-0.5819585353	-0.469292
C	 1.3819844758	-0.6567565119	-0.1755622215	 0.038553
O	 2.4517607887	 0.1887009545	-0.4496375782	-0.414768
C	 0.7701415858	-0.6714593034	 1.2502419109	 0.132169
C	 1.3333741527	 0.2568263434	 2.3126274869	-0.495961
C	 0.369174938	-2.0120731668	 1.7381651126	 0.089192
O	 0.07078941	-2.9662614114	 1.0518969969	-0.285337
H	 0.836096554	 1.9662220827	 0.2784050475	 0.135793
H	-0.3262718518	 1.7877012842	-1.0333907392	 0.123369
H	-0.8951595264	 1.7935667503	 0.6387893751	 0.116581
H	-1.2963094062	-0.4510456313	-1.6258217251	 0.11503
H	-1.0676852412	-1.8434950881	-0.5473273716	 0.159045
H	-2.0786535202	-0.4816691307	-0.0398862558	 0.11266
H	 1.4241288218	-1.6409115453	-0.6410649521	 0.111716
H	 3.2658711077	-0.2684053968	-0.2128567073	 0.294326
H	 2.1294491533	 0.8835901718	 1.904886379	 0.134804
H	 0.5714168392	 0.9158609387	 2.7410804065	 0.12578
H	 1.7629679149	-0.3253930869	 3.1350871413	 0.116391
H	 0.3887048683	-2.1109599788	 2.8478646327	 0.07002
