22
gdb 15425	4.70959	0.82594	0.76154	1.3482	79.48	-0.2567	0.0792	0.336	1566.3038	0.199222	-350.191056	-350.18122	-350.180276	-350.226301	35.294	
C	-0.2451329486	 1.5302714571	 0.0498104553	-0.382123
C	-0.191413354	 0.0109058935	-0.1284616083	-0.154816
C	 0.9244475121	-0.4446101249	-1.0795182971	-0.193363
C	 0.9751222689	-1.9522156855	-1.2358889034	-0.007117
C	 0.1343509743	-2.6655993737	-2.268058871	-0.282726
C	 1.6382382768	-2.6604042261	-2.3969203836	-0.002088
C	 2.3123261878	-1.9275773104	-3.5263313424	-0.097558
O	 2.3201903927	-2.7876832968	-4.6607299489	-0.420794
H	 0.6978586171	 1.9155033209	 0.4538623495	 0.11239
H	-0.4240194067	 2.0353368576	-0.906134001	 0.112148
H	-1.0455968278	 1.8248227609	 0.735724545	 0.110936
H	-0.0488171087	-0.4687825189	 0.8489555936	 0.093179
H	-1.1546464629	-0.3539025474	-0.5067153966	 0.099794
H	 0.7760893724	 0.0334587575	-2.0554285178	 0.091602
H	 1.8894626022	-0.0765267031	-0.7029568008	 0.091216
H	 1.0777699607	-2.4719819677	-0.2851899025	 0.079086
H	-0.3652382701	-3.5905067938	-2.0022515877	 0.108257
H	-0.4202072605	-2.0487827295	-2.9695624152	 0.108073
H	 2.1391578092	-3.5932705674	-2.1518047888	 0.086853
H	 1.7801929577	-0.9904747018	-3.7490634017	 0.080917
H	 3.3405321712	-1.6561870675	-3.2352793209	 0.083297
H	 2.8204321761	-2.3532359031	-5.3580319157	 0.282834
