16
gdb 62534	2.45052	1.4158	1.18006	4.6449	71.42	-0.2557	0.0019	0.2576	1096.2999	0.122066	-437.868959	-437.859847	-437.858903	-437.902621	33.607	
C	-0.096131651	 1.4989537883	-0.0357809695	-0.433841
C	-0.04375096	-0.0234861307	 0.0646384979	 0.081115
N	-1.3409612257	-0.5517217137	 0.3703073352	-0.538903
C	 0.8706331131	-0.6941008326	-1.0541249696	-0.138226
O	 1.8753326173	-0.9977938548	-0.027055102	-0.249663
C	 1.0921124287	-0.5103015526	 0.9931986984	 0.454645
O	 1.3376694812	-0.5075421168	 2.1536140002	-0.317705
C	 0.343576836	-1.8772426229	-1.6924750533	 0.337468
C	-0.148577202	-2.847320709	-2.2048254054	-0.418622
H	 0.8929554473	 1.9227152977	-0.2279022103	 0.135878
H	-0.7620395058	 1.8010484661	-0.8519781399	 0.123616
H	-0.4803510592	 1.9130777726	 0.8990837536	 0.156271
H	-2.0399322903	-0.1859208574	-0.268352799	 0.234886
H	-1.3620806717	-1.5640730412	 0.3003452009	 0.244268
H	 1.2928950296	 0.0047565026	-1.7809646546	 0.116187
H	-0.5552606176	-3.7095430557	-2.6743245125	 0.212625
