21
gdb 1350	3.85944	2.16237	2.07352	0.0504	73.18	-0.2969	0.0719	0.3689	796.1568	0.195833	-275.012535	-275.004678	-275.003734	-275.044138	30.228	
C	 0.1964247605	 1.4378244539	 0.1122462264	-0.414622
C	-0.0544252023	-0.0777541682	-0.0003625911	 0.312748
C	-1.5618374331	-0.3423518483	-0.0725857446	-0.43561
C	 0.7059929937	-0.6660461187	-1.2130260712	-0.213569
C	 2.1738157687	-0.8185212282	-0.7525318317	-0.207279
C	 2.1179689858	-0.9270759702	 0.8005701156	-0.207192
C	 0.6204248169	-0.8290494128	 1.1722879757	-0.21364
H	 1.2635382651	 1.6743437246	 0.1675191737	 0.111488
H	-0.2149516193	 1.9678543885	-0.7540321048	 0.107838
H	-0.2795653331	 1.8473848048	 1.0101788979	 0.107847
H	-2.0112657729	 0.1530589771	-0.9409045673	 0.107118
H	-1.772674487	-1.4144941261	-0.15373126	 0.105578
H	-2.0745478162	 0.0321731171	 0.8208674989	 0.10712
H	 0.2849729437	-1.6505336599	-1.4517021587	 0.087605
H	 0.603923036	-0.0498465718	-2.1124218467	 0.086256
H	 2.6488127545	-1.6907274652	-1.2101707189	 0.094157
H	 2.7678869804	 0.0491522621	-1.0551379313	 0.098028
H	 2.560635095	-1.8582867338	 1.1648563085	 0.094226
H	 2.6872556429	-0.1148191829	 1.2625949662	 0.097996
H	 0.4526732432	-0.3392723197	 2.137162369	 0.086278
H	 0.1870087675	-1.8341128726	 1.2454924044	 0.087629
