21
gdb 41158	2.78545	1.82144	1.38982	1.8829	81.22	-0.239	0.0759	0.3149	996.9892	0.186341	-387.060891	-387.054006	-387.053061	-387.091697	29.492	
C	 0.0654745035	 1.5498661316	 0.1239019898	-0.215496
O	 1.500324115	 1.4353657919	-0.1054105171	-0.313605
C	 1.2975319831	 0.1041460944	-0.6422068635	 0.162208
C	 2.2128701951	-1.0548334758	-0.2897425211	-0.264209
C	 1.3096450185	-2.3277145881	-0.2897961036	-0.211267
C	-0.1008504874	-2.0433058533	 0.2930501805	-0.004884
C	-0.0042550095	-0.8714049312	 1.3083533388	-0.262066
C	-0.0665729621	 0.0237981418	 0.0505945641	 0.308392
C	-0.9395868139	-1.0637000964	-0.604141664	-0.315584
H	-0.1587190526	 2.0320362168	 1.0809920999	 0.104462
H	-0.428274214	 2.0989095412	-0.6909068024	 0.095316
H	 1.1730671584	 0.1726244342	-1.7361427761	 0.061981
H	 3.0497115607	-1.167676613	-0.9849102078	 0.095922
H	 2.6403600389	-0.8925590248	 0.7034745889	 0.114246
H	 1.2107640541	-2.7197851643	-1.309440548	 0.101107
H	 1.7968205661	-3.1135840826	 0.2972082588	 0.102063
H	-0.5928509916	-2.9664606688	 0.6062259023	 0.063247
H	-0.9210131623	-0.7744674569	 1.8978486293	 0.092719
H	 0.8593520974	-0.8044635716	 1.9736939969	 0.099311
H	-0.8777789016	-1.1683241504	-1.6920592603	 0.090132
H	-1.9885862059	-1.0498016647	-0.2933562054	 0.096005
