15
gdb 44241	4.19497	1.27289	1.1962	4.1142	65.66	-0.254	-0.0138	0.2402	1037.8202	0.112237	-457.734806	-457.727723	-457.726779	-457.766569	27.186	
O	-0.3272935752	 0.3762700839	-0.6446897914	-0.309416
C	-0.0793132344	 1.4108957679	-0.1230828717	 0.445137
O	-0.9657020277	 2.3026108639	 0.4573196676	-0.252315
C	 0.1059969541	 3.2218739822	 0.8365347434	-0.057891
C	 1.1472255929	 2.2983155314	 0.1822321434	-0.070922
O	 1.3928110509	 3.2540350866	-0.8703108528	-0.315299
C	 0.47315509	 4.1881298322	-0.2683949317	 0.447874
C	-0.3655339762	 5.1238779054	-1.0620168085	-0.325263
C	 0.7721789342	 5.6484858007	-0.1961750266	-0.339015
H	 0.0351370917	 3.5281136055	 1.876768411	 0.117812
H	 2.0484254657	 1.8642256205	 0.6129952125	 0.12235
H	-0.210309541	 5.1192738539	-2.1351851136	 0.140312
H	-1.3901968148	 5.2906396829	-0.7486985632	 0.135015
H	 0.5319236993	 6.1795756176	 0.719130091	 0.124928
H	 1.6700680204	 5.9871626054	-0.7009014593	 0.136694
