21
gdb 103691	2.23276	1.3319	0.98207	0.8116	86.06	-0.2386	0.0534	0.292	1285.543	0.178747	-387.045059	-387.034343	-387.033399	-387.080134	39.828	
C	-0.0894724261	 1.5732303667	 0.0410297241	-0.469612
C	-0.0485662085	 0.0555890276	 0.026046774	 0.31964
C	-1.3159475084	-0.562491749	-0.5278576098	-0.156275
O	-1.4507012996	-0.1384264833	-1.8814024986	-0.423526
C	 1.243534641	-0.6538774321	-0.2747515056	-0.345841
C	 0.6833526939	-0.7060201722	 1.1441090119	 0.079647
C	 1.4044060741	 0.0561336841	 2.2511610988	-0.458928
C	 0.1320586544	-1.9569243029	 1.602923383	 0.290152
C	-0.3025864915	-2.9894531281	 2.04399214	-0.471792
H	 0.8773783193	 2.0196734749	 0.2805262703	 0.112528
H	-0.3884974368	 1.9287351339	-0.948691205	 0.143332
H	-0.8232841476	 1.9426699753	 0.7671220704	 0.11344
H	-1.2654725479	-1.6561190514	-0.4584533551	 0.099939
H	-2.1780659219	-0.2326029382	 0.0747520866	 0.085744
H	-2.2920186136	-0.466370048	-2.2116685668	 0.286844
H	 1.2063775818	-1.560889161	-0.867124101	 0.122614
H	 2.1362434341	-0.0544938284	-0.4223665542	 0.110961
H	 1.890917243	 0.9569768779	 1.8728573187	 0.116712
H	 0.7090027706	 0.348228939	 3.0443495791	 0.12616
H	 2.174305226	-0.5791660523	 2.6993139557	 0.129375
H	-0.6883507062	-3.9048331826	 2.4184974135	 0.188886
