17
gdb 64616	2.85313	1.43573	1.34144	1.3098	78.46	-0.2492	-0.01	0.2392	1033.0418	0.134579	-384.639927	-384.631802	-384.630858	-384.672184	31.85	
C	-0.0338082095	 1.568022407	 0.0513314761	-0.427551
C	-0.0083985249	 0.023309062	 0.0035266005	 0.040495
C	 0.8023355981	-0.4984532496	-1.1877058641	-0.106853
C	 1.8138530607	-1.2860714072	-0.8214178137	-0.097525
C	 1.87912276	-1.3861874048	 0.6664492786	-0.004248
O	 2.1121851835	-0.1046482111	 1.3094411407	-0.260142
C	 0.7743896192	-0.5758767997	 1.1960972683	 0.005577
C	-1.3674120592	-0.51779375	-0.0256600995	 0.314893
C	-2.4839133913	-0.9641040239	-0.0364406348	-0.483794
H	 0.9874712629	 1.9417654236	 0.1497829022	 0.141782
H	-0.4799789636	 1.973811577	-0.8605593275	 0.123224
H	-0.6261882545	 1.9149120697	 0.9023992815	 0.126837
H	 0.554962112	-0.1993880422	-2.199678687	 0.111305
H	 2.5231068039	-1.7616955862	-1.487113875	 0.109324
H	 2.3081752562	-2.2403270867	 1.1802042418	 0.103323
H	 0.2528091285	-0.7801055799	 2.1267210211	 0.10613
H	-3.469659242	-1.3588130978	-0.0520545193	 0.197225
