21
gdb 120407	2.83632	0.93594	0.81633	2.7404	80.17	-0.2371	-0.0156	0.2215	1497.028	0.180057	-424.226428	-424.216342	-424.215398	-424.262165	35.962	
C	 0.1657519362	 1.3840918933	 0.0408035191	-0.229665
O	 0.0734507632	-0.0172224632	 0.1404408073	-0.231686
C	-1.2167339473	-0.5068235806	-0.1523452778	-0.060177
C	-1.1935944752	-2.0171096025	 0.0045016911	-0.051498
C	-1.0459833418	-2.4661618015	 1.4920663005	-0.340488
C	-2.5477547056	-2.7889703262	 1.4757774651	 0.386059
O	-3.384947149	-2.9261871618	 2.3207755945	-0.299622
C	-2.6037397074	-2.7099274461	-0.0604852795	-0.10367
C	-3.816356064	-2.0742040937	-0.7282945243	-0.416307
H	 1.1937668214	 1.6624702373	 0.2847583334	 0.12887
H	-0.0666247174	 1.7380449899	-0.9761487271	 0.10442
H	-0.5159928119	 1.8900568911	 0.7427387999	 0.105854
H	-1.9586549102	-0.0559519834	 0.5316271275	 0.086919
H	-1.5135553203	-0.2260829817	-1.1772256944	 0.08904
H	-0.4497135745	-2.4339108651	-0.6770147734	 0.082197
H	-0.4390511237	-3.368230435	 1.6180303096	 0.127734
H	-0.7081060253	-1.7151232168	 2.2095318038	 0.134767
H	-2.4659883806	-3.730795778	-0.4417018624	 0.106033
H	-3.9863791156	-1.0523771094	-0.377248144	 0.124822
H	-3.7076258037	-2.0474673553	-1.8170246896	 0.120086
H	-4.7137180273	-2.6537064713	-0.4921122692	 0.136312
