17
gdb 41467	3.38075	1.69113	1.28883	2.1001	75.21	-0.2248	0.0005	0.2253	971.9082	0.13688	-421.76927	-421.762338	-421.761394	-421.800533	27.542	
C	 0.0914445388	 1.5764628022	-0.199982528	-0.14724
O	 1.4303938681	 1.5533023497	 0.3472325692	-0.280022
C	 1.4282791114	 0.1349880301	 0.5209080904	 0.016271
C	 0.8651943069	-0.2782500373	 1.9310146326	-0.330572
C	-0.4451839995	-0.5839909752	 1.2241324497	 0.189011
C	-1.3103237749	-1.5683341796	 1.0065961406	-0.244257
C	-1.6523934358	-1.5653912876	-0.4735775803	-0.126849
O	-0.7335164485	-0.6287768096	-1.0834134793	-0.309294
C	-0.0721063912	 0.0527056901	-0.0649399229	 0.335312
H	-0.5939751531	 2.2101532587	 0.3753911114	 0.106362
H	 0.0978445553	 1.8983272644	-1.2480829442	 0.117089
H	 2.3239109538	-0.364935356	 0.1477133217	 0.091738
H	 1.3286773857	-1.1371848296	 2.4214468329	 0.118964
H	 0.8689320841	 0.5767715326	 2.610590108	 0.126287
H	-1.6123495931	-2.3646664361	 1.6747014118	 0.108049
H	-1.4955965837	-2.5576405472	-0.9177762671	 0.116263
H	-2.6825573844	-1.2576011397	-0.7064743165	 0.112885
