15
gdb 49344	2.32553	1.84393	1.03803	3.4571	71.37	-0.2467	-0.0264	0.2203	1076.1326	0.114489	-450.173005	-450.165054	-450.16411	-450.205854	29.113	
N	 0.1493227426	 1.3018107361	-0.0343059366	-0.405802
C	 0.0147294573	 0.0460835314	 0.0052440471	 0.083505
N	-1.2291707263	-0.6091220671	 0.0158068442	-0.153894
C	-2.5361843483	-0.0493048644	 0.0263695995	 0.43756
N	-2.7805826092	 1.1834749315	 0.1622398352	-0.518493
N	-3.4071780311	-1.1255666388	-0.1545452305	-0.361904
C	-2.7373223939	-2.4015288577	-0.0068116023	-0.296087
C	-1.2675022614	-2.0070007322	-0.0017700669	 0.43344
O	-0.3143780133	-2.7437035095	-0.0095863606	-0.35621
H	 1.1438259998	 1.5294545184	-0.038639252	 0.235214
H	 0.8106826461	-0.7023226356	 0.0285774489	 0.138456
H	-3.7852911346	 1.3548570433	 0.1325304462	 0.214294
H	-4.3399364059	-1.0109586998	 0.2077119269	 0.253192
H	-2.9717801528	-2.9220674667	 0.9315686163	 0.14556
H	-2.933615179	-3.0911352488	-0.8346397752	 0.151167
