23
gdb 119831	4.04077	0.75207	0.70408	1.7411	88.97	-0.2343	0.0251	0.2594	1720.9816	0.205703	-388.313712	-388.303892	-388.302948	-388.348992	36.802	
C	 0.1060593552	 1.5509398301	 0.0500524502	-0.379298
C	 0.1709740558	 0.0219031954	 0.043989898	-0.158496
C	 0.5743164312	-0.5519523946	-1.328611069	-0.305878
C	 0.6449208845	-2.049578781	-1.3576709278	 0.337547
C	-0.1385129263	-2.8820907861	-2.052570531	-0.190095
C	 0.1966514631	-4.3331348511	-1.8008235185	-0.272408
C	 1.6052744821	-4.2484899079	-1.1602094593	 0.12988
O	 2.6287961947	-4.4061992104	-2.1351363189	-0.437414
C	 1.6418989459	-2.8372676388	-0.524424573	-0.321405
H	 1.0773963836	 1.9900433559	-0.203602935	 0.114474
H	-0.6231269803	 1.9197193186	-0.6799608697	 0.114608
H	-0.1852173607	 1.9329553288	 1.0334072448	 0.112551
H	 0.8836181676	-0.3176678261	 0.8055977359	 0.101564
H	-0.8033415004	-0.3936450582	 0.3293372658	 0.10023
H	-0.1366381297	-0.2034958944	-2.0878560606	 0.09712
H	 1.5543609513	-0.1334878259	-1.6029433161	 0.097496
H	-0.9477473485	-2.5662564974	-2.7032441012	 0.083066
H	-0.530021399	-4.7952850144	-1.1172249762	 0.104121
H	 0.2229204425	-4.9551908538	-2.7021656134	 0.105577
H	 1.7865832793	-5.0426321018	-0.432006958	 0.080321
H	 2.4840771041	-3.7306868947	-2.8080492776	 0.277549
H	 2.6594685806	-2.4302515506	-0.5476913138	 0.103401
H	 1.3351245235	-2.8657617715	 0.5304781747	 0.105491
