23
gdb 72468	2.47851	1.74462	1.41162	0.2369	89.36	-0.2322	0.0293	0.2615	1063.3067	0.209153	-351.193456	-351.185606	-351.184662	-351.225079	33.045	
C	-0.077774586	 1.5122000936	 0.0177559135	-0.474201
C	 0.0110728929	-0.0128661153	-0.0058615647	 0.285091
C	 0.8372545384	-0.5644440706	-1.2015256869	-0.22065
C	 1.2819255884	-1.9854590785	-0.748128841	-0.213185
C	 0.8832547404	-2.0964795304	 0.7527138017	-0.014722
C	 0.7815737134	-0.6219712161	 1.1855131038	-0.23994
C	-0.4948960304	-2.7640637176	 0.9294374023	-0.258457
C	-1.599059251	-1.8865368314	 0.3938936369	-0.069726
C	-1.3728242486	-0.645191485	-0.0354101241	-0.072941
H	 0.9199527324	 1.9627296795	 0.0558910182	 0.107586
H	-0.5822701841	 1.8933989355	-0.8778458477	 0.109864
H	-0.6406519091	 1.8647625402	 0.8889890887	 0.113017
H	 0.2590220011	-0.5786897077	-2.129733515	 0.091851
H	 1.7078726205	 0.0802970626	-1.3727133742	 0.086165
H	 0.8088762435	-2.77261804	-1.3426367395	 0.095543
H	 2.3624427375	-2.1070036704	-0.8693510947	 0.093857
H	 1.6312128092	-2.653432006	 1.3244276945	 0.056887
H	 1.7758290737	-0.1657715787	 1.2685854777	 0.081965
H	 0.2629749685	-0.4847454937	 2.1397606139	 0.08905
H	-0.5088453033	-3.736065518	 0.4167742076	 0.098781
H	-0.6789927149	-2.9899238091	 1.9906715421	 0.09862
H	-2.603104188	-2.3036724607	 0.3633457005	 0.080421
H	-2.1849712846	-0.0460095023	-0.4422872235	 0.075123
