21
gdb 105262	2.18507	1.36581	1.02181	2.171	78.59	-0.2543	0.0758	0.3301	1275.612	0.179981	-424.192272	-424.182432	-424.181488	-424.22706	36.059	
C	-0.5953191518	 0.9870794315	 0.5516238929	-0.387017
C	-0.614539567	 1.3079734589	-0.9492805866	-0.272987
C	 0.2054715292	 0.3471326977	-1.7948463761	 0.343766
O	 0.797449234	 0.8927994396	-2.9801401383	-0.307963
C	 1.6738914345	 0.451168	-1.9293288649	 0.038469
C	 2.5391793867	 1.4904176271	-1.2642312519	-0.429601
C	-0.4377610715	-1.002969006	-2.0012091993	 0.015621
C	-0.8823937954	-1.4372218226	-3.3334339195	-0.176295
O	 0.2989862128	-1.9767288108	-2.7316393812	-0.235188
H	-0.9959894637	-0.0093055075	 0.7638327842	 0.122931
H	 0.4225422313	 1.0253341814	 0.9518330066	 0.124308
H	-1.2020557752	 1.7080446326	 1.1073967811	 0.119962
H	-1.6487906013	 1.2984984519	-1.3174456672	 0.104431
H	-0.2416051783	 2.3204061101	-1.1242183776	 0.115728
H	 2.1845708209	-0.4788657376	-2.1784309978	 0.10736
H	 1.9780308444	 2.3851305444	-0.9876772837	 0.124548
H	 3.0034092728	 1.0748715155	-0.3633049681	 0.123099
H	 3.3446774945	 1.7930977264	-1.9418338944	 0.131792
H	-0.9607812995	-1.3989823197	-1.1298890171	 0.090795
H	-1.7165422407	-2.1308665204	-3.426681752	 0.111747
H	-0.7024834665	-0.7780371625	-4.1784076391	 0.134494
