11
gdb 2737	4.6373	2.29379	1.65213	5.2949	52.35	-0.2744	-0.0547	0.2197	699.7997	0.078403	-339.428557	-339.422289	-339.421345	-339.45905	21.891	
O	-0.041065478	-0.0127453861	-0.1026000052	-0.244977
C	-0.0428432002	 1.1666546747	 0.0180242889	 0.395144
C	-1.0872671763	 2.2648150775	 0.2458769452	-0.278861
N	 0.0249333	 3.219499037	 0.4891438223	-0.306808
C	 1.0670873172	 2.277718465	 0.0144153475	-0.24747
C	 2.2193322588	 2.105619814	 0.8894954635	 0.314905
N	 3.1307813489	 1.9475606928	 1.5820511148	-0.311412
H	-1.6922753	 2.4447319783	-0.6536212228	 0.138017
H	-1.7568445527	 2.1203997776	 1.0999171441	 0.15529
H	-0.0230595133	 4.082566299	-0.0377023274	 0.242007
H	 1.4180644858	 2.4418252801	-1.0153069708	 0.144166
