15
gdb 121790	2.36819	0.96642	0.78418	4.0362	67.19	-0.2881	-0.044	0.2441	1434.8373	0.110544	-453.930345	-453.920767	-453.919823	-453.966233	32.36	
O	 0.0034467391	 1.4517989642	-0.1874952346	-0.410922
C	-0.036105602	 0.0569719052	 0.0126136932	-0.064396
C	-1.4598197549	-0.4711137692	 0.0777637194	-0.094486
O	-2.0374410485	-0.2328635826	-1.2148175269	-0.249312
C	-3.3787034279	-0.6215926126	-1.3279078368	-0.130936
C	-4.2913488341	 0.238408499	-0.5331227172	 0.290428
N	-4.9752183537	 0.896629801	 0.1237857209	-0.29712
C	-3.7520839156	-0.5819574867	-2.7527971492	 0.306086
N	-4.0495460857	-0.5796897801	-3.8671948756	-0.287619
H	-0.4631263307	 1.6343563372	-1.010556112	 0.295733
H	 0.5120315875	-0.4880770471	-0.7713686526	 0.106665
H	 0.4577032104	-0.1439396512	 0.968737508	 0.124296
H	-1.4742288503	-1.548580755	 0.3003758261	 0.1067
H	-2.0297254896	 0.0660342756	 0.8467858087	 0.136921
H	-3.522125304	-1.6570780376	-0.9748228415	 0.16796
