21
gdb 40782	3.38885	1.31362	1.14261	2.2253	81.75	-0.2141	0.0737	0.2878	1147.8803	0.185559	-383.220873	-383.213055	-383.21211	-383.253355	31.254	
C	 1.0204894617	-0.9918534938	-0.5684937552	-0.228759
C	-0.035570243	 0.0220628481	-0.8503690281	-0.2217
N	 0.6664823202	 0.0082325119	 0.4299443758	-0.092373
C	-0.0471273807	-0.407493733	 1.6344904153	 0.072995
C	-0.8305649525	 0.776086611	 2.2513149837	-0.227718
C	-1.8824723447	 0.1389796719	 3.1846926328	-0.216045
C	-2.1683612739	-1.2087570758	 2.5444220543	-0.032304
N	-2.4164025518	-1.1222909207	 1.0900075994	-0.329178
C	-1.0807211293	-1.5370122576	 1.5901840661	-0.079205
H	 0.6920704678	-2.0188706097	-0.4217432317	 0.101228
H	 2.0131190731	-0.8951220867	-1.0008861285	 0.109845
H	 0.1861680908	 0.873788272	-1.4884350512	 0.108379
H	-1.0658404565	-0.3182543094	-0.8756241352	 0.13781
H	 0.7288309458	-0.7361710272	 2.3406961381	 0.078274
H	-0.1693104838	 1.4774692488	 2.7638889	 0.099863
H	-1.3276865693	 1.3170392514	 1.4427571455	 0.123329
H	-1.4715008515	-0.0264856735	 4.1879114989	 0.097809
H	-2.778831033	 0.7577009609	 3.2932738839	 0.102624
H	-2.678196041	-1.98350408	 3.1087916835	 0.082953
H	-2.9242615666	-1.9515348822	 0.791726002	 0.229271
H	-0.7627012119	-2.5633151065	 1.4365222706	 0.082902
