14
gdb 34075	4.12642	1.48924	1.47935	5.1756	63.7	-0.2684	0.0017	0.2701	891.8251	0.102573	-436.672851	-436.666673	-436.665729	-436.70334	25.021	
N	 0.040446706	-1.0732639846	-0.0414424197	-0.321649
C	 0.027884576	 0.0798250267	-0.02568831	 0.230308
C	-0.0187780691	 1.5317519042	 0.0506794794	 0.363203
C	-0.6928904558	 2.2077944444	 1.2752511819	-0.25912
C	-0.4185299317	 3.6133721112	 0.7668441205	-0.190668
C	 0.8765083583	 3.4738196201	-0.0254625949	 0.041527
O	 1.2800826752	 2.1157050321	 0.0270839345	-0.275018
C	-0.4452577835	 3.4694993962	-0.7506995033	 0.041527
O	-0.6995664204	 2.1092356369	-1.0591147214	-0.275024
H	-1.7526740829	 1.9575637478	 1.3398874797	 0.13528
H	-0.1768418817	 1.9627025952	 2.2045310969	 0.135282
H	-0.7082116887	 4.5131154262	 1.2894395898	 0.115855
H	 1.680636576	 4.1880580595	-0.1126347663	 0.129249
H	-0.8072951477	 4.1799276842	-1.4777330171	 0.129249
