20
gdb 66562	2.30223	2.20108	1.57859	1.8993	81.28	-0.2094	0.0763	0.2858	952.6359	0.171283	-365.928637	-365.920977	-365.920033	-365.960101	31.282	
C	 0.0118696284	 1.4599489601	 0.0359625721	-0.521777
C	-0.039479414	-0.0361474899	 0.0502099334	 0.312887
C	 0.3993133208	-1.046589289	-1.0054642008	-0.17425
C	 1.1576389647	-0.9567911032	 0.2892737664	-0.076385
N	 0.5613280088	-2.1864502436	 0.897592275	-0.161871
C	-0.4896405909	-1.650386897	 1.8395623453	-0.224827
C	-1.152865873	-0.969530916	 0.6227227295	 0.260727
C	-2.596987467	-0.5506201493	 0.5367538233	-0.517781
C	-0.4634300028	-2.0787301028	-0.2509595942	-0.056609
H	 0.9321670462	 1.8135542665	-0.4420900445	 0.122064
H	-0.8305201483	 1.8932713284	-0.5158114945	 0.11991
H	-0.0085912633	 1.8713737792	 1.0525577409	 0.119928
H	 0.716529691	-0.9385017364	-2.0339628303	 0.090386
H	 2.1640628848	-0.6171268703	 0.5014168719	 0.086228
H	-1.0777576901	-2.4838072691	 2.2386468296	 0.099925
H	-0.1098708362	-1.0335097796	 2.6609751073	 0.094623
H	-2.8025108062	 0.307206631	 1.1879620641	 0.119701
H	-2.8636104542	-0.258855942	-0.485698991	 0.119428
H	-3.2657894066	-1.3641599138	 0.8380336934	 0.117154
H	-0.9314179221	-2.9888474933	-0.6236203668	 0.07054
