16
gdb 45105	2.87352	1.79595	1.28145	4.261	68.58	-0.2411	0.0059	0.247	960.7712	0.12671	-437.888931	-437.882043	-437.881099	-437.92025	27.469	
O	 0.0306697144	-0.0616125609	-0.1720252192	-0.375247
C	 0.0098205442	 1.1514679134	-0.0759322677	 0.423485
N	-1.1515488918	 1.8571418564	 0.0876745265	-0.335975
C	-1.3338461391	 3.2770526515	 0.04461503	 0.01673
C	-0.9373464715	 4.1701153241	 1.1945585236	-0.31027
C	-0.1033299051	 4.1381208315	-0.0697812589	-0.067337
C	 1.2254960494	 3.4412919524	-0.0622632244	 0.028351
O	 1.5603156384	 2.6997065496	 1.103931877	-0.242013
C	 1.2771692484	 1.9659237928	-0.1020189323	-0.08326
H	-1.9720872997	 1.2754542023	 0.1793449405	 0.251616
H	-2.2033969652	 3.5707095621	-0.5359195949	 0.107781
H	-1.538508659	 5.0504310601	 1.3909867659	 0.118745
H	-0.5006665718	 3.6887483787	 2.0611303195	 0.146693
H	-0.1593207368	 4.988562431	-0.7400264265	 0.099738
H	 2.0564677265	 3.9945318607	-0.4973380903	 0.103123
H	 2.1242066186	 1.4352127245	-0.5279852088	 0.117838
