17
gdb 30621	4.45885	1.00341	0.83002	5.2017	78.11	-0.2182	0.0047	0.223	1354.6523	0.137619	-418.078206	-418.069392	-418.068448	-418.112801	31.562	
C	 0.1030374293	 1.4505268084	 0.092812928	-0.330944
N	 0.1304661036	 0.0044584306	 0.0091970843	-0.331692
C	 0.5520421472	-0.6459251399	-1.1253481328	 0.323652
O	 0.8618380641	-0.0494888104	-2.1457165671	-0.390849
C	 0.5933729091	-2.1226467747	-1.0363770504	 0.183582
C	-0.0016369763	-2.9618133254	-0.1109329367	-0.194455
N	 0.3038790066	-4.2469921119	-0.4575267657	-0.241416
C	 1.0828315526	-4.2546584963	-1.5925897911	-0.070844
C	 1.2736745788	-2.9532131177	-1.9760229342	-0.223142
H	 0.9571049141	 1.8509757895	 0.6544014968	 0.119108
H	 0.1501662582	 1.8360856093	-0.9260445922	 0.169178
H	-0.8204712183	 1.7946964995	 0.5700963712	 0.117683
H	 0.0972813274	-0.5215721137	 0.8661045157	 0.237623
H	-0.6433174899	-2.7561952906	 0.7311651374	 0.121281
H	-0.0136510935	-5.0659752868	 0.0311389262	 0.264975
H	 1.4283398995	-5.1820171558	-2.0198243044	 0.125882
H	 1.8322380973	-2.5955830442	-2.8254664751	 0.120379
