17
gdb 55025	2.95197	1.01038	0.94002	1.1731	69.79	-0.2559	-0.0366	0.2193	1301.8214	0.132708	-458.927864	-458.918696	-458.917752	-458.963389	32.01	
C	 0.582124475	 0.4315165327	-0.333594571	-0.491396
C	-0.7628375841	 1.032460911	 0.0253216456	 0.355451
O	-0.9572868664	 2.226160809	 0.0589240177	-0.298793
C	-1.92488056	 0.1130648532	 0.3240995534	-0.064453
O	-1.8096490864	-1.286449989	 0.0611400453	-0.242063
C	-1.9488880982	-0.8874402716	 1.4203045426	 0.049625
C	-0.8158124512	-1.1550470986	 2.352810054	 0.043368
C	-0.9518694592	-0.8690358495	 3.7881167946	-0.177016
O	-1.0423670832	-2.2044826939	 3.2974586744	-0.226766
H	 1.067524007	 1.0753232631	-1.0696863115	 0.150255
H	 1.2218100621	 0.4148246236	 0.556575857	 0.150996
H	 0.4870180457	-0.5882142662	-0.7089304073	 0.153093
H	-2.8799053142	 0.5653101905	 0.0572789964	 0.121428
H	-2.9237486711	-1.1071639709	 1.8590753545	 0.117384
H	 0.1771850474	-1.1575949349	 1.9091070045	 0.110018
H	-0.0630018342	-0.6371642032	 4.3722256701	 0.126175
H	-1.880868659	-0.4447379552	 4.1666939498	 0.122695
