9
gdb 14583	47.31512	0.55858	0.55206	2.648	88.85	-0.2944	-0.1283	0.1661	1771.6672	0.047464	-359.02647	-359.018836	-359.017892	-359.059078	24.54	
O	-0.092696331	-0.0359332725	 0.0027454728	-0.201012
C	-0.0293526734	 1.1701829609	 0.0082420237	-0.028575
C	 1.2161348899	 1.9026986935	 0.0002449659	 0.202331
C	 2.2542812538	 2.5343367904	-0.0062438148	-0.181157
C	 3.4065347766	 3.2350659339	-0.0134038272	-0.173298
C	 4.4451885408	 3.8669649057	-0.0196573972	 0.479478
C	 5.605008123	 4.5755132805	-0.0267057692	 0.089565
N	 6.597083773	 5.1828318732	-0.0327721967	-0.310921
H	-0.9322851427	 1.8103892344	 0.0199604527	 0.123589
