21
gdb 112707	2.38158	1.33089	1.21915	2.3525	74.67	-0.2479	0.0762	0.3242	1178.5222	0.181736	-461.372561	-461.363096	-461.362152	-461.406752	35.436	
C	 0.7038004461	 1.386914352	-0.4601113806	-0.401577
C	 0.1383832245	 0.0746504471	 0.073577448	 0.104829
O	 0.220733509	-0.9402389011	-0.9324390067	-0.283601
C	 1.2404518088	-1.8626501956	-0.5891511896	 0.208858
C	 2.3074746069	-1.982812044	-1.676649562	-0.090155
O	 3.1050009047	-0.8236815729	-1.7704741202	-0.414962
O	 1.8628956641	-1.3840936744	 0.5848402032	-0.291298
C	 0.8954853406	-0.5717663506	 1.2542250947	 0.113195
C	 1.5937887468	 0.3435046338	 2.2413143152	-0.418351
H	 1.7478405349	 1.2655370137	-0.7581089046	 0.131556
H	 0.1395865479	 1.6843407977	-1.3481838789	 0.126956
H	 0.6223729303	 2.1887568868	 0.2806087721	 0.107791
H	-0.9201397765	 0.2028400938	 0.3299081719	 0.080801
H	 0.7725023989	-2.8467265271	-0.4070220489	 0.06629
H	 2.9125846031	-2.8794483034	-1.4653947697	 0.090458
H	 1.8112751503	-2.1265557757	-2.6406126573	 0.122095
H	 3.3831685073	-0.6308312267	-0.8665821431	 0.286381
H	 0.1959060154	-1.2304278655	 1.7936725212	 0.076499
H	 2.318246672	 0.9890075573	 1.7387845229	 0.128808
H	 0.8630888782	 0.9747626532	 2.756223811	 0.124459
H	 2.1218743366	-0.2478756886	 2.9940091515	 0.13097
