20
gdb 22520	2.04352	1.42836	1.05923	1.8762	78.99	-0.2482	-0.0017	0.2466	1223.9849	0.169116	-440.235161	-440.22544	-440.224496	-440.269638	36.35	
C	-0.1158430032	 1.6078488368	 0.0780353424	-0.438654
C	-0.0043642505	 0.0853121034	-0.0290164272	 0.204732
C	-1.369529861	-0.5927338042	 0.163803739	-0.100889
O	-1.9043381902	-0.3415654067	 1.4469151738	-0.423025
C	 0.8399594228	-0.4269565135	-1.2520124701	-0.287403
C	 1.9710950432	-0.9068870907	-0.2857274157	-0.326706
C	 1.0625460453	-0.535557917	 0.8635726392	 0.39812
N	 1.0140401968	-0.7426242916	 2.113447373	-0.259466
O	 2.143867985	-1.4455347716	 2.5691602116	-0.389753
H	 0.8676150503	 2.087070255	 0.0461704463	 0.110038
H	-0.7122097185	 2.0009053278	-0.7533340646	 0.11416
H	-0.6080461332	 1.8840772146	 1.0133891847	 0.140862
H	-2.0900960507	-0.1976882596	-0.5625257999	 0.103271
H	-1.2677425447	-1.6741141133	-0.0253387756	 0.07869
H	-1.2312712253	-0.6177042596	 2.0855249858	 0.290114
H	 0.3606343764	-1.243527776	-1.7973918238	 0.109385
H	 1.1292889563	 0.3484621232	-1.9634615535	 0.106896
H	 2.2511166668	-1.9624865074	-0.3317507643	 0.131708
H	 2.8891989676	-0.313036601	-0.3279299392	 0.130791
H	 1.9807333568	-1.5075066285	 3.516532718	 0.307127
