21
gdb 111417	2.11505	1.56148	1.05008	0.9764	78.81	-0.2388	0.0721	0.3109	1208.286	0.182035	-424.17704	-424.167736	-424.166792	-424.211039	34.829	
C	-0.1084269055	 1.3496830881	 0.0195022827	-0.254901
O	 0.2717920653	-0.0097271839	 0.1435243118	-0.247937
C	 0.6982323464	-0.5896854552	-1.0616638933	 0.120875
C	 1.369766297	-1.9447651637	-0.8899273478	-0.080182
C	 0.3978588408	-2.9525182452	-0.3455731491	-0.282401
C	 0.3260677104	-2.5971967306	-1.8053380685	-0.078814
C	-0.3785816569	-1.2537005509	-2.0197525175	-0.023813
C	-1.853829893	-1.1592380016	-1.6775737682	-0.097376
O	-2.3309471376	 0.1100069928	-2.1226726889	-0.418129
H	 0.7355328727	 1.9680543094	-0.3246419434	 0.099658
H	-0.9454611914	 1.4729200457	-0.6781035	 0.131157
H	-0.4070524682	 1.6901136792	 1.0144583063	 0.116937
H	 1.3271803918	 0.1163419738	-1.6210181281	 0.065515
H	 2.440091698	-2.1048579799	-0.853389066	 0.084194
H	 0.8279521061	-3.9263292739	-0.134317211	 0.109303
H	-0.3725217148	-2.647692558	 0.3547456676	 0.120629
H	 0.4902894322	-3.3372794183	-2.5790411288	 0.084605
H	-0.2440085361	-0.8892018682	-3.0424958643	 0.079021
H	-2.393523007	-1.9769258395	-2.1821082647	 0.087515
H	-2.0043007985	-1.2738991394	-0.5960922988	 0.098163
H	-3.2380021515	 0.2109473595	-1.8194225201	 0.285978
