19
gdb 86370	2.41556	1.18384	0.91226	2.9409	73.65	-0.2593	-0.0003	0.259	1315.44	0.156646	-460.174756	-460.165101	-460.164157	-460.210427	33.941	
C	 0.2250654701	 1.5693704757	-0.2852953181	-0.402128
C	 0.0287185514	 0.09772466	 0.0099997158	 0.128692
O	 0.8251975915	-0.7636012039	-0.8377287909	-0.310121
C	 1.3778803406	-1.4771566675	 0.2937514444	 0.128686
C	 2.8901690973	-1.5415746493	 0.2752704961	-0.402117
C	 0.6783843369	-0.5082139112	 1.2778111454	 0.022835
O	 1.5660753893	 0.3738172248	 1.9526594818	-0.178906
C	 1.4492617789	 0.5150382075	 3.28957585	 0.170791
O	 2.1556403648	 1.235001044	 3.9254786707	-0.270006
H	 1.2676976006	 1.8628250755	-0.1499518424	 0.140087
H	-0.0684524481	 1.7733835365	-1.3192609325	 0.13152
H	-0.3989045653	 2.180830588	 0.3749413597	 0.119788
H	-1.0350523442	-0.1701492151	-0.0655364434	 0.078187
H	 0.9514601109	-2.488993565	 0.3522764318	 0.078186
H	 3.3273506383	-0.5414120142	 0.282995698	 0.140084
H	 3.2624192485	-2.0927451208	 1.1451997739	 0.11979
H	 3.2192036267	-2.0644709996	-0.6276009548	 0.131511
H	-0.0074085644	-0.9661310058	 1.9970274794	 0.091538
H	 0.6358170263	-0.1053024695	 3.7140650952	 0.081583
