16
gdb 133114	2.53312	1.58139	0.98068	0.85	77.53	-0.2031	-0.0103	0.1928	1148.7404	0.125364	-442.093815	-442.085724	-442.084779	-442.126739	29.886	
C	 0.0161308981	 1.458830032	 0.048750181	-0.311842
N	-0.0818548922	 0.0200950974	-0.0948310049	-0.359282
C	 0.5677985446	-0.6481442211	-1.0964485762	 0.305303
N	 1.123919185	 0.0410553718	-2.0934524531	-0.352655
C	 1.7169871703	-0.6392857536	-3.0844723236	-0.010653
C	 1.8021649822	-2.0200975581	-3.1381478313	-0.141881
C	 1.2327911282	-2.7532909743	-2.0872395499	-0.197352
C	 0.6199575226	-2.0590209203	-1.0774332628	 0.200904
F	 0.0555374183	-2.6951055852	-0.0327847611	-0.095359
H	 1.0341920145	 1.7945342064	 0.2897825766	 0.123373
H	-0.2798910132	 1.9464919935	-0.8824453859	 0.151325
H	-0.6597793234	 1.7762557443	 0.8458533995	 0.119862
H	-0.2958439847	-0.5241967275	 0.7235214045	 0.249993
H	 2.1502860792	-0.0314957475	-3.8748464289	 0.104307
H	 2.2981178923	-2.517724871	-3.9622361592	 0.098508
H	 1.2625596482	-3.8364190367	-2.0514131948	 0.115449
