20
gdb 113312	2.54589	1.00716	0.82883	3.7015	81.02	-0.279	0.0269	0.3059	1460.2775	0.169659	-403.151992	-403.14184	-403.140896	-403.187579	36.392	
C	-0.2651982313	 1.5146892403	 0.1967017583	-0.377621
C	 0.21737036	 0.087586247	-0.0929230798	-0.211708
C	 0.8239960331	-0.5571207827	 1.1385291446	-0.026272
C	-0.0011356812	-1.3187681791	 2.1338010824	-0.307898
C	 1.0098989552	-2.0692952693	 1.2770195549	 0.11448
C	 0.520661811	-3.0582669395	 0.2198497278	-0.134937
O	 0.1892144966	-4.3162319347	 0.7700052037	-0.413401
C	 2.2168121842	-2.5185751389	 1.9255405892	 0.228703
N	 3.1827277633	-2.9245836893	 2.4184361467	-0.351256
H	 0.5610276304	 2.1502832946	 0.532392898	 0.122213
H	-0.6955365358	 1.9713607596	-0.6992513915	 0.119363
H	-1.0293569161	 1.5208527612	 0.9805916906	 0.123858
H	-0.6241419783	-0.5092895498	-0.4600221299	 0.10507
H	 0.9604882209	 0.1081234265	-0.8995873071	 0.110955
H	 1.6425274109	 0.0165461658	 1.5663284655	 0.109231
H	 0.2067483969	-1.2081105412	 3.1912223178	 0.137371
H	-1.0419642768	-1.5114907497	 1.8937294016	 0.131066
H	-0.3957461234	-2.6799590496	-0.2380696412	 0.115119
H	 1.2778654831	-3.1500172964	-0.5728421995	 0.107423
H	 0.9943397273	-4.7086943447	 1.1264227681	 0.298242
