19
gdb 51458	3.5807	0.98883	0.95981	3.0632	80.82	-0.2364	-0.0166	0.2197	1294.6044	0.159542	-385.895028	-385.886844	-385.8859	-385.928853	30.81	
O	-0.7434109381	 0.588643253	 0.4016658712	-0.242594
C	 0.1852029668	 0.9222910884	-0.2884554208	 0.163749
C	 1.1970168399	 1.9892245383	 0.0691692568	-0.303763
C	 1.3340248194	 3.0165723307	-1.0384971283	-0.024224
C	 2.5231782895	 3.9345911859	-1.192844763	-0.082889
C	 3.8445738952	 3.5791779279	-0.5064130333	-0.272302
C	 4.255859534	 2.2788165572	-1.16562581	-0.074921
C	 3.3992123603	 1.9115610182	-2.1228425333	-0.076792
C	 2.2585761628	 2.8639717108	-2.2455256958	-0.094722
H	 0.3626228104	 0.4456861919	-1.2810307618	 0.07256
H	 0.8950116599	 2.4548121608	 1.0126317411	 0.117719
H	 2.157911118	 1.483704653	 0.2281644226	 0.12491
H	 0.3910688863	 3.4995055057	-1.2862794183	 0.096205
H	 2.3177196218	 4.9785139497	-1.3984946733	 0.089571
H	 4.595465575	 4.3642228302	-0.6637303274	 0.111842
H	 3.7403728248	 3.4735539434	 0.582278229	 0.112707
H	 5.1340331273	 1.7215730043	-0.8589802952	 0.097386
H	 3.4873834034	 1.0209983956	-2.7350012422	 0.096656
H	 1.8548153834	 3.095654335	-3.225285298	 0.088904
