20
gdb 33091	6.10425	0.77173	0.69404	2.2402	84.73	-0.181	0.0523	0.2333	1667.6847	0.17032	-403.185463	-403.175698	-403.174754	-403.220526	35.365	
C	-0.0717960331	 1.5335466671	-0.0082413634	-0.391382
C	-0.0134407887	 0.0166207803	 0.0132136633	-0.037671
O	-1.3410146713	-0.4793249545	-0.0151082893	-0.272827
C	-1.4651060913	-1.8323651132	-0.000569144	 0.37213
C	-0.4830800981	-2.7996067235	 0.0379042865	-0.230186
N	-1.1342893153	-4.0215341615	 0.0362589552	-0.314502
C	-2.4923250651	-3.8438650545	-0.0011058054	 0.347535
C	-3.4422885772	-4.9962073708	-0.0090105064	-0.501382
C	-2.7290022938	-2.4864743468	-0.0254542012	-0.372021
H	 0.9390048483	 1.951883542	 0.0128380491	 0.11387
H	-0.5750342142	 1.8863971026	-0.9128108495	 0.128527
H	-0.6216079357	 1.9096545361	 0.8590816836	 0.128528
H	 0.5450205718	-0.3677446732	-0.8545386381	 0.094349
H	 0.4984848401	-0.3444520957	 0.9188464475	 0.094357
H	 0.5903145615	-2.7360902576	 0.0647975317	 0.109793
H	-0.6725108183	-4.9129861547	 0.0598808476	 0.252417
H	-3.3496955405	-5.6162208213	 0.8917599492	 0.124657
H	-4.4701791126	-4.6295355486	-0.052003856	 0.137904
H	-3.2890658625	-5.6534579436	-0.8743415782	 0.124284
H	-3.6928777038	-2.0034288688	-0.0572046021	 0.09162
