17
gdb 72842	2.62836	1.53454	1.32555	4.5572	67.57	-0.236	-0.0344	0.2016	1013.2269	0.135583	-458.963496	-458.955518	-458.954574	-458.996114	30.309	
O	 0.1223439901	 1.3976076944	-0.3408905774	-0.47711
C	 0.0411286628	 0.0401034851	 0.0010891813	 0.342772
C	 0.2398740522	-0.9849195652	-1.1418685886	-0.119545
O	-1.0673049716	-1.5564321918	-0.9002120382	-0.295885
C	-1.3940580955	-0.5335022752	 0.0756196546	-0.01462
C	-1.5322034633	-1.1905849439	 1.4539186504	 0.411868
O	-2.5590109807	-1.4231212818	 2.0330720038	-0.304719
C	-0.1095853879	-1.4614367725	 1.9547276983	-0.332531
C	 0.7242556698	-0.3194571735	 1.3406046591	-0.305021
H	 1.0367388629	 1.685824835	-0.2446317361	 0.283658
H	 0.301996486	-0.5178131267	-2.1316549806	 0.111015
H	 1.0418119665	-1.7243744048	-1.0255631552	 0.10008
H	-2.2369372773	 0.0952169959	-0.2194979794	 0.101559
H	-0.0760519398	-1.5110147479	 3.043976471	 0.131634
H	 0.2049366456	-2.4376460153	 1.566097686	 0.143214
H	 1.7805934648	-0.576279831	 1.2117100431	 0.104517
H	 0.6679714954	 0.5651508991	 1.9846682079	 0.119114
