15
gdb 4205	5.10742	1.68956	1.50421	1.5749	68.37	-0.2253	0.0282	0.2535	842.9468	0.119582	-362.562224	-362.555809	-362.554865	-362.592612	25.493	
O	-0.1854175727	 1.332387863	 0.0175488922	-0.405142
N	-0.0192420829	-0.0742663402	 0.0904136107	-0.311959
C	-1.1425022157	-0.6581224324	 0.0916591507	 0.494299
C	-1.4979315062	-2.0944509851	 0.0074009628	-0.156642
C	-2.8885073025	-2.2229127007	 0.6718455848	-0.071179
C	-3.2677018893	-0.8427678914	 1.2140884743	-0.230034
C	-2.6052850154	-0.2725610412	-0.0782602439	-0.164319
C	-2.7852909382	-1.7134345261	-0.7317372494	-0.073842
H	 0.7281446675	 1.635632749	 0.0086463247	 0.30307
H	-0.8563228505	-2.9488232142	-0.1524314122	 0.103816
H	-3.2323456819	-3.1950227817	 1.0020624497	 0.095726
H	-4.3517197463	-0.7003036695	 1.2054161765	 0.105744
H	-2.8526526225	-0.5156531766	 2.1730698394	 0.105573
H	-2.8872282909	 0.6857761592	-0.5013749725	 0.098968
H	-3.1585230725	-2.0488071718	-1.6872265678	 0.10592
