18
gdb 110748	2.61045	1.30226	1.10224	2.4442	74.64	-0.2156	0.0131	0.2287	1178.2117	0.146717	-435.199066	-435.189844	-435.1889	-435.23323	34.139	
C	-0.385007312	 1.2435954247	 0.161564477	-0.313664
N	 0.4759977828	 0.105155327	-0.1542754892	-0.291599
C	 0.9589778998	-0.5670684778	 1.0126416121	-0.04483
C	 0.1986164173	-1.5708288554	 1.8530508179	-0.110286
N	-0.6783642911	-2.341462537	 0.9223466724	-0.376858
C	 0.4823088369	-2.9205954502	 0.3095188724	 0.297381
N	 0.6894145582	-3.8854818099	-0.4725617664	-0.540312
C	 1.4336052901	-2.0084001743	 1.0541556901	 0.261631
O	 2.6801380042	-2.3851749728	 1.4938826663	-0.442012
H	 0.1944765012	 1.9997278525	 0.7032208995	 0.120414
H	-0.7374276156	 1.6986162595	-0.7682818396	 0.119821
H	-1.2610115873	 0.9847040629	 0.7789490644	 0.104134
H	-0.0383036335	-0.552438527	-0.7305013595	 0.236198
H	 1.6174846341	 0.054174312	 1.6191214361	 0.107653
H	 0.0258281161	-1.5435951886	 2.9204649839	 0.114232
H	-1.3284707175	-2.9962207613	 1.3418041294	 0.241163
H	-0.1822187313	-4.3510035757	-0.7349090695	 0.217327
H	 3.3212019176	-2.1684245087	 0.8071266828	 0.299607
