19
gdb 126177	3.9809	0.98283	0.84804	3.8687	77.7	-0.2421	0.0155	0.2576	1386.3003	0.160232	-419.233097	-419.22399	-419.223046	-419.267767	33.386	
C	-0.0478200307	 1.5751417447	 0.093635384	-0.385123
C	-0.1131166559	 0.0626503796	 0.3101554797	-0.166767
C	-1.4348257563	-0.5462584534	-0.1975948738	 0.033206
O	-1.6160712218	-0.2626415287	-1.5738509227	-0.443296
C	-1.4907810191	-2.0303649556	 0.0612731195	 0.344425
N	-1.4310006763	-2.8674672611	-0.9707018463	-0.316939
N	-1.4761251633	-4.0977369604	-0.4246632416	-0.189003
C	-1.5649248557	-4.0662508335	 0.9259576708	-0.010848
C	-1.5763674287	-2.7359688048	 1.2848062512	-0.297372
H	 0.9142593559	 1.980397403	 0.4216484207	 0.104846
H	-0.1809634026	 1.8122307149	-0.9647482918	 0.137401
H	-0.8362968351	 2.0898317978	 0.6549134164	 0.107959
H	 0.7115915787	-0.4333189342	-0.2163233007	 0.096953
H	 0.0006541512	-0.1769878807	 1.3751291392	 0.087467
H	-2.2611197339	-0.0655689056	 0.3498838588	 0.079782
H	-1.5020164312	-1.0977179019	-2.0461655135	 0.293759
H	-1.4552648524	-4.9027546939	-1.0267859998	 0.277493
H	-1.6150146238	-4.9708584762	 1.5113634181	 0.138863
H	-1.6420313691	-2.33243869	 2.2820176918	 0.107195
