19
gdb 37595	2.78811	2.30215	1.985	1.4792	75.33	-0.2208	0.0863	0.3072	813.8957	0.164942	-385.891208	-385.885738	-385.884794	-385.920612	25.259	
C	-0.0422298378	 1.5623268385	-0.0760480548	-0.211738
C	 1.4638149647	 1.8623948356	 0.0186531577	-0.044063
C	 1.971109582	 0.9229788923	-1.1048356828	-0.206299
C	 1.4723394643	-0.3614098948	-0.4023572665	-0.069803
C	 2.248716475	-0.2974577569	 0.9226139126	-0.098311
C	 1.2258877174	 0.0423327454	 1.9469513655	 0.083006
O	-0.0617340201	-0.2528836874	 1.4780398335	-0.254302
C	 0.0039113926	 0.0238605534	 0.078024633	 0.07053
C	 2.025704717	 1.1717805048	 1.2957542055	-0.109323
H	-0.6531760913	 1.9955264328	 0.7183327706	 0.103661
H	-0.4420799435	 1.8794566771	-1.0445799114	 0.089425
H	 1.741660584	 2.9138062605	-0.0646803894	 0.058353
H	 1.505219843	 1.1251189419	-2.0754333963	 0.087743
H	 3.0579516414	 0.9262883473	-1.2245949833	 0.095038
H	 1.5494597633	-1.3028752676	-0.9452296394	 0.064828
H	 3.1550029654	-0.8640528038	 1.0945846961	 0.082961
H	 1.3389736522	-0.1596389655	 3.0055022527	 0.098598
H	-0.8039666384	-0.5213126017	-0.4106652503	 0.076845
H	 2.7322517289	 1.706462498	 1.9201223568	 0.082851
