19
gdb 77673	2.2736	1.65837	1.35214	1.4996	71.04	-0.2325	0.063	0.2955	1048.5341	0.15705	-460.142062	-460.13288	-460.131936	-460.17528	34.529	
C	-0.1001384877	 1.5265433804	-0.0647319229	-0.482418
C	 0.0130912974	 0.0335523029	 0.0431504415	 0.29256
O	 0.3278512924	-0.6492307605	-1.1604171548	-0.290676
C	 1.459138259	-1.442302991	-0.8557722988	 0.005658
O	 1.3388107403	-1.8300265072	 0.4979655963	-0.292125
C	 0.6819330109	-0.7495924172	 1.1446275958	 0.32111
C	 1.3777319824	-0.2024760371	 2.3572362238	-0.473144
C	-0.8258204387	-0.8088066918	 1.0039170235	-0.034774
O	-1.5609879229	-0.1757349205	 2.0080462041	-0.421197
H	 0.855569647	 1.9796451504	-0.3464279155	 0.125774
H	-0.8382091241	 1.7963139771	-0.8278735206	 0.128503
H	-0.4210168096	 1.9535492682	 0.888409622	 0.131648
H	 1.4559231203	-2.3338894646	-1.488752239	 0.1189
H	 2.3867807848	-0.8636838368	-1.0106020189	 0.085977
H	 2.3471247148	 0.232615037	 2.0945107268	 0.1186
H	 0.761612476	 0.5593041236	 2.8385945351	 0.139507
H	 1.5487420774	-1.0051684286	 3.0815196693	 0.13453
H	-1.2348181046	-1.7356085988	 0.6023751079	 0.097653
H	-2.3609446953	 0.1862262946	 1.6114967243	 0.293915
