15
gdb 11880	4.95431	1.54617	1.31622	3.9449	61.48	-0.2452	0.0299	0.2751	907.4766	0.119742	-399.822685	-399.815721	-399.814777	-399.854228	26.097	
O	 0.0302488254	-0.0336069609	 0.060672819	-0.374349
C	-0.0260564175	 1.1744867458	 0.084617999	 0.417617
C	-1.287508136	 2.046869359	 0.09948506	-0.428755
C	-0.7728256484	 3.4543089239	 0.3411010973	 0.416161
C	-1.5833499589	 4.6712149825	 0.3099651689	-0.246864
O	-1.1666975295	 4.0988596169	 1.5546027527	-0.259768
C	 0.7291088645	 3.4442348617	 0.0369935918	-0.231734
N	 1.0455109887	 2.0297841225	 0.0867497568	-0.316622
H	-1.7925617839	 1.9438957681	-0.8669345444	 0.137198
H	-1.9791697077	 1.7248301913	 0.8798534308	 0.15161
H	-1.1216330066	 5.625577419	 0.0564587973	 0.115729
H	-2.6491946059	 4.6037829448	 0.0950231961	 0.119685
H	 0.9464980294	 3.8792319756	-0.9490685979	 0.113168
H	 1.2668995574	 4.020953985	 0.7964018893	 0.132352
H	 1.980865669	 1.6659334448	-0.0012671166	 0.254574
