13
gdb 48769	3.10042	1.46577	1.12874	5.5044	59.79	-0.2788	-0.0505	0.2283	1017.0855	0.088189	-493.729895	-493.722784	-493.721839	-493.761887	26.175	
O	-0.0495252419	-0.004757295	 0.1698841527	-0.241205
C	 0.0252968271	 1.1787534889	-0.0184940424	 0.095365
C	 1.2879202922	 1.9545617765	-0.0397716129	 0.294961
C	 1.3383007448	 3.4446609924	 0.2755216874	-0.377866
C	 1.6504711893	 2.9749877397	-1.1058807042	 0.035741
O	 2.9954007476	 2.7170039216	-1.4086865359	-0.235917
C	 3.4678361653	 1.698306539	-0.6205025301	 0.488152
O	 4.5799053399	 1.2939809484	-0.6337167171	-0.345078
O	 2.4721183837	 1.2423177742	 0.1976728286	-0.256538
H	-0.871021505	 1.815225251	-0.197884018	 0.084535
H	 0.3818686192	 3.9370617139	 0.4168149884	 0.149449
H	 2.1458452438	 3.7860098629	 0.9134666884	 0.161925
H	 1.0451304441	 3.2119742065	-1.971105345	 0.146476
