17
gdb 24646	4.34975	1.20596	0.98355	2.8567	83.95	-0.2178	-0.0178	0.2	1179.483	0.138936	-380.896541	-380.889328	-380.888383	-380.92865	27.757	
C	 1.0135222192	-0.6339927028	-0.8172289818	-0.226007
C	-0.3924099303	-0.9467811281	-1.2125359224	-0.227957
N	-0.1090489675	-0.1444321094	-0.0325603134	-0.127996
C	-0.3607252328	-0.6352272558	 1.2575955149	 0.252381
C	 0.6371586592	-0.6157061384	 2.2428649392	-0.049386
N	 0.4455582493	-0.99868788	 3.5031795445	-0.258121
C	-0.7733850469	-1.4250270742	 3.8460754512	-0.010466
C	-1.8356827702	-1.4834911256	 2.9480421176	-0.104776
C	-1.6292011178	-1.0837390791	 1.6341848591	-0.157357
H	 1.603683171	-1.4480206566	-0.4014328978	 0.12643
H	 1.5813455812	 0.1210058152	-1.3527415715	 0.126862
H	-0.8619408041	-0.4223874933	-2.0395268367	 0.125777
H	-0.7346397762	-1.968284713	-1.0586752277	 0.123006
H	 1.6342467455	-0.2657281427	 1.9838551054	 0.103094
H	-0.904235257	-1.7325508496	 4.8801979098	 0.103624
H	-2.8081754141	-1.8380900888	 3.2722944993	 0.099138
H	-2.4325116086	-1.1096179778	 0.9051406503	 0.101752
