15
gdb 128055	4.43923	1.04542	0.85063	0.5643	70.67	-0.23	-0.0565	0.1735	1285.8117	0.112342	-450.107253	-450.098501	-450.097557	-450.142607	30.032	
C	-0.0738753316	 1.3734331442	 0.0730536597	-0.310235
N	-0.0005466079	-0.0608602845	-0.0981369022	-0.306968
C	 0.6540357517	-0.6197846142	-1.1506854262	 0.274735
N	 1.2325346236	 0.113243272	-2.0345054464	-0.559517
C	 0.6169318179	-2.0989826403	-1.1483198771	 0.248052
C	 1.1378982218	-3.0207657538	-2.0049766118	-0.049906
O	 0.8359025057	-4.2387317223	-1.5748452208	-0.159111
N	 0.0775732763	-4.0642533012	-0.3721505413	-0.000077
N	-0.0230142396	-2.8308693356	-0.1667411846	-0.194569
H	 0.9264123119	 1.8112166577	 0.1624793645	 0.141378
H	-0.5628503098	 1.847850422	-0.7848457129	 0.141521
H	-0.6441165355	 1.5912591558	 0.9779288927	 0.121175
H	-0.4369025343	-0.6735078252	 0.5681934185	 0.266387
H	 1.6751039182	-0.4530296262	-2.7536985221	 0.205814
H	 1.7147985615	-2.9493618884	-2.9121891099	 0.181321
