15
gdb 116991	4.83277	0.61558	0.54977	2.0265	88.49	-0.2625	-0.0675	0.1951	1933.1432	0.109278	-420.602244	-420.592509	-420.591565	-420.638014	33.467	
C	 0.0576980174	 1.5224733928	-0.1325716066	-0.394884
C	 0.0201846546	 0.011056681	-0.0251559263	-0.045653
O	 0.6845796595	-0.523930639	-1.1924656721	-0.226342
C	 0.739290417	-1.8630290951	-1.2623701351	 0.171932
O	 0.2845867992	-2.6203834198	-0.43990202	-0.350174
C	 1.4203386861	-2.2910062271	-2.4626359754	 0.238966
C	 1.9764683298	-2.7359945021	-3.4417953353	 0.026643
C	 2.6035624227	-3.2176150999	-4.5458265517	 0.263491
C	 3.1608318092	-3.647002877	-5.5271454601	-0.541084
H	 1.0882081031	 1.8863044751	-0.1662734743	 0.13452
H	-0.4583905129	 1.8630461826	-1.0343081664	 0.134501
H	-0.4369572544	 1.9652615219	 0.7369051699	 0.126536
H	 0.5356107225	-0.3531709933	 0.8689657742	 0.1287
H	-1.0028058634	-0.3766383847	 0.0042444481	 0.128844
H	 3.6514978197	-4.0228907054	-6.3909905389	 0.204004
