17
gdb 35818	3.13728	1.43411	1.13885	4.0386	72.	-0.2434	0.0332	0.2766	1063.2318	0.138725	-417.999604	-417.992147	-417.991203	-418.031789	28.431	
N	-0.1235010926	-1.1448301454	-0.2379092933	-0.327133
C	-0.0723690506	 0.0025019608	-0.1084341276	 0.275417
C	-0.0159751849	 1.4483718956	 0.0412871015	-0.158613
C	-0.4867876371	 1.9675044955	 1.4237719173	-0.10217
O	 0.0560987439	 3.277946258	 1.5144799308	-0.259738
C	 1.3240219836	 3.2948140703	 0.8902045458	 0.102271
C	 2.5123918675	 2.6867476997	 1.6836718049	-0.194103
N	 2.3404111744	 1.4159402258	 0.9398531503	-0.305182
C	 1.4112230617	 2.0362679712	-0.0217122895	-0.044831
H	-0.6250899486	 1.9108597399	-0.7438873238	 0.127311
H	-1.5720353482	 2.0433133545	 1.511642152	 0.127973
H	-0.1016619231	 1.3123164499	 2.2144814268	 0.130134
H	 1.4767599914	 4.2870963052	 0.4653139011	 0.095599
H	 3.4548951155	 3.2141540756	 1.4884409247	 0.101554
H	 2.3690343662	 2.5996299102	 2.7657355205	 0.115889
H	 3.1748069714	 0.999163287	 0.5485859795	 0.231605
H	 1.7767085194	 2.1663535961	-1.0438290309	 0.084018
