18
gdb 7666	4.06673	1.74157	1.4304	1.8896	68.	-0.2522	0.0762	0.3285	921.5318	0.152331	-384.875977	-384.868254	-384.86731	-384.907361	30.507	
C	-0.1186500572	 1.5493560556	 0.7623688553	-0.428273
C	-0.1140793198	 0.056900458	 0.4813997431	 0.026413
C	 1.0174876554	-0.5285755112	-0.4007678534	-0.041943
O	 1.979543074	-0.2592267211	 0.7091567195	-0.342375
C	 0.7761159645	-0.8603361646	 1.3575748252	-0.041944
C	 0.8085853141	-1.9527958429	 0.2288448918	 0.487618
C	-0.3769568322	-2.8365744398	-0.1005738784	-0.470512
O	 1.941435859	-2.7680469901	 0.2305223223	-0.490179
H	 0.8913652565	 1.9075144693	 0.9685958413	 0.13944
H	-0.5178450608	 2.1030583131	-0.0942240964	 0.115666
H	-0.7538118848	 1.7787255078	 1.6247222225	 0.115665
H	-1.1183478085	-0.3173791671	 0.2729103168	 0.073493
H	 1.3367008941	-0.2487342809	-1.4065798768	 0.091209
H	 0.8082868157	-0.9750321339	 2.4427824181	 0.091211
H	-1.3256911453	-2.3008445288	-0.1295105462	 0.121104
H	-0.2141883601	-3.3099254707	-1.0733092417	 0.133899
H	-0.4497190472	-3.6341723945	 0.644623478	 0.133905
H	 2.6723623627	-2.1685215983	 0.4440153588	 0.285605
