15
gdb 20852	3.34397	1.8773	1.30358	0.8655	62.79	-0.2302	0.0038	0.234	923.3586	0.120338	-395.993874	-395.986201	-395.985257	-396.026347	27.69	
C	 0.0803953661	 1.5196938426	 0.18888474	-0.379857
C	-0.1407756697	 0.022384143	-0.0858536839	-0.294114
C	 0.6520198276	-0.4835060659	-1.2482018417	 0.246251
N	 0.1037470806	-0.8758701656	-2.4012398084	-0.262538
N	 1.1370788223	-1.228115885	-3.1497216219	-0.093397
N	 2.3450867226	-1.1053592302	-2.5893030398	-0.302924
C	 2.0501164051	-0.6334352718	-1.3859235737	 0.308337
O	 2.9777020375	-0.3503743618	-0.4499418239	-0.426445
H	 1.1353551994	 1.726536895	 0.3914400547	 0.133127
H	-0.2239203328	 2.1233249872	-0.6715411218	 0.122871
H	-0.5022045962	 1.8435523432	 1.0566574471	 0.113516
H	 0.1279804737	-0.550147993	 0.8103383483	 0.114954
H	-1.1983101457	-0.1743380584	-0.2850129805	 0.121016
H	 1.023205233	-1.5789067632	-4.0850870938	 0.290867
H	 3.8438958266	-0.5537651762	-0.8236964506	 0.308335
