23
gdb 94446	2.7669	1.28868	1.16897	0.062	91.45	-0.2292	0.0259	0.2551	1215.6408	0.207229	-351.164604	-351.155959	-351.155014	-351.197688	34.36	
C	-0.647335389	 1.2560295386	-0.0289544392	-0.420119
C	 0.1446686195	-0.038438464	-0.126438374	 0.001522
C	 1.5623829806	-0.0224506148	-0.7568072174	-0.234764
C	 1.9876532319	-1.1038356891	 0.265671261	-0.270718
C	 0.7531414215	-0.7179316134	 1.1541287224	 0.337156
C	 1.0837010154	 0.212645872	 2.3516571458	-0.282652
C	 1.0026608002	-0.6832249039	 3.6145250166	-0.263676
C	 0.1508944824	-1.839552909	 3.1473122535	-0.07492
C	 0.0141567698	-1.845187125	 1.8220482667	-0.142652
H	-0.0586640474	 2.0601624552	 0.4252770042	 0.113641
H	-0.9521930315	 1.5965042818	-1.0250284751	 0.111099
H	-1.5570427583	 1.1275174357	 0.5688201761	 0.115128
H	-0.4647738804	-0.7915188624	-0.6422194186	 0.065757
H	 1.6508369006	-0.2600111831	-1.8200103401	 0.090578
H	 2.0683680574	 0.9314249077	-0.5737317112	 0.096178
H	 1.8866112497	-2.1143240127	-0.1419544566	 0.094681
H	 2.9741360365	-1.0154961024	 0.7292376762	 0.092682
H	 2.0490070597	 0.7162341715	 2.2469840815	 0.091328
H	 0.3194578574	 0.9925440706	 2.427350626	 0.103121
H	 1.9931880121	-1.0380913579	 3.9327037624	 0.104832
H	 0.578118115	-0.1539295788	 4.4752505943	 0.099859
H	-0.251720475	-2.5852058499	 3.8245826644	 0.088776
H	-0.5161096481	-2.5985105868	 1.2470920813	 0.083163
