15
gdb 17219	5.45065	1.7183	1.55744	2.0593	72.52	-0.2362	0.033	0.2692	830.2927	0.119321	-325.421194	-325.414826	-325.413882	-325.451371	25.64	
C	 0.0239545696	-1.1583882922	-0.0754379562	-0.349916
C	 0.0097562813	 0.0439410767	-0.0443529536	 0.130603
C	-0.0635708334	 1.4622508227	 0.0070015838	 0.232454
C	-1.187873201	 2.3228787263	 0.5998236231	-0.297897
C	-0.4840147866	 3.5234645684	-0.0806054847	-0.102173
C	 0.8651200508	 3.5656313852	 0.6565560238	-0.147575
N	 1.2395091884	 2.2539627564	 0.0294084356	-0.176731
C	 0.2335032574	 2.4925453756	-1.0341370016	-0.099812
H	 0.050663729	-2.2193522533	-0.1036282708	 0.183071
H	-2.1382224857	 2.0743731307	 0.1224642645	 0.117361
H	-1.3090788338	 2.3512368911	 1.6876308892	 0.103164
H	-1.0388676496	 4.4168829589	-0.3578913291	 0.081831
H	 1.5510202641	 4.3257007617	 0.2742793706	 0.114879
H	 0.8599257402	 3.5805985151	 1.7523621907	 0.102568
H	 0.4263613193	 2.4153683268	-2.0960277753	 0.108175
