19
gdb 30711	3.0382	1.16372	0.88997	1.1373	81.14	-0.1782	0.0394	0.2176	1320.2732	0.159531	-419.238093	-419.228145	-419.227201	-419.273364	36.048	
C	 0.2507585961	 1.4601268941	 0.0086836031	-0.516789
C	 0.022305698	-0.0197595508	 0.0039927367	 0.249055
C	-0.2522682043	-0.8228954373	-1.0821009495	-0.178624
N	-0.4066965828	-2.1069932235	-0.6473619072	-0.30116
C	-0.2114419077	-2.1690075767	 0.723672847	 0.210792
C	-0.2806459099	-3.466519261	 1.4459895615	-0.179693
O	 0.6382035069	-4.441851967	 0.9404286131	-0.420836
C	 0.0511353231	-0.8780931492	 1.1480833391	 0.064015
N	 0.368408728	-0.4463252442	 2.4523657674	-0.611
H	 1.2277684712	 1.7196557051	 0.434798149	 0.127833
H	 0.213480265	 1.8673155854	-1.0057786519	 0.120246
H	-0.5054612835	 1.9971034156	 0.5983081101	 0.11273
H	-0.3487344057	-0.5672259024	-2.1259239244	 0.111716
H	-0.4954623425	-2.9197409494	-1.2313748432	 0.261216
H	-0.1262487734	-3.2938433295	 2.5223292005	 0.085948
H	-1.263697523	-3.9431327203	 1.3398494139	 0.110061
H	 1.5038554405	-4.0186201897	 0.9186038294	 0.278865
H	 0.0224818514	-1.0726662423	 3.1680470475	 0.235883
H	 0.0084602629	 0.481462383	 2.6408317778	 0.239742
