15
gdb 20831	5.01928	1.37672	1.14267	3.4534	62.78	-0.2298	0.016	0.2458	1026.6453	0.12074	-396.021057	-396.013514	-396.012569	-396.05362	27.305	
C	-0.2054008361	 1.5248359159	 0.0660032392	-0.36964
C	 0.0775119822	 0.0158648576	 0.0054244469	-0.300147
C	 0.8077351226	-0.4804202359	 1.2109784753	 0.381687
N	 1.9713767348	-0.0357734989	 1.6696753537	-0.397798
C	 2.1784825452	-0.8114524886	 2.7674494297	 0.415068
O	 3.2659241035	-0.6857587497	 3.5398956603	-0.408967
N	 1.2442246626	-1.7040826951	 3.036553102	-0.290407
N	 0.3686286509	-1.4662873523	 2.0139784015	-0.245231
H	 0.7275887295	 2.0798511426	 0.1879225889	 0.147571
H	-0.6945276981	 1.8604560222	-0.8527005216	 0.11742
H	-0.8564140347	 1.7695861539	 0.910543661	 0.124565
H	-0.8577326815	-0.5450896394	-0.1034983929	 0.104725
H	 0.6809789661	-0.2061266067	-0.8827096722	 0.135115
H	 3.797615525	 0.0178039604	 3.1492225786	 0.309717
H	-0.4736652419	-2.0127397057	 1.9462570096	 0.276322
