19
gdb 60859	2.23921	1.3731	1.134	2.7884	71.25	-0.247	-0.0274	0.2196	1165.293	0.156035	-460.145004	-460.135269	-460.134325	-460.179972	34.897	
C	 0.1258409452	 1.5273167279	 0.1248282731	-0.429869
C	 0.0269009999	 0.0037290469	-0.0091646097	-0.087477
C	-1.4262627786	-0.4580506537	 0.0056117832	 0.161039
O	-1.7831410402	-1.5423088912	 0.3917850343	-0.257825
C	 0.6828802623	-0.5172519324	-1.3006767311	 0.344508
O	-0.0019575128	 0.0813144567	-2.3751923671	-0.484029
C	 2.2343347762	-0.4738949503	-1.2991633414	-0.136344
O	 2.3021580655	-1.8901808702	-1.0599889418	-0.270163
C	 0.8951469417	-2.0540266924	-1.3332232513	-0.141608
H	 1.1693809944	 1.8546965859	 0.136331955	 0.124064
H	-0.3726608763	 2.0221934978	-0.7124558263	 0.143943
H	-0.3381435027	 1.8683613145	 1.055403473	 0.123131
H	 0.5284192048	-0.4962032542	 0.8264168771	 0.11113
H	-2.1596213143	 0.2809141384	-0.3860181206	 0.087503
H	 0.3621318074	-0.2557548461	-3.200569603	 0.285538
H	 2.6513411917	-0.1923849466	-2.2786969177	 0.090024
H	 2.7365330716	 0.1055313606	-0.5166374776	 0.110023
H	 0.3815607671	-2.6529344645	-0.5768229721	 0.137757
H	 0.714014637	-2.4865886871	-2.329030566	 0.088655
