25
gdb 58428	2.63854	1.29218	1.20389	0.0734	92.5	-0.2772	0.0841	0.3612	1237.7041	0.229081	-352.304064	-352.294543	-352.293598	-352.337899	37.894	
C	 0.1035534239	 1.4813373668	 0.2446829435	-0.398065
C	 0.0278737279	-0.0534798137	 0.1540753077	-0.042491
C	 0.8063368075	-0.7119510377	 1.3056365764	-0.394631
C	-1.4322113705	-0.569574353	 0.0562783296	 0.407018
C	-2.2713347509	 0.0322783162	 1.1972823859	-0.488523
C	-2.0870055722	-0.6281130593	-1.3826851908	-0.089942
C	-1.1487808427	-1.8254262823	-1.7282716794	-0.235265
C	-1.6708188278	-2.0967685164	-0.286768576	-0.087005
C	-3.0730556484	-1.7064957561	-0.8478849361	-0.238164
H	 1.1436379007	 1.8142557984	 0.161814186	 0.107292
H	-0.4624853698	 1.9593290803	-0.5621431676	 0.110406
H	-0.284474366	 1.8600319885	 1.1953509621	 0.11387
H	 0.5552875035	-0.3210933886	-0.7643426238	 0.072847
H	 0.3849686583	-0.4651923238	 2.2859541403	 0.113719
H	 0.8126116392	-1.8025552595	 1.2111325958	 0.113081
H	 1.8476003427	-0.3719262861	 1.30747383	 0.107853
H	-2.5596204848	 1.0647463725	 0.9742778179	 0.118029
H	-3.1855991027	-0.5221857398	 1.4071964025	 0.114511
H	-1.7001692158	 0.0534045167	 2.1297971299	 0.114926
H	-2.3329043105	 0.2213525944	-2.0248202726	 0.061209
H	-1.5253822477	-2.5039797267	-2.4979985454	 0.085498
H	-0.0862608071	-1.643519802	-1.8766202501	 0.094175
H	-1.436693822	-2.9572262274	 0.3444090268	 0.062518
H	-3.8528480297	-1.3989378177	-0.1542902974	 0.090731
H	-3.479636615	-2.3866685336	-1.6006819151	 0.086404
