22
gdb 110391	5.43171	0.94607	0.9327	1.1202	87.51	-0.2083	0.0853	0.2936	1390.8588	0.193676	-367.117958	-367.109347	-367.108403	-367.151057	33.712	
C	 0.0722390374	 1.7075083919	 0.0380120076	-0.376746
C	 0.0683247602	 0.1815379364	 0.1057457132	-0.121352
N	 0.6490390088	-0.3939848806	-1.1074669245	-0.122313
C	-0.2643334046	-0.5312662544	-2.2864010774	-0.019266
C	 0.5453575472	-1.7420578287	-2.837581175	-0.062899
C	-0.7283307211	-2.5867460445	-3.060168155	-0.015489
C	-0.6349720753	-4.1046447851	-3.0065030445	-0.415312
C	-1.0322539346	-1.8026554077	-1.7634726135	-0.079995
C	 0.4708292675	-1.8664401011	-1.2834916318	-0.015108
H	 1.0858141994	 2.0791695047	-0.1370918655	 0.124692
H	-0.563749957	 2.0692341888	-0.7772968121	 0.112768
H	-0.3043906739	 2.1405939794	 0.9698311819	 0.108942
H	 0.6867406204	-0.1507128314	 0.949516811	 0.095
H	-0.9568343683	-0.1794252513	 0.3038340976	 0.075338
H	-0.6632834329	 0.3151791209	-2.8480331378	 0.077458
H	 1.4615110765	-1.6764721804	-3.424973039	 0.07597
H	-1.3269283169	-2.2653011228	-3.9219004871	 0.063647
H	-0.0441064927	-4.4444458635	-2.1491202132	 0.113657
H	-1.6292256089	-4.5579102278	-2.9253573855	 0.114581
H	-0.1652955422	-4.5033811504	-3.9126206604	 0.115611
H	-1.9338575288	-1.8373968645	-1.151157175	 0.073183
H	 0.9517115701	-2.5984536577	-0.6326400041	 0.077633
