19
gdb 76319	2.18046	1.50609	1.28015	1.7189	71.5	-0.2495	-0.0328	0.2168	1103.4226	0.156307	-460.168082	-460.158252	-460.157308	-460.202217	36.371	
C	-0.6740901159	 1.5412008178	 0.0446303618	-0.442403
C	-0.1131112145	 0.1272594611	-0.0339932815	 0.159556
C	-1.1851291941	-0.9405274114	 0.230780143	-0.446816
C	 0.7729599794	-0.2397460512	-1.2914527755	 0.059543
O	 1.3472724945	 0.8869279836	-1.8956240357	-0.435779
C	 1.8175360583	-0.9393007962	-0.3456185221	 0.005238
O	 3.1680727083	-0.6582916936	-0.6104618385	-0.443569
C	 1.1698024501	-0.1215799608	 0.7771004885	 0.318055
O	 1.6702764963	 0.3880785704	 1.7420339774	-0.319619
H	 0.0737526328	 2.2712999022	-0.2682451553	 0.140573
H	-1.5492399723	 1.6456618513	-0.6051586942	 0.117054
H	-0.9800031924	 1.7694945529	 1.0701703438	 0.126534
H	-1.9733806598	-0.8687308208	-0.5260503298	 0.12934
H	-0.7835188319	-1.9583101487	 0.1984015654	 0.120379
H	-1.642151299	-0.792077978	 1.2138030298	 0.133591
H	 0.2815927216	-0.8878153144	-2.0269455052	 0.070138
H	 2.3038454645	 0.7303112401	-1.8933403132	 0.291797
H	 1.64786464	-2.018552835	-0.2661457993	 0.110591
H	 3.5006324541	-0.1533916794	 0.1443151204	 0.305798
