15
gdb 5581	3.46412	1.85385	1.24095	2.0774	64.82	-0.1874	0.0145	0.2019	945.9138	0.12057	-395.998695	-395.990933	-395.989989	-396.030912	28.012	
C	 0.1869041898	 1.471692866	 0.0513736325	-0.32445
N	-0.2370536639	 0.0982820063	-0.1878879748	-0.387212
C	 0.456296568	-0.6548848681	-1.1170346401	 0.317482
C	 0.6613991865	-2.0029047774	-1.130346555	 0.160715
N	 0.3120900248	-3.0030744736	-0.2326315144	-0.606876
O	 1.3342708734	-2.2922321634	-2.3241347759	-0.169271
C	 1.494719135	-1.0983205901	-2.9082421093	 0.075456
N	 1.0029614247	-0.0888804535	-2.2609018509	-0.320084
H	 1.1856666307	 1.5539577393	 0.5080636229	 0.105963
H	 0.206659282	 2.0091852774	-0.8980448621	 0.156654
H	-0.5391036213	 1.9552218172	 0.7100063166	 0.117697
H	-0.4135015211	-0.4327338856	 0.6542791509	 0.239154
H	-0.3905815263	-3.6447459242	-0.5873326965	 0.246785
H	 1.1045541305	-3.5446377327	 0.0970851428	 0.245988
H	 2.017729477	-1.0782535477	-3.8524888368	 0.141999
