21
gdb 112480	2.35126	1.15325	0.8637	1.1369	82.42	-0.2392	0.0257	0.2649	1431.4484	0.181764	-420.403614	-420.393201	-420.392257	-420.439578	36.777	
C	 0.3490567461	 1.5137835453	-0.0302155001	-0.387307
C	 0.2249113241	-0.0124111918	 0.0049592268	-0.181216
C	 0.4567698409	-0.6446182089	-1.3525016904	 0.137443
O	 1.8464417539	-0.4849033404	-1.8102833792	-0.284815
C	 2.0703187097	-1.8521138012	-1.75574408	 0.433602
N	 3.1233721643	-2.5145651253	-1.8870414453	-0.335193
C	 4.3732791106	-1.8155248809	-2.1550173198	-0.33757
C	 0.6209891961	-2.1915620065	-1.4264106547	-0.161562
N	 0.2711670628	-2.9856339223	-0.2690094194	-0.512573
H	 1.3398991193	 1.8122392455	-0.3846072316	 0.134858
H	-0.3944798625	 1.9559433931	-0.7024931677	 0.115911
H	 0.1984365484	 1.9438557585	 0.9641371092	 0.115298
H	 0.9421756469	-0.4265645468	 0.7239622481	 0.095586
H	-0.7709098379	-0.3147215287	 0.3497054982	 0.117321
H	-0.218698052	-0.2201555776	-2.1030291914	 0.085448
H	 4.307269788	-0.7266616101	-2.0443621644	 0.124626
H	 5.1470977232	-2.1953182809	-1.4795163873	 0.122648
H	 4.703062726	-2.0403794816	-3.1760290444	 0.12753
H	 0.1025071623	-2.6012263183	-2.2977413843	 0.109456
H	 0.2983379395	-3.9707695702	-0.5091730509	 0.24341
H	 0.9554864405	-2.857945151	 0.4700365484	 0.237099
