16
gdb 84934	2.59476	1.67792	1.13069	3.3727	66.09	-0.2642	-0.0105	0.2536	1052.4044	0.124938	-475.054966	-475.047068	-475.046124	-475.08764	29.265	
C	-1.0233740352	 0.9550781751	 0.0630653143	-0.381328
C	 0.3445477987	 0.2734370488	 0.0562775182	-0.129573
N	 1.108164577	 0.7574109745	-1.0954169028	-0.259715
C	 2.3426051113	 0.6060864938	-1.2905275015	 0.136003
O	 3.3013149054	-0.0377711535	-0.5662215696	-0.211215
C	 2.8638488381	-0.8131559971	 0.5291878492	 0.013908
O	 2.3036612403	-0.035410409	 1.5579751388	-0.221712
C	 1.0506970114	 0.5050798552	 1.4049970548	 0.43376
O	 0.5856246928	 1.1278191764	 2.3118710497	-0.295038
H	-0.9073235988	 2.0334033056	 0.1902843965	 0.139408
H	-1.5207321145	 0.7657002089	-0.890646626	 0.121294
H	-1.6426440738	 0.5775819832	 0.8792479504	 0.126211
H	 0.182127638	-0.8086506789	-0.0488037348	 0.117354
H	 2.8087806882	 1.0465008555	-2.1701914134	 0.139925
H	 2.1712447566	-1.5906633272	 0.1899908302	 0.12307
H	 3.7620885345	-1.2653459511	 0.947523146	 0.147649
