19
gdb 18409	3.15933	2.11776	1.42572	1.3539	70.75	-0.2445	0.0733	0.3178	901.4877	0.168867	-365.039001	-365.032113	-365.031169	-365.069777	27.711	
C	-0.0148848913	 1.5328649626	 0.0621449442	-0.193654
C	 1.4339349448	 2.0378153196	-0.004229712	-0.063354
O	 2.1049886156	 1.8461978395	-1.2376142663	-0.242497
C	 2.4406494198	 0.4987453511	-1.5268448534	-0.089875
C	 1.3030500329	-0.2464612223	-2.199765855	-0.02844
N	 0.9898820216	-1.5967984889	-1.6910056571	-0.342634
C	 0.0368463384	-0.495247514	-1.4665370651	-0.002742
C	-0.1601244651	 0.0047335303	-0.045933259	-0.220183
H	-0.4275310983	 1.8728543418	 1.0210785218	 0.093158
H	-0.6022340357	 2.0228795919	-0.7243946482	 0.101075
H	 1.4469416735	 3.1199763798	 0.1643925483	 0.102772
H	 2.0145772886	 1.5688363698	 0.8094382098	 0.08466
H	 3.3123846447	 0.5370173848	-2.1893097198	 0.100971
H	 2.7372915044	-0.0382882517	-0.6148501906	 0.100996
H	 1.2171568722	-0.0799172388	-3.2717943572	 0.083194
H	 0.6737240388	-2.194079556	-2.4503071214	 0.230556
H	-0.8647088835	-0.4913601618	-2.0776169169	 0.081605
H	 0.5683383285	-0.4869482424	 0.6083686022	 0.110059
H	-1.1501218001	-0.3018670954	 0.3112873056	 0.094333
