18
gdb 110122	2.22061	1.31691	1.03177	4.2013	73.11	-0.2659	0.0201	0.2861	1222.9738	0.14624	-439.065145	-439.055441	-439.054497	-439.100239	34.167	
C	-0.5672033368	 1.0677488909	-0.1871756701	-0.244478
O	 0.4311824984	 0.0984654857	 0.1019352699	-0.226252
C	 0.9501164958	-0.5088273599	-1.0210804095	 0.104089
C	 1.5577037575	-1.8583456278	-0.8547973058	-0.102283
C	 1.5678906767	-2.5544168262	 0.4954746031	-0.089142
O	 1.4519499917	-3.960323454	 0.3707292975	-0.423229
C	 0.2350518803	-1.7279258278	-1.6277931167	-0.248226
C	-0.9604840654	-2.2307540026	-1.0208403939	 0.300934
N	-1.9149150402	-2.6624129586	-0.5262978471	-0.358222
H	-0.1701494205	 1.8632603028	-0.8336621292	 0.113661
H	-1.4387191166	 0.6118708954	-0.6728334801	 0.133349
H	-0.8709523872	 1.4994754072	 0.7677581602	 0.141664
H	 1.3893055163	 0.1743364874	-1.7504733325	 0.104669
H	 2.4116226389	-2.0864280157	-1.4850979697	 0.113716
H	 2.5316599399	-2.3655394329	 0.9793498442	 0.118287
H	 0.7895748361	-2.1325656686	 1.1400447019	 0.127811
H	 0.5272976051	-4.160833929	 0.1882015454	 0.297723
H	 0.2716037	-1.8434273862	-2.7056954775	 0.135927
