19
gdb 35638	2.11233	1.57836	1.37223	0.8033	88.48	-0.2134	-0.0237	0.1898	1082.406	0.16011	-348.732609	-348.72416	-348.723216	-348.766091	32.556	
C	-0.1825663029	-1.2398874974	-0.3803451538	-0.495754
C	-0.1049214019	-0.0544195592	-0.1980181269	 0.36354
C	-0.0189629437	 1.3904765053	 0.0054898233	-0.188757
C	-0.8352901393	 1.8440588893	 1.2395852631	-0.26696
C	-0.4266932516	 1.2938386253	 2.5766572333	-0.062549
C	 0.7897542364	 0.9136781255	 2.9926973087	-0.057875
C	 2.0696098014	 0.9309563434	 2.2921619482	-0.057445
C	 2.3666545827	 1.335203288	 1.0489347344	-0.06301
C	 1.448076251	 1.8836870946	-0.0061156137	-0.266951
H	-0.2491265391	-2.2882194443	-0.5342739573	 0.19355
H	-0.4995875123	 1.8671250449	-0.8599094198	 0.107126
H	-0.8187915115	 2.9430176306	 1.2742327747	 0.112934
H	-1.8826753902	 1.5740104054	 1.0615641962	 0.114624
H	-1.2407179169	 1.2058443202	 3.2929784237	 0.08808
H	 0.8524985957	 0.5431525694	 4.013710016	 0.08192
H	 2.9029566889	 0.5677843695	 2.8899147614	 0.081933
H	 3.409878318	 1.271421213	 0.7472361002	 0.088085
H	 1.8705223046	 1.6446539957	-0.9889023422	 0.114508
H	 1.4389308207	 2.9818681809	 0.0491442206	 0.112999
