19
gdb 57149	3.41593	0.70167	0.60907	4.0363	88.35	-0.2617	-0.0566	0.2051	1811.5027	0.156811	-385.858591	-385.848467	-385.847523	-385.896346	34.974	
C	 0.0576582822	 1.3564877115	 0.1881540565	-0.390289
C	-0.0438564325	-0.1723397608	-0.0085774168	-0.199001
C	-1.4424975419	-0.5967858338	 0.0145654699	 0.146774
C	-2.6035180755	-0.9327271034	 0.0335782369	 0.001433
C	-3.9849078685	-1.3343315309	 0.016528281	 0.016817
O	-4.624973036	-1.6458041903	 0.9954426626	-0.231326
C	 0.6473388795	-0.6223313393	-1.2914751803	 0.049251
C	 2.1352652646	-0.8619872054	-1.2918885662	-0.278747
C	 1.1797717362	-2.0235139097	-1.422030513	-0.268343
H	 1.1096138777	 1.6540208006	 0.2061028378	 0.125889
H	-0.4369075881	 1.8839612679	-0.6326043261	 0.12927
H	-0.4128193785	 1.6651538842	 1.1249191251	 0.132073
H	 0.4656132879	-0.6567549696	 0.8366221943	 0.111133
H	-4.4418893407	-1.3395685171	-0.9946153058	 0.094969
H	 0.2254849847	-0.1791608931	-2.1894352666	 0.092545
H	 2.7055785554	-0.5581937962	-2.1623839216	 0.116975
H	 2.6679937408	-0.7494750616	-0.3527945224	 0.114053
H	 1.0719720205	-2.6874035843	-0.570471502	 0.118862
H	 1.094102472	-2.5190208388	-2.3823294632	 0.117664
