21
gdb 111760	3.08246	1.08019	0.93037	1.2494	79.33	-0.223	0.0696	0.2926	1367.8984	0.180652	-424.167686	-424.158061	-424.157117	-424.202591	35.112	
C	-0.1659217601	 1.5202099671	-0.2610447587	-0.373341
C	 0.0305457676	 0.0502841093	 0.1281438216	-0.219133
C	-1.2819037583	-0.7009177771	 0.2113006056	-0.077521
C	-1.9274078305	-1.4099347299	-0.9586687047	-0.011491
O	-0.9327035852	-2.0085612493	-1.7983363091	-0.281487
C	-0.4891849221	-2.8754831555	-0.7193449807	-0.161206
C	-1.4559395361	-2.1976097629	 0.2564179185	 0.319067
O	-2.1006537058	-2.7891713019	 1.3149370538	-0.274906
C	-2.9362518961	-3.8855064044	 0.975160127	-0.25441
H	 0.7923116172	 2.0457927427	-0.3162796662	 0.11098
H	-0.652342383	 1.6046683603	-1.2383138494	 0.122162
H	-0.7923298174	 2.0449807899	 0.4689842564	 0.111618
H	 0.6759667868	-0.434267629	-0.6112021169	 0.114259
H	 0.5483991343	-0.012228019	 1.0935339752	 0.098816
H	-2.0381478146	-0.2354081858	 0.843802213	 0.092965
H	-2.8904044876	-1.1794148841	-1.3989285884	 0.103619
H	-0.741595341	-3.9175495854	-0.9444226407	 0.108865
H	 0.584441386	-2.7902076618	-0.5190672891	 0.109316
H	-3.4590283627	-4.1753772219	 1.8890569742	 0.13186
H	-3.670924813	-3.6043021972	 0.2088066855	 0.114596
H	-2.3609580785	-4.7468971441	 0.6113465932	 0.115373
