23
gdb 116460	2.55634	1.25428	0.99746	1.6554	82.06	-0.242	0.0678	0.3098	1304.8129	0.20639	-425.435261	-425.425682	-425.424738	-425.46949	36.324	
C	 0.0131113902	 1.3698293832	-0.0731188982	-0.239159
O	-0.0018184936	-0.0219181881	 0.1319295613	-0.248529
C	-1.2812239926	-0.6199984132	 0.0363365544	 0.160603
C	-1.7889251329	-0.7603683631	-1.4067325565	-0.218336
C	-3.1656353881	-1.445295069	-1.433592731	-0.200942
C	-3.1383873969	-2.7996724689	-0.7107914989	-0.174182
C	-2.5938412479	-2.6537788416	 0.7179925756	-0.233111
C	-1.2076609344	-1.9884125794	 0.7224002122	 0.101657
O	-0.2537970251	-2.771718085	 0.0116568938	-0.428566
H	 1.0298688265	 1.7139302109	 0.133595087	 0.124844
H	-0.2441210068	 1.6533152185	-1.1042081902	 0.105961
H	-0.6803856518	 1.8904639633	 0.607785843	 0.096894
H	-2.0062240354	-0.0147706223	 0.610877849	 0.053065
H	-1.85225676	 0.22363008	-1.8827313844	 0.08591
H	-1.0575684087	-1.3509965481	-1.9675100699	 0.122132
H	-3.9060239242	-0.7913287264	-0.9508293464	 0.089136
H	-3.4986791775	-1.5744162524	-2.4692883407	 0.092932
H	-4.140107632	-3.242561952	-0.689654961	 0.086799
H	-2.493311864	-3.4913295655	-1.2642526891	 0.104259
H	-3.2812170452	-2.0508285666	 1.326509212	 0.09384
H	-2.52667015	-3.6330457594	 1.2096781105	 0.081748
H	-0.86707535	-1.8272708595	 1.7562848668	 0.061873
H	-0.1770794997	-3.6191240953	 0.4606836707	 0.281175
