21
gdb 126297	2.93342	1.16679	0.90309	2.2896	87.44	-0.2236	0.0314	0.255	1376.9927	0.182413	-383.312232	-383.302166	-383.301222	-383.348112	35.627	
C	 0.1525912088	 1.4580720879	 0.2222456568	-0.370916
C	 0.0322930036	-0.0509904975	-0.0595093341	-0.302301
C	-1.3803094356	-0.5460540266	-0.1154772619	 0.385284
C	-2.1966283412	-0.8047869489	-1.2004941133	-0.393552
C	-3.4329908285	-1.2189139559	-0.6563899172	 0.358964
C	-4.6797697568	-1.634107816	-1.372775901	-0.490264
N	-3.38777589	-1.2173375899	 0.6742632903	-0.331678
N	-2.1347137181	-0.8093697604	 0.9888277594	-0.018982
C	-1.7772588011	-0.6680222013	 2.3827990196	-0.326917
H	 1.2017809167	 1.769624631	 0.2220817073	 0.114983
H	-0.3776922427	 2.03637546	-0.5398548014	 0.128037
H	-0.2747426129	 1.7203629259	 1.1949832417	 0.120127
H	 0.5043691105	-0.2768768592	-1.0208750352	 0.117355
H	 0.6000629431	-0.6090147295	 0.6957298715	 0.107487
H	-1.9250795491	-0.7177588693	-2.2413194656	 0.091007
H	-4.5026791353	-2.5012577569	-2.0188828829	 0.124067
H	-5.4539062118	-1.8977928535	-0.6488811668	 0.135622
H	-5.0637845867	-0.8297682644	-2.0102099601	 0.123846
H	-0.7608848008	-1.0305753654	 2.5580556608	 0.134376
H	-1.8420630475	 0.3740482949	 2.7166366069	 0.135169
H	-2.4779355742	-1.2680130151	 2.9631439553	 0.158288
