18
gdb 106639	2.89353	1.22587	1.00138	1.5486	73.6	-0.2431	-0.0219	0.2213	1208.2671	0.146274	-439.06357	-439.054422	-439.053478	-439.097841	33.441	
C	 0.1061386094	 1.5181421636	 0.0042503257	-0.496571
C	-0.0355332272	 0.0350358222	 0.1493801456	 0.153799
N	 1.1258904366	-0.8493946525	-0.0928638087	-0.396908
C	 0.4409144286	-0.9881823596	 1.1828466758	 0.26188
C	 1.2297620219	-0.7758981909	 2.441445109	-0.161095
O	 2.050521731	-1.8946230214	 2.7398020515	-0.411564
C	-0.8008945501	-1.8749212401	 0.9946498847	-0.430414
C	-1.296374089	-0.790670627	-0.0065557017	 0.373128
O	-2.349335616	-0.5841722213	-0.5385970505	-0.306301
H	 1.073999516	 1.8528615293	 0.3855558278	 0.13525
H	 0.0414360262	 1.805861447	-1.0502817834	 0.140936
H	-0.6900159004	 2.0404227973	 0.5429741722	 0.133551
H	 0.91875707	-1.6104320638	-0.7378400041	 0.238096
H	 1.8221864858	 0.1454322632	 2.3467598819	 0.100317
H	 0.5547884051	-0.65799996	 3.295010808	 0.116485
H	 2.6735230418	-1.9842358264	 2.0098704733	 0.290184
H	-0.6191509017	-2.8891158267	 0.6269815418	 0.123319
H	-1.4747214179	-1.9241701827	 1.855957991	 0.135908
