19
gdb 50592	3.09597	1.30504	1.05753	3.9474	75.25	-0.2407	-0.0199	0.2209	1155.7686	0.160542	-423.031767	-423.023853	-423.022909	-423.064863	29.802	
O	 0.1313433644	-0.0983751114	-0.0585360708	-0.25649
C	 0.0890247849	 1.0942535742	 0.1115398837	 0.146986
C	 1.2808601049	 2.0181535232	 0.0051073822	-0.07909
C	 1.1341790711	 3.0683022357	-1.1237090476	-0.242647
C	 2.15064893	 4.1658247051	-0.7451056684	-0.230233
C	 2.1056525772	 4.2355380105	 0.7876870407	-0.06739
C	 0.8290092728	 4.8474923856	 1.4000594534	-0.077982
O	 0.2867037213	 3.5430271962	 1.7013020733	-0.296964
C	 1.497522901	 2.8841551684	 1.2597810789	 0.102725
H	-0.8631827059	 1.6112149153	 0.3566440945	 0.094433
H	 2.1717044794	 1.4019056492	-0.1594090409	 0.091133
H	 1.3113739025	 2.6422042494	-2.1139083682	 0.113546
H	 0.1146649333	 3.4709689296	-1.1186983447	 0.11719
H	 3.1545243336	 3.8700610541	-1.069810553	 0.107336
H	 1.9276816116	 5.1276991973	-1.2177416348	 0.104607
H	 3.0441344102	 4.5578015833	 1.2390951686	 0.081424
H	 0.9863134559	 5.4372809242	 2.3114264514	 0.104997
H	 0.18507469	 5.4140697741	 0.7153477775	 0.102494
H	 1.979940922	 2.3445272658	 2.0811144442	 0.083926
