12
gdb 132650	3.25022	1.38394	0.97085	4.0039	60.35	-0.243	-0.034	0.209	1054.5966	0.077924	-518.120674	-518.113567	-518.112623	-518.15226	26.757	
N	-0.0414051937	 1.3556558745	-0.0867679594	-0.570469
C	-0.0154114426	 0.0016398659	-0.0363242216	 0.31347
N	-1.1696598664	-0.6707771461	-0.0191144286	-0.379676
C	-1.0701457185	-1.9900377586	-0.0050699442	 0.340773
F	-2.226396458	-2.6292649071	 0.0090758527	-0.05985
N	 0.0019269062	-2.7531278023	 0.0003010288	-0.326265
C	 1.1648191172	-2.075422255	-0.0101076347	-0.093399
C	 1.2025538457	-0.7059904927	-0.0291872079	 0.175322
F	 2.3537964054	-0.0159956544	-0.0345646553	-0.085433
H	 0.8052900097	 1.8687195169	 0.0862354754	 0.274463
H	-0.9243316458	 1.8111180954	 0.0735910423	 0.27501
H	 2.0859698509	-2.6511112466	-0.0019794674	 0.136054
