24
gdb 116644	3.38176	0.72725	0.71352	2.6205	91.25	-0.2433	0.0269	0.2702	1783.6089	0.213512	-405.55173	-405.540024	-405.53908	-405.589293	41.744	
C	 0.1052235164	 1.2279093031	 0.3828522348	-0.400053
C	 0.093914015	-0.1938151139	-0.1874568408	-0.161391
C	 0.583179464	-0.3653549595	-1.6512023326	 0.275312
C	-0.2970654272	 0.4433341082	-2.6235686529	-0.387827
C	 2.0490579977	 0.082792836	-1.7925115396	-0.428912
N	 0.328056665	-1.7764259466	-1.9664591549	-0.240815
C	 1.2515029501	-2.5706521565	-2.2697514395	 0.109831
O	 0.9631474003	-3.8647560561	-2.5443046871	-0.195774
C	 2.0770464067	-4.6780051513	-2.8844099855	-0.249711
H	 1.1112175221	 1.6588484914	 0.4051172524	 0.113365
H	-0.5365554824	 1.9053147089	-0.1887700504	 0.118113
H	-0.2665137321	 1.2207749331	 1.412481104	 0.113607
H	 0.7122384449	-0.8434868866	 0.4447352593	 0.088507
H	-0.9207605013	-0.6031792374	-0.1382801166	 0.107762
H	-0.2159146299	 1.5183894244	-2.4389343875	 0.10714
H	 0.0094813084	 0.2531961965	-3.6568966954	 0.10908
H	-1.3440310324	 0.1446811156	-2.5242981968	 0.122268
H	 2.7073084452	-0.4453978658	-1.0937938204	 0.109269
H	 2.4209775029	-0.0845197686	-2.8090987134	 0.1106
H	 2.1423818205	 1.1522418203	-1.5872322401	 0.116594
H	 2.3205005407	-2.3334822018	-2.3446131477	 0.072133
H	 2.5787640769	-4.319079586	-3.7920109902	 0.123447
H	 2.8073940571	-4.7276156991	-2.0668260021	 0.123343
H	 1.6834419514	-5.6784123783	-3.0691251572	 0.144114
