16
gdb 8564	3.95049	1.9945	1.69094	2.3717	63.39	-0.2424	-0.0196	0.2228	793.6853	0.132069	-383.753053	-383.746722	-383.745778	-383.783672	25.045	
O	-0.0029323265	 0.0135171771	-0.3411594096	-0.308861
C	-0.0141803863	 1.1776631737	-0.0256574787	 0.387922
C	-1.3220760186	 1.9473753081	 0.2114507388	-0.310982
C	-1.0411080973	 3.2564323524	 0.9482066596	 0.087331
C	-0.0114850001	 3.066158958	 2.0815567781	-0.2605
C	 0.9826490292	 3.2831864347	 0.9216400745	 0.087331
C	 1.2786851555	 1.9817586962	 0.1773063489	-0.310981
O	-0.0487343316	 3.9922456084	 0.1766384097	-0.297195
H	-1.7700653063	 2.1671922034	-0.7651131812	 0.139444
H	-2.0178004702	 1.2947840059	 0.7494845433	 0.125508
H	-1.9398734202	 3.8477285641	 1.1390323928	 0.085087
H	-0.013259615	 3.8991887024	 2.7852624728	 0.117757
H	 0.0081395729	 2.1135138225	 2.6171419267	 0.108101
H	 1.870170752	 3.8980968125	 1.0890172261	 0.085087
H	 2.0053016787	 1.347971341	 0.6966617406	 0.125508
H	 1.6949164037	 2.2130074396	-0.8106039823	 0.139444
