15
gdb 51989	6.29785	0.66069	0.62944	4.7699	67.33	-0.264	-0.0367	0.2274	1691.1606	0.110358	-491.119	-491.109485	-491.10854	-491.155733	31.414	
N	 0.2859152946	 1.0265408813	 0.6378620022	-0.395026
C	-0.0192794782	-0.0184949581	-0.0056732994	 0.084938
N	-1.3252114471	-0.4081865992	-0.2961492032	-0.372337
C	-2.5007097414	 0.2363388119	 0.0344511855	 0.547384
O	-2.6321793747	 1.2652831586	 0.6333401776	-0.347601
O	-3.5272899791	-0.5287126408	-0.4583363142	-0.283363
C	-4.8449667278	-0.032768567	-0.232661205	-0.171128
C	-5.6152370593	-1.0024390137	 0.6453683729	 0.146057
O	-6.8145954041	-1.0540146818	 0.6806182003	-0.226428
H	 1.298482905	 1.0954877611	 0.7226892006	 0.234043
H	 0.6873523787	-0.750028348	-0.4164600588	 0.10247
H	-1.4426727316	-1.2640077296	-0.8145422663	 0.26716
H	-4.7870765122	 0.9405238502	 0.2688999901	 0.178006
H	-5.3510079405	 0.0855142738	-1.1944582839	 0.145363
H	-4.9673970523	-1.6580524786	 1.2701009116	 0.090461
