13
gdb 130874	2.69326	1.33775	0.8938	3.3822	69.31	-0.2616	-0.0758	0.1858	1176.9645	0.09003	-452.781144	-452.773538	-452.772594	-452.813914	26.615	
O	-0.0300654638	-0.0221251547	-0.002711534	-0.272284
C	-0.0050812802	 1.1888594807	 0.0080227183	 0.063448
C	 1.231920265	 1.9734596343	 0.0001060644	 0.043143
C	 2.5114754948	 1.4410785232	-0.0182377297	-0.069369
N	 3.3525859944	 2.4931871069	-0.0195192236	-0.17044
N	 2.7399478941	 3.6856762726	-0.0036044556	-0.249073
C	 1.4391798882	 3.3886516277	 0.0085683302	 0.163066
C	 0.4161853969	 4.4567600434	 0.0281021701	 0.100061
O	 0.6550411681	 5.6382476516	 0.0355289937	-0.246798
H	-0.9461192894	 1.7768013512	 0.0213496946	 0.082254
H	 2.8491804104	 0.4176001188	-0.0297704604	 0.180906
H	 4.3607587249	 2.4717199993	-0.0309507051	 0.294173
H	-0.6294337533	 4.081012895	 0.0363778371	 0.080912
