21
gdb 95340	3.00541	1.36131	1.09333	1.7464	77.87	-0.241	0.0735	0.3145	1174.872	0.184263	-424.217271	-424.209079	-424.208135	-424.250225	31.767	
C	-0.0401518158	 1.527307028	 0.0503702205	-0.400073
C	-0.0002532461	 0.0070795183	 0.0016052809	 0.129733
C	 0.6599122893	-0.5244445456	-1.2786402749	-0.218617
C	 0.9376497056	-2.0398393255	-1.2330554581	 0.095073
O	 2.3243565387	-2.3392953984	-1.5360210498	-0.288741
C	 2.6016034547	-2.6388736494	-0.1512881382	-0.092586
C	 1.0990118537	-2.6479421441	 0.1881166746	-0.048865
C	 0.5775259554	-1.8264310664	 1.3579782321	-0.114161
O	 0.7232106069	-0.4358642868	 1.1473268946	-0.253834
H	 0.9761819867	 1.9323982671	 0.025643451	 0.126101
H	-0.5927600342	 1.9260371211	-0.805690797	 0.114559
H	-0.5237163509	 1.8689248224	 0.9693426944	 0.121491
H	-1.0318653381	-0.3835655857	 0.0693411923	 0.059629
H	 0.0429992128	-0.2677847489	-2.1466427821	 0.095836
H	 1.6241916752	-0.0212486115	-1.4057814249	 0.11716
H	 0.2689663785	-2.5875485909	-1.9054631307	 0.076229
H	 3.1477503628	-3.5810898699	-0.0344725415	 0.101722
H	 3.1633957886	-1.8310269681	 0.3378438735	 0.10407
H	 0.7042749057	-3.6659325242	 0.2403652951	 0.081373
H	-0.4849662797	-2.0671879018	 1.5353423107	 0.086783
H	 1.1260381599	-2.0622954197	 2.2766957474	 0.107118
