17
gdb 35420	2.59314	1.73443	1.39968	3.1475	76.39	-0.236	0.0068	0.2428	970.2664	0.138424	-380.864965	-380.857697	-380.856753	-380.896951	28.097	
N	 0.2512714222	-1.0408700727	 0.9184002998	-0.336011
C	 0.1496141824	 0.0449310636	 0.5328848671	 0.275184
C	 0.0238185251	 1.4118614368	 0.023060409	-0.104713
C	-0.5859276797	 2.4288524477	 1.0364168675	-0.268383
C	 0.8247421739	 3.0691766023	 1.1025064974	-0.011473
C	 1.7381627545	 2.6689967076	 2.2305924516	-0.088155
C	 2.6990065993	 1.8588619791	 1.7897687031	-0.056168
C	 2.5542815465	 1.5906643414	 0.3062289974	-0.236637
N	 1.2753883823	 2.2288662363	-0.0542453268	-0.104319
H	-0.488570108	 1.3570842567	-0.943303927	 0.128068
H	-1.3479383893	 3.0661319212	 0.5863665835	 0.121394
H	-0.9655161834	 1.9994204847	 1.9630917695	 0.130997
H	 0.8501654627	 4.1497544635	 0.9124321725	 0.087644
H	 1.6280215753	 3.0415665176	 3.2420064503	 0.105027
H	 3.5094801785	 1.4519931897	 2.3827420073	 0.108508
H	 3.3799253997	 2.0359694745	-0.2665985717	 0.114381
H	 2.540904368	 0.52182654	 0.0642880993	 0.134658
