21
gdb 88446	2.4995	1.175	1.11698	2.8966	78.54	-0.2468	0.0735	0.3203	1247.594	0.179748	-424.189205	-424.179252	-424.178308	-424.22417	37.166	
C	-1.8361124495	 0.2121737814	 1.7805799816	-0.421701
C	-0.8726570123	-0.6914563941	 1.0557226796	 0.081284
O	-0.0252766344	-0.094147769	 0.0694162941	-0.264224
C	 0.591607946	-0.6591309057	 1.2350490835	-0.017098
C	 1.3179994282	 0.2975197144	 2.1566071836	 0.273537
C	 1.5860229603	 1.6792751471	 1.588853946	-0.4495
C	 1.0827093545	 0.1657282201	 3.6569076578	-0.361699
C	 2.3769876764	-0.3039649104	 3.0458071581	 0.050675
O	 2.6160239028	-1.675297482	 2.9100958861	-0.417306
H	-1.3429509653	 1.1102254541	 2.1567435676	 0.132079
H	-2.6466161801	 0.5177463027	 1.1103886924	 0.126404
H	-2.2865122532	-0.3154303212	 2.6285952002	 0.116805
H	-1.3030498852	-1.6424006346	 0.7324453021	 0.083467
H	 1.1319990255	-1.5834763499	 1.0379228614	 0.10825
H	 0.655720713	 2.2066182551	 1.3621141509	 0.12803
H	 2.1573311522	 2.284255719	 2.2999454954	 0.104699
H	 2.1572279419	 1.6145694526	 0.6574772888	 0.129429
H	 1.0819651317	 1.0650256782	 4.2646764582	 0.109454
H	 0.394250016	-0.6075647354	 3.9828233355	 0.111401
H	 3.2713788535	 0.2946707202	 3.2203831459	 0.085823
H	 2.7425231579	-2.0467570625	 3.7889912012	 0.290194
