18
gdb 41112	3.48877	1.96634	1.58791	1.3806	79.19	-0.2056	0.006	0.2115	875.9601	0.150151	-364.737196	-364.730988	-364.730044	-364.76722	27.164	
C	-0.0016990658	 1.3400453254	 0.2957527542	-0.165113
C	 1.4597467421	 1.5348611941	-0.179233105	-0.346268
C	 1.3178777917	 0.198346636	-0.8977124968	 0.33052
C	 2.1885642873	-1.0168812179	-0.9243693597	-0.193294
C	 1.5080408025	-1.9565374544	-1.5987056272	-0.067546
C	 0.2696730271	-1.3649075776	-2.1823569691	-0.107582
C	-0.634123143	-0.4432850638	-1.2865995081	-0.024637
C	 0.4267570993	 0.1308449767	-2.1804389327	-0.161378
N	 0.0354384746	-0.1349374861	-0.0341310564	-0.154859
H	-0.2035732209	 1.517189493	 1.3541002755	 0.107341
H	-0.7270855948	 1.900748347	-0.3047731203	 0.099007
H	 1.6903495931	 2.4087075685	-0.7923606661	 0.103113
H	 2.1746870865	 1.4792708651	 0.6459930226	 0.1135
H	 3.0686709546	-1.1606129352	-0.3111000468	 0.101312
H	 1.7595216675	-3.0079205352	-1.6663102542	 0.101391
H	-0.2566527249	-1.8458522404	-2.9985536458	 0.086432
H	-1.7144751338	-0.4939242963	-1.3765306957	 0.091629
H	 0.4312638369	 0.7768234811	-3.0525759384	 0.086431
