14
gdb 97788	3.19652	0.77796	0.65917	2.5627	72.45	-0.2766	-0.024	0.2526	1614.1722	0.098797	-436.624808	-436.61562	-436.614675	-436.660882	31.098	
O	 0.0639790389	 1.4894881726	-0.1992203852	-0.39546
C	 0.0444693073	 0.1111343817	 0.1316256385	-0.20456
C	-1.3032969635	-0.4578546659	 0.1777793323	 0.160336
C	-2.4195738859	-0.9107165519	 0.1677592198	 0.055528
C	-3.751212958	-1.437969995	 0.1942169453	-0.167631
O	-4.3135175764	-1.9231356388	-1.0358214084	-0.212944
C	-4.0346797972	-2.8834454047	-0.0266489992	-0.095268
C	-2.9633446053	-3.8208874081	-0.2850124533	 0.314112
N	-2.1258382337	-4.5954714428	-0.4677813284	-0.317565
H	-0.3698190425	 1.5922659129	-1.0529732511	 0.293018
H	 0.6588098359	-0.4861448125	-0.5597822633	 0.135597
H	 0.5114704912	 0.0311638517	 1.1192867001	 0.151819
H	-4.4671237371	-0.9050549583	 0.8188550357	 0.13576
H	-4.9062856136	-3.3197359409	 0.4585138772	 0.147257
