18
gdb 18090	3.78773	2.17843	1.6174	0.2069	76.62	-0.2321	0.0198	0.2519	830.7791	0.157084	-310.694109	-310.687685	-310.686741	-310.725093	25.716	
C	 0.0404186292	 1.6049409019	 0.1650208301	-0.276812
C	 1.4616517918	 2.0177511191	-0.1349332718	-0.057377
C	 2.2169822174	 1.0015008798	-0.5444357452	-0.071762
C	 1.4578537256	-0.3090610491	-0.5730095378	-0.09084
C	 2.0083634865	-1.3885041193	 0.3333275887	-0.074747
C	 1.2362162288	-1.598932642	 1.3956855105	-0.056841
C	 0.0185632354	-0.7076843724	 1.4172529816	-0.269977
C	 0.06696568	 0.0549848134	 0.059703946	-0.004729
H	-0.2953054979	 1.9491442589	 1.1513801414	 0.100053
H	-0.6550330258	 2.0500612738	-0.5595972223	 0.101884
H	 1.7986570436	 3.0448321861	-0.0389076864	 0.08773
H	 3.26119954	 1.0718659404	-0.8304393484	 0.087363
H	 1.3723821732	-0.6749761343	-1.6066219396	 0.074221
H	 2.9433506343	-1.8982273502	 0.1258474697	 0.087072
H	 1.4455075489	-2.310090867	 2.1881197949	 0.088312
H	-0.9097756066	-1.2805962847	 1.5333347471	 0.100936
H	 0.0547888417	-0.0195371861	 2.2732074862	 0.103645
H	-0.7467890862	-0.2975447984	-0.5773918849	 0.07187
