17
gdb 66766	2.52554	2.28335	1.8377	1.0062	74.34	-0.2281	0.013	0.2411	831.1241	0.137836	-384.63971	-384.633407	-384.632463	-384.669798	27.414	
O	-0.0586340095	 1.3920496801	 0.0203150772	-0.484845
C	-0.010736841	 0.016355202	 0.0044291428	 0.41037
C	-1.2828114946	-0.8884458372	 0.1065106423	-0.168972
C	-0.3810973142	-1.8849517606	 0.7847745929	-0.065087
C	-0.5121175688	-1.8719926415	-0.7330278356	-0.065088
C	 0.545107656	-0.8202935866	-1.2084969822	-0.148069
C	 1.9626993401	-1.1594286824	-0.8503378418	-0.102709
C	 2.0782590483	-1.1708394267	 0.4883473884	-0.102729
C	 0.7434974037	-0.8399033395	 1.0898056463	-0.148088
H	 0.8455988718	 1.7218733388	-0.0542985289	 0.284898
H	-2.3347518735	-0.6669329643	 0.1992107723	 0.0953
H	-0.6490526236	-2.7463023747	 1.3816587987	 0.088319
H	-0.8796599463	-2.7234964407	-1.2896688403	 0.088318
H	 0.3389157439	-0.4158595042	-2.2001960851	 0.065848
H	 2.7376878432	-1.4166386706	-1.5629392182	 0.093347
H	 2.9635072354	-1.4389564852	 1.0531600942	 0.093345
H	 0.7108703491	-0.4526434267	 2.1088832068	 0.065842
