20
gdb 58846	2.52418	1.44937	1.07758	3.4177	79.22	-0.2414	0.0114	0.2528	1181.6555	0.170461	-403.151799	-403.142798	-403.141854	-403.185523	34.287	
C	-0.0421036182	 1.5656743744	 0.2086419596	-0.393127
C	 0.025641734	 0.0377013292	 0.0392050432	-0.081658
C	 0.8954189812	-0.6127380355	 1.1222361873	-0.405313
C	-1.3731144127	-0.528056989	-0.0310582789	 0.202873
C	-2.2432133897	-0.9666670042	 1.1571651856	-0.331737
C	-1.9520861668	-1.9319311809	 0.0485638999	-0.074598
N	-2.783718931	-1.6605821576	-1.1293280088	-0.345393
C	-2.3436692475	-0.3233262862	-1.1935376949	 0.37263
O	-2.6481495208	 0.5854660962	-1.914808667	-0.349781
H	 0.9592699459	 2.005856472	 0.1634372517	 0.107643
H	-0.6557297505	 2.0154793696	-0.5762530926	 0.147703
H	-0.4832873825	 1.8284775938	 1.1768388452	 0.112049
H	 0.4962798048	-0.1682601322	-0.9323440216	 0.088495
H	 0.5220982012	-0.3874907515	 2.1272902607	 0.117407
H	 0.938374795	-1.7012401116	 1.0100178547	 0.113224
H	 1.9193519692	-0.2311686123	 1.0622146301	 0.119394
H	-1.7018173876	-1.116293623	 2.0868258227	 0.124429
H	-3.2482837515	-0.572562193	 1.2803058263	 0.119888
H	-1.4343816892	-2.8760131956	 0.1547741985	 0.115736
H	-3.7633038232	-1.9170476727	-1.1939127017	 0.240137
