23
gdb 100833	3.62304	0.73126	0.64493	3.0139	83.39	-0.2479	-0.0163	0.2316	1781.761	0.201982	-425.442574	-425.431216	-425.430272	-425.4798	40.333	
C	-0.1755615899	 1.5678423621	 0.0462430511	-0.393512
C	 0.0567427288	 0.0541177864	 0.0217891205	-0.17276
C	 0.7857265025	-0.461511292	-1.2355508587	 0.022947
C	 2.2569677765	-0.0214040738	-1.2638036223	-0.408667
C	 0.6419710698	-1.9949986217	-1.34016517	 0.11502
O	-0.7261040051	-2.4043553315	-1.3176085385	-0.42585
C	 1.3354492745	-2.6074395268	-2.5676614786	-0.320139
C	 1.0348002415	-4.0880344003	-2.6730097425	 0.173992
O	 0.6380108642	-4.6375144779	-3.6671849399	-0.245351
H	 0.7609557519	 2.1345676613	 0.0469161481	 0.116127
H	-0.7578972358	 1.8923158392	-0.8238193076	 0.112432
H	-0.7321045048	 1.8595412433	 0.9422989989	 0.115751
H	 0.6314213816	-0.2451307016	 0.909530794	 0.089953
H	-0.9055866415	-0.460850782	 0.0920560281	 0.115057
H	 0.2825066506	-0.0349002788	-2.1188042839	 0.060558
H	 2.7423340221	-0.2557706095	-2.2150826332	 0.118333
H	 2.3465756544	 1.0577621273	-1.1147939156	 0.122023
H	 2.8259394166	-0.5116252323	-0.464191135	 0.115606
H	 1.0689677159	-2.4454737532	-0.4334353937	 0.092054
H	-1.1451580892	-2.0866012325	-2.1260937378	 0.283375
H	 1.0164230858	-2.1186834778	-3.4957924045	 0.111794
H	 2.423853577	-2.4926854522	-2.4838198177	 0.126552
H	 1.2245050024	-4.6602642357	-1.7358554613	 0.074706
