18
gdb 71918	2.54992	1.97228	1.40923	1.4891	75.09	-0.2255	-0.0224	0.2031	959.3419	0.148241	-401.906376	-401.898857	-401.897913	-401.93814	29.473	
C	 0.0183766956	 1.5975370329	-0.028709479	-0.500794
C	 0.0384383407	 0.0909076067	 0.0663419456	 0.186587
C	-1.2783140616	-0.7007425123	 0.3242010418	-0.219539
N	-0.6060544088	-1.6890778072	 1.2260016164	-0.13915
C	 0.124950535	-2.7142716357	 0.4136644829	-0.182228
C	 1.3108261459	-1.7512798272	 0.1327639243	-0.181652
C	 0.6444671136	-0.8182913712	 1.2015591351	-0.055304
C	 0.9260347296	-0.6979210242	-0.9140243404	 0.384201
O	 1.2997312965	-0.4697910408	-2.0299559013	-0.318325
H	 1.0302244187	 2.0144899874	-0.0114886763	 0.128139
H	-0.447079158	 1.9101639687	-0.9695768523	 0.138795
H	-0.5502051236	 2.0392223477	 0.7961703623	 0.12048
H	-1.9858820428	-0.0982002327	 0.9038135181	 0.114941
H	-1.8048510556	-1.130295926	-0.534975102	 0.111155
H	 0.4296109905	-3.5423298496	 1.0600938089	 0.120376
H	-0.4281423629	-3.1179866558	-0.4407754289	 0.113873
H	 2.3315733532	-2.1335324202	 0.131832696	 0.094255
H	 1.0979848141	-0.4729058206	 2.1285202687	 0.08419
