19
gdb 86491	2.61206	1.27439	1.01045	3.4435	76.51	-0.251	-0.0374	0.2137	1224.6561	0.156319	-423.037039	-423.027446	-423.026502	-423.072691	33.985	
C	-0.5508959657	 1.3670170702	-0.0804804789	-0.404578
C	-0.0073703419	-0.055572065	-0.0217299893	 0.048906
C	 1.2806531319	-0.3104477295	-0.8573206044	-0.302238
C	 2.1162095694	-0.4739554646	 0.4755366484	 0.133427
C	 0.7786542227	-0.4126740904	 1.27337583	-0.298729
C	 2.8523376474	-1.7886759096	 0.5495855439	 0.111591
O	 4.0275518459	-1.9178769776	 0.7800048696	-0.252982
C	 3.0514180092	 0.697424791	 0.6906237823	 0.110742
O	 2.7939139852	 1.6580643934	 1.3712173333	-0.256306
H	 0.2263764907	 2.0946852278	 0.1741935209	 0.139031
H	-0.927809421	 1.6043936761	-1.0814839617	 0.114785
H	-1.375254931	 1.4982087364	 0.6287228854	 0.119845
H	-0.806048046	-0.7661527415	-0.2526012173	 0.07715
H	 1.2585117099	-1.2290894504	-1.4507521829	 0.112799
H	 1.6097735256	 0.5075862261	-1.5043605914	 0.120394
H	 0.7900169661	 0.3559628731	 2.0482964529	 0.137643
H	 0.4992901435	-1.371228921	 1.718726615	 0.104584
H	 2.200150172	-2.6751443471	 0.3659977483	 0.079491
H	 4.0057391262	 0.6269664825	 0.1300083558	 0.104445
