17
gdb 33534	2.08663	1.66654	1.12271	2.6537	73.6	-0.2533	0.034	0.2873	1107.4537	0.134092	-421.735932	-421.727293	-421.726348	-421.76981	31.561	
C	 0.2502426364	-1.3355519693	-0.1626802007	-0.450349
C	 0.1219543254	-0.1432821805	-0.0746758407	 0.286133
C	-0.0435650971	 1.2966515136	 0.0102052384	 0.05109
C	-0.2654385873	 1.8709103825	 1.4431311649	-0.114065
O	 0.9985780274	 2.5527454313	 1.424006919	-0.265058
C	 1.2850980299	 2.1174371314	 0.0873936299	-0.102436
C	-1.0086216989	 1.7698851939	-1.0646438807	-0.005927
C	-2.4436766505	 1.940382401	-0.8265412526	-0.178328
O	-1.5652190711	 3.0703681384	-0.9045291906	-0.231824
H	 0.3685084681	-2.3888427335	-0.2305443574	 0.200093
H	-1.1030382843	 2.5721654575	 1.518557331	 0.118794
H	-0.3231000709	 1.118720508	 2.2360983815	 0.111345
H	 2.2026905543	 1.5232356499	 0.0267317219	 0.112645
H	 1.3325607332	 2.9544724529	-0.6197831846	 0.114907
H	-0.6808334518	 1.5401738122	-2.0794849051	 0.107407
H	-3.1438983102	 1.8363269869	-1.6529554934	 0.125698
H	-2.8557009426	 1.7382174638	 0.1609168992	 0.119876
