16
gdb 11766	4.65198	1.73576	1.58229	1.8939	71.12	-0.2386	0.0344	0.273	844.6848	0.131161	-346.545252	-346.538666	-346.537722	-346.575649	26.719	
C	-0.0225435376	-1.1830035856	-0.0590459265	-0.346323
C	-0.0068997501	 0.0180157416	-0.0263681036	 0.129918
C	 0.0451876478	 1.4544030667	 0.0529565347	 0.346629
C	-0.2623036791	 2.2674187217	 1.3467495274	-0.266023
C	 0.4099396713	 3.3937311942	 0.5032237181	-0.111078
C	 1.3603331403	 2.2852687873	-0.0445888413	-0.266003
C	-0.586018851	 3.4889894132	-0.6570524038	-0.072512
O	-0.8055347917	 2.0855902379	-0.9310756712	-0.322449
H	-0.0423244985	-2.2442142404	-0.0947152787	 0.185381
H	-1.3154642139	 2.3703381596	 1.6168717387	 0.107258
H	 0.3386265456	 1.9522968654	 2.2001176184	 0.111202
H	 0.7754230668	 4.3207905109	 0.9413479535	 0.079965
H	 2.1160174817	 1.9718534944	 0.6760833717	 0.111199
H	 1.7865524816	 2.4044334093	-1.043007927	 0.107257
H	-1.532632957	 3.9689477566	-0.3829185018	 0.102789
H	-0.1768611964	 3.9838672672	-1.5454621187	 0.10279
