23
gdb 100310	2.21594	1.29136	1.11322	2.831	80.91	-0.2546	0.0752	0.3298	1262.5661	0.204119	-425.405631	-425.395312	-425.394368	-425.440712	38.718	
C	 0.0144460374	 1.4585793881	 0.2819416289	-0.413645
C	 0.0443291751	-0.03798738	-0.0439520219	-0.175146
C	 0.7260633012	-0.4360716413	-1.3808546802	 0.172859
C	-0.0807359994	 0.0594113794	-2.5953696856	-0.424804
C	 2.1573048884	 0.1425801385	-1.4572321425	-0.086822
O	 2.9512064017	-0.1384116688	-0.3240633486	-0.43482
C	 0.7345141725	-1.9625161379	-1.4293363676	 0.087239
C	 1.6812567628	-2.7907788049	-2.1869483807	-0.204232
O	 1.8016541521	-2.6650080516	-0.7614930302	-0.256956
H	 1.0238948504	 1.849883097	 0.4338536742	 0.139594
H	-0.4693011374	 2.0491810997	-0.5028146361	 0.111067
H	-0.545567031	 1.6287733478	 1.2067479166	 0.113331
H	 0.5634107522	-0.5580673962	 0.7675859597	 0.113635
H	-0.9819021046	-0.4288597431	-0.0586853345	 0.085288
H	-0.1972361539	 1.1464897453	-2.577673735	 0.123864
H	 0.4153744824	-0.2071166823	-3.5347892179	 0.11453
H	-1.0833514882	-0.3816683892	-2.6110984865	 0.114812
H	 2.6429034623	-0.1962829641	-2.3878590076	 0.07778
H	 2.0922380368	 1.2330140877	-1.5298600367	 0.10565
H	 2.9257674149	-1.0991149962	-0.2127860051	 0.292792
H	-0.2429393559	-2.4093503665	-1.2337079206	 0.095703
H	 1.3731753952	-3.7759821461	-2.5329616668	 0.1218
H	 2.481575585	-2.3317663752	-2.7616556752	 0.12648
