21
gdb 69488	2.91478	1.38097	1.27424	1.0867	81.35	-0.2349	0.0837	0.3186	1115.0986	0.182744	-387.072235	-387.063909	-387.062964	-387.104324	34.224	
C	-0.1060758244	 1.4880617235	 0.048038751	-0.477641
C	 0.0296804588	-0.0159989626	-0.0153874139	 0.368063
C	-0.7152949137	-0.8631524109	 0.9882915052	-0.34922
C	 0.7954830393	-0.8181687489	 1.0208869063	-0.150804
C	 1.6107260605	-1.889582523	 0.3096860029	 0.408154
O	 2.9275655723	-2.0614568324	 0.7445384875	-0.472423
C	 0.9049296117	-3.0266326131	-0.3851574522	-0.366827
C	 1.3218630806	-1.7882770975	-1.1634476894	-0.073591
C	 0.3323671919	-0.6434327259	-1.3909476427	-0.311275
H	 0.7839933794	 1.9860962165	-0.3543278954	 0.115593
H	-0.9704466437	 1.8359434331	-0.5308664973	 0.11516
H	-0.2438275294	 1.8295418132	 1.079076402	 0.112062
H	-1.238309802	-0.33289915	 1.7788697403	 0.102736
H	-1.2232587303	-1.7673907357	 0.6717660832	 0.106996
H	 1.2895249622	-0.3379611661	 1.8586677879	 0.081084
H	 2.9100362322	-2.6312997841	 1.5211247676	 0.280823
H	 1.5084088448	-3.9102315662	-0.5672717532	 0.108608
H	-0.1424959301	-3.2342937332	-0.1968692732	 0.108409
H	 2.1261992677	-1.9206088907	-1.878373753	 0.092694
H	-0.5792431109	-0.9654194642	-1.9086696902	 0.099731
H	 0.8040402429	 0.1122868683	-2.0291204036	 0.101669
