22
gdb 120816	2.38045	0.92413	0.74269	3.4223	83.73	-0.2455	0.0276	0.2731	1616.9128	0.193359	-404.367363	-404.357079	-404.356134	-404.403827	36.812	
C	-0.0979698012	 1.4936365386	 0.2167226551	-0.379942
C	 0.1300631549	-0.0158145567	 0.1019896028	-0.163672
C	 0.5543255681	-0.6571798654	 1.429627041	-0.189191
C	 0.7661060106	-2.1513426348	 1.3214825015	 0.020234
C	 2.1002740692	-2.7223968034	 0.8988705265	-0.336169
C	 1.6124838606	-2.9156981362	 2.3114250537	 0.021135
N	 2.297982413	-2.2251181305	 3.3661852424	-0.279225
C	 1.6722824508	-1.8149540914	 4.5053389582	 0.152262
O	 0.4796342356	-1.876614772	 4.7077826033	-0.319258
H	 0.8139929987	 2.0083103802	 0.5399052026	 0.111102
H	-0.4024337486	 1.926563039	-0.7413179387	 0.109813
H	-0.8802498353	 1.7207787096	 0.9493677176	 0.11756
H	-0.7886515144	-0.49919214	-0.2557405166	 0.094548
H	 0.8945536907	-0.2187864628	-0.6592260306	 0.093681
H	 1.4759991492	-0.1813077852	 1.7860659594	 0.086389
H	-0.2049055792	-0.4623639193	 2.1970769827	 0.119987
H	-0.1080599664	-2.6999026335	 0.9792551123	 0.089187
H	 2.1371678936	-3.586759571	 0.245613064	 0.117408
H	 2.9119516717	-2.0155671051	 0.7520181281	 0.110889
H	 1.2545252033	-3.9046672558	 2.5872058464	 0.105538
H	 3.3064658508	-2.2242203917	 3.3618951551	 0.247023
H	 2.3928012144	-1.3983967626	 5.239166163	 0.070704
