20
gdb 12917	3.27663	1.54097	1.28858	1.9086	74.95	-0.2414	0.075	0.3164	1036.8873	0.177028	-348.97381	-348.965376	-348.964432	-349.006503	32.012	
C	-0.0498739296	 1.5467084954	 0.0596855589	-0.49488
C	-0.0055607748	 0.0451581124	 0.0154329586	 0.331848
C	-1.2612815226	-0.84614577	 0.0632930204	-0.283085
C	-0.5036381866	-1.8561497252	 0.9813078365	-0.227693
C	 0.7371404623	-0.9557880662	 0.9195694709	-0.128736
C	 1.1840610465	-0.7169469907	-0.5081372426	-0.077569
C	 1.1813975064	-1.7717033738	-1.5907022231	-0.089273
O	 2.2990716833	-2.6458720058	-1.482849969	-0.421354
H	 0.9433852094	 1.9692577625	 0.243727845	 0.11794
H	-0.4136499827	 1.9625508917	-0.88827828	 0.119787
H	-0.7184087087	 1.9021384887	 0.8526881285	 0.1144
H	-2.083452559	-0.3563174987	 0.5916904655	 0.100498
H	-1.6448515055	-1.2174261984	-0.8921227999	 0.096328
H	-0.9370386202	-1.9072887191	 1.9822769221	 0.103957
H	-0.3899977876	-2.8798734653	 0.6086372356	 0.093471
H	 1.3980807358	-0.7493678365	 1.7543716016	 0.081334
H	 2.0772106765	-0.0950275135	-0.5487419275	 0.087111
H	 0.2388485582	-2.3374066651	-1.5924748269	 0.087531
H	 1.2714366117	-1.3004916534	-2.5757415679	 0.107039
H	 2.3117892671	-2.9739548288	-0.5774006467	 0.281346
