20
gdb 124629	4.21632	0.88795	0.84193	2.6109	82.2	-0.186	0.0306	0.2166	1448.7181	0.172227	-399.344186	-399.33497	-399.334026	-399.378919	34.452	
C	-0.2377818987	 1.5004832474	 0.0134937946	-0.385233
C	 0.0321047369	-0.0122873881	 0.0354753337	 0.059492
C	 0.8137596678	-0.4311214109	 1.2817043947	-0.396717
N	-1.1871873097	-0.825523503	-0.0437970803	-0.405404
C	-1.9776560939	-0.7536561423	-1.1961990509	 0.250008
C	-3.3512298741	-0.9033547098	-1.2919025385	-0.154016
N	-3.6490570686	-0.8468551094	-2.6208358021	-0.175316
N	-2.5768773314	-0.6575014966	-3.3964162932	-0.226775
C	-1.5544864775	-0.6020050395	-2.5424626906	-0.064433
H	 0.6988075034	 2.0677789991	-0.0034359498	 0.111417
H	-0.8227299942	 1.779421069	-0.8671809789	 0.129493
H	-0.7988937912	 1.8043545822	 0.9055034325	 0.104772
H	 0.6353994179	-0.2702791823	-0.8435820716	 0.093258
H	 0.2419901506	-0.2079935639	 2.1914229157	 0.107872
H	 1.0217731214	-1.504055361	 1.2661846766	 0.124879
H	 1.7610783598	 0.1115926525	 1.3481429973	 0.116469
H	-1.7402162239	-0.7387700068	 0.8001835123	 0.218275
H	-4.1099179087	-1.0508783892	-0.540131405	 0.118127
H	-4.5554040547	-0.9222558822	-3.0483703928	 0.271416
H	-0.5537555912	-0.4566901651	-2.9196005536	 0.102415
