19
gdb 98435	3.0203	1.08079	0.96802	2.7987	71.64	-0.2586	-0.0346	0.224	1278.3619	0.157062	-460.150983	-460.141418	-460.140474	-460.186736	34.125	
C	-0.0671126701	 1.5755021411	-0.0173653084	-0.485401
C	-0.0271953335	 0.0475454262	 0.0087774008	 0.168358
C	 1.1438078624	-0.577774216	-0.8208132806	-0.100852
O	 1.8013737851	-1.0392354073	 0.3646131564	-0.265766
C	 0.7242530374	-0.5771180184	 1.2083814238	-0.11163
C	-1.3586090376	-0.6052925133	-0.3138413139	 0.300845
O	-1.7540701781	-1.6031701606	 0.2540452305	-0.32802
C	-2.2131844377	-0.0272271974	-1.4384951942	-0.139179
O	-3.3066888257	-0.8472570513	-1.7144676928	-0.4197
H	 0.9232348878	 1.9754130944	 0.2191730978	 0.135767
H	-0.3515058776	 1.9605063784	-1.0015193817	 0.132174
H	-0.7735351114	 1.9711550288	 0.7201372528	 0.132156
H	 0.8627847759	-1.4032050427	-1.4877779326	 0.111891
H	 1.7430717366	 0.1508812034	-1.3815765712	 0.106467
H	 1.071490857	 0.1387206336	 1.9624125002	 0.100965
H	 0.19323735	-1.4036495005	 1.6886958002	 0.129496
H	-2.5354112105	 0.9839046388	-1.1377099308	 0.120493
H	-1.5808911589	 0.107564858	-2.3319110895	 0.116959
H	-3.265680291	-1.5528315852	-1.0484401468	 0.294975
