17
gdb 17699	5.05654	2.02963	1.9799	1.65	70.85	-0.214	0.0833	0.2973	759.4809	0.143871	-326.634109	-326.62804	-326.627096	-326.663852	25.049	
C	 0.0564731761	 1.5496883019	-0.0314351614	-0.529804
C	-0.0212160764	 0.058667372	-0.0018015871	 0.339473
C	 0.4350053428	-1.0282180084	-0.9685630349	-0.141879
C	 0.9162290879	-1.0049184472	 0.490979681	-0.078894
N	-0.1172176447	-1.8026479269	 1.2193538831	-0.153906
C	-0.4262963767	-2.9523270741	 0.2873900043	-0.178752
C	-0.8237758657	-1.9045869543	-0.7693436125	-0.073612
C	-1.1265419216	-0.9418413701	 0.4288468011	-0.07029
H	 1.0428893011	 1.8791517062	-0.375640085	 0.123338
H	-0.6901996931	 1.9782530903	-0.7098254222	 0.121327
H	-0.1082502677	 1.9774488201	 0.9641157568	 0.12685
H	 1.1001538948	-0.9557298657	-1.8186718233	 0.085251
H	 1.9528337665	-0.9532154656	 0.7994200324	 0.08691
H	 0.4091324175	-3.6297883636	 0.0854718016	 0.099156
H	-1.2800364507	-3.5129266387	 0.6807291757	 0.103783
H	-1.4881167039	-2.0894744141	-1.6129383869	 0.066409
H	-2.1005647962	-0.7395995417	 0.8718241373	 0.074638
