19
gdb 43226	2.19575	1.83375	1.78978	2.8898	78.73	-0.233	-0.0029	0.2301	940.4189	0.162755	-385.930699	-385.923667	-385.922723	-385.961801	29.	
O	 0.0002733663	 0.0776603521	 0.0451231681	-0.333326
C	-0.015369445	 1.2761907917	-0.0001903234	 0.425137
C	-1.2279154285	 2.2178104161	 0.0075969064	-0.153884
C	-1.3056655069	 2.7300442064	 1.48080178	-0.216706
C	-0.0180851971	 3.4781610027	 1.8908476222	-0.192753
C	 1.2766093603	 2.7624553681	 1.446766713	-0.216707
C	 1.1729451112	 2.2479511434	-0.0240499034	-0.153883
C	 0.6162067207	 3.2998044396	-0.9613653184	-0.083392
C	-0.7226520238	 3.2829902153	-0.9437235699	-0.083393
H	-2.1569972847	 1.7239260605	-0.2849989623	 0.083444
H	-2.1740246691	 3.3860490273	 1.6055365556	 0.102297
H	-1.4679425701	 1.8609036669	 2.1300767562	 0.11398
H	-0.036499946	 4.4770032571	 1.4448742261	 0.108448
H	-0.0056315443	 3.625198903	 2.9756502715	 0.098826
H	 2.1312200703	 3.4400829554	 1.5487958678	 0.102297
H	 1.4776969871	 1.8978706809	 2.0912465928	 0.11398
H	 2.1060966907	 1.777447231	-0.3411952319	 0.083444
H	 1.2370693114	 3.9715642919	-1.5419921423	 0.101094
H	-1.3752674126	 3.9387586305	-1.5075676783	 0.101094
