21
gdb 105989	2.61828	1.55303	1.18615	0.2701	86.21	-0.2122	0.0874	0.2996	1146.7202	0.181084	-349.857048	-349.848375	-349.847431	-349.890182	33.83	
C	-0.2760535796	 1.4656492759	-0.0448649529	-0.370146
C	 0.1552018307	-0.0064741596	 0.0247476835	-0.329215
C	 0.8336059264	-0.4842573149	-1.220098796	 0.333476
C	 2.1514941839	-0.0251435658	-1.9286775204	-0.159379
C	 1.5637909888	-0.4016233458	-3.2792736839	-0.082988
C	 2.3479056877	-1.4296140889	-2.4785878896	-0.152663
C	 1.0310858978	-1.8937731679	-1.774842136	 0.278749
C	 0.6074142007	-3.221714073	-1.2383421379	-0.526541
C	 0.2493507725	-0.8592942246	-2.5846467861	-0.208128
H	 0.5856931192	 2.1199057719	-0.2137262791	 0.117776
H	-0.9810605826	 1.6280215373	-0.8663277031	 0.118052
H	-0.7578742262	 1.7808854972	 0.8859272774	 0.107987
H	 0.8223596891	-0.1511035271	 0.8862238988	 0.098134
H	-0.7233225514	-0.6375641099	 0.213556154	 0.097504
H	 2.8910949336	 0.7259649169	-1.6822838684	 0.080521
H	 1.7678666958	 0.0108372747	-4.2584916568	 0.082203
H	 3.2636759231	-1.9500087407	-2.7283903538	 0.080854
H	 1.2849893339	-3.5746982428	-0.4512927519	 0.118522
H	-0.3987001082	-3.1655067912	-0.8081698927	 0.119421
H	 0.5860826484	-3.9843053213	-2.0263151689	 0.12027
H	-0.7843438237	-0.8815996304	-2.9073580362	 0.075591
