13
gdb 599	6.09231	2.90988	2.26761	4.1979	54.41	-0.2867	0.0307	0.3174	577.6433	0.108412	-249.363949	-249.35778	-249.356836	-249.393472	22.047	
C	-0.0725933803	 1.5353359485	-0.0414057342	-0.410521
C	 0.0180586103	 0.028738119	 0.0201766218	 0.011937
C	 1.3146601492	-0.6807144774	-0.2238430529	-0.28147
C	 0.7218656286	-0.6726862788	 1.17997927	-0.164191
C	 1.3567684377	 0.0976417446	 2.2111979757	 0.282909
N	 1.8639343601	 0.7222516191	 3.0432371682	-0.341781
H	 0.8362493213	 2.0052576861	 0.3448491968	 0.14156
H	-0.2136556915	 1.8679814535	-1.0749097107	 0.125107
H	-0.9153301649	 1.9048423635	 0.551329601	 0.131933
H	-0.8734421525	-0.4947001373	-0.3139848211	 0.103491
H	 1.3153120611	-1.6293201114	-0.7480479506	 0.129297
H	 2.1996810728	-0.0743469717	-0.3809399211	 0.139484
H	 0.282613818	-1.5989520176	 1.5341686271	 0.132245
