16
gdb 84310	2.2065	1.68847	1.02119	10.4689	77.39	-0.202	-0.0522	0.1497	1127.0723	0.124182	-437.863619	-437.855438	-437.854493	-437.896478	30.227	
C	-0.0300597419	 1.5621518962	-0.013331726	-0.339292
N	 0.026732611	 0.0625696568	 0.0534315919	-0.12531
H	-0.9385675148	-0.2787608949	 0.0928122608	 0.294973
C	 0.6756747479	-0.4979202535	-1.1560152322	-0.105142
C	 1.72569399	-1.2259285958	-0.8110286623	-0.159759
C	 1.8858772225	-1.2637804564	 0.6997502204	 0.312979
O	 2.7700261207	-1.8777869338	 1.2702438764	-0.363953
C	 0.8054564249	-0.4714211152	 1.2067591247	-0.072659
C	 0.2720969285	-0.2680831057	 2.507280615	 0.070391
O	 0.7393181305	-0.6379146728	 3.5696799888	-0.308989
H	 0.9968178527	 1.9221949945	-0.0584159461	 0.185083
H	-0.5925658047	 1.866795757	-0.9004680281	 0.14407
H	-0.5180406314	 1.9309255152	 0.8877703829	 0.176763
H	 0.2486466661	-0.2152401511	-2.1070221035	 0.152449
H	 2.393073719	-1.7440293871	-1.4857697329	 0.145001
H	-0.705346721	 0.2976029868	 2.4948088902	-0.006606
