19
gdb 113156	2.58067	1.12917	0.93267	1.4868	73.19	-0.2403	-0.0183	0.222	1314.6255	0.155504	-460.158815	-460.148508	-460.147564	-460.19436	37.093	
C	-0.029593471	 1.5031478716	 0.0263088696	-0.47424
C	 0.0478410085	 0.0068190792	-0.2041799177	 0.324219
O	 1.0878207275	-0.5425767503	-0.5071560946	-0.319411
C	-1.2343824022	-0.7648525432	-0.0389695464	 0.22686
O	-2.3914140116	 0.0077735728	 0.1459584274	-0.45821
C	-1.3674944884	-2.1045948254	-0.7427395365	-0.326978
C	-1.2408157622	-2.0687788887	 0.7495152495	 0.004711
C	-0.0327002789	-2.6252910505	 1.4581553057	-0.127099
O	-0.263583897	-4.0207459356	 1.6271396422	-0.422726
H	 0.9757609501	 1.9234648854	-0.0117305301	 0.137447
H	-0.6503009066	 1.9754611862	-0.743606865	 0.131265
H	-0.5094383159	 1.7238629586	 0.9840922325	 0.151135
H	-2.7045769435	 0.2938458878	-0.7190690389	 0.286839
H	-2.3375402834	-2.3286523774	-1.1722361055	 0.116766
H	-0.5028591213	-2.4260554637	-1.3128047019	 0.140259
H	-2.1712590167	-2.1919150015	 1.2960630468	 0.113285
H	 0.8704624835	-2.4317137696	 0.8693087181	 0.124131
H	 0.0854056607	-2.1257935757	 2.4337080117	 0.085062
H	 0.5312418985	-4.4048746802	 2.0085621131	 0.286685
