19
gdb 82098	2.89984	1.30153	1.04608	2.5823	74.66	-0.255	0.0737	0.3287	1180.4815	0.158335	-422.960276	-422.951919	-422.950975	-422.993637	31.468	
C	-0.0975154667	 1.5791770771	-0.3298419944	-0.409225
C	 0.0060455294	 0.077846106	-0.0953746602	-0.035172
C	 1.0775069957	-0.6891561246	-0.8878132071	 0.021395
O	 2.3565101277	-0.209447376	-0.4515529757	-0.248247
C	 1.6980615247	-1.2099860974	 0.3377974415	 0.007958
C	 0.6825765759	-0.4781496134	 1.233734916	-0.06714
C	 1.2522159509	 0.4861335541	 2.2352613232	 0.080507
C	 0.482952513	 0.943282115	 3.4002006136	-0.183957
O	 1.5021172485	-0.0441835347	 3.5454544126	-0.240738
H	 0.8898681602	 2.0473373192	-0.3022010862	 0.134457
H	-0.5415086953	 1.7857626388	-1.3097382351	 0.115045
H	-0.7266721399	 2.0583091061	 0.4270529901	 0.117493
H	-0.9721384489	-0.3980953216	-0.2178885951	 0.080198
H	 1.024184825	-1.1050971946	-1.8875566129	 0.103106
H	 2.241065187	-2.128259077	 0.5277970937	 0.108958
H	 0.0154477263	-1.1759135941	 1.7473871059	 0.083376
H	 2.0473375012	 1.1294958805	 1.8620859071	 0.109146
H	 0.6997844146	 1.9129952639	 3.8464247484	 0.114632
H	-0.5368706793	 0.5864897528	 3.5445171647	 0.108208
