18
gdb 105657	2.0078	1.49707	1.17132	4.2059	72.4	-0.2448	0.0211	0.266	1139.2637	0.148254	-435.23765	-435.228246	-435.227301	-435.272058	34.258	
N	-0.0853067434	 1.4335965924	-0.3121308573	-0.510706
C	-0.0142370754	 0.0343021362	 0.1027036647	-0.20941
C	-1.4185636388	-0.5691687649	 0.0562051685	 0.116174
N	-2.0596102555	-0.5054929477	-1.2877424334	-0.349619
C	-2.6114322212	-1.8750822691	-1.1380864535	-0.216376
C	-1.5759615498	-2.1480350645	-0.0193616367	 0.103081
O	-0.4307794826	-2.8552677072	-0.4017431099	-0.422049
C	-2.269868838	-0.019796309	 1.1191863915	 0.276154
N	-2.9781001632	 0.3724200576	 1.9454254956	-0.346158
H	 0.8018367586	 1.8950796762	-0.1436259943	 0.236215
H	-0.2525436125	 1.4748434014	-1.3130658323	 0.234838
H	 0.6432581943	-0.5929312521	-0.5165518499	 0.082348
H	 0.3631361788	-0.0149768876	 1.1293556787	 0.123679
H	-2.7395454485	 0.2380368802	-1.4048480151	 0.239642
H	-3.6441276052	-1.916320708	-0.7709031346	 0.122504
H	-2.5239431307	-2.4996287927	-2.033516086	 0.108774
H	-1.9431829783	-2.6162739436	 0.8930038713	 0.117356
H	-0.1774562085	-2.5713234176	-1.2874003572	 0.293554
