21
gdb 57657	3.23168	1.04166	0.97548	2.6345	79.14	-0.2487	0.0258	0.2744	1302.409	0.18166	-420.406308	-420.396376	-420.395432	-420.441069	36.959	
C	 0.3555552161	 1.5218195685	 0.4870350103	-0.447686
C	 0.1489017338	 0.0395136117	 0.1278055795	 0.253466
C	 0.7001799384	-0.8518118788	 1.2578731754	-0.411786
N	-1.2928093296	-0.2289748706	-0.0685771653	-0.297701
C	-2.2652909022	-0.094456084	 0.8682915449	 0.159794
O	-2.1048672068	 0.2373899034	 2.0262615962	-0.33411
C	 0.8143745003	-0.3773891686	-1.1868252674	-0.01406
C	 0.7972077116	 0.4663755243	-2.4111273092	-0.264633
N	 2.0553838565	 0.2214877012	-1.6830773594	-0.321239
H	 1.4061409256	 1.7328528576	 0.7096681329	 0.117199
H	 0.0211907016	 2.1880822575	-0.3133648755	 0.113974
H	-0.2268019098	 1.7493722833	 1.3812883852	 0.164092
H	 0.209282233	-0.6164448562	 2.2026740525	 0.154868
H	 0.5286033943	-1.9081163233	 1.0300409295	 0.11323
H	 1.7781361235	-0.6951540692	 1.362198194	 0.117966
H	-1.589929751	-0.4497236582	-1.006380383	 0.246914
H	-3.2647924503	-0.3313435279	 0.4486023499	 0.077193
H	 0.7868287218	-1.4571184737	-1.3322456311	 0.097817
H	 0.7365491287	-0.0008869767	-3.3901370808	 0.121753
H	 0.3508368769	 1.4549885806	-2.3554488375	 0.118296
H	 2.2921204576	 1.0447311692	-1.1350049313	 0.234651
