18
gdb 85758	3.34554	1.22148	1.04948	2.1893	77.13	-0.2353	0.0394	0.2748	1163.5992	0.14762	-401.885216	-401.8769	-401.875956	-401.918009	32.357	
O	-0.056298049	 1.4394339759	 0.0635009812	-0.432822
C	 0.0040997277	 0.0232638329	 0.009812025	 0.109362
C	 0.6702176115	-0.6308414276	 1.2410916497	-0.295905
C	-0.1022306502	-1.9659245896	 1.4173845671	-0.154951
C	-0.1548902344	-2.4391613886	 2.7945576145	 0.348509
C	-0.1861224886	-2.8098123927	 3.9372755458	-0.452576
N	-1.4598260267	-1.7825764329	 0.8268645994	-0.100946
C	-2.1402767147	-0.5644859509	 1.2908121745	-0.241807
C	-1.3990560378	-0.5583976481	 0.0053415922	-0.021161
H	 0.8348345611	 1.7823537506	-0.0564776649	 0.285381
H	 0.5157047688	-0.2987966887	-0.910412034	 0.071855
H	 1.7424483744	-0.7976701198	 1.1147195169	 0.10791
H	 0.5355205953	 0.0211064227	 2.1072246686	 0.126386
H	 0.376459103	-2.7381665172	 0.802061544	 0.11273
H	-0.2191764294	-3.1483585761	 4.943210959	 0.197608
H	-3.2234712913	-0.63149414	 1.2811641319	 0.120127
H	-1.7313521322	-0.0161611775	 2.1338684621	 0.126847
H	-1.9377610676	-0.5785159723	-0.9370153131	 0.093454
