23
gdb 59060	2.01031	1.24918	1.01073	1.683	82.38	-0.2394	0.075	0.3143	1345.6375	0.201988	-425.415568	-425.404313	-425.403368	-425.451396	41.66	
C	-0.5937351133	 0.7935877861	-2.5032557959	-0.39519
C	-0.2744543297	-0.3721113476	-1.5636236855	 0.121227
O	 0.7750264571	-0.027669273	-0.6556458957	-0.435559
C	-1.5068786385	-0.8475321577	-0.820820422	-0.087457
C	-2.3969827152	-2.0047747103	-1.2757796782	-0.091111
C	-2.1687241152	-2.78822098	-2.5512903207	-0.417048
C	-1.5387815947	-2.1255643922	-0.0320984598	 0.365126
C	-0.3455609277	-3.0504585676	 0.0530841417	-0.443153
O	-2.2103166402	-1.9759236495	 1.1999376007	-0.469142
H	 0.3152982983	 1.13534238	-3.0054089354	 0.119996
H	-1.3264643952	 0.498272055	-3.2614835771	 0.116393
H	-1.0136507361	 1.6376199807	-1.9427055168	 0.106192
H	 0.1499259091	-1.1880525506	-2.1571133861	 0.079956
H	 0.4085344094	 0.5861470178	-0.0095590539	 0.276906
H	-2.0529034599	-0.0369516323	-0.3396320374	 0.08406
H	-3.4476494921	-1.8453204136	-1.0456047694	 0.08493
H	-1.1106553007	-2.965529182	-2.7580099652	 0.119791
H	-2.6570531425	-3.7678255345	-2.4977733934	 0.115976
H	-2.5872995708	-2.2610995552	-3.4162637525	 0.119508
H	 0.1774186322	-3.1515935263	-0.8997822395	 0.118562
H	 0.3682386908	-2.6715480585	 0.7890092456	 0.13626
H	-0.6629416593	-4.0543126276	 0.3629963933	 0.098374
H	-2.5930190057	-2.830204491	 1.4303613232	 0.275405
