22
gdb 59343	2.77606	1.1116	0.99547	3.3888	83.92	-0.2352	0.037	0.2722	1352.5692	0.192959	-404.386732	-404.376438	-404.375494	-404.422843	37.07	
C	 0.2038417355	 1.5765334477	-0.1256104488	-0.38687
C	 0.0153558623	 0.0610463652	 0.0161650862	 0.033731
C	 0.4840539241	-0.696974752	-1.2354570233	-0.385854
N	 0.6940618636	-0.4263387287	 1.2113788606	-0.079475
C	 0.3370601927	-1.4902849269	 2.157750477	-0.192206
C	 1.7354121586	-1.2910301315	 2.8170316664	-0.128577
C	 2.696880971	-2.4712719491	 2.8388797517	-0.401222
C	 1.9688838439	-0.2501950672	 1.6943368818	 0.406125
O	 2.8920144664	 0.4375096035	 1.3312879412	-0.393057
H	 1.2645749379	 1.8206503538	-0.2171536835	 0.156612
H	-0.3217268204	 1.9394005228	-1.0139952647	 0.110355
H	-0.1918958925	 2.1003440746	 0.7491079382	 0.115908
H	-1.050735957	-0.1469809241	 0.1730217862	 0.086626
H	 1.5465610567	-0.5080836231	-1.4159986985	 0.141033
H	 0.3409879632	-1.77587517	-1.1198130997	 0.111763
H	-0.0787791139	-0.372627102	-2.1165470127	 0.115605
H	-0.5322536664	-1.2572051047	 2.7824187566	 0.10644
H	 0.196648923	-2.4736717167	 1.6926063274	 0.105994
H	 1.6716470578	-0.8183411172	 3.8015483092	 0.099633
H	 2.7410031381	-2.9635487528	 1.8614699829	 0.120525
H	 3.7068304974	-2.1308906605	 3.0855657646	 0.13919
H	 2.3967266882	-3.2170245511	 3.5818626813	 0.11772
