16
gdb 97087	3.27933	1.07628	0.87893	1.5218	69.36	-0.2559	-0.0487	0.2072	1297.893	0.122109	-475.028932	-475.01983	-475.018886	-475.064526	30.578	
C	 0.0810143384	 1.3603327138	-0.175355538	-0.3387
N	-0.0570593641	-0.0812612094	-0.3035980013	-0.311229
C	-1.1136954231	-0.6526345958	 0.0477361657	 0.398535
C	-1.4027506776	-2.134447941	-0.0414934866	-0.184694
O	-2.6573590409	-2.2971542912	 0.6110655398	-0.258782
C	-3.2442288302	-1.0266032864	 0.7745232621	 0.112956
O	-2.2295610726	-0.0532806697	 0.595407383	-0.244588
C	-4.3263199492	-0.814172953	-0.2903900226	 0.148943
O	-5.479438164	-0.6058452578	-0.0331603516	-0.219951
H	 0.8950933039	 1.5780683495	 0.5247947233	 0.13517
H	 0.3777822466	 1.773660736	-1.1450206668	 0.133282
H	-0.8249477589	 1.8715874498	 0.1677993846	 0.12793
H	-1.4463329945	-2.4663812618	-1.0861594257	 0.139578
H	-0.6444870216	-2.7236734682	 0.4808847366	 0.150868
H	-3.6781121964	-0.9360670891	 1.7754806035	 0.12252
H	-3.9447679357	-0.8850848359	-1.3340886758	 0.088161
