21
gdb 107429	2.77279	1.39126	1.26065	1.8554	80.93	-0.25	0.0833	0.3333	1135.5633	0.183449	-387.078609	-387.070454	-387.069509	-387.111193	32.558	
C	-0.3663961406	 1.4870128003	 0.1062520479	-0.382941
C	 0.1937846694	 0.060323097	 0.0414740902	-0.292444
C	 0.7742482474	-0.3013426482	-1.3037969834	 0.427255
O	 1.7936793779	-1.3219565443	-1.2965045773	-0.307694
C	 2.1553768646	-0.0022582033	-1.7324579648	-0.024648
C	 2.2051648592	 0.1775169978	-3.2430392992	-0.260131
C	 0.7841286524	-0.1077942793	-3.7424218432	-0.04344
C	 0.171140717	-1.4664041477	-3.5255301965	-0.286402
C	-0.1092585163	-0.3570290965	-2.5392698902	-0.105407
H	 0.4105648144	 2.226268924	-0.1143664095	 0.118229
H	-1.1804651499	 1.6381423684	-0.6096983021	 0.121068
H	-0.7614549382	 1.7016601578	 1.103548088	 0.117573
H	 0.9824849087	-0.0683259072	 0.790078661	 0.109979
H	-0.5946685561	-0.6603029382	 0.2943281233	 0.105942
H	 2.8845085239	 0.5021292275	-1.1000479796	 0.086611
H	 2.4802527858	 1.2147374038	-3.4682017367	 0.102716
H	 2.9622252608	-0.4667352894	-3.7040005982	 0.113513
H	 0.4239674689	 0.4746383636	-4.5834510523	 0.083312
H	-0.6367978176	-1.7497980461	-4.1919739425	 0.102862
H	 0.8026908063	-2.2799926081	-3.1915797619	 0.134135
H	-1.1071451981	 0.0588269381	-2.4689073129	 0.079911
