20
gdb 58886	3.24829	1.31143	1.09019	2.3848	79.99	-0.2233	0.0183	0.2416	1170.4212	0.171251	-403.131569	-403.12293	-403.121985	-403.164533	33.765	
C	 0.2112622485	 1.5323714775	-0.1802366322	-0.412741
C	-0.0888683501	 0.0503808662	 0.0618800299	 0.00866
O	 0.3953133182	-0.7518604569	-1.0143828575	-0.442362
C	 0.5671438836	-0.467941606	 1.3243130639	 0.354569
N	 2.0134907683	-0.8321169096	 1.2958108292	-0.385963
C	 0.9905091802	-1.8803037623	 1.528803761	-0.099454
C	 0.7905378131	-2.2348125034	 2.9984343648	-0.272329
C	 0.2807164569	-0.9367326552	 3.5931144316	-0.073668
C	 0.1369835063	 0.0196587834	 2.6736753189	-0.140108
H	 1.2902778619	 1.6965460749	-0.2545600596	 0.134098
H	-0.2600911851	 1.8752960544	-1.1089548278	 0.103305
H	-0.178337152	 2.1529222034	 0.6320922871	 0.126127
H	-1.1789056902	-0.0810652616	 0.1642488082	 0.074446
H	 0.1115580523	-0.3474460404	-1.8394599182	 0.286666
H	 2.2731276995	-0.9023427513	 0.3111645755	 0.23232
H	 0.8427931185	-2.6249393123	 0.755930941	 0.099543
H	 0.0678240506	-3.0518078868	 3.1246569344	 0.103063
H	 1.726788495	-2.5598752296	 3.4681768093	 0.119149
H	 0.0952868934	-0.8152262736	 4.6546840541	 0.093882
H	-0.204416219	 1.030239139	 2.8651539464	 0.090797
