19
gdb 78197	3.05157	1.26527	1.06553	3.4115	80.68	-0.2213	0.0152	0.2365	1188.6193	0.158651	-382.030702	-382.021753	-382.020809	-382.064236	33.272	
C	 0.1271237256	 1.5459007952	 0.0789187605	-0.419969
C	 0.0718383139	 0.0443170728	-0.0905543856	-0.036761
C	 0.5696843553	-0.7250148899	-1.2984966387	-0.104216
C	 1.2519866921	-0.87056125	 0.0535745194	-0.006593
N	 2.4656766799	-0.181333959	-0.4332787767	-0.099823
C	 3.7404873978	-0.8337880662	-0.1979247854	-0.33656
C	 1.9084922143	-0.1611212108	-1.8230066152	-0.141841
C	 2.5561010325	-1.0760314219	-2.7633014688	 0.2822
N	 3.076750835	-1.7941392544	-3.5050655808	-0.327677
H	 1.1228922186	 1.9289490688	-0.1550088425	 0.138269
H	-0.604796945	 2.0448601033	-0.5645470586	 0.118439
H	-0.096473017	 1.8198751242	 1.1152236684	 0.119459
H	-0.8413548222	-0.4168944374	 0.2828457737	 0.096712
H	-0.0466688424	-1.412624165	-1.8609441899	 0.114689
H	 1.316236355	-1.7138690631	 0.7320004343	 0.099841
H	 3.7877495643	-1.8778148286	-0.5484193805	 0.120134
H	 4.5352057997	-0.2716538592	-0.697011179	 0.134181
H	 3.9424158019	-0.8189638271	 0.8776532729	 0.126618
H	 1.8919731007	 0.8404614683	-2.2697163674	 0.122898
