19
gdb 74650	3.76011	1.51015	1.38051	1.8495	79.36	-0.2254	0.0152	0.2406	997.3752	0.161791	-385.876838	-385.870021	-385.869077	-385.907715	28.566	
C	-0.0190840375	 1.5013218606	 0.0648431733	-0.504691
C	-0.0645676216	 0.0123791001	-0.0394447802	 0.321659
C	-0.0655608826	-0.7538752481	-1.1424800198	-0.206147
C	-0.0938428199	-2.1898577747	-0.7235821594	-0.070939
C	 1.0678743407	-2.7546470761	 0.2155516528	 0.056757
C	 1.4800753467	-1.5565950999	 1.0779684971	-0.213633
C	 0.0421321496	-0.9147213543	 1.1598386958	-0.152939
C	-0.734757188	-2.2000679204	 0.6800691607	 0.096423
O	 0.0432374594	-3.3498116993	 1.0701973043	-0.300085
H	 0.8961708824	 1.8383573621	 0.5687440465	 0.127982
H	-0.0570593185	 1.9744861395	-0.920411315	 0.124427
H	-0.8580610208	 1.8827873603	 0.6605589821	 0.127124
H	-0.0395097302	-0.4020584683	-2.1669915159	 0.091385
H	-0.4587997417	-2.9410056283	-1.4221906302	 0.075037
H	 1.8209422876	-3.4585420218	-0.1360166341	 0.079179
H	 1.8412052364	-1.9116824691	 2.0454791662	 0.10832
H	 2.2160037904	-0.8876673784	 0.6269969639	 0.0965
H	-0.2285838591	-0.4956537913	 2.1286498558	 0.063057
H	-1.8059632331	-2.2754368524	 0.870773326	 0.080584
