17
gdb 87472	3.6442	1.25218	1.12844	4.2982	73.44	-0.2471	0.0038	0.2509	1116.764	0.134719	-421.769705	-421.761853	-421.760909	-421.802033	30.203	
C	 0.0091985497	 1.5281730559	-0.101413615	-0.414477
C	-0.0219618084	 0.0331573811	 0.0720880771	-0.080202
O	 1.2579986637	-0.6586609351	-0.0447204622	-0.315907
C	 0.6055873554	-0.6571987952	 1.1902715497	 0.538081
C	 1.1597455917	-0.211925201	 2.5645238682	-0.289921
C	-0.1892603999	-0.7897676568	 3.1259878089	-0.234206
C	 0.2222648011	-1.8738804305	 2.0653647823	-0.291242
C	 1.6403208583	-1.6824788833	 2.6566358816	 0.455511
O	 2.5745500304	-2.3186688613	 3.0237798449	-0.312464
H	 0.8352759636	 1.9693971307	 0.461323773	 0.130716
H	 0.1327459549	 1.7877179575	-1.1577524312	 0.136586
H	-0.9298546111	 1.9729769493	 0.2453418348	 0.125821
H	-0.8279911219	-0.4835972252	-0.4509965334	 0.102624
H	 1.6647002172	 0.7106713147	 2.8370328117	 0.104701
H	-0.1902547209	-1.1025029707	 4.1699598565	 0.123891
H	-1.0767761287	-0.2117865267	 2.8641407445	 0.11515
H	-0.3080044252	-2.7793089336	 1.7833193784	 0.105337
