15
gdb 49262	3.01021	1.22507	0.88002	4.8018	70.73	-0.2647	-0.0735	0.1912	1222.6502	0.111986	-457.8178	-457.809676	-457.808732	-457.852282	28.512	
O	-0.0615316388	-0.0292560124	 0.0332687912	-0.261691
C	-0.0283868753	 1.1775947902	 0.0949434336	 0.099724
C	 1.2150849091	 1.9687358447	 0.0339034512	 0.196861
C	 1.1652510819	 3.3000294101	 0.1089984287	-0.156013
C	 2.3784157919	 4.1584040588	 0.0539324793	-0.112561
O	 3.6222157749	 3.4746254477	-0.0859499647	-0.229595
C	 3.757849115	 2.12476917	-0.1691304984	 0.413335
O	 4.8593847601	 1.6675003811	-0.2851100074	-0.312275
C	 2.5196342968	 1.2461682011	-0.1129231575	-0.461113
H	-0.9564406854	 1.7817353329	 0.2042596422	 0.076846
H	 0.215141413	 3.8187188694	 0.215566555	 0.120573
H	 2.3015541585	 4.8636859841	-0.7856798262	 0.144165
H	 2.4470666745	 4.7704224176	 0.9644258193	 0.144163
H	 2.6630190326	 0.5333492569	 0.7070118108	 0.168788
H	 2.5198423213	 0.6248591576	-1.0156538671	 0.168793
