11
gdb 4282	4.21417	2.04765	1.37836	7.179	54.77	-0.2563	-0.0414	0.2149	797.0906	0.073553	-430.777401	-430.770803	-430.769858	-430.808529	23.628	
N	 0.0567111807	 1.3312539613	 0.0901256717	-0.562266
C	-0.0436332199	-0.0109378594	 0.0296867657	 0.511998
N	-1.1630875512	-0.6347872572	 0.0120036711	-0.375464
C	-1.1509994206	-2.0336843378	-0.009423936	 0.388883
O	-2.1583048473	-2.6883833003	-0.0167515417	-0.323248
N	 0.1311339965	-2.6914847821	-0.0277316568	-0.281824
C	 1.162169338	-1.9681373888	-0.0160151244	 0.126704
O	 1.1934981043	-0.5961714124	 0.0153303611	-0.210608
H	 0.9441458586	 1.7749878846	-0.0698851828	 0.279479
H	-0.7918644485	 1.8606664748	-0.0154881039	 0.289441
H	 2.1746112793	-2.3624562827	-0.029513714	 0.156906
