17
gdb 93343	2.34029	1.62473	1.09716	6.0487	71.64	-0.2528	-0.0097	0.243	1108.3498	0.13637	-455.187112	-455.178641	-455.177697	-455.220621	30.696	
C	 0.2990981494	 1.6265974884	 0.0205647579	-0.394398
C	 0.0235751133	 0.1213698028	 0.0465710641	-0.010805
C	 0.6322726623	-0.6327389633	-1.1452797872	-0.107782
O	 1.9122275564	-1.0714228663	-0.6755379127	-0.252759
C	 1.9030432095	-1.1569460299	 0.6926145709	 0.47696
N	 2.8075881194	-1.6606802461	 1.4060930542	-0.54118
N	 0.7149134679	-0.5576864091	 1.1488355701	-0.129213
C	 0.2058686888	-0.5833753721	 2.4372999165	 0.156817
O	 0.7001298689	-1.1060758716	 3.3982824519	-0.26914
H	 1.3702106687	 1.820890768	-0.091058612	 0.143351
H	-0.2292809741	 2.0954501757	-0.8157683856	 0.126126
H	-0.0394708954	 2.1007567196	 0.9461325369	 0.13366
H	-1.0523067302	-0.0634448259	 0.1179468847	 0.10717
H	 0.0310052168	-1.5043373025	-1.4291098587	 0.122899
H	 0.7866465845	 0.0014145549	-2.020246781	 0.129285
H	 3.5371561847	-2.0507953246	 0.8110662669	 0.231839
H	-0.7645880511	-0.0459403781	 2.4695159432	 0.077168
