13
gdb 132630	3.12963	1.3436	0.94085	4.5336	65.28	-0.219	-0.0286	0.1904	1112.276	0.089297	-502.049389	-502.04214	-502.041196	-502.081041	27.816	
N	-0.0093625911	 1.4091063775	 0.1618402661	-0.593628
C	 0.0137441652	 0.0202780017	 0.0529307239	 0.293533
C	-1.1657311115	-0.7326652151	 0.027655351	-0.065755
N	-1.1856578175	-2.0673468963	-0.012550796	-0.304425
C	-0.0521270019	-2.7148632447	-0.0328062361	 0.203012
F	-0.0836169364	-4.0447447254	-0.0762028474	-0.061265
C	 1.1853144768	-2.0687760052	-0.0152053087	 0.136381
F	 2.3110180811	-2.7781264958	-0.0421278011	-0.05632
C	 1.2234860855	-0.6906639713	 0.0288885851	-0.282788
H	 0.7935933446	 1.8831483546	-0.2250653619	 0.253377
H	-0.8713189248	 1.8404517796	-0.1393143738	 0.254475
H	-2.1320907983	-0.234417325	 0.0434459876	 0.105814
H	 2.1830633983	-0.1857253644	 0.0491116713	 0.117588
