17
gdb 87101	2.83423	1.17102	0.99545	3.152	76.49	-0.2733	-0.0929	0.1804	1230.3904	0.133918	-418.012538	-418.002967	-418.002023	-418.047228	33.887	
C	-0.1972331458	 1.5941422015	 0.4707644062	-0.408341
C	-0.17293762	 0.0956613497	 0.3068440273	-0.006099
N	 0.8926976394	-0.5016724708	-0.4832524252	-0.35055
C	 0.8763481246	-0.792187651	 0.9592178206	 0.17898
C	 2.0057698925	-0.2524282199	 1.8092108253	-0.488018
C	 0.3287610204	-2.1379540022	 1.3043501375	 0.266482
O	-0.2763017744	-2.8428082238	 0.5261885686	-0.305946
C	 0.5427748242	-2.6023820382	 2.6891524332	 0.238627
N	 0.6996809148	-2.9702724569	 3.7741021487	-0.31494
H	 0.8089821942	 2.0154793503	 0.4907276753	 0.136251
H	-0.7288323743	 2.0442073743	-0.3744778657	 0.136707
H	-0.7220641525	 1.8797237769	 1.38784648	 0.129852
H	-1.1535814452	-0.3703833436	 0.222185506	 0.11113
H	 0.5374417981	-1.3199397831	-0.9784710563	 0.251228
H	 2.3256410128	 0.7208504992	 1.4377741791	 0.141137
H	 1.7036166543	-0.1455034528	 2.8550334927	 0.143829
H	 2.8722592767	-0.9204186094	 1.7731667067	 0.139671
