17
gdb 108895	3.16311	1.01712	0.84225	2.8786	77.3	-0.2407	0.0141	0.2548	1361.2902	0.133815	-421.778701	-421.769486	-421.768542	-421.813436	32.971	
O	 0.0050144566	 1.4275555279	 0.0796410949	-0.4107
C	 0.0258418277	 0.022912663	-0.083626879	-0.179465
C	-1.3687528329	-0.5042390316	-0.0365551983	 0.282657
C	-2.4982590365	 0.1743551471	 0.1232395014	-0.193438
C	-3.6716396346	-0.7797413424	 0.1356382799	-0.089566
O	-3.0997281712	-2.0655566933	-0.1405794173	-0.26539
C	-1.6792117365	-1.9741139884	-0.1542006843	-0.15928
C	-4.3957688002	-0.775182133	 1.4134117684	 0.341212
C	-4.9935259323	-0.7553960202	 2.4557631862	-0.477465
H	 0.9110182558	 1.7471374583	 0.0471025059	 0.292647
H	 0.4900661988	-0.2662208717	-1.0433605145	 0.101142
H	 0.6225070915	-0.4686988582	 0.7054990002	 0.102478
H	-2.6002546474	 1.2409942885	 0.257751818	 0.130278
H	-4.3900326407	-0.5517943684	-0.6670766365	 0.11317
H	-1.3009875663	-2.4161123519	-1.0884685355	 0.106866
H	-1.2461935116	-2.553779432	 0.6779857578	 0.106771
H	-5.5211736903	-0.7434344737	 3.3773095626	 0.198083
