20
gdb 63084	2.98966	1.40006	1.30104	2.0797	78.89	-0.2425	0.0307	0.2732	1086.7102	0.171814	-403.152134	-403.143642	-403.142697	-403.18479	32.773	
C	 0.1095358535	 1.5330408681	 0.0447082384	-0.466153
C	 0.0430801692	 0.019364419	-0.0198247489	 0.279415
C	-1.2129323049	-0.5741888412	 0.5920443789	-0.452159
C	 0.6392872445	-0.723460446	-1.2125433339	-0.144657
C	 1.4046280703	-0.0096563241	-2.3159028029	-0.187098
N	 2.7312399715	 0.488654326	-1.9661900457	-0.26331
C	 3.1532007491	 0.3719601643	-0.7832409087	 0.118595
O	 2.5489320783	-0.1555921249	 0.3141772926	-0.22082
C	 1.3049249041	-0.7935877428	 0.1344794691	 0.059889
H	 1.0049350028	 1.9418894503	-0.4267355232	 0.139619
H	-0.7601982154	 1.973663149	-0.4558569343	 0.117216
H	 0.0969036233	 1.8726031779	 1.0863416015	 0.120543
H	-2.1058766964	-0.2422085435	 0.0496782076	 0.119094
H	-1.1978866264	-1.6686159628	 0.5652296027	 0.11364
H	-1.3243137777	-0.2666216621	 1.6382720644	 0.119297
H	 0.1060000852	-1.6141664944	-1.5317750311	 0.087262
H	 1.5357624193	-0.7023504151	-3.1553106366	 0.119076
H	 0.8306792643	 0.8354099086	-2.7186863127	 0.115105
H	 4.1393770194	 0.7386070203	-0.5054734172	 0.123588
H	 1.277382766	-1.7078789865	 0.7176682102	 0.101857
