19
gdb 100857	1.83069	1.367	1.092	1.5147	75.06	-0.2537	-0.0241	0.2296	1234.474	0.158364	-456.367178	-456.357103	-456.356159	-456.402671	35.662	
C	 0.3137792312	 1.751487204	 0.1795536341	-0.423753
C	 0.112777719	 0.2392897197	 0.3109272712	 0.031173
C	 0.2942627904	-0.484995634	-1.034189338	-0.088134
O	 1.613766999	-0.3502217252	-1.5432686094	-0.418081
N	 0.9866505402	-0.3744934337	 1.333224619	-0.08595
C	 0.497106607	-1.4324698818	 2.098046655	 0.087349
N	-0.6788252587	-1.886515693	 1.9291054938	-0.469154
C	 2.3115030622	 0.0008541474	 1.5007180379	 0.142731
O	 3.085745337	-0.5304065165	 2.2655744736	-0.325423
H	 1.2307940159	 1.9981258718	-0.3606556875	 0.146037
H	-0.5218961466	 2.1684939787	-0.3899793566	 0.127776
H	 0.3315536161	 2.2388831724	 1.1581359959	 0.127056
H	-0.9036972188	 0.0372344154	 0.6567708825	 0.129032
H	 0.008230273	-1.5372258422	-0.9217319931	 0.118894
H	-0.3778484821	-0.0315437576	-1.7712015571	 0.113156
H	 2.1489130058	-1.063661171	-1.1845508849	 0.295821
H	 1.2399549952	-1.7833796149	 2.8153157981	 0.146619
H	-0.8591372329	-2.6419058912	 2.587521636	 0.234206
H	 2.5940302572	 0.8440970516	 0.8551933796	 0.110649
