15
gdb 7525	5.13511	1.20413	1.1437	1.4792	61.41	-0.2549	0.0206	0.2755	1032.0193	0.117062	-399.788977	-399.780705	-399.779761	-399.821747	30.265	
O	 0.1898304136	 1.2902505765	 0.122043361	-0.430252
C	 0.0450415852	-0.0884886816	 0.0890704066	 0.104463
C	-0.6166433193	-0.8294651791	 1.2386835956	-0.376795
C	-1.3325650162	-0.6643781272	-0.0862271871	 0.339648
O	-2.320297234	 0.3260570667	-0.1719123006	-0.469568
C	-1.5784708002	-1.8575304916	-0.9985215024	-0.391229
C	-2.7844288133	-2.5870246437	-0.599153313	 0.250072
N	-3.7483876098	-3.1211193257	-0.2513393034	-0.303087
H	-0.7014135731	 1.6602575523	 0.0547450769	 0.297452
H	 0.8774549173	-0.5738956372	-0.4129991685	 0.107485
H	-0.2489665263	-1.811750584	 1.5164306337	 0.122727
H	-0.9756861254	-0.2200279805	 2.0611343475	 0.125597
H	-3.0667542787	 0.0731547444	 0.3837448525	 0.305718
H	-1.7001501392	-1.512626043	-2.0314189935	 0.163717
H	-0.7225181706	-2.5397776563	-0.9758941553	 0.154053
