21
gdb 58224	2.19303	1.11345	1.08591	2.3519	74.95	-0.2497	-0.0349	0.2148	1310.1247	0.179145	-461.376089	-461.365366	-461.364422	-461.411765	38.92	
C	 0.114442689	 1.4789656598	 0.4396451182	-0.40849
C	 0.040564042	-0.041938362	 0.356116478	 0.089252
O	 0.4332274672	-0.6596278815	 1.5833357024	-0.430224
C	-1.3674358725	-0.5257427839	-0.0638796623	 0.102464
O	-1.7848917457	 0.0643031295	-1.2836256001	-0.444547
C	-1.4732561848	-2.0647568715	-0.1031069264	-0.085329
C	-2.9367980605	-2.5432995949	-0.209331642	-0.418523
C	-0.6943283533	-2.6819116746	-1.2436803878	 0.162492
O	-0.2331353084	-2.0833285519	-2.1902036959	-0.27103
H	 1.1273299901	 1.7991602732	 0.697796753	 0.119971
H	-0.1776220769	 1.9300780719	-0.5107312728	 0.139489
H	-0.5734206571	 1.8551000339	 1.209073249	 0.101548
H	 0.7651672678	-0.4010519683	-0.3835830072	 0.101417
H	-0.0303470905	-0.2074642163	 2.2971453848	 0.278725
H	-2.0755950277	-0.1639592741	 0.6965496285	 0.068984
H	-1.2269618916	-0.3321048808	-1.9688919635	 0.29477
H	-1.0364483731	-2.4639650987	 0.8207847678	 0.112873
H	-3.484561492	-2.2807192979	 0.7000044784	 0.126705
H	-3.4262452834	-2.0592633021	-1.0583559091	 0.146689
H	-3.0016943224	-3.6287257694	-0.3380073631	 0.11775
H	-0.5847186761	-3.7878733404	-1.18215277	 0.095011
