12
gdb 21332	6.53595	1.32976	1.11249	2.256	59.08	-0.2732	-0.0176	0.2556	961.1075	0.085913	-373.715897	-373.709224	-373.70828	-373.747982	23.291	
N	-0.5351451245	-0.4688504339	-1.2606729543	-0.309212
C	-0.2098880315	 0.2573060933	-0.4233636218	 0.271637
C	 0.2247067742	 1.1847034257	 0.6191171615	-0.445633
C	 1.463675366	 1.941569034	 0.2320474743	 0.310656
C	 2.2207065101	 1.8918905156	-0.9133661195	-0.140274
N	 3.2024514893	 2.7939914984	-0.6823172784	-0.157716
N	 3.0731191719	 3.3720128634	 0.5243369541	-0.105055
N	 2.0170669677	 2.854645863	 1.0804126411	-0.247842
H	-0.5919472931	 1.8833435282	 0.8358369033	 0.179199
H	 0.399507573	 0.6227017092	 1.5441053606	 0.179188
H	 2.1408351389	 1.3181007999	-1.8207258577	 0.17526
H	 3.969728048	 3.0620380734	-1.2782703331	 0.28979
