17
gdb 50210	3.9375	1.30711	1.17764	3.7027	71.13	-0.2382	-0.0208	0.2174	1049.6588	0.136912	-421.796619	-421.789571	-421.788627	-421.828573	27.496	
O	-0.0306520699	-0.0549003219	 0.084958112	-0.255183
C	 0.0138854105	 1.1492617664	 0.0776611997	 0.145319
C	 1.2891244379	 1.9614077946	 0.0189837904	-0.061784
C	 1.3125904995	 2.9528978598	-1.1885961995	-0.26784
C	 1.89646572	 4.2433575464	-0.6131388556	-0.085982
C	 1.1915712588	 4.8283394349	 0.5936351757	 0.102745
O	 0.3200640408	 3.8590669865	 1.1814301323	-0.307858
C	 1.4403983954	 2.9122444005	 1.2181599303	 0.061741
C	 2.4319290617	 4.0126935701	 0.7869899812	-0.158862
H	-0.9102660201	 1.765965974	 0.1136082857	 0.096109
H	 2.1352288949	 1.2678205311	-0.0133492533	 0.093412
H	 1.9289539025	 2.5609091776	-2.0011674121	 0.116872
H	 0.3058285109	 3.112352562	-1.5901080392	 0.116579
H	 2.4138615132	 4.9423639011	-1.2607807098	 0.096081
H	 0.9631784154	 5.8764008653	 0.7464077285	 0.109289
H	 1.5395949859	 2.4462265968	 2.1993809687	 0.095015
H	 3.4162963828	 4.2336032847	 1.1737617351	 0.104346
