17
gdb 16039	3.47701	1.76702	1.44946	1.4771	76.67	-0.2393	0.0319	0.2712	922.2676	0.141193	-326.644238	-326.636492	-326.635548	-326.675851	29.889	
C	-0.1251571146	 1.4941225335	 0.0154518412	-0.322794
N	 0.1117870741	 0.0600034751	 0.0789210056	-0.113058
C	 1.387962865	-0.5504287511	-0.1893751981	-0.099208
C	 2.5845510694	 0.2668036034	 0.3292326063	-0.244638
C	 1.9567190653	 0.2523772306	 1.7552070214	-0.29806
C	 0.7677393952	-0.5786932941	 1.208349536	 0.15299
C	 0.1057206545	-1.61570712	 1.9306296142	 0.218059
C	-0.420639577	-2.481410717	 2.5796050722	-0.389955
H	 0.7014308439	 2.1255821612	 0.3687437387	 0.107243
H	-0.3370265048	 1.7620804111	-1.0242293675	 0.127047
H	-1.0118092344	 1.725670365	 0.6127498902	 0.131731
H	 1.4310577629	-1.3441756397	-0.9278212943	 0.10337
H	 3.5178930417	-0.2975683731	 0.2843277313	 0.112339
H	 2.7446406393	 1.2407378266	-0.1420840548	 0.10499
H	 2.5535027777	-0.320099108	 2.4664955606	 0.120008
H	 1.6973013925	 1.2132219444	 2.2080451817	 0.103848
H	-0.8971904406	-3.2477407478	 3.1385943353	 0.186087
