17
gdb 67064	2.9751	1.73659	1.46001	2.7661	75.61	-0.2287	0.0017	0.2304	936.6731	0.136263	-417.873651	-417.866272	-417.865328	-417.905033	30.119	
O	 0.4222210193	 1.3175769147	-0.1745141256	-0.470133
C	 0.1868231152	-0.058250277	-0.0986066377	 0.414454
C	-0.0633141011	-0.7030198982	-1.496398675	-0.128242
C	-0.6808683643	-1.9160003554	-0.7751825506	-0.262693
C	-1.2304530152	-0.6660085418	-0.0328266872	 0.237956
C	-1.5184687672	-0.0129139863	-1.4222495434	-0.30518
N	-1.1971328688	-0.600282649	 1.432912698	-0.418463
C	 0.2455835196	-0.5697502013	 1.3831020048	 0.20167
N	 1.1685278526	-0.7186055801	 2.2269781767	-0.533859
H	 0.4647906041	 1.6773497792	 0.7178939669	 0.293695
H	 0.5881218315	-0.7123543307	-2.3729591388	 0.085393
H	-1.4056931197	-2.500436847	-1.3445475625	 0.096556
H	 0.0089453809	-2.5532149047	-0.2157990546	 0.10619
H	-1.5306796877	 1.0734085722	-1.4638476443	 0.130637
H	-2.2914667041	-0.4705604363	-2.0446637878	 0.097462
H	-1.6849621216	-1.2673904088	 2.0231781641	 0.234402
H	 0.8080230367	-0.9588320196	 3.153638677	 0.220157
