18
gdb 114153	5.19142	0.92203	0.85349	1.7866	81.82	-0.2252	0.0283	0.2534	1369.7449	0.145905	-401.854463	-401.845567	-401.844623	-401.888147	33.252	
C	 0.0100201711	 1.3173577645	-0.1598669209	-0.236685
O	-0.0373019704	 0.0121910985	 0.3721978534	-0.238617
C	-1.2601138845	-0.6246442683	 0.1610441718	 0.179979
C	-1.6175669351	-1.1920745293	-1.2682732537	-0.328777
C	-1.8015362458	-2.5690918503	-0.6070246459	 0.198495
N	-0.4586012605	-2.902231498	-0.0508242279	-0.352945
C	-1.3566131699	-2.0341064468	 0.7302716565	-0.162285
C	-2.7683999662	-3.5628244221	-0.9105357394	 0.16502
C	-3.5922354584	-4.3950689707	-1.1902499068	-0.402634
H	 0.990419957	 1.7318352291	 0.0852999969	 0.130678
H	-0.1118637021	 1.3209959428	-1.2533692116	 0.110525
H	-0.7692285468	 1.9629142198	 0.2760052722	 0.102903
H	-2.0926006961	-0.0056559727	 0.5306595677	 0.071592
H	-2.5324272372	-0.7704884897	-1.6861512597	 0.113665
H	-0.8085144091	-1.1649761292	-2.0003880399	 0.117345
H	-0.5278603903	-3.8364098535	 0.3537129534	 0.238341
H	-1.6829540416	-2.317534708	 1.7233461532	 0.104834
H	-4.3186727041	-5.1306279758	-1.4323266391	 0.188566
