17
gdb 72507	2.31418	1.89411	1.70516	2.372	71.71	-0.2472	-0.0114	0.2358	908.6772	0.137089	-421.849191	-421.841801	-421.840857	-421.880577	29.636	
O	 0.0296467525	 1.4012298354	-0.0941096445	-0.508482
C	 0.0171393628	 0.0094153307	-0.103756024	 0.302126
C	-1.3837760597	-0.6651329335	 0.0411557819	-0.253282
C	-1.0476431255	-2.1183130391	 0.5107362716	-0.221925
C	 0.5178820113	-2.1333280904	 0.6005297323	-0.181893
C	 1.0713029766	-1.9390713337	-0.7993184373	-0.091122
C	 0.7766648861	-0.6947919655	-1.2108646004	-0.131216
C	 0.7386730634	-0.684594995	 1.0733342976	 0.370146
O	 1.2880876154	-0.1719347339	 2.0044963773	-0.339423
H	 0.5465840863	 1.6656645438	 0.6803636813	 0.291269
H	-1.9610850779	-0.1186545213	 0.7925584164	 0.113534
H	-1.9378053612	-0.6390720917	-0.8989075432	 0.112931
H	-1.4872152555	-2.3320847511	 1.4892910888	 0.113091
H	-1.4013970702	-2.8769263248	-0.1901852715	 0.111981
H	 0.9485921776	-2.9322984567	 1.200275517	 0.088465
H	 1.5931663699	-2.7080376206	-1.3546044635	 0.109884
H	 1.0121239983	-0.2264515928	-2.1579019199	 0.113915
