23
gdb 84691	2.71389	1.58498	1.35048	0.2155	89.4	-0.2331	0.0276	0.2607	1090.6992	0.209866	-351.19049	-351.182696	-351.181752	-351.222278	32.454	
C	-0.1150174942	 1.5882274223	 0.0073604952	-0.406691
C	 0.0203216302	 0.0548809229	-0.0138120722	-0.010187
C	 0.666605649	-0.4265543448	-1.2938511464	-0.050389
C	 1.802074634	-1.1257426257	-1.3133229304	-0.07921
C	 2.5255037491	-1.4922998869	-0.0336867629	-0.039035
C	 1.8196829378	-2.6896862528	 0.6547418468	-0.200315
C	 0.5935663533	-2.0391340817	 1.3651353201	-0.21798
C	 0.7798738756	-0.5015204672	 1.217480597	 0.001527
C	 2.3003395057	-0.3697589609	 0.9951955666	-0.227225
H	 0.8648442642	 2.076296428	 0.0184383054	 0.118586
H	-0.6503669522	 1.9469487065	-0.878218502	 0.110163
H	-0.6696018484	 1.9195983494	 0.8918916252	 0.109019
H	-1.0020444689	-0.3524482201	 0.0193548268	 0.072461
H	 0.1614460937	-0.1725905643	-2.2238699741	 0.078022
H	 2.2169776695	-1.4763095535	-2.2551319885	 0.079838
H	 3.5815655297	-1.6950168849	-0.2317815497	 0.056398
H	 1.5299885333	-3.4670562181	-0.0568472638	 0.09421
H	 2.4934959172	-3.1508135261	 1.3853820616	 0.089747
H	-0.3539691074	-2.3675198275	 0.9280969582	 0.095719
H	 0.5677847399	-2.3227492745	 2.4215277576	 0.093298
H	 0.4382187508	 0.027593315	 2.1124936545	 0.05374
H	 2.848034883	-0.5761760532	 1.9219444271	 0.084774
H	 2.6085856151	 0.6130090981	 0.6288647578	 0.093529
