16
gdb 6526	3.30198	1.6745	1.393	3.3807	63.51	-0.2472	-0.0294	0.2178	925.8616	0.126955	-420.872193	-420.863595	-420.862651	-420.9047	32.016	
C	-0.0839655524	 1.551054099	 0.2222599658	-0.442161
C	-0.0198011923	 0.058706229	 0.0025071582	 0.313651
O	-1.226734756	-0.5327133797	-0.4100634239	-0.461611
C	 1.2500813526	-0.5956566955	-0.4674937374	-0.406471
C	 0.7831557947	-0.7817376195	 0.9818340505	 0.31799
O	 1.4932383752	-0.1383789784	 1.9822724544	-0.474341
C	 0.2755200897	-2.1120266892	 1.3878768325	 0.108798
O	 0.4968236814	-2.5409570829	 2.500725183	-0.299279
H	 0.8475204208	 1.9274578371	 0.6479240653	 0.145574
H	-0.2682853444	 2.0671304845	-0.7274239568	 0.110403
H	-0.900994552	 1.7919544939	 0.9082956042	 0.134757
H	-1.3805613707	-0.2765102168	-1.3270390141	 0.285735
H	 1.1678670161	-1.4456680453	-1.1369584632	 0.12251
H	 2.1391704683	 0.0147766119	-0.5800985981	 0.136756
H	 1.4615301862	-0.7545405409	 2.7334275905	 0.296751
H	-0.3003801473	-2.6784095271	 0.637390879	 0.11094
