20
gdb 81434	3.34258	1.42174	1.32613	1.4872	78.12	-0.2282	0.08	0.3082	1070.257	0.17164	-403.087918	-403.080054	-403.07911	-403.119655	31.951	
C	-0.0353494735	 1.5576308816	 0.0028107363	-0.431231
C	-0.0522892565	 0.0366470836	 0.0029135489	 0.028397
C	 1.1320737208	-0.6358944819	-0.7416079326	 0.050729
O	 1.9781699937	-0.3368477349	 0.4309918928	-0.31026
C	 0.732745636	-0.6311849487	 1.1615485508	-0.004154
C	 0.625312528	-2.1622336377	 0.9091238598	 0.345042
C	 1.1632579325	-3.1366086237	 1.9163232052	-0.498679
N	-0.4439742108	-2.5258958962	-0.0538916866	-0.373652
C	 0.9104889161	-2.1515719035	-0.5432221291	-0.105025
H	 0.9657585138	 1.9423018484	 0.2103939168	 0.131882
H	-0.3623986558	 1.94718231	-0.9675445889	 0.11178
H	-0.7219219102	 1.9509906846	 0.7606669761	 0.1116
H	-1.043591905	-0.3636842875	-0.2030790248	 0.103637
H	 1.5429418236	-0.2742746236	-1.6844121195	 0.073558
H	 0.7297992972	-0.2682002117	 2.1904506282	 0.068997
H	 0.497075381	-3.2308081302	 2.7818614535	 0.123983
H	 1.28616274	-4.1328815859	 1.4776563595	 0.113888
H	 2.1424074778	-2.8054984887	 2.2775906338	 0.139762
H	-0.5179475478	-3.543018494	-0.0762408913	 0.224409
H	 1.5358411191	-2.8846512801	-1.0392839888	 0.095337
