19
gdb 125951	2.84973	1.73661	1.13621	2.7986	81.7	-0.2278	0.0335	0.2613	1081.0672	0.163195	-382.115049	-382.107541	-382.106597	-382.147027	29.315	
C	-0.0209055071	 1.5651686766	 0.0676195255	-0.397044
C	 0.0409147181	 0.0431432389	 0.0444670252	 0.042301
C	 0.7446125253	-0.5747870028	-1.1944261899	-0.220965
C	 1.5011583301	-1.8397279734	-0.6858664526	-0.361378
C	 1.6637302758	-1.5417617034	 0.773608442	 0.409399
C	 2.2794637679	-1.9550935021	 1.9398875995	-0.394996
C	 1.7600357989	-1.0819063239	 2.9245651691	 0.012564
N	 0.8897838873	-0.2000758524	 2.4208821333	-0.304435
N	 0.8674521106	-0.5035733662	 1.1152883054	 0.056279
H	 0.979240177	 1.9947171705	-0.0462548182	 0.123793
H	-0.6527474397	 1.929341953	-0.7481452067	 0.117417
H	-0.4377527232	 1.9147805571	 1.0151546705	 0.147351
H	-0.9764320773	-0.3598420248	 0.1467487445	 0.094536
H	 0.0367829369	-0.7995077092	-1.9948902286	 0.110014
H	 1.4669222375	 0.1493494745	-1.5847051591	 0.115297
H	 0.9054223965	-2.7485523295	-0.8364178061	 0.122171
H	 2.4489298863	-1.989914378	-1.2096899582	 0.122199
H	 2.9942878603	-2.7511727642	 2.0691017285	 0.09939
H	 1.990737919	-1.0568996807	 3.9801015359	 0.106108
