17
gdb 24285	3.95472	1.5295	1.19726	1.6781	78.96	-0.198	0.044	0.2419	1011.2561	0.140561	-380.881586	-380.875027	-380.874083	-380.91223	27.386	
C	-0.0422158179	 1.5373679267	-0.0047768768	-0.36739
C	 1.4463455528	 1.9219328811	-0.0347277855	-0.018074
N	 2.2001934389	 1.5123502901	 1.1674681052	-0.332933
C	 2.2970287373	 0.6908146992	-0.0773594343	-0.249045
C	 1.3536734689	-0.4486758329	-0.0613479791	 0.349376
C	 1.320423593	-1.8193523099	-0.0598109918	-0.255912
N	-0.0072779772	-2.1798875478	 0.0225865213	-0.240241
C	-0.8147695656	-1.0609841489	 0.0773177223	-0.234303
C	 0.013889335	 0.0291651199	 0.0191250772	 0.251905
H	-0.5390714243	 1.9677885558	 0.871812988	 0.117037
H	-0.5545990244	 1.9254849908	-0.8941057072	 0.102271
H	 1.7430418344	 2.8339562578	-0.5429405342	 0.081037
H	 3.0334790446	 2.0948298661	 1.2359564545	 0.222853
H	 3.2424362974	 0.6588928087	-0.6080538259	 0.082502
H	 2.0952736554	-2.5676538059	-0.1022008119	 0.11752
H	-0.3430393989	-3.1267560775	 0.0236119639	 0.257282
H	-1.8867913096	-1.1599892834	 0.1384487245	 0.116114
