17
gdb 25802	4.09425	1.07991	0.86364	2.799	81.26	-0.2293	-0.0459	0.1834	1324.1343	0.136034	-418.088621	-418.079674	-418.07873	-418.12314	31.605	
C	 0.0089397729	 1.473161671	 0.0129146519	-0.477907
C	-0.0098317364	-0.0369063248	-0.0190171673	 0.315359
O	 1.0004310103	-0.7195979018	-0.0679586428	-0.348502
C	-1.3238447845	-0.6912675827	 0.0113081182	 0.242916
N	-2.5239478633	-0.135551656	 0.0639766364	-0.300375
C	-3.4020453461	-1.1786440357	 0.0710773597	-0.168318
C	-2.7378077868	-2.3930348265	 0.0222607541	 0.305513
C	-3.2339218476	-3.7984545169	 0.0087959498	-0.507555
N	-1.4146028827	-2.056113388	-0.0152110781	-0.316943
H	 1.0414183994	 1.8225130905	-0.0135073927	 0.134463
H	-0.5507766233	 1.8758611411	-0.8368774669	 0.152257
H	-0.4933981235	 1.8382483305	 0.9139867869	 0.152268
H	-4.4703899807	-1.0228893498	 0.1105833766	 0.111924
H	-2.9236480864	-4.3325993248	-0.8968250249	 0.140339
H	-2.8671031974	-4.3695006447	 0.8696717325	 0.140394
H	-4.3254722994	-3.8070252591	 0.0435742638	 0.146657
H	-0.6083653046	-2.6605637023	-0.0556297873	 0.27751
