16
gdb 108302	2.90551	1.34449	1.06223	3.3779	65.28	-0.2442	-0.0002	0.2441	1112.1952	0.124036	-474.999297	-474.991114	-474.99017	-475.032517	30.134	
O	 0.0185769516	 1.4848821228	-0.0904254788	-0.413693
C	 0.063068595	 0.071121655	 0.050384506	-0.168613
C	-1.3215007129	-0.5319727403	 0.0363244563	 0.309393
C	-2.2455811549	-0.4215868446	 1.2709217022	-0.113392
O	-2.5678167759	-1.8323453812	 1.2095664347	-0.283398
C	-1.683012865	-2.0466449872	 0.0911648918	-0.125621
C	-2.4378261644	-1.8074191146	-1.2467485072	 0.437293
O	-3.1478716115	-2.4365800559	-1.9768022776	-0.345055
N	-2.0299222665	-0.4748402538	-1.2518929111	-0.394414
H	-0.1568434936	 1.6815326387	-1.0162404078	 0.289197
H	 0.6754485245	-0.3956378408	-0.7339523241	 0.103834
H	 0.5426385816	-0.1262926266	 1.0144844489	 0.121516
H	-1.7218043361	-0.1810204947	 2.2031421886	 0.116462
H	-3.1269681184	 0.2191109497	 1.1651849449	 0.112281
H	-1.0025869198	-2.8898682412	 0.214969633	 0.10603
H	-2.5211821439	 0.3089619644	-1.66355888	 0.24818
