21
gdb 116074	2.67804	1.12418	0.83438	4.5934	79.01	-0.2559	0.0155	0.2714	1406.8597	0.183245	-424.281643	-424.272536	-424.271592	-424.315979	33.819	
C	 0.1057323666	 1.5623714019	-0.0575610298	-0.392892
C	 0.0327483423	 0.0342494592	 0.0266021309	-0.187528
C	-1.3915992073	-0.5402945457	-0.0003382267	 0.020306
C	-1.4021644428	-2.0706430956	-0.0325423354	-0.230869
C	-2.8320277878	-2.5763384898	-0.1363671381	-0.071704
O	-3.7086443273	-2.0639552514	 0.8813038484	-0.226124
C	-3.5569673317	-0.8254585552	 1.4107711674	 0.401776
O	-4.4404642307	-0.3706985812	 2.0854819661	-0.3245
C	-2.232973449	-0.0975915671	 1.204597042	-0.339504
H	 1.145763575	 1.9001772633	-0.0925295445	 0.117903
H	-0.3939091582	 1.9333182966	-0.9594773103	 0.117474
H	-0.3651371505	 2.0437545192	 0.8049879554	 0.124928
H	 0.5942698085	-0.3984899652	-0.8112690801	 0.095529
H	 0.5373845209	-0.3095266852	 0.9402438332	 0.09676
H	-1.8839794437	-0.1819856621	-0.9173676202	 0.077378
H	-0.8337741634	-2.4537536307	-0.8877430906	 0.105722
H	-0.9287609411	-2.4673481161	 0.8751830411	 0.107951
H	-3.2583098781	-2.3073394496	-1.112142137	 0.113153
H	-2.8856767584	-3.6635935158	-0.0376283105	 0.122276
H	-1.6601132918	-0.2700952713	 2.1274993252	 0.134092
H	-2.4683503416	 0.9682300218	 1.1887816734	 0.137873
