21
gdb 110998	2.37956	1.53289	1.26323	1.4948	78.26	-0.2346	0.0725	0.3072	1109.6094	0.182928	-424.205558	-424.196878	-424.195933	-424.238597	33.86	
C	-0.4343912437	 1.399526971	 0.077247775	-0.488409
C	-0.1802910444	-0.074796724	-0.050414962	 0.439804
C	 0.3931367527	-0.7912637432	-1.3017547062	-0.275545
C	-0.0857106076	-2.0477629583	-0.5096595153	-0.112015
C	 0.8372880073	-1.9381374931	 0.7097066562	-0.08551
O	 0.7054010728	-0.5313977048	 1.003591381	-0.313114
C	-1.2941210005	-1.1667385222	-0.0517791072	 0.015344
C	-2.0682287153	-1.4458320998	 1.2182482603	-0.132681
O	-3.0692744308	-0.4360965356	 1.3213836468	-0.426281
H	 0.5073888	 1.95680478	 0.0597336177	 0.120348
H	-1.064607748	 1.7491689151	-0.7450763716	 0.117529
H	-0.9516758669	 1.6130526043	 1.0165162406	 0.134975
H	-0.1877838657	-0.6101631883	-2.2075453327	 0.099607
H	 1.4638610946	-0.6803991007	-1.4917899782	 0.094356
H	-0.2099842783	-3.0276404438	-0.9696808101	 0.068363
H	 0.5185971679	-2.538458201	 1.5699212022	 0.095105
H	 1.8815654598	-2.1823723079	 0.4799380313	 0.097698
H	-1.9947100335	-1.0117208949	-0.8766052529	 0.080722
H	-2.5214394746	-2.4501598455	 1.1718660115	 0.080898
H	-1.3946295746	-1.4164701274	 2.0847871424	 0.102371
H	-3.4973652316	-0.5264575797	 2.1776385213	 0.286436
