21
gdb 53598	4.97627	0.71804	0.6771	0.3639	91.2	-0.2352	0.0652	0.3004	1734.6288	0.181882	-349.904062	-349.89448	-349.893536	-349.940971	34.697	
C	-0.0211397278	 1.4434031439	-0.1581035725	-0.49626
C	-0.008373586	-0.0026059608	 0.0145546329	 0.073427
C	 0.0147848531	-1.1979116605	 0.1613696267	 0.053175
C	 0.0003929938	-2.6482692299	 0.3259313426	-0.371662
C	-1.3796387136	-3.2638477827	 0.0469911122	 0.036676
C	-1.9535368335	-3.2328927859	-1.411363002	-0.245262
C	-2.130185186	-4.7560926221	-1.3526972306	-0.035156
C	-0.8023110558	-5.41620021	-1.1238969405	-0.275389
C	-1.513091908	-4.7939616107	 0.0486901094	-0.073488
H	 0.6625955797	 1.7573802682	-0.9548652828	 0.144552
H	-1.0214060403	 1.8054563699	-0.4213878606	 0.144389
H	 0.2839715543	 1.9584545852	 0.7598073856	 0.144634
H	 0.748481659	-3.100850222	-0.3374321847	 0.120696
H	 0.3068872936	-2.9104663966	 1.3480058902	 0.120891
H	-2.104444757	-2.8179061904	 0.7335495265	 0.081927
H	-2.8910094023	-2.6778735924	-1.4789590285	 0.103055
H	-1.2764443129	-2.8649603882	-2.1897458575	 0.097457
H	-2.984851956	-5.3044010167	-1.7294779451	 0.083217
H	-0.8103272895	-6.5015804379	-1.1346073686	 0.10923
H	 0.1065915641	-4.9803475861	-1.5328793213	 0.103692
H	-1.8059121088	-5.3889666345	 0.9060749288	 0.0802
