19
gdb 111614	2.89121	1.44106	1.3736	2.5209	74.48	-0.2401	0.0755	0.3155	1050.5383	0.159483	-422.976783	-422.968824	-422.96788	-423.009494	30.426	
C	-0.2837260412	 1.2074926873	 0.1019313986	-0.233962
O	 0.5134204167	 0.0772322313	-0.1869064725	-0.218118
C	 0.905137517	-0.5955695031	 0.957925295	 0.135245
C	 0.0754431808	-1.6590406882	 1.6377661281	-0.119193
C	-1.0684323386	-2.3689045574	 0.8967289274	-0.261818
C	-0.4232860286	-3.2003955951	-0.2082208843	 0.037241
O	 0.1938366767	-2.4378353791	-1.2457121248	-0.236627
C	 1.0290069551	-2.957513689	-0.206316828	 0.043332
C	 1.3896244387	-2.0192164043	 0.9227627376	-0.149049
H	 0.2590868637	 1.9380854435	 0.7225359885	 0.102139
H	-0.5367407218	 1.6726415401	-0.8532154332	 0.130342
H	-1.2101238834	 0.9330868021	 0.6266506393	 0.107557
H	 1.4570978081	 0.0407675641	 1.6569035672	 0.080156
H	 0.0191694987	-1.6277417309	 2.7212531325	 0.08487
H	-1.597098539	-3.0299545798	 1.5914579154	 0.104653
H	-1.8055712337	-1.6738209723	 0.4808037414	 0.120203
H	-0.8839106589	-4.1326380603	-0.5296789573	 0.09182
H	 1.7604120774	-3.6960816088	-0.5242522941	 0.094151
H	 2.2947665722	-2.2565173804	 1.4712345732	 0.087058
