22
gdb 78810	1.8286	1.73901	1.70947	1.8451	84.96	-0.2294	0.0771	0.3065	1065.7635	0.193253	-367.154513	-367.145306	-367.144361	-367.188186	35.325	
C	-0.3141413185	 1.5928736644	 0.2479256607	-0.440393
C	-0.0505691845	 0.0893512686	 0.2697983052	 0.00282
C	 0.7966355006	-0.6511861156	-0.7670936943	-0.072647
C	 1.1290983251	-1.7181506216	 0.199520878	-0.095482
N	 2.2237165494	-0.8449033916	-0.2919877758	-0.16661
C	 2.2912813607	-0.2121042476	 1.0673371025	 0.068278
C	 2.8371567241	 1.2053463883	 1.1705132204	-0.43179
C	 0.8259192831	-0.6501827607	 1.336631783	 0.238096
C	 0.3075045068	-0.8906335302	 2.7310104614	-0.51387
H	 0.5723599763	 2.1921841226	 0.0428874346	 0.122587
H	-1.0525875318	 1.8275188991	-0.5268605057	 0.115478
H	-0.7328399909	 1.9281638497	 1.2038249625	 0.114902
H	-1.0239479815	-0.4188245139	 0.2848653913	 0.077459
H	 0.650506328	-0.725550536	-1.8371987316	 0.091051
H	 1.1306567588	-2.7995794517	 0.1511459902	 0.090996
H	 2.9380966333	-0.872128064	 1.6598428512	 0.076593
H	 2.4519608311	 1.8628322146	 0.3910184553	 0.128521
H	 2.5990050791	 1.6476840169	 2.1442535443	 0.113573
H	 3.9272772932	 1.1871534075	 1.071495835	 0.122316
H	 0.2008168576	 0.0535534896	 3.2785027938	 0.121558
H	-0.6748870265	-1.3751571816	 2.7165492762	 0.118355
H	 0.9880861166	-1.529511507	 3.3047410516	 0.118209
