15
gdb 37902	3.23856	2.20068	1.75339	0.7782	62.55	-0.2459	0.0469	0.2928	779.0191	0.114595	-457.661005	-457.655439	-457.654495	-457.690662	23.863	
C	-0.0518778046	 1.4696684576	 0.038320852	-0.185151
O	 1.3531962498	 1.876384161	-0.0181664013	-0.285156
C	 2.195385243	 0.7195778514	-0.1402598561	 0.179698
O	 2.2216960567	-0.0065811576	 1.0951306169	-0.263466
C	 1.0337905147	-0.757057989	 0.9428266148	 0.056702
C	 0.9983113345	-1.5687609333	-0.3781149191	-0.035148
O	-0.4741588783	-1.2623474865	-0.5159942521	-0.380228
C	 0.1510535408	-0.0169448024	-0.0926645087	 0.35758
C	 1.3760096909	-0.2131071243	-1.0240175935	-0.109215
H	-0.4752612025	 1.7930758507	 0.9936369427	 0.125234
H	-0.6052459766	 1.9274534021	-0.788392419	 0.124641
H	 3.1927459597	 1.0692157344	-0.395222529	 0.102216
H	 0.638139377	-1.1546382716	 1.8736549713	 0.106787
H	 1.2964564884	-2.5859242315	-0.6283434679	 0.103173
H	 1.2646674765	-0.0318035011	-2.089460421	 0.102335
