17
gdb 63454	1.86689	1.79255	1.09067	2.264	82.59	-0.2344	0.0296	0.264	1143.0026	0.130564	-384.603639	-384.593621	-384.592677	-384.637743	37.629	
C	-0.0899437108	 1.5568000145	-0.009423781	-0.447953
C	-0.0094532819	 0.0485247086	-0.0128334535	 0.360031
O	-1.173747419	-0.5890463574	-0.4475507284	-0.448329
C	 1.2891189272	-0.6522636557	-0.2576965778	-0.376768
C	 0.6748977703	-0.6850991148	 1.1625437656	-0.07763
C	 1.3166140792	 0.0994916518	 2.1875566866	 0.276169
C	 1.8566443126	 0.7502893945	 3.0422538005	-0.447434
C	 0.1043947855	-1.9291613808	 1.6120321441	 0.298864
C	-0.3491918768	-2.9666667476	 2.0136015222	-0.457468
H	 0.8037834691	 2.0067167115	 0.4263258233	 0.135477
H	-0.1967711027	 1.9264648272	-1.0362555557	 0.110416
H	-0.9618510089	 1.8838714251	 0.5641080633	 0.137548
H	-1.2173180082	-0.5027079421	-1.4064902933	 0.286662
H	 1.2576993919	-1.5937195746	-0.7929721124	 0.134148
H	 2.1926274239	-0.0653687406	-0.3760973582	 0.130569
H	 2.3266490711	 1.3176704064	 3.8067566587	 0.194032
H	-0.7636476724	-3.8781741059	 2.3660816061	 0.191666
