20
gdb 80601	2.78091	1.48022	1.26273	3.4422	78.84	-0.2065	-0.0063	0.2002	1086.0976	0.171205	-403.128136	-403.119763	-403.118818	-403.160706	32.726	
C	-0.0775755653	 1.5610972126	-0.1227622886	-0.420402
C	 0.082918024	 0.0434819932	-0.0381900644	 0.048495
C	 0.91295489	-0.5740318115	-1.1998365123	-0.170099
C	 2.3830718158	-0.3180716992	-0.7154677689	-0.266239
C	 1.946724735	-1.2380231204	 0.4769756407	-0.123322
N	 0.8527532319	-0.5039572772	 1.1378954778	-0.08148
C	 1.2780774849	 0.41469004	 2.1795032918	-0.325271
C	 1.1507953507	-1.9807366674	-0.6191126841	 0.460275
O	 0.9561489142	-3.1086121143	-0.9550399853	-0.324663
H	 0.8773505347	 2.0877854215	-0.1985065043	 0.120767
H	-0.6688371656	 1.8084987372	-1.0101749685	 0.1216
H	-0.6134720543	 1.9540758587	 0.7458284858	 0.125459
H	-0.9226796282	-0.3972110899	-0.0316623397	 0.091014
H	 0.5696439678	-0.3969636273	-2.2172186412	 0.08567
H	 3.1335219277	-0.7672148568	-1.3690304723	 0.119432
H	 2.6531725181	 0.7090065544	-0.4669062555	 0.110929
H	 2.6400574164	-1.7255769315	 1.158901124	 0.086936
H	 1.9743220908	 1.2073265027	 1.8541685966	 0.093085
H	 0.4055269321	 0.8961106672	 2.6298061435	 0.124402
H	 1.7742399394	-0.1591285917	 2.968866475	 0.123414
