16
gdb 53590	4.80342	0.6722	0.6271	3.8936	79.38	-0.258	-0.0067	0.2513	1753.6673	0.121744	-400.711948	-400.702214	-400.70127	-400.749413	32.685	
C	-0.0360216248	 1.42868562	-0.280763362	-0.497293
C	-0.0223770611	 0.0029386692	 0.0123420254	 0.108589
C	 0.0009932133	-1.1765412415	 0.2497914398	 0.035435
C	-0.0012424914	-2.6074625098	 0.5343714288	-0.398919
C	-1.3614839979	-3.232462843	 0.2861227032	 0.083917
O	-1.6784705821	-3.613175244	-1.04783046	-0.220611
C	-1.5296301173	-4.6558099541	-0.08209302	-0.107933
C	-0.3872840797	-5.5313003749	-0.2370339769	 0.304712
N	 0.5136793437	-6.2481572203	-0.3395928303	-0.325981
H	 0.8535994926	 1.7240442244	-0.8475398801	 0.153145
H	-0.913728682	 1.7015562906	-0.8766743562	 0.152247
H	-0.0585874728	 2.0253900244	 0.6376053809	 0.149242
H	 0.7457427324	-3.1269288936	-0.0763973676	 0.158129
H	 0.2718583477	-2.7857341584	 1.5834986522	 0.142678
H	-2.1894682372	-2.7718645824	 0.8254185624	 0.11968
H	-2.4486654436	-5.1696604167	 0.1936149603	 0.142962
