19
gdb 41327	2.97303	1.9149	1.74947	1.3509	78.95	-0.2366	0.0089	0.2455	885.5612	0.162365	-385.845232	-385.838878	-385.837934	-385.875354	27.968	
C	-0.0204286532	 1.5563726492	 0.2429498447	-0.279707
C	 1.5182120099	 1.4947991739	-0.1170787028	-0.318315
C	 1.182149149	 0.2164130252	-0.9058164617	 0.428354
O	 0.5887943195	 0.6837081833	-2.1678980204	-0.313103
C	-0.6464271976	-0.0131539828	-2.3291517844	-0.077331
C	-0.7078234831	-0.9271720681	-1.0773937617	-0.163507
C	 0.484377696	-1.8886916635	-1.2556872717	-0.072495
C	 1.6380752926	-1.1993649949	-1.1648835437	-0.203419
C	-0.0516350687	 0.0157101368	-0.0363716176	 0.022933
H	-0.2758811969	 1.8578208778	 1.2603417347	 0.095422
H	-0.5791456587	 2.1639602751	-0.468248759	 0.121042
H	 1.9476301763	 2.3214133625	-0.6849993056	 0.110135
H	 2.12759376	 1.2930453569	 0.767481414	 0.106138
H	-1.4786313715	 0.7035805698	-2.3472781696	 0.094659
H	-0.6477273755	-0.5789574167	-3.2683519574	 0.097103
H	-1.6777653901	-1.3864151244	-0.8855007525	 0.065424
H	 0.3731954018	-2.9266739448	-1.5457042127	 0.097819
H	 2.6391177884	-1.5618163391	-1.3589107094	 0.104099
H	 0.179879902	-0.5259380962	 0.8816480868	 0.084747
