17
gdb 81308	2.27856	1.79199	1.60156	2.365	66.8	-0.2278	-0.0198	0.2081	935.2993	0.136687	-458.965461	-458.957813	-458.956869	-458.997605	29.523	
O	-0.0613890443	 1.4891003229	 0.0184554566	-0.418412
C	 0.0045781768	 0.0924950203	-0.0337860125	 0.098324
C	-1.3530529208	-0.6356022463	-0.0937739049	 0.065015
C	-2.3909319291	 0.1630368333	-0.8854501958	-0.23386
C	-1.9113127999	 0.3331128868	-2.3521717375	-0.304671
C	-0.3947092981	 0.2373567871	-2.4800590209	 0.411703
O	 0.2647104514	 0.7986332988	-3.3201599732	-0.32118
C	 0.2180630243	-0.638137034	-1.3921677896	-0.079447
O	-0.744273945	-1.6370147691	-0.967370368	-0.298006
H	 0.8279096741	 1.8510900015	-0.0518275273	 0.29937
H	 0.6550140294	-0.3326857826	 0.7395694641	 0.092893
H	-1.7486260229	-1.0752460335	 0.8246867572	 0.086653
H	-3.3549069716	-0.3523621813	-0.8611639291	 0.108066
H	-2.5237203167	 1.13779819	-0.4071498674	 0.130271
H	-2.3125913922	-0.4876380899	-2.9588097617	 0.141494
H	-2.2503647609	 1.2661749895	-2.8060405351	 0.126692
H	 1.1921035454	-1.0476480135	-1.6658310548	 0.095094
