16
gdb 82688	2.85238	1.59255	1.24184	5.1237	74.13	-0.2717	0.0208	0.2925	1006.0775	0.125322	-400.712661	-400.705208	-400.704264	-400.744488	28.875	
O	-0.040175474	 1.4804324073	 0.1400145692	-0.428057
C	-0.0230044456	 0.0796947626	 0.0890992882	 0.072203
C	 0.2188531109	-0.7341099507	 1.3965784416	-0.137516
C	-0.8284018138	-0.1583807162	 2.3880699157	-0.230116
C	-1.8782995618	-0.7965257638	 1.4802394362	-0.108119
C	-0.87959725	-1.7498452162	 0.8948513195	-0.123934
C	-1.3871680081	-0.5952144693	 0.0264436723	 0.227901
C	-2.2730366265	-0.6612225975	-1.0856403199	 0.159829
N	-2.9823205419	-0.713192513	-1.9992007515	-0.353209
H	 0.8387359897	 1.8123570707	-0.0667388363	 0.291263
H	 0.6107110573	-0.2958156395	-0.7237290662	 0.088836
H	 1.2279682704	-0.9842460537	 1.7141495293	 0.081568
H	-0.7898989451	-0.6715152155	 3.3519797052	 0.109126
H	-0.8387531695	 0.9254320631	 2.5250645179	 0.11884
H	-2.9320967207	-0.9619224874	 1.6604631313	 0.113051
H	-0.8949670712	-2.8084929608	 0.6866602375	 0.118334
