21
gdb 103998	2.57946	1.32979	1.20221	2.2281	78.06	-0.2227	0.0595	0.2822	1170.8291	0.180621	-424.198881	-424.189384	-424.188439	-424.232577	36.861	
C	 0.0645542281	 1.5859594179	-0.0202113484	-0.406825
C	 0.0475953911	 0.0564390042	 0.0881334681	-0.228297
C	-1.3471838718	-0.5562906219	-0.0119642796	 0.323596
O	-2.1916253475	-0.1045964234	 1.0482549877	-0.504967
C	-2.1042738456	-0.5443171312	-1.3906870086	-0.287858
C	-2.3092992701	-2.0601192737	-1.2835918597	-0.139405
C	-0.9573464999	-2.7424411241	-1.204904212	-0.338965
C	-1.490194579	-2.0841986878	 0.0169695865	 0.416589
O	-1.6352378826	-2.7795771762	 1.194543781	-0.466008
H	 1.0881437163	 1.9695553659	 0.0189028357	 0.121854
H	-0.3812148884	 1.9286375228	-0.9607842069	 0.12035
H	-0.4820514196	 2.0560603391	 0.8052693338	 0.109392
H	 0.674831116	-0.3703037244	-0.7025141885	 0.098274
H	 0.4868649121	-0.2538879379	 1.0436591888	 0.108709
H	-2.327912969	 0.8429867547	 0.9541243137	 0.282487
H	-3.0309745141	 0.0300087469	-1.3222421444	 0.098113
H	-1.5290513683	-0.2005673484	-2.2582703972	 0.087908
H	-3.203350163	-2.6026274268	-1.5634811553	 0.087406
H	-1.0038099071	-3.8260629289	-1.1571656556	 0.121918
H	-0.097823827	-2.3569346388	-1.7509369475	 0.100593
H	-2.2027832803	-2.2327890279	 1.7540771483	 0.295135
