18
gdb 64001	3.10734	1.15088	1.0334	3.4652	74.83	-0.2611	-0.0698	0.1914	1227.3234	0.145897	-439.120918	-439.111914	-439.11097	-439.155142	32.792	
C	-0.0343322698	 1.6325337765	-0.2195379764	-0.426081
C	 0.1034194716	 0.1260295082	-0.0288666652	 0.346975
C	-1.2017511134	-0.5289363572	 0.4098294428	-0.426067
C	 0.7732555613	-0.589752977	-1.2445590363	-0.228509
N	 2.0413939187	-1.1287421096	-0.7417374837	-0.293405
C	 2.0927310962	-0.7979802073	 0.4892206083	 0.305036
O	 1.0887207572	-0.0948449052	 1.0403158847	-0.267368
C	 3.2516575353	-1.1732257307	 1.35155994	 0.101602
O	 3.3498993243	-0.8875349078	 2.5158956056	-0.239251
H	 0.9277576925	 2.0764095765	-0.4908523023	 0.128683
H	-0.7497593662	 1.8466907584	-1.0202029084	 0.12307
H	-0.389348074	 2.110101765	 0.6977771374	 0.133291
H	-1.965073971	-0.4029354217	-0.3649146865	 0.123066
H	-1.0578632607	-1.599849371	 0.5792324608	 0.128682
H	-1.57125222	-0.0787966032	 1.3352570747	 0.133297
H	 0.1569410786	-1.4057756992	-1.6388995912	 0.122512
H	 0.9689860612	 0.0967938407	-2.0761858687	 0.122509
H	 4.0163949583	-1.7485355153	 0.7947370144	 0.111958
