22
gdb 10220	3.1938	1.05181	0.84093	1.1768	75.	-0.2443	0.0774	0.3217	1415.1435	0.197508	-387.32957	-387.31884	-387.317896	-387.365983	37.074	
C	 0.5775976373	 1.1212680661	 0.3207875347	-0.392339
C	 0.1215396282	-0.3310209998	 0.1675971197	-0.166263
C	-1.4016092086	-0.4954895656	 0.1091212179	 0.115516
C	-1.8088439864	-1.9610531584	-0.0778426801	-0.197857
C	-3.315176308	-2.1704982766	-0.2354453238	-0.0705
O	-3.6588570944	-3.5323753282	-0.4474402232	-0.420236
O	-1.9735507994	-0.0046855069	 1.3265419476	-0.253669
C	-2.8698452232	 1.0737322357	 1.1812229061	-0.237515
H	 1.6684661935	 1.1872695062	 0.3750281181	 0.111785
H	 0.2507858766	 1.7348770261	-0.5266503704	 0.108519
H	 0.168542139	 1.5596985007	 1.2351898937	 0.129085
H	 0.55281458	-0.7674268845	-0.741774656	 0.093253
H	 0.4954285966	-0.9265167735	 1.009887393	 0.102343
H	-1.7901156567	 0.0957914756	-0.7355498038	 0.065241
H	-1.3015953959	-2.374249014	-0.9575066485	 0.101057
H	-1.4545518301	-2.5277479709	 0.7945309998	 0.092265
H	-3.840936662	-1.7564284863	 0.6368225209	 0.09916
H	-3.6787469577	-1.6367801308	-1.1213646776	 0.104155
H	-3.4160673824	-4.020397742	 0.3458279136	 0.279843
H	-2.3903616113	 1.9558505856	 0.7321024616	 0.106548
H	-3.7451165476	 0.808361509	 0.5689648469	 0.105008
H	-3.2170010174	 1.3397912126	 2.1836648199	 0.124602
