19
gdb 92805	2.9132	1.70395	1.36101	0.8796	81.46	-0.2204	0.0219	0.2423	996.3143	0.160668	-385.838707	-385.831305	-385.830361	-385.870154	30.363	
O	-0.1218938981	 1.5129212286	 0.1034436028	-0.429014
C	 0.0202572117	 0.1023974733	 0.0289242128	 0.070849
C	 0.5065830015	-0.5147763752	 1.3923051773	-0.276063
C	-0.7801574869	-0.7376092051	 2.1905964207	-0.242714
C	-1.7988895127	-0.7342731989	 1.3384274837	 0.332374
C	-3.2281401232	-0.382492857	 1.034052091	-0.19524
C	-3.2116165759	 1.0737385003	 0.6047822741	-0.259888
C	-2.777819658	 0.0424821586	-0.391633225	-0.087827
C	-1.3720871797	-0.540898699	-0.0912077146	-0.028851
H	 0.7324234222	 1.8838747064	 0.3456496163	 0.28026
H	 0.6984047201	-0.1690726578	-0.7933755908	 0.056148
H	 1.0650652558	-1.445906046	 1.2162221806	 0.101321
H	 1.1986131956	 0.1680935826	 1.9029195578	 0.089876
H	-0.8019757895	-0.8051756963	 3.2716646661	 0.090867
H	-4.1345972514	-0.8791624928	 1.3550520841	 0.093001
H	-4.1937641368	 1.4985951956	 0.4177313079	 0.106809
H	-2.4900892244	 1.7575897899	 1.0356309354	 0.133138
H	-3.3076951168	-0.1021396187	-1.3250372915	 0.08448
H	-1.2833041734	-1.5093347284	-0.6015705387	 0.080475
