16
gdb 133788	3.02772	0.93173	0.82373	2.155	60.55	-0.242	0.0066	0.2486	1398.7837	0.120117	-565.582085	-565.572564	-565.571619	-565.617878	33.287	
C	-0.0876130482	 1.5353438918	-0.0284314106	-0.405393
C	 0.0059983018	 0.0171119339	 0.0741279942	-0.103959
N	-1.3213843615	-0.5808579483	 0.054628228	-0.32035
C	-1.4827570092	-1.930123466	-0.026001512	 0.226894
N	-0.5170820819	-2.744706724	-0.2012712003	-0.533567
C	-2.9548545191	-2.3560144308	 0.0281908685	 0.235879
F	-3.0711671726	-3.6508541073	 0.3261387432	-0.064148
F	-3.6335871562	-1.6540822307	 0.9565521402	-0.085831
F	-3.5636119102	-2.1487815363	-1.1460496415	-0.065172
H	 0.912183817	 1.9770060609	-0.0147987937	 0.1301
H	-0.584867929	 1.8379158199	-0.9548802829	 0.131156
H	-0.6470388056	 1.9582223171	 0.8141435358	 0.118701
H	 0.5686680762	-0.4005141338	-0.7656925016	 0.139278
H	 0.5478836067	-0.2786290225	 0.9837803538	 0.114887
H	-2.0728590209	-0.0577858779	 0.4751430501	 0.251434
H	-0.8641026174	-3.6979630161	-0.2790358313	 0.230093
