18
gdb 98999	4.4525	0.73296	0.66969	2.6966	70.84	-0.266	-0.0406	0.2254	1666.2226	0.145087	-476.239971	-476.229929	-476.228985	-476.276614	34.766	
C	-0.6336961677	 1.3963934353	-1.1851191393	-0.227769
O	-0.7028738433	-0.0293962269	-1.0977838004	-0.234683
C	-1.4904256458	-0.5198961166	-0.1187752716	 0.406427
N	-2.1433713601	 0.2273167297	 0.6636247067	-0.525477
C	-1.4074990349	-2.0429091341	-0.1380207234	-0.413666
C	-2.6780519487	-2.7434129854	 0.3006093635	 0.357982
O	-3.2955926927	-2.4345254933	 1.2994861772	-0.323508
C	-3.1781374627	-3.891470741	-0.5571287063	-0.128597
O	-4.3109135283	-4.4917325267	-0.0133215297	-0.416189
H	 0.0469642966	 1.6081480841	-2.0105362623	 0.127199
H	-1.6225620891	 1.8191923201	-1.3813798217	 0.140642
H	-0.2557912862	 1.8228078443	-0.25207155	 0.140043
H	-2.6751899417	-0.3327003646	 1.3279024804	 0.248223
H	-1.0995629097	-2.3784125491	-1.1311221849	 0.137885
H	-0.615265487	-2.3468736829	 0.5593523865	 0.167806
H	-3.3721306445	-3.4860774526	-1.5665632319	 0.124229
H	-2.3559999135	-4.6173952086	-0.676438224	 0.122264
H	-4.525815361	-3.9680112718	 0.7748263913	 0.297189
