19
gdb 73803	2.52932	1.34153	1.00984	2.1193	84.93	-0.2327	0.0184	0.2512	1238.9881	0.156615	-385.868978	-385.859261	-385.858317	-385.903663	35.255	
C	 0.0707245594	 1.5636919754	-0.0886752001	-0.497621
C	 0.0253604294	 0.0698414772	-0.0686002468	 0.179138
C	-1.0193657527	-0.7475805461	 0.0710470177	 0.204165
C	-2.4702762016	-0.4440734575	 0.2500965289	-0.501723
C	-0.5258696964	-2.187020848	 0.0426142176	-0.129387
O	 0.8740343995	-2.1060679569	-0.2258852999	-0.264329
C	 1.2855179093	-0.7436513961	-0.2049169724	-0.153535
C	-0.7932391354	-2.8989343556	 1.3003400487	 0.342311
C	-1.0314699544	-3.473692341	 2.3289521543	-0.481444
H	 0.7164974071	 1.9468808355	 0.7115594493	 0.132343
H	 0.489910245	 1.9337012899	-1.0328438726	 0.130697
H	-0.9189942337	 2.0084523146	 0.0369217914	 0.129099
H	-3.0667196533	-0.8667786376	-0.5687311411	 0.128798
H	-2.8474712765	-0.8903422346	 1.1775841927	 0.143485
H	-2.6625967474	 0.6307265861	 0.2845809988	 0.125734
H	-1.0005227274	-2.7526970652	-0.7760725015	 0.106508
H	 1.8323579248	-0.5191283817	-1.1336485722	 0.104022
H	 1.9822208056	-0.5644485188	 0.6312394382	 0.103751
H	-1.2318097113	-3.9880855096	 3.236275639	 0.19799
