20
gdb 80439	2.26534	1.68147	1.22818	2.0713	79.5	-0.2363	-0.024	0.2122	1094.5732	0.168948	-403.108094	-403.098979	-403.098035	-403.141658	34.302	
C	-0.188646963	 1.4619054115	-0.2188940537	-0.336928
N	 0.0840185998	 0.053002117	 0.0308751734	-0.073134
C	 1.3703958691	-0.5683375858	-0.147359998	-0.036194
C	 2.5558165778	 0.2976991291	 0.3316114114	-0.32022
C	 1.9339572204	 0.314717249	 1.7585779059	 0.216707
C	 2.7072491501	-0.5436139188	 2.7701284075	-0.451344
C	 1.6389830831	 1.6455748428	 2.4039180726	 0.110324
O	 2.0748915115	 2.7114406675	 2.046919087	-0.25822
C	 0.7048002006	-0.4835477646	 1.2112374326	-0.11258
H	 0.6433863161	 2.1447565747	-0.0143513663	 0.138481
H	-0.4733484266	 1.5730549658	-1.2698370962	 0.12342
H	-1.0422522124	 1.7665967284	 0.3945594832	 0.124194
H	 1.4483873718	-1.4185634327	-0.8167464633	 0.096554
H	 3.509181979	-0.2336921824	 0.2997211913	 0.107577
H	 2.6802352398	 1.2711193729	-0.1473918899	 0.122967
H	 3.6898218833	-0.1112456062	 2.9832982141	 0.133127
H	 2.1598758343	-0.6316470411	 3.7158433424	 0.12226
H	 2.8525639186	-1.5533511018	 2.3737363274	 0.129124
H	 0.9708784934	 1.5709152373	 3.2962260856	 0.070918
H	 0.1777404733	-1.2406922726	 1.7849380429	 0.092968
