17
gdb 36494	4.10669	1.06973	0.92751	4.3526	72.27	-0.2357	0.0366	0.2722	1229.6916	0.137323	-418.000096	-417.992191	-417.991247	-418.033096	29.516	
N	 0.0254296076	-1.1277390079	-0.1579559379	-0.314056
C	 0.0014927883	 0.0259472434	-0.0916425754	 0.257235
C	 0.0183843933	 1.4828426182	 0.0058803498	-0.328651
C	 1.4601043334	 2.0341603003	 0.0516350679	-0.002855
N	 2.1709045134	 1.7039206287	-1.1857614762	-0.310019
C	 3.1225594261	 2.7677074051	-1.521329958	-0.190736
C	 2.5131123697	 3.9963169402	-0.8804843012	 0.048746
O	 1.1137293233	 4.1621105639	-1.142543368	-0.246817
C	 1.5107503845	 3.5514339614	 0.0894764562	 0.023826
H	-0.4827547263	 1.9113958773	-0.8669260638	 0.171682
H	-0.5360052407	 1.7812551964	 0.9031602695	 0.142835
H	 1.953170575	 1.6606328872	 0.9656931457	 0.081547
H	 2.5801382341	 0.7799550209	-1.1738085303	 0.241081
H	 4.1307718989	 2.628215758	-1.0949261627	 0.095312
H	 3.2283925955	 2.8610189348	-2.6085178279	 0.121016
H	 3.0878900385	 4.9115280062	-0.7743948013	 0.105665
H	 1.2555964356	 4.0890320257	 0.9985374335	 0.104188
