19
gdb 82491	3.39518	1.40859	1.3824	2.1374	74.19	-0.2384	0.0703	0.3087	1023.6145	0.159883	-422.986002	-422.978499	-422.977554	-423.017409	30.829	
C	 0.0647591352	 1.4782813621	-0.0713841865	-0.504612
C	 0.013989626	-0.0160538891	 0.0522738606	 0.407469
C	-1.3124951388	-0.7921311478	-0.1481580925	-0.252811
C	-0.7362115018	-2.1204716068	 0.3700222666	-0.145694
C	-0.4350570406	-1.7563003225	 1.850491029	 0.119193
O	 0.2131868841	-2.7721977361	 2.5917768676	-0.448411
C	 0.6394627297	-0.8408404384	 1.2519626987	-0.121153
C	 0.8086891885	-1.7985765481	 0.0558653678	 0.120142
O	 0.8747092606	-0.7349166934	-0.8949415548	-0.327745
H	 1.0878491663	 1.8455269255	 0.0472677372	 0.129791
H	-0.3009465184	 1.7908938017	-1.0553279856	 0.13007
H	-0.564560446	 1.9462479624	 0.6923452069	 0.121786
H	-2.1485445407	-0.426114604	 0.4558292072	 0.092933
H	-1.5937815604	-0.7951827658	-1.2032353287	 0.105993
H	-1.2215620569	-3.0581828704	 0.101037137	 0.061699
H	-1.2579645986	-1.3047410858	 2.4231742917	 0.059353
H	-0.4200856963	-3.4828666032	 2.7346898033	 0.282913
H	 1.4603275768	-0.4081562878	 1.8206806832	 0.078123
H	 1.5398728414	-2.5930531126	-0.0636792786	 0.090962
