15
gdb 97881	5.10042	0.59944	0.54806	1.2312	72.19	-0.2546	-0.105	0.1496	1899.2915	0.108331	-457.738518	-457.728375	-457.727431	-457.776508	33.237	
O	 0.0069050968	 0.8931785054	-0.8628038504	-0.401372
C	-0.1502939775	 0.3650468937	 0.44552605	-0.189276
C	-1.3739331259	-0.4201062259	 0.606614939	 0.130202
C	-2.3721351135	-1.0884880879	 0.6775918328	 0.024845
C	-3.5720950932	-1.9003824446	 0.7496183751	-0.495696
C	-3.755576166	-2.8409619826	-0.4361619496	 0.300748
O	-3.0140313292	-2.9368224669	-1.3808094646	-0.254973
C	-5.0077216448	-3.7293995175	-0.3913615086	 0.084484
O	-5.8010000065	-3.7102264059	 0.5118788864	-0.21393
H	-0.1105545125	 0.165268893	-1.4826621656	 0.292517
H	 0.7155424567	-0.2503369872	 0.7384933616	 0.119874
H	-0.164398773	 1.2295789958	 1.1185695918	 0.141186
H	-3.5934060011	-2.5155786988	 1.6600431588	 0.171689
H	-4.4811286516	-1.2865359081	 0.8208251287	 0.171389
H	-5.0979415488	-4.3890386826	-1.2793059554	 0.118313
