24
gdb 101847	3.35236	0.7102	0.63934	1.1733	87.42	-0.2254	0.0851	0.3105	1863.5585	0.215244	-405.509786	-405.498901	-405.497957	-405.547004	38.805	
C	 0.1393299494	 1.4849182362	-0.0152944125	-0.233575
O	-0.1541283217	 0.116615274	-0.1624822939	-0.244733
C	 0.6416897083	-0.5701194961	-1.125448792	 0.137934
C	 2.055847082	-0.8423581984	-0.6046640235	-0.402605
C	-0.0969484254	-1.8635823622	-1.4673965566	-0.186998
C	-1.472323471	-1.6296065426	-2.0919527288	-0.149983
N	-2.100246456	-2.9000051012	-2.4465238883	-0.062455
C	-2.9071156512	-3.5271105675	-1.4032332902	-0.220191
C	-3.5518684057	-2.8826516524	-2.5800161284	-0.220925
H	 1.1350505018	 1.6644812596	 0.4160754555	 0.10549
H	 0.0813542667	 2.0198424502	-0.9767170826	 0.101443
H	-0.6085691767	 1.9034005782	 0.6635203688	 0.124729
H	 0.710673862	 0.0538887985	-2.0347438423	 0.059681
H	 2.5848483874	 0.0843553837	-0.3648938701	 0.113757
H	 2.014434893	-1.4575564214	 0.2998425126	 0.122456
H	 2.6449677863	-1.3736592039	-1.3587215727	 0.116098
H	 0.5133088329	-2.4552701468	-2.1583092733	 0.103734
H	-0.2067492634	-2.4552665126	-0.549920378	 0.10291
H	-2.0926017339	-1.0356938247	-1.400556486	 0.095961
H	-1.365124126	-1.0444838709	-3.0147717602	 0.093351
H	-2.8371657637	-4.6089152953	-1.3331727897	 0.113135
H	-2.9943735468	-3.0122321347	-0.4472276972	 0.111235
H	-4.0697376755	-1.9403590356	-2.4060483639	 0.106558
H	-3.9611279227	-3.4844990642	-3.3866636468	 0.112992
