21
gdb 89477	2.57097	1.60768	1.28632	2.1929	77.04	-0.2401	0.0735	0.3136	1071.6353	0.184035	-424.241756	-424.233593	-424.232649	-424.273865	33.034	
C	-0.032152273	 1.4892971627	-0.0006846998	-0.486949
C	 0.0040565821	-0.0286381447	 0.0056581764	 0.28445
C	 0.8035438757	-0.6628488495	-1.1484103441	-0.090421
O	 1.0182695208	-2.0225308981	-0.734106514	-0.285753
C	 0.4794864323	-2.1301793867	 0.5917002983	 0.094805
C	 0.6988325852	-0.7411810567	 1.1930274866	-0.263399
C	-1.052405432	-2.1954475082	 0.4508557267	 0.114731
O	-1.6015850703	-2.5406447258	 1.7146488726	-0.442261
C	-1.3815897866	-0.7322862629	 0.0101940118	-0.281946
H	 0.9787002556	 1.9109876658	 0.0219734235	 0.115949
H	-0.5319402635	 1.8734321987	-0.8974749562	 0.115154
H	-0.5754999208	 1.8730127179	 0.8692275841	 0.1174
H	 0.2579015807	-0.6477933202	-2.1005989682	 0.092828
H	 1.7720270516	-0.1647022542	-1.2982937064	 0.089716
H	 0.925189886	-2.9920872051	 1.087472219	 0.078754
H	 1.7553108343	-0.4811659472	 1.3012264561	 0.095662
H	 0.1795464763	-0.6064507161	 2.1445052272	 0.111744
H	-1.3264030239	-2.9331048992	-0.3137204042	 0.069528
H	-2.5606856408	-2.5187016989	 1.6412186941	 0.283145
H	-2.0425686106	-0.2726228281	 0.7527447308	 0.091785
H	-1.8746925088	-0.6770852135	-0.9655001142	 0.095077
