18
gdb 58070	1.83545	1.45349	1.29266	5.3776	76.25	-0.2643	-0.0035	0.2609	1142.2022	0.145979	-398.148248	-398.138	-398.137056	-398.182959	36.897	
C	 0.0566541797	 1.5648811163	-0.0249161367	-0.422469
C	 0.0161823755	 0.0332591754	 0.0585157168	 0.012054
N	 0.6786538548	-0.5299997322	 1.2289933567	-0.504014
C	-1.4530737248	-0.5348799752	 0.0166852222	-0.067181
C	-2.2547444872	-0.0435232521	-1.2170996522	-0.425724
C	-1.3815406606	-2.007387836	-0.0311396567	 0.323735
N	-1.349031515	-3.1550254325	-0.1525091804	-0.332522
C	-2.1536592872	-0.1257957745	 1.2487222734	 0.310516
N	-2.6805874042	 0.253587107	 2.2041377006	-0.338433
H	 1.0966401554	 1.8962197937	 0.0467467532	 0.125129
H	-0.348755947	 1.950039584	-0.9647765861	 0.125941
H	-0.4988242601	 2.0181482829	 0.8033088856	 0.142796
H	 0.5065693586	-0.389169006	-0.8256150764	 0.110274
H	 1.6851287651	-0.4427654388	 1.1443343992	 0.241134
H	 0.4030697554	-0.0320276711	 2.0711346684	 0.244786
H	-1.6971702802	-0.2740062623	-2.1282298505	 0.145323
H	-3.2225197968	-0.5456565216	-1.2638518132	 0.159681
H	-2.4235181116	 1.0323186131	-1.1581722239	 0.148974
