19
gdb 3443	4.17847	2.62846	1.95991	0.2227	70.04	-0.2606	0.0878	0.3484	738.0107	0.174042	-273.79352	-273.786936	-273.785992	-273.823515	26.458	
C	-0.0310080499	 1.5679052864	 0.0050109115	-0.396541
C	 0.0464579591	 0.0399227646	 0.0199351009	 0.043502
C	 0.7949576048	-0.5621254542	-1.1957423937	-0.23107
C	 1.3129228684	-1.9398999873	-0.724622932	-0.216153
C	 1.5351210908	-1.7769404931	 0.7739992184	-0.025567
C	 2.2725258492	-0.5443390031	 1.2383263549	-0.289157
C	 0.7613587339	-0.5599438318	 1.2283891728	-0.022159
H	 0.971124751	 2.0100596356	 0.0328818458	 0.112485
H	-0.5333386154	 1.9314544904	-0.8981948852	 0.108052
H	-0.585948415	 1.9479514671	 0.8693937412	 0.108671
H	-0.9787443233	-0.3573246126	 0.0238378599	 0.067703
H	 0.1570691416	-0.6325165436	-2.0812388179	 0.093092
H	 1.6348818681	 0.0865109462	-1.469403892	 0.098686
H	 0.5513617025	-2.7115294383	-0.892155152	 0.095882
H	 2.211891226	-2.2543108131	-1.2666801854	 0.092991
H	 1.5911178747	-2.6686372679	 1.3890922293	 0.075513
H	 2.7583076884	-0.5946659709	 2.2067795482	 0.105043
H	 2.8093511732	 0.0598485777	 0.5136533462	 0.105605
H	 0.247384972	-0.5465285919	 2.1840956791	 0.073422
