17
gdb 85763	2.99453	1.22772	0.91982	2.3933	72.96	-0.2545	-0.0264	0.2281	1242.7731	0.134954	-455.169516	-455.160233	-455.159288	-455.204164	32.764	
C	-0.0052876993	 1.4752139885	-0.0130370845	-0.440602
C	-0.016837938	-0.0269802491	 0.0493981084	 0.367701
N	-0.0301429786	-0.6436047395	 1.1641752061	-0.498479
N	-0.0063303164	-0.6724101187	-1.1925210482	-0.148632
C	-0.0173930759	-2.1119341003	-1.5141688909	-0.203207
C	 0.0133700572	-1.7210722243	-3.0150129246	-0.020044
O	-1.1033540806	-2.1759392456	-3.7310065677	-0.42367
C	-0.0517389826	-0.2542540947	-2.5208959357	 0.392394
O	-0.1456407184	 0.8241185174	-3.0402613891	-0.362073
H	 0.89095203	 1.8357538344	-0.5268175191	 0.146545
H	-0.8613780534	 1.8481198509	-0.5818288438	 0.153221
H	-0.030910554	 1.8635104434	 1.0044690295	 0.144754
H	-0.0396216983	-1.6576511729	 1.036986303	 0.21584
H	 0.8535416453	-2.6554945296	-1.1391768997	 0.128638
H	-0.9431546996	-2.6166332774	-1.226369779	 0.141117
H	 0.962567474	-1.9623644845	-3.5125031879	 0.103175
H	-1.2073230614	-1.609256558	-4.5040462667	 0.303321
