20
gdb 86819	5.1312	0.7198	0.7014	4.0384	78.56	-0.2173	0.0561	0.2734	1665.1985	0.17118	-436.479312	-436.469669	-436.468725	-436.514665	35.333	
C	-0.0373077958	 1.512541563	-0.0775133834	-0.313917
N	-0.0278964193	 0.0808892431	 0.1105049898	-0.059508
C	-1.247671417	-0.5761657987	 0.6124710405	-0.193829
C	-0.341860933	-1.5551466124	 1.4004562632	 0.052219
C	 0.7672973758	-0.4842186651	 1.2148973394	-0.190515
N	-0.742572523	-1.947996252	 2.7217199989	-0.349106
C	-0.5375686683	-3.229969929	 3.1888508274	 0.449819
N	-0.8503185653	-3.3878096764	 4.5362895392	-0.568168
O	-0.1029014189	-4.1376477192	 2.5060396741	-0.386522
H	 0.9600345053	 1.8561252598	-0.3719597598	 0.122347
H	-0.7335554903	 1.7786835783	-0.8800155393	 0.121609
H	-0.335809164	 2.069367224	 0.8327058445	 0.082986
H	-1.8338826324	 0.0621104098	 1.299474891	 0.068517
H	-1.9176587897	-0.9787879611	-0.154347698	 0.107888
H	-0.1266874227	-2.4681321038	 0.8483492638	 0.136144
H	 1.7778906706	-0.8119408107	 0.9506447044	 0.111156
H	 0.8263045992	 0.1839821128	 2.0945820335	 0.068584
H	-0.8821697474	-1.2156199462	 3.4002306456	 0.234456
H	-1.603254452	-2.8274100215	 4.9079592943	 0.245226
H	-0.9041643418	-4.3606464148	 4.7987958809	 0.260612
