19
gdb 111563	3.44844	1.38599	1.23249	0.3802	73.42	-0.2414	0.0618	0.3032	1078.5593	0.160351	-422.971705	-422.96439	-422.963445	-423.003684	29.229	
C	-0.0717126868	 1.5305687433	 0.0296584939	-0.382151
C	 0.0416929548	 0.002667908	-0.0095930873	-0.210994
C	 0.7211103812	-0.5827844029	 1.2264417861	 0.047547
C	-0.1047912	-0.5520651909	 2.5348564032	 0.010842
O	-1.3085190951	-1.2896686374	 2.1589842346	-0.288206
C	-0.4665032251	-2.4402905934	 2.149411211	 0.057845
C	 0.484088265	-1.8826656531	 3.2081194157	 0.055737
O	 1.6591738219	-2.2842845646	 2.508853387	-0.291338
C	 0.8556078249	-2.1211706196	 1.2999218674	-0.005202
H	 0.9120584441	 2.0008559154	 0.1390092981	 0.113296
H	-0.52378288	 1.9146578889	-0.8897787764	 0.114124
H	-0.6941701663	 1.8636889486	 0.8666710839	 0.119818
H	-0.9532302763	-0.4398680492	-0.1163215401	 0.117249
H	 0.6178394903	-0.2959694065	-0.8948210278	 0.092925
H	 1.7156570393	-0.1488769992	 1.3731773979	 0.083845
H	-0.3061207097	 0.3791913304	 3.0595235551	 0.086052
H	-0.9612842697	-3.4082808268	 2.1086566974	 0.097965
H	 0.4774191583	-2.0354385368	 4.2853495008	 0.096802
H	 1.2132656891	-2.6937557044	 0.4463560297	 0.083842
