22
gdb 14017	4.92316	1.1294	1.05911	0.1125	83.1	-0.2523	0.0922	0.3444	1237.2998	0.200261	-313.052603	-313.043872	-313.042928	-313.086115	32.926	
C	-0.0279017922	 1.5289710112	-0.5618490679	-0.369807
C	-0.0445426753	 0.1972451448	 0.1974077032	-0.194266
C	-1.4087608798	-0.4621481697	 0.2084542218	-0.05698
C	-1.8540727008	-1.3251474166	-0.9548538968	-0.350002
C	-1.5556962066	-1.9443568473	 0.3832544736	 0.371675
C	-0.4688353043	-2.9971510506	 0.6575414078	-0.288054
C	-1.5784218349	-3.9228047988	 1.2388940204	-0.205315
C	-2.5611911227	-2.7143890776	 1.2524966515	-0.294118
H	 0.9691051181	 1.9809281029	-0.5529152847	 0.10746
H	-0.3271576455	 1.3889851917	-1.605826752	 0.117006
H	-0.7233130389	 2.2470108306	-0.1131600715	 0.112118
H	 0.6834523909	-0.4900572474	-0.2515279987	 0.094025
H	 0.2917462646	 0.3616616399	 1.2301803041	 0.093036
H	-2.1915968625	 0.1404541496	 0.6680219771	 0.072896
H	-2.8886480023	-1.2692913241	-1.2800680503	 0.103851
H	-1.1426769356	-1.4915763673	-1.7599113747	 0.103364
H	 0.0864356647	-3.3764166632	-0.2048372215	 0.094992
H	 0.2520103713	-2.6762487236	 1.4170885985	 0.097901
H	-1.8841637835	-4.6969960259	 0.530938911	 0.103038
H	-1.368555651	-4.3966309236	 2.2002582439	 0.095578
H	-2.6806996456	-2.2786735817	 2.2502689719	 0.096415
H	-3.5552373983	-2.8823290331	 0.8281343932	 0.095186
