22
gdb 57572	2.87173	1.15785	1.10366	1.513	81.95	-0.2299	0.0829	0.3129	1246.0698	0.192078	-404.290701	-404.281007	-404.280063	-404.325257	36.774	
C	 0.1309870978	 1.4332945591	 0.4370394804	-0.440327
C	 0.0792382749	-0.0538206412	 0.0279201708	 0.237702
C	 0.7125103536	-0.908732954	 1.1328461615	-0.423759
C	-1.3902703526	-0.4081136794	-0.2028386508	 0.105564
C	-2.0278330157	-1.6643080423	 0.1958096479	-0.184357
O	-2.2433004774	-0.4585003875	 0.9414511074	-0.24939
N	 0.7524475474	-0.4114776055	-1.2383398938	-0.086893
C	 0.8856946834	 0.5349677879	-2.3377136158	-0.229958
C	 2.0764905836	 0.1006645627	-1.5532741911	-0.228314
H	 1.1575067632	 1.789227342	 0.5639314756	 0.113454
H	-0.373649611	 2.0779505973	-0.2887916953	 0.115142
H	-0.3853151938	 1.5554358185	 1.3930212493	 0.139413
H	 0.0911429791	-0.8879083707	 2.0318437514	 0.132648
H	 0.8317301271	-1.9420548443	 0.7984112491	 0.122475
H	 1.7034275555	-0.5230827263	 1.3905761346	 0.109391
H	-1.8266006384	 0.1229945237	-1.051813884	 0.087212
H	-2.8912145228	-2.0260782217	-0.3607553528	 0.112713
H	-1.4540681195	-2.4313352787	 0.7090539293	 0.116072
H	 0.6950496388	 0.1293617367	-3.3278762489	 0.114834
H	 0.5609327782	 1.5639017248	-2.2029779921	 0.110945
H	 2.5291230361	 0.8434043706	-0.8993862041	 0.110353
H	 2.7759881729	-0.6262529517	-1.9578911886	 0.115081
