16
gdb 24255	4.03701	1.57464	1.23716	1.2303	74.61	-0.2064	0.0136	0.22	975.5651	0.127687	-400.739348	-400.733053	-400.732109	-400.769886	25.759	
C	 0.0945967401	 1.4958720791	-0.0433972759	-0.232055
C	 1.3512083258	 0.6884619237	-0.0120354288	-0.187005
N	 0.0064405344	 0.0346941215	-0.014104394	-0.098638
C	-0.2092438587	-0.6240954038	-1.3453381438	-0.297396
C	 1.0403291708	-0.325035179	-2.1296836202	 0.217701
C	 1.8946446812	 0.3707030139	-1.34290488	 0.345099
O	 3.0474283781	 0.670857148	-1.9760904275	-0.201621
C	 2.9140549412	 0.1359154405	-3.233728763	-0.014465
C	 1.7043007455	-0.4764109947	-3.3889891596	-0.363633
H	-0.2629476283	 1.9846571843	 0.8597363436	 0.118272
H	-0.1292824481	 2.0180375143	-0.9716786296	 0.11518
H	 1.9511248461	 0.6030938809	 0.8890249404	 0.108061
H	-0.362379636	-1.6966024711	-1.1764741289	 0.120264
H	-1.1275936322	-0.2325829485	-1.7975352009	 0.119041
H	 3.7660429732	 0.2640822821	-3.8806838006	 0.135604
H	 1.361853227	-0.9757225014	-4.2821244611	 0.115592
