17
gdb 14245	3.93679	1.74544	1.56841	2.7776	69.15	-0.2582	0.0269	0.2851	879.3421	0.143139	-363.851686	-363.844544	-363.8436	-363.883087	27.365	
C	 0.423627831	 1.5483312598	 0.0831435124	-0.405503
C	 0.1259162761	 0.0584397721	 0.0164378725	 0.015113
C	 0.9609719944	-0.8412757848	-0.9556024215	-0.260852
C	 1.321733097	-1.7940849304	 0.2309313536	-0.165237
C	 0.5779202526	-0.8329822956	 1.1975537246	 0.092984
O	 1.8626982468	-0.4270044084	 1.7696243272	-0.270141
C	 2.5495515351	-1.3366678672	 0.9777585646	 0.441273
N	 3.7689454683	-1.6244980435	 0.945573392	-0.549615
H	 1.475956955	 1.7259797115	 0.3209438696	 0.133255
H	 0.2029563746	 2.0300166814	-0.875098277	 0.117674
H	-0.18136333	 2.0398477743	 0.8526834147	 0.118586
H	-0.9438767214	-0.105301746	-0.1546377915	 0.081088
H	 0.3664045523	-1.3215808814	-1.7344722666	 0.111959
H	 1.824632007	-0.3627615406	-1.4226778801	 0.120254
H	 1.144973431	-2.861711538	 0.1268602133	 0.10224
H	-0.1237288017	-1.1176913544	 1.9816186743	 0.089686
H	 4.299459312	-1.0716133787	 1.6211670378	 0.227236
