21
gdb 74303	2.26745	1.53328	0.99196	0.5814	96.58	-0.2034	-0.0206	0.1827	1264.6675	0.182964	-349.990631	-349.981723	-349.980779	-350.023738	34.575	
C	-0.0487689601	 1.5191765934	 0.0368441054	-0.47795
C	 0.0353022085	 0.0186466964	 0.0318941959	 0.286228
C	 0.1470092738	-0.6932759064	-1.1080074472	-0.188348
C	 0.1207223974	-2.1389777094	-1.2472907945	 0.265403
C	 0.8417446088	-2.6993165063	-2.4522518789	-0.479674
C	-0.6056350911	-2.9678389182	-0.4452145989	-0.183449
C	-1.4506840232	-2.5754891181	 0.6586641827	-0.046561
C	-1.2449454788	-1.5135338476	 1.4580787752	-0.095012
C	 0.0164542398	-0.6938452852	 1.3676032113	-0.358074
H	 0.773330675	 1.9592507768	 0.6169007161	 0.123716
H	-0.0180674693	 1.9334443474	-0.9743272512	 0.120567
H	-0.9777295822	 1.8587958983	 0.5123408065	 0.130102
H	 0.263626519	-0.1397529332	-2.039491595	 0.073611
H	 1.9192039678	-2.5011793417	-2.398695911	 0.126746
H	 0.7000980529	-3.7793309924	-2.5419402546	 0.118507
H	 0.4842028694	-2.2315524756	-3.3781442273	 0.124323
H	-0.6474171333	-4.0174724207	-0.7306689813	 0.077199
H	-2.3274125465	-3.1965988603	 0.8328469049	 0.084766
H	-1.9920608495	-1.238763747	 2.1974899131	 0.087908
H	 0.8886733535	-1.358926035	 1.4373877131	 0.115294
H	 0.0789317881	 0.023245905	 2.1905062959	 0.094698
