18
gdb 88655	3.84695	1.01065	0.8937	3.8416	73.54	-0.2137	-0.0181	0.1956	1296.43	0.145823	-439.039759	-439.031113	-439.030169	-439.073502	32.431	
O	-0.1230197373	 1.391629831	 0.4579162878	-0.41186
C	-0.0357299756	 0.0480761737	 0.0811177823	 0.080385
C	-0.4643412177	-1.0246084602	 1.0652731206	-0.366735
C	-1.3211552863	-0.678758739	-0.1543551306	 0.03385
N	-2.5997835348	-0.0430168164	-0.1033535827	-0.093957
C	-2.9656189032	 0.9903540032	 0.8934974367	-0.278939
C	-4.3353679249	 0.3077435008	 0.9972255143	 0.387844
O	-5.3876808274	 0.5814304034	 1.4892080628	-0.283151
C	-3.7826986059	-0.8808699564	 0.1953326177	-0.286578
H	 0.5744369992	 1.5667996095	 1.0983524734	 0.290814
H	 0.7920296304	-0.1788227015	-0.5909927054	 0.093303
H	 0.0648656597	-1.9711031927	 1.0924378046	 0.11358
H	-0.8002299974	-0.6645118414	 2.0321112751	 0.116914
H	-1.2869279989	-1.4076260365	-0.9603436546	 0.102848
H	-2.4284074	 0.9395627597	 1.8516992296	 0.116061
H	-2.9268011104	 2.0209461558	 0.531047011	 0.140028
H	-4.3549873093	-1.2173914863	-0.6760869823	 0.129798
H	-3.5800443504	-1.7447911369	 0.8504129194	 0.115797
