23
gdb 113001	2.45025	1.02721	0.91538	3.0126	86.3	-0.243	-0.0208	0.2223	1435.132	0.204057	-388.297109	-388.286851	-388.285907	-388.332979	37.427	
C	-0.5409671268	 1.3722327303	 0.1978318289	-0.384453
C	-0.3329902111	-0.1451645969	 0.2468037105	-0.189236
C	 0.8555771871	-0.5476405341	 1.1210502559	 0.02158
C	 0.6196348922	-0.4303878715	 2.6562297503	-0.262033
C	 0.5991334654	-1.9839661932	 2.7972133525	-0.097361
C	-0.7695661574	-2.5637563167	 3.0311116314	 0.159195
O	-0.9997157983	-3.5177432773	 3.7311184009	-0.25857
C	 1.1221412357	-2.0793849185	 1.3113161269	 0.002458
C	 0.5174882601	-3.1050452874	 0.3594187582	-0.418801
H	 0.3408399257	 1.8765702079	-0.2126511808	 0.115788
H	-1.3985049477	 1.6349980414	-0.4289557244	 0.114607
H	-0.7216466938	 1.7852876672	 1.1960692622	 0.119082
H	-1.2513664374	-0.6248865216	 0.6103665022	 0.096238
H	-0.1766241808	-0.5232731442	-0.7712575012	 0.098767
H	 1.7382971024	-0.0036016568	 0.7675276087	 0.065935
H	 1.4481203804	 0.0246931388	 3.2024976864	 0.109357
H	-0.3027111403	 0.0786609294	 2.9545971297	 0.102526
H	 1.2712421251	-2.4174851687	 3.540416187	 0.087808
H	-1.6009795292	-2.0392091019	 2.5019742416	 0.068251
H	 2.2024779396	-2.2479425377	 1.359904311	 0.084144
H	-0.5611767856	-2.9772799128	 0.23112801	 0.12018
H	 0.9784525995	-3.0345752295	-0.6317090738	 0.117185
H	 0.6869770349	-4.1209267462	 0.731864616	 0.127355
