15
gdb 125183	3.43198	1.66405	1.12857	0.9874	74.44	-0.2062	0.0004	0.2066	1016.2199	0.116338	-413.023216	-413.015849	-413.014905	-413.055759	27.49	
C	-0.0229224214	 1.5146647288	 0.0868122661	-0.51332
C	 0.0087898964	 0.0317919383	-0.0723251645	 0.214096
C	-0.0052474689	-0.8006627378	-1.1820356074	 0.170709
N	-0.0476763242	-0.8313837135	-2.5695907437	-0.358473
C	-0.0246280805	-2.1088747343	-2.8450205257	 0.002229
N	 0.0305992412	-2.9476174848	-1.7375252788	-0.396962
C	 0.0435909574	-2.104943979	-0.6485058411	 0.412778
N	 0.0862827299	-2.1688793184	 0.6725242565	-0.372794
N	 0.0630114682	-0.8340807796	 0.9857182718	-0.255891
H	 0.8689798372	 1.8914871581	 0.6009864596	 0.135219
H	-0.0646473089	 1.982739154	-0.8985152822	 0.158497
H	-0.8992035655	 1.8478517077	 0.6551255426	 0.13524
H	-0.0453605659	-2.5252388291	-3.842813568	 0.129458
H	 0.0549485434	-3.9520372308	-1.7484619596	 0.270251
H	 0.0871744717	-0.5827603394	 1.9594644344	 0.268962
