18
gdb 84475	3.93675	1.18594	1.02517	2.8912	79.65	-0.247	-0.0302	0.2168	1183.0411	0.14763	-401.944255	-401.936124	-401.93518	-401.97687	31.111	
C	-0.0590919746	 1.6013208052	 0.0695213445	-0.394544
C	 0.0263891668	 0.0688582286	 0.0024809373	-0.034893
C	 0.784089612	-0.4569134378	-1.2056135986	-0.080468
C	 1.7672954337	-1.2975193114	-0.8837701939	-0.136638
C	 1.8664159911	-1.4401991013	 0.5970229961	 0.222638
N	 2.1828287792	-0.146083271	 1.2891023262	-0.353406
C	 0.7896986784	-0.5558364726	 1.1771547607	-0.108427
C	 2.2543605249	-2.6958266247	 1.2658899569	 0.072696
O	 2.556321253	-3.7156502639	 0.6966298674	-0.260001
H	 0.9421786385	 2.0327199784	 0.1421429512	 0.142948
H	-0.5470846294	 2.0016811633	-0.8246141226	 0.11618
H	-0.6397216357	 1.9240265168	 0.9396731657	 0.11387
H	-0.9956920985	-0.3362107989	-0.0030331649	 0.08937
H	 0.5383110222	-0.1371580018	-2.2125580885	 0.102509
H	 2.4330883752	-1.8133189445	-1.5624799287	 0.119376
H	 2.5156680044	-0.3438337699	 2.2341202232	 0.233976
H	 0.2540773184	-0.8414059145	 2.0777881008	 0.09844
H	 2.2545302902	-2.6283021998	 2.381638367	 0.056375
