15
gdb 15567	3.50152	1.91443	1.2737	5.0063	69.4	-0.233	-0.0457	0.1873	918.2407	0.120283	-358.861842	-358.854235	-358.853291	-358.89389	26.826	
C	-0.027765324	 1.3997758133	-0.0133757245	-0.349906
N	 0.0094758393	-0.0247335582	 0.2460300209	-0.115705
C	-1.1766418352	-0.8501251799	-0.0088851261	-0.189329
C	-0.5661390542	-2.274921385	-0.014190431	-0.17969
N	 0.8859360908	-2.0935312294	-0.2000926282	-0.308348
C	 1.0921035707	-0.8388140874	-0.0404751414	 0.296904
C	 2.4122746886	-0.2671515625	-0.1029691031	 0.269935
N	 3.457332549	 0.223391432	-0.1544666114	-0.332381
H	 0.9615034062	 1.8311939326	 0.152151822	 0.163134
H	-0.3415491605	 1.6250667977	-1.0445821422	 0.12365
H	-0.7303396918	 1.8830038953	 0.6721587535	 0.13795
H	-1.9358816457	-0.7018586923	 0.764034336	 0.1217
H	-1.6204910145	-0.5837163938	-0.9810444401	 0.107903
H	-0.7304015731	-2.7865332087	 0.9424262576	 0.127499
H	-0.9742727155	-2.9150567635	-0.8000625619	 0.126683
