15
gdb 130604	4.14911	1.38789	1.05397	6.1058	77.69	-0.2217	-0.0381	0.1836	1071.268	0.115278	-416.817196	-416.810353	-416.809409	-416.848611	26.219	
O	-0.0560951538	-0.051128941	 0.0143068298	-0.394146
C	 0.0143576685	 1.1725103145	 0.0317736737	 0.372313
C	-1.2181943748	 2.0074132241	 0.0661255963	-0.092162
N	-1.2849863142	 3.3114488594	 0.0874818256	-0.228362
N	-0.089563971	 3.8898751154	 0.0758661761	 0.034613
C	 0.4027407545	 5.2697851579	 0.0878666332	-0.163336
C	 1.8414557799	 4.630654008	 0.0528098447	-0.377209
C	 1.1279307335	 3.285652395	 0.0448302764	 0.48193
C	 1.2604315613	 1.9395245865	 0.021661075	-0.463991
H	-2.1653389888	 1.4770788628	 0.0743463428	 0.136754
H	 0.1174075964	 5.8476793843	-0.7948222299	 0.140986
H	 0.1487888115	 5.8209862819	 0.9968097513	 0.140982
H	 2.4190449797	 4.8537229942	-0.8455540132	 0.146109
H	 2.4503641463	 4.8262999532	 0.9367800764	 0.146111
H	 2.214008371	 1.4284183138	-0.0033282482	 0.119408
