21
gdb 53697	6.65613	0.49384	0.47555	1.1336	89.26	-0.2425	0.061	0.3035	2340.7776	0.179858	-387.044185	-387.033441	-387.032497	-387.082823	36.866	
C	 0.0696843212	 1.3307277878	-0.4783061116	-0.496354
C	-0.0030791035	-0.0759935548	-0.1091629064	 0.074238
C	-0.0511523688	-1.23834786	 0.201082632	 0.037956
C	-0.143206998	-2.6471670999	 0.5640067421	-0.350901
C	-1.4927478336	-3.2604822034	 0.177923573	-0.049147
O	-1.4738832317	-4.6179456498	 0.5800374384	-0.247137
C	-2.656311797	-5.2946205274	 0.2917258225	 0.149146
C	-2.8563960286	-5.8771237675	-1.0852061105	-0.287539
C	-2.5473308293	-6.7711868264	 0.1008768519	-0.287228
H	 0.9759547783	 1.5454583973	-1.0555283362	 0.146659
H	-0.7890706369	 1.6264772875	-1.0912865617	 0.146014
H	 0.0808864343	 1.9763570647	 0.4069272159	 0.14635
H	 0.6522255611	-3.2235445405	 0.0756914447	 0.132547
H	 0.0007515458	-2.7772904176	 1.6435941501	 0.134256
H	-2.3099991105	-2.7175809337	 0.677441092	 0.096932
H	-1.6549438747	-3.1768479321	-0.9064484819	 0.100655
H	-3.5332670352	-4.9020693649	 0.8089715356	 0.082818
H	-3.8548688758	-5.8914779985	-1.5082017252	 0.112393
H	-2.0585713358	-5.7223914326	-1.8030587712	 0.119172
H	-1.5489093073	-7.18954349	 0.1554164175	 0.125363
H	-3.3306951438	-7.4049054281	 0.5006825791	 0.113808
