15
gdb 32189	2.76427	1.43991	0.95244	2.3185	70.42	-0.2257	-0.0394	0.1863	1165.5216	0.113381	-453.995092	-453.986983	-453.986038	-454.028244	28.705	
C	 0.0255810562	 1.3456246459	 0.0074541758	-0.240152
O	-0.0363186026	-0.0863851943	 0.0031523396	-0.268626
C	-1.2664276099	-0.595458425	 0.0108077867	 0.520932
N	-2.3991249966	 0.0339887073	 0.0215464706	-0.381567
C	-3.3636574916	-0.9794564196	 0.0254778257	-0.096308
C	-2.7951951858	-2.2081193533	 0.0170420375	-0.108598
N	-1.4104402116	-1.9766629701	 0.0072111015	-0.149032
C	-0.3968369591	-2.9324745446	-0.0037558736	 0.16604
O	-0.6059175092	-4.1169455034	-0.0047643896	-0.289404
H	 1.0869523509	 1.5928666494	 0.0000427344	 0.13948
H	-0.4723974803	 1.7516112642	-0.8768720583	 0.149103
H	-0.4585754566	 1.7456676723	 0.9021072603	 0.149097
H	-4.4141393556	-0.7345226818	 0.0342929033	 0.124178
H	-3.178680474	-3.2126032796	 0.016591103	 0.160939
H	 0.6026880259	-2.4709053973	-0.0085341269	 0.123918
