21
gdb 74709	2.8864	1.50714	1.20084	1.1516	84.42	-0.228	0.0191	0.247	1119.5558	0.184126	-387.078593	-387.07059	-387.069646	-387.110703	32.221	
C	 0.0063463084	 1.4959092367	 0.1315255421	-0.470773
C	-0.0508707345	-0.0005966193	-0.0361751542	 0.279993
C	-1.1880092086	-0.6863907302	 0.1146266221	-0.159064
C	-1.3355957971	-2.179351919	-0.0119243487	-0.057211
C	-0.1076311153	-2.9591183959	 0.5518283915	-0.26378
C	 0.5128006716	-2.9002664283	-0.8685930633	 0.136965
C	-0.9236399076	-2.7081440337	-1.426144099	-0.224208
O	 1.355182568	-1.7933937988	-1.1446360865	-0.272069
C	 1.3005964893	-0.6382935617	-0.3261630985	-0.159813
H	 0.7494252777	 1.7844462287	 0.8871384417	 0.122178
H	 0.3060746634	 1.9901030543	-0.8017784471	 0.125461
H	-0.9598955245	 1.902924454	 0.4399156786	 0.121748
H	-2.0965107174	-0.1284218659	 0.3313964164	 0.07611
H	-2.315534322	-2.4939360006	 0.3536094788	 0.061011
H	 0.4425703648	-2.5231110639	 1.3878336434	 0.103027
H	-0.3700238719	-3.990359783	 0.8031657782	 0.100334
H	 1.0682387804	-3.7784150256	-1.2094618283	 0.074834
H	-1.3982892943	-3.665938362	-1.6606249216	 0.092317
H	-1.024847866	-2.0233446923	-2.2698309616	 0.101065
H	 1.9243176852	 0.0907144559	-0.8555037549	 0.109422
H	 1.8086953704	-0.8249843095	 0.6362135408	 0.102452
