15
gdb 61144	3.75101	0.87024	0.76207	0.9312	70.97	-0.3132	-0.1047	0.2085	1411.6113	0.110515	-416.84519	-416.835695	-416.834751	-416.880568	32.292	
C	 0.2412142611	 1.4164750696	 0.1404824926	-0.423521
C	-0.0263359052	-0.0954604198	-0.0023422922	-0.111147
C	-1.5293654923	-0.4434940282	-0.0303737942	-0.353701
C	-2.1959032521	-0.0685508013	 1.2132889907	 0.26228
N	-2.7049815851	 0.2346823522	 2.2051577777	-0.301346
C	 0.6347837595	-0.6385222845	-1.2569195453	 0.29472
O	 0.0531499025	-1.1458678003	-2.1818496235	-0.270012
C	 2.1079775781	-0.5050055591	-1.2899686141	 0.250986
N	 3.2598398091	-0.4052676427	-1.3023731084	-0.294883
H	 1.3131161401	 1.6266903555	 0.1680595836	 0.156716
H	-0.1995030783	 1.9708430476	-0.6940861433	 0.14078
H	-0.2027542554	 1.7811343349	 1.0695577151	 0.166116
H	 0.4479305773	-0.6045266395	 0.847862798	 0.140798
H	-2.0151035705	 0.0673131815	-0.8682987984	 0.170601
H	-1.6668365089	-1.5151719459	-0.2028831884	 0.171614
