23
gdb 121234	3.16967	0.77639	0.67149	2.8618	81.94	-0.2448	0.0657	0.3104	1747.9681	0.205053	-425.408002	-425.397684	-425.39674	-425.444362	37.039	
C	-0.1177257121	 1.5511091252	-0.2528212306	-0.38257
C	 0.1280579732	 0.0432493648	-0.1589010555	-0.167726
C	 0.44385368	-0.4283264719	 1.2669897197	-0.198087
C	 0.6952384502	-1.9306547796	 1.3437099796	-0.053074
C	 2.0286302485	-2.4887228376	 0.7955376541	-0.081262
O	 2.2928797748	-3.1999711167	 2.0251208483	-0.306893
C	 1.138888834	-2.5980913936	 2.6740707606	 0.091376
C	 1.6116301478	-1.7439801057	 3.8415008614	-0.067053
O	 2.353463372	-2.5452245463	 4.7415792621	-0.425246
H	 0.7605780598	 2.1172849559	 0.0763898009	 0.116229
H	-0.3438914108	 1.8550975688	-1.2794283344	 0.11434
H	-0.9607165636	 1.8546005993	 0.3779156786	 0.116076
H	-0.7525448172	-0.4975893682	-0.5299761077	 0.09769
H	 0.9560716485	-0.2344704207	-0.8247560104	 0.099978
H	 1.3172103153	 0.1207439419	 1.6410384442	 0.09983
H	-0.3926279878	-0.1622062266	 1.9274427276	 0.098754
H	-0.1618900438	-2.4606185277	 0.9169316398	 0.081785
H	 1.9696463218	-3.1692086539	-0.0610052464	 0.105891
H	 2.7935198854	-1.7265945153	 0.5905123295	 0.097001
H	 0.4676874036	-3.3786649418	 3.0536616672	 0.082314
H	 2.2132676583	-0.8967158622	 3.4774600959	 0.082586
H	 0.7585486788	-1.337294752	 4.3958990761	 0.105892
H	 3.0074511332	-3.0037181759	 4.1984786897	 0.292171
