21
gdb 36286	3.75614	1.03713	0.97546	0.7078	87.53	-0.258	0.0576	0.3156	1302.4362	0.184204	-349.912694	-349.904577	-349.903633	-349.945549	32.622	
C	 0.0348060066	-1.1995216062	 0.0190675297	-0.455476
C	 0.0015508295	-0.0032639634	 0.1341493469	 0.311501
C	-0.0044825569	 1.4501811642	 0.2688750427	-0.409227
C	 1.3944014644	 2.058569113	 0.0937459015	 0.059337
C	 2.0020155317	 2.0790500729	-1.3450551443	-0.011161
C	 1.177242431	 3.377086177	-1.5896674077	-0.234649
C	 1.4783463079	 3.6096478829	-0.0794761299	-0.030585
C	 3.0053143303	 3.8243429077	-0.1002175136	-0.220247
C	 3.4050907792	 2.6547798343	-1.0673493562	-0.214979
H	 0.0511607065	-2.2563190025	-0.080496661	 0.192941
H	-0.7156922814	 1.8742970137	-0.4484932953	 0.129287
H	-0.3858706399	 1.7190435884	 1.2631507842	 0.127723
H	 2.0499902778	 1.6376115263	 0.864640832	 0.067774
H	 1.9320683778	 1.2127929751	-2.0032353312	 0.066825
H	 1.575738831	 4.1049658677	-2.3030616584	 0.086948
H	 0.1245258046	 3.1968481493	-1.8088031581	 0.09766
H	 0.8831908086	 4.2891402122	 0.5332798673	 0.054324
H	 3.2792794882	 4.8080960437	-0.4919533782	 0.094988
H	 3.453442556	 3.7214194064	 0.8923188137	 0.095254
H	 4.0668386951	 1.9247390474	-0.5925111537	 0.09723
H	 3.8954040319	 3.0103175699	-1.9780413503	 0.094533
