14
gdb 26839	3.62034	1.13214	0.86468	5.0246	75.49	-0.1999	-0.0421	0.1578	1236.0337	0.100018	-473.856238	-473.847729	-473.846785	-473.889464	30.71	
N	 0.1286400858	 1.3478734095	-0.1305760735	-0.597612
C	-0.0169320076	-0.0118987999	-0.0630506932	 0.337749
C	-1.147973626	-0.8046232019	-0.0567374632	 0.202357
O	-2.4213048295	-0.2992977365	 0.0117195585	-0.452694
C	-0.6872830282	-2.1405647072	-0.0380348174	-0.355328
C	 0.6876093974	-2.089236623	-0.0387537417	 0.257949
O	 1.0894979275	-0.7643684043	-0.0463718576	-0.186178
C	 1.6824457136	-3.1277769764	-0.0196810288	 0.058241
O	 2.8874108473	-2.9700294794	-0.0022263951	-0.307205
H	 0.974012505	 1.7077778233	 0.289848275	 0.271818
H	-0.7023616437	 1.8544862136	 0.1384343516	 0.27345
H	-2.9420946149	-0.6445039896	-0.7209905445	 0.304283
H	-1.2854053601	-3.0394381245	-0.0192809165	 0.129574
H	 1.2221946535	-4.1419444939	-0.0210586736	 0.063597
