17
gdb 54478	3.32696	1.4002	1.12428	1.8154	73.62	-0.2463	-0.027	0.2193	1091.104	0.134601	-421.838144	-421.829995	-421.829051	-421.871106	30.654	
C	 0.5750894009	 0.3631168269	-1.0387529204	-0.48214
C	-0.1399084435	 0.3070734997	 0.2937350401	 0.300396
O	 0.2943006882	 0.8293018097	 1.297617439	-0.307732
C	-1.451902421	-0.4215212876	 0.3378084529	 0.30042
C	-2.4283609118	-0.1799835579	 1.4832428171	-0.335357
C	-3.1416514901	-1.5057727317	 1.6217949086	-0.075875
C	-2.6658539445	-2.4311523519	 0.7838373311	-0.080295
C	-1.6078305252	-1.8435131261	-0.0872374352	-0.063934
O	-2.0610372906	-0.7585885644	-0.9145054913	-0.288377
H	 1.5405891319	 0.8524335328	-0.9081987919	 0.139059
H	 0.7138043643	-0.6381012708	-1.4584307286	 0.140904
H	-0.0341469147	 0.9165794186	-1.7607201586	 0.156161
H	-1.874131471	 0.1016417744	 2.3850952615	 0.145462
H	-3.117901238	 0.6421129254	 1.258129485	 0.128661
H	-3.9619928507	-1.6512332093	 2.3154779418	 0.109493
H	-2.9943554569	-3.4595264108	 0.7040440889	 0.108574
H	-0.8015033271	-2.4362214972	-0.5097595697	 0.10458
