19
gdb 89104	4.5618	0.67855	0.63718	1.416	78.56	-0.2327	0.0482	0.2809	1750.8442	0.15614	-422.95596	-422.946073	-422.945128	-422.991773	35.861	
O	-0.5941394708	 1.2504140552	-0.6428022789	-0.430611
C	-0.241671273	-0.0367349007	-0.2375664693	 0.121982
C	-0.1948412009	-0.3839219426	 1.2356933875	-0.364629
C	-1.3112350237	-0.909048955	 0.3720112426	 0.074719
O	-2.5566612717	-0.2955577871	 0.560337472	-0.264266
C	-3.4460418771	-0.5171227578	-0.5290186389	-0.067155
C	-4.7719501582	 0.1663952541	-0.1814354741	-0.353221
C	-5.7732455904	-0.0215780596	-1.2220547028	 0.286509
C	-6.5790794549	-0.1935516995	-2.0965896213	-0.442852
H	-1.4345189208	 1.4487570412	-0.2092243088	 0.287172
H	 0.4937391356	-0.4708911391	-0.9063374361	 0.106845
H	 0.5489632058	-1.0845499943	 1.5990676488	 0.117853
H	-0.4563231675	 0.4084439843	 1.9296528974	 0.125881
H	-1.3631877697	-1.973264555	 0.1437869337	 0.090789
H	-3.0305500727	-0.1090004562	-1.4596646094	 0.12113
H	-3.6056563258	-1.5951575196	-0.6745440228	 0.110407
H	-5.1323331167	-0.2350507924	 0.773057001	 0.143643
H	-4.5900326812	 1.2359350848	-0.0196947	 0.136833
H	-7.3009360562	-0.3368598607	-2.8620004005	 0.198972
