17
gdb 33751	2.43824	1.65016	1.26653	1.9496	80.24	-0.237	0.0126	0.2497	1045.4977	0.134093	-384.560537	-384.552672	-384.551728	-384.592668	31.243	
C	 0.0794488292	-1.1403146755	-0.025137805	-0.358356
C	 0.0241526294	 0.0602522905	 0.007498121	 0.069649
C	-0.0840499291	 1.4856914415	 0.0273047831	 0.258759
C	-0.6389369981	 2.4343005856	 1.1332501684	-0.255942
C	 0.014565707	 3.2917606567	 0.0228904038	-0.069783
O	 1.1490421976	 2.332526318	-0.0036788858	-0.340096
C	-0.6901156349	 2.4337163399	-1.0321472901	 0.415806
C	-0.6652380935	 2.4016577807	-2.5115722168	-0.356847
C	-1.9909834549	 2.4761523032	-1.7518731981	-0.361362
H	 0.136750962	-2.2007788663	-0.0483859917	 0.190149
H	-1.7226515576	 2.4831305612	 1.2583747598	 0.105207
H	-0.0873220217	 2.3989126311	 2.0729257664	 0.112964
H	 0.2553007487	 4.3534260323	 0.0145121821	 0.10268
H	-0.3335964236	 3.2865602071	-3.0448175622	 0.119932
H	-0.4159233167	 1.4647675542	-2.9990818968	 0.126667
H	-2.616095938	 1.5887625576	-1.7405204251	 0.123167
H	-2.5417059658	 3.4111174521	-1.778622483	 0.117408
