15
gdb 127453	3.82134	1.11151	0.86576	5.9461	72.66	-0.2334	-0.0416	0.1919	1255.2518	0.112107	-453.972176	-453.963477	-453.962533	-454.006541	30.335	
C	-0.0515610151	 1.4519576642	 0.00906717	-0.326858
N	 0.0083358154	 0.0037327612	 0.0309333129	-0.005176
N	-0.0631923563	-0.708336305	-1.1089586188	-0.309468
C	 0.0224923243	-1.9835128845	-0.7173070411	 0.272333
C	-0.0165229411	-3.1008998791	-1.6720923638	 0.098698
O	-0.1256689675	-3.0063057842	-2.870696988	-0.26474
C	 0.1509471932	-2.0974326745	 0.6919025682	-0.468203
C	 0.1364893979	-0.7908862002	 1.1251992364	 0.469606
O	 0.2186646462	-0.193620206	 2.3330747598	-0.431202
H	 0.8621114805	 1.8813973476	 0.4291583358	 0.14984
H	-0.1560390048	 1.7491853351	-1.033122272	 0.170714
H	-0.9081584255	 1.8104835764	 0.5864478609	 0.149851
H	 0.066990555	-4.0961374029	-1.1769177995	 0.062771
H	 0.239147828	-2.9926421209	 1.2861435709	 0.114618
H	 0.3053042699	-0.8699553972	 3.0120400384	 0.317217
