17
gdb 37315	3.20204	1.72665	1.38808	2.3974	72.6	-0.2443	0.0163	0.2606	944.6889	0.137281	-421.778064	-421.771222	-421.770277	-421.80938	27.198	
C	 0.083163889	 1.4907468722	 0.139723485	-0.117974
O	 1.3795374415	 2.0250657154	-0.0807361813	-0.260713
C	 2.0158148947	 1.5945063151	-1.2524348266	 0.091754
C	 3.5142164849	 1.308482888	-1.0651501853	-0.004611
O	 3.6308196214	 0.260017301	-0.1017220615	-0.226677
C	 3.3401195383	-0.1048205979	-1.447397401	 0.01156
C	 1.8244297316	 0.0867022183	-1.6682408052	-0.131233
C	 0.8342240533	-0.6635326588	-0.842300569	-0.058792
C	 0.0057291207	-0.0036179111	-0.0367398487	-0.079619
H	-0.1692744084	 1.7630535012	 1.1697686555	 0.120459
H	-0.6594054851	 1.9890914388	-0.5100398127	 0.097686
H	 1.8191581591	 2.277083639	-2.0922542345	 0.069153
H	 4.3562817644	 1.9809187624	-1.1767080073	 0.107217
H	 4.0198069263	-0.7860167196	-1.946497381	 0.10403
H	 1.5853130189	 0.015275228	-2.7360397441	 0.08868
H	 0.7872201141	-1.7454217715	-0.9375084218	 0.093391
H	-0.7607901347	-0.5229645906	 0.5315730895	 0.09569
