16
gdb 67908	2.46405	1.9753	1.38796	5.7175	67.87	-0.2441	0.013	0.257	944.9032	0.124231	-437.852467	-437.845212	-437.844268	-437.883911	28.629	
C	-0.0879241266	 1.5114300994	-0.0062982048	-0.488909
C	 0.0371747672	 0.0181360391	 0.0757248304	 0.474753
O	-1.2525058555	-0.6775112042	 0.065470146	-0.28397
C	-0.913008358	-1.4387097032	 1.1671109549	 0.466048
O	-1.5872697908	-2.2364117599	 1.7299500127	-0.329077
C	 0.4768639345	-0.794143734	 1.3145487879	-0.316287
C	 1.6018154743	-1.4330066414	 0.4598261149	-0.041135
N	 0.9413993129	-2.1395557783	-0.6530347471	-0.323931
C	 1.1577806841	-0.6812698082	-0.749986437	-0.123863
H	 0.8943830154	 1.9829886278	 0.0980501108	 0.128887
H	-0.5052737692	 1.8058656178	-0.9752189299	 0.140795
H	-0.7449387208	 1.8906589074	 0.7809416244	 0.137701
H	 0.7440297597	-0.340135492	 2.2661686266	 0.109611
H	 2.5933247306	-1.6997610835	 0.7996629903	 0.108683
H	 1.6638557099	-2.5919774451	-1.2114772253	 0.24041
H	 1.7243748125	-0.2482746517	-1.5652169649	 0.100284
