14
gdb 131057	3.86885	1.09903	0.9231	3.3556	63.3	-0.2672	-0.0417	0.2255	1190.6958	0.101165	-470.003211	-469.995288	-469.994343	-470.036964	27.654	
O	 0.8979422083	 0.9690367845	 1.3954967592	-0.330564
C	 0.4164434789	 1.4049444038	 0.3677018023	 0.158624
N	 1.0843239826	 1.4867104862	-0.8102176777	-0.2604
C	 2.4872425859	 1.0895788812	-0.9013014133	-0.297155
C	 3.4338305485	 2.0641029689	-0.2698314306	 0.250673
C	 3.7109354107	 2.3268456855	 1.0365241847	-0.028036
O	 4.6177289171	 3.2932948545	 1.1011673971	-0.158012
N	 4.9224581961	 3.6503663975	-0.2543482309	-0.006408
N	 4.2215843743	 2.9254579892	-1.0041019569	-0.173053
H	-0.6261606362	 1.7676171391	 0.2920873721	 0.091166
H	 0.6559782331	 1.96581663	-1.5858554158	 0.260828
H	 2.584939135	 0.1138588483	-0.418549994	 0.153998
H	 2.7450002477	 0.9795818691	-1.9560899842	 0.140473
H	 3.3253286079	 1.919245172	 1.9559735181	 0.197866
