19
gdb 100614	2.09112	1.20829	0.80506	1.375	83.31	-0.2616	0.0322	0.2939	1409.6786	0.154784	-385.812434	-385.80168	-385.800736	-385.848208	39.	
C	 0.0244852538	 1.556506496	 0.0185171594	-0.409394
C	 0.0399974453	 0.0253285546	 0.0292155153	 0.032461
C	 0.7828677463	-0.5083722445	 1.2563540881	-0.093134
O	 2.1162464363	-0.022548232	 1.1996890517	-0.423254
C	-1.4106233381	-0.557754876	-0.0206119055	-0.363197
C	-2.1571335503	-0.0610062643	-1.1821781686	 0.325781
C	-2.76340016	 0.3459038922	-2.1357608274	-0.435789
C	-1.4286439563	-2.0261721779	-0.0052050755	 0.326209
C	-1.442843573	-3.2273698583	 0.0052633577	-0.439689
H	 1.0464635259	 1.9343566139	 0.0812707572	 0.13834
H	-0.4425087228	 1.9429477575	-0.8899021464	 0.128992
H	-0.5332519922	 1.9462562409	 0.8793862361	 0.106585
H	 0.569311274	-0.3366690745	-0.8595835768	 0.102906
H	 0.2720190118	-0.1610781425	 2.1716446001	 0.080139
H	 0.7603919698	-1.6059309438	 1.2579415689	 0.105515
H	 2.6013202771	-0.3925016149	 1.9424953767	 0.288235
H	-1.9289588503	-0.2053092179	 0.8850310187	 0.132794
H	-3.3049974372	 0.7006841054	-2.9775035329	 0.198052
H	-1.46176539	-4.2891714639	 0.0106178033	 0.198448
