11
gdb 133432	3.16262	1.48294	1.00956	3.4324	56.76	-0.2469	-0.0821	0.1648	1024.0651	0.066732	-530.001305	-529.994504	-529.99356	-530.032767	25.422	
O	-0.0417629102	 1.3122999724	 0.0098882507	-0.385589
C	 0.033419746	-0.0249794146	 0.0021394399	 0.489621
N	 1.1974792357	-0.5971139664	-0.0073039	-0.312746
N	 1.1648353131	-1.9572132702	-0.014559817	-0.273018
C	 0.0529679312	-2.7687564668	-0.012969499	 0.318926
O	 0.082948908	-3.9817599284	-0.0197246839	-0.368436
C	-1.166453868	-1.9218034435	-0.0016772929	 0.256246
F	-2.2971449847	-2.5798102269	 0.0008845363	-0.016384
N	-1.1885467219	-0.6460031287	 0.0054074556	-0.313212
H	 0.8624916565	 1.6533689652	 0.0068190821	 0.31687
H	 2.0702966143	-2.4070184222	-0.0219290619	 0.287722
