14
gdb 26799	3.75258	1.15994	0.89102	2.0388	80.67	-0.1947	-0.0228	0.1719	1226.4585	0.100992	-432.85946	-432.850957	-432.850013	-432.892353	31.54	
N	 0.1939755964	 1.3626367962	 0.108456173	-0.605278
C	 0.0083357023	 0.0019336653	 0.0266464795	 0.345877
C	-1.1122208353	-0.7826337241	 0.0071566869	 0.117478
N	-2.4400784544	-0.3042292179	-0.0250686111	-0.621324
N	-0.7189688793	-2.1080615195	 0.0090007336	-0.334425
C	 0.5803245963	-2.0832962316	 0.0226256066	 0.199591
O	 1.0961179287	-0.7977867482	 0.0476729933	-0.200692
C	 1.4963330162	-3.1483535435	 0.004149187	 0.253442
C	 2.2864211646	-4.0570376975	-0.0084585052	-0.372762
H	 0.9877145203	 1.7058215303	-0.4173041345	 0.261804
H	-0.658352191	 1.8578377245	-0.1226468409	 0.268446
H	-2.9023513196	-0.4334568969	 0.8712983392	 0.245229
H	-2.9857503702	-0.82191153	-0.7076661187	 0.246432
H	 2.9770929549	-4.8635677472	-0.0198852685	 0.19618
