19
gdb 61542	3.58639	0.90692	0.80191	2.3862	73.08	-0.2687	-0.0401	0.2286	1434.8772	0.155928	-460.152791	-460.143105	-460.142161	-460.188019	35.084	
C	 0.31169866	 1.5816843269	-0.4986762715	-0.46189
C	 0.039783243	 0.1241025179	-0.1981388161	 0.419218
C	-1.3773365101	-0.3854555653	-0.4206039498	-0.291339
C	-2.3701179293	 0.143554708	 0.6354049329	 0.052731
O	-2.6364771084	 1.5124264263	 0.4823716101	-0.433372
C	-3.6632081435	-0.6428126088	 0.5840375487	 0.134217
O	-4.7315553408	-0.1009067517	 0.4320981604	-0.26066
C	 1.1470081404	-0.8447853537	-0.2300833987	-0.229552
O	 0.6287361552	-0.3714316078	 1.0167413364	-0.276408
H	 1.3488912332	 1.8283238798	-0.2588239623	 0.11992
H	 0.1387772713	 1.7907959433	-1.5599830976	 0.117858
H	-0.3533507488	 2.2264570359	 0.0792308293	 0.159556
H	-1.7348044081	-0.0977566689	-1.4157778971	 0.115208
H	-1.3663524096	-1.4803490134	-0.3690674157	 0.10022
H	-1.9223226724	-0.0572890835	 1.6258764455	 0.117542
H	-3.6012628208	 1.5833639004	 0.4009373973	 0.294585
H	-3.5767219581	-1.7427985009	 0.6968499779	 0.100722
H	 0.9491523302	-1.8932479417	-0.4519101086	 0.108039
H	 2.1527151567	-0.5050608929	-0.4750574412	 0.113404
