14
gdb 28666	5.81511	1.01594	0.86484	0.4696	83.31	-0.226	-0.0301	0.1958	1242.452	0.102309	-399.591513	-399.58418	-399.583236	-399.623239	28.46	
O	 0.0690717788	 1.3453276409	 0.0803375099	-0.413174
C	 0.061239731	-0.000582047	 0.0572682497	 0.441096
N	 0.0968273409	-0.591583908	-1.1325171302	-0.357496
C	 0.0894505805	-1.923991646	-1.167059946	-0.071321
C	 0.0465088927	-2.7336451375	-0.0254778386	 0.092822
C	 0.009515945	-2.0764650181	 1.2194036719	-0.154339
C	 0.0166160797	-0.6975108419	 1.2711377241	-0.19867
C	 0.0408777268	-4.151156939	-0.1288368763	 0.221178
C	 0.0361657996	-5.3522680291	-0.2188197049	-0.414905
H	 0.1014766077	 1.6283919297	-0.8445710658	 0.300909
H	 0.1190829666	-2.3828447036	-2.1511175636	 0.122903
H	-0.0243969004	-2.6617223985	 2.1313505024	 0.11937
H	-0.0108814972	-0.1539533772	 2.2070143422	 0.117431
H	 0.0319935082	-6.4110089547	-0.2985540249	 0.194195
