22
gdb 88863	3.42778	1.07241	0.94049	2.5452	82.52	-0.2279	0.0809	0.3088	1334.7446	0.194991	-404.320849	-404.311797	-404.310853	-404.355623	33.721	
C	-1.5339350894	-0.2685155046	 2.330642095	-0.416713
C	-0.5097300025	-0.8634003224	 1.3870638283	 0.028786
C	-0.1303673931	-0.1740382935	 0.1195934718	-0.256705
N	 0.8403272132	-0.3236764793	 1.1992423237	-0.087179
C	 1.2692693223	 0.8775064157	 1.9119189677	 0.011936
C	 1.9038447875	 0.485306785	 3.2591929116	-0.228899
C	 3.3564304216	 0.2278702611	 2.8547637696	-0.063848
O	 3.6473220528	 1.2401309817	 1.899786124	-0.257372
C	 2.4623365883	 1.5232731141	 1.1607123197	-0.066673
H	-1.588855292	 0.8204418307	 2.262872759	 0.12372
H	-2.5267666524	-0.662765697	 2.0893648306	 0.124103
H	-1.3187423847	-0.5339279298	 3.3717213962	 0.124196
H	-0.5172571529	-1.9529128923	 1.3760130991	 0.090223
H	 0.0698451102	-0.7319044045	-0.7917074927	 0.113493
H	-0.5611580219	 0.8146297337	-0.0427818981	 0.103613
H	 0.4567726345	 1.6062403412	 2.0402236813	 0.056879
H	 1.8507704533	 1.3248656849	 3.9594193858	 0.101202
H	 1.4157021225	-0.3812534452	 3.7106043164	 0.102817
H	 4.0720878968	 0.3263340809	 3.6759684365	 0.101358
H	 3.460694909	-0.7741625692	 2.4123817884	 0.09979
H	 2.5304606505	 1.1109574177	 0.1454773894	 0.100895
H	 2.3621950361	 2.6125331913	 1.0884123668	 0.094378
