18
gdb 99245	4.92883	0.70202	0.62553	1.4594	70.93	-0.2546	-0.0274	0.2272	1764.1712	0.14434	-476.286606	-476.275833	-476.274889	-476.325678	35.313	
C	 0.0886367214	 1.3041548961	-0.15410725	-0.231132
O	 0.0507423256	-0.1130725128	 0.0217660371	-0.265675
C	 0.6147360156	-0.5530543505	 1.1741038567	 0.534271
O	 1.1241743551	 0.1622050322	 2.0104459852	-0.424197
N	 0.5155510198	-1.9047957246	 1.2586008132	-0.37978
C	 1.1613746547	-2.6331032996	 2.3140555471	-0.229281
C	 1.3075696759	-4.0989619352	 1.9237095399	 0.370075
C	 1.9888410178	-4.9958522594	 2.9335571308	-0.477625
O	 0.8905902064	-4.5060395573	 0.8627421003	-0.295852
H	 1.1193422296	 1.6679037555	-0.1786081439	 0.136413
H	-0.4030000762	 1.4960528424	-1.108411578	 0.129255
H	-0.441888	 1.8124799456	 0.6553461535	 0.13745
H	 0.2108480218	-2.44592864	 0.4624926794	 0.265566
H	 2.150025542	-2.2112384264	 2.5397866206	 0.147312
H	 0.5984795365	-2.5832802932	 3.258869139	 0.1357
H	 3.0169466761	-4.6576495727	 3.1049180975	 0.149789
H	 1.4733785217	-4.9490433874	 3.8989160831	 0.146997
H	 1.9973944263	-6.0229974427	 2.5683688384	 0.150712
