18
gdb 18603	3.10674	2.27674	1.83168	2.2951	66.14	-0.2503	0.0686	0.3189	798.599	0.156632	-384.932069	-384.925455	-384.924511	-384.962751	26.661	
O	 0.3249141057	 1.1829725966	-0.5444182511	-0.435428
C	 0.088133459	-0.1222345394	-0.075136404	 0.140996
C	 0.2426194632	-0.3462714296	 1.4569500849	-0.263104
C	-1.277773172	-0.6332219556	 1.582365355	-0.035178
C	-2.1302611964	 0.5549776916	 2.0491877448	-0.095269
O	-2.2343387935	 1.4293727138	 0.9218578911	-0.265484
C	-2.4068336576	 0.572235359	-0.2125978673	-0.113216
C	-1.4176147453	-0.5621882805	 0.0202849945	-0.068652
H	-0.2197355739	 1.7770334425	-0.0093150461	 0.287866
H	 0.7055439844	-0.7778206864	-0.6937585906	 0.086277
H	 0.8761278317	-1.198343286	 1.7163414572	 0.101045
H	 0.6065353366	 0.5319392636	 2.0003108024	 0.098646
H	-1.5532517489	-1.563699444	 2.0805441634	 0.071854
H	-3.1329691633	 0.2162298498	 2.3537338579	 0.092417
H	-1.6896519115	 1.125423038	 2.8716734514	 0.109946
H	-3.4410152043	 0.1974176696	-0.2582300841	 0.093973
H	-2.1974029029	 1.1620476183	-1.1075817036	 0.12366
H	-1.6705728909	-1.4824803513	-0.5080450358	 0.069651
