14
gdb 62368	2.44523	1.83022	1.20744	4.6243	66.6	-0.2626	-0.026	0.2365	978.3431	0.100111	-436.648709	-436.641131	-436.640187	-436.680659	28.907	
O	-0.0337138135	 1.3947440904	-0.0737452251	-0.464322
C	 0.0164288474	-0.0036513046	-0.0105576783	 0.329316
C	 0.9945375111	-0.5254466283	-0.97191549	 0.224924
N	 1.7959929247	-0.8976278023	-1.7168525101	-0.324532
C	-0.0124542923	-0.6938362892	 1.4175221128	-0.245855
C	-1.4824631008	-0.1461015679	 1.5147469822	-0.261592
C	-1.3975453669	-0.6753193173	 0.0342924373	-0.217002
C	-0.6797805641	-1.8711245655	 0.6891408261	 0.452496
O	-0.7075293738	-3.0587981593	 0.7008950393	-0.305805
H	 0.8541374852	 1.743326675	 0.0659274868	 0.303062
H	 0.7726905355	-0.6818708932	 2.1694343886	 0.111852
H	-2.1580816926	-0.6753612996	 2.1853572903	 0.130985
H	-1.5581551203	 0.9343508934	 1.6011657992	 0.147279
H	-2.1527029597	-0.6405263117	-0.746060999	 0.119194
