13
gdb 21798	6.22111	1.20559	1.12009	1.6374	59.96	-0.2581	-0.0406	0.2175	1010.808	0.096943	-394.81383	-394.806792	-394.805848	-394.847105	23.922	
O	-0.4049774366	 0.8466199124	 0.9568383783	-0.224081
C	 0.1085027837	 1.0574354247	-0.1079784019	 0.157175
C	 1.4528094113	 1.7674235108	-0.2775012169	-0.388054
C	 1.3768317685	 2.8395724504	-1.313475283	 0.351218
N	 1.3586217155	 2.6619577952	-2.6243227735	-0.306395
C	 1.2238859533	 3.9296356885	-3.1043850417	 0.02832
N	 1.1572226955	 4.8773235882	-2.1849820773	-0.206093
N	 1.2500276261	 4.15745183	-1.041210729	-0.2339
H	-0.3595456346	 0.7445751997	-1.0652471995	 0.110396
H	 1.7715432839	 2.1488141635	 0.6954895218	 0.1316
H	 2.1771914848	 1.0163146358	-0.615158542	 0.163394
H	 1.1784624699	 4.1592042964	-4.1582844529	 0.131782
H	 1.2303709988	 4.6274952344	-0.1504663724	 0.284638
