15
gdb 131838	5.04021	0.83498	0.7558	1.6714	64.2	-0.2583	-0.0261	0.2322	1433.8533	0.113492	-487.241539	-487.233172	-487.232228	-487.275714	29.398	
O	 0.1054322917	 1.353054652	-0.083451633	-0.402558
C	 0.0809766626	-0.0573149132	-0.0088350207	-0.077388
C	-1.3640252774	-0.5792603227	-0.0757308311	-0.164902
N	-1.4195035245	-2.0278134472	-0.0099217131	 0.14945
N	-1.7026252231	-2.7853039495	-1.0529051029	-0.12514
N	-1.6120731462	-4.0303544797	-0.6398924077	-0.30289
C	-1.2649277125	-3.9539218776	 0.6635650384	 0.483091
O	-1.0752844381	-5.0164593303	 1.4455808572	-0.396759
N	-1.1302449624	-2.7109145409	 1.1041028401	-0.327506
H	-0.1566994967	 1.7070048127	 0.7722403433	 0.292349
H	 0.6389066982	-0.4292602128	-0.8736771998	 0.133987
H	 0.568479779	-0.4408002354	 0.8968727874	 0.124567
H	-1.9523918038	-0.1799618501	 0.755868816	 0.133012
H	-1.8314898522	-0.288556402	-1.0171398701	 0.160061
H	-1.2323761646	-5.8000641333	 0.903508766	 0.320625
