21
gdb 78502	2.49881	1.51607	1.26728	0.9854	82.83	-0.2295	0.0815	0.311	1123.9005	0.181851	-387.046522	-387.037666	-387.036721	-387.079316	34.857	
C	-0.0152956477	 1.6218763065	 0.0161533371	-0.424714
C	 0.0971927249	 0.1021902074	-0.0069036477	 0.043847
C	 0.8309680865	-0.6245487978	-1.1323053144	-0.21141
C	 2.3167105327	-0.7637452542	-0.7201484981	 0.34862
O	 3.2943832306	-1.0710842718	-1.6466854559	-0.470109
C	 2.495190042	-0.0972469259	 0.6390177761	-0.30527
C	 1.0746826349	-0.6536588859	 0.95021634	-0.136551
C	 1.2939577413	-1.7318588754	-0.1976198135	 0.307135
C	 1.1843633333	-3.2187673602	-0.2539188872	-0.532084
H	 0.9511139735	 2.1108252323	-0.1357490181	 0.112698
H	-0.6864682165	 1.9701008332	-0.7771852924	 0.111715
H	-0.4241337911	 1.9726093248	 0.9708343222	 0.111645
H	-0.9007484653	-0.3392003574	 0.1068673019	 0.067507
H	 0.5525881615	-0.7299903862	-2.1751307891	 0.07513
H	 3.4088505663	-0.3145860984	-2.2323519401	 0.283681
H	 3.2576521069	-0.6195122689	 1.2244682657	 0.100642
H	 2.6604367157	 0.9840435036	 0.7056744096	 0.081722
H	 0.7881302568	-0.8716897965	 1.9776079942	 0.065726
H	 0.1582426216	-3.5605812727	-0.0757137845	 0.117541
H	 1.4929129274	-3.5828010331	-1.2395120861	 0.131681
H	 1.8290980847	-3.6987572434	 0.4916914202	 0.120846
