15
gdb 48472	2.52259	1.46061	1.19512	5.3413	72.03	-0.251	-0.0505	0.2005	1061.6888	0.112256	-416.817649	-416.809349	-416.808405	-416.851215	29.731	
O	-0.6954668819	 0.824314776	-0.7310223208	-0.230708
C	 0.0565452131	 1.1170800036	 0.1529376242	 0.159998
C	 1.3430524566	 1.9620660393	-0.0076952237	-0.001184
N	 1.4835508948	 2.8438863476	 1.157125584	-0.348043
C	 2.8495858487	 2.7530278774	 1.7008281453	-0.209092
C	 3.377985129	 1.5011228596	 1.0614891659	-0.060795
C	 2.5627277737	 1.0559342386	 0.1123214469	-0.099365
C	 1.3398987822	 2.6784935887	-1.2978238197	 0.261758
N	 1.3569319644	 3.2887632291	-2.2789621226	-0.331002
H	-0.0773816338	 0.8031797232	 1.2095639979	 0.100909
H	 1.1802543639	 3.7891363137	 0.9673264388	 0.2467
H	 3.4829206134	 3.6183876226	 1.4474573541	 0.121317
H	 2.8241050383	 2.6851552542	 2.7963574263	 0.126177
H	 4.3239351821	 1.0545471444	 1.3409616652	 0.126178
H	 2.6955404354	 0.1985645721	-0.5329732517	 0.137153
