16
gdb 71979	2.87332	1.68434	1.22724	4.2209	74.31	-0.2374	0.0165	0.254	996.5688	0.125953	-396.858524	-396.851078	-396.850134	-396.89018	29.287	
N	-0.1272841933	 1.3829206548	 0.0829440218	-0.599233
C	 0.0569903378	-0.0125085789	-0.0153312782	 0.243983
C	 0.9193581803	-0.9137929867	-0.8994634195	-0.233009
N	 0.0377775418	-2.0817289247	-0.4996932294	-0.167703
C	 0.4028350358	-2.2475030915	 0.9590603134	-0.234064
C	-0.2530951803	-0.9015905413	 1.2396059057	 0.181219
C	-0.6639913165	-0.3333526569	 2.4768009808	 0.184507
N	-0.9731681669	 0.0955183127	 3.5068681609	-0.356766
C	-1.018581915	-1.0512201444	-0.0615319365	-0.099415
H	 0.6500570039	 1.8465095296	 0.5405864577	 0.246834
H	-0.2739206603	 1.8108263553	-0.8244439963	 0.242597
H	 0.7756267603	-0.6982056974	-1.9622739117	 0.114937
H	 1.9854042705	-1.048155781	-0.6868261131	 0.106603
H	-0.1561265219	-3.0808814167	 1.3894188319	 0.130722
H	 1.472480511	-2.370524946	 1.1558065618	 0.114054
H	-2.0735669772	-1.0602177767	-0.2941049695	 0.124735
