19
gdb 26267	3.44861	1.12432	1.04033	0.6852	84.42	-0.2422	-0.044	0.1982	1247.2923	0.160663	-382.129096	-382.120564	-382.11962	-382.163145	31.638	
C	-0.0247070985	 1.592263297	 0.2419725706	-0.393464
C	-0.0383889476	 0.0700418074	 0.0141186488	-0.06016
C	 0.8702552027	-0.6545910292	 1.0233738025	-0.393421
C	-1.4487604867	-0.486490012	 0.029857488	 0.312886
C	-2.2709908624	-0.417912438	 1.1645046907	-0.042906
N	-3.5105059705	-0.9021969934	 1.1928217121	-0.235722
C	-3.9451173759	-1.4697777902	 0.0641943366	-0.014562
C	-3.1427800015	-1.545545729	-1.0681816316	-0.019763
N	-1.8998591837	-1.0584273395	-1.0923117455	-0.304975
H	 0.9957298889	 1.9796636085	 0.1581741283	 0.117642
H	-0.6460611479	 2.109819985	-0.4948994849	 0.123837
H	-0.3966577536	 1.8530434292	 1.2388526023	 0.117293
H	 0.3387602918	-0.1303514678	-0.9939631123	 0.096186
H	 0.8847607636	-1.7333227119	 0.8415712243	 0.123859
H	 1.8969701757	-0.2829296098	 0.9451516053	 0.117634
H	 0.5369192423	-0.4911752573	 2.0540614457	 0.117283
H	-1.9121005225	 0.0451389281	 2.0805150723	 0.109711
H	-4.9548766425	-1.8715123455	 0.066504452	 0.114802
H	-3.5068880515	-2.0098253816	-1.9816000852	 0.113839
