18
gdb 40038	3.59874	1.5454	1.43404	2.0036	74.08	-0.2268	0.0867	0.3135	956.6275	0.149801	-401.879272	-401.872667	-401.871723	-401.910087	27.49	
C	 0.080129911	 1.5368643014	 0.0152732653	-0.257286
O	 1.2119771415	 0.6569836758	-0.0215216648	-0.289861
C	-0.094025907	 0.0805917753	 0.015578218	 0.439373
C	-0.4846874568	-0.7776529453	 1.2324197793	-0.265494
N	-1.4373297229	-1.7812192236	 0.7228081307	-0.130481
C	-2.636634398	-1.0718359158	 0.1311546568	-0.184094
C	-2.0096219777	-1.1629175568	-1.2508951053	-0.095374
C	-0.9702434345	-2.0866579874	-0.669797978	-0.043415
C	-0.541085637	-0.7373301123	-1.1684689189	-0.131177
H	-0.0421238751	 2.100054419	 0.9404031024	 0.110921
H	-0.097969152	 2.1060646636	-0.8969567475	 0.111324
H	 0.41063398	-1.2853672632	 1.6085155093	 0.121684
H	-0.9292509047	-0.2076047322	 2.0526113586	 0.11003
H	-3.5279139958	-1.6969408728	 0.2359796702	 0.112566
H	-2.8407578	-0.0799009237	 0.5512274208	 0.100026
H	-2.5234254413	-1.2269051483	-2.2025994162	 0.092221
H	-0.5919066639	-3.0575442764	-0.9608709492	 0.09742
H	-0.0078213558	-0.6385152575	-2.1062200615	 0.101618
