20
gdb 87874	3.21963	1.21162	1.19005	1.7976	78.93	-0.2409	0.0679	0.3088	1159.2971	0.171203	-403.087391	-403.079176	-403.078232	-403.120281	31.817	
C	-0.1059148666	 1.5528569009	 0.1517172589	-0.391458
C	-0.0867242862	 0.0449229411	 0.2061275924	-0.072816
N	 1.162653815	-0.6192695812	-0.2264503873	-0.39361
C	 0.7432292379	-0.7123430341	 1.1720060488	 0.358245
C	 1.6310729583	-0.2284145402	 2.3343343106	-0.312081
C	 1.2051220029	-1.4848758733	 3.1293913271	 0.120379
O	 0.0046644806	-1.283932201	 3.9057161807	-0.293075
C	-0.8230097309	-1.8698181714	 2.8742513588	-0.076992
C	 0.3742180416	-2.0048715748	 1.9176551429	-0.187205
H	 0.8621975932	 1.9606333034	 0.4538217687	 0.128601
H	-0.3159539209	 1.9036772973	-0.8643740478	 0.120153
H	-0.8765544806	 1.9581428028	 0.8164776518	 0.117193
H	-1.0206892756	-0.4347649	-0.0889434536	 0.078227
H	 0.9526625917	-1.4865265047	-0.7162273498	 0.225355
H	 2.6913929436	-0.2172973206	 2.0653016815	 0.111099
H	 1.3630862554	 0.7180414746	 2.8101435062	 0.112297
H	 1.9648881703	-2.0521228464	 3.6721562016	 0.078362
H	-1.2484939126	-2.8263298767	 3.2048778767	 0.098566
H	-1.6355548339	-1.2041225895	 2.5586373626	 0.10204
H	 0.5345765068	-2.955357976	 1.4071627993	 0.076718
