13
gdb 42545	4.63399	1.22598	1.1482	1.2879	67.85	-0.2714	-0.0403	0.2311	1016.8431	0.089941	-415.563533	-415.556774	-415.55583	-415.594912	25.612	
O	 0.0486747464	 0.0793911473	-0.1979826436	-0.289337
C	-0.0292766343	 1.2533160778	-0.0584675538	 0.449575
C	-1.0978058926	 2.2938891031	 0.070342323	-0.265335
C	-0.0661038608	 3.1551989833	 0.7583175584	-0.063093
N	 1.0450290784	 2.2677915277	 0.1836948742	-0.219904
C	 0.9371504893	 3.0613715353	-1.1082473822	-0.241292
C	-0.4439292017	 3.5368146653	-0.6360933227	 0.198152
C	-1.2400425077	 4.6260243828	-1.0999889926	 0.176976
N	-1.8636052016	 5.5170530905	-1.4945223839	-0.328687
H	-2.1676743326	 2.2338333703	 0.215245704	 0.146093
H	-0.0616716524	 3.6561199138	 1.7137679793	 0.148817
H	 1.6684964032	 3.870782255	-1.1188383602	 0.145726
H	 1.0117141365	 2.4583604779	-2.0175747599	 0.14231
