19
gdb 84355	2.54374	1.46687	1.19214	2.5215	76.52	-0.2465	-0.0277	0.2188	1118.9142	0.157328	-423.056278	-423.046977	-423.046033	-423.090056	34.944	
C	-0.1862067351	 1.6220034569	-0.0654001743	-0.422226
C	 0.0158586764	 0.09918019	-0.0754449463	 0.116694
C	-1.34377443	-0.6222397775	 0.0754493051	-0.422635
C	 0.8001694873	-0.4021959095	-1.2742827982	-0.094573
C	 1.8429521958	-1.1712090007	-0.9549547318	-0.112012
C	 1.943394224	-1.3977353574	 0.5302327649	 0.011985
O	 3.2342817996	-1.2213033977	 1.0678550083	-0.441929
C	 0.9579352233	-0.3400010795	 1.058937986	 0.344504
O	 1.0244911103	 0.123239118	 2.1696265437	-0.336224
H	 0.7605713907	 2.1485525848	-0.2151799232	 0.125147
H	-0.8752445334	 1.9224935169	-0.8614089151	 0.113708
H	-0.6033156405	 1.9408137164	 0.8937485399	 0.136484
H	-1.9946491994	-0.3759934093	-0.769815091	 0.122675
H	-1.2244789826	-1.7094705878	 0.1009341259	 0.122414
H	-1.8438759252	-0.3057269857	 0.9961508796	 0.133158
H	 0.5070440883	-0.1428481954	-2.2866763135	 0.102755
H	 2.5323405976	-1.6291636748	-1.6539620699	 0.112848
H	 1.5563582175	-2.4012949608	 0.7914846979	 0.094278
H	 3.1032491654	-0.828589387	 1.942443322	 0.292951
