22
gdb 16366	2.51699	2.02299	1.37393	0.1742	82.11	-0.2587	0.0872	0.3459	1023.0756	0.199831	-313.05627	-313.047603	-313.046659	-313.088989	33.693	
C	-0.0244286965	 1.5943444016	-0.0341648336	-0.411573
C	 0.0361667971	 0.0762431712	 0.0393039127	-0.028213
C	 1.0355136658	-0.6742751322	-0.8897427406	-0.247394
C	 1.4053107881	-1.6213053444	 0.2898686819	-0.028213
C	 2.8666660435	-1.9902116049	 0.4949292865	-0.411573
C	 0.7293067708	-0.6077378082	 1.234225507	 0.361337
C	 1.3913672742	 0.096256939	 2.3860593547	-0.319293
C	 0.2113647763	-0.8205870398	 2.6223497409	-0.332957
H	 0.9723553511	 2.035407576	 0.0737932241	 0.113002
H	-0.4331243441	 1.9223791374	-0.9964528725	 0.112184
H	-0.6631550063	 2.0126233862	 0.7526789519	 0.111002
H	-0.9727109369	-0.3370610125	-0.0859256829	 0.067454
H	 0.6357514931	-1.1308661321	-1.7987032827	 0.090281
H	 1.880741472	-0.0329275986	-1.1632043511	 0.093037
H	 0.8004837304	-2.5355761997	 0.2385837573	 0.067454
H	 3.4980432074	-1.0960947826	 0.536016034	 0.113002
H	 3.0162981936	-2.5493887339	 1.426048434	 0.111002
H	 3.2293569431	-2.6185876034	-0.3261895396	 0.112184
H	 2.3720791134	-0.2426142551	 2.7045023727	 0.108267
H	 1.2368898322	 1.1648630299	 2.4967530753	 0.108267
H	-0.7398247724	-0.3699182386	 2.890700068	 0.105372
H	 0.3966895841	-1.7790382954	 3.0986917723	 0.105372
