20
gdb 51474	3.38194	0.96337	0.94101	3.5048	79.4	-0.2299	-0.019	0.211	1341.8824	0.17109	-403.136508	-403.127882	-403.126938	-403.171523	31.762	
O	 1.9432431628	-0.6123429934	 0.2208480566	-0.245023
C	 1.6125217389	 0.3911588085	-0.3537306616	 0.158326
C	 1.9117617058	 1.7992037931	 0.1531899152	-0.237152
N	 1.7666345223	 2.7573123343	-0.9273458215	-0.109982
C	 1.3895786281	 4.1542523633	-0.7450410502	-0.024793
C	 1.5200239081	 4.8048994412	 0.6228742446	-0.228981
C	 2.9735558073	 4.5308253755	 1.0883530588	-0.220636
C	 3.7792068265	 4.1906817216	-0.1928092237	-0.230314
C	 2.7527241549	 3.7862384719	-1.240344027	-0.027347
H	 1.0469128979	 0.3747595583	-1.31172626	 0.086949
H	 1.1937353015	 2.0012927893	 0.9617907795	 0.131501
H	 2.907731093	 1.7783288575	 0.6124292776	 0.129485
H	 0.5988052571	 4.5024213919	-1.4055810403	 0.088382
H	 1.3369760538	 5.8794317287	 0.507118679	 0.107517
H	 0.7778359879	 4.4398846148	 1.3422317367	 0.104353
H	 3.3976149329	 5.3894717432	 1.6148671391	 0.103185
H	 2.9983009149	 3.6961855531	 1.7927277488	 0.110201
H	 4.3159275512	 5.0701075841	-0.5665755324	 0.10767
H	 4.5361625664	 3.4181296358	-0.015125489	 0.107632
H	 3.0360068385	 3.8490588673	-2.2883800102	 0.089027
