17
gdb 48369	2.52684	1.42883	1.04732	3.0297	68.4	-0.2502	-0.0466	0.2035	1136.8144	0.13426	-458.918966	-458.910442	-458.909498	-458.953119	30.22	
O	-1.0049429951	 1.3178331633	-0.1414905987	-0.254758
C	 0.0808144024	 0.9713550059	 0.2469768442	 0.133651
C	 1.3511517683	 1.7115478418	-0.0540195713	 0.268146
C	 2.3776343466	 1.698584863	 1.0121995721	-0.223688
O	 2.4908330611	 0.8326230605	-0.1048320449	-0.250802
C	 1.2597030462	 2.8137551176	-1.0737188507	-0.122953
C	 2.56438876	 3.4277791215	-1.6261380872	-0.100104
O	 2.1849464436	 3.1217996229	-2.9810435236	-0.270446
C	 1.0140557115	 2.4021556013	-2.5456093538	-0.077508
H	 0.2339879762	 0.0547427679	 0.8580498165	 0.092686
H	 3.087557899	 2.523505942	 1.0484553382	 0.133191
H	 2.1732540421	 1.2135620253	 1.9659573056	 0.129231
H	 0.5384717566	 3.5543461099	-0.723047751	 0.105779
H	 2.6995181822	 4.5036526223	-1.4676989851	 0.103576
H	 3.4768971896	 2.8949378326	-1.3311543289	 0.110989
H	 1.0995917216	 1.3252637894	-2.7397377968	 0.107628
H	 0.0968020781	 2.7808744129	-3.0071801447	 0.115383
