20
gdb 10363	2.58616	1.50955	1.02696	2.4216	67.78	-0.2338	0.0696	0.3034	1171.0856	0.173727	-423.256761	-423.246394	-423.245449	-423.292112	36.453	
C	 0.9425664504	 0.8286276215	 0.777285506	-0.238608
O	 0.022564278	 0.2533177685	-0.131599667	-0.252709
C	 0.5881338728	-0.5033369997	-1.1854498805	 0.092604
C	 1.0076874917	-1.9101171434	-0.7397437172	-0.077074
O	 2.1498269723	-1.9296202296	 0.1102356758	-0.421528
C	-0.4709879034	-0.5728697645	-2.3065075865	 0.10828
C	-0.9783231905	 0.8047074349	-2.7209164847	-0.410301
O	 0.0370549095	-1.3037545475	-3.4214041142	-0.429059
H	 1.4945014965	 0.0706680074	 1.3413788282	 0.135857
H	 1.6683160432	 1.4722733237	 0.2542939561	 0.09345
H	 0.3597612415	 1.4483553358	 1.4639742598	 0.119848
H	 1.4771956148	 0.0225391518	-1.5885951328	 0.036406
H	 0.1906374237	-2.3401537174	-0.1509531099	 0.116224
H	 1.1568037705	-2.5340523614	-1.6295720115	 0.109557
H	 2.9170731941	-1.6972931836	-0.4221909787	 0.27996
H	-1.3135464866	-1.1710929215	-1.9378047601	 0.098848
H	-1.4176020942	 1.3269611266	-1.8697572476	 0.141706
H	-0.1531767689	 1.420671534	-3.1032963652	 0.098921
H	-1.7266699532	 0.7054383083	-3.5119222833	 0.120253
H	 0.6393963978	-0.7226696639	-3.8990651767	 0.277366
