16
gdb 69863	2.74166	1.65831	1.19947	4.2747	73.75	-0.2511	-0.0103	0.2407	1024.6961	0.12305	-400.685191	-400.677362	-400.676418	-400.717318	30.178	
C	-0.0233845534	 1.5576206816	 0.1189468549	-0.501819
C	 0.0175538023	 0.0607763755	 0.0505023578	 0.264163
C	-0.8982375175	-0.8880135108	 0.7692533477	-0.333895
C	 0.5887343159	-0.9633644663	 1.0268411647	-0.144469
C	 1.3230398586	-1.6588881596	-0.1520162837	-0.054002
O	 0.3814148027	-2.0827167926	-1.138794963	-0.267258
C	 0.7636610623	-0.6984885754	-1.1145348871	 0.270619
C	 1.3098083665	-0.1065622924	-2.2915018879	 0.202784
N	 1.7459957418	 0.422397201	-3.2235473559	-0.344104
H	 0.9616166363	 1.9968216692	-0.0731329148	 0.134544
H	-0.7202512257	 1.9689143944	-0.620283862	 0.13812
H	-0.3513653171	 1.8873489266	 1.1092086089	 0.127623
H	-1.4656261363	-0.4299628023	 1.5734693049	 0.121712
H	-1.4053186542	-1.6886389778	 0.2460713779	 0.143934
H	 1.0425530166	-0.7927285123	 1.9934880726	 0.106133
H	 2.2901504712	-2.1458268288	-0.1380227351	 0.135914
