16
gdb 75064	2.42999	1.85962	1.14021	4.0444	72.18	-0.2167	-0.0268	0.19	1042.6449	0.123773	-437.909282	-437.90102	-437.900076	-437.942029	30.662	
C	-0.0270072325	 1.5090649978	 0.0465806867	-0.506518
C	 0.0118795244	 0.019301437	-0.0063223755	 0.168497
C	-0.046382426	-0.7902547614	-1.0739852162	-0.127855
N	 0.0013683083	-2.1524526851	-0.713605878	-0.369029
C	 0.050622524	-2.3031483087	 0.6570776247	 0.382266
O	 0.0647134418	-3.3336305007	 1.2865528722	-0.36492
C	 0.1055923918	-0.8687588732	 1.1842337107	 0.248957
C	 0.7916732129	-0.5916604156	 2.4616369597	-0.227749
O	-0.6257864013	-0.5863408931	 2.3830922078	-0.260401
H	 0.9169711666	 1.9306603821	 0.4152707941	 0.12726
H	-0.2169515372	 1.9349106106	-0.9424290621	 0.126166
H	-0.8157262313	 1.852416294	 0.7256191635	 0.145053
H	-0.1134935795	-0.5233855683	-2.1194074733	 0.13472
H	-0.1005797301	-2.9274824684	-1.3466929632	 0.26477
H	 1.2251709061	-1.4331632112	 2.999545121	 0.139307
H	 1.262654022	 0.3786821142	 2.6110974179	 0.119476
