20
gdb 106190	3.74823	1.42255	1.29494	1.6694	80.87	-0.2182	0.0857	0.3038	1065.4823	0.172716	-365.965632	-365.958227	-365.957283	-365.9974	30.122	
C	 0.1010255459	 1.546754382	 0.1352821964	-0.38822
C	 0.0064618191	 0.0252341328	-0.0114036725	-0.308908
C	 0.526151494	-0.4969175091	-1.3203193655	 0.367698
C	 0.7959141347	-1.9846321692	-1.6298797832	-0.181806
C	 1.0079535905	-2.0043601955	-3.137232837	-0.0808
C	 0.3665061419	-0.7923657783	-3.7800350118	-0.246922
C	 0.5723180987	 0.1834144598	-2.6431395776	-0.097116
N	 1.8523442256	-0.0895871632	-1.9015359297	-0.200287
C	 2.108556359	-1.5453795055	-2.216962183	-0.014493
H	 1.1247082027	 1.8854090243	-0.0484850826	 0.141789
H	-0.5585855117	 2.060383278	-0.5714483382	 0.114391
H	-0.1879674759	 1.8563491432	 1.1436212982	 0.110434
H	 0.572146129	-0.4560109286	 0.7977519226	 0.104694
H	-1.0353000204	-0.3035615734	 0.1082556769	 0.099388
H	 0.53575184	-2.8403386207	-1.0225624803	 0.089214
H	 1.1005294806	-2.9565878596	-3.6443496428	 0.090284
H	 0.8812382461	-0.4807007376	-4.695398055	 0.107569
H	-0.6955807861	-0.9366170255	-4.0067590777	 0.105331
H	 0.3332476922	 1.2354105008	-2.7458533486	 0.093272
H	 3.1110494541	-1.9470836448	-2.1591930786	 0.094487
