20
gdb 106706	2.46468	1.46853	1.1865	1.678	79.03	-0.2253	0.0839	0.3093	1143.1894	0.170801	-403.086615	-403.077973	-403.077029	-403.119862	33.665	
C	-0.3170108126	 1.4524078328	-0.0012291	-0.374117
C	 0.2001344434	 0.0085213938	-0.0645924508	-0.287651
C	 0.8678192688	-0.4508048285	 1.2017240519	 0.277948
C	 0.1086852256	-0.9496595441	 2.4231147725	-0.382959
C	 1.0321950145	-1.9026281244	 1.7319893767	 0.384052
O	 0.5463956635	-3.0772296544	 1.1958545331	-0.463518
C	 2.4702574834	-1.6132192295	 2.0704431573	-0.155296
N	 3.1347071174	-1.18349322	 0.804521818	-0.35297
C	 2.313141696	-0.2141964705	 1.5790937371	-0.119495
H	 0.4984651765	 2.1572310555	 0.1940955813	 0.113051
H	-0.7896235433	 1.7442256867	-0.9445012597	 0.110014
H	-1.0560491196	 1.5713647002	 0.7980112739	 0.115608
H	-0.6321846833	-0.6703007359	-0.2903182536	 0.101155
H	 0.9144629392	-0.0937410715	-0.8908275626	 0.108968
H	 0.3261455821	-0.5755788686	 3.420453398	 0.102892
H	-0.9430659208	-1.1521997343	 2.242569491	 0.121411
H	 1.1062744404	-3.293412852	 0.4399296195	 0.293161
H	 3.0552639348	-1.9783616346	 2.9071456522	 0.093263
H	 4.113651856	-0.9982394371	 1.0315181806	 0.2229
H	 2.7627223779	 0.6775401065	 2.0012816537	 0.091585
