21
gdb 59874	3.16776	0.80658	0.72034	2.758	75.7	-0.2604	-0.0296	0.2307	1632.8311	0.178592	-461.385177	-461.374269	-461.373324	-461.422054	39.263	
C	 0.440107282	 0.6735330848	-0.5505140842	-0.411664
C	-0.1293965845	-0.026920711	 0.6801445179	 0.141111
O	-0.3243239666	 0.8819912647	 1.7597009795	-0.431342
C	-1.4391731806	-0.7853891869	 0.3961708825	-0.329775
C	-1.282240414	-2.0699276538	-0.3902677095	 0.353935
O	-0.2688551823	-2.3514968281	-0.9998288005	-0.33058
C	-2.4401084964	-3.075056234	-0.3896974942	 0.072042
C	-3.7508236135	-2.4615231595	-0.9015964434	-0.403456
O	-2.0976661374	-4.194248691	-1.1606232483	-0.439011
H	 1.3551002665	 1.2103036911	-0.2858761119	 0.125545
H	 0.6653023809	-0.0516596622	-1.3349737729	 0.14902
H	-0.2800776028	 1.4006251996	-0.9497579142	 0.098786
H	 0.606290968	-0.747903057	 1.0524025248	 0.104827
H	-0.816798764	 1.6386876918	 1.4230529098	 0.276327
H	-1.9295599618	-1.0126529859	 1.3501479597	 0.132941
H	-2.1411815147	-0.1390465145	-0.1516175594	 0.125525
H	-2.585535175	-3.3714661134	 0.6653991266	 0.090961
H	-3.6201814024	-2.0683002239	-1.9144254472	 0.12689
H	-4.5141628795	-3.2424118056	-0.9368693558	 0.139577
H	-4.1081037895	-1.6599422383	-0.248672327	 0.116109
H	-1.1847088324	-4.034722577	-1.4506736223	 0.292231
