13
gdb 130303	3.41257	1.61687	1.1097	3.3094	60.7	-0.2067	0.0118	0.2185	994.1714	0.090626	-489.827488	-489.820416	-489.819472	-489.85901	26.543	
N	-0.0161913488	 1.4169699407	 0.156136906	-0.59652
C	 0.0573287582	 0.0433093693	 0.0512675325	 0.293078
N	-1.0583277899	-0.6906179586	-0.0007884131	-0.248924
O	-0.6377163835	-2.0762117037	-0.0274197397	-0.234872
C	 0.6738849383	-2.0339717616	-0.0001942851	 0.460744
C	 1.1890242684	-0.8001884203	 0.0589213311	 0.09594
O	 2.5755567609	-0.86056549	-0.007193254	-0.293769
C	 2.8170021362	-2.2569416908	 0.2250922181	 0.003996
O	 1.595762025	-3.0132847841	-0.0697526323	-0.283784
H	 0.7246748465	 1.9119608663	-0.3190023384	 0.263093
H	-0.9302852819	 1.7807512291	-0.0785532324	 0.265762
H	 3.6100382223	-2.6078577498	-0.4358411375	 0.147102
H	 3.0581988082	-2.4226226365	 1.2841819549	 0.128154
