16
gdb 123337	6.85124	0.73842	0.69444	2.755	77.89	-0.2562	-0.0147	0.2415	1557.2054	0.123771	-400.714669	-400.706285	-400.705341	-400.748933	30.198	
C	 0.0238550698	-1.2342796318	-0.1353147347	-0.435485
C	-0.021822887	-0.0335102299	-0.1174171378	 0.294759
C	-0.0385067704	 1.4224416076	-0.0866576668	-0.351462
C	 1.3722068415	 2.0191505516	 0.157478144	-0.312215
C	 1.3613601282	 3.5088660709	 0.1955078798	 0.438119
C	 1.650887624	 4.4284433729	 1.1569459011	-0.345431
C	 1.4144788752	 5.671432556	 0.5121878371	 0.037318
N	 1.0155767272	 5.5214454291	-0.7259249212	-0.137868
O	 0.9810388278	 4.1428894112	-0.9309756107	-0.211941
H	 0.0468501286	-2.2956259474	-0.1570881869	 0.198673
H	-0.4321270116	 1.814511108	-1.030999997	 0.155647
H	-0.7183338961	 1.7715228164	 0.6999469317	 0.139739
H	 1.7719856235	 1.6449792177	 1.1030928502	 0.132672
H	 2.0428092569	 1.6737185895	-0.6367901121	 0.142792
H	 1.9829221743	 4.2478456887	 2.1654855293	 0.120863
H	 1.5223117782	 6.6712611193	 0.9088690141	 0.133819
