23
gdb 78028	2.29112	1.43659	1.23993	1.3591	85.33	-0.2488	0.074	0.3228	1181.5252	0.205916	-388.295581	-388.285961	-388.285017	-388.329549	36.97	
C	-0.2463703215	 1.514585905	-0.1216778446	-0.418503
C	 0.0615708697	 0.0333822075	-0.02299869	-0.038467
C	 1.3820371017	-0.6476003274	-0.3285303744	-0.099671
C	 2.6687704364	 0.1493102013	-0.3503796936	 0.124987
O	 2.6958134305	 1.0134941327	-1.4842828391	-0.438098
C	 2.7321198146	 0.9027668234	 1.0063559442	-0.273001
C	 1.7487991805	 0.1821428286	 1.9579190454	-0.272738
C	 0.8208211018	-0.6673326362	 1.0830236896	 0.321161
C	 0.2385341481	-1.9116177396	 1.713856176	-0.479514
H	-0.2757321482	 1.8334947423	-1.1681585404	 0.128236
H	-1.2274173273	 1.721744883	 0.3210301489	 0.107013
H	 0.4787067768	 2.1487890026	 0.3889134584	 0.117236
H	-0.7737756152	-0.5667965403	-0.3813603766	 0.077363
H	 1.3458857687	-1.5340804756	-0.9540231402	 0.073891
H	 3.5069884303	-0.5626147698	-0.4166638885	 0.060916
H	 3.5545808117	 1.4479321348	-1.5044896686	 0.278052
H	 3.7485750598	 0.9222922455	 1.4117783694	 0.090687
H	 2.4428917877	 1.9421280168	 0.8327227083	 0.111727
H	 2.2933219068	-0.4878016394	 2.6335921813	 0.095726
H	 1.2008921464	 0.8856040315	 2.5961197806	 0.096828
H	-0.4221929361	-1.6599656422	 2.5526350373	 0.114274
H	-0.351231962	-2.4861435744	 0.9925223196	 0.112627
H	 1.0262717588	-2.5690173302	 2.1020210367	 0.109268
