18
gdb 103665	2.72484	1.20989	0.99504	3.9729	72.25	-0.2699	-0.0035	0.2664	1222.0621	0.146339	-439.080499	-439.071314	-439.07037	-439.114829	33.665	
C	-0.4743358345	 1.676405933	-0.132406176	-0.444246
C	 0.0190481088	 0.2437472029	-0.1766390124	 0.398784
C	-1.0813241753	-0.77325951	 0.1334260322	-0.095986
O	-1.5552125574	-0.6112488125	 1.4528874754	-0.41647
C	 0.9594078949	-0.1518966442	-1.3406569832	-0.365071
C	 2.0023971841	-0.4298258723	-0.2293970737	-0.00163
O	 1.1084084128	 0.0347553142	 0.7971216636	-0.328384
C	 2.39027754	-1.8334586813	-0.0506705811	 0.277255
N	 2.6927634967	-2.9412891769	 0.0796611386	-0.317894
H	 0.3576729708	 2.379506839	-0.2243347988	 0.119565
H	-1.1776101364	 1.8580144443	-0.9525152639	 0.123206
H	-0.9941496184	 1.859805797	 0.811129081	 0.147506
H	-1.9345006854	-0.6230206595	-0.5376794237	 0.112968
H	-0.6945543573	-1.7904540693	-0.034101357	 0.100205
H	-0.7860914871	-0.7127396188	 2.0276262122	 0.295868
H	 0.65425411	-1.0173357169	-1.9295590851	 0.13606
H	 1.2365408659	 0.6676065107	-2.0038914187	 0.126611
H	 2.9114942376	 0.1799230406	-0.2754461093	 0.131654
