21
gdb 58595	2.34321	1.28601	0.97258	1.2522	83.08	-0.2565	0.0461	0.3026	1293.3946	0.179121	-387.041942	-387.031726	-387.030782	-387.077224	38.134	
C	 0.5484685642	 0.5816869386	-1.0845798751	-0.409596
C	 0.1626440876	 0.3935920997	 0.3883254965	-0.040543
C	-0.9674860473	-0.6390467232	 0.5304767138	-0.392219
C	 1.3579424528	 0.0645419711	 1.2842747338	 0.411062
C	 1.0979600295	 0.0734144276	 2.799154947	-0.431219
C	 0.6168479273	-1.1907264186	 3.3450891157	 0.323098
C	 0.2451028013	-2.2392440083	 3.8007397483	-0.468187
C	 2.5178258431	-0.701083838	 0.8088246488	-0.220939
O	 2.5868370914	 0.7236930779	 0.9417651168	-0.279852
H	 0.7969158989	-0.3740870843	-1.5592122025	 0.112347
H	-0.2941515127	 1.0067877453	-1.6380536209	 0.11162
H	 1.4052354044	 1.2507003536	-1.1861099122	 0.136374
H	-0.2180683055	 1.3595471141	 0.7534414351	 0.079949
H	-0.6324321699	-1.6299603063	 0.2049578708	 0.117342
H	-1.3215212334	-0.7334982479	 1.5593739778	 0.129727
H	-1.8179436225	-0.3504202812	-0.0953940605	 0.111037
H	 2.0452337077	 0.3404020083	 3.2808685749	 0.147578
H	 0.3904495993	 0.8767981513	 3.0413864527	 0.131081
H	-0.0904110873	-3.1624724826	 4.2037651984	 0.198214
H	 3.1118091772	-1.2667170409	 1.5255304604	 0.117418
H	 2.5516210637	-1.0738255559	-0.2121952698	 0.115709
