19
gdb 52093	5.15642	0.78095	0.76617	2.7462	77.12	-0.2582	-0.029	0.2292	1513.3854	0.157776	-422.974544	-422.965936	-422.964992	-423.009504	31.352	
O	-0.2370008277	 0.2389677236	 0.5216746962	-0.237781
C	 0.062578935	 1.1393700248	-0.2158594801	 0.136972
C	 1.3734451796	 1.8999262192	-0.1206521514	-0.18214
O	 1.3830672611	 2.8803282862	-1.1334713988	-0.301935
C	 2.5230440505	 3.6589583051	-1.1736195651	 0.456819
C	 3.997533661	 3.210072999	-1.4384356793	-0.282802
C	 4.0123424008	 4.7609367395	-1.3140448307	-0.050542
C	 2.7333930121	 4.7874265037	-2.203837756	-0.2746
C	 3.0792882386	 4.624642667	-0.0764394017	-0.282795
H	-0.6005265517	 1.4927958891	-1.0357244191	 0.099117
H	 1.4533812974	 2.3439927515	 0.8838401305	 0.130418
H	 2.2054168337	 1.1867164938	-0.2294742589	 0.130382
H	 4.5032816324	 2.6537831917	-0.6448674407	 0.092875
H	 4.2104530565	 2.7948764204	-2.4268308166	 0.096545
H	 4.8805378855	 5.4084518872	-1.4012405953	 0.08705
H	 2.8527605722	 4.479903056	-3.2456828187	 0.096491
H	 2.0853350345	 5.6620699639	-2.1074933025	 0.096496
H	 2.46016002	 5.4912065639	 0.1693127635	 0.09655
H	 3.5184094284	 4.1709584144	 0.8159384048	 0.09288
