23
gdb 41816	2.22581	1.86917	1.4002	1.3187	83.27	-0.2382	0.0709	0.3091	1059.8081	0.210757	-388.320009	-388.312368	-388.311423	-388.351829	31.573	
C	-0.0350476483	 1.2884921201	-0.5750991675	-0.221179
C	 1.0138739428	 2.0275874111	 0.2796585089	-0.248634
C	 1.8881541016	 0.8946930745	 0.889952669	 0.12606
C	 1.8406238939	 0.826839335	 2.4318089038	-0.220429
C	 0.674373517	 0.0051916689	 3.0147548739	-0.173488
C	-0.7092561791	 0.216208859	 2.3717157333	-0.205415
C	-0.8953595883	-0.5423148139	 1.0455145802	-0.198987
C	 0.0664302254	-0.1702511124	-0.0920849985	 0.106283
O	 1.4338283223	-0.3241477254	 0.2937067364	-0.267737
H	-1.0425801069	 1.6979608628	-0.4632887198	 0.098197
H	 0.2261179966	 1.340969807	-1.6354472445	 0.103849
H	 1.6186893826	 2.7087318363	-0.3237112572	 0.10066
H	 0.5471380263	 2.6282553165	 1.063882943	 0.102892
H	 2.9316930646	 1.0116671326	 0.5785422982	 0.07289
H	 2.7755750564	 0.3915251816	 2.8030549787	 0.095861
H	 1.8117146395	 1.8539157603	 2.8178888915	 0.091538
H	 0.9231616492	-1.0594261255	 2.9377489137	 0.10475
H	 0.6121980036	 0.2270658704	 4.0865534391	 0.087675
H	-1.4740401954	-0.1470738664	 3.0685173481	 0.093723
H	-0.9155857897	 1.2864011736	 2.2423259374	 0.093714
H	-0.7715101609	-1.6142991724	 1.2455996144	 0.098276
H	-1.9231812651	-0.4115466213	 0.681758338	 0.086822
H	-0.0973257681	-0.8710862825	-0.9182214202	 0.072679
