19
gdb 90927	2.39868	1.75297	1.47825	2.5401	73.39	-0.229	0.0573	0.2863	991.1444	0.15978	-422.993453	-422.98554	-422.984596	-423.02554	31.341	
C	-0.0042903644	 1.555944949	-0.0244977831	-0.517627
C	 0.0522873709	 0.0590713652	 0.016635493	 0.250686
C	 0.7087982475	-0.9032053504	-0.9698711089	-0.146152
C	 1.6420747023	-1.8790269977	-0.2527415678	-0.272182
C	 1.3882335171	-1.6039868242	 1.2571509111	 0.135085
O	 2.3870070549	-0.7930760526	 1.8591376162	-0.440153
C	 0.032272443	-0.8951732342	 1.2404741331	 0.011222
O	-0.9252929753	-1.782293904	 0.5787106718	-0.30949
C	-0.7631445928	-1.0231316537	-0.6218227503	 0.052774
H	 0.9094224601	 2.0123806468	 0.3758703654	 0.114912
H	-0.1206588538	 1.9110897542	-1.0536540252	 0.125497
H	-0.8478803099	 1.9420385254	 0.5583050556	 0.129393
H	 0.9450062728	-0.5379888354	-1.9639380346	 0.08648
H	 1.4217484696	-2.9183296113	-0.5117709492	 0.115493
H	 2.6938999575	-1.6919525858	-0.4888899432	 0.102674
H	 1.3544081598	-2.5228041395	 1.8478822546	 0.094856
H	 2.504655079	-0.0122691265	 1.3065015455	 0.283187
H	-0.3326382027	-0.5349836537	 2.2038042537	 0.082349
H	-1.5822514856	-1.0118904417	-1.3321387576	 0.100995
