25
gdb 86190	1.84893	1.61538	1.02761	0.1911	96.08	-0.216	0.0371	0.253	1327.7967	0.227876	-352.394814	-352.384126	-352.383182	-352.430174	40.005	
C	 0.4525732186	 1.528867867	-0.1725336649	-0.396244
C	 0.0331322048	 0.0648034364	 0.0541499188	-0.047452
C	 0.4247915843	-0.8797365642	-1.114032471	-0.251022
C	 1.5997701985	-1.7543097524	-0.5994909663	-0.047455
C	 2.9595850504	-1.3821477915	-1.2185227128	-0.396243
C	 1.5536802562	-1.5499403949	 0.9061336983	 0.215651
C	 2.4056645327	-2.4000377221	 1.7999931651	-0.500702
C	 0.7098418063	-0.5701064139	 1.2582036617	 0.215639
C	 0.3993661905	-0.0702815735	 2.6370843423	-0.5007
H	 1.5339342649	 1.6079456452	-0.3296783573	 0.114969
H	-0.0477359928	 1.9432998485	-1.0543511184	 0.110105
H	 0.1919874877	 2.162003256	 0.6820572556	 0.109889
H	-1.0571026587	 0.0605256634	 0.1968385745	 0.062941
H	-0.4247093556	-1.5161127605	-1.379038865	 0.09463
H	 0.6953007849	-0.3224162775	-2.0167346106	 0.088332
H	 1.4172667289	-2.8125926453	-0.8355418911	 0.062941
H	 3.2043320541	-0.3316457947	-1.026603099	 0.11497
H	 3.7712725325	-1.9940665572	-0.8113258056	 0.109888
H	 2.9458067569	-1.5326476861	-2.3033385155	 0.110104
H	 3.4732828056	-2.2598511492	 1.5887513986	 0.125146
H	 2.2505087989	-2.1853501735	 2.8598144919	 0.11965
H	 2.1969423832	-3.466180368	 1.6399075826	 0.120084
H	 0.9150185465	-0.6354647271	 3.4168639055	 0.119652
H	 0.6802686098	 0.9839478753	 2.7544948209	 0.12515
H	-0.6784739792	-0.1266878303	 2.8393853316	 0.120078
