21
gdb 77936	2.69169	1.44181	1.07457	2.4897	78.97	-0.2423	0.0712	0.3135	1181.5115	0.180674	-424.161922	-424.152291	-424.151347	-424.195718	37.134	
C	-0.222088759	 1.628392636	 0.1797033502	-0.480967
C	 0.0092801727	 0.1125099858	 0.1537694815	 0.04379
C	 1.1267999726	-0.5298683759	-0.7308825586	-0.201371
C	 2.1787106822	-0.1208965702	 0.3725617723	 0.177953
O	 2.640742727	 1.1934479738	 0.5495517969	-0.460598
C	 0.9420048496	-0.6622307893	 1.1566825671	-0.188365
C	 0.9360932041	-1.8372554723	 0.1275393909	 0.468286
C	-0.2867391003	-2.730830683	-0.0649267242	-0.481359
O	 2.0641814863	-2.688516609	 0.2764164461	-0.481148
H	 0.6125979412	 2.208386607	-0.2165395426	 0.138164
H	-1.0907676524	 1.8725522942	-0.4404434584	 0.118563
H	-0.452160347	 1.9855658109	 1.1914237301	 0.117177
H	-0.9684613685	-0.3574579362	 0.0531226609	 0.064975
H	 1.2311008822	-0.4623714989	-1.8163099246	 0.061798
H	 3.0605042341	-0.7539849526	 0.3911948356	 0.107937
H	 1.9731475331	 1.7154726301	 0.9978467787	 0.286889
H	 0.8274192732	-0.7509000074	 2.2401046603	 0.066059
H	-1.2358315804	-2.2053958099	-0.1631680982	 0.127246
H	-0.1587134068	-3.3319082132	-0.9746434733	 0.107779
H	-0.361355298	-3.4244121643	 0.7779866316	 0.130353
H	 2.0698341441	-3.3007278157	-0.4662705224	 0.276839
