16
gdb 27813	2.01989	1.82465	0.97013	3.2104	76.07	-0.2523	-0.0554	0.1969	1181.4308	0.123424	-437.971373	-437.962927	-437.961983	-438.004616	30.666	
C	 0.0182378772	 1.5140951589	-0.1118146718	-0.467351
C	-0.028029053	 0.0182454521	-0.0507369766	 0.325714
C	-1.1878058519	-0.6873534333	-0.0322423372	-0.31119
C	-1.1764702983	-2.1260544508	 0.0266702837	 0.424665
O	-2.0931042441	-2.8963934329	 0.0491430613	-0.335342
O	 0.1362215575	-2.6736449339	 0.0618037128	-0.236933
C	 1.2237882047	-1.8860446633	 0.0398779092	 0.414292
C	 2.494875689	-2.670567363	 0.0841245404	-0.468537
N	 1.2120369507	-0.6004375696	-0.0135193015	-0.363119
H	 0.5765585472	 1.8323624146	-0.9986600196	 0.149023
H	-0.9811142627	 1.9519642895	-0.1395554716	 0.130222
H	 0.5597196067	 1.9048750324	 0.7562807908	 0.14903
H	-2.1583428862	-0.2096421467	-0.06065699	 0.122847
H	 2.5433633579	-3.3553236758	-0.7684847443	 0.156251
H	 3.3458678591	-1.9915173521	 0.0648958752	 0.154208
H	 2.5259748461	-3.2834846661	 0.9905245792	 0.15622
