20
gdb 109037	2.79985	1.32016	0.9967	2.265	80.85	-0.2114	0.0203	0.2317	1224.9687	0.170896	-403.122649	-403.113799	-403.112855	-403.156121	33.587	
C	-0.2309201176	 1.5521281057	 0.0705115356	-0.396589
C	 0.0334052162	 0.0446386601	 0.0196350876	-0.056568
N	 0.6725028989	-0.3792329643	-1.2531407501	-0.107623
C	 2.032716331	 0.1263195355	-1.488101147	-0.243533
C	 1.8311436696	-1.2240624939	-0.8868127431	-0.065064
C	 1.8934169028	-1.2665935482	 0.6007573363	-0.184088
C	 0.9182576452	-0.521592622	 1.1241575781	 0.292545
C	 0.6556642315	-0.257624618	 2.569493749	-0.182648
O	 1.588751679	-0.9690496179	 3.3624895188	-0.413693
H	 0.6993362517	 2.1275425733	 0.0910345557	 0.117186
H	-0.8053960924	 1.8587838207	-0.8079756361	 0.129926
H	-0.8103026557	 1.814553268	 0.9614474098	 0.114299
H	-0.9468378202	-0.4563895399	 0.0543996377	 0.085976
H	 2.2847796833	 0.2324125505	-2.5402214067	 0.111698
H	 2.4432835831	 0.8925985913	-0.8356537531	 0.110057
H	 2.0044738796	-2.1242518423	-1.4710939575	 0.091291
H	 2.6389413279	-1.811178462	 1.1637921191	 0.114068
H	 0.7136791667	 0.8284908322	 2.761344673	 0.098084
H	-0.3827354664	-0.5528727707	 2.8085570681	 0.094951
H	 1.4020863457	-0.779355448	 4.2861992046	 0.289723
