24
gdb 102613	1.60718	1.28454	0.85126	3.3564	86.93	-0.2393	0.0386	0.278	1525.8267	0.21475	-405.602871	-405.590983	-405.590038	-405.642435	41.21	
C	 0.1134284506	 1.5894743547	-0.2143174871	-0.383077
C	 0.0931180627	 0.0630076516	-0.1088614191	-0.17865
C	 0.7340103706	-0.6580688132	-1.307946306	 0.040754
C	 0.7962870787	-2.1798048701	-1.0866995261	-0.178657
C	 1.5339635116	-2.941661153	-2.1898977743	-0.383075
N	 0.0367315358	-0.3354145431	-2.5494082508	-0.307406
C	 0.6233594011	 0.307908316	-3.6033015695	 0.411413
C	-0.2854305253	 0.5452529298	-4.801813559	-0.485409
O	 1.7863774436	 0.6707742972	-3.5991819663	-0.378016
H	 1.1380380409	 1.9654502502	-0.3000885186	 0.127884
H	-0.4375143685	 1.9335246006	-1.0945806668	 0.115587
H	-0.3424253593	 2.0491347104	 0.6679027628	 0.109904
H	 0.6237269836	-0.2515359056	 0.7979322804	 0.099725
H	-0.9416431511	-0.2900309302	 0.0101789786	 0.084249
H	 1.7491450245	-0.2754629245	-1.455535086	 0.120399
H	 1.2853276296	-2.3615468654	-0.122040965	 0.099728
H	-0.2271347493	-2.5689865776	-0.9833440282	 0.084251
H	 1.5586834606	-4.0144848953	-1.9757929731	 0.109905
H	 1.0476229399	-2.8041426242	-3.1601219932	 0.115576
H	 2.5669757443	-2.5925323775	-2.287543194	 0.127889
H	-0.9311890228	-0.6047236273	-2.6279051669	 0.236486
H	-1.3036553394	 0.1695843346	-4.669355862	 0.106967
H	-0.3257458621	 1.6188794893	-5.0035658456	 0.151791
H	 0.1590026497	 0.0668265926	-5.6785239843	 0.151784
