19
gdb 91137	2.68124	1.81005	1.51617	3.1732	73.14	-0.2441	0.0502	0.2943	945.7873	0.161662	-422.964968	-422.95806	-422.957116	-422.996107	28.806	
O	-0.0249462336	 1.4389155667	 0.3943002537	-0.438834
C	-0.0265697794	 0.0789361407	 0.0762049768	 0.153627
C	 0.4567095295	-0.9718636684	 1.1377097317	-0.293025
C	-0.8526659573	-1.7864176519	 0.9380572519	-0.041445
C	-2.0588362828	-1.5240904802	 1.905529447	-0.083237
C	-1.89011803	-0.4681919635	 3.0032520597	-0.096688
O	-2.0928330165	 0.6112971416	 2.0477473932	-0.31499
C	-2.4831933729	-0.3367243599	 1.0051119505	 0.108688
C	-1.3866006219	-0.6759715075	-0.0374708148	-0.095812
H	-0.6319599194	 1.5375080025	 1.142861719	 0.290438
H	 0.5436928153	-0.0211623815	-0.8523744443	 0.086552
H	 1.3645342056	-1.5099116873	 0.8538865871	 0.100673
H	 0.6158064534	-0.5529296141	 2.1339291998	 0.102035
H	-0.7321831425	-2.8228834487	 0.6244514301	 0.071578
H	-2.698210445	-2.3810172165	 2.1137536013	 0.080545
H	-2.6958779864	-0.4754244703	 3.747595311	 0.108519
H	-0.9282493307	-0.3934522088	 3.5200785793	 0.114223
H	-3.4985761296	-0.1404112643	 0.6510273536	 0.083965
H	-1.7695066959	-0.8876916286	-1.0376668265	 0.063187
