15
gdb 123806	5.62225	0.98526	0.88905	4.0389	69.29	-0.2437	-0.0242	0.2196	1263.7455	0.111325	-453.895015	-453.887174	-453.88623	-453.928577	28.362	
C	-0.3601320745	 1.0895216302	-0.1936070102	-0.277857
C	 1.0983471013	 1.0631017897	 0.2218939167	-0.291623
C	 0.3652549456	-0.2097915631	-0.0274635303	 0.127341
O	 0.0996841358	-0.9835186605	 1.1370046421	-0.264039
C	-0.8930848393	-1.8579040762	 1.0683456607	 0.500752
C	-1.3550013071	-2.6955851967	 2.0564037492	-0.245224
N	-2.3725371675	-3.4067782319	 1.496812613	-0.074231
N	-2.586453661	-3.1124384109	 0.3072842652	-0.03211
O	-1.5744997167	-2.0301848749	-0.0397606482	-0.244348
H	-1.0860963902	 1.3493380142	 0.5679547389	 0.135192
H	-0.6219282662	 1.3993982383	-1.1985994744	 0.132616
H	 1.8592066088	 1.3602929863	-0.4901236913	 0.129454
H	 1.3214919269	 1.3011397521	 1.2554230736	 0.13714
H	 0.5935331135	-0.8185900428	-0.8949621063	 0.127109
H	-1.0318350894	-2.8199899237	 3.0736348813	 0.139827
