17
gdb 31735	6.38363	0.88501	0.78715	2.0003	72.72	-0.1869	0.0404	0.2273	1442.6146	0.13587	-455.161377	-455.152301	-455.151357	-455.195549	32.128	
C	 0.020834823	 1.3781951662	 0.1447163041	-0.327833
N	-0.0307565029	-0.0344960081	-0.1727809427	-0.373924
C	-1.2428460246	-0.6810709017	-0.0755489931	 0.317356
C	-2.507509861	-0.1836807076	-0.0261179274	-0.159909
O	-3.3708143603	-1.2881311235	 0.0044461523	-0.203336
C	-2.541909461	-2.3416773838	-0.0119557095	 0.503087
O	-3.0600590621	-3.5618332238	 0.0221443046	-0.253648
C	-4.4849483118	-3.6641039119	 0.0709526105	-0.243804
N	-1.2768706588	-2.0732272249	-0.0581840119	-0.429105
H	 1.051000307	 1.7303668265	 0.0599246626	 0.127652
H	-0.5831559585	 1.9407688058	-0.5766013614	 0.132201
H	-0.3533893714	 1.6137541648	 1.1541026679	 0.112611
H	 0.7281856538	-0.59265247	 0.1896997999	 0.246268
H	-2.9700408268	 0.7842786426	-0.0224906954	 0.128921
H	-4.8828209008	-3.1821703306	 0.968933258	 0.139552
H	-4.9416992927	-3.2090726735	-0.8129193003	 0.140236
H	-4.6995726512	-4.7323099364	 0.0940628117	 0.143675
