20
gdb 114397	3.34728	1.07597	1.04232	2.7719	80.17	-0.2575	0.0269	0.2844	1272.0435	0.171571	-403.139795	-403.131315	-403.130371	-403.17331	32.235	
C	 0.1683101203	 1.2821189085	-0.3921369236	-0.38333
C	-0.0058326555	-0.2089702176	-0.0867145714	-0.191077
C	-1.4660111138	-0.6122436133	 0.0805056117	 0.019318
C	-2.4165770682	-0.5872459887	-1.1647074138	-0.262892
C	-2.8240827454	-2.0708671756	-0.884935609	-0.168119
C	-1.797998612	-2.1092752097	 0.2795042831	 0.076181
O	-0.9478226429	-3.0031229665	-0.5102447335	-0.270326
C	-1.8825825926	-3.0541131009	-1.5346484034	 0.441259
N	-1.8790059589	-3.7083077457	-2.6037411239	-0.549933
H	 1.2248758647	 1.538575094	-0.5144773066	 0.116786
H	-0.3493404456	 1.5642794055	-1.3154484392	 0.120075
H	-0.2345029928	 1.9037266559	 0.4153925742	 0.11315
H	 0.4420987816	-0.8106190006	-0.8850093039	 0.112388
H	 0.5414008701	-0.4638390344	 0.8303140087	 0.098499
H	-1.9157939028	-0.0415228902	 0.9020207173	 0.07715
H	-3.2466461183	 0.1155448048	-1.0782238421	 0.112235
H	-1.931028744	-0.4340588482	-2.1312801507	 0.119846
H	-3.8783375851	-2.3276968396	-0.8181368825	 0.102305
H	-1.9650025635	-2.515147729	 1.277282981	 0.089385
H	-1.0314688952	-4.2716846287	-2.6922146826	 0.227099
