18
gdb 69892	2.96181	1.51389	1.15708	2.9601	78.47	-0.2173	-0.0325	0.1848	1077.245	0.1467	-401.881251	-401.873184	-401.872239	-401.913485	31.482	
C	-0.0447346928	 1.5708503573	 0.2115640658	-0.500266
C	-0.0276681793	 0.0771308677	 0.0730049595	 0.281762
C	-0.8438747588	-0.8764645947	 0.899380314	-0.34096
C	 0.6633517459	-0.96851754	 0.9465248691	-0.112798
C	 1.2427014876	-1.639375763	-0.3184466572	-0.071463
N	 0.1813344029	-2.0721053226	-1.2023151267	-0.363888
C	 0.5357796951	-0.6265823977	-1.2019979089	 0.18355
C	 1.1438034868	-0.049517955	-2.3963867975	 0.045084
O	 1.5756362633	-0.721466602	-3.3142861531	-0.301164
H	 0.9191646776	 2.0169487472	-0.0614917534	 0.121105
H	-0.8126961587	 2.0234327923	-0.4277538165	 0.12781
H	-0.2608944587	 1.8578754985	 1.2451471455	 0.12486
H	-1.2832006816	-0.4286072971	 1.7857607713	 0.111737
H	-1.4278114973	-1.6628818894	 0.4389833236	 0.145719
H	 1.2404529414	-0.8108769764	 1.848008229	 0.096377
H	 2.2637795558	-1.9796359969	-0.439211765	 0.120099
H	 0.6117521966	-2.4402064907	-2.0542413329	 0.254521
H	 1.2081526142	 1.0578575926	-2.4164009767	 0.077912
