16
gdb 11086	6.89511	1.054	1.03885	0.3417	77.97	-0.2538	0.0346	0.2884	1139.5681	0.128822	-309.389938	-309.381872	-309.380927	-309.422438	30.383	
C	-0.72152878	-0.724845164	-0.8677900218	-0.445825
C	-0.2713273328	 0.2594619265	-0.3428475428	 0.298432
C	 0.2856369854	 1.4259148641	 0.3077932672	-0.139399
C	 0.1500375649	 1.560819953	 1.8574754287	-0.232636
C	 1.6094341012	 2.1265345889	 1.9094326272	-0.186576
C	 1.8342782062	 1.5241421511	 0.4814497705	-0.232635
C	 1.6814997389	 3.575042721	 1.9590344038	 0.340297
C	 1.7294837329	 4.7767266354	 1.9857836846	-0.486399
H	-1.1235886352	-1.5883283829	-1.3367642511	 0.194576
H	-0.0860736848	 2.3372139215	-0.1714621969	 0.114681
H	-0.6467063357	 2.202825681	 2.2338978389	 0.119479
H	 0.0910560706	 0.5813696409	 2.3363527047	 0.116539
H	 2.2398893571	 1.697147796	 2.6925475837	 0.105632
H	 2.2895608809	 0.5334894127	 0.5401665236	 0.11654
H	 2.3784030011	 2.136945781	-0.2376234826	 0.119479
H	 1.7795859593	 5.8367811937	 2.0188431225	 0.197813
