17
gdb 35741	2.83097	1.37663	1.16992	4.8494	71.74	-0.2616	0.0165	0.2781	1087.1457	0.137296	-417.989722	-417.981717	-417.980773	-418.023073	29.695	
N	 0.298092954	-1.1458355804	 0.3444790691	-0.319738
C	 0.1208303199	-0.0106130516	 0.2217977124	 0.274713
C	-0.124772502	 1.4420478037	 0.0637752702	-0.035701
C	-0.7622089101	 2.052865208	 1.3271277949	-0.319359
C	 0.4744957287	 2.3470256095	 2.1632022306	 0.303047
C	 0.4182245871	 2.9391583009	 3.5168421104	-0.305243
N	 0.8353024876	 1.5365073028	 3.3334370511	-0.335466
C	 1.5808953271	 2.6112359109	 1.1453365714	-0.121553
O	 1.0808984447	 2.1596563492	-0.125921731	-0.256289
H	-0.7379048774	 1.5811430719	-0.831554282	 0.132901
H	-1.2732587461	 2.9782121145	 1.0424875245	 0.126191
H	-1.4789510628	 1.393139286	 1.8206019778	 0.126432
H	 1.2052548778	 3.6093577996	 3.8531713869	 0.126106
H	-0.5611859343	 3.1485834611	 3.9411420619	 0.117145
H	 0.0806705555	 0.9021102201	 3.5842468447	 0.23743
H	 1.8173723496	 3.6755404389	 1.0397429859	 0.114988
H	 2.4884753606	 2.0638191749	 1.4193356412	 0.134399
