16
gdb 30047	2.4535	1.8872	1.07478	1.0709	76.74	-0.2008	-0.0241	0.1766	1066.0663	0.126675	-434.139652	-434.131585	-434.130641	-434.172146	30.387	
C	-0.0240229089	 1.433271731	 0.0313098085	-0.335469
N	 0.0269623458	-0.0251546833	-0.0117746424	-0.129494
C	 0.2153911953	-0.7010730708	-1.190139129	 0.080427
N	 0.2878818608	-1.9862845909	-1.2897170491	-0.288359
C	 0.1566659134	-2.7117176852	-0.1362280358	-0.086838
C	-0.0497815733	-2.1476321916	 1.0936671605	 0.160156
N	-0.2505009895	-2.8200356185	 2.279982875	-0.580005
C	-0.1075576402	-0.6943172343	 1.2045485537	 0.416678
O	-0.2504896417	-0.0876785264	 2.2612390092	-0.430638
H	 0.0950896021	 1.8222314395	-0.980488572	 0.133456
H	-0.9790146262	 1.7618023464	 0.4472681501	 0.15902
H	 0.7712388095	 1.8167324724	 0.6744580838	 0.158022
H	 0.3064334659	-0.0781251755	-2.0748963122	 0.124378
H	 0.2209394687	-3.7911021262	-0.2466380239	 0.099842
H	 0.1558716685	-3.7382401775	 2.3641582648	 0.252457
H	-0.1363111801	-2.2253365591	 3.089929139	 0.266368
