18
gdb 39926	3.16047	1.60593	1.25841	1.4402	77.79	-0.2331	0.0097	0.2428	1017.4192	0.149852	-401.907949	-401.90081	-401.899866	-401.939554	28.424	
C	-0.2025999156	 1.451767887	-0.0234954064	-0.27938
N	 1.1529886934	 0.8872426061	 0.0608369382	-0.373085
C	-0.0176072185	-0.0206910851	 0.0316904152	 0.318633
C	-0.2767895117	-0.8810313799	 1.2176485492	-0.109701
C	-0.6192237138	-2.1243713902	 0.8710060429	-0.105887
C	-0.6711727958	-2.3071177435	-0.6218998406	-0.136161
C	-2.0526668764	-2.0936311284	-1.2913118664	-0.075886
O	-1.7171873756	-0.7335048279	-1.6394091168	-0.286673
C	-0.3571242173	-0.889960663	-1.1728938136	 0.011003
H	-0.5310493361	 1.9883390577	 0.8626770043	 0.118946
H	-0.5479187428	 1.8752812938	-0.9630416237	 0.124624
H	 1.5926902708	 0.9034854041	-0.8575553528	 0.228897
H	-0.1741751649	-0.5070753217	 2.2295199228	 0.10559
H	-0.8532303871	-2.9241965626	 1.5647614938	 0.100017
H	-0.0956848448	-3.1595680395	-0.9896742395	 0.085404
H	-2.2271405937	-2.7077931221	-2.1842232685	 0.098276
H	-2.9276518823	-2.1487159745	-0.6340092009	 0.105699
H	 0.3603936523	-0.7902058404	-1.9974593971	 0.069681
