20
gdb 90492	3.97582	1.01387	0.95674	2.0249	80.24	-0.2333	0.0713	0.3046	1306.4544	0.170662	-403.072922	-403.064511	-403.063567	-403.106285	32.728	
O	-0.4841981733	 1.3635855488	-0.3652790583	-0.43957
C	-0.1192156232	 0.0233032953	-0.1131515035	 0.111454
C	 0.492152252	-0.223988674	 1.3081197937	-0.291465
C	-0.7801782104	-1.0054339603	 1.6885008312	-0.041718
C	-1.3703959046	-0.7616639656	 0.3182219061	-0.054309
N	-1.0648001378	-2.0956312996	 0.7802427991	-0.092852
C	-0.0553739586	-2.9316080034	 0.1938019069	 0.076995
C	 0.0065376004	-4.3521005117	 0.6883353412	-0.276476
C	-0.5415971545	-4.0516087045	-0.6861706267	-0.273801
H	 0.3186324781	 1.8657529079	-0.5374156543	 0.283592
H	 0.4384927006	-0.399008922	-0.9610669946	 0.065585
H	 1.4464776024	-0.7544698827	 1.3847671425	 0.09522
H	 0.5590022136	 0.7267685326	 1.8418225718	 0.108325
H	-1.2577315855	-1.0075799458	 2.6625118323	 0.091779
H	-2.3809196161	-0.5142535223	 0.0113889178	 0.097834
H	 0.8942569222	-2.4756769315	-0.0826191788	 0.080412
H	 0.9782502512	-4.8261195861	 0.7705696605	 0.108393
H	-0.7050556267	-4.6273289747	 1.4578881623	 0.120597
H	-1.6138671953	-4.1300572074	-0.8220901418	 0.121037
H	 0.0508873255	-4.317262453	-1.5544783174	 0.108967
