18
gdb 52329	4.85362	0.80249	0.73325	3.1139	70.	-0.2505	0.0315	0.282	1507.0081	0.148639	-476.242927	-476.234139	-476.233194	-476.278242	30.618	
O	-0.0134167104	 0.2082296503	 0.6923713641	-0.325556
C	 0.0426123767	 1.2141224353	 0.0159038965	 0.154368
N	 1.156075584	 1.6815518099	-0.6067633017	-0.273893
C	 2.4559057476	 1.0524979298	-0.4894275988	-0.169337
C	 3.5033427615	 2.0436254803	 0.0158921665	 0.103404
C	 4.9484771313	 1.5230375337	-0.109964125	-0.13569
O	 5.3810202326	 2.0613455075	-1.3524617317	-0.230067
C	 4.7817178795	 3.3267548532	-1.4084094344	 0.023455
O	 3.4907028203	 3.1998358774	-0.8375607612	-0.282337
H	-0.8334865016	 1.8661602654	-0.170563973	 0.075123
H	 1.1128604821	 2.5549378637	-1.1082912492	 0.257471
H	 2.3443829974	 0.2154978369	 0.2042876239	 0.146625
H	 2.7834272037	 0.6591237895	-1.4608341846	 0.11713
H	 3.2634270144	 2.3560655602	 1.0387137146	 0.095417
H	 5.5752972152	 1.8863866882	 0.7170831947	 0.104604
H	 5.0194046628	 0.4344347671	-0.1627583178	 0.127859
H	 5.3692569239	 4.0692163859	-0.8387149052	 0.089243
H	 4.696041179	 3.6357508457	-2.4543937478	 0.122181
