14
gdb 1289	6.16306	1.41514	1.23322	2.9228	50.55	-0.271	0.0498	0.3209	931.339	0.11291	-398.888473	-398.880552	-398.879608	-398.921543	27.28	
N	-0.2177139892	 1.2667393317	-0.1679344613	-0.562417
C	 0.0154675661	-0.076149867	-0.0640907186	 0.500643
O	 1.1014906693	-0.6027578173	-0.0663814155	-0.390444
O	-1.1657265913	-0.7452972119	 0.0100077356	-0.276692
C	-1.0575353953	-2.1799345022	 0.0621321084	-0.067294
C	-2.4780436917	-2.7119623253	 0.0177652879	-0.067827
O	-3.139935853	-2.3681619636	-1.183423679	-0.41844
H	 0.5771764502	 1.8644056872	-0.0194778485	 0.270944
H	-1.1253623337	 1.6229034751	 0.0788769172	 0.263389
H	-0.4761987538	-2.529452515	-0.7953852557	 0.132159
H	-0.5414794047	-2.4798462005	 0.9802524189	 0.117591
H	-2.4503512992	-3.8054331144	 0.0651679126	 0.116503
H	-3.0295568354	-2.3524794428	 0.9012346839	 0.093422
H	-3.0592704083	-1.412461744	-1.2754684958	 0.288462
