16
gdb 41717	3.95465	1.66405	1.52745	1.5746	66.78	-0.2288	0.0067	0.2356	874.2532	0.128174	-437.865083	-437.859164	-437.858219	-437.895114	24.632	
C	 0.0057831226	 1.5097424851	-0.030011032	-0.094057
O	 1.4361676821	 1.7558660147	-0.0444440833	-0.276425
C	 1.9662633425	 0.4352348952	 0.0229718868	 0.061283
C	 1.1101249259	-0.3488654292	-1.0104412383	 0.1142
O	 1.4149323546	-1.7429852283	-1.0895108416	-0.246716
C	 1.5508541488	-2.3125189406	 0.1311307759	 0.11604
N	 1.4279583704	-1.7082773678	 1.2361100625	-0.281206
C	 1.1101494531	-0.2930241179	 1.1017619618	 0.005302
C	-0.0078432707	-0.013759226	 0.0308798641	-0.126149
H	-0.4487666259	 1.9868519836	 0.8459993578	 0.112188
H	-0.4533067455	 1.9208246192	-0.9371344328	 0.10858
H	 3.0541389675	 0.4457013032	 0.0267059921	 0.096597
H	 1.0373115834	 0.0246158865	-2.0315024378	 0.099277
H	 1.7785751648	-3.3720688019	 0.0590154928	 0.136173
H	 1.0187090707	 0.1847443302	 2.077699876	 0.085537
H	-0.9622479742	-0.5372883359	 0.0464428259	 0.089377
