14
gdb 8854	4.02985	1.19932	1.0857	2.6706	56.15	-0.2726	-0.0708	0.2017	1073.3688	0.103338	-456.820411	-456.811767	-456.810823	-456.854408	29.588	
O	 0.2659794031	 1.35588801	 0.0148207841	-0.414366
C	 0.0839616218	-0.0119766263	 0.2046207826	-0.135744
C	-1.3683266164	-0.4148491624	 0.0087414916	 0.323307
O	-2.2166105418	 0.4241922636	-0.1683907786	-0.296951
C	-1.7074797538	-1.9230000623	 0.0492284572	-0.041523
O	-2.9974627536	-2.160158191	 0.4964286037	-0.405018
C	-1.5029662527	-2.4927560974	-1.3542281323	 0.131919
O	-2.4239688079	-2.981229061	-1.9562947023	-0.239767
H	-0.6258957493	 1.7234503427	-0.0900002355	 0.299148
H	 0.7165531228	-0.5944944117	-0.4875522705	 0.115901
H	 0.3783166796	-0.3293498196	 1.2213071736	 0.126487
H	-0.9669340861	-2.4123725121	 0.7054272988	 0.117418
H	-3.4945233647	-2.4847010766	-0.2712679166	 0.304426
H	-0.483764841	-2.4284900859	-1.7821112657	 0.114764
