16
gdb 11782	4.34114	1.75249	1.56772	2.6241	64.37	-0.2563	-0.0382	0.218	840.8916	0.130998	-383.726978	-383.72018	-383.719236	-383.758299	25.831	
O	-0.0877509581	 0.0061203972	 0.1152510756	-0.250989
C	 0.0346275967	 1.1689472334	-0.1766998493	 0.053579
C	 1.3268239001	 1.9183037782	-0.0675835573	 0.332221
C	 1.6470089788	 2.7945693319	 1.1804250463	-0.261965
C	 2.4603470882	 3.5016044409	 0.0757100031	 0.075055
C	 3.5751355516	 2.4917386782	-0.2697533601	-0.22072
C	 2.672070732	 1.2205789949	-0.3683092358	-0.255295
O	 1.4070367122	 3.1338278179	-0.8749909266	-0.332701
H	-0.8210241014	 1.7872596767	-0.5267895137	 0.093043
H	 0.7853109474	 3.3826701435	 1.4973368664	 0.117936
H	 2.1605710433	 2.3323687114	 2.026397997	 0.108673
H	 2.6900586506	 4.5665662766	 0.0921559702	 0.085912
H	 4.0542478125	 2.7405628317	-1.2184358153	 0.114471
H	 4.3436800646	 2.4253733366	 0.5046351132	 0.104486
H	 2.9102372791	 0.4435130866	 0.3598058807	 0.119254
H	 2.6688377824	 0.7762220745	-1.3649201343	 0.117042
