21
gdb 69774	2.93922	1.44707	1.35934	1.0568	81.94	-0.2138	0.09	0.3038	1089.3532	0.181867	-387.077932	-387.069482	-387.068538	-387.110244	34.124	
C	-0.0896176015	 1.4847196179	-0.0514237883	-0.466785
C	 0.0543957937	-0.0087821	 0.0175939295	 0.44172
C	-0.7813805444	-0.865047111	 0.9387510623	-0.356203
C	 0.7279977948	-0.7746435149	 1.124493084	-0.120948
C	 1.5261839014	-1.848360715	 0.4453512503	-0.120926
C	 2.6288831938	-1.3556029278	-0.483159053	-0.356215
C	 1.2585293354	-1.6828695963	-1.0265427814	 0.441709
C	 1.0203956976	-2.7985468271	-2.0035789311	-0.466787
O	 0.3890455982	-0.5811466045	-1.2372170972	-0.341253
H	 0.8396110069	 1.9498999175	-0.3961713422	 0.121472
H	-0.8856799738	 1.7624363942	-0.7503682928	 0.128085
H	-0.3415764753	 1.8946308725	 0.9306377656	 0.115512
H	-1.406052202	-0.3586833325	 1.6671879038	 0.108635
H	-1.1938143328	-1.7884387784	 0.5460305323	 0.112627
H	 1.1282455445	-0.2698564614	 1.9987633702	 0.086513
H	 1.6100339041	-2.8322039623	 0.8974341222	 0.086518
H	 2.9201831237	-0.3123166502	-0.4224685016	 0.112625
H	 3.4369747502	-2.0435245297	-0.7089675853	 0.108635
H	 1.7026679598	-3.6316806786	-1.8129414536	 0.115506
H	-0.0084169618	-3.1661142484	-1.9317494852	 0.121447
H	 1.1843558175	-2.452547144	-3.0296206187	 0.128115
