20
gdb 91014	2.67629	1.58619	1.34412	1.3931	78.59	-0.2123	0.0562	0.2685	1051.7924	0.171154	-403.072221	-403.06406	-403.063116	-403.10439	32.615	
C	-0.0282820216	 1.564705829	 0.0355901107	-0.50345
C	-0.0031478868	 0.063440643	 0.0358257097	 0.347615
C	-0.8581584521	-0.7875265584	 0.9370988052	-0.351279
C	 0.6397460743	-0.9450247951	 0.9991351937	-0.06466
N	 1.24129391	-1.7198894005	-0.1102016323	-0.122495
C	 0.4401231415	-2.8666880226	-0.6604270187	-0.22779
C	-0.1404361322	-1.9498902709	-1.7864064197	 0.087224
O	-1.5369627465	-1.7817137089	-1.8794443434	-0.421376
C	 0.6098600783	-0.7778270612	-1.0978854928	-0.055814
H	 0.9199153688	 1.9832306451	-0.3208875571	 0.116846
H	-0.8266083281	 1.946092683	-0.6125873963	 0.125045
H	-0.2087406329	 1.9553340179	 1.0423919802	 0.117543
H	-1.2688417224	-0.2465770415	 1.7855420653	 0.105478
H	-1.5174686824	-1.547841414	 0.5375211895	 0.124491
H	 1.2000544216	-0.7911261348	 1.9158766898	 0.087224
H	 1.0838334438	-3.6803101031	-1.0080439012	 0.098804
H	-0.3123753487	-3.2725248223	 0.0222043073	 0.106732
H	 0.2894372863	-2.1817210874	-2.7700583642	 0.073818
H	-1.899582751	-2.5355360413	-2.3553299804	 0.286538
H	 1.3020983099	-0.212065376	-1.7300343254	 0.069507
