17
gdb 76186	2.19705	1.42926	1.17184	2.0797	67.52	-0.2462	-0.0349	0.2114	1115.2995	0.131764	-496.086187	-496.076537	-496.075593	-496.120081	35.826	
C	-0.0610046959	 1.5843194984	 0.2186596925	-0.436382
C	-0.0073119146	 0.0941430991	-0.0055559763	 0.24108
O	-1.1995248747	-0.5035410435	-0.4493910945	-0.455033
C	 1.260510636	-0.5857679926	-0.4598714333	-0.007957
O	 2.4578324385	 0.0971513814	-0.5620912241	-0.419787
C	 0.7352156546	-0.7850145301	 0.9879332429	 0.251052
O	 1.5161301846	-0.1541550108	 1.9512039933	-0.479501
C	 0.2462791973	-2.1103806157	 1.4075557858	 0.095987
O	 0.5913910781	-2.5780335629	 2.4747202927	-0.303675
H	 0.9033925803	 1.971014186	 0.5483667085	 0.14052
H	-0.3261347516	 2.0873365397	-0.7182567235	 0.116139
H	-0.8167045268	 1.8297470611	 0.9696328127	 0.134025
H	-1.3173674932	-0.2678806792	-1.3774464958	 0.288635
H	 1.1539531818	-1.4140329318	-1.1573915294	 0.110036
H	 2.7804196346	 0.2199483466	 0.3449057406	 0.303739
H	 1.6159084698	-0.826163651	 2.6493063289	 0.303517
H	-0.4144752488	-2.6460438744	 0.7074854191	 0.117608
