19
gdb 98153	2.59389	1.11678	0.97421	2.9192	77.73	-0.2617	-0.0303	0.2314	1298.7649	0.154697	-423.005626	-422.995161	-422.994216	-423.041076	38.303	
C	-0.1651399577	 1.5662369687	-0.117356568	-0.404689
C	 0.0132511417	 0.023089648	-0.0257724789	-0.072156
C	 0.7985684887	-0.3397438369	 1.2555886176	-0.425961
C	-1.3014908693	-0.6187640342	 0.008654677	 0.369309
C	-2.3797413732	-1.142407523	 0.084130596	-0.477989
C	 0.7564889695	-0.3922157868	-1.3157192521	 0.359379
O	 0.1686587278	-0.6225353031	-2.3478497073	-0.322908
C	 2.2819964713	-0.4526812793	-1.3185840297	-0.140849
O	 2.768338527	-0.6876273682	-2.6043621929	-0.42202
H	 0.8076394976	 2.0667778748	-0.1512386239	 0.122234
H	-0.7327164546	 1.8330906117	-1.0110811682	 0.148745
H	-0.7076833208	 1.9228993959	 0.7617664564	 0.135253
H	 0.2294719293	-0.0175767597	 2.130978605	 0.135808
H	 0.9542005293	-1.4185834143	 1.3354058498	 0.135521
H	 1.7702880396	 0.1613084311	 1.2827827898	 0.124393
H	-3.3327321781	-1.6089606316	 0.1302336904	 0.200464
H	 2.6825822178	 0.4893462218	-0.911596725	 0.118104
H	 2.5945513459	-1.246063583	-0.6194134418	 0.121947
H	 1.9770946683	-0.8183753618	-3.1524621242	 0.295414
