21
gdb 81390	3.93483	1.11398	1.05913	0.9025	88.57	-0.252	0.0544	0.3063	1235.1732	0.183559	-349.91608	-349.907774	-349.90683	-349.948521	33.513	
C	-0.1905035686	 1.5261166068	 0.0128562311	-0.440002
C	 0.0152429741	 0.0164485649	 0.0263447854	 0.050161
C	 1.1191348665	-0.5813849823	-0.9071042095	-0.01712
C	 2.1434033827	-0.235794811	 0.2124963217	-0.239603
C	 0.9418882282	-0.5782049088	 1.1360987208	-0.019269
C	 0.7685434285	-2.1026867649	 0.8823260597	-0.1731
C	 0.9192367366	-2.0923352206	-0.6932775476	-0.239787
C	 1.7342447206	-2.9405931749	 1.5745843606	 0.313172
C	 2.5399606184	-3.6268476146	 2.1466641777	-0.461314
H	 0.7436896214	 2.0878815701	 0.0967213652	 0.118969
H	-0.679957456	 1.8379902886	-0.9164483552	 0.115872
H	-0.8358075195	 1.8344365406	 0.8428188588	 0.116052
H	-0.9631987925	-0.4741321632	-0.0583711967	 0.057023
H	 1.2479078681	-0.2391554982	-1.9351886416	 0.056082
H	 3.038384159	-0.857206441	 0.2983991057	 0.102917
H	 2.4225576778	 0.817035007	 0.2396828477	 0.099499
H	 0.8901384791	-0.2527315701	 2.1755428115	 0.064644
H	-0.2410360943	-2.4185692483	 1.168048691	 0.097394
H	 0.0233427629	-2.4776593966	-1.1877683479	 0.098431
H	 1.776131037	-2.6850013699	-1.0205830589	 0.110678
H	 3.2456597699	-4.2367643037	 2.6535042504	 0.189301
