21
gdb 86883	2.73098	1.19551	0.99824	3.239	82.54	-0.2388	0.0324	0.2712	1277.1265	0.183893	-383.296647	-383.28738	-383.286436	-383.33091	35.026	
C	-0.5926126095	 1.2106968676	-0.1405501565	-0.418748
C	 0.3587231396	 0.0170643747	-0.2015328543	 0.025105
C	 1.5577185224	 0.2139870282	-1.1456015655	-0.21853
C	 2.5276599245	-0.889189487	-0.6867178763	-0.129538
N	 2.3926430602	-0.8275415345	 0.765012814	-0.300018
C	 1.014865648	-0.4299262006	 1.1443254456	 0.030627
C	 1.0798301747	 0.6302895509	 2.2464176902	-0.370275
C	 2.163103384	-2.205099959	-1.2616929119	 0.258883
N	 1.8868111033	-3.2525835513	-1.6674056114	-0.334517
H	-0.0864272191	 2.1201332826	 0.1976101795	 0.120723
H	-1.0119778081	 1.4132546664	-1.1313733834	 0.117704
H	-1.430421903	 1.0209412635	 0.5378323367	 0.120126
H	-0.2063506773	-0.8433579549	-0.5794143106	 0.097107
H	 1.2936704698	 0.1374681838	-2.2021283681	 0.119657
H	 2.0371542835	 1.1836781353	-0.9762536408	 0.112858
H	 3.5608525333	-0.6795156337	-0.9860958791	 0.120543
H	 2.7114749224	-1.6667455449	 1.2312989443	 0.231917
H	 0.4525552142	-1.2894438458	 1.5347496752	 0.076613
H	 1.6121828613	 1.5235393682	 1.9063265092	 0.116406
H	 0.0802547032	 0.9212733779	 2.584562333	 0.110792
H	 1.6237594626	 0.2338877724	 3.1095826303	 0.112564
