21
gdb 67463	2.4864	1.65423	1.56476	1.262	81.32	-0.2356	0.0838	0.3194	1018.6777	0.185182	-387.070995	-387.063326	-387.062382	-387.10265	31.276	
C	-0.0392662017	 1.5195821614	 0.0247023254	-0.514281
C	 0.0110844796	 0.0204799343	-0.014928463	 0.339167
C	 0.5204302775	-0.9549649541	-1.0889309144	-0.125488
C	 1.3257733555	-1.734268694	-0.0526045698	-0.274507
C	 0.6397809398	-0.8802626352	 1.0711084411	 0.047888
O	-0.2798164644	-1.5252161476	 1.9305996627	-0.26433
C	-1.1252440371	-2.4490300737	 1.2601424177	-0.077491
C	-1.8134038639	-1.8641149311	 0.0122097774	-0.246232
C	-0.9556263643	-0.860695117	-0.7468817369	-0.07741
H	 0.9477132502	 1.9520669795	 0.2280085053	 0.114483
H	-0.3909595968	 1.9276255446	-0.9291096133	 0.115555
H	-0.7217316181	 1.8733945713	 0.8070166443	 0.12435
H	 0.8619287841	-0.7180352842	-2.0906918166	 0.07948
H	 1.222736358	-2.8218294448	-0.0188692618	 0.097335
H	 2.3914182674	-1.4955741854	-0.1060369721	 0.10141
H	 1.347300461	-0.3679647425	 1.7261446222	 0.080373
H	-0.5554926493	-3.3487742153	 0.9899428505	 0.094444
H	-1.8736461543	-2.7532271328	 1.9972227143	 0.103895
H	-2.1323313404	-2.6886708564	-0.6371703716	 0.097462
H	-2.7253176321	-1.3375668253	 0.3206237852	 0.104394
H	-1.5071026009	-0.3313956916	-1.5223168866	 0.079503
