21
gdb 109233	2.78986	1.2067	1.09539	1.716	84.19	-0.2189	0.0165	0.2354	1244.6807	0.182923	-387.091263	-387.082444	-387.0815	-387.124848	34.152	
C	 0.0248216492	 1.4820925333	 0.1937862175	-0.373282
C	-0.0500858425	-0.0272917638	-0.0980520572	-0.296189
C	-1.4517730542	-0.5670534192	-0.0646279488	 0.334656
C	-2.139868987	-1.0865512388	-1.0931083295	-0.222509
C	-3.5477686676	-1.4944889072	-0.7141646451	-0.270387
C	-3.6088634983	-1.2364664083	 0.7920537345	-0.106389
C	-2.6483162999	-2.0148178609	 1.6476522732	 0.129767
O	-2.0041325043	-3.1677208955	 1.2052717057	-0.427913
C	-2.2602444777	-0.6168346018	 1.1940364746	-0.20312
H	 1.0610317049	 1.8315865265	 0.1577426029	 0.115193
H	-0.5529326984	 2.0507028538	-0.5414191938	 0.121665
H	-0.3714852267	 1.719562191	 1.1859405106	 0.121501
H	 0.3916236076	-0.229023912	-1.0802486029	 0.101835
H	 0.5641104972	-0.560257031	 0.6402984757	 0.110197
H	-1.7457963367	-1.2135007874	-2.0963974502	 0.088643
H	-4.2966176314	-0.9055119903	-1.2588386915	 0.10913
H	-3.7496115752	-2.5485262486	-0.9497062915	 0.116204
H	-4.5395578849	-0.8955537226	 1.2311528453	 0.083769
H	-2.9066398076	-2.1190305506	 2.6966435733	 0.103137
H	-1.557526802	-2.9494734101	 0.3760640285	 0.281203
H	-2.1659890742	 0.1705724035	 1.9342941885	 0.082888
