20
gdb 101517	5.89276	0.52889	0.51123	3.9778	89.2	-0.2295	-0.0595	0.17	2152.009	0.167567	-403.109643	-403.098769	-403.097824	-403.147166	36.973	
C	 0.0952032549	 1.5425902049	 0.0157202321	-0.398911
C	-0.02230545	 0.0193765069	 0.0002134689	-0.101342
N	-1.4069832943	-0.4545953647	-0.0206440108	-0.056699
C	-2.1043037267	-0.1159117872	-1.2552043665	-0.330364
C	-1.4602769005	-1.8902833513	 0.2453354633	-0.314498
C	-2.8093952207	-2.3875699236	 0.4896121042	 0.062465
C	-3.9123765619	-2.8361349595	 0.6945963179	 0.08764
C	-5.2424813186	-3.3285750292	 0.9378311409	 0.017182
O	-5.5092733377	-4.4716051564	 1.2315514105	-0.230005
H	 1.1389397283	 1.8313645009	 0.1717897131	 0.11877
H	-0.2301764986	 1.9946254493	-0.9251592855	 0.122968
H	-0.5065179303	 1.9641310324	 0.8261281632	 0.129229
H	 0.5573871347	-0.3895099588	-0.8519593479	 0.078019
H	 0.4425751926	-0.376960261	 0.9104996505	 0.101466
H	-1.6133217286	-0.5377713385	-2.153657012	 0.092559
H	-3.1266386679	-0.4994903325	-1.214065846	 0.132361
H	-2.1592810823	 0.967980576	-1.3729417029	 0.127371
H	-1.0152136005	-2.4931392041	-0.574028471	 0.118874
H	-0.8538973034	-2.1001514694	 1.1355642489	 0.143849
H	-6.0341351984	-2.5585539542	 0.8334622891	 0.099066
