18
gdb 94138	1.91632	1.57052	1.31979	0.8356	84.74	-0.2236	0.0147	0.2382	1114.6819	0.14444	-364.710139	-364.700654	-364.69971	-364.743928	35.641	
C	-0.0256572046	 1.475286579	-0.1546222893	-0.33241
N	-0.0474180444	 0.0503310222	 0.093644738	-0.07736
C	-1.2944853056	-0.6164392623	 0.5030221259	-0.171289
C	-0.4541036628	-1.6000738493	 1.3449160542	-0.268752
C	 0.6996672077	-0.5330278126	 1.2490665004	-0.045324
C	 2.0377004152	-1.0157609993	 0.9160742883	 0.275449
C	 3.1287207735	-1.4328768441	 0.6344982853	-0.416609
C	 0.7412271142	 0.3241287099	 2.4418637296	 0.321107
C	 0.7338143947	 1.0528519647	 3.3982470733	-0.490171
H	 0.9972783124	 1.7905669571	-0.383414309	 0.130796
H	-0.6479500373	 1.6884763475	-1.0299949101	 0.121382
H	-0.3941697651	 2.0769235513	 0.6927784232	 0.106703
H	-1.9473783882	 0.0124931363	 1.1288607507	 0.095374
H	-1.8812846235	-1.0236892131	-0.3262218589	 0.106184
H	-0.7961518224	-1.8339893096	 2.3512683067	 0.12153
H	-0.1882763721	-2.5092533314	 0.806417274	 0.128124
H	 4.0952514817	-1.7959136768	 0.385700742	 0.194742
H	 0.7469378966	 1.6876963706	 4.2497887158	 0.200525
