18
gdb 39968	3.97007	1.33089	1.13867	3.6844	77.26	-0.2417	0.0195	0.2611	1099.9992	0.14894	-401.908729	-401.901463	-401.900519	-401.94033	29.108	
C	 0.1627968917	 1.5576324276	 0.1048961801	-0.322934
C	 1.3703933928	 0.6241579298	 0.1759757621	-0.338587
C	 0.0090658014	 0.0888374404	-0.0666466256	 0.403713
O	-0.6867245409	-0.7036070844	 0.9693748835	-0.291591
C	-1.4184497227	-1.2640395707	-0.0419803126	 0.425787
N	-2.6042355183	-1.6655402056	-0.1866540802	-0.311407
C	-2.7916279735	-1.5690582179	-1.6693723845	-0.15395
C	-1.7457189916	-0.4988972613	-2.1725232741	-0.265109
C	-0.5981540405	-0.7746014748	-1.1877690391	-0.228455
H	-0.1875763164	 1.9872135751	 1.0365362076	 0.139097
H	 0.0449267031	 2.1931999279	-0.7661615601	 0.127286
H	 2.0779755654	 0.6207354056	-0.6465129179	 0.125592
H	 1.8050343789	 0.4488277703	 1.1537792633	 0.138195
H	-2.6321346284	-2.5436681269	-2.149697375	 0.108062
H	-3.8213916221	-1.2669186116	-1.8755887407	 0.11647
H	-1.4787911895	-0.6148943233	-3.2255859492	 0.10397
H	-2.158534865	 0.5044489928	-2.0259838159	 0.115792
H	 0.1290806556	-1.497732233	-1.5685552017	 0.10807
