13
gdb 133275	2.48832	1.60064	0.97993	0.4153	71.25	-0.2423	-0.0857	0.1566	1103.4351	0.085897	-493.961537	-493.953426	-493.952481	-493.994727	28.81	
C	-0.1328639403	 1.4200043037	 0.0041385456	-0.337201
N	-0.1252623517	-0.025589214	-0.0694758429	-0.29347
C	 0.5658270659	-0.6435413093	-0.934047368	 0.322745
N	 1.3936863099	 0.0346369841	-1.9061905936	-0.134086
N	 2.0866697315	-0.4656140417	-2.7677876983	 0.040805
O	 2.1234738524	-1.9515377494	-2.878850961	-0.252279
C	 1.3779217053	-2.6531259943	-2.0073399573	-0.004609
C	 0.6185633028	-2.0794301514	-1.0620276901	 0.120837
F	-0.0965286095	-2.8217770143	-0.2291967865	-0.042324
H	 0.4987747656	 1.9224924297	-0.735524191	 0.136797
H	-1.1665027592	 1.7666856359	-0.1096234187	 0.140026
H	 0.1845658613	 1.7167360759	 1.0104525963	 0.140002
H	 1.4486339459	-3.7273461149	-2.1410719645	 0.162758
