19
gdb 48953	3.09971	1.63063	1.39133	2.7639	79.54	-0.2438	-0.0261	0.2177	982.9149	0.161427	-385.87045	-385.863449	-385.862505	-385.901872	28.5	
O	-0.0738228533	-0.0014320515	-0.1952544434	-0.26068
C	 0.032813617	 1.1399805976	 0.1906939658	 0.037286
C	 1.2779640828	 1.9417470014	 0.1358513391	 0.273884
C	 1.5621330586	 3.1691795044	 1.0202540888	-0.303069
C	 2.5939707777	 3.5190795138	-0.0807055718	-0.050313
C	 3.6225823775	 2.3783302758	 0.0976025182	-0.212561
C	 2.6454973624	 1.2502961884	-0.2952306138	-0.078262
C	 2.3301693434	 1.621147346	-1.769279956	-0.242147
C	 1.6310649724	 2.8295893626	-1.1395043765	-0.058219
H	-0.8493271016	 1.6848826404	 0.6024465586	 0.065837
H	 0.7023033818	 3.8464877623	 1.0260836161	 0.10014
H	 1.9275092627	 3.0237626802	 2.0420838769	 0.096624
H	 2.9619944942	 4.5352919946	-0.2170273191	 0.067578
H	 4.4783833306	 2.4355292612	-0.5809050618	 0.096749
H	 3.9949726079	 2.3167279898	 1.1240383239	 0.095834
H	 2.864277102	 0.2261994318	-0.0004620796	 0.080212
H	 3.1745630591	 1.7849692787	-2.4463150921	 0.090979
H	 1.60850763	 0.9387527211	-2.2228836705	 0.122533
H	 0.8882095347	 3.4510062614	-1.6387114629	 0.077595
