17
gdb 99248	5.13473	0.67451	0.60063	5.5015	66.92	-0.2526	0.0063	0.2589	1752.1088	0.134311	-492.345738	-492.335472	-492.334528	-492.383102	35.022	
N	-0.0845590202	 1.2706537602	-0.0199211606	-0.522894
C	 0.0076869129	-0.0822223929	-0.0210257846	 0.408009
O	 1.0672384388	-0.6806895135	-0.0678486403	-0.359974
C	-1.3327874015	-0.817785208	 0.0418256885	-0.24656
N	-1.0680415591	-2.2331981211	 0.0329080324	-0.325056
C	-2.0526854755	-3.1518618296	 0.0796840931	 0.395077
O	-3.2413719875	-2.8595455636	 0.1331294965	-0.400674
C	-1.6289954978	-4.6239273258	 0.0634908496	-0.145046
O	-2.7613702501	-5.4399909344	 0.117200092	-0.420271
H	 0.7632373297	 1.8118537166	-0.060406529	 0.272053
H	-0.9666510438	 1.7509671845	 0.0182785624	 0.270532
H	-1.8800949422	-0.5212168289	 0.9462074571	 0.145412
H	-1.9603182574	-0.5252220591	-0.8102373751	 0.145377
H	-0.0876155764	-2.4808464322	-0.0111547798	 0.268501
H	-1.0415039946	-4.8156506964	-0.8487521096	 0.111103
H	-0.9604705704	-4.8118631276	 0.9189564053	 0.111108
H	-3.5054651049	-4.8139540384	 0.1495894622	 0.293302
