16
gdb 50120	5.88097	0.89357	0.84201	3.4473	79.11	-0.2283	-0.0278	0.2005	1325.9569	0.122666	-400.67485	-400.666475	-400.665531	-400.708207	31.161	
O	-0.0658063147	-0.0556128611	-0.0707194589	-0.256615
C	-0.0073269675	 1.1234738816	 0.1765882248	 0.151209
C	 1.250554224	 1.9472893976	 0.058239847	-0.078274
C	 1.2154444647	 3.1880383095	-0.9179698644	-0.314608
C	 1.5504722743	 4.101932079	 0.2742253385	 0.250353
N	 0.4347736002	 3.8963702549	 1.2444568531	-0.363756
C	 1.545163266	 2.9271411463	 1.2098016699	-0.141161
C	 2.3388568573	 5.2818881534	 0.274971229	 0.131939
C	 3.0076104593	 6.2825120458	 0.2511826391	-0.387179
H	-0.8985620117	 1.6931286238	 0.5129923882	 0.099975
H	 2.0917987095	 1.2880082544	-0.1599748316	 0.102122
H	 2.0100726101	 3.1340562331	-1.6621305286	 0.131291
H	 0.2617383629	 3.4078655143	-1.4025400583	 0.122469
H	 0.6020510064	 4.5241057622	 2.0305880351	 0.243728
H	 2.1566157669	 2.7412870417	 2.0840030225	 0.115634
H	 3.5986363423	 7.1646915935	 0.2330759046	 0.192875
