18
gdb 17354	4.33494	1.25577	1.07617	3.0897	69.01	-0.2496	0.0751	0.3248	1124.8295	0.152173	-384.899539	-384.891059	-384.890115	-384.932897	31.214	
C	-0.2463231946	 1.4892432342	-0.061042026	-0.418025
C	-0.0731169597	 0.0002542619	 0.0983528202	 0.069269
O	 1.2281145605	-0.5464916927	-0.1464286089	-0.267695
C	 0.6879310584	-0.6501604138	 1.1792493272	 0.061597
C	 1.4027970607	 0.0913365013	 2.2588479089	-0.050799
C	 0.8695103951	 0.0387162171	 3.6827945419	-0.339386
C	 2.1509117221	-0.6652406213	 3.3231640212	 0.097856
O	 2.1574227879	-2.0587108095	 3.2185397353	-0.413001
H	 0.5593370249	 2.0489161527	 0.41821522	 0.124166
H	-0.257670929	 1.7562480493	-1.1230878183	 0.128065
H	-1.1993156027	 1.8100699246	 0.3739606544	 0.119923
H	-0.8785839816	-0.5897641059	-0.3465038343	 0.082455
H	 0.398124101	-1.6628181618	 1.4576696778	 0.097793
H	 1.8557429061	 1.0240416119	 1.9427431144	 0.096785
H	 0.902695259	 0.9380998916	 4.287665213	 0.11463
H	 0.0058287686	-0.5960096155	 3.8551085165	 0.116391
H	 3.0868052925	-0.2293124895	 3.6719629241	 0.089924
H	 2.0927516307	-2.4240940646	 4.1068400827	 0.290052
