18
gdb 65950	2.15576	1.64379	1.33025	2.9877	76.3	-0.2551	0.0162	0.2713	1051.9269	0.148486	-398.095992	-398.087343	-398.086398	-398.129132	32.867	
N	-0.1085304689	 1.5068320039	 0.0189501328	-0.542549
C	-0.021083321	 0.0500239388	-0.0196002616	 0.059351
C	 0.2165521392	-0.5268473638	 1.4156856618	-0.245646
C	-1.3129077691	-0.781917154	 1.551616827	-0.2908
C	-1.4323276544	-0.5940967096	 0.0381100162	 0.352256
C	-2.5655135724	-0.3421595763	-0.8716394062	-0.305545
N	-1.8961470225	-1.6585378067	-0.838934754	-0.360866
C	 0.8420944746	-0.4617217613	-1.0923198003	 0.230022
N	 1.4873860874	-0.8508085734	-1.9710215617	-0.351494
H	 0.8179452079	 1.9092339068	 0.1357536182	 0.241628
H	-0.4753818821	 1.8620332015	-0.8596341576	 0.239397
H	 0.7967694636	-1.4504839783	 1.3936102927	 0.128092
H	 0.6731330306	 0.1808531499	 2.1087346686	 0.115335
H	-1.6139037786	-1.7631810031	 1.9201029257	 0.121876
H	-1.8222647998	-0.000695241	 2.1191299852	 0.122439
H	-3.5809204392	-0.3307128043	-0.4847070372	 0.127738
H	-2.4026909665	 0.3049703276	-1.7312031745	 0.112749
H	-1.2777686286	-1.7672770467	-1.6417261649	 0.246018
