20
gdb 119942	2.21777	1.12635	0.91337	3.9717	80.57	-0.2599	0.0308	0.2907	1387.872	0.169438	-403.142518	-403.132382	-403.131437	-403.178443	35.544	
C	 0.0342586255	 1.3524715447	-0.2249243714	-0.229201
O	-0.0410980745	-0.0542324718	-0.2367697112	-0.23461
C	-1.2816574432	-0.5385377467	 0.2274730577	-0.07846
C	-1.245661557	-2.0422200223	 0.1402270504	-0.044076
C	-2.4804347197	-2.8970788726	 0.1186366658	-0.042501
C	-3.8863164947	-2.3420069942	 0.1922804357	-0.416167
C	-1.6314483586	-2.7683863997	-1.1476756425	-0.189595
C	-2.1328992914	-2.0194643863	-2.2640240566	 0.295819
N	-2.5502057834	-1.415814948	-3.159263036	-0.352446
H	 1.0246407833	 1.6280666741	-0.5942848267	 0.130421
H	-0.7277757825	 1.8067631484	-0.8766642836	 0.114702
H	-0.0931334861	 1.7601457911	 0.7908282789	 0.101936
H	-1.4488793995	-0.2302270365	 1.274601202	 0.090272
H	-2.1059056619	-0.1205099679	-0.3698222989	 0.106394
H	-0.3775115975	-2.4658589603	 0.6364987779	 0.110154
H	-2.3666794922	-3.8616469002	 0.6059721913	 0.104005
H	-4.0065423286	-1.4349401014	-0.4037870033	 0.144479
H	-4.6053555285	-3.0769315173	-0.182874476	 0.13199
H	-4.1548334459	-2.1091644593	 1.2279019484	 0.124957
H	-1.0259543938	-3.6220038138	-1.4319672521	 0.131927
