23
gdb 118202	4.12085	0.64534	0.6124	3.3781	84.01	-0.2445	-0.01	0.2345	1923.0834	0.201493	-425.445083	-425.433485	-425.432541	-425.483154	39.978	
C	-0.0734078921	 1.408922793	-0.070634187	-0.226286
O	-0.0014560263	 0.0164435992	 0.1094977667	-0.232473
C	-1.2493571075	-0.6249453106	-0.0336671599	-0.06084
C	-1.0728081668	-2.1223643279	 0.2189869755	 0.021248
C	-0.5483421568	-2.3930660015	 1.6347653625	-0.398573
C	-2.3906051316	-2.8571804649	-0.0532794804	-0.317306
C	-2.2513974036	-4.3691693758	-0.2097978866	 0.383616
C	-3.5488588757	-5.1593783189	-0.2060879592	-0.472686
O	-1.1775867241	-4.9095642854	-0.3434083794	-0.292737
H	 0.93490417	 1.8096411579	 0.0595888656	 0.127012
H	-0.4329847259	 1.6739649927	-1.0780359623	 0.101689
H	-0.7423686299	 1.883611531	 0.6652734991	 0.10179
H	-1.9812282842	-0.1986296666	 0.6775230548	 0.076646
H	-1.6504623132	-0.4524990141	-1.0485608448	 0.077522
H	-0.331854632	-2.4931378125	-0.4980556107	 0.104244
H	-0.3499259473	-3.4578660967	 1.7768453791	 0.128911
H	 0.3770976356	-1.8400967594	 1.807983103	 0.132884
H	-1.2780580197	-2.0729000199	 2.3896255423	 0.098173
H	-3.1329714999	-2.64915852	 0.7298781288	 0.110723
H	-2.851390224	-2.4969286618	-0.9863819353	 0.118223
H	-4.2817914708	-4.7168729597	-0.8892474723	 0.133372
H	-3.3545256383	-6.1957700861	-0.4845364746	 0.142774
H	-3.992743656	-5.1318923021	 0.7961957851	 0.142075
