25
gdb 122144	2.92883	0.74963	0.62999	2.9489	87.14	-0.2447	0.0793	0.324	1892.4832	0.2269	-426.626057	-426.614454	-426.613509	-426.663844	41.074	
C	-0.085517705	 1.5173562913	-0.0684786556	-0.391896
C	 0.0080345027	 0.0016406405	-0.0468772165	-0.033749
O	 0.644866523	-0.4343102926	-1.2348307896	-0.256663
C	 0.7967807454	-1.8439737406	-1.3153495183	-0.066377
C	 1.4383918425	-2.2316236347	-2.6495954469	-0.027071
C	 1.6133131354	-3.76178915	-2.7052114916	-0.183282
C	 2.5931236011	-4.2469549262	-3.7789648331	-0.390229
C	 0.6126982946	-1.7034144104	-3.8377713601	-0.046995
O	 0.6881153565	-0.3031762948	-4.0013254236	-0.434688
H	 0.9104853586	 1.9627449898	-0.1425026703	 0.131625
H	-0.6787458262	 1.856507949	-0.9228107652	 0.130431
H	-0.5616194701	 1.8808033446	 0.8469310389	 0.11971
H	 0.5853746541	-0.3397900535	 0.8277199687	 0.092532
H	-0.9942529843	-0.450813154	 0.030479389	 0.092061
H	 1.4166375162	-2.1970467299	-0.4748431724	 0.089034
H	-0.1898752435	-2.3305721539	-1.219166375	 0.08739
H	 2.4263315563	-1.754529324	-2.7003641171	 0.085403
H	 1.9616784293	-4.116187544	-1.7264470755	 0.093244
H	 0.6321631558	-4.2311155475	-2.861201306	 0.09723
H	 3.59036016	-3.8223503308	-3.6208718628	 0.118588
H	 2.6874089841	-5.3370520933	-3.7554486509	 0.113143
H	 2.2713897834	-3.9677580696	-4.7866757147	 0.12477
H	 0.9791397487	-2.140392127	-4.7724785626	 0.099107
H	-0.4327257384	-2.0445743207	-3.7164919372	 0.071044
H	 0.5362553395	 0.0735813124	-3.1245205816	 0.285638
