17
gdb 30174	4.38383	1.28174	1.04143	0.9574	74.75	-0.1904	0.0196	0.21	1133.9928	0.137479	-421.845297	-421.837853	-421.836909	-421.877613	28.704	
C	 0.2106528513	 1.5123456721	 0.0656481511	-0.396093
C	 0.0491264044	 0.0080530671	-0.027707204	 0.128756
C	 0.769882263	-0.65682576	-1.2649632141	-0.398472
C	 1.4146969327	-1.7882609593	-0.5480774925	 0.228228
C	 1.3009669302	-1.6711633865	 0.7892858219	 0.325109
O	 0.5841634053	-0.5931413803	 1.2052770988	-0.300382
C	 2.039106297	-2.7355944525	 1.3841747353	-0.357232
C	 2.5540002691	-3.4157953394	 0.3130812374	-0.003152
O	 2.1925560151	-2.8513562106	-0.8789445835	-0.191161
H	 1.2704678751	 1.7824539372	 0.1006626238	 0.12888
H	-0.2430855705	 1.9973018077	-0.8048091452	 0.12001
H	-0.2743497919	 1.8965745117	 0.9670758285	 0.131519
H	-1.0133168299	-0.2611848808	-0.0524232455	 0.095762
H	 0.0405806418	-0.9390936791	-2.0315557544	 0.120662
H	 1.4876029289	 0.0327595938	-1.7316065577	 0.114755
H	 2.1779718393	-2.97814468	 2.4250241986	 0.118998
H	 3.1627645592	-4.3015535612	 0.2382856916	 0.133812
