16
gdb 7118	7.33647	0.95256	0.85206	4.1256	65.8	-0.2529	0.0008	0.2537	1326.1363	0.129773	-417.10128	-417.092304	-417.09136	-417.13597	30.267	
C	 0.0167331689	 1.5718885659	-0.2522688146	-0.392904
C	-0.0489900981	 0.0752344054	-0.0165682783	-0.035155
O	 0.5699709933	-0.5692345981	-1.1454428377	-0.282744
C	 0.5928724404	-1.9260517644	-1.087215894	 0.541042
O	 0.1484245082	-2.588394257	-0.1917509523	-0.359322
N	 1.2176728316	-2.3775929759	-2.2421971761	-0.373596
C	 1.4737092055	-3.6868932023	-2.6310554228	 0.084572
N	 1.1601522687	-4.7123290953	-1.9575228792	-0.400537
H	 1.0533717978	 1.9090232331	-0.3414215855	 0.12841
H	-0.515576863	 1.8479079868	-1.166975525	 0.128403
H	-0.4456676647	 2.0987970273	 0.5875009742	 0.125655
H	 0.4801339555	-0.2193404156	 0.8950636491	 0.125442
H	-1.0801918907	-0.2800557156	 0.074194944	 0.1254
H	 1.5182800976	-1.6494061585	-2.8696131093	 0.26176
H	 1.9845931099	-3.6931819204	-3.6025007544	 0.094955
H	 1.4549998192	-5.5505292756	-2.455394438	 0.228618
