17
gdb 4337	3.69222	1.78347	1.22077	2.5058	78.27	-0.2434	-0.0195	0.2239	997.3598	0.143296	-326.800711	-326.792826	-326.791882	-326.833947	28.254	
C	 0.0485775797	 1.5252291581	 0.0209288468	-0.496154
C	 0.0024954099	 0.0188644573	 0.0012734933	 0.274172
C	 0.0706576659	-0.7032723911	-1.1894734918	-0.229845
C	 0.0255011565	-2.0967581248	-1.1766054994	 0.274172
C	 0.0972640818	-2.9059805479	-2.4461148841	-0.496154
C	-0.0896379085	-2.7116545288	 0.0728045816	-0.0653
N	-0.1572084022	-2.0528462051	 1.2300833865	-0.270809
C	-0.1111516364	-0.7211708478	 1.181025079	-0.0653
H	 0.9776277739	 1.9029220729	-0.4204237175	 0.133322
H	-0.778968706	 1.958368146	-0.5519255551	 0.133363
H	-0.0158321075	 1.9090895462	 1.0425843914	 0.128319
H	 0.1597968552	-0.1750462845	-2.1364956401	 0.089395
H	 1.0309937903	-2.7183733288	-2.9879419843	 0.13339
H	 0.0433350956	-3.9773713105	-2.2351859725	 0.128319
H	-0.7248799514	-2.6570698002	-3.1263213741	 0.133295
H	-0.1290456273	-3.7979591325	 0.1361523826	 0.097907
H	-0.1678435097	-0.2036127486	 2.1373426876	 0.097907
