14
gdb 131260	3.3466	1.65515	1.10747	3.6557	70.14	-0.187	0.0146	0.2016	997.3757	0.103805	-432.882399	-432.874791	-432.873847	-432.914672	28.242	
O	 0.0936404768	 1.3990345011	 0.1411641315	-0.452324
C	 0.0715249001	 0.037067407	 0.038517426	 0.147396
C	 0.0737722871	-0.7637479906	-1.0852150889	-0.192523
N	 0.0652559363	-2.1052128031	-0.7096729449	-0.427282
C	 0.0354720514	-2.1597400731	 0.6625234351	 0.254947
C	 0.0476069107	-0.8510400478	 1.1474388083	 0.352169
N	 0.0318475696	-0.9551577224	 2.5054122183	-0.376942
N	 0.0081676114	-2.2496043305	 2.9099377133	-0.219017
C	 0.0106487051	-2.9915276494	 1.8025593527	-0.135396
H	 0.1041192279	 1.7788235834	-0.7426032232	 0.296998
H	 0.0916008438	-0.480925768	-2.1264040564	 0.11217
H	-0.007870709	-2.877096282	-1.3453491377	 0.261603
H	 0.0389985091	-0.2291899051	 3.1985033049	 0.272225
H	-0.0069283502	-4.0675632397	 1.881706371	 0.105978
