19
gdb 41317	3.229	1.70417	1.33557	1.8853	79.13	-0.2349	0.012	0.2468	991.2602	0.161404	-385.869665	-385.862667	-385.861723	-385.900963	28.592	
C	-0.0445154039	 1.499414451	 0.0512574849	-0.229581
C	 1.5164581172	 1.5681260556	-0.0026559349	-0.325934
C	 1.5845109217	 0.025499242	 0.0337698736	 0.311863
C	 2.5327326901	-0.8316993453	-0.8009473804	-0.386829
C	 2.6596261425	-2.0942238785	 0.0260535689	-0.060245
C	 2.0613803437	-2.0057059072	 1.215583051	-0.087754
C	 1.423421584	-0.6593037467	 1.4149416702	 0.051045
O	-0.0312549774	-0.6582127457	 1.318704133	-0.316126
C	 0.0271986024	-0.0494190801	 0.0142923153	 0.072801
H	-0.5080580537	 1.8783377275	 0.9641581952	 0.111978
H	-0.5393932283	 1.9498155993	-0.8128699063	 0.100273
H	 1.8877634863	 1.9827439675	-0.9441438653	 0.102699
H	 2.0177381657	 2.0888225488	 0.8184362319	 0.098346
H	 2.144946477	-1.0314595668	-1.8086500559	 0.107684
H	 3.5070282191	-0.3415011037	-0.9423850008	 0.108468
H	 3.194579592	-2.9669770274	-0.334631112	 0.097673
H	 2.0280665247	-2.7877119514	 1.9655356411	 0.099653
H	 1.7538538828	-0.1377915545	 2.3224997734	 0.072936
H	-0.5735721961	-0.5841908043	-0.727232253	 0.071051
