17
gdb 50512	4.03335	0.88937	0.78926	1.2787	79.47	-0.2532	-0.074	0.1793	1405.3882	0.135068	-421.862418	-421.853785	-421.852841	-421.896984	30.438	
O	-0.4673743709	 0.3016123073	 0.2298842685	-0.238361
C	-0.094784101	 1.4205279777	 0.0011872244	 0.156832
C	 1.3660492756	 1.8671309347	-0.0092324351	-0.110334
C	 1.6853419623	 2.8027663453	-1.2155474048	-0.261442
C	 1.737774255	 4.2483532483	-0.6495840849	-0.311436
C	 1.8111071033	 4.0361052743	 0.8439728881	 0.250349
C	 2.0477369528	 5.1199235891	 1.8042931724	 0.071435
O	 2.1990747964	 6.279180768	 1.4885441113	-0.262498
C	 1.6284021565	 2.752517165	 1.1855918676	-0.179819
H	-0.8166360927	 2.2412968722	-0.2188480354	 0.082894
H	 1.970957304	 0.9553542784	 0.0093527313	 0.107422
H	 2.6547229965	 2.5197744979	-1.6328135159	 0.124783
H	 0.9520059231	 2.6982490206	-2.0204772996	 0.115163
H	 2.5923813129	 4.8207123744	-1.0217177964	 0.130363
H	 0.8477596445	 4.8331013146	-0.9094549143	 0.127005
H	 2.0820865246	 4.801285015	 2.8694982705	 0.073751
H	 1.624377777	 2.3723530372	 2.2020213223	 0.123893
