15
gdb 82734	2.69132	1.98408	1.42788	4.1316	63.67	-0.2359	-0.0247	0.2112	891.2635	0.113133	-457.733816	-457.726971	-457.726027	-457.765178	27.044	
O	 0.0222944482	 1.4301514004	 0.0975814624	-0.424543
C	 0.015508622	 0.0317475526	 0.0252773836	 0.049671
C	-1.3731089122	-0.5980611614	-0.0654709648	 0.038562
O	-1.9757472549	-0.0894984828	-1.3086031065	-0.316261
C	-1.6296665341	-1.320772243	-1.9360814999	 0.106685
C	-1.2011766523	-2.0004748122	-0.6928974465	-0.175659
C	-0.1409478165	-1.6628744579	-1.7448919582	-0.209435
C	 0.7133537898	-0.5455432961	-1.2415476575	 0.369234
O	 1.7439423938	-0.1413608784	-1.712746608	-0.317166
H	-0.4444535583	 1.7502031432	-0.6849165983	 0.293166
H	 0.5428027124	-0.3437339142	 0.9121568922	 0.116985
H	-2.0328386412	-0.4604677418	 0.7897784771	 0.103591
H	-2.1920133972	-1.6367754748	-2.8055809633	 0.129032
H	-1.3986227751	-2.974270213	-0.2693278565	 0.118642
H	 0.2719273957	-2.4290651805	-2.3885416857	 0.117495
