22
gdb 6227	2.10945	2.02076	1.56781	1.2773	78.5	-0.2364	0.0734	0.3099	1008.7927	0.196834	-350.199972	-350.189612	-350.188667	-350.234081	38.273	
C	-0.0116003761	 1.5424883007	 0.0625867782	-0.459124
C	 0.0263331027	 0.0227634881	 0.0498122189	 0.237633
C	-1.1914360207	-0.5829480357	-0.629384733	-0.453361
C	 1.3707456376	-0.6632329066	-0.1398706983	 0.010096
O	 2.5506910857	 0.0839863924	-0.247996946	-0.42106
C	 0.7049150379	-0.7199145214	 1.213381812	 0.255518
C	 1.3109174541	 0.0813531758	 2.3551307907	-0.446862
C	 0.1496965836	-2.0556708253	 1.6839816152	-0.45271
H	 0.9468698279	 1.9807158545	 0.3426977186	 0.126244
H	-0.2701652182	 1.9222839296	-0.9335914024	 0.104271
H	-0.7731653943	 1.9158072511	 0.7569911847	 0.114679
H	-1.3268728035	-0.1452372081	-1.6258692098	 0.10861
H	-1.113052322	-1.6645308	-0.7585897971	 0.113458
H	-2.1071981946	-0.3834723735	-0.059448424	 0.114321
H	 1.3748638308	-1.585406957	-0.7249695819	 0.071069
H	 2.5675387217	 0.489179934	-1.1214548138	 0.286589
H	 1.8787579865	 0.9436856863	 2.0084786915	 0.132098
H	 0.5331095131	 0.4292421582	 3.0450287752	 0.107141
H	 1.9992138516	-0.5497064938	 2.9289214412	 0.111761
H	 0.9207274161	-2.6117826719	 2.2298630796	 0.115014
H	-0.696921922	-1.913305378	 2.3663765157	 0.113021
H	-0.1895183179	-2.6909808497	 0.8632869048	 0.111594
