20
gdb 109807	2.52973	0.98531	0.81182	2.4249	79.32	-0.2725	0.0299	0.3024	1445.7115	0.169873	-403.144417	-403.134258	-403.133314	-403.180416	36.135	
C	-0.6467714663	 1.1816976035	-1.692321657	-0.417543
C	-0.2124045182	-0.1113370334	-1.0294930632	-0.023486
C	 1.2359963989	-0.5328663149	-0.8862653076	-0.088735
C	 2.3994374372	 0.2945525276	-1.3861511547	-0.074756
O	 3.628465413	-0.084914791	-0.7823450446	-0.418803
C	 0.4192384841	-0.167632999	 0.3438491964	-0.032267
C	 0.6920820035	 1.0879317563	 1.1636044123	-0.379895
C	-0.5099503902	 1.5647731785	 1.8515864901	 0.271322
N	-1.4658119424	 1.9268166947	 2.3905302805	-0.305544
H	 0.0389034102	 2.0128183192	-1.5109637038	 0.116276
H	-0.715469775	 1.0512993361	-2.777305505	 0.126537
H	-1.634060577	 1.4855055198	-1.3298374878	 0.13964
H	-0.8967047576	-0.9310465805	-1.2325407013	 0.09659
H	 1.4289813831	-1.5969361168	-0.9976882727	 0.100383
H	 2.5389664771	 0.1223301581	-2.4588228155	 0.119003
H	 2.2153745251	 1.3719491388	-1.2638958213	 0.083127
H	 3.5184276021	-0.0254669944	 0.1719566503	 0.281539
H	 0.1128295689	-1.0025704426	 0.9670483118	 0.106235
H	 1.4588175239	 0.8895083349	 1.9229271433	 0.148042
H	 1.0732154195	 1.9052420951	 0.5451971098	 0.152336
