20
gdb 108973	4.01756	1.19488	1.08194	1.7192	84.86	-0.2097	0.0008	0.2105	1202.0518	0.17235	-365.936458	-365.928796	-365.927852	-365.968814	30.504	
C	 0.1888912199	 1.5281609224	-0.1444260311	-0.374169
C	-0.0788842039	 0.033429117	 0.1103125717	-0.31093
C	 0.6402261025	-0.4954222182	 1.3065894621	 0.35807
C	 0.1981058272	-1.0096270811	 2.4594786088	-0.23139
C	 1.4681783885	-1.3719198977	 3.192217262	-0.021018
C	 2.5299915594	-0.2546782128	 2.9437329763	-0.063248
C	 3.5730312712	-1.3713106276	 2.8531436985	-0.18626
N	 2.3984402515	-2.0057594636	 2.1043638028	-0.147489
C	 2.1496579114	-0.5990651305	 1.4706775592	-0.091972
H	 1.2556112785	 1.7212206101	-0.2983234532	 0.119934
H	-0.3445116225	 1.871781505	-1.0358678271	 0.115569
H	-0.140089876	 2.1336025222	 0.7056992707	 0.121613
H	-1.1549829957	-0.1329110609	 0.2316469477	 0.106429
H	 0.2262266141	-0.5363509503	-0.7784561678	 0.112487
H	-0.815301079	-1.178714076	 2.7959021724	 0.10457
H	 1.4308042329	-1.9083032199	 4.1414912699	 0.069324
H	 2.5934268813	 0.736090365	 3.4129133525	 0.059792
H	 4.4532128433	-1.2071540151	 2.2245725495	 0.095657
H	 3.843171605	-1.9025344962	 3.7706252897	 0.096416
H	 2.8131012602	-0.3387665518	 0.6434809054	 0.066615
