19
gdb 32990	4.65382	0.8824	0.78885	0.675	85.3	-0.2427	-0.0461	0.1966	1488.8703	0.161155	-382.130166	-382.1217	-382.120756	-382.164408	30.91	
C	-0.0969419706	 1.563404986	-0.0069559434	-0.381584
C	-0.1466079937	 0.0385935578	-0.1212441288	-0.156748
C	 0.8338052936	-0.5115141436	-1.1745245997	-0.277551
C	 0.8110516453	-2.0154588601	-1.2482658829	 0.310692
N	 1.3420720764	-2.6938992337	-0.2217969451	-0.287888
C	 1.2934101215	-4.0237172416	-0.2883607057	-0.020743
C	 0.7214589415	-4.6916644623	-1.3680027618	-0.013623
N	 0.1905804481	-4.0303412752	-2.3976772012	-0.232193
C	 0.2407147668	-2.7004989244	-2.3276076791	-0.060349
H	 0.9036437064	 1.9067444485	 0.278147895	 0.117535
H	-0.3523121742	 2.0431301955	-0.9584905708	 0.113927
H	-0.8013765319	 1.9262943781	 0.7477675278	 0.11501
H	 0.0921845392	-0.4215153307	 0.8439552012	 0.119368
H	-1.1644140394	-0.2833979674	-0.3753619812	 0.097572
H	 0.5973549455	-0.0897098692	-2.1582663398	 0.100799
H	 1.8498521216	-0.1899942082	-0.9173570472	 0.117883
H	 1.7270862817	-4.5758128137	 0.5421906398	 0.113844
H	 0.6924886331	-5.7774863951	-1.4047652468	 0.114782
H	-0.185908981	-2.1499236406	-3.1632628303	 0.10927
