18
gdb 80803	1.9233	1.71123	1.20857	4.5879	77.62	-0.2622	-0.0057	0.2564	1119.8412	0.146287	-401.896749	-401.888072	-401.887128	-401.929832	32.704	
C	-0.1768906503	 1.5514947827	 0.8206349177	-0.435561
C	-0.1356908807	 0.0734504905	 0.4883009703	-0.015616
C	 1.0517905653	-0.4920530234	-0.3422338671	-0.005499
O	 1.9501301569	-0.2423614714	 0.8183871894	-0.327706
C	 0.7362797806	-0.8727563425	 1.3778748108	 0.301412
C	 0.6563489569	-1.0993390514	 2.8004731838	 0.172572
N	 0.5448724951	-1.299048105	 3.933608753	-0.343712
C	 0.8086850488	-1.9229133234	 0.2206317031	 0.003519
C	-0.34847365	-2.8197464958	-0.1779779338	-0.450314
H	 0.8181213317	 1.9195874343	 1.0759229223	 0.146382
H	-0.5554667465	 2.1228375954	-0.0334175451	 0.121812
H	-0.8480148783	 1.7382190791	 1.6651201825	 0.131722
H	-1.1211639548	-0.3195394995	 0.2311802948	 0.085798
H	 1.416726105	-0.1872445224	-1.3221270817	 0.107311
H	 1.7492050592	-2.474905765	 0.2835696402	 0.104953
H	-1.3023177511	-2.2953166199	-0.2665132553	 0.128695
H	-0.1364758485	-3.29147027	-1.1430919419	 0.13284
H	-0.4736255594	-3.6209558122	 0.5574005572	 0.141394
