20
gdb 17269	5.35076	0.97792	0.91174	1.6974	75.9	-0.2581	0.0933	0.3513	1324.7357	0.17622	-348.97084	-348.962165	-348.961221	-349.00478	31.675	
C	 0.057515673	 1.5247966817	-0.3186241027	-0.403947
C	-0.0363095511	 0.0666360238	 0.0766349012	-0.00754
C	 1.169701439	-0.8407198028	 0.0152555253	-0.294726
C	 0.5578966064	-0.4849533399	 1.352566073	 0.021175
C	 1.3116227146	 0.3659322574	 2.3570991151	-0.256928
C	 2.2161760523	-0.4748151081	 3.2283785005	 0.112064
C	 2.4443529326	-0.1787237465	 4.6472341138	-0.182633
O	 1.5756289719	-1.2426492006	 4.2537056887	-0.238729
H	 1.0271283104	 1.9606916669	-0.0606941692	 0.113729
H	-0.0712664979	 1.6400915921	-1.4005397155	 0.116681
H	-0.7171028372	 2.1245388694	 0.1727729847	 0.116229
H	-0.9762410935	-0.3970577369	-0.2132553919	 0.082926
H	 1.0560934489	-1.8498161964	-0.3655761946	 0.109648
H	 2.1213279413	-0.3796425153	-0.2353608266	 0.103202
H	-0.0196650729	-1.273725599	 1.8275495451	 0.09681
H	 1.9213953299	 1.120265384	 1.8457588585	 0.097077
H	 0.6074967173	 0.9046957175	 3.0032859166	 0.101825
H	 2.9931198713	-1.0252661775	 2.6942982863	 0.091244
H	 3.3736595862	-0.4847474079	 5.1262528575	 0.111675
H	 1.9528187175	 0.6817069082	 5.1006351441	 0.110216
