18
gdb 67784	2.75439	2.40207	1.67534	1.6878	77.95	-0.2149	0.0065	0.2215	855.3692	0.149541	-364.747078	-364.74062	-364.739676	-364.77729	27.858	
C	-0.0310728933	 1.4638237208	 0.0410551425	-0.484295
C	 0.0245109511	-0.0455946834	-0.0387306495	 0.314156
C	 0.3527575196	-0.6686857851	-1.3692203537	-0.125406
C	-0.1839604692	-1.8918582338	-1.4023041832	-0.083777
C	-0.8678213051	-2.1167068966	-0.0867109762	-0.055934
C	 0.0787239692	-2.1734320799	 1.1439433488	-0.10096
C	-0.657685503	-1.0288210897	 1.7586686356	-0.049995
C	 0.6907969696	-0.765169945	 1.1741497623	-0.123881
N	-1.2818868389	-0.7286221426	 0.3879536396	-0.195641
H	 0.9528227037	 1.9013567577	-0.1618742714	 0.111048
H	-0.743351076	 1.8578967534	-0.6898836524	 0.126633
H	-0.3465808173	 1.7873086018	 1.0376648353	 0.121096
H	 0.9746927542	-0.2026566508	-2.1240560492	 0.099366
H	-0.087961361	-2.6309993886	-2.1877249522	 0.102175
H	-1.6884411721	-2.8347894978	-0.0587968728	 0.074416
H	 0.5598614266	-3.0214670752	 1.6149061458	 0.088837
H	-1.1242684816	-0.8505062712	 2.716189306	 0.096656
H	 1.6317887935	-0.557607564	 1.6687757349	 0.085507
