18
gdb 107837	3.34008	1.49785	1.29062	1.8765	69.94	-0.237	0.076	0.313	1009.2451	0.149225	-439.028959	-439.021608	-439.020663	-439.060698	29.279	
O	-0.0013400892	 1.407334068	 0.0020092145	-0.419437
C	 0.0149394001	-0.00474761	-0.0906769585	-0.156162
C	-1.3754100648	-0.571717664	 0.052202323	 0.370962
C	-2.1473549815	-0.4614911193	 1.3920063019	-0.202926
N	-2.6571132102	-1.8723250637	 1.2567087545	-0.155147
C	-3.1211481138	-2.027894208	-0.1548148363	-0.050195
C	-3.4110834069	-0.7840819651	-0.982379304	-0.116247
O	-2.1755172604	-0.060229107	-1.0174628266	-0.312886
C	-1.6781743602	-2.0879542466	 0.1281378263	-0.118639
H	-0.6636426831	 1.7092141621	-0.6308431111	 0.293783
H	 0.4435795869	-0.346525178	-1.0465904053	 0.095587
H	 0.6549441645	-0.3719920469	 0.7175441125	 0.112897
H	-1.491468541	-0.4135342695	 2.2640256585	 0.118782
H	-2.9141704859	 0.3154146048	 1.4668106566	 0.106517
H	-3.7059419717	-2.9265603379	-0.3136275334	 0.108901
H	-3.6996703382	-1.0437639064	-2.0068090999	 0.116075
H	-4.208892187	-0.1672355733	-0.5471852526	 0.109649
H	-1.0181020575	-2.9431650694	 0.0521022499	 0.098487
