18
gdb 65072	2.08386	1.69466	1.26746	3.2561	72.27	-0.2436	-0.0365	0.2071	1070.8442	0.14534	-439.043339	-439.03439	-439.033446	-439.076962	33.131	
C	 0.0915231421	 0.9050025187	 1.222045558	-0.483187
C	-0.0131929528	-0.0527982357	 0.0510450541	 0.208047
C	 0.7323434874	 0.2310320265	-1.2027202943	-0.275968
N	 1.1498470648	-0.8742070586	-0.3204224068	-0.339522
C	-1.3166299172	-0.8043035033	-0.0387438525	 0.271604
C	-2.4967339697	-0.2027996457	-0.7028815396	-0.216848
O	-1.756701789	-1.2313968787	-1.3358396036	-0.256664
C	-1.6155723426	-1.8319583816	 1.0165946535	 0.13593
O	-1.0456539432	-1.9240130406	 2.0723869748	-0.254494
H	 1.0505078255	 1.4325494262	 1.1967535193	 0.113728
H	-0.7041877329	 1.6578426067	 1.1911821662	 0.118677
H	 0.0132909132	 0.3637633462	 2.1679238489	 0.157674
H	 0.3244317688	-0.0850780477	-2.156805044	 0.13402
H	 1.3323266061	 1.1373752949	-1.229367309	 0.109135
H	 1.9557440936	-0.6005104954	 0.2367213851	 0.231688
H	-3.503985733	-0.4712000268	-0.3861784698	 0.125329
H	-2.3843345116	 0.7935830256	-1.1277121644	 0.129502
H	-2.4377677496	-2.5213046808	 0.7209055441	 0.091351
