19
gdb 106568	2.57276	1.55306	1.32763	2.2895	80.29	-0.2408	0.0044	0.2452	1064.4036	0.159121	-385.886155	-385.877921	-385.876977	-385.918926	31.903	
C	-0.2169350486	 1.5285318884	 0.0053575871	-0.390477
C	 0.074062032	 0.0232266625	-0.0684690272	-0.30758
C	 0.7600908506	-0.5113502251	 1.1695046096	 0.194112
C	 0.9423775254	-2.0388478725	 1.4737492456	-0.271916
C	 1.2009874833	-1.5810135975	 2.9426851624	-0.185105
C	 2.3931756743	-0.6598101233	 2.7540210532	-0.095538
C	 2.1146143858	 0.0200583069	 1.6264108218	-0.12579
C	 0.0897662627	-0.5010376958	 2.6136754044	 0.404162
O	-0.8392573339	 0.0091756787	 3.146730834	-0.314919
H	 0.7048871627	 2.1124020942	 0.0953420915	 0.115412
H	-0.7369361631	 1.8685375434	-0.89499572	 0.113962
H	-0.8455440914	 1.7581351017	 0.8703693195	 0.144935
H	-0.8680836487	-0.5202635526	-0.20957079	 0.10326
H	 0.6907264268	-0.1982027843	-0.9492989878	 0.101535
H	 0.0208200785	-2.6174933306	 1.3476513949	 0.106253
H	 1.7911455083	-2.5164636002	 0.9769861291	 0.105177
H	 1.1560107806	-2.2511170524	 3.7973999391	 0.083513
H	 3.2010013892	-0.517157981	 3.4575303426	 0.110554
H	 2.6430513456	 0.8535231696	 1.1850961903	 0.108449
