21
gdb 103080	2.11476	1.34469	1.13832	2.5504	75.27	-0.2255	0.0624	0.2879	1225.6699	0.177648	-461.33514	-461.323997	-461.323053	-461.370531	41.065	
C	 0.2296771262	 1.5211193483	 0.186751543	-0.400621
C	-0.1211961366	 0.04830629	-0.0618773069	-0.22379
C	 0.6135090877	-0.5265098993	-1.2615592475	 0.329893
O	 0.3576306053	 0.1451334252	-2.4648822858	-0.457926
C	 2.0029946956	-1.1118234134	-1.0945879465	-0.075765
O	 2.5728869869	-1.0711148797	 0.1837291672	-0.41605
C	 0.8169973861	-2.0226748492	-1.4151863162	 0.284824
C	 0.3057912215	-3.0032532741	-0.3822775698	-0.459642
O	 0.7155424877	-2.4798706748	-2.7353335575	-0.444637
H	 1.2992248463	 1.6389133854	 0.3895080461	 0.129295
H	-0.0317802534	 2.144599477	-0.6747612893	 0.110636
H	-0.3203720918	 1.9115144619	 1.0479295591	 0.113684
H	 0.1198129616	-0.5283673578	 0.833118852	 0.109765
H	-1.1989993617	-0.0520481552	-0.2381222636	 0.102187
H	 0.8429943276	 0.9766885471	-2.4435617419	 0.282069
H	 2.6815858389	-0.9331633959	-1.9300924424	 0.088357
H	 3.0970617103	-1.8695258204	 0.3080730213	 0.289156
H	 0.5221343749	-2.6787988869	 0.6368600694	 0.130366
H	-0.7730725192	-3.153044273	-0.4860041964	 0.132265
H	 0.7906548838	-3.977565259	-0.527582222	 0.099765
H	 1.2859309421	-3.2522132061	-2.8207786224	 0.276171
