20
gdb 8270	5.67101	0.97946	0.90111	0.7913	81.26	-0.2557	0.0567	0.3124	1325.9314	0.175833	-311.833902	-311.825093	-311.824148	-311.867421	33.072	
C	 0.0139109887	 1.5970552641	 0.144744378	-0.406461
C	 0.0695874196	 0.0810205513	 0.0423200804	 0.058574
C	 1.104810984	-0.574900383	-0.9160982692	-0.260147
C	 1.333300133	-1.6812617487	 0.149126067	 0.053905
C	 2.7601852888	-2.1961680887	 0.3681185466	-0.375667
C	 2.8633998297	-3.1287615612	 1.4851134128	 0.304178
C	 2.9162116859	-3.894552554	 2.4104640215	-0.451728
C	 0.7035172106	-0.7342911306	 1.2055396291	-0.233868
H	 1.0045226006	 2.01263146	 0.3629316396	 0.109119
H	-0.3377514367	 2.0482180895	-0.7901154449	 0.112917
H	-0.6642669112	 1.9176896365	 0.9436977955	 0.114104
H	-0.9297412181	-0.3121912775	-0.1773256729	 0.071086
H	 0.7698239696	-0.8794948969	-1.9110883422	 0.094544
H	 1.9936941113	 0.0578520979	-1.0269843308	 0.092385
H	 0.6701180347	-2.5322183528	-0.0362674591	 0.081148
H	 3.119124613	-2.682302705	-0.5493159161	 0.126947
H	 3.4292531799	-1.3423108078	 0.5417074653	 0.121905
H	 2.9759539921	-4.5715704967	 3.225959787	 0.192647
H	 1.4747618695	-0.1504426229	 1.7216986314	 0.094725
H	 0.0399669849	-1.1701933835	 1.955634731	 0.099689
