17
gdb 25744	2.67183	1.47571	0.962	2.4897	77.51	-0.229	-0.0354	0.1936	1189.9231	0.134782	-421.891281	-421.882453	-421.881509	-421.925319	31.795	
C	 0.0037264213	 1.543486307	-0.0252760738	-0.4884
C	 0.0034239156	 0.0249049288	 0.044987511	 0.296986
O	 0.0047474183	-0.5476592832	 1.1205283711	-0.324939
C	 0.0011321888	-0.69892357	-1.2400298039	 0.073855
C	 0.0000865332	-2.0661008526	-1.4055808845	 0.298621
C	 0.0022167465	-3.2098403309	-0.4601333844	-0.504158
O	-0.0027074318	-2.365156167	-2.725921961	-0.173072
C	-0.0034338158	-1.1889408668	-3.4233905598	-0.016278
C	-0.0011360416	-0.1402458071	-2.571633849	-0.297823
H	 0.8844395504	 1.9054973202	-0.5672102285	 0.138276
H	-0.8788131796	 1.9059904473	-0.5639060425	 0.138307
H	 0.005714651	 1.9479397842	 0.9871361441	 0.139747
H	-0.8736407715	-3.8486823005	-0.620577015	 0.13986
H	 0.8915038118	-3.8337253899	-0.6059380684	 0.140131
H	-0.0081856744	-2.826472032	 0.5589988521	 0.179566
H	-0.0058157267	-1.2840182541	-4.496144872	 0.141223
H	-0.0012314352	 0.9033748067	-2.8427053155	 0.118098
