22
gdb 84990	2.32661	1.43009	1.17913	3.6416	82.21	-0.2345	0.0399	0.2744	1193.2165	0.19415	-404.415469	-404.405748	-404.404804	-404.449642	37.015	
C	 0.6106748206	 1.5632674205	-0.1154947412	-0.394243
C	-0.01324933	 0.1721231205	 0.0399509254	 0.038008
C	 0.260127016	-0.7917884396	-1.1506400155	-0.277402
C	 1.3321033788	-1.802939837	-0.6720879935	 0.182532
C	 0.9975361822	-3.2550080083	-1.0371737077	-0.426216
C	 2.7467405722	-1.4538377352	-1.1737632342	-0.427327
C	 1.3201817664	-1.642738457	 0.8608036406	 0.400209
O	 1.9144385369	-2.3401827291	 1.656927322	-0.402906
N	 0.5370881253	-0.5674089233	 1.1654965707	-0.314856
H	 1.6894425063	 1.4965769425	-0.2865382738	 0.127844
H	 0.1584596188	 2.0915035096	-0.9613692771	 0.120194
H	 0.4476030351	 2.1690415367	 0.7824815461	 0.114302
H	-1.0947558381	 0.2969982681	 0.1770204399	 0.083427
H	-0.6615840128	-1.3198611123	-1.4099235146	 0.10512
H	 0.5769864865	-0.2401600566	-2.0396801273	 0.103353
H	 1.0521346138	-3.4058361824	-2.1207185209	 0.107334
H	 1.7044904617	-3.9339042032	-0.5526659407	 0.138171
H	-0.0100680698	-3.5269628501	-0.70622522	 0.112614
H	 3.0189791807	-0.4193506056	-0.941340213	 0.115419
H	 3.4853437974	-2.1083799083	-0.7027834847	 0.137803
H	 2.8080399094	-1.5827454653	-2.2597163947	 0.110958
H	 0.4713380926	-0.2461679047	 2.1192100543	 0.245662
