15
gdb 29046	2.76783	1.68386	1.04694	4.5552	86.64	-0.2107	-0.067	0.1437	1066.8812	0.114761	-416.853977	-416.846483	-416.845538	-416.88595	28.722	
N	-0.0001698372	 1.3722197048	 0.0092952124	-0.528778
C	-0.059465325	 0.0294727898	 0.0020410261	 0.231002
C	-1.2631110057	-0.6556712512	 0.0051942396	-0.180982
C	-1.4889720153	-2.0380073783	-0.0007932139	-0.059095
C	-0.5840691255	-3.0786241097	-0.0110507089	-0.034611
N	 0.761098753	-3.0485789694	-0.0179317709	-0.244012
C	 1.5384866156	-2.0037626846	-0.0169712862	-0.059396
C	 1.3055704623	-0.5659049555	-0.0090283374	 0.305312
O	 2.2644905682	 0.2134322252	-0.0111767231	-0.400426
H	 0.9331381276	 1.7636344849	 0.0037344207	 0.283466
H	-0.8179912334	 1.9540853545	 0.0139095586	 0.265761
H	-2.1567221628	-0.034091319	 0.0134370362	 0.091224
H	-2.5352293584	-2.3352219482	 0.0033360298	 0.103071
H	-0.9980699636	-4.0847699402	-0.0140932271	 0.105115
H	 2.6100642002	-2.2126162431	-0.0236185259	 0.122349
