19
gdb 107486	2.08792	1.77715	1.23329	0.3777	75.12	-0.249	0.0762	0.3251	1092.209	0.157549	-422.968546	-422.959996	-422.959051	-423.001716	32.528	
C	-0.2573179728	 1.5206459507	 0.115893619	-0.389878
C	 0.1087620403	 0.0318946212	 0.0321752638	-0.316349
C	 0.7558366591	-0.3406740594	-1.2646084199	 0.335197
O	 1.5759374942	-1.5241247766	-1.3340170422	-0.294342
C	 2.146650628	-0.2801100854	-1.7640977928	-0.048669
C	 1.6971874186	-0.0639686103	-3.2188982366	-0.34733
C	 0.2443943632	-0.1662846015	-2.698444478	 0.408209
C	-0.9948350225	-0.6237367715	-3.3194845383	-0.265935
O	-0.7506711631	 0.7732697397	-3.0602064162	-0.271359
H	 0.6370967795	 2.1482992818	 0.0474404826	 0.115878
H	-0.9282922548	 1.8020868542	-0.6989110688	 0.148274
H	-0.7518051469	 1.7417577892	 1.0660736605	 0.113974
H	 0.79327117	-0.2483020985	 0.8402840164	 0.116411
H	-0.7927752551	-0.5810088542	 0.1653518376	 0.108899
H	 3.0561211123	 0.0479538275	-1.2742790345	 0.107418
H	 1.9021976988	 0.9427230004	-3.5933280868	 0.123014
H	 2.0371257317	-0.8130372493	-3.9374631295	 0.115696
H	-1.0001619352	-0.9019517952	-4.372005429	 0.121171
H	-1.7739566051	-1.0814077627	-2.7120269673	 0.119721
