16
gdb 4138	3.38737	1.83485	1.46869	0.1178	69.86	-0.2288	0.0229	0.2517	889.2568	0.12976	-379.788573	-379.781153	-379.780209	-379.820041	28.336	
C	 0.0228540117	 1.5028484688	-0.1069026392	-0.335814
N	 0.0102267649	 0.0451600929	 0.034490796	-0.102272
C	-1.1424723686	-0.5727958727	 0.8320197717	-0.110523
C	-0.2024227855	-1.7985129641	 1.0215268689	-0.214384
C	 0.6712936673	-0.5389562369	 1.2880378776	-0.103936
C	-0.4971072103	 0.0073821725	 2.0896688462	 0.487259
N	-0.6784647465	 0.7069097645	 3.1220852975	-0.317997
O	-2.0537837199	 1.0098498724	 3.2954742077	-0.405938
H	 1.0083096459	 1.8036048897	-0.4762013858	 0.124087
H	-0.7177215074	 1.7831114478	-0.8623634004	 0.124948
H	-0.1896288943	 2.0586169477	 0.8184089309	 0.12349
H	-2.1739334097	-0.5380538131	 0.4894571622	 0.102657
H	-0.4019298682	-2.4553001567	 1.8682720495	 0.112884
H	 0.0389741417	-2.3221853067	 0.0955864814	 0.112818
H	 1.7417953396	-0.465745646	 1.4700032316	 0.097468
H	-2.0386541307	 1.5209702699	 4.1116587241	 0.305253
