17
gdb 41270	3.49531	1.89321	1.51663	0.842	70.44	-0.2398	0.0592	0.299	873.5724	0.137857	-421.738029	-421.731931	-421.730987	-421.768162	25.873	
C	 0.021906026	 1.4457742729	 0.1920680122	-0.13974
O	 1.4265864123	 1.5674272989	-0.2007311397	-0.341653
C	 1.35439663	 0.269355038	-0.7506344065	 0.479023
C	 2.3986692194	-0.8130681908	-0.995871314	-0.3493
C	 1.3829729789	-1.4050089552	-2.0335395703	 0.108761
O	 0.212280124	-2.017588269	-1.4342843577	-0.3088
C	-0.4770112385	-0.7380857276	-1.3263071528	 0.073308
C	 0.0379435018	-0.0916314608	-0.029081149	-0.125509
C	 0.6535968866	-0.044693081	-2.1360574093	-0.185814
H	-0.1312454952	 1.7787852078	 1.2214241642	 0.119446
H	-0.6296654588	 2.0171634736	-0.4803517277	 0.107609
H	 3.2725093334	-0.4340028599	-1.5385252972	 0.1139
H	 2.7178325057	-1.4318844925	-0.1536553051	 0.109805
H	 1.7740353256	-1.9970174459	-2.8614753146	 0.088297
H	-1.5368127982	-0.8170780971	-1.5757147744	 0.078164
H	 0.0174635302	-0.6943832607	 0.8796721214	 0.088596
H	 0.5865207469	 0.6051269794	-3.0029948695	 0.083907
