16
gdb 26453	4.28384	1.09848	0.87915	6.4929	74.43	-0.2071	0.0177	0.2247	1245.7079	0.126174	-434.128314	-434.120127	-434.119182	-434.161621	29.762	
C	 0.0386565912	 1.4511401092	-0.0050835793	-0.355511
N	-0.0018224144	-0.0008735485	-0.0017076442	-0.18751
C	-0.0489098903	-0.6776969497	 1.1985479882	 0.142233
O	-0.0592551939	-0.1342863899	 2.2832122674	-0.346906
C	 0.0084272168	-0.6688124961	-1.2278505254	 0.405311
C	 0.0535271624	-0.1053036273	-2.4821424801	-0.211739
N	 0.0438621994	-1.1860172356	-3.3475560451	-0.243768
C	-0.0051020043	-2.3115940292	-2.5944619722	 0.025637
N	-0.0276988396	-2.0386937636	-1.3087568572	-0.326824
H	 0.9513418333	 1.8117655408	-0.4934249473	 0.127263
H	-0.8286850931	 1.8613004978	-0.5351889643	 0.127262
H	 0.0234360228	 1.7797290024	 1.0331128478	 0.171639
H	-0.0757307559	-1.7661494571	 1.0528940346	 0.126549
H	 0.0899572178	 0.9099835425	-2.8332102343	 0.134467
H	 0.0688142283	-1.137275281	-4.3516527268	 0.271928
H	-0.0224467605	-3.3009287149	-3.0257092618	 0.139969
