18
gdb 95673	3.018	1.21954	0.9315	2.9817	75.75	-0.2454	-0.0385	0.2068	1231.467	0.149626	-439.120725	-439.112346	-439.111401	-439.154023	31.819	
O	-0.0646131355	 1.4970884297	-0.2182096438	-0.42917
C	 0.0042436192	 0.1010443705	 0.0675734715	 0.079046
C	-1.3931679285	-0.4956200601	 0.2354472299	-0.224167
C	-1.3789357346	-1.9878362098	 0.5748337814	-0.178049
N	-1.212462171	-2.8458081686	-0.5852747094	-0.324756
C	-0.2458686186	-2.82323989	-1.5524388784	 0.36826
O	-0.2122832358	-3.6899246715	-2.4148173242	-0.378278
C	 0.7896671672	-1.748423962	-1.5721655814	-0.129941
C	 0.901309365	-0.5804795702	-0.9325954426	-0.103034
H	-0.4406240871	 1.5944444365	-1.1006646141	 0.281625
H	 0.5124925204	 0.0592300977	 1.04197783	 0.107381
H	-1.8911350211	 0.0608719928	 1.035497428	 0.114511
H	-1.9779567355	-0.3442953968	-0.6800875579	 0.103888
H	-0.6081280428	-2.1892323155	 1.3347905214	 0.11433
H	-2.3361229146	-2.2634279829	 1.0250569631	 0.118642
H	-1.8096376665	-3.6551800992	-0.6628338855	 0.247215
H	 1.5676037142	-2.0164092353	-2.2808750361	 0.119891
H	 1.7802073857	 0.0225125048	-1.1567435418	 0.112604
