20
gdb 103151	2.00231	1.51223	1.19283	4.2665	74.62	-0.2541	0.0119	0.2661	1174.8393	0.169556	-440.315214	-440.305255	-440.304311	-440.349856	36.324	
C	-0.0677349488	 1.640120595	-0.0203779957	-0.395765
C	 0.1507867217	 0.1261530264	 0.0842884859	-0.248527
C	 0.8210979124	-0.4770020622	-1.160875643	 0.060946
N	 2.1228709837	 0.0873057211	-1.5052411736	-0.561155
C	 0.7777183509	-2.0317625463	-1.3083993007	 0.143471
C	 0.1954167265	-2.9289594622	-0.2412051459	-0.418524
O	-0.1419647265	-1.8862899451	-2.458818039	-0.262781
C	-0.0871229893	-0.5281463626	-2.4012896646	 0.467428
O	-0.6021984459	 0.2641036794	-3.1281416337	-0.346245
H	 0.8814833199	 2.1775088666	-0.1080301175	 0.108325
H	-0.6752948921	 1.8854550738	-0.8960525078	 0.150775
H	-0.579540403	 2.0161517778	 0.8698569541	 0.117975
H	 0.7768805346	-0.1067084569	 0.9572704416	 0.09682
H	-0.8132165	-0.3636953493	 0.2591705751	 0.108949
H	 1.9945144985	 0.9763652962	-1.979244885	 0.248656
H	 2.6617690544	 0.2784334223	-0.6646364597	 0.229816
H	 1.7356550835	-2.4059265519	-1.6764236918	 0.104629
H	-0.7917162208	-2.5915738871	 0.0832767909	 0.131224
H	 0.0958912814	-3.948416605	-0.6252200618	 0.137561
H	 0.858630989	-2.96003374	 0.6295473922	 0.126421
