23
gdb 112925	3.11804	0.98847	0.79289	1.1914	88.18	-0.2396	0.0249	0.2645	1509.0879	0.206414	-388.313202	-388.303681	-388.302737	-388.347474	36.539	
C	 0.1012959316	 1.5547737866	-0.0846836225	-0.393028
C	-0.0057170483	 0.0301918685	 0.0145365216	-0.17701
C	-1.450410268	-0.5126379427	 0.0633286785	-0.02742
C	-1.469289665	-2.0350818324	-0.156675459	-0.207507
C	-2.8383732279	-2.633818289	 0.1446358689	 0.111118
O	-2.7851621061	-4.0151878447	-0.1909255364	-0.441613
C	-3.2021733231	-2.4092935169	 1.6170745342	-0.276203
C	-2.9213386681	-0.9921566399	 2.0465816308	-0.080173
C	-2.1583768975	-0.1507011745	 1.3488250717	-0.034252
H	 1.1476700013	 1.8687187305	-0.1517220412	 0.113307
H	-0.4150620245	 1.9294056379	-0.9757374637	 0.113937
H	-0.3336748079	 2.0572746595	 0.7850209284	 0.118823
H	 0.4965183728	-0.4178812683	-0.8522649975	 0.09474
H	 0.5371048019	-0.3251839062	 0.9000139103	 0.097266
H	-1.9961832919	-0.0373624273	-0.7688511784	 0.077225
H	-1.1850178511	-2.2776161324	-1.1859164324	 0.099454
H	-0.7307756979	-2.5131562962	 0.5003675615	 0.100309
H	-3.5881913883	-2.1211845928	-0.4820603506	 0.063519
H	-3.6399362611	-4.4050401943	 0.0190471621	 0.277522
H	-4.2607486703	-2.6510261765	 1.7883954331	 0.089447
H	-2.6275529314	-3.1197386413	 2.229054019	 0.114326
H	-3.3824589004	-0.6575744219	 2.9730104762	 0.083479
H	-2.0224075487	 0.8638398744	 1.7155831357	 0.082734
