21
gdb 92452	2.26552	1.77072	1.45497	1.4847	76.39	-0.2413	0.0766	0.3179	1028.4138	0.185027	-424.242424	-424.234544	-424.2336	-424.274267	32.308	
C	-0.2125861079	 1.4959607668	-0.0850788825	-0.413448
C	 0.0260579963	-0.0003406522	 0.0412046277	 0.138368
O	 0.672313166	-0.5120685949	-1.1625943411	-0.319552
C	 1.8523224692	-1.2149317848	-0.7266996368	 0.063875
C	 2.8943154446	-0.2025936361	-0.2295591741	-0.225935
C	 2.2925649427	 0.2368587676	 1.1479686687	-0.23212
C	 0.9420469547	-0.5073387586	 1.1757998516	-0.083115
C	 1.3544219807	-1.8771598861	 0.5671090601	 0.168844
O	 0.3252566323	-2.8193832378	 0.3840026089	-0.463469
H	 0.7191666125	 2.0516705974	-0.2161448083	 0.121737
H	-0.8460963799	 1.6972784685	-0.9538018536	 0.125828
H	-0.7250898553	 1.8778604313	 0.8045621201	 0.114208
H	-0.9507424791	-0.4966898971	 0.1310762549	 0.072125
H	 2.1692535401	-1.8764622683	-1.5341798519	 0.075165
H	 3.8820483454	-0.660750703	-0.1211818526	 0.100169
H	 2.9833341331	 0.6238708091	-0.9383420076	 0.109931
H	 2.9220840199	-0.0967286654	 1.9784373631	 0.101114
H	 2.1884706262	 1.319261183	 1.2424891008	 0.104411
H	 0.449909067	-0.5490659845	 2.1480860275	 0.068702
H	 2.1449322413	-2.3651631087	 1.1446306321	 0.080548
H	-0.1624238695	-2.5505823763	-0.403782287	 0.292614
