20
gdb 113109	5.77501	0.67073	0.6457	3.6216	78.17	-0.2254	-0.0243	0.2011	1744.5958	0.168208	-440.247162	-440.237352	-440.236408	-440.283112	34.183	
C	-0.3816570018	 1.3400131734	 0.1565249668	-0.239261
O	 0.2441892622	 0.1057943584	-0.1151274842	-0.240946
C	 0.8556166574	-0.4660158648	 1.0097562633	 0.137695
C	-0.0919850954	-1.2447964966	 1.9696345191	-0.202542
N	 0.310523924	-2.4993666177	 1.3035062051	-0.079975
C	 0.5237360411	-3.6851407213	 2.0939427119	-0.240767
C	 0.6791344099	-4.9161630939	 1.2132982646	 0.157404
O	 1.3874792296	-5.8536314764	 1.4706964592	-0.236387
C	 1.4685940422	-1.8372762012	 0.6641887204	-0.200846
H	 0.3361785487	 2.0811635886	 0.542115211	 0.105937
H	-0.7974101238	 1.7057373201	-0.7850173492	 0.132099
H	-1.1985838627	 1.2401690568	 0.8868897156	 0.107996
H	 1.5236720722	 0.257194221	 1.4959380328	 0.071112
H	 0.2301143746	-1.1749891493	 3.0203119722	 0.088333
H	-1.1618427048	-1.0179152034	 1.9048527737	 0.108772
H	 1.3852306769	-3.6315461332	 2.7848488962	 0.100937
H	-0.3745817232	-3.8584013661	 2.7058725334	 0.129767
H	 0.0542620416	-4.879560111	 0.2926034514	 0.086803
H	 1.5897923391	-2.0430655239	-0.4035237459	 0.120305
H	 2.4219876124	-2.0179662993	 1.1844820323	 0.093562
