16
gdb 12627	3.26445	1.98365	1.35226	2.4846	65.74	-0.2516	-0.0285	0.223	906.7439	0.129643	-383.766267	-383.758453	-383.757508	-383.798491	28.884	
C	-0.2730709571	 1.57317661	-0.0373797248	-0.393493
C	 0.0672135849	 0.0793083362	-0.0231839495	-0.149123
C	 0.7997404568	-0.454041187	-1.2372963084	-0.073705
C	 1.8525227454	-1.2153687729	-0.9298219612	-0.102289
C	 1.9965134422	-1.4028569573	 0.5583106642	 0.021359
O	 3.3053335157	-1.2556335425	 1.0547616139	-0.441017
C	 1.0550493242	-0.3056907146	 1.0849167008	 0.353195
O	 1.1975180367	 0.226561885	 2.1562678332	-0.322283
H	 0.619452985	 2.1733435988	-0.2375018192	 0.128669
H	-1.0157873116	 1.7955101981	-0.8090221907	 0.117743
H	-0.6751964417	 1.878766515	 0.931747187	 0.13905
H	-0.8605926115	-0.4905459673	 0.146318353	 0.113836
H	 0.474558774	-0.2199888642	-2.2452861236	 0.10576
H	 2.5192196678	-1.6949255779	-1.6360689115	 0.113796
H	 1.5827646309	-2.3856108186	 0.8573829579	 0.094853
H	 3.2156993283	-0.7873199407	 1.8970035289	 0.293651
