17
gdb 37268	3.73517	2.00275	1.9319	1.0066	72.28	-0.2271	0.071	0.2981	786.5828	0.140006	-380.770121	-380.764664	-380.76372	-380.799531	24.312	
C	 0.0454438072	 1.5082003833	-0.13571905	-0.25059
C	 1.2877277548	 0.7044568816	-0.0296522632	-0.024187
C	 1.894666377	 0.4400288923	 1.3355786779	 0.005084
C	 1.268720366	-0.8813425131	 1.8481781455	-0.095791
C	 0.9949315672	-0.1440610208	 3.1916952452	-0.068967
C	-0.1430390411	 0.5229871218	 2.522116439	-0.0804
C	-0.1612434124	-0.478870124	 1.3580639698	 0.007052
N	-0.0485925802	 0.0402106537	-0.0219090961	-0.129539
N	 1.229168134	 1.1564235055	 2.4988063525	-0.154293
H	-0.2368432916	 2.123873676	 0.7112221663	 0.138945
H	-0.2541759069	 1.8980233857	-1.1046875249	 0.115833
H	 1.9082607218	 0.5372965643	-0.9071488742	 0.08995
H	 2.9762478573	 0.5547324289	 1.4033361778	 0.079324
H	 1.6836248659	-1.8712360725	 1.6748047851	 0.079217
H	 1.2311148649	-0.3232820686	 4.2305145475	 0.104097
H	-0.9455495746	 1.1187084134	 2.9370004774	 0.100551
H	-0.9311463094	-1.2470766075	 1.4362247345	 0.083713
