16
gdb 15398	3.88423	1.06876	0.90397	4.0207	65.99	-0.2666	0.0116	0.2783	1236.2147	0.130511	-379.898223	-379.889798	-379.888853	-379.931926	29.623	
O	 0.2032840196	 1.3451250452	 0.0385847751	-0.415989
C	 0.0267272243	-0.0510045521	 0.1949695948	-0.057543
C	-1.3169588818	-0.5392096262	-0.3593198532	-0.221876
C	-1.4593020556	-2.037480423	-0.2487732178	-0.011695
N	-1.8274728667	-2.5726480265	 1.0651111498	-0.310821
C	-2.7803608166	-2.7194005021	-0.0546201144	-0.201736
C	-4.0123367404	-1.9734288489	 0.0411026324	 0.332277
N	-5.0029972096	-1.3792662615	 0.087742659	-0.334132
H	-0.4580855721	 1.7890781751	 0.5791840955	 0.285799
H	 0.852022047	-0.5162762657	-0.3565308939	 0.107699
H	 0.1213258361	-0.3597718412	 1.2469016804	 0.105421
H	-2.13539189	-0.0594288631	 0.1893708491	 0.119528
H	-1.4050043532	-0.2350012666	-1.4086215908	 0.118728
H	-0.7452254559	-2.6148044004	-0.8359164907	 0.103247
H	-1.3795900347	-3.4673237494	 1.244887604	 0.247351
H	-2.9013808505	-3.7002313936	-0.5063805291	 0.133742
