23
gdb 59830	3.53278	0.59017	0.57397	1.489	91.7	-0.2422	0.0584	0.3006	2082.5883	0.202453	-388.277981	-388.266325	-388.265381	-388.317103	41.399	
C	 1.0173320733	 0.3994586539	 0.0134367134	-0.402297
C	-0.4338657155	-0.0631255943	-0.0888255812	 0.145493
O	-1.3268601256	 1.0344165218	-0.251010137	-0.434714
C	-0.6862708675	-0.966680026	-1.3091788531	-0.337054
C	 0.0292153051	-2.2353789228	-1.2530961744	-0.005202
C	 0.6198368475	-3.2843453138	-1.1912362784	 0.122379
C	 1.3474421798	-4.5528485754	-1.1218066055	-0.123458
C	 2.535198295	-4.5684005195	-2.1044209002	-0.37243
C	 1.8094130821	-4.8506126189	 0.3185512278	-0.372684
H	 1.6916865487	-0.4579250657	 0.0897230603	 0.13143
H	 1.2915929801	 0.9854080484	-0.8701563115	 0.121211
H	 1.1651136274	 1.0262027467	 0.9006483629	 0.10271
H	-0.6943535065	-0.6351887771	 0.8160443354	 0.073464
H	-1.1474507286	 1.6689997881	 0.4495507391	 0.280956
H	-1.7667773116	-1.1417362713	-1.3743139763	 0.133593
H	-0.4097570344	-0.4079739727	-2.2129118614	 0.127824
H	 0.6563759004	-5.3535898919	-1.4214191179	 0.1026
H	 3.2620243428	-3.7933111989	-1.8417311387	 0.120846
H	 3.0418346856	-5.5385752271	-2.0742622475	 0.109825
H	 2.2005045183	-4.3844001482	-3.1286428215	 0.122872
H	 0.9615507309	-4.8663329107	 1.0083877825	 0.121969
H	 2.3114121663	-5.8225268261	 0.3638390229	 0.110454
H	 2.5123629364	-4.0855724485	 0.6632286103	 0.120214
