20
gdb 14977	4.19265	1.41421	1.13116	0.9274	76.83	-0.2395	0.0288	0.2683	1094.9181	0.178173	-349.014669	-349.006588	-349.005644	-349.047191	30.471	
C	 0.0729724405	 1.367178512	-0.1217982402	-0.239474
O	-0.1267849037	-0.0094036168	 0.0958114459	-0.247904
C	 0.6116546332	-0.5540737299	 1.1777697874	 0.141334
C	 0.026427871	-1.9323450632	 1.4763161718	-0.216156
C	 0.696750241	-2.5654332661	 2.7036671212	-0.262156
C	 2.1940602518	-2.4014422881	 2.6764847623	-0.041185
C	 2.8244546979	-1.5645609247	 1.8534236984	-0.056326
C	 2.1147414108	-0.6644056858	 0.8729427624	-0.265658
H	 1.0909253892	 1.6012593123	-0.4663227271	 0.105268
H	-0.6320622387	 1.6760714148	-0.8980361588	 0.124706
H	-0.1248764756	 1.9560200063	 0.7883678543	 0.100637
H	 0.479507965	 0.0894369498	 2.066113083	 0.061246
H	-1.0543171723	-1.8423043663	 1.620546719	 0.099092
H	 0.1816384379	-2.5685725858	 0.5965289605	 0.10547
H	 0.2968359125	-2.1218961415	 3.6279390315	 0.107607
H	 0.4393776002	-3.6304928299	 2.7608471113	 0.104322
H	 2.7695590382	-3.0064178706	 3.3733643178	 0.082878
H	 3.9099955902	-1.5024642059	 1.8749668487	 0.08277
H	 2.2321057239	-1.043844661	-0.152791184	 0.114023
H	 2.584207057	 0.3268523904	 0.8822565346	 0.099506
