14
gdb 26840	3.57211	1.1289	0.86014	5.4993	75.59	-0.2036	-0.0503	0.1533	1241.22	0.101559	-470.048406	-470.040078	-470.039134	-470.081361	30.274	
N	 0.1668153733	 1.428251256	-0.1288765126	-0.616521
C	 0.0084235551	 0.0421355029	-0.0632146727	 0.230283
C	-1.1110256117	-0.7844198291	-0.0947068437	 0.301774
O	-2.3869052501	-0.3413178235	-0.1461704826	-0.445516
N	-0.7727900624	-2.0828749969	-0.0804561338	-0.355642
C	 0.5603219165	-2.1100315509	-0.0337231764	 0.237775
N	 1.0607222646	-0.8283989822	-0.032070841	-0.312811
C	 1.4429742995	-3.2605349546	 0.0237362738	 0.082454
O	 1.1023110606	-4.4218944899	 0.0098131056	-0.273823
H	 0.4763969474	 1.8397100512	 0.746945426	 0.255165
H	-0.7058554776	 1.8689823605	-0.3946063593	 0.266783
H	-2.9506953404	-1.1236625243	-0.1887050883	 0.309157
H	 2.0330591591	-0.5641796453	-0.0562364624	 0.274209
H	 2.5211255961	-2.971741294	 0.0812502975	 0.046715
