18
gdb 100615	2.12273	1.20907	0.81009	3.0251	78.2	-0.2787	0.0122	0.2909	1381.6881	0.144535	-401.919588	-401.909189	-401.908245	-401.955222	36.873	
C	 0.0280073434	 1.5581860543	 0.0321526857	-0.411726
C	 0.0373543968	 0.0271971697	 0.0283597075	 0.026933
C	 0.7787257376	-0.5274714675	 1.2487027528	-0.099652
O	 2.1080060129	-0.0375065615	 1.196129393	-0.421192
C	-1.4204392883	-0.5346522071	-0.0235503817	-0.33413
C	-2.1641516326	-0.0622973429	-1.1931635997	 0.320743
C	-2.7673352505	 0.3275842632	-2.1547249142	-0.411234
C	-1.4374879934	-2.0081501993	 0.0125977345	 0.295847
N	-1.4382317773	-3.1625747016	 0.0549696075	-0.330506
H	 1.0529953941	 1.927714575	 0.089632609	 0.146736
H	-0.4430760389	 1.9555295812	-0.8694439812	 0.132519
H	-0.5193605974	 1.9428407098	 0.9015641931	 0.111517
H	 0.5594066465	-0.3290660687	-0.8666158454	 0.113053
H	 0.2666553828	-0.196543447	 2.1693142309	 0.085923
H	 0.7600281345	-1.6257730983	 1.233602379	 0.119423
H	 2.6075665634	-0.4431305285	 1.9103391977	 0.29299
H	-1.9417809018	-0.1904604648	 0.8821104662	 0.153427
H	-3.3064809717	 0.667996844	-3.0044660947	 0.20933
