13
gdb 129502	2.93473	1.65864	1.05986	6.0451	61.32	-0.2418	-0.0135	0.2283	1022.78	0.090625	-486.139859	-486.131917	-486.130973	-486.172998	28.387	
N	-0.1423920519	 1.3540562262	 0.056331194	-0.573618
C	 0.0852945902	 0.0165658063	 0.0062548035	 0.508136
O	 1.1636477936	-0.5202370403	-0.0286279951	-0.349107
N	-1.1295784189	-0.7338048226	 0.0128894492	-0.174714
N	-2.3598573082	-0.0881436919	 0.0215698919	-0.252126
C	-3.2324717053	-1.0409350814	 0.0221217838	 0.078954
N	-2.6541629024	-2.2765381306	 0.0147953088	-0.379884
C	-1.2545482231	-2.1359248876	 0.0084064086	 0.513868
O	-0.4316191233	-3.0101649416	 0.0023094034	-0.373655
H	 0.6579113717	 1.9553242163	-0.0231625681	 0.271566
H	-1.0766951885	 1.721837896	 0.0066846456	 0.280378
H	-4.29917699	-0.8775877476	 0.027098149	 0.164514
H	-3.1070134737	-3.174185361	 0.0145747555	 0.285687
