15
gdb 10260	2.41981	1.87209	1.32689	4.0421	65.85	-0.2617	-0.0204	0.2413	959.1693	0.117587	-358.84018	-358.831427	-358.830483	-358.873494	30.222	
C	 0.0674908116	 1.4915462111	-0.0357059765	-0.349739
N	-0.0070971739	 0.0333288984	 0.0366688009	-0.046873
C	 0.7089395343	-0.5145718038	 1.1851229052	-0.337466
C	-1.3573350367	-0.4927104605	-0.0684604917	-0.260507
C	-2.2751959178	-0.0338933925	 1.014799795	 0.294613
N	-2.9046677332	 0.3396677373	 1.9085304927	-0.311891
C	-1.9469452267	-0.1892625512	-1.3863601674	 0.321328
N	-2.4014782541	 0.0323288272	-2.4235800765	-0.305783
H	 1.1196713954	 1.782234502	-0.0834928348	 0.137495
H	-0.4242325481	 1.8428460687	-0.9464508515	 0.154071
H	-0.3945203626	 1.9911338825	 0.8314368998	 0.128969
H	 0.2893776554	-0.1974813011	 2.1544550241	 0.129443
H	 0.6984466695	-1.6081679543	 1.1421326287	 0.130324
H	 1.7491365075	-0.183373634	 1.1371678928	 0.139855
H	-1.2979074706	-1.5861207999	 0.0111270291	 0.17616
