23
gdb 38179	4.42471	0.94912	0.84943	0.2548	89.93	-0.2497	0.0884	0.3382	1442.8673	0.207559	-351.115616	-351.107298	-351.106353	-351.148917	32.914	
C	 0.1219207814	 1.5273776286	 0.0258851451	-0.288253
C	 1.4393266461	 0.8035577481	 0.0357988102	-0.028409
C	 1.6304956126	 0.0717345662	 1.368362459	-0.258637
C	 0.2959910506	-0.7158806379	 1.1124377645	 0.006541
C	 0.1342323989	 0.0447366291	-0.2158886752	-0.045196
C	 0.4759631805	-2.2134921024	 0.9700863696	 0.052728
C	 0.7187943157	-3.0720419856	 2.246327182	-0.237656
C	-0.1875302581	-4.1725459232	 1.6318817849	-0.208839
C	-0.7659919159	-3.1034913383	 0.666407572	-0.237069
H	-0.2919816718	 1.9304487022	 0.9485426582	 0.099888
H	-0.0663849067	 2.1412454248	-0.84948821	 0.106902
H	 2.2285109819	 1.0555527431	-0.6625371	 0.07925
H	 2.4948039447	-0.5978684055	 1.373935275	 0.099978
H	 1.6746423002	 0.7031711345	 2.2623470914	 0.089339
H	-0.5017227506	-0.5152008088	 1.8406514354	 0.054119
H	-0.2405557148	-0.3875838012	-1.1368225555	 0.079845
H	 1.2623096856	-2.4172329052	 0.231917442	 0.06356
H	 1.7485786409	-3.3362522537	 2.4993634131	 0.092554
H	 0.2534398495	-2.6115588978	 3.1244602632	 0.09612
H	 0.3979010209	-4.9260693212	 1.0969277992	 0.099875
H	-0.8847405253	-4.6869702909	 2.2974827793	 0.09408
H	-1.6807783244	-2.6529560348	 1.0663991785	 0.096949
H	-0.948394612	-3.3935693401	-0.3713856016	 0.092328
