20
gdb 84498	3.04848	1.37485	1.11685	2.0601	82.13	-0.2214	0.0157	0.2371	1155.0154	0.171232	-403.126476	-403.117822	-403.116878	-403.159452	33.869	
C	-0.0416304886	 1.6038067957	-0.0044249208	-0.423835
C	 0.0469912952	 0.0751062948	-0.010499646	-0.043664
C	 0.8310977827	-0.50636793	-1.170253615	-0.079128
C	 1.5987996208	-1.5270248056	-0.791727516	-0.153182
C	 1.4708451326	-1.78138078	 0.6675901282	 0.340282
C	 1.2714682061	-3.1693234269	 1.1833728355	-0.297021
N	 2.5041273367	-2.4315235713	 1.4784001203	-0.344813
C	 0.7648941887	-0.5433329073	 1.2360747099	-0.000405
O	 1.7742875096	 0.3072351077	 1.7572862064	-0.414537
H	 0.9544285745	 2.0515726298	 0.0418829862	 0.132537
H	-0.5342171649	 1.9633367124	-0.9134948913	 0.115382
H	-0.6274955495	 1.9697468532	 0.8473547942	 0.105071
H	-0.9778022852	-0.3256628949	-0.0443606208	 0.080447
H	 0.7269571389	-0.1377474071	-2.1850219637	 0.092718
H	 2.2196152524	-2.1394454807	-1.4375588486	 0.09141
H	 0.6266805858	-3.3430294547	 2.0416388703	 0.116859
H	 1.2940757008	-3.9835824445	 0.4622728496	 0.107054
H	 3.2684257538	-2.7482070228	 0.8864789317	 0.230161
H	 0.0465260253	-0.8090720183	 2.0233780577	 0.060839
H	 1.3401624941	 1.0540859804	 2.1804958322	 0.283825
