21
gdb 123201	4.51425	0.6305	0.57658	1.1029	82.53	-0.244	0.0288	0.2728	1941.5643	0.178776	-424.168749	-424.157769	-424.156825	-424.206753	37.944	
C	-0.7715830198	 1.1168108455	-0.5334484021	-0.380391
C	 0.496030174	 0.2825169032	-0.609920937	-0.036467
O	 0.1255652543	-1.0470181595	-0.9482529085	-0.249416
C	 1.1699476003	-1.9931474774	-0.9158969317	-0.079456
C	 2.0115287789	-2.0476097248	-2.183624421	-0.06706
O	 2.8669374163	-0.9156150995	-2.2350507804	-0.229206
C	 3.6557101283	-0.8455319855	-3.4066240748	-0.212565
C	 4.6708903736	-1.8992138538	-3.5011850361	 0.311698
C	 5.4992226613	-2.7672732472	-3.5717243861	-0.46428
H	-1.2897624852	 1.1179452007	-1.4969386586	 0.122763
H	-1.4542727151	 0.7136886382	 0.2201953767	 0.122013
H	-0.5307589823	 2.1510526449	-0.2691369317	 0.111305
H	 1.1920459375	 0.6912374723	-1.3529180991	 0.105187
H	 1.0197859215	 0.2860485875	 0.3606423045	 0.082597
H	 1.8321156148	-1.8243502633	-0.0520746509	 0.097122
H	 0.6928151079	-2.9722694119	-0.7898269931	 0.10473
H	 2.606016871	-2.9741389428	-2.1864215529	 0.100913
H	 1.3478144596	-2.0648137097	-3.0630595847	 0.095457
H	 3.0183908551	-0.8733703333	-4.3058727253	 0.120773
H	 4.1429904428	 0.1349016618	-3.382404279	 0.140708
H	 6.2362554751	-3.5292513355	-3.6375323782	 0.203576
