13
gdb 16267	3.43089	1.96321	1.44751	3.7536	66.5	-0.2466	-0.0008	0.2457	841.3095	0.094933	-361.419039	-361.412152	-361.411208	-361.44998	26.321	
O	-0.0856418688	 0.0358296568	 0.1230570064	-0.323052
C	-0.0417587008	 1.2251536105	 0.0299640091	 0.366709
N	-1.0443857007	 2.2124942481	 0.0399034674	-0.340087
C	-0.0790144096	 3.3083772358	-0.0305065709	-0.0444
C	 0.9132246018	 3.2415031016	 1.0789008181	-0.315293
C	 1.0613939434	 2.2882447241	-0.1294782233	 0.027393
C	 2.2073483943	 2.2471952051	-0.9624293652	 0.180959
C	 3.1807480088	 2.1869625842	-1.6665547712	-0.402556
H	-1.8290994819	 2.1936896074	 0.6818869401	 0.248308
H	-0.2494958948	 4.1601349207	-0.6744909901	 0.133516
H	 1.6704740374	 4.0187832188	 1.1123481672	 0.142358
H	 0.6236866768	 2.8347764984	 2.0433645952	 0.131758
H	 4.0362046541	 2.1299573085	-2.2929391529	 0.194388
