20
gdb 88188	3.39694	1.23021	1.07452	0.51	83.01	-0.2224	0.017	0.2393	1197.7086	0.171553	-403.116197	-403.107867	-403.106923	-403.148885	32.384	
C	-0.1562043221	 1.4491204114	-0.1279065861	-0.314507
N	 0.0611715526	 0.0149075207	 0.0103133067	-0.128087
C	 1.4118108934	-0.4923604936	-0.1763226667	-0.288308
C	 0.7784177711	-0.5081258687	 1.1833411201	 0.291659
C	 1.3004138833	 0.4122715613	 2.2792005547	-0.175456
O	 2.0919002896	-0.3179193057	 3.2011432902	-0.246625
C	 1.3584824743	-1.305483148	 3.9017308968	-0.124045
C	 0.4657592304	-2.1222524116	 3.0091184665	-0.101926
C	 0.2242992651	-1.7647390088	 1.7491961132	-0.094448
H	 0.7037815896	 2.0763442557	 0.1529012968	 0.102671
H	-0.3949560915	 1.6623909773	-1.1748925416	 0.126322
H	-1.0157865978	 1.7485887716	 0.4801271889	 0.125546
H	 1.505201498	-1.4070762799	-0.7564767557	 0.113385
H	 2.2163072213	 0.2276420872	-0.3300830178	 0.10615
H	 1.9464736224	 1.2006874371	 1.8884535497	 0.108789
H	 0.4499881063	 0.8887203918	 2.7965073758	 0.092008
H	 2.1049473245	-1.9436476391	 4.3893822209	 0.118484
H	 0.7605830329	-0.8427150267	 4.7096931541	 0.097266
H	 0.0233025534	-3.0165153445	 3.4393571548	 0.094502
H	-0.4088143367	-2.3545985376	 1.0931625988	 0.096618
