13
gdb 29181	2.31701	1.88305	1.03881	7.4197	62.35	-0.2058	-0.0218	0.184	1035.225	0.088616	-489.943427	-489.935099	-489.934155	-489.976588	29.454	
O	-0.1721152869	 1.3306967921	 0.0123293482	-0.427668
C	 0.0400605325	-0.0027849734	 0.0031415741	 0.381531
C	 1.1474464912	-0.7614963191	-0.0079976879	-0.227874
N	 0.7202537788	-2.1030046292	-0.013318816	-0.377293
C	-0.6511410656	-2.2117012154	-0.005823423	 0.494584
O	-1.3301381843	-3.2054513572	-0.0077027754	-0.379308
N	-1.0877058305	-0.8381651202	 0.0049350388	-0.213032
C	-2.4140864978	-0.3879627606	 0.0155406181	 0.163584
O	-3.3811426822	-1.0969359096	 0.0175487948	-0.26726
H	 0.6764742758	 1.785717643	 0.0101842803	 0.316451
H	 2.1866320898	-0.4849386916	-0.0125405379	 0.142697
H	 1.3090721561	-2.9163357506	-0.021888745	 0.274426
H	-2.452434767	 0.713798862	 0.022702651	 0.119161
