19
gdb 76190	2.13699	1.3963	1.16443	1.6665	74.96	-0.2441	-0.0365	0.2076	1169.4723	0.155293	-460.165442	-460.155422	-460.154478	-460.199828	37.098	
C	-0.0659960408	 1.5033181128	 0.0350854148	-0.401881
C	-0.0056166265	-0.0040162455	-0.0478361064	-0.152898
C	 0.6225593531	-0.7216620556	-1.2141328555	 0.355275
C	-0.013623656	-1.9489457972	-1.8192148266	-0.44885
O	 1.306164525	 0.0293351601	-2.1657537322	-0.4658
C	 1.332408206	-0.7211047175	 0.1645530436	 0.253281
O	 2.4815338789	 0.0702379999	 0.2018779063	-0.480014
C	 1.4457599632	-1.9317104852	 0.9867283105	 0.08304
O	 2.4799923694	-2.207061927	 1.5621717003	-0.299795
H	 0.7483933235	 1.9609927998	-0.5272918475	 0.135577
H	-1.0103032753	 1.8622645082	-0.3861390384	 0.124288
H	-0.0025420609	 1.8459442537	 1.0720842115	 0.12459
H	-0.8478558001	-0.525792384	 0.4030922028	 0.091845
H	-0.6897592319	-1.641429478	-2.624137634	 0.136724
H	 0.7443693144	-2.6093926529	-2.2507138082	 0.13097
H	-0.5969344261	-2.5119456085	-1.0862785382	 0.114619
H	 2.1411642677	 0.3048022563	-1.7562950372	 0.301287
H	 3.1255582163	-0.4640099232	 0.6978602364	 0.302649
H	 0.5516095599	-2.5801433361	 1.052485068	 0.095092
