13
gdb 128927	4.31409	1.00216	0.91627	6.3377	66.22	-0.2463	-0.0184	0.228	1221.112	0.089957	-448.916998	-448.909194	-448.90825	-448.950822	27.306	
N	 0.1546759403	-0.9854070223	-0.4485834849	-0.30888
C	 0.1138545913	 0.1205920183	-0.1170403233	 0.270953
C	 0.0735402686	 1.5292874255	 0.3081670173	-0.294851
N	 1.3860035409	 2.1598240219	 0.2462694313	-0.392705
C	 1.7356981107	 2.6621409536	-0.8614549394	 0.573224
N	 2.9337855759	 3.3005025678	-1.1276968003	-0.367332
C	 2.8993063949	 3.7084190041	-2.4283692295	 0.088072
N	 1.803495405	 3.3987830914	-3.0292307717	-0.113286
O	 1.0376806558	 2.7141128393	-2.0353313091	-0.243876
H	-0.6840123891	 2.04332328	-0.2995378255	 0.15754
H	-0.2708430638	 1.5542085919	 1.347018686	 0.155232
H	 3.6738079003	 3.4071519516	-0.4562683663	 0.296843
H	 3.7038709392	 4.2394996568	-2.9139235645	 0.179064
