18
gdb 94763	3.86462	1.15053	1.00754	1.5852	78.72	-0.2344	0.0315	0.2659	1190.6441	0.148198	-401.902635	-401.894361	-401.893417	-401.935258	32.559	
O	 0.0107224354	 1.4152482317	-0.0535127144	-0.439269
C	 0.0469084002	 0.0018111641	-0.0703313496	 0.157505
C	 0.7422919005	-0.6238359962	 1.1699741859	-0.264622
C	 0.0668115561	-1.9899793985	 1.4057586278	-0.285986
C	-1.3345301901	-1.8221729115	 0.8199341893	 0.210504
N	-1.9754695087	-0.5374744854	 1.2406054839	-0.39332
C	-1.3335909568	-0.6371305379	-0.0850700607	-0.127599
C	-2.1636499621	-2.9670469637	 0.5929708455	 0.158497
C	-2.8475721604	-3.9432811867	 0.4283664751	-0.372107
H	-0.5462596431	 1.6605965505	 0.6957882353	 0.286918
H	 0.5769949702	-0.2655708564	-0.9911863413	 0.091391
H	 1.8229388536	-0.7040817736	 1.0348395938	 0.105075
H	 0.5667105261	 0.034841031	 2.0242317701	 0.114549
H	 0.5752881973	-2.7898414846	 0.8571665666	 0.113316
H	 0.0407206263	-2.2767071583	 2.4608817376	 0.113742
H	-2.9822800728	-0.6366343915	 1.1320904221	 0.241156
H	-1.9481705567	-0.5994178676	-0.9778767764	 0.099426
H	-3.4532789449	-4.8019440053	 0.2754198594	 0.190825
