23
gdb 77602	1.8031	1.65713	1.59282	0.1737	90.84	-0.2193	0.0244	0.2437	1121.4437	0.205053	-351.168982	-351.159526	-351.158582	-351.202136	37.152	
C	-0.0741159644	 1.5361338378	 0.0356938499	-0.424125
C	 0.0834307406	 0.0343838284	-0.045099689	-0.083675
C	 0.7299646498	-0.7073392535	-1.1969380626	 0.278605
C	 0.0253952273	-1.8951489703	-1.8118648393	-0.484293
C	 1.6657652418	 0.0976966874	-2.112003804	-0.335745
C	 2.7969068443	 0.5287473584	-1.2066712252	-0.082145
C	 2.6400010235	 0.0628688421	 0.0337575076	-0.128899
C	 1.3852521593	-0.7336016558	 0.1919967697	 0.260748
C	 1.4036331189	-1.9300405406	 1.1168186628	-0.486701
H	 0.8320186853	 2.0632624916	-0.2715503384	 0.12305
H	-0.8955829818	 1.8755549714	-0.6062494659	 0.110903
H	-0.3076221323	 1.8481798897	 1.0599295483	 0.111411
H	-0.780381883	-0.498208215	 0.3527703394	 0.071809
H	-0.6613499912	-1.5754280497	-2.6052861134	 0.115409
H	 0.7390913415	-2.5970542904	-2.2598135072	 0.112949
H	-0.5660749176	-2.4463136632	-1.0745313977	 0.112631
H	 2.0289342191	-0.5207120382	-2.9450676056	 0.100664
H	 1.1591546106	 0.95683226	-2.5735023057	 0.106078
H	 3.6090287317	 1.1632516054	-1.544189825	 0.090041
H	 3.3193331171	 0.2389956184	 0.8617552514	 0.086507
H	 1.5746846602	-1.6207016725	 2.1550538632	 0.115166
H	 0.4546360212	-2.4735724303	 1.092970242	 0.113968
H	 2.1997008381	-2.6339522411	 0.8474744545	 0.115642
