14
gdb 4995	3.34374	2.319	1.38089	4.0594	67.76	-0.2309	-0.0522	0.1787	846.7098	0.107963	-382.608647	-382.60182	-382.600876	-382.639634	25.511	
C	-0.0287150615	 1.5237384608	-0.003400941	-0.471842
C	-0.0561151124	 0.0239040022	 0.0022579725	 0.094027
C	-1.1787958689	-0.724887555	-0.151251853	-0.137385
C	-1.1269316848	-2.1539251207	-0.1350340541	-0.184924
C	 0.072928835	-2.7402096367	 0.0376355535	 0.080176
O	 1.208653549	-2.0405941478	 0.1932303423	-0.212517
C	 1.2321732545	-0.637542018	 0.1885182824	 0.38976
O	 2.297814214	-0.0993108217	 0.3365773966	-0.339382
H	 0.6265762349	 1.8973519607	-0.7973767996	 0.147218
H	-1.0306449458	 1.9349613164	-0.1483245772	 0.117326
H	 0.3810503634	 1.9084505572	 0.9364615319	 0.14724
H	-2.1367859966	-0.2314130263	-0.289585551	 0.112165
H	-2.0158326413	-2.7578307849	-0.2562826972	 0.116029
H	 0.2491595903	-3.8087956063	 0.069064534	 0.142107
