17
gdb 111257	3.21443	1.25317	1.00288	3.4099	68.92	-0.2477	-0.0365	0.2112	1186.1823	0.133674	-458.936041	-458.927099	-458.926155	-458.969881	32.434	
C	-0.0731543387	 1.556378309	 0.0020658872	-0.515762
C	 0.1693570374	 0.0862435344	-0.0304618118	 0.287764
O	-0.7786375938	-0.8042676496	 0.6178026647	-0.273515
C	 0.5991949984	-0.9187288388	 0.978946672	-0.069587
C	 1.2472070136	-1.8477960231	-0.0618443979	-0.163247
C	 0.7672612741	-3.2873920256	-0.2345540809	-0.081824
O	 1.2775469831	-3.840349248	-1.4343612027	-0.422642
C	 0.7530135579	-0.820292695	-1.1215210467	 0.376003
O	 0.8422186212	-0.7651727236	-2.3147493264	-0.317033
H	 0.8344367647	 2.101454043	-0.2743263822	 0.139331
H	-0.8602368861	 1.8299674673	-0.7076167689	 0.150484
H	-0.3850619229	 1.8691600775	 1.0018154343	 0.142189
H	 0.867183443	-0.754297551	 2.0156475083	 0.119249
H	 2.343488878	-1.81434617	-0.0322455956	 0.112206
H	 1.137966766	-3.9195719016	 0.5794517883	 0.111009
H	-0.3311203678	-3.3094640356	-0.2032720319	 0.108
H	 1.041304982	-3.2436150695	-2.1548072598	 0.297374
