15
gdb 130042	3.41627	1.60664	1.10126	4.0888	73.84	-0.2184	-0.0043	0.2141	1023.6575	0.117353	-413.01887	-413.012055	-413.01111	-413.049804	27.212	
N	-0.054590703	 1.3792393856	 0.1367160676	-0.574533
C	 0.0063673129	 0.0071336779	 0.0359742027	 0.243939
N	-1.0462231427	-0.7446475055	 0.0175863756	-0.324221
C	-0.6317657681	-2.158839544	-0.0085672872	-0.279708
C	 0.8714529918	-2.1068301785	-0.0244872172	 0.318783
N	 1.8972360805	-2.9391137012	-0.0471534346	-0.332731
N	 2.9647761149	-2.0955882805	-0.0281901078	-0.179378
C	 2.6347766456	-0.7734024452	 0.0077224458	-0.253707
C	 1.2572071514	-0.7521056425	 0.009397445	 0.204446
H	 0.6927424163	 1.8899028298	-0.3077518774	 0.248657
H	-0.9725602152	 1.756640112	-0.0534517392	 0.255536
H	-1.0280252805	-2.686398944	 0.8679969252	 0.129988
H	-1.0536379056	-2.6552586631	-0.8909849979	 0.128541
H	 3.8905526434	-2.4905246664	-0.0397784055	 0.275665
H	 3.3951933983	-0.0091385944	 0.0333584049	 0.13872
