21
gdb 99115	2.96556	1.03802	0.90128	1.5891	79.36	-0.2567	0.0151	0.2718	1395.1294	0.180593	-424.25408	-424.243884	-424.24294	-424.290307	36.476	
C	-2.7170191644	-4.3152944503	-1.4926204173	-0.23907
O	-1.4942113834	-3.6657920029	-1.1229639538	-0.226244
C	-1.0960098343	-2.673773086	-1.949667765	 0.445733
O	-1.7206120428	-2.3336097383	-2.9241670371	-0.363122
C	 0.2369910295	-2.1014376706	-1.5116919291	-0.380039
C	 1.3865953918	-2.6993199296	-2.3254994247	 0.375225
C	 1.4378565756	-2.2638130978	-3.7776742327	-0.462226
C	 2.6918254873	-2.9262643753	-1.6012185379	-0.318817
C	 1.8195686684	-4.1031041782	-1.9721110736	-0.295266
H	-3.5427848188	-3.5996427623	-1.5129154155	 0.14059
H	-2.6273577424	-4.7728283877	-2.4811890258	 0.139844
H	-2.8905917857	-5.0774276082	-0.7327819232	 0.131095
H	 0.2008162517	-1.0174507634	-1.660936644	 0.123138
H	 0.3819536365	-2.3050122699	-0.4483814814	 0.11482
H	 1.5926548146	-1.1809802566	-3.8551839292	 0.114257
H	 2.2604244298	-2.7574327485	-4.3042101174	 0.10827
H	 0.504758228	-2.5000789954	-4.2973521535	 0.141532
H	 3.6104353053	-2.7755212387	-2.1586306461	 0.111503
H	 2.7582995744	-2.6486372832	-0.554425784	 0.109546
H	 1.2877135852	-4.615659832	-1.1779759402	 0.118424
H	 2.1502957736	-4.7520215651	-2.7760705986	 0.110805
