21
gdb 95212	2.4875	1.63602	1.17267	1.9828	77.24	-0.2227	0.0617	0.2844	1112.4663	0.18357	-424.21037	-424.201878	-424.200934	-424.243031	33.858	
C	-0.0001326102	 1.5655934512	-0.0392789372	-0.438426
C	 0.0419211616	 0.0355479557	-0.0109680565	 0.012951
C	 0.6842588638	-0.5333459238	-1.2770250258	-0.087744
O	 0.5157181013	-1.9392784108	-1.3717916509	-0.258013
C	 0.8899494004	-2.6684075966	-0.2389167207	 0.122322
C	 2.2316541048	-2.5272974025	 0.4138463802	-0.319092
C	 0.9822561825	-2.0235868617	 1.1244280864	-0.079276
C	 0.759257324	-0.5191744606	 1.2420165189	 0.066996
O	 2.0261842096	 0.1039309444	 1.4585938099	-0.430588
H	 1.001069528	 1.9924462306	-0.1657533835	 0.120763
H	-0.614070897	 1.9262914531	-0.8703999781	 0.121856
H	-0.4293406393	 1.9703019159	 0.884924809	 0.112558
H	-0.9874624822	-0.3459689758	 0.0239175427	 0.081756
H	 0.2083975784	-0.1243159262	-2.1731739518	 0.10265
H	 1.7498360516	-0.2567316444	-1.3102113534	 0.101211
H	 0.4574336732	-3.6612746057	-0.3043621539	 0.096166
H	 2.7139762444	-3.419825137	 0.7966454572	 0.107337
H	 2.9152641432	-1.7690731389	 0.0531263345	 0.135003
H	 0.6335904428	-2.6070588634	 1.9696584126	 0.085858
H	 0.1105701254	-0.3348317418	 2.1115653949	 0.062865
H	 1.868641984	 1.0329609883	 1.6539718957	 0.282845
