21
gdb 99905	2.26843	1.30738	1.04852	3.2146	82.96	-0.2435	0.0379	0.2814	1264.4059	0.181476	-383.258721	-383.248525	-383.247581	-383.294321	37.405	
C	-0.1192956143	 1.377471412	 0.106395504	-0.33878
N	-0.0713402261	-0.0547797936	-0.1876681703	-0.287685
C	 0.7543504259	-0.4750806925	-1.3275743358	 0.083871
C	 0.1589608493	 0.0853312029	-2.6314988207	-0.423218
C	 2.151887143	 0.0367104675	-1.1934080969	 0.268212
N	 3.219794643	 0.4521106788	-1.0344087754	-0.354774
C	 0.8366454748	-2.005142112	-1.2872026206	 0.016281
C	-0.1996099804	-2.9000893189	-1.9112450127	-0.281561
C	 1.1995457286	-2.8570215218	-2.4740099679	-0.27567
H	 0.8702347112	 1.8527541245	 0.1950311442	 0.126518
H	-0.6858325161	 1.9057795177	-0.6657103575	 0.128459
H	-0.6525858489	 1.5144547377	 1.0505996521	 0.125906
H	 0.2437125773	-0.5532471321	 0.6377916395	 0.225121
H	 0.2234454685	 1.1748749324	-2.647262226	 0.138374
H	 0.6995036591	-0.2847362935	-3.5047011126	 0.135411
H	-0.8930731167	-0.1989220635	-2.6999026869	 0.135984
H	 1.2429254459	-2.3518538934	-0.3397287221	 0.095196
H	-0.5121838869	-3.7745149551	-1.3517891538	 0.11831
H	-0.9904298633	-2.445302147	-2.495320882	 0.12113
H	 1.3411803027	-2.3786390271	-3.4362061334	 0.121841
H	 1.8600433736	-3.6992586129	-2.302572935	 0.121076
