20
gdb 38892	3.49394	1.43468	1.13446	1.3505	85.36	-0.2285	0.0177	0.2462	1110.7652	0.174351	-365.984855	-365.977632	-365.976688	-366.016376	29.769	
C	 0.0329459245	 1.5824430708	 0.1384605812	-0.241544
C	 1.5794723026	 1.5190534178	-0.1026834734	-0.324781
C	 1.4830869527	 0.0357490023	 0.1840067071	 0.371695
C	 2.2082247528	-0.9281906249	 0.7369712957	-0.250496
C	 1.5117046241	-2.2034669139	 1.0665128194	-0.058587
N	 0.8891038472	-2.3024552931	 2.4116902991	-0.337169
C	 0.0285902042	-2.1799674923	 1.2151435403	-0.038626
C	-0.7297532023	-0.8580631242	 1.0485728001	-0.239325
C	-0.0231358744	 0.0232703356	 0.0111401094	-0.055501
H	-0.2051221598	 1.9110582491	 1.153541379	 0.108325
H	-0.5571630732	 2.1645491171	-0.5726685692	 0.096999
H	 1.8383793967	 1.735270499	-1.1455009936	 0.10995
H	 2.2249524296	 2.1197587354	 0.5436483965	 0.11107
H	 3.2573296004	-0.8092147928	 0.9955112001	 0.084323
H	 1.9584617751	-3.1149247515	 0.6717424159	 0.083304
H	 0.908905687	-3.271602128	 2.7231029266	 0.223531
H	-0.5042271741	-3.0743659633	 0.900984196	 0.079419
H	-1.7738694926	-1.0484370926	 0.7772852532	 0.090234
H	-0.730301192	-0.3449534418	 2.0154882958	 0.112086
H	-0.3138817884	-0.2650198987	-1.0072590591	 0.075093
