20
gdb 63075	3.13158	1.36773	1.29888	1.8391	77.76	-0.2185	0.0744	0.2929	1073.2623	0.171516	-403.098798	-403.090682	-403.089737	-403.130906	32.782	
C	-0.10532412	 1.5961862676	-0.0303718489	-0.465291
C	 0.0329144096	 0.0895950799	 0.0497598386	 0.380791
O	-1.159538743	-0.563299679	-0.341375601	-0.466428
C	 1.2829858693	-0.6914332285	-0.2985067398	-0.128699
C	 2.6831666187	-0.0813450066	-0.1495067678	-0.204747
N	 3.0291093946	-0.0016086114	 1.2945810113	-0.095001
C	 2.3667261334	 1.0647915484	 2.0586253925	-0.268015
C	 1.7947557009	-0.3063273373	 2.0540087333	-0.0317
C	 0.7031229346	-0.7504222037	 1.1130727118	-0.080684
H	 0.8495925192	 2.1200377692	-0.0782196427	 0.127347
H	-0.6462783724	 1.845685196	-0.9511623733	 0.105345
H	-0.6836557884	 1.9940806246	 0.8089048248	 0.132362
H	-1.3042496322	-0.371942014	-1.2752711815	 0.277738
H	 1.1594339683	-1.5259390948	-0.9814227265	 0.088322
H	 3.4115480007	-0.7419338682	-0.6295197027	 0.113647
H	 2.7874336746	 0.9033305491	-0.6215118718	 0.102165
H	 2.9293398591	 1.405122284	 2.9252079777	 0.111848
H	 1.8514396213	 1.8592956076	 1.5351889824	 0.109637
H	 1.918361634	-0.9280658853	 2.9372050286	 0.090229
H	 0.1197484277	-1.6090977574	 1.423431195	 0.101134
