25
gdb 122194	3.1849	0.82432	0.77433	0.8714	90.26	-0.2498	0.0817	0.3315	1666.9633	0.22725	-389.483575	-389.472888	-389.471943	-389.519839	39.23	
C	-0.0631238698	 1.4791535008	-0.1883332627	-0.384803
C	-0.0360557528	-0.0229305376	 0.0397325796	-0.023683
O	-1.359117426	-0.5121354992	-0.0161606977	-0.249888
C	-1.4543632951	-1.9086880077	 0.1681979869	-0.095603
C	-2.9196046794	-2.3283111677	 0.0821755548	 0.331436
C	-3.7387733796	-1.6812306036	 1.1933072492	-0.460238
C	-3.4690960028	-2.1865599688	-1.373661606	-0.242573
C	-3.2060785583	-3.6990160803	-1.6060008401	-0.209157
C	-3.0350357319	-3.8784839079	-0.0729183241	-0.265956
H	 0.9503008684	 1.8898972334	-0.1507099922	 0.113242
H	-0.4962544925	 1.7105843169	-1.1656260384	 0.125688
H	-0.6669165659	 1.9724907031	 0.5786862682	 0.125854
H	 0.5855810047	-0.5190554658	-0.7255486994	 0.082989
H	 0.4161754906	-0.2575940685	 1.018698541	 0.083688
H	-0.8577141547	-2.4325288822	-0.598808621	 0.077515
H	-1.0395390784	-2.1966688398	 1.151045919	 0.079267
H	-3.6697093507	-0.5909666479	 1.1397379991	 0.129752
H	-4.7936227605	-1.9652781095	 1.1192135895	 0.102966
H	-3.3773510141	-1.9919522893	 2.1815143089	 0.104781
H	-4.5357278097	-1.9446639388	-1.3818486813	 0.092245
H	-2.9484291386	-1.4728853451	-2.0158185346	 0.10195
H	-4.0037257255	-4.2730962978	-2.082914678	 0.094722
H	-2.2803125169	-3.8866745782	-2.1563863523	 0.100524
H	-2.1847945801	-4.4749379219	 0.2733789968	 0.089536
H	-3.9390964306	-4.2644615164	 0.4068509648	 0.095745
