15
gdb 15641	3.53553	1.76413	1.25067	1.8176	61.45	-0.2733	-0.0282	0.2451	946.2321	0.119262	-399.853413	-399.846065	-399.845121	-399.885461	26.374	
C	-0.0387267645	 1.5727219854	-0.0151963174	-0.39013
C	 0.0237506899	 0.044954294	-0.0177413705	-0.173559
C	 0.707358594	-0.5200249952	 1.2377314567	-0.135777
N	-0.0449601225	-0.267163124	 2.4721153719	-0.246867
C	-0.2535297347	-1.4080266826	 2.9784674553	 0.120018
O	 0.2261504626	-2.5217557285	 2.3313263258	-0.204984
C	 0.8608079337	-2.0383847747	 1.1826980754	 0.435183
O	 1.3738322426	-2.7557826002	 0.3846471493	-0.316274
H	 0.966074483	 2.0087849105	 0.0009004672	 0.118148
H	-0.5482342263	 1.9394118126	-0.9109139568	 0.119153
H	-0.5778882918	 1.938445818	 0.8623092779	 0.143707
H	-0.9862859314	-0.3757798664	-0.0842229193	 0.111529
H	 0.5798136257	-0.3240178533	-0.8864486084	 0.127318
H	 1.7058248255	-0.0724852688	 1.3295818839	 0.134163
H	-0.7863348858	-1.6193663768	 3.8977741189	 0.158373
