19
gdb 79130	2.26996	2.14132	1.36697	1.8028	82.94	-0.2032	-0.0286	0.1746	986.6438	0.159129	-385.798164	-385.790453	-385.789509	-385.829811	31.381	
C	-0.3272895619	 0.9816880031	 0.7470677917	-0.490215
C	-0.1095286256	-0.0727510031	-0.2925381925	 0.241196
C	-1.0924036864	-0.8016366866	-0.8797730072	-0.097323
C	-0.5120421732	-1.9991621973	-1.6467855877	-0.10097
C	 0.6772200942	-2.218847799	-0.7924843639	-0.044967
C	 1.2146936643	-0.8278231357	-0.4129945548	-0.312956
C	-0.749103982	-2.7751336321	-0.380681966	-0.137549
C	-1.8759227395	-1.7733776848	 0.0530259575	 0.119909
O	-2.1162012797	-1.4637953857	 1.3871851645	-0.415311
H	 0.2578631351	 0.7981875583	 1.658801719	 0.11227
H	-0.000421686	 1.9625345274	 0.3748273083	 0.133676
H	-1.3858737201	 1.0709284345	 1.0072646435	 0.14292
H	-0.6968870767	-2.276732795	-2.6756310573	 0.089401
H	 1.3770345467	-3.0223354271	-1.0169506994	 0.079149
H	 1.933249835	-0.4829855802	-1.1712136912	 0.108401
H	 1.7350805199	-0.7777413074	 0.5529824499	 0.101683
H	-0.8557843848	-3.8549626143	-0.2986462968	 0.087368
H	-2.8305030012	-2.1327536593	-0.3455202796	 0.099012
H	-1.278598278	-1.2091049056	 1.789502922	 0.284304
