20
gdb 11410	4.1226	1.24406	1.00839	2.9363	75.07	-0.2343	-0.0117	0.2227	1190.5043	0.177029	-349.051485	-349.043106	-349.042162	-349.084649	31.305	
C	 0.0197329504	 1.5895792512	-0.0844518516	-0.386472
C	-0.0036877845	 0.0578176665	-0.0635705336	-0.186234
C	-1.4001511997	-0.5424250902	 0.1138664922	 0.040502
C	-1.428450049	-2.0885057017	 0.0321108777	-0.232184
C	-2.778604551	-2.4864197383	 0.6431226285	-0.322085
C	-3.0791492094	-1.3917497899	 1.6748677419	 0.39955
O	-3.9510134238	-1.4237230261	 2.5038871506	-0.312856
C	-2.0780274701	-0.2496064205	 1.4650932702	-0.323826
H	 1.0354179918	 1.9668247878	-0.2376351621	 0.114509
H	-0.6062679671	 1.983074242	-0.8932294245	 0.11514
H	-0.3511452749	 2.010891457	 0.8556393014	 0.120331
H	 0.4282941846	-0.3241203269	-0.9978684809	 0.094557
H	 0.6444128932	-0.3102375317	 0.7439694208	 0.093326
H	-2.0489846168	-0.1517558529	-0.6840566216	 0.073697
H	-1.2894833181	-2.4525447837	-0.9893836514	 0.101938
H	-0.6079395591	-2.4977150886	 0.635619284	 0.101893
H	-3.5806413063	-2.4542576049	-0.1064551653	 0.129868
H	-2.8133494514	-3.4773138199	 1.1021808227	 0.126693
H	-1.3445495444	-0.305675888	 2.2832521618	 0.125004
H	-2.5726216644	 0.7207461486	 1.5471714794	 0.126647
