12
gdb 3708	7.566	2.16842	1.70487	2.6757	52.25	-0.241	0.0111	0.2521	696.961	0.091162	-356.714706	-356.708346	-356.707402	-356.744664	23.105	
C	-0.0097297894	 1.4698631773	 0.0295671816	-0.485687
C	 0.0060719063	-0.0193234754	-0.0002459743	 0.37278
N	-0.0897195306	-0.6846775952	-1.1210432265	-0.19177
O	-0.0316481968	-2.0417502218	-0.6912007006	-0.210495
C	 0.0917648659	-1.9932467948	 0.6374073709	 0.495336
N	 0.2219297446	-3.1699244105	 1.3017743585	-0.592198
N	 0.118090799	-0.7880457808	 1.136978762	-0.383643
H	 0.9153377094	 1.8485640174	 0.4745884326	 0.146603
H	-0.1132858339	 1.8690166141	-0.9803381574	 0.14762
H	-0.8397869247	 1.8270352164	 0.646500355	 0.145228
H	-0.1200585461	-3.9946697848	 0.8352022004	 0.276102
H	 0.0540244862	-3.1230809619	 2.2937773479	 0.280123
