16
gdb 37794	2.65553	2.29559	1.77456	2.3437	67.05	-0.2308	0.0141	0.2449	815.3817	0.128202	-437.887161	-437.881131	-437.880187	-437.917372	24.957	
C	-0.0137188245	 1.5679457358	 0.0770006287	-0.27347
C	 1.4281512385	 2.0359484597	 0.0253483482	-0.126569
C	 2.243163326	 0.8076997215	 0.3031762135	 0.067676
O	 1.3898391462	-0.2983090333	 0.4901318089	-0.236474
C	 0.1154567592	 0.0321947622	 0.007024494	 0.165532
O	-0.0716125077	-0.4580962926	-1.3263782386	-0.227592
C	 0.7598537388	 0.0167756399	-2.2940977476	 0.120027
N	 1.7479072782	 0.8004857916	-2.2490385636	-0.26174
C	 2.2831758551	 1.4162822875	-1.084907462	-0.020647
H	-0.4752718466	 1.8666503427	 1.0234764619	 0.118276
H	-0.6382764283	 1.9372751765	-0.7395642912	 0.130115
H	 1.6907258353	 3.0105095984	 0.4198466234	 0.097433
H	 3.1184118021	 0.7661853312	 0.9399163878	 0.109549
H	-0.6277057619	-0.5147362126	 0.5876706302	 0.108567
H	 0.4504256539	-0.3977765276	-3.2518903584	 0.126764
H	 3.1895895758	 1.9736107988	-1.3027715552	 0.102553
