23
gdb 104153	3.12843	1.03474	1.00415	1.6234	89.08	-0.2248	0.0248	0.2496	1382.291	0.203676	-388.315145	-388.30489	-388.303946	-388.350141	38.228	
C	-0.2769688659	 1.469011756	 0.0860351658	-0.390456
C	 0.0731533705	-0.0218453405	 0.0657215507	-0.181426
C	 0.9717263333	-0.4878893882	 1.2342996566	 0.352211
C	 2.3374374046	 0.2149444187	 1.2353809062	-0.413734
O	 0.30644396	-0.1853831025	 2.4817799972	-0.309904
C	 0.014033381	-1.3754688899	 3.1978010491	-0.164409
C	 0.5633450565	-2.505230768	 2.3632136709	 0.298576
C	 0.4640420916	-3.932707046	 2.7931661498	-0.493132
C	 1.1028399537	-1.9919031233	 1.261724315	-0.248546
H	 0.5996582164	 2.0999735148	-0.0895035691	 0.112608
H	-1.0097743484	 1.7029439982	-0.6924335127	 0.10614
H	-0.7050199874	 1.7439323805	 1.0536438399	 0.133796
H	-0.8491082362	-0.6125412832	 0.1086928933	 0.093604
H	 0.5666927021	-0.2827072231	-0.8796351077	 0.086236
H	 2.2176204431	 1.2926929801	 1.3714271125	 0.12487
H	 2.9543560893	-0.1661258114	 2.0534322969	 0.114525
H	 2.8674816059	 0.0426488669	 0.292375294	 0.106674
H	 0.4760764126	-1.3374887417	 4.1983448003	 0.09785
H	-1.073505022	-1.471879922	 3.3554595256	 0.09673
H	 0.9660106467	-4.0932547139	 3.7557643209	 0.128964
H	-0.5822083721	-4.2326567956	 2.9336421861	 0.128979
H	 0.9142605511	-4.6058239498	 2.0592747903	 0.12791
H	 1.5783235934	-2.5471418663	 0.4616041086	 0.091933
