17
gdb 69080	2.80095	1.68649	1.29715	3.0156	74.94	-0.232	-0.0318	0.2001	989.4169	0.135492	-421.836605	-421.828974	-421.82803	-421.868178	30.59	
O	-0.1871585446	 1.3364037842	-0.1103748958	-0.464852
C	-0.0607414601	-0.0279566828	-0.0468482948	 0.390448
C	-0.3867057049	-0.9093665243	-1.1949219312	-0.371022
C	-1.3202504101	-1.0127959858	 0.0144846677	 0.149597
C	-1.0068096169	-2.0606815824	 1.0704708658	-0.3703
C	 0.3778589624	-1.6871952045	 1.559855736	-0.068739
C	 0.8549951441	-0.5799004581	 0.987648911	-0.121072
C	-2.6010107893	-0.3239176165	-0.0596470209	 0.073478
O	-2.8140122497	 0.6352636784	-0.7862007756	-0.321415
H	-0.9988140497	 1.5261131841	-0.6120791088	 0.305413
H	-0.8341132473	-0.4335480951	-2.0623694582	 0.136048
H	 0.2427617617	-1.7700376902	-1.3973066857	 0.123037
H	-1.7402834913	-2.0334858213	 1.8890860403	 0.116871
H	-1.0310171857	-3.0819530926	 0.6677299353	 0.119067
H	 0.9120974079	-2.28881574	 2.2863925716	 0.105599
H	 1.8055157419	-0.1063195414	 1.2010302135	 0.114497
H	-3.3850418486	-0.6834141418	 0.6401938698	 0.083344
