16
gdb 67937	2.58709	1.75523	1.30362	3.5343	68.85	-0.2425	-0.0369	0.2056	981.6426	0.123839	-437.909185	-437.901594	-437.900649	-437.941364	28.984	
C	-0.1462788428	 1.517502976	 0.1924359071	-0.465676
C	 0.0688781952	 0.0324857304	 0.0204786326	 0.382217
C	-1.1599659641	-0.9128907857	 0.1278012572	-0.409194
C	-0.4307766317	-1.6862751861	 1.2489587757	 0.420315
O	-0.7461753831	-2.5762601544	 1.9769171916	-0.280114
C	 0.844956784	-0.8131277944	 1.0993109658	-0.180402
N	 1.919337434	-1.4824428558	 0.3614631933	-0.255456
C	 1.8016644473	-1.0933374025	-0.8434443988	 0.104368
O	 0.8322492152	-0.2143752931	-1.1911045998	-0.251831
H	 0.811356014	 2.0438088307	 0.2368787289	 0.135524
H	-0.7264432219	 1.9263186329	-0.6405557566	 0.137535
H	-0.693422794	 1.7169280981	 1.1189166546	 0.127753
H	-2.092584579	-0.4424616531	 0.4533220136	 0.138431
H	-1.3579637852	-1.4980095677	-0.7745898574	 0.145099
H	 1.2131525198	-0.3398318092	 2.0139400292	 0.103357
H	 2.4440809322	-1.4011744362	-1.661004467	 0.148074
