12
gdb 28864	3.18159	1.5423	1.20491	2.9839	64.6	-0.255	-0.0884	0.1665	962.5631	0.079118	-468.840314	-468.833461	-468.832517	-468.871872	25.258	
O	-0.1627343038	 1.1595993482	-0.4699397839	-0.355834
C	 0.0329465046	-0.0770274808	-0.0225523165	 0.473327
N	 1.2472766083	-0.5418192548	 0.0222366243	-0.350069
C	 1.5041383753	-1.8554732646	 0.2867115344	 0.084179
N	 0.7887457567	-2.9060572324	 0.0547020636	-0.250089
C	-0.5162315421	-2.8380715378	-0.3980525927	 0.34149
O	-0.9933804547	-3.5116411485	-1.2787446574	-0.310702
C	-1.3579238989	-1.8809746141	 0.4079823427	-0.056224
N	-1.1184976169	-0.6266117248	 0.4870689581	-0.196804
H	 0.7010421385	 1.4907621687	-0.7584252491	 0.319045
H	 2.4994369473	-2.0283952953	 0.6955445272	 0.140166
H	-2.2384322745	-2.2709093339	 0.9210291493	 0.161516
