21
gdb 110574	3.15025	1.33316	1.10998	1.2488	83.3	-0.2612	0.0748	0.3359	1167.0786	0.182225	-387.013992	-387.005419	-387.004475	-387.046959	33.453	
C	 0.070009088	 1.3140879595	-0.3909861756	-0.519404
C	 0.0585000209	-0.1662679006	-0.125709313	 0.37476
C	 0.5900183071	-1.3006775115	-1.0364769982	-0.040894
C	 2.0719457677	-1.3614149454	-1.3442493745	-0.118839
O	 2.3679355563	-0.3055710758	-2.254397109	-0.42098
C	 0.045891403	-2.033695266	 0.2059112698	-0.068984
C	 0.5127668071	-0.9088746092	 1.1940026254	-0.087766
C	-0.8855264107	-0.7894021545	 1.830329721	-0.278366
C	-1.163007414	-1.0473541336	 0.3379466638	-0.082089
H	 1.0897897063	 1.6635956089	-0.5778423622	 0.130234
H	-0.5258654421	 1.5543899713	-1.2785180579	 0.118933
H	-0.3420780154	 1.8769324754	 0.454195881	 0.110975
H	 0.0103132691	-1.4497632018	-1.9566870133	 0.062452
H	 2.6581897084	-1.2588308791	-0.4173338134	 0.081509
H	 2.3224896053	-2.3418643287	-1.7815196822	 0.081952
H	 3.3019719065	-0.3543354082	-2.4779484064	 0.285271
H	 0.021281895	-3.1038653822	 0.4203738371	 0.063361
H	 1.4873111692	-0.8327847252	 1.6789154789	 0.065512
H	-1.1756797469	-1.5816049401	 2.5283200649	 0.087837
H	-1.1692949222	 0.1904531745	 2.227646551	 0.090685
H	-2.1169947287	-1.1370689075	-0.1859032774	 0.063842
