13
gdb 129428	2.84406	1.58671	1.01944	2.164	64.87	-0.2313	-0.0634	0.1679	1056.2609	0.089388	-486.078801	-486.070655	-486.06971	-486.111615	29.636	
N	-0.0582957308	 1.3410386037	-0.0081785617	-0.544085
C	 0.0469307048	-0.0122058165	 0.0149384652	 0.348486
O	 1.1138209442	-0.6173633796	 0.0056416594	-0.389428
C	-1.2082256506	-0.7627969486	 0.0440571809	 0.246854
C	-1.3911555845	-2.1205511279	 0.0650862228	 0.258221
N	-0.4792918816	-3.12558468	 0.1648318466	-0.595481
N	-2.7529155885	-2.3339070464	 0.0292021509	-0.18343
N	-3.3687070937	-1.2278846149	-0.0058838304	-0.005513
O	-2.4324699141	-0.186866973	 0.0091182996	-0.236815
H	 0.7859707991	 1.8875319791	-0.0351408411	 0.271574
H	-0.9518322202	 1.8020132468	-0.0008986963	 0.27831
H	 0.4706336699	-2.8319094335	-0.0205624598	 0.283237
H	-0.7591369539	-4.0218080393	-0.2012786558	 0.268068
