17
gdb 64731	3.33777	1.16758	1.09141	2.9509	72.06	-0.2648	0.0088	0.2736	1147.5021	0.136062	-418.043932	-418.035408	-418.034464	-418.077732	31.006	
C	-0.1012215192	 1.6790275975	-0.1351706049	-0.44383
C	 0.0493006236	 0.1665331376	-0.0560599297	 0.346537
C	-1.3080520446	-0.5680169134	 0.0157085233	-0.380655
C	-2.1490292739	-0.1390834352	 1.1309350776	 0.277802
N	-2.8174893615	 0.2104144239	 2.0059197418	-0.307685
C	 0.9545415206	-0.4455097766	-1.1693254545	-0.233979
N	 2.0290043044	-1.1517914541	-0.4581619193	-0.25732
C	 1.8341415114	-0.9207547201	 0.771654814	 0.113607
O	 0.7803220101	-0.1639837101	 1.1619074714	-0.243194
H	 0.8845079606	 2.1511686137	-0.1415963823	 0.135586
H	-0.6231752165	 1.9600113252	-1.0557541752	 0.126303
H	-0.6675027546	 2.0645682387	 0.7162657972	 0.15754
H	-1.854247042	-0.4044595688	-0.920449915	 0.15667
H	-1.1282076349	-1.6449410806	 0.1009251078	 0.162476
H	 0.408794845	-1.1409968027	-1.8164379293	 0.118733
H	 1.3829256429	 0.3297160249	-1.8139713385	 0.122788
H	 2.4535071387	-1.2785248901	 1.5865564057	 0.148621
