21
gdb 31225	2.22111	1.30699	0.90038	3.4785	86.33	-0.2066	0.0366	0.2432	1375.937	0.183592	-383.328476	-383.318873	-383.317929	-383.363878	34.999	
C	-0.0507352043	 1.7523368211	 0.5433668569	-0.365691
C	 0.0550620188	 0.3010473351	 0.0397068272	-0.307208
C	-1.2622333889	-0.3942513395	-0.0906946771	 0.220633
C	-2.0101963947	-0.7991342088	-1.1733623661	 0.208222
C	-1.6980235372	-0.6874802762	-2.6349655605	-0.290368
C	-1.5752809404	-2.0559153276	-3.3240204668	-0.363025
N	-3.1882224709	-1.3890010766	-0.7507725564	-0.310155
C	-3.1592698815	-1.3425088255	 0.5578608906	-0.002366
N	-2.0200035594	-0.7506372787	 1.0134212765	-0.296093
H	 0.9392147022	 2.213573599	 0.6157950286	 0.11496
H	-0.662748999	 2.3546823012	-0.1342730564	 0.12804
H	-0.5131961702	 1.7997766069	 1.5351375172	 0.107803
H	 0.5445119889	 0.2921364551	-0.9388590951	 0.120073
H	 0.7154852607	-0.2666781934	 0.7099973419	 0.103728
H	-2.4937273823	-0.1128291865	-3.1258206389	 0.110108
H	-0.7739924084	-0.1149327651	-2.7733730363	 0.090734
H	-2.4914072267	-2.6340876745	-3.1781168589	 0.138115
H	-1.4038555938	-1.9416212145	-4.399228573	 0.101906
H	-0.7443569073	-2.6329884626	-2.9050548783	 0.108071
H	-3.9223799788	-1.7151618177	 1.2254575414	 0.123315
H	-1.7667372468	-0.6040344009	 1.9761744634	 0.259197
