19
gdb 67730	2.94952	1.85916	1.33282	1.3319	79.26	-0.2215	0.0046	0.226	984.1102	0.158957	-385.835501	-385.827851	-385.826907	-385.866775	31.966	
C	 0.0097252149	 1.5380134871	-0.0224759113	-0.509076
C	 0.0387757938	 0.0257069386	-0.0044679996	 0.321107
C	 0.4701962251	-0.7029812747	-1.2783895071	-0.152115
C	 0.3869449396	-1.9950156565	-0.9715764345	-0.207403
C	-0.0911516679	-1.9808942393	 0.4763922842	 0.400811
O	-0.3647839627	-3.179086346	 1.1327785128	-0.49226
C	 0.653577069	-0.7883963041	 1.2033041839	-0.143555
C	-0.6212720109	-0.541839835	 2.0453261951	-0.275841
C	-1.1425270208	-0.830753884	 0.6155783266	-0.104041
H	 1.0045238566	 1.9422916841	-0.241312453	 0.118248
H	-0.6715462639	 1.9034699087	-0.7991690906	 0.119252
H	-0.3172973979	 1.9623217248	 0.9305586298	 0.120458
H	 0.7626121852	-0.2263887219	-2.2045150621	 0.101086
H	 0.5791956291	-2.8774039295	-1.5661126096	 0.102501
H	 0.4533890322	-3.6825655933	 1.1973712485	 0.281801
H	 1.6996485312	-0.7715736281	 1.5259893656	 0.058803
H	-0.8518620178	-1.2999992806	 2.7947656324	 0.105701
H	-0.7741806819	 0.4635008247	 2.442207935	 0.088009
H	-2.176179923	-0.8612100949	 0.2594505438	 0.066514
