17
gdb 17361	3.85703	1.7013	1.53105	1.3027	67.76	-0.2392	-0.0213	0.2179	893.1283	0.14152	-363.832658	-363.824899	-363.823955	-363.865336	28.424	
C	 0.6265621346	 0.3437366004	 1.3690660357	-0.481362
C	 0.1030633254	 0.0450256932	-0.0208837948	 0.381049
O	 0.6808557231	 0.3892784147	-1.0283355212	-0.303261
C	-1.1850909029	-0.7606486099	-0.0706054504	-0.039999
C	-1.7471429936	-1.2081790962	-1.437955858	-0.2771
C	-1.5170447031	-2.6405617314	-0.9582400973	-0.00901
C	-0.1120839892	-2.855176663	-0.5756078794	-0.247097
N	-1.0086568329	-2.1995254932	 0.4091409327	-0.157677
H	 1.634242575	 0.7567479685	 1.3122426199	 0.140105
H	-0.0344623605	 1.0671019124	 1.8615808559	 0.141888
H	 0.6147829674	-0.5643528519	 1.9806407874	 0.158952
H	-1.9349687779	-0.2922852179	 0.5740276871	 0.094706
H	-2.798781627	-0.949408147	-1.5671865942	 0.11132
H	-1.1809984658	-0.8929333041	-2.3166437323	 0.128328
H	-2.2273993052	-3.4555179105	-1.0489092347	 0.09901
H	 0.1773788458	-3.8503563275	-0.25374966	 0.12408
H	 0.6762882167	-2.2814699666	-1.0563852663	 0.136069
