14
gdb 2062	4.91161	2.59324	1.78744	3.2258	59.95	-0.2164	-0.0521	0.1643	682.8781	0.115692	-324.595399	-324.589355	-324.588411	-324.625302	22.725	
O	 0.0189933937	-0.051621602	 0.0856248774	-0.327316
C	-0.0012947963	 1.1568701608	-0.0333005124	 0.364223
C	-1.30909258	 1.9528241743	-0.0779497971	-0.280406
N	-1.2350749474	 3.199713174	-0.8407076803	-0.290291
C	-0.1196633769	 4.0420935679	-0.4161219876	-0.218359
C	 1.1796113431	 3.3048638165	-0.2132626379	-0.046215
C	 1.2319301406	 1.9724425658	-0.0857838085	-0.152134
H	-2.098298877	 1.3116768862	-0.4785427475	 0.12993
H	-1.5873272374	 2.1911133888	 0.9597626161	 0.128757
H	-1.107618301	 2.9699166828	-1.8218839116	 0.224169
H	 0.015380553	 4.843596825	-1.1511798927	 0.120695
H	-0.3911697417	 4.5485973256	 0.5249589286	 0.128954
H	 2.0893811586	 3.9010317268	-0.1628523234	 0.10916
H	 2.1677787886	 1.4349917176	 0.0335003268	 0.108831
