19
gdb 116540	2.52913	1.17857	0.91885	2.0408	82.31	-0.235	-0.072	0.163	1334.072	0.157303	-419.181338	-419.171699	-419.170755	-419.21646	34.151	
C	 0.5460112529	 1.4994493596	-0.1325163899	-0.370978
C	 0.1286250401	 0.0245691155	-0.1745770099	-0.130245
N	 0.7727160548	-0.6612762513	-1.2860196494	-0.260738
C	 1.8577849184	-1.310260119	-1.1636265289	 0.228669
C	 2.7068210189	-1.5005863741	 0.0733204456	 0.1098
O	 2.6443927795	-0.8202909426	 1.066769091	-0.243111
N	 2.3818096696	-2.0559623362	-2.2381911534	-0.098061
C	 2.1417443694	-1.614846318	-3.5944612463	-0.20981
C	 3.5138517658	-1.5273662761	-3.0105365582	-0.236974
H	 1.6038104628	 1.5872991302	 0.1280544379	 0.129378
H	 0.380597088	 1.9774601447	-1.1026126577	 0.1194
H	-0.0393490095	 2.0343921711	 0.6213910255	 0.115798
H	 0.3394895877	-0.4389426318	 0.7943044651	 0.118484
H	-0.9508224731	-0.0355782367	-0.3549528007	 0.100863
H	 3.4271579647	-2.3417474744	-0.0141852937	 0.100787
H	 1.9119709235	-2.4019944205	-4.3063203985	 0.127573
H	 1.5736941755	-0.6967741277	-3.7109398997	 0.140679
H	 3.8819228793	-0.5372858164	-2.7517779584	 0.130142
H	 4.2769522017	-2.2511959162	-3.2799778503	 0.128344
