18
gdb 18059	4.83127	1.26451	1.22104	0.931	76.9	-0.2472	0.0611	0.3083	1054.1409	0.153666	-310.602386	-310.594674	-310.59373	-310.634812	29.612	
C	-0.0132912804	-1.0204227082	-0.455580358	-0.459895
C	-0.0113958193	 0.1234979021	-0.0861283087	 0.315556
C	 0.0214912935	 1.5130446581	 0.3599939154	-0.388092
C	 1.3930854153	 2.1547805942	 0.1747973324	 0.013022
C	 1.9180284521	 2.7242175811	-1.1124769526	-0.049919
C	 0.8215953926	 3.4408692721	-1.9114775665	-0.231391
C	 0.5526954278	 4.3710166395	-0.6841736952	-0.229866
C	 1.6485195986	 3.6354729842	 0.0994870717	-0.087746
H	-0.0255366541	-2.0305582671	-0.7817858982	 0.192635
H	-0.7462706062	 2.0814120138	-0.1759677908	 0.131147
H	-0.2574782071	 1.5612009584	 1.4209991369	 0.128244
H	 2.1686893473	 1.6327765714	 0.730842695	 0.094676
H	 2.8669217267	 2.3979520235	-1.5215445561	 0.083353
H	 1.2184634794	 3.9957263163	-2.7639836553	 0.10418
H	-0.007532597	 2.8195264275	-2.2653567267	 0.102191
H	 0.8193145525	 5.4088160348	-0.8947747621	 0.103961
H	-0.4539666497	 4.3608388074	-0.2526956897	 0.095367
H	 2.358121068	 4.1144436408	 0.7644494886	 0.082577
