16
gdb 72352	2.34899	1.68624	1.34249	3.1494	73.76	-0.2499	-0.0046	0.2452	993.6493	0.124704	-400.756178	-400.748443	-400.747498	-400.788205	30.016	
O	-0.0553571984	 1.3670945588	 0.0010803915	-0.461662
C	-0.0083470093	-0.0176551989	-0.0701413387	 0.390948
C	 0.9064843509	-0.6861201007	-1.1012150031	-0.358097
C	 0.0958603723	-1.8723539276	-1.5747647136	-0.058652
C	-1.1085500474	-1.9191712804	-1.0003057199	-0.074998
C	-1.2875999523	-0.8012132061	-0.0308854417	-0.135624
C	-0.3519377684	-0.7994129359	 1.2002724616	-0.276264
C	 0.3869285146	-1.956786452	 1.6083540701	 0.309345
N	 1.00912809	-2.8756217921	 1.9379943362	-0.352632
H	 0.7749208462	 1.6826936028	 0.3759785003	 0.291243
H	 1.1129781947	 0.0227409196	-1.913161865	 0.124708
H	 1.8725309206	-0.9888645834	-0.6793582023	 0.132133
H	 0.4855932885	-2.5960535421	-2.2801779672	 0.111173
H	-1.8639317002	-2.6767103869	-1.1670467092	 0.109624
H	-2.246525772	-0.3174417686	 0.1129311945	 0.113835
H	-0.6915267199	-0.1661442263	 2.0136694666	 0.134919
