19
gdb 82187	2.69162	1.63391	1.28012	1.6445	73.58	-0.2418	0.0673	0.3092	1028.4366	0.159639	-422.992308	-422.984324	-422.98338	-423.02422	32.579	
O	 0.0869593338	 1.46907519	-0.1448597482	-0.42914
C	 0.0392512072	 0.0505605738	-0.0074875431	 0.071868
C	 0.6337912482	-0.4740231042	 1.3123709899	-0.071083
C	 0.1441338098	 0.1327327417	 2.6056034033	-0.306225
C	-0.4710703769	-1.1450165341	 2.0957077507	-0.106106
C	-1.7387255285	-1.1122350447	 1.245570503	 0.391728
O	-2.4964916974	-2.2850656315	 1.2240291607	-0.474776
C	-2.3998074436	 0.2046205522	 0.9330578869	-0.355844
C	-1.4171006791	-0.4149093773	-0.0458687533	-0.076626
H	 0.9983858438	 1.7444630713	-0.0021218068	 0.280159
H	 0.5793369449	-0.4203484405	-0.8423050412	 0.0676
H	 1.6368866569	-0.886663358	 1.2832759463	 0.080835
H	 0.8033654528	 0.0546338238	 3.4642874444	 0.106914
H	-0.417542763	 1.0579355294	 2.568756016	 0.124768
H	-0.3034228853	-2.0685019234	 2.6380701033	 0.087096
H	-3.0874309548	-2.2694241737	 1.9846670784	 0.282379
H	-3.4423233713	 0.1474619438	 0.637256366	 0.108931
H	-2.1301925396	 1.111410709	 1.458711745	 0.124296
H	-1.8163788179	-0.7824870976	-0.9835531314	 0.093228
