21
gdb 73635	2.27724	1.59251	1.41057	2.7399	81.62	-0.2318	-0.0174	0.2145	1073.6369	0.1831	-387.126417	-387.11795	-387.117006	-387.159355	33.155	
C	-0.158620014	 1.5091366434	 0.0425560337	-0.473925
C	-0.000087207	-0.006447593	 0.0119265101	 0.2153
C	-1.3291527966	-0.7865871856	-0.1037458926	-0.25135
C	-1.047426997	-2.1608120022	 0.5315813409	-0.223954
C	-0.0873330642	-1.8410582946	 1.6955021692	-0.214391
C	 0.8209076495	-0.7252304399	 1.1578676217	-0.055968
C	 1.9039406508	-1.1700206397	 0.1251878623	-0.367407
C	 1.0727748911	-0.5043544198	-0.9798731915	 0.381328
O	 1.1984910908	-0.3945017453	-2.1665024611	-0.312537
H	 0.8044990728	 2.0147892703	 0.1691037309	 0.116085
H	-0.5999788021	 1.8682868662	-0.8928177963	 0.133966
H	-0.8115564528	 1.8146084675	 0.8676008756	 0.115545
H	-2.0999829393	-0.2569163477	 0.4703802817	 0.097045
H	-1.6784056736	-0.849983078	-1.1385972567	 0.113573
H	-1.9569259631	-2.6715006972	 0.8590998904	 0.09959
H	-0.5580039714	-2.819427714	-0.1961926757	 0.108093
H	-0.6606958389	-1.4649846166	 2.5514251986	 0.09835
H	 0.472898118	-2.7153090963	 2.042544893	 0.097483
H	 1.2089499163	-0.0733068931	 1.9422414054	 0.068476
H	 2.8884683992	-0.7095559053	 0.2551034865	 0.129243
H	 2.0491665215	-2.2485048491	 0.0009213942	 0.125456
