18
gdb 24213	4.0215	1.55256	1.34884	1.1998	82.78	-0.1985	0.0576	0.2561	974.9777	0.152418	-364.810192	-364.803768	-364.802824	-364.840643	27.4	
C	-0.0456494349	 1.5792313357	-0.0420703651	-0.211581
C	 1.5164401979	 1.385068353	 0.0056438935	-0.179352
C	 1.1958395915	 0.1769627026	 0.9636657815	-0.211587
C	-0.048308632	 0.0053822934	 0.0135277195	-0.179352
C	 0.6559416782	-0.3048321718	-1.2883434277	 0.335381
C	 0.7383114461	-1.0491330965	-2.4277422539	-0.306321
N	 1.8395077069	-0.5764193529	-3.1275715443	-0.25281
C	 2.4502989607	 0.4604266932	-2.4363872283	-0.306321
C	 1.7286523186	 0.6410278903	-1.2937551522	 0.335381
H	-0.4409647765	 2.0327977135	 0.8721186454	 0.089319
H	-0.469849683	 2.0552632308	-0.9290792048	 0.095606
H	 2.189328521	 2.1898943596	 0.2971641013	 0.061541
H	 1.9179020351	-0.6417152739	 1.0052441073	 0.095608
H	 0.9144623374	 0.50183205	 1.9701582805	 0.089325
H	-0.929376564	-0.5599645562	 0.3128767398	 0.061541
H	 0.1443472187	-1.8580729337	-2.8223813127	 0.115024
H	 2.1511613461	-0.9349301873	-4.0120857854	 0.253574
H	 3.3249518623	 0.9464757201	-2.8384516943	 0.115024
