19
gdb 93979	4.25104	0.93804	0.79358	3.6614	80.58	-0.2493	-0.0517	0.1976	1400.4366	0.159642	-423.062105	-423.05352	-423.052575	-423.095375	32.536	
O	-0.089448696	 1.4586662245	-0.0469696889	-0.435491
C	 0.0086628995	 0.0429871435	-0.0046463487	 0.125646
C	-1.4087880552	-0.5198337128	 0.0566858256	-0.212597
C	-1.3888951044	-2.0482800341	 0.1883054224	-0.316094
C	-0.4112845619	-2.6835636636	-0.768732286	 0.224591
C	-0.5114478288	-4.1327928309	-1.0159168032	 0.091894
O	-1.3339931171	-4.85958569	-0.5051964216	-0.275685
C	 0.5429681128	-1.9874366803	-1.4053925862	-0.129932
C	 0.7509361395	-0.5119158847	-1.231416242	-0.290145
H	 0.8011741493	 1.8239434992	-0.0453395231	 0.281195
H	 0.5481725171	-0.2753005108	 0.903558755	 0.070005
H	-1.9430577368	-0.0637697938	 0.8950241494	 0.109379
H	-1.9367680924	-0.2252401847	-0.858678121	 0.107848
H	-1.1263906737	-2.343538673	 1.2133201261	 0.121132
H	-2.3835053775	-2.4718682268	 0.0169203653	 0.129229
H	 0.2457885676	-4.5318531323	-1.72905181	 0.064456
H	 1.2059075901	-2.5104670261	-2.0934358811	 0.099936
H	 0.3901748669	 0.0206156217	-2.1238753532	 0.130766
H	 1.825442021	-0.291135095	-1.1672834788	 0.103867
