16
gdb 45411	2.75104	1.80971	1.77533	2.4392	69.11	-0.2545	-0.0167	0.2378	866.8482	0.12762	-437.899957	-437.893526	-437.892581	-437.930583	26.358	
N	-0.055371747	 1.2869907553	 0.0405767405	-0.547624
C	-0.0159759793	 0.0253884005	-0.0027256416	 0.442837
O	 1.1370386268	-0.7105910199	-0.0132087607	-0.257176
C	 0.8588874897	-2.1309775066	-0.0213454172	 0.155254
O	 0.1648494009	-2.4577751617	 1.1634383397	-0.258295
C	-1.1007744838	-1.7888075038	 1.223137001	-0.074918
C	-1.2442964127	-0.8644625829	-0.0181866152	-0.18616
C	-1.1275690688	-1.7668383734	-1.2301174482	-0.099538
C	 0.0117910424	-2.4555240695	-1.2310188438	-0.076601
H	 0.8923758669	 1.6699667078	 0.0629478031	 0.222637
H	 1.8254820709	-2.628277926	 0.0219409224	 0.103407
H	-1.9052576747	-2.5333271012	 1.2422544592	 0.10976
H	-1.1318968954	-1.2002746395	 2.14577401	 0.126835
H	-2.1488512183	-0.2622509515	 0.0226127505	 0.107427
H	-1.9090250387	-1.8305290093	-1.9771018625	 0.115748
H	 0.328228161	-3.1822787084	-1.9677693674	 0.116406
