21
gdb 115681	2.31595	1.21153	0.97564	3.1254	79.1	-0.2468	-0.022	0.2248	1331.0188	0.180341	-424.233514	-424.223402	-424.222458	-424.269738	35.708	
C	-0.0927094803	 1.4711175992	 0.1990162804	-0.38882
C	-0.0191824099	-0.0578134951	 0.1341657295	-0.199985
C	-1.4045692088	-0.6834019388	 0.1634269726	 0.154667
O	-2.2057337886	-0.2957298138	-0.9720416496	-0.287443
C	-2.401064858	-1.666591362	-1.3769893823	-0.084209
C	-1.5812052157	-2.2045469419	-0.1920928476	-0.189094
C	-0.3173232138	-2.9760487078	-0.528691143	 0.381337
C	 0.3105114275	-3.7629818977	 0.6062528483	-0.482886
O	 0.1676018287	-2.9530710454	-1.6379743576	-0.299725
H	 0.9052012433	 1.9150789105	 0.1421363431	 0.113847
H	-0.6881528758	 1.8567399125	-0.6328245944	 0.142295
H	-0.5579385579	 1.8083853823	 1.1320753319	 0.111478
H	 0.495699262	-0.3708095682	-0.7802054088	 0.124418
H	 0.5611685145	-0.444531771	 0.9831068373	 0.090904
H	-1.9137026018	-0.4181014198	 1.1015671251	 0.075464
H	-3.4609471418	-1.9451715947	-1.3815490472	 0.09928
H	-1.9517287465	-1.8749664056	-2.352878079	 0.127011
H	-2.1583236207	-2.7400770646	 0.5648320307	 0.084055
H	-0.3582732317	-4.5799132733	 0.9027994753	 0.142937
H	 1.2701848738	-4.1746376536	 0.2920628654	 0.144396
H	 0.4444480713	-3.1293781511	 1.4901650398	 0.140072
