16
gdb 29723	2.39872	1.65026	0.98892	0.6936	67.87	-0.1762	0.0597	0.2359	1134.5421	0.12481	-471.240039	-471.230786	-471.229841	-471.273958	33.507	
C	-0.0041566916	 1.4832443668	-0.0169809371	-0.340497
N	 0.0476620758	 0.0374344171	 0.014117695	-0.076614
C	 0.1402473205	-0.8016974359	-1.0310279775	 0.430927
O	 0.1973774956	-0.3124001593	-2.2844821655	-0.428559
N	 0.1660612446	-2.0732425744	-0.6961940141	-0.463015
C	 0.0835026117	-2.0565724067	 0.6743553428	 0.30002
O	 0.0820236727	-3.2051446455	 1.3944390878	-0.445505
C	 0.0077887385	-0.7864554642	 1.17240033	 0.105025
N	-0.0890241456	-0.2225366961	 2.4543882383	-0.615263
H	 0.8986632263	 1.8989596006	-0.4746109716	 0.137952
H	-0.8739136753	 1.8331056056	-0.5812846985	 0.137955
H	-0.0789446731	 1.8255361084	 1.016001001	 0.158239
H	 0.2597384685	-1.0776996199	-2.8692364611	 0.310594
H	 0.1460183013	-3.9230272327	 0.754023808	 0.297026
H	 0.7055252366	-0.4498577597	 3.0423336917	 0.24586
H	-0.9295159064	-0.5086014441	 2.9446949709	 0.245854
