17
gdb 43940	3.26216	1.60476	1.49805	2.8096	77.8	-0.2328	-0.0295	0.2033	934.2877	0.136475	-384.598311	-384.591626	-384.590682	-384.629134	27.996	
O	-0.1263621158	-0.0953825488	-0.3420969354	-0.271241
C	-0.0699987389	 1.0756512559	-0.149526823	 0.338472
C	-1.1730874077	 2.1956559902	 0.1582545347	-0.4343
C	-0.0369008201	 2.850589339	 0.9756038399	 0.230747
C	 1.0149245106	 4.0424277458	 1.084920053	-0.298713
C	 2.0234513039	 2.7961806738	 1.1319350137	-0.139991
C	 1.5594331108	 2.1232665155	 2.4270467546	-0.06151
C	 0.2305823134	 2.1600523325	 2.3297439476	-0.126643
C	 1.0156165611	 2.1766928319	 0.0841268105	-0.084751
H	-1.4475676215	 2.7295837559	-0.7555157497	 0.128268
H	-2.0739381739	 1.8556272557	 0.6747202289	 0.123286
H	 1.1066432217	 4.6537273101	 0.1824523806	 0.104931
H	 0.9709176353	 4.6616577219	 1.983525052	 0.106546
H	 3.0888098808	 2.9128664959	 0.9372690438	 0.075744
H	 2.1964981305	 1.7559831643	 3.2185580654	 0.10889
H	-0.533997191	 1.8191809305	 3.0141398116	 0.102692
H	 1.0875083206	 2.7135794197	-0.8720867483	 0.097572
