20
gdb 39443	2.43548	1.91544	1.32872	1.112	78.13	-0.2432	0.0752	0.3183	1013.0106	0.174207	-403.11352	-403.106309	-403.105365	-403.144873	29.683	
C	 0.0264804324	 1.5523453844	-0.0821211428	-0.230889
C	 1.580972778	 1.504326582	 0.0312094627	-0.301694
C	 1.4043544015	 0.1213082641	 0.6489863793	 0.36901
N	 2.3901230049	-0.8987534827	 0.9422966819	-0.412693
C	 1.6413837644	-0.269313632	 2.0582689291	-0.105587
C	 0.4741102638	-0.9644880082	 2.7476697344	-0.10427
O	-0.7830750218	-0.4301936181	 2.3532417916	-0.235812
C	-1.044579978	-0.6642756832	 0.981193978	-0.112735
C	-0.0115884755	-0.0001890532	 0.0701313192	-0.07125
H	-0.4258765184	 2.0396703888	 0.7853554511	 0.115565
H	-0.3986062568	 1.970470274	-0.9961670838	 0.098042
H	 2.0601548023	 1.4531811836	-0.9516237983	 0.106404
H	 2.0777934622	 2.2702948303	 0.6310336321	 0.102943
H	 2.0229297024	-1.82806182	 0.7408001996	 0.221224
H	 2.2653328818	 0.3606665057	 2.687235578	 0.096736
H	 0.4957849924	-2.0502537966	 2.5450313854	 0.085157
H	 0.529523752	-0.8269466948	 3.8303418505	 0.114322
H	-1.0680647265	-1.7525378343	 0.7916339116	 0.080975
H	-2.047544757	-0.2709836251	 0.7868491953	 0.111071
H	-0.0109444843	-0.4832616447	-0.913997125	 0.073483
