14
gdb 21241	3.35333	1.99207	1.2648	3.1424	61.19	-0.202	0.01	0.212	911.7591	0.107295	-415.831351	-415.823494	-415.822549	-415.864169	27.277	
C	-0.0057549232	 1.386202035	-0.0362246616	-0.251289
O	 0.0463901749	-0.0438331779	 0.0075083945	-0.275713
C	 0.6093389667	-0.6612666498	-1.0313539239	 0.495123
C	 0.6985640445	-2.0025048697	-1.2868122311	-0.031937
N	 0.172797957	-3.0910474449	-0.5563269337	-0.619801
C	 1.3794772722	-2.0220585933	-2.5307768879	 0.028642
N	 1.6840055888	-0.8264485095	-2.9810333297	-0.174228
O	 1.1644240331	 0.0601494406	-2.0132667546	-0.228429
H	 1.0010165714	 1.8124717734	-0.0715577098	 0.146663
H	-0.572380313	 1.7291591712	-0.9070672695	 0.145922
H	-0.5089073088	 1.6894695917	 0.8817255453	 0.14201
H	-0.416390376	-2.7601578397	 0.1992240764	 0.246928
H	 0.9040801094	-3.6630610743	-0.1460515454	 0.245304
H	 1.665036363	-2.8865602729	-3.1149025788	 0.130805
