16
gdb 126291	3.43835	1.15676	0.92207	3.4865	75.93	-0.2464	-0.0639	0.1825	1250.5903	0.123909	-437.890273	-437.882122	-437.881177	-437.923653	29.797	
C	 0.0718447314	 1.5883251441	-0.0766741087	-0.380163
C	-0.0505083947	 0.059691528	 0.0504840423	-0.270969
C	 0.6103391588	-0.4763707268	 1.2857496547	 0.438421
C	-0.0133669953	-1.0526636978	 2.3377183531	-0.363431
C	 0.7599322568	-1.5083718321	 3.4712798931	 0.371196
O	 0.3296919364	-2.0430179029	 4.4807193001	-0.361887
C	 2.209096633	-1.2507993837	 3.2868339226	-0.057731
N	 2.7787835164	-0.7015251766	 2.2759684223	-0.046452
O	 1.9503129209	-0.3003084015	 1.2313737953	-0.274319
H	 1.1204395669	 1.8936527371	-0.1060545672	 0.145062
H	-0.411487134	 1.9292449996	-0.9959473214	 0.127299
H	-0.4077630018	 2.0908789977	 0.7683761641	 0.130547
H	-1.1015465059	-0.2410615883	 0.0704193549	 0.125626
H	 0.4104539188	-0.4187446443	-0.8216970153	 0.135741
H	-1.0893032376	-1.1744844401	 2.336451229	 0.125658
H	 2.8885719898	-1.5509797322	 4.0806476111	 0.1554
