14
gdb 21082	3.47328	2.40624	1.43413	2.6668	67.54	-0.2334	-0.0598	0.1736	818.2538	0.109103	-378.76287	-378.756135	-378.755191	-378.793846	24.907	
C	-0.0294044533	 1.4450408144	-0.0023413729	-0.312772
N	-0.0063642153	-0.0142742005	-0.0000880463	-0.044121
N	-0.0444259878	-0.6093962032	-1.1962576793	-0.196037
C	-0.0252091157	-1.9144948754	-1.2253239083	-0.005841
C	 0.0334945547	-2.7134335648	-0.0497031897	-0.100979
C	 0.0717950233	-2.1017014588	 1.1603327823	-0.189888
C	 0.0536794428	-0.6548012312	 1.2561842854	 0.417948
O	 0.0829051331	 0.0092284762	 2.2805761416	-0.399151
H	 0.8675780622	 1.8322933051	 0.4872651818	 0.153318
H	-0.0763169479	 1.769350813	-1.0399095792	 0.146405
H	-0.8957823041	 1.8045239885	 0.5583711971	 0.153378
H	-0.0574023588	-2.35785614	-2.2138095394	 0.127658
H	 0.0466784465	-3.7951691235	-0.137007656	 0.119113
H	 0.1169441103	-2.6441856899	 2.0969036729	 0.130969
