18
gdb 108012	3.42755	1.57987	1.42625	2.7377	73.78	-0.2356	0.0702	0.3059	958.0243	0.149315	-401.855707	-401.848814	-401.84787	-401.886955	28.246	
O	-0.0220577959	 1.336322992	-0.1819584172	-0.421903
C	 0.0397274942	-0.0551968873	 0.0742182266	-0.17574
C	-1.3464559708	-0.6277173373	 0.1965787167	 0.355774
C	-2.3135253223	-0.3936933338	 1.3712463734	-0.280742
C	-3.1156617377	-1.5447092334	 0.720988087	-0.074676
C	-3.4272670843	-1.0670546655	-0.7133644425	-0.047077
C	-2.3186392057	-1.8292830581	-1.3353243082	-0.059972
C	-1.783545203	-2.1250063857	 0.0870242833	-0.148472
N	-2.15485558	-0.3631554052	-1.0812403026	-0.195122
H	-0.6490263592	 1.4368485798	-0.9104496783	 0.294595
H	 0.5863031771	-0.590279938	-0.7207777364	 0.086068
H	 0.5994367648	-0.1872432626	 1.0063373243	 0.104883
H	-1.8588084675	-0.6993943265	 2.3190519646	 0.103067
H	-2.7819071668	 0.5882780422	 1.4734869413	 0.11021
H	-3.8471669086	-2.1507595987	 1.2512447829	 0.077016
H	-4.3519908815	-0.6927806661	-1.1340827885	 0.098142
H	-2.1957168666	-2.2823413597	-2.3113576401	 0.097406
H	-1.2437792362	-2.989298066	 0.4643834537	 0.076541
