19
gdb 100166	2.3492	0.99952	0.85383	1.7158	82.92	-0.2382	-0.0346	0.2036	1478.0471	0.15361	-422.996598	-422.985217	-422.984273	-423.035116	38.227	
C	-0.2895341653	 1.355292388	 0.25660839	-0.250462
O	-0.1731360554	-0.050165251	 0.1086557103	-0.275155
C	 0.5671732806	-0.4951956783	-1.0330218361	 0.097142
C	 0.0490616752	 0.0552989909	-2.3668335634	-0.42929
C	 2.0505837686	-0.1155310262	-0.7982128946	 0.131864
O	 2.7603417677	 0.4263914384	-1.6009789972	-0.242808
C	 0.5331486986	-1.9581721905	-1.0087323679	 0.017682
C	 0.5835671898	-3.1614652323	-1.0059734285	 0.119734
C	 0.6157106843	-4.6159557589	-1.0017177785	-0.502468
H	 0.679851501	 1.869827374	 0.1905364951	 0.119092
H	-0.9674280348	 1.7974283396	-0.4846823403	 0.118872
H	-0.7044639135	 1.5219492176	 1.2531870329	 0.134339
H	 0.1924551889	 1.1360531179	-2.4298897842	 0.127967
H	 0.6028074058	-0.39987507	-3.1895944656	 0.142458
H	-1.0115534325	-0.1822677177	-2.4755932676	 0.128988
H	 2.3974534197	-0.3962455723	 0.2199281237	 0.096296
H	 1.0748901249	-5.0023269881	-1.9179952889	 0.155004
H	 1.1914623716	-4.9980236796	-0.1520252313	 0.154682
H	-0.3953955152	-5.0318462516	-0.9345455479	 0.156064
