16
gdb 38806	3.30535	1.96207	1.68546	1.175	66.04	-0.2421	0.0056	0.2478	823.248	0.128604	-437.872165	-437.866431	-437.865487	-437.902005	24.305	
C	 0.0161522612	 1.5875790144	 0.1022515528	-0.249269
C	 1.5390679132	 1.797886808	 0.0056006866	 0.058223
O	 2.018688122	 0.8255040161	 0.9864425575	-0.293435
C	 1.573068917	-0.1601390964	 0.0247644582	 0.025918
C	 1.978278424	 0.7995981184	-1.115114427	 0.016517
N	 1.2914138814	 0.7266013682	-2.3843655577	-0.284353
C	 0.186186981	 0.103460621	-2.3750057991	 0.120558
O	-0.4773970496	-0.4015700274	-1.3083520034	-0.236551
C	 0.0362899	 0.0383244696	-0.0335554346	 0.089775
H	-0.3619823685	 1.9212787049	 1.0700754387	 0.118495
H	-0.5595624189	 2.0638665854	-0.6941761287	 0.122458
H	 1.9537106084	 2.7977916793	 0.1250513039	 0.088902
H	 1.9707956555	-1.1633501707	 0.1642140057	 0.090846
H	 3.0584659558	 0.8307833647	-1.2578696529	 0.100436
H	-0.3639018526	-0.0891119801	-3.2936571322	 0.13096
H	-0.5373262599	-0.5011487855	 0.717291652	 0.10052
