23
gdb 59996	2.15935	1.23685	0.93035	1.1979	82.3	-0.2427	0.0808	0.3235	1391.3926	0.202632	-425.407384	-425.396727	-425.395783	-425.44339	38.884	
C	-0.5294029618	 1.6669718005	-0.6196355037	-0.394199
C	 0.2659351695	 0.4953246241	-0.0572445259	 0.152352
C	-0.5482058279	-0.3371847192	 0.9358415584	-0.386703
O	 0.6563462141	-0.3122822875	-1.1774145674	-0.275233
C	 1.8333961622	-1.0786900056	-1.0123059219	 0.069195
C	 1.6664890908	-2.3857182753	-1.7863544222	-0.398403
C	 3.0591009687	-0.3179017245	-1.5022864903	 0.099304
C	 2.9652241367	 0.7162211549	-2.5371402353	-0.177547
O	 3.1517867181	 1.0633166739	-1.1581287747	-0.240515
H	 0.0968890193	 2.267216402	-1.2842958847	 0.124518
H	-1.3921046902	 1.3037526632	-1.1877016197	 0.118337
H	-0.8938854195	 2.3095388628	 0.1876578304	 0.110777
H	 1.1671763796	 0.8832614327	 0.432397533	 0.091213
H	-1.4532690826	-0.722788741	 0.4553452651	 0.118664
H	 0.0274190487	-1.189512954	 1.310922441	 0.111095
H	-0.8438980207	 0.2690974944	 1.7983770154	 0.112076
H	 1.9865652761	-1.3128455124	 0.0528115324	 0.074366
H	 2.56852272	-3.0023560641	-1.7199464753	 0.113435
H	 0.8249855458	-2.9553349058	-1.3846745659	 0.124162
H	 1.4666297561	-2.1760728945	-2.8414302521	 0.12761
H	 3.9986688119	-0.8660757235	-1.403763156	 0.086479
H	 3.818575051	 0.9145631391	-3.1835807237	 0.111054
H	 1.9868015742	 0.9608348796	-2.9417915972	 0.127964
