23
gdb 103179	1.86987	1.46559	1.15838	2.2696	81.64	-0.2387	0.0636	0.3023	1254.6801	0.202842	-425.4221	-425.411491	-425.410547	-425.457187	39.7	
C	-0.1872119922	 1.2310713583	 0.4967694846	-0.422399
C	-0.0839677463	-0.280073883	 0.250807741	-0.220572
C	 0.5479840984	-0.6652112074	-1.088363244	 0.275909
O	-0.1266219205	-0.0672698525	-2.1791743173	-0.483349
C	 2.11233354	-0.648558069	-1.1790577627	 0.128209
C	 3.0134074149	-0.0016015286	-0.1470098879	-0.420188
O	 2.1465501397	-2.0911606134	-1.0962602546	-0.321467
C	 0.7242711411	-2.1858951009	-1.3406737542	 0.150586
C	 0.0502371173	-3.2343604494	-0.4816646766	-0.42134
H	 0.7893939118	 1.7231761065	 0.4577829012	 0.124485
H	-0.8436963595	 1.7159077762	-0.234673684	 0.114946
H	-0.6168120845	 1.4304263828	 1.4827161829	 0.123844
H	 0.4845777451	-0.7446278462	 1.0629797327	 0.109131
H	-1.0893969094	-0.715806298	 0.2867001776	 0.106609
H	-0.1531753251	 0.8847342898	-2.0391035875	 0.278442
H	 2.3973246717	-0.3157060789	-2.1890645461	 0.068897
H	 2.7130391581	-0.2527346742	 0.8737304728	 0.119122
H	 4.0381935557	-0.3597493013	-0.2908859681	 0.130206
H	 3.0223598609	 1.0877654686	-0.2575772923	 0.113724
H	 0.5288904905	-2.3875190401	-2.4039960769	 0.07889
H	 0.2103003469	-3.0519855445	 0.5840567551	 0.117616
H	-1.0263682847	-3.2601228537	-0.6800753272	 0.121359
H	 0.4601182501	-4.2207828614	-0.7206571785	 0.127342
