19
gdb 95234	3.16835	1.32276	1.0394	1.8849	75.56	-0.2531	-0.0016	0.2515	1151.7893	0.160397	-423.006178	-422.998237	-422.997293	-423.038327	31.602	
O	-0.2174164921	 1.5416641764	-0.1732129593	-0.436844
C	 0.0575708326	 0.154816365	-0.009263991	 0.077943
C	-1.2935891425	-0.5161027127	 0.3125376874	-0.197581
C	-1.2997285484	-2.0467851962	 0.1356281744	-0.243435
C	-0.0439592471	-2.7394045027	 0.6353135528	 0.05335
O	 0.482259146	-3.7706362244	-0.2098562017	-0.261761
C	 1.2333992912	-2.5533670194	-0.0756114054	 0.010074
C	 1.2979259371	-1.6430800746	-1.2557088923	-0.105823
C	 0.7537902869	-0.4266966584	-1.2273606117	-0.089316
H	 0.6230140811	 2.0075205064	-0.2277044236	 0.28152
H	 0.7165353384	 0.011168015	 0.8606317304	 0.079466
H	-1.5673462028	-0.2345723177	 1.3349247098	 0.105815
H	-2.0511019024	-0.07525106	-0.3439770226	 0.116686
H	-2.1798905779	-2.4690350804	 0.6324204344	 0.101938
H	-1.3894972055	-2.2921881619	-0.9251131508	 0.124042
H	-0.0029732465	-2.9771689193	 1.6992019895	 0.088307
H	 2.1647127411	-2.6892825365	 0.4789558131	 0.095227
H	 1.8033537092	-2.0117769398	-2.1448738327	 0.102111
H	 0.7860723814	 0.219794631	-2.1018094805	 0.09828
