21
gdb 114539	3.31174	1.18732	1.08389	2.7641	77.06	-0.2336	0.0737	0.3074	1192.5224	0.184652	-424.211002	-424.202775	-424.201831	-424.24397	32.188	
O	-0.1526207596	 1.5077640332	 0.1773765933	-0.418865
C	-0.0074986518	 0.0960037761	 0.1395015006	-0.092398
C	-1.3951822566	-0.5255832265	-0.041269164	 0.032448
C	-2.0820876233	-0.0348116965	-1.3561879072	-0.220788
C	-2.2284404618	-1.1632936038	-2.3690414493	 0.096982
C	-0.9677453378	-2.0463298992	-2.4665501302	-0.256215
C	-1.63907825	-2.7517640396	-1.2720048563	 0.105708
C	-1.3179907017	-2.0821807162	 0.0612473758	-0.247218
O	-2.9353568842	-2.2636287416	-1.7204526245	-0.3015
H	 0.7227470704	 1.900473838	 0.238049079	 0.286847
H	 0.6611318358	-0.2095512226	-0.6822087918	 0.084377
H	 0.4356186155	-0.279668114	 1.0759489893	 0.086361
H	-1.9865900897	-0.1549587561	 0.8010723905	 0.088704
H	-3.0841325989	 0.3462808147	-1.1355473664	 0.10553
H	-1.5158178323	 0.8014830877	-1.779362406	 0.107625
H	-2.7227680663	-0.8466827139	-3.2918619432	 0.07123
H	-0.9729098796	-2.6689470121	-3.3627295354	 0.107907
H	 0.0138090092	-1.588221186	-2.3302904915	 0.094886
H	-1.6063186789	-3.8437395462	-1.2156815381	 0.070947
H	-0.3232435634	-2.396138237	 0.4045943642	 0.088698
H	-2.0359170149	-2.4488034685	 0.8016536213	 0.108735
