18
gdb 24440	3.39999	1.57499	1.11728	2.7437	78.48	-0.1793	0.0479	0.2272	1068.0185	0.151586	-401.992789	-401.985612	-401.984668	-402.02415	28.992	
C	-0.0143069266	 1.5169782112	-0.0161601122	-0.212735
C	 1.4206998576	 2.054539794	 0.0448612271	-0.074844
O	 2.0924903206	 1.7067752988	 1.2551370283	-0.282337
C	 1.9416820639	 0.385680935	 1.5665694429	 0.33965
C	 0.9935771151	-0.4451257287	 1.0134619756	 0.198766
C	-0.0320633496	-0.0273499727	 0.013796079	-0.343976
N	 1.167647829	-1.6829290141	 1.5979649075	-0.342243
C	 2.1995106712	-1.6306526598	 2.5002783223	-0.071834
C	 2.7089666228	-0.3503540153	 2.507400641	-0.301306
H	-0.5698122603	 1.908699517	 0.8430914582	 0.115885
H	-0.4999537466	 1.8943484108	-0.921815379	 0.098724
H	 1.9980599834	 1.6693662097	-0.8102991258	 0.095827
H	 1.4317824213	 3.1466758029	 0.003488622	 0.107691
H	-1.0358699858	-0.3839541268	 0.2795919792	 0.102224
H	 0.1808648487	-0.427864989	-0.9885155681	 0.104391
H	 0.6223057302	-2.5005459058	 1.3910838958	 0.254867
H	 2.4925117092	-2.5042407745	 3.059647427	 0.114825
H	 3.526377906	 0.0172122372	 3.1065762693	 0.096424
