19
gdb 74443	3.0337	1.54662	1.32416	1.8405	75.99	-0.2324	0.011	0.2434	1049.5553	0.159005	-423.034392	-423.026326	-423.025382	-423.066489	31.823	
C	 0.0270312004	 1.5007242086	 0.094641316	-0.508259
C	-0.0760651164	 0.0182931206	-0.0228543039	 0.337971
C	-0.1052110561	-0.7815625331	-1.0923936107	-0.245898
C	-0.0373794603	-2.2041271631	-0.5381900748	 0.458999
C	-0.4681150618	-3.3764362406	-1.3716395389	-0.491643
O	 1.3392030202	-2.3891098833	-0.0797004286	-0.307027
C	 1.4266652611	-1.5850001204	 1.0960193762	-0.086891
C	-0.0018477055	-0.9531555389	 1.1550828887	-0.088572
O	-0.7507276926	-2.0808045031	 0.6811126343	-0.259566
H	 0.9532552076	 1.7977185105	 0.6034836411	 0.13101
H	 0.0162084628	 1.9810523663	-0.8872156327	 0.131729
H	-0.7997044187	 1.9123933108	 0.6871719394	 0.131408
H	-0.0460232718	-0.5157367352	-2.1394288198	 0.104134
H	 0.1752646447	-3.4629927844	-2.2506992039	 0.132383
H	-0.389526029	-4.2948357546	-0.7860632462	 0.137577
H	-1.5014969053	-3.2439793625	-1.7009622923	 0.1314
H	 1.6103640265	-2.2210406637	 1.9687675616	 0.106602
H	 2.227092461	-0.8422635169	 1.0051223277	 0.099287
H	-0.3484169269	-0.618472507	 2.131768787	 0.085356
