16
gdb 41041	3.62088	1.94878	1.58478	1.275	70.94	-0.2081	0.0517	0.2598	847.0629	0.125567	-400.592566	-400.586409	-400.585465	-400.62286	25.619	
C	 0.0425448953	 1.3715536243	-0.0863767694	-0.095736
C	 1.5275609854	 1.8674830505	 0.0586597362	-0.413389
C	 2.122188166	 0.7052309283	 0.8064005303	 0.323692
C	 3.2198985634	-0.2687016342	 1.0321158592	-0.139858
C	 2.1875434761	-1.439239289	 1.0157077681	-0.231295
C	 1.493457144	-0.7344744165	 2.2030343475	-0.128453
N	 2.5365916463	 0.3989143937	 2.2190087287	-0.230367
C	 1.0976772937	-0.3994218279	 0.7886854951	 0.413224
O	 0.0222627317	-0.0833095333	-0.0009722015	-0.299426
H	-0.5700882844	 1.7822875366	 0.725306557	 0.118287
H	-0.4099033971	 1.6369994209	-1.0434188098	 0.121441
H	 1.9922243029	 1.9932739131	-0.9233693583	 0.126275
H	 1.5788157136	 2.8202160432	 0.5902949177	 0.130751
H	 4.2925526346	-0.2108560963	 0.8797642142	 0.098026
H	 2.2541278475	-2.4964434176	 0.8014981896	 0.103249
H	 1.0131731009	-1.1599911558	 3.0756801753	 0.103577
