17
gdb 36002	2.05806	1.36333	0.86433	4.1822	78.71	-0.2543	0.0145	0.2688	1294.6844	0.134888	-380.818573	-380.80935	-380.808406	-380.853175	33.246	
C	 0.2720869851	-1.2874202744	 0.0080044554	-0.42301
C	 0.1200177459	-0.0957327046	-0.0122719131	 0.31255
C	-0.0444807754	 1.3547301311	-0.0722218278	-0.234919
C	 1.3583917382	 2.035343997	-0.0921355422	-0.343338
C	 1.2797351537	 3.4770337532	 0.130325075	 0.271128
N	 1.194458126	 4.6111622712	 0.3356970187	-0.310115
C	-0.8901796545	 1.7450418419	-1.2808090565	 0.032855
C	-2.3605959619	 1.8724744063	-1.1434422387	-0.240526
N	-1.5254441296	 3.0622770336	-1.3741836988	-0.316659
H	 0.392404172	-2.3424557041	 0.0380756233	 0.205387
H	-0.562496429	 1.6903814284	 0.8362204631	 0.121863
H	 1.988380262	 1.5963562135	 0.6874192362	 0.165281
H	 1.8496151669	 1.8393203969	-1.0507803656	 0.165158
H	-0.4839034088	 1.3856231482	-2.2246032976	 0.104765
H	-3.0108869056	 1.5992257921	-1.9689342494	 0.126271
H	-2.7910429721	 1.7147031655	-0.1572374044	 0.11684
H	-1.398003063	 3.5960270141	-0.5177894974	 0.24647
