18
gdb 66001	2.26461	1.53243	1.39833	4.5354	70.89	-0.2512	0.0047	0.2559	1046.3527	0.147676	-439.083506	-439.074856	-439.073912	-439.117015	32.302	
N	-0.0163704402	 1.5108020698	-0.1810702684	-0.550456
C	-0.0396554722	 0.0721349874	-0.039245025	 0.080886
C	 0.8931850876	-0.8224941172	-0.9204232572	-0.11956
O	 1.6056946136	-1.2699170829	 0.2757044503	-0.245406
C	 0.8689567177	-0.4589703257	 1.0985498773	 0.441346
O	 0.9884595149	-0.3118538822	 2.2720527651	-0.328687
C	-1.4711500436	-0.4168483636	 0.039938003	-0.027203
C	-1.8567826681	-1.6753359101	 0.7787140339	-0.288973
C	-2.2472491112	-0.3249265939	 1.3257541608	-0.259226
H	 0.913547181	 1.8581168645	-0.392231569	 0.234431
H	-0.6383414041	 1.810868811	-0.9245207514	 0.232312
H	 0.4300927244	-1.6684542212	-1.4321235741	 0.1224
H	 1.566059248	-0.2796880694	-1.589401204	 0.111231
H	-2.0245988708	-0.2193091923	-0.8768045084	 0.085495
H	-2.6246626362	-2.2999234968	 0.3363322257	 0.112285
H	-1.086337697	-2.2287875043	 1.3043707202	 0.136407
H	-1.7114521731	 0.0319825606	 2.1975202245	 0.150381
H	-3.2872218609	-0.0236795737	 1.2741597066	 0.112338
