23
gdb 106769	2.03781	1.47715	1.08263	1.6234	86.26	-0.24	0.0712	0.3112	1264.8039	0.20429	-388.273662	-388.26367	-388.262725	-388.308294	38.07	
C	-0.3352516349	 1.4925284476	 0.0862276141	-0.373056
C	 0.1128779549	 0.0349604348	-0.0919347014	-0.292783
C	 0.8374126369	-0.5046421631	 1.1115320896	 0.286111
C	 0.1387606344	-1.0005806571	 2.3547159759	-0.375717
C	 1.0638329202	-1.9392265115	 1.6248205046	 0.284215
C	 0.6213868725	-3.2664279286	 1.0767348047	-0.498038
C	 2.5070369132	-1.585602867	 2.0165555933	-0.326234
C	 2.2802297853	-0.1256839714	 1.5047126154	 0.106955
O	 3.1158063673	 0.2804971383	 0.4412572113	-0.439302
H	 0.5279038941	 2.1432424315	 0.2572070576	 0.130255
H	-0.8588870317	 1.8563195144	-0.803384907	 0.107749
H	-1.0095122094	 1.5951713737	 0.9427606793	 0.115339
H	-0.7571056378	-0.5986234806	-0.3059927595	 0.09372
H	 0.7646449515	-0.0305586572	-0.972770112	 0.086296
H	 0.4036272452	-0.6110656233	 3.3368910605	 0.098597
H	-0.9220950422	-1.2042854841	 2.2350020501	 0.105512
H	-0.4031124118	-3.2176122163	 0.6928433832	 0.117545
H	 1.2697732783	-3.6015153086	 0.2583933126	 0.109436
H	 0.64335512	-4.042550397	 1.8518724282	 0.121094
H	 2.7819131079	-1.7223611113	 3.0686069257	 0.092653
H	 3.2567842735	-2.0870767169	 1.3952112557	 0.091687
H	 2.3701183566	 0.6668942343	 2.2550134306	 0.081621
H	 3.1043925262	-0.4114541507	-0.2293199827	 0.276345
