23
gdb 112645	3.11997	1.04927	0.8651	2.0091	88.23	-0.2404	0.0167	0.2571	1444.4354	0.205324	-388.316439	-388.306466	-388.305522	-388.351063	37.691	
C	-0.1255837649	 1.5357703114	-0.0562103383	-0.388011
C	 0.009052223	 0.0102052609	-0.0434628314	-0.171668
C	 0.7995778297	-0.5293332394	 1.1507485959	-0.000361
C	 0.8364978256	-2.0744409394	 1.2561852681	-0.334903
C	 2.2023374647	-2.3734696945	 1.8377415843	 0.328317
C	 2.5712217415	-3.7454584067	 2.3062877598	-0.489958
C	 2.9723212441	-1.280573744	 1.8459377537	-0.212794
C	 2.2992771252	-0.0919882358	 1.2094500554	 0.08538
O	 2.8817427672	 0.2216523442	-0.0620123505	-0.431901
H	 0.855960995	 2.0096900655	-0.1413525562	 0.136368
H	-0.7341795518	 1.8707882613	-0.9021466376	 0.10578
H	-0.6037717162	 1.9002751829	 0.8604165302	 0.105353
H	-0.9881869275	-0.4487909465	-0.0378553808	 0.086633
H	 0.4950180499	-0.3168079644	-0.9704777577	 0.088158
H	 0.3368649168	-0.1516179318	 2.0719965858	 0.072389
H	 0.0245974092	-2.4651665636	 1.8818524694	 0.102037
H	 0.7184698878	-2.5617222435	 0.2763583302	 0.098501
H	 2.4668851756	-4.4797199595	 1.4970689976	 0.125999
H	 3.5996149813	-3.7873157181	 2.6749192199	 0.124903
H	 1.9045986962	-4.0787056534	 3.1118061768	 0.127893
H	 4.0022855152	-1.2445962209	 2.1861798535	 0.086767
H	 2.4176602239	 0.8319193616	 1.7843618431	 0.082516
H	 3.0349480187	-0.6131255261	-0.5180056514	 0.272603
