19
gdb 74272	2.68198	1.43393	1.19801	2.3644	76.77	-0.2412	-0.0019	0.2393	1125.9456	0.1576	-423.021595	-423.012817	-423.011873	-423.05448	34.049	
C	 0.0006767483	 1.5243060006	 0.0809124666	-0.49992
C	-0.0318817482	 0.032753604	-0.0183031882	 0.311326
C	-0.0855003337	-0.7310548649	-1.1141485783	-0.249825
C	-0.0558116213	-2.2285611251	-0.8187351347	 0.354724
C	-1.2738070487	-2.9764785118	-1.3466538241	-0.428006
O	 1.0921194917	-2.8456842999	-1.3932960688	-0.469873
C	 0.0224864285	-2.2431393432	 0.718645663	-0.021494
O	 1.2506848585	-1.6844813825	 1.2005787415	-0.274273
C	 0.0514452822	-0.8588842654	 1.1896869035	-0.067473
H	 0.9230225863	 1.8668992847	 0.5663670296	 0.13712
H	-0.0618173288	 1.9921968262	-0.9047800013	 0.129519
H	-0.8315780608	 1.9010410084	 0.688719197	 0.128809
H	-0.0694285611	-0.3689444991	-2.1371034958	 0.099498
H	-1.328602416	-2.8871338169	-2.4351614867	 0.127345
H	-1.1980766559	-4.0388767452	-1.0942348152	 0.124167
H	-2.1953466578	-2.5725112159	-0.9177054122	 0.117735
H	 1.8488961854	-2.4739456929	-0.9210226192	 0.285865
H	-0.3732816385	-3.0805067259	 1.2875364507	 0.096475
H	-0.2893339201	-0.5422884052	 2.1712704026	 0.098281
