17
gdb 3293	4.63868	2.52217	2.06115	1.3256	63.25	-0.2489	0.0725	0.3214	689.8311	0.149584	-309.687401	-309.680887	-309.679943	-309.717694	25.295	
O	-0.1366746156	 1.463380238	 0.1894038599	-0.43008
C	-0.013379398	 0.0659764556	 0.0432833462	 0.140175
C	 0.3636275644	-0.796885728	 1.2883615673	-0.280712
C	-0.8658054496	-1.712615016	 1.0118379462	-0.006954
C	-2.1040083369	-1.3889010729	 1.8774474963	-0.21758
C	-2.4559155578	-0.2106935767	 0.9189014811	-0.227372
C	-1.3530616965	-0.6805468827	-0.0745446522	-0.032674
H	 0.7426527139	 1.8329871148	 0.3168737116	 0.28215
H	 0.6378258125	-0.1820313478	-0.8080268574	 0.061943
H	 1.3425867728	-1.2804190063	 1.2437567713	 0.093494
H	 0.2884646865	-0.2425955471	 2.2291537967	 0.097486
H	-0.6449893981	-2.7571901412	 0.7902232644	 0.059303
H	-2.853853258	-2.1846092341	 1.845181265	 0.095451
H	-1.9123000325	-1.1422035391	 2.9266437186	 0.091206
H	-3.4703108157	-0.2368167127	 0.5159536696	 0.096954
H	-2.2726670437	 0.787418397	 1.3210228048	 0.118803
H	-1.6885743177	-0.9577568808	-1.0746001692	 0.058407
