17
gdb 67201	2.9451	1.52575	1.25556	4.8331	76.48	-0.2494	0.0176	0.267	1031.8554	0.136678	-380.810512	-380.802879	-380.801934	-380.842565	29.424	
C	-0.006172012	 1.5681086893	-0.1179145832	-0.528083
C	-0.0147162152	 0.0821293514	-0.0718799522	 0.379031
C	-0.006456696	-1.0390572083	-1.0711746989	-0.15105
C	 1.2436562245	-1.5917410467	-0.4160097582	-0.183189
N	 0.904769942	-0.7998034778	 0.8339842742	-0.198489
C	-0.3585808252	-1.5194138636	 1.2881813178	-0.139454
C	-0.8638306609	-0.9644063288	 2.5413077332	 0.297168
N	-1.2925222407	-0.5357739979	 3.5250724506	-0.32779
C	-1.0674681038	-0.9819296172	 0.0518192967	-0.119282
H	 0.9737190288	 1.9486831233	-0.4247267478	 0.134429
H	-0.7506940632	 1.9265877044	-0.8362125145	 0.131126
H	-0.2454192309	 1.9917464289	 0.8626284157	 0.14976
H	-0.3027791894	-1.0134605772	-2.1127825959	 0.101334
H	 1.3522238837	-2.6705044495	-0.2576341133	 0.106054
H	 2.1635749563	-1.191414312	-0.8484818757	 0.120162
H	-0.2347177078	-2.6023870153	 1.4023891339	 0.117233
H	-2.1277664803	-0.9177175531	-0.1548728724	 0.111041
