18
gdb 72960	2.62166	1.50367	1.20665	3.6846	77.24	-0.2706	0.0149	0.2855	1082.783	0.146691	-401.934833	-401.926063	-401.925118	-401.967691	33.418	
C	-0.0546541529	 1.5740548968	 0.0476310467	-0.502729
C	-0.0014521797	 0.0732193977	 0.0728340408	 0.280615
C	-1.2328149937	-0.8412125384	-0.0637776878	-0.279537
C	-0.6080436406	-1.8343651768	 0.9643669931	-0.239397
C	 0.6161230348	-0.9224188412	 1.0750490043	-0.170171
C	 1.2186430079	-0.7322433602	-0.3094937666	 0.225965
O	 1.115842776	-1.696301248	-1.3169309402	-0.455187
C	 2.4776858122	-0.0129301167	-0.3230896801	 0.241182
N	 3.4989375553	 0.5304571777	-0.3393033385	-0.35067
H	 0.9152076971	 2.0203228043	 0.2832556741	 0.146532
H	-0.3560702847	 1.9332669926	-0.9432090727	 0.132945
H	-0.786154942	 1.9443858952	 0.7735890851	 0.122886
H	-2.1322760966	-0.355893839	 0.3212716488	 0.108898
H	-1.4308480738	-1.2270049054	-1.0652291732	 0.120336
H	-1.1724653693	-1.8828312029	 1.8971910977	 0.1123
H	-0.4183101271	-2.8505776753	 0.6103530043	 0.103637
H	 1.212109977	-0.7380996946	 1.9618484943	 0.106484
H	 1.7490721901	-2.3997353659	-1.13163651	 0.295909
