18
gdb 45688	3.57135	1.34655	1.03486	3.7869	79.45	-0.2331	0.0084	0.2415	1139.7606	0.150162	-401.981551	-401.974048	-401.973104	-402.013683	29.531	
O	 0.000699473	-0.0577786131	-0.3895281721	-0.373544
C	-0.0141788525	 1.1287599135	-0.1236403502	 0.385745
C	-1.3375538531	 1.872737008	 0.1174087241	-0.366279
C	-1.209226243	 3.1979935172	 0.8274805397	-0.241478
C	-0.0675451545	 3.8598336738	 0.7313231382	 0.327202
C	 0.7063640254	 4.913141367	 1.4966492075	-0.317268
C	 1.9566366247	 3.9904036144	 1.2910371368	-0.241927
C	 1.1849239286	 3.2949149632	 0.1169177782	-0.017952
N	 1.1416818574	 1.8629441596	-0.026679021	-0.321467
H	-1.8212240653	 1.9805533707	-0.8640758013	 0.140298
H	-1.9733196544	 1.1805118814	 0.6770479278	 0.139169
H	-2.034689071	 3.5454581327	 1.442466581	 0.097154
H	 0.8062179712	 5.8599605215	 0.9551646569	 0.115436
H	 0.3918135003	 5.1253025711	 2.5201770676	 0.118576
H	 2.9074185284	 4.4689029158	 1.0477097351	 0.103577
H	 2.0852029842	 3.3025900671	 2.1291019905	 0.119129
H	 1.4490836927	 3.7873868235	-0.8316746123	 0.089831
H	 1.9749151879	 1.3561589727	-0.2909281365	 0.243797
