15
gdb 131079	4.24714	0.87472	0.8163	2.5035	67.65	-0.2538	0.0033	0.2571	1364.4784	0.114062	-453.979184	-453.971114	-453.97017	-454.014472	27.903	
O	 0.4759578039	 0.177104253	 0.4779490765	-0.273198
C	 0.621376536	 1.2394016324	-0.0466668035	 0.178715
O	 0.4818947127	 2.4033959718	 0.6180154463	-0.175808
C	 0.774493304	 3.6086739851	-0.1135488104	-0.227251
C	 2.2294934219	 3.9502916685	-0.0672881066	 0.189791
C	 3.1131689879	 3.7353569291	 0.9741999381	-0.108951
N	 4.3053202627	 4.2279136116	 0.566386748	-0.172113
N	 4.2721310739	 4.7547749392	-0.6709153149	-0.219173
C	 3.0120171564	 4.5864472774	-1.0590592527	-0.087518
H	 0.8671764658	 1.3815297613	-1.1171493352	 0.081999
H	 0.4342676126	 3.512530042	-1.1524467345	 0.122226
H	 0.1541653574	 4.3726764662	 0.3638432151	 0.140201
H	 2.9811054593	 3.2677792472	 1.9365686071	 0.155593
H	 5.1777651515	 4.2180022982	 1.0675654091	 0.280892
H	 2.7030526841	 4.9261965368	-2.0373694424	 0.114596
