16
gdb 127390	3.94372	1.11889	1.06148	2.3485	71.64	-0.2442	-0.0519	0.1922	1156.3869	0.124605	-433.990132	-433.982418	-433.981474	-434.023141	28.32	
C	 0.2565231637	 1.5185874892	-0.4815161945	-0.328918
N	 0.0597306492	 0.1207227309	-0.1136730444	-0.08206
C	 1.2396463049	-0.7169196542	-0.0089787866	-0.248694
C	 0.4812075349	-0.3437351468	 1.2238477176	-0.114441
C	 1.0668500148	 0.5532458187	 2.2404343259	 0.349601
N	 2.168580267	 1.2477449598	 2.0888474348	-0.159931
O	 2.3370734838	 1.9517202002	 3.2479805157	-0.145608
N	 1.3388234498	 1.6882845022	 4.1408669707	-0.060134
C	 0.5545509829	 0.838420891	 3.5421448429	-0.11708
H	 1.1860108354	 1.9614291025	-0.0980775641	 0.135738
H	 0.2673631578	 1.5789811296	-1.5737589823	 0.130715
H	-0.5899023484	 2.1084817101	-0.1165295785	 0.125931
H	 1.1505936915	-1.7253471586	-0.4044249637	 0.123044
H	 2.2152758072	-0.2510405083	-0.135081982	 0.137903
H	-0.2089249608	-1.0671187252	 1.6509691304	 0.10133
H	-0.3295554337	 0.4561330989	 4.0287073281	 0.152603
