14
gdb 4150	3.44644	1.51992	1.1188	1.3861	67.88	-0.2405	-0.0045	0.236	1015.9481	0.10555	-378.605528	-378.597633	-378.596689	-378.637936	28.837	
O	-0.138979098	 1.3778074035	 0.0607402344	-0.387637
N	 0.0302982248	-0.0154261192	 0.0837077917	-0.224752
C	-1.0788288915	-0.6079811505	-0.0091634051	 0.413758
C	-2.5379323476	-0.2570019565	-0.1782724146	-0.262157
N	-2.8042109491	-1.69838834	-0.456664951	-0.310768
C	-1.4179244111	-2.0960760961	-0.0347293106	-0.275878
C	-0.7026444092	-2.9732516203	-0.9464374283	 0.372943
C	-0.1030846942	-3.7058046	-1.6859415402	-0.438864
H	 0.7694619641	 1.6946251606	 0.1117102507	 0.311615
H	-2.9920175748	 0.1463724434	 0.7372590358	 0.120774
H	-2.7816675893	 0.4108530535	-1.0109896352	 0.13902
H	-3.5284975363	-2.1085243088	 0.1216993988	 0.22699
H	-1.3773351688	-2.5170207174	 0.9817446699	 0.11495
H	 0.4254403509	-4.3455318023	-2.3487325964	 0.200007
