25
gdb 122175	2.90499	0.76351	0.68179	0.9182	90.86	-0.2489	0.0872	0.336	1808.6102	0.226511	-389.47567	-389.464395	-389.463451	-389.512607	40.697	
C	 0.0912529855	 1.336948952	-0.2623713397	-0.226898
O	 0.0124468028	-0.019030334	 0.0989278876	-0.229316
C	-1.2859243689	-0.5542774229	-0.0536731585	-0.049755
C	-1.247919248	-2.0198555309	 0.3729927412	-0.283427
C	-2.5608568041	-2.7564750257	 0.1519459607	 0.358283
C	-3.7279580375	-2.2433044442	 0.9805465116	-0.460444
C	-2.8737008518	-3.2666737402	-1.2411676602	-0.329068
C	-2.5505667837	-4.2467226039	-0.1364566482	-0.039175
C	-1.3037411661	-5.1035534066	-0.1773057483	-0.413439
H	 1.1247629961	 1.6588239893	-0.1108318739	 0.124262
H	-0.1785081807	 1.4969038426	-1.319043396	 0.100494
H	-0.5701309821	 1.9661924471	 0.3553241189	 0.100484
H	-2.0041913175	 0.0202440658	 0.5544708648	 0.083692
H	-1.6153470692	-0.472106307	-1.1041143524	 0.085333
H	-0.438385534	-2.4958474026	-0.1876982041	 0.104472
H	-0.9629717233	-2.0667238237	 1.4320371859	 0.100096
H	-3.981341909	-1.2060022494	 0.7348623458	 0.115626
H	-4.6257097694	-2.8458802559	 0.8106029951	 0.111002
H	-3.4982622928	-2.2828417986	 2.0523946388	 0.113275
H	-3.8936848709	-3.200286301	-1.6062198038	 0.102888
H	-2.1202188864	-3.1217755988	-2.0102234478	 0.104422
H	-3.4118226406	-4.7716818912	 0.2719787205	 0.077239
H	-0.4641530266	-4.5944596102	-0.6580570249	 0.118763
H	-0.9829036773	-5.3963038771	 0.8289822513	 0.115827
H	-1.4913862343	-6.022129803	-0.7446037743	 0.115363
