18
gdb 19788	3.00785	2.62071	1.84353	2.2244	70.2	-0.2189	0.0718	0.2907	786.5393	0.156417	-343.935324	-343.9287	-343.927756	-343.965658	27.023	
C	-0.0358424692	 1.5761720603	-0.0492782292	-0.391241
C	 0.0307269072	 0.051460965	-0.0175360453	 0.039174
C	 0.6509935816	-0.600203861	-1.2552477973	-0.048252
N	 2.0640393899	-0.2411526117	-1.4844440615	-0.339486
C	 1.7300121757	-1.5109064359	-0.7977960425	-0.048092
C	 1.7816804011	-1.4311240427	 0.711632088	-0.024391
C	 2.181397902	-0.1341500551	 1.3167125659	-0.253312
N	 0.7555821759	-0.4736588965	 1.173307174	-0.114924
H	 0.9490950057	 2.0066975613	-0.2456724783	 0.132434
H	-0.7155671035	 1.9128554467	-0.8386985952	 0.109492
H	-0.4047494568	 1.9605681458	 0.9056537821	 0.123827
H	-0.9904164854	-0.3425093136	 0.0716033396	 0.08139
H	 0.0185882883	-0.8263436265	-2.1095833349	 0.08454
H	 2.3121984606	-0.4340635474	-2.451836653	 0.231454
H	 1.9490095248	-2.4523676682	-1.2892137231	 0.086478
H	 1.8700459104	-2.3666459081	 1.2573835718	 0.084317
H	 2.5219115082	-0.0985361685	 2.3484940632	 0.105167
H	 2.6297717436	 0.5925775961	 0.6490206959	 0.141426
