14
gdb 5775	6.32267	1.40868	1.24316	4.4703	64.33	-0.2204	0.0187	0.2391	934.8601	0.109371	-378.729081	-378.722486	-378.721542	-378.760537	24.099	
C	 0.1347691332	 1.5622487658	 0.0390779675	-0.167756
O	 1.1679045981	 0.5978291665	-0.1549857842	-0.216997
C	-0.1573158159	 0.1136268475	 0.0512439657	-0.058333
C	-0.3816375049	-0.6353640602	 1.3003250072	 0.30908
C	 0.3873440316	-0.8067743081	 2.4248846565	-0.160433
N	-0.2594264616	-1.6001358049	 3.3438385943	-0.250373
C	-1.4067415502	-1.9107543496	 2.7887600002	 0.011526
N	-1.5332989736	-1.3565838341	 1.5474398812	-0.322256
H	 0.1665601875	 2.095624145	 0.9870897346	 0.124887
H	-0.1185924774	 2.1589206268	-0.8367124035	 0.117903
H	-0.6260676205	-0.3067372884	-0.8416576835	 0.094289
H	 1.3752503333	-0.4136056687	 2.6055841172	 0.122115
H	-2.179623936	-2.5264025636	 3.2241310708	 0.131171
H	-2.3225637335	-1.4473001239	 0.929420166	 0.265177
