19
gdb 106511	3.17136	1.4355	1.24965	2.294	75.29	-0.2375	0.0051	0.2426	1063.591	0.160404	-423.009793	-423.002027	-423.001083	-423.041903	31.104	
O	 0.013453519	 1.3920287833	-0.2236080588	-0.420318
C	 0.0456359518	 0.0117910197	 0.0928531745	-0.158904
C	-1.3497541921	-0.5631761903	 0.149945868	 0.350381
C	-1.5953282338	-2.092084109	 0.1599966416	-0.295827
C	-2.7477241464	-1.6890533092	-0.7860585958	 0.088344
C	-3.9966920908	-1.236271706	-0.0146464721	-0.262281
C	-3.5796715522	-0.2395288212	 1.0476985583	-0.080251
C	-2.2943724103	 0.099050201	 1.1389749065	-0.077888
O	-1.9928418526	-0.5043281611	-1.1772473737	-0.344072
H	-0.5109489496	 1.4748332095	-1.0289259053	 0.29761
H	 0.6398546114	-0.5587451034	-0.6369375105	 0.090018
H	 0.5306042629	-0.0788698166	 1.0717049636	 0.108607
H	-0.8138554854	-2.6388841096	-0.372429027	 0.104671
H	-1.8301417355	-2.5691051226	 1.1125912715	 0.102342
H	-2.979796357	-2.3294841396	-1.6408934585	 0.076533
H	-4.7178718761	-0.7806105165	-0.7058803267	 0.11645
H	-4.5018208891	-2.102805927	 0.4335421624	 0.107344
H	-4.340219541	 0.1847133962	 1.6966219049	 0.0953
H	-1.9105731133	 0.8114044226	 1.860433787	 0.101941
