14
gdb 125525	4.51332	1.1507	0.92217	1.7986	66.05	-0.2873	-0.0575	0.2299	1197.9294	0.101131	-466.214465	-466.206057	-466.205113	-466.248442	29.155	
C	-0.0248842839	 1.4372385903	 0.0143454355	-0.479138
C	 0.014813451	-0.0502699718	-0.0033409325	 0.400749
N	-0.0528382937	-0.7862639939	-1.1014130657	-0.254083
N	 0.0203457582	-2.0204938352	-0.6097141218	 0.022867
N	 0.1277910875	-2.0550609886	 0.7241942216	-0.120666
N	 0.1258649974	-0.8214257919	 1.1229535402	-0.24903
C	-0.0140584314	-3.2198871431	-1.4365035703	 0.53032
N	 0.0846570926	-4.3319063431	-0.6786086177	-0.559285
O	-0.11708699	-3.1440491403	-2.6285321539	-0.330443
H	 0.8870323883	 1.8406657489	 0.4640844099	 0.153218
H	-0.120526246	 1.819791919	-1.0024163762	 0.155402
H	-0.8700599875	 1.7919977254	 0.6113351136	 0.153228
H	 0.1583620701	-4.2743601393	 0.3237582375	 0.293749
H	 0.0614061974	-5.2199530465	-1.1479244302	 0.283112
