20
gdb 101069	2.59764	1.21215	0.976	2.6465	82.14	-0.2409	0.0423	0.2832	1289.4616	0.168188	-403.077164	-403.066998	-403.066054	-403.112246	37.227	
C	 0.418357086	 1.6261917632	-1.1112768359	-0.239708
O	-0.168945381	 0.347311328	-1.0098259072	-0.258034
C	 0.751508001	-0.7258982798	-0.8710970639	 0.030846
C	 1.3083425225	-0.8263031754	 0.5503074579	-0.403665
C	 0.0111554311	-2.0071822382	-1.2866287885	 0.121113
C	-1.4264507238	-2.1605174047	-0.9101426621	-0.267341
N	-1.0536885455	-1.9111321496	-2.3085834884	-0.359486
C	 0.861479515	-3.16846389	-1.377775138	 0.285241
C	 1.5976175508	-4.1176428209	-1.4336296665	-0.411459
H	 0.9252628217	 1.9278995004	-0.1845419428	 0.115422
H	 1.1450118587	 1.6721182147	-1.9362709995	 0.112611
H	-0.3897621158	 2.3337427339	-1.3112971041	 0.132259
H	 1.5827773975	-0.5790821424	-1.5800978421	 0.080469
H	 1.8927729616	 0.060354976	 0.8114507493	 0.114863
H	 0.4895465586	-0.9285493756	 1.2685343911	 0.125265
H	 1.9609282971	-1.6984894796	 0.6374840015	 0.139774
H	-1.8156593959	-3.1529428159	-0.7059219693	 0.123384
H	-1.8738874808	-1.3489424244	-0.3445708106	 0.126456
H	-1.1869861544	-0.9177801747	-2.4935409745	 0.240818
H	 2.2334218156	-4.9658760453	-1.4946830565	 0.191172
