16
gdb 129361	6.17151	0.76186	0.70152	3.5855	74.18	-0.2506	0.0147	0.2653	1543.9076	0.125844	-434.07773	-434.069304	-434.068359	-434.113282	29.179	
N	 0.1170200453	 1.148685117	 0.6420749344	-0.440452
C	-0.024263952	 0.0083544451	 0.1196954092	 0.13945
O	-1.066799545	-0.768807521	 0.4666437802	-0.183412
C	-1.0896092121	-2.0903903191	-0.0850902936	-0.190923
C	-2.4819156914	-2.6226113957	 0.0052809889	 0.340317
N	-2.6900339289	-3.8658950996	 0.4335944483	-0.289798
N	-4.0230126219	-4.0259811249	 0.3545982849	-0.181535
C	-4.6663559882	-2.9216974098	-0.0976513015	-0.012806
C	-3.6926118124	-1.9795608935	-0.3418277713	-0.269082
H	 0.9391804552	 1.6068551428	 0.2545366544	 0.22777
H	 0.6331976788	-0.4482922277	-0.6343556652	 0.0825
H	-0.7525510864	-2.0522293282	-1.1309378932	 0.114701
H	-0.4130803446	-2.7509867096	 0.4686547514	 0.13056
H	-4.4252199132	-4.9021354227	 0.6409620126	 0.277901
H	-5.7394126306	-2.8933389204	-0.2021427937	 0.13678
H	-3.8277101025	-0.9719799427	-0.6976993858	 0.118029
