19
gdb 26140	2.55328	1.36074	1.08071	3.3571	79.49	-0.1824	0.0483	0.2307	1193.4836	0.159237	-419.220986	-419.211643	-419.210699	-419.255024	34.86	
C	 0.0571975223	 1.4261075856	-0.0763936338	-0.328082
N	-0.0382932996	-0.0231115465	 0.0878014519	-0.170121
C	 0.8169709239	-0.5280206906	 1.1601073892	-0.328083
C	-1.3393336895	-0.5516713872	 0.0518654664	 0.163123
C	-1.8737518875	-1.3722580922	-0.9182036524	 0.301025
O	-1.2192484096	-1.8169675299	-2.0248239681	-0.45462
C	-3.2152314444	-1.6729625197	-0.5689725299	-0.241586
C	-3.4693575879	-1.0210873355	 0.6194816533	-0.081213
N	-2.3434655273	-0.3444462671	 0.9972177575	-0.298669
H	 1.0970552031	 1.7064587464	-0.2782856623	 0.117314
H	-0.5592723371	 1.7370358628	-0.9225805769	 0.133249
H	-0.2711147567	 1.9891551802	 0.8158103809	 0.091063
H	 0.5518760731	-0.1275990544	 2.1552154356	 0.091041
H	 0.7448758565	-1.617048681	 1.1997382138	 0.133237
H	 1.8587245735	-0.2525068604	 0.961357789	 0.117328
H	-0.3303750595	-1.4390916468	-1.9728453938	 0.28526
H	-3.902109583	-2.2908743002	-1.1245510409	 0.097526
H	-4.3646255477	-0.9902370788	 1.2194825552	 0.11397
H	-2.2533213526	 0.2141544653	 1.8266018953	 0.258241
