21
gdb 114613	2.40938	1.23648	0.95277	2.7159	78.2	-0.2392	0.0621	0.3013	1313.9548	0.181455	-424.182346	-424.172954	-424.17201	-424.216844	35.186	
C	 0.1610611918	 1.4867477825	 0.3771219768	-0.37414
C	 0.0235957068	 0.0354938429	-0.105145534	-0.298038
C	-1.3964919446	-0.4585327236	-0.0973818893	 0.262055
C	-2.092883626	-1.0247399545	 1.1324329864	-0.355637
C	-1.9930492772	-1.8482058312	-0.1117184613	 0.04764
O	-3.0203614289	-1.4944535442	-1.0450286986	-0.323261
C	-2.4481392763	-0.1542856978	-1.1735199774	 0.073656
C	-3.5122414907	 0.9141171063	-0.9963231397	-0.083746
O	-4.5711076119	 0.708075825	-1.913737109	-0.420604
H	 1.206968309	 1.8081206861	 0.3659801177	 0.11483
H	-0.4036879776	 2.1733127491	-0.2627739839	 0.120296
H	-0.2175294382	 1.5979289209	 1.3982151514	 0.12136
H	 0.4343659961	-0.0556131063	-1.119330191	 0.102021
H	 0.6324724847	-0.619362582	 0.5303699106	 0.100636
H	-1.4084136668	-1.3035408127	 1.9288363901	 0.114412
H	-3.0631535316	-0.6728461187	 1.4688418788	 0.115812
H	-1.5561514391	-2.8370440707	-0.1929358711	 0.106239
H	-1.9908867265	-0.0633742455	-2.1677778911	 0.08581
H	-3.8755191838	 0.9229137989	 0.0419019632	 0.08735
H	-3.0896301498	 1.9022309457	-1.210580395	 0.108433
H	-4.8458795795	-0.2098556004	-1.7985019737	 0.294876
