16
gdb 125316	4.07188	0.9963	0.84155	4.0657	77.46	-0.2474	-0.0003	0.2471	1349.0172	0.12349	-396.896103	-396.887289	-396.886345	-396.93122	30.983	
C	 0.3480423805	 1.4261332083	-0.0665307323	-0.482251
C	 0.0657376325	-0.0398032635	-0.0255543987	 0.305647
C	 0.4536038902	-1.0401167382	-0.8872419382	-0.179361
N	-0.0745275407	-2.1702280562	-0.3564863294	 0.071184
C	-0.0518245033	-3.5378762285	-0.8605131733	-0.292078
C	 1.2773198793	-3.972479478	-1.2720891487	 0.299551
C	 2.3630037285	-4.334435161	-1.6346204282	-0.436532
N	-0.75839788	-1.8933078657	 0.7709477303	-0.14338
N	-0.6736202302	-0.6105816428	 0.9718884909	-0.249399
H	 0.9198184678	 1.7411996322	 0.8122447054	 0.142839
H	 0.9211597827	 1.6904257229	-0.9586829332	 0.122502
H	-0.5818001654	 2.0033180481	-0.0726929516	 0.142726
H	 1.0475172174	-1.0482365495	-1.7852826659	 0.149819
H	-0.4369197171	-4.1570433113	-0.045166452	 0.176811
H	-0.7518423934	-3.6303773091	-1.7004020576	 0.158956
H	 3.3261461711	-4.6605758776	-1.9422232176	 0.212967
