23
gdb 112790	2.10019	1.18314	0.83714	2.9778	86.71	-0.2405	-0.0199	0.2206	1471.0061	0.204105	-388.298625	-388.288378	-388.287434	-388.334378	37.454	
C	-0.0558132353	 1.6390547085	-0.054701805	-0.38318
C	 0.0608044856	 0.114638855	 0.0508109606	-0.207274
C	-1.2962008816	-0.5795204262	-0.014277975	 0.045231
C	-2.0863286958	-0.628282722	-1.3495104919	-0.252823
C	-2.5822523585	-2.0459836445	-0.9630992567	 0.034029
C	-2.7693305673	-3.1079569087	-2.0385543232	-0.420025
C	-1.3991499413	-2.1486642268	 0.0721935765	-0.147883
C	-0.1891379294	-2.8687912761	-0.4522758825	 0.168414
O	 0.3943672071	-3.7431943157	 0.1401171188	-0.263637
H	 0.9273758775	 2.1166483484	-0.0069146593	 0.11616
H	-0.5251659184	 1.9373628486	-0.9983664931	 0.119516
H	-0.6646011731	 2.0455039302	 0.7607043276	 0.115727
H	 0.710938659	-0.2549644528	-0.7519926921	 0.096369
H	 0.5568416582	-0.1529454294	 0.9928267558	 0.106103
H	-1.9425075159	-0.1692621814	 0.7706477664	 0.08011
H	-2.8388478559	 0.1425499985	-1.533285408	 0.098862
H	-1.410502711	-0.6620199915	-2.212208443	 0.098312
H	-3.5068568064	-1.9554247647	-0.3830621733	 0.084823
H	-1.8853414083	-3.2090134899	-2.67621287	 0.117451
H	-2.9764735513	-4.0888909068	-1.5972681367	 0.12552
H	-3.6134729028	-2.8503644153	-2.6875921247	 0.118617
H	-1.6390795322	-2.5704803523	 1.0506911368	 0.080323
H	 0.162112517	-2.5463307152	-1.459401328	 0.069256
