19
gdb 63321	2.55818	1.51727	1.23686	3.4749	75.11	-0.2349	-0.008	0.2269	1079.8407	0.158516	-423.050876	-423.042464	-423.041519	-423.083402	33.394	
C	 0.0229438984	 1.564673163	-0.0300096368	-0.43752
C	 0.0061992042	 0.0365530343	-0.0014410278	 0.363398
O	-1.3352175935	-0.4443355707	 0.1243543725	-0.472993
C	 0.6883249811	-0.6319162857	-1.219261486	-0.391891
C	 1.212606724	-1.9788584293	-0.692624772	 0.430147
O	 1.3654915421	-2.979306357	-1.34655313	-0.334967
C	 1.43337323	-1.8364380504	 0.778430776	-0.147453
C	 2.2157264638	-0.5946598042	 1.1958116605	-0.311697
C	 0.7256230252	-0.5630798328	 1.2090025337	-0.028138
H	 1.0450313	 1.9545676247	-0.0501230367	 0.118096
H	-0.495148867	 1.9427442049	-0.9196162646	 0.108638
H	-0.4841210022	 1.9622542211	 0.8540450448	 0.125851
H	-1.8449043985	-0.0983331814	-0.6161597046	 0.278034
H	-0.0032584468	-0.7910288773	-2.0492178821	 0.119007
H	 1.5276367939	-0.0392919597	-1.601831481	 0.121537
H	 1.4912612462	-2.7306863082	 1.3848385835	 0.107852
H	 2.721186847	-0.6605698744	 2.1524376691	 0.127586
H	 2.7687726492	-0.0436430989	 0.4423699102	 0.120544
H	 0.1961856228	-0.5145738479	 2.1532219411	 0.103968
