19
gdb 75553	2.48457	1.47381	1.01384	1.4671	84.27	-0.2422	0.0172	0.2594	1202.9717	0.158364	-385.862251	-385.853418	-385.852474	-385.895631	33.733	
C	-0.1139046289	 1.5330393005	 0.023799498	-0.481961
C	 0.0145472571	 0.0379314271	-0.0464294742	 0.29602
C	 0.0352437825	-0.6473823637	-1.1896622735	-0.164842
C	 0.0787371047	-2.150193304	-1.2446964719	-0.257532
C	-0.3372295255	-2.7179302709	 0.1098447644	-0.072284
O	 0.3804577638	-2.0865226561	 1.1577939259	-0.263923
C	 0.0705479446	-0.7062548041	 1.2880388236	-0.114819
C	 1.0593698371	-0.1242689012	 2.1996581937	 0.318299
C	 1.8527101765	 0.3711290285	 2.9529868509	-0.445642
H	 0.7539163812	 1.986294413	 0.5143382531	 0.141685
H	-0.2155125376	 1.9629063753	-0.9759377524	 0.120491
H	-0.9938441158	 1.8281449721	 0.6105382954	 0.123376
H	-0.0036765339	-0.106678008	-2.1328435234	 0.084275
H	-0.5933973559	-2.5228206902	-2.0280707319	 0.102731
H	 1.086073255	-2.5006435693	-1.5077180866	 0.118345
H	-1.4221765208	-2.5849563821	 0.2544600768	 0.089948
H	-0.1113453305	-3.7842688004	 0.1938457694	 0.108164
H	-0.9244330618	-0.6018352088	 1.7656158614	 0.099791
H	 2.5598216583	 0.7996206123	 3.6195858314	 0.197877
