17
gdb 36834	7.07856	0.54208	0.53212	1.9553	80.07	-0.2508	0.024	0.2748	2035.591	0.134017	-421.742171	-421.733053	-421.732109	-421.77862	31.506	
C	-0.0671460805	 1.4910328985	 0.1890952185	-0.385443
C	 0.0160502869	 0.0394419339	 0.3060670842	 0.087493
C	 0.0962337386	-1.1599218091	 0.3813990465	 0.105914
C	 0.2276067416	-2.5876645849	 0.4806891929	-0.115038
C	-0.8724853686	-3.4401364985	 0.9740853809	-0.159588
O	-0.5612610966	-3.3951658524	-0.4116284861	-0.216352
C	 1.1968029975	 2.1108532128	-0.3838461828	 0.109665
C	 1.6053070624	 3.4745085627	-0.030655626	-0.181066
O	 2.2661893405	 2.3369252383	 0.5290753985	-0.224076
H	-0.9154921746	 1.7565445783	-0.4565078099	 0.139146
H	-0.2625346031	 1.9404578456	 1.170313515	 0.138487
H	 1.2449204612	-2.9540276132	 0.6147180838	 0.118936
H	-0.6323682312	-4.3720778391	 1.4846696427	 0.119197
H	-1.81175461	-2.9713588645	 1.2612361816	 0.123057
H	 1.5076777643	 1.7079176367	-1.3480019312	 0.106079
H	 2.1942068077	 4.0636647231	-0.7317772209	 0.118989
H	 1.000408624	 4.0526405116	 0.6672345522	 0.114601
