19
gdb 77874	2.01542	1.63178	1.25119	3.0186	76.31	-0.2281	-0.014	0.2142	1115.8238	0.156881	-423.013868	-423.00436	-423.003416	-423.047762	35.141	
C	-0.617782832	 1.2639665611	-0.2015775106	-0.423301
C	-0.3043020208	-0.2013032938	-0.4427615332	-0.076393
C	 0.5130015756	-0.8168782987	-1.5473536359	-0.162362
C	 1.7434171387	 0.0179844508	-1.9483037297	-0.084938
C	 1.6505034496	 1.3160778793	-2.7417347118	-0.424675
C	 2.1747875828	-0.0272539659	-0.4551224795	 0.311484
O	 3.1542423177	 0.344663615	 0.1272415823	-0.323465
C	 0.9973472472	-0.8999447007	-0.0765814514	 0.262658
O	 1.0508698327	-2.00324587	 0.7476571373	-0.449202
H	-1.3596086736	 1.6334433257	-0.9179597562	 0.123867
H	-1.0348373929	 1.3968023815	 0.8026604326	 0.118941
H	 0.2667245093	 1.9001453529	-0.2692570275	 0.136967
H	-1.132828976	-0.8599401278	-0.1822273376	 0.100446
H	 0.12390504	-1.6408938935	-2.1323938823	 0.104742
H	 2.4599307989	-0.6493169438	-2.4494512379	 0.111917
H	 0.9029248943	 2.002825629	-2.3408653879	 0.122709
H	 2.6188906264	 1.8267495404	-2.7335237028	 0.134407
H	 1.3889855689	 1.1134995951	-3.7854988119	 0.119983
H	 0.825341463	-1.7313261568	 1.643977374	 0.296215
