15
gdb 126894	4.39768	1.08054	0.92744	0.6594	75.04	-0.2615	-0.119	0.1425	1240.1863	0.110919	-450.065541	-450.057198	-450.056254	-450.099738	29.44	
C	 0.048696888	 0.6093369863	 1.0382632769	-0.369269
C	 0.0539375583	 0.2590452958	-0.4551002326	-0.142968
N	 0.5614713142	-1.0898373652	-0.6686358569	-0.281073
C	 1.7763619514	-1.2786064975	-0.9347933607	 0.465632
O	 2.7105376122	-0.2480615739	-0.9587381905	-0.275998
N	 3.9085499505	-0.4016421906	-1.7638769501	 0.07073
N	 4.210265132	-1.5327966313	-2.12836683	-0.099224
C	 3.4143850871	-2.6421087716	-1.7240207563	 0.087095
N	 2.2685427125	-2.5626606777	-1.1811404692	-0.221149
H	-0.5079959787	-0.1402265147	 1.6072846218	 0.132212
H	 1.068835016	 0.652086026	 1.430978836	 0.126607
H	-0.4202376563	 1.5854809309	 1.1945072603	 0.118415
H	-0.9740846815	 0.2735154489	-0.8315562544	 0.112307
H	 0.628767987	 1.0112659275	-1.0094480391	 0.112158
H	 3.8675928674	-3.6038189328	-1.9413007152	 0.164526
