19
gdb 91666	2.518	1.7457	1.37212	1.8125	74.68	-0.2419	0.0683	0.3102	1006.6451	0.159938	-422.977219	-422.969507	-422.968562	-423.009055	31.042	
O	-0.0532939869	 1.4153371116	-0.0398123389	-0.440948
C	-0.0070414574	 0.0028810274	 0.0317236195	 0.129374
C	 0.4863490663	-0.5927019737	 1.3972139361	-0.263398
C	-0.8219598166	-1.317776512	 1.7743764447	-0.018929
O	-1.1777729964	-1.9435883718	 0.4929988297	-0.305333
C	-1.4418723224	-0.568104409	 0.0737540041	-0.039539
C	-1.9021006355	-0.2717704084	 1.4999028466	 0.461883
C	-3.2957700814	-0.2124340027	 2.0231250305	-0.367225
C	-2.3440596271	 0.9607139773	 2.2066730648	-0.343675
H	 0.8488171536	 1.7450448991	-0.0861665163	 0.286602
H	 0.5454411321	-0.4185673609	-0.8171380611	 0.07297
H	 1.3183657154	-1.291416532	 1.2855258876	 0.102592
H	 0.7623067536	 0.197579633	 2.1010998172	 0.099732
H	-0.8389597356	-1.9945729707	 2.629139574	 0.079095
H	-2.0733274324	-0.4663988301	-0.8084344525	 0.080852
H	-4.1092440982	-0.1046967077	 1.3127071989	 0.116251
H	-3.545198185	-0.8081118981	 2.8955444296	 0.113544
H	-1.9574659611	 1.1488329851	 3.20381888	 0.109553
H	-2.5050055049	 1.8558654636	 1.6168614454	 0.126601
