18
gdb 38537	3.22436	1.65278	1.22343	2.2816	79.36	-0.2303	0.0171	0.2474	1018.2044	0.15014	-401.89721	-401.890194	-401.88925	-401.928393	28.449	
C	 0.0325134046	 1.5301554977	 0.1108519914	-0.364265
C	 1.5681864249	 1.4447340714	-0.1178373164	-0.126365
N	 1.8739862805	 0.9072561888	-1.4387565383	-0.362822
C	 1.4688067699	-0.0378976346	-0.3995705277	 0.315976
C	 2.1310243011	-1.3490351635	-0.0949345783	-0.225658
O	 1.2549698728	-2.3781066208	-0.5622610073	-0.257633
C	-0.0234528067	-2.4104478673	 0.0559694692	-0.102247
C	-0.7049277629	-1.0619736943	 0.1693374317	-0.281981
C	 0.0101409965	 0.0173864752	-0.1133340041	 0.311661
H	-0.260159196	 1.8122256165	 1.126504278	 0.12296
H	-0.5038094776	 2.1703201451	-0.5983454509	 0.110024
H	 2.331509249	 2.0123413194	 0.4013756657	 0.106553
H	 1.1389345031	 1.0899514155	-2.1210543336	 0.228254
H	 3.0744245645	-1.482553464	-0.6278685524	 0.124213
H	 2.3115262965	-1.4552984115	 0.9866533981	 0.094026
H	-0.6182171444	-3.0995742385	-0.5551580444	 0.119663
H	 0.0485673723	-2.8623571173	 1.0632782691	 0.095758
H	-1.726320708	-1.0402510479	 0.5392026901	 0.091884
