16
gdb 6872	2.91004	1.68382	1.47596	3.747	66.26	-0.2557	0.0259	0.2816	922.6749	0.129295	-379.915369	-379.906631	-379.905687	-379.948115	31.937	
C	-0.0859911189	 1.5365286711	-0.1238883472	-0.453381
C	 0.0322422714	 0.0279143045	-0.0522166075	 0.227081
N	-1.0632640169	-0.7744391337	-0.5469413106	-0.550092
C	 1.3742758776	-0.6146883416	-0.2192579752	 0.091008
O	 2.4537585293	 0.2210042415	-0.4558350164	-0.409386
C	 0.7131068689	-0.6178537226	 1.1679573032	-0.267244
C	 1.2905666505	 0.1808161076	 2.2047007991	 0.296259
N	 1.7782084765	 0.8136136169	 3.0427384969	-0.348885
H	 0.809804774	 2.0363440641	 0.2465580171	 0.15515
H	-0.2403334159	 1.8455255642	-1.1636363925	 0.118371
H	-0.9443953843	 1.8788167823	 0.4640365396	 0.120101
H	-1.9267315748	-0.509729938	-0.0795151595	 0.234278
H	-1.2017150674	-0.5907235353	-1.5377182969	 0.234863
H	 1.3928077009	-1.5818089711	-0.7191557411	 0.110026
H	 3.1998561811	-0.0694875538	 0.0806351697	 0.303975
H	 0.284622248	-1.559356406	 1.4917504613	 0.137874
