15
gdb 61319	6.30377	0.58472	0.54961	1.2699	84.49	-0.301	-0.0571	0.2439	1859.3592	0.111612	-379.67881	-379.669403	-379.668459	-379.714012	32.37	
C	 0.0506218524	 1.5872204805	-0.0326931027	-0.393546
C	 0.0178049941	 0.0485470856	-0.0350893503	-0.141796
C	-1.4309930401	-0.5218271924	 0.0424175917	-0.376559
C	-2.1042820752	-0.1644692006	 1.2784477064	 0.051443
C	-2.6497964424	 0.1319060023	 2.3147210082	 0.092301
C	-3.2716558482	 0.4654937305	 3.48389736	 0.210069
N	-3.7985948113	 0.7510804842	 4.4787910183	-0.328831
C	 0.6756053835	-0.488355595	-1.230240459	 0.269844
N	 1.1813758151	-0.9096603536	-2.1798905662	-0.30888
H	 1.0802105263	 1.949673708	-0.0660527438	 0.148877
H	-0.4821104475	 1.9880767434	-0.8996004613	 0.142896
H	-0.4238947556	 1.9657216381	 0.8757024678	 0.146322
H	 0.5707576853	-0.3220207653	 0.8358655742	 0.148675
H	-2.009587111	-0.1523448001	-0.8129960597	 0.167688
H	-1.3985084254	-1.6134624356	-0.0495049936	 0.171495
