14
gdb 43564	2.16692	1.59425	1.04151	3.387	74.36	-0.2498	0.0114	0.2612	1112.8704	0.098326	-399.492133	-399.483411	-399.482467	-399.52596	31.841	
O	-0.087905143	 0.0168410855	 0.0631433673	-0.342432
C	-0.0419257747	 1.2117218048	 0.049624822	 0.441572
N	-0.9962752274	 2.1922844928	-0.027866141	-0.317317
C	-0.0895673145	 3.3430943983	 0.0885422876	-0.184287
C	-0.2638369209	 4.1663135898	 1.2702619383	 0.374588
C	-0.4253965818	 4.8669162342	 2.2325723737	-0.442942
C	 1.1009491788	 2.2894222171	 0.0859683417	-0.382429
C	 2.010571617	 2.2564966265	 1.2021417258	 0.361273
C	 2.7684714558	 2.2138760875	 2.1333121931	-0.440438
H	-2.0037142644	 2.145518843	 0.0188313984	 0.262786
H	-0.0857663596	 3.9699309011	-0.8099882204	 0.120278
H	-0.5602596616	 5.4779986791	 3.0909815888	 0.207893
H	 1.63965703	 2.312984865	-0.8661881559	 0.137673
H	 3.4363752564	 2.1728869153	 2.9578795007	 0.203783
