16
gdb 127883	2.57254	1.59935	0.9983	0.624	78.24	-0.2503	-0.0517	0.1986	1149.0625	0.123467	-434.053486	-434.044976	-434.044031	-434.087102	30.465	
C	 0.03567085	 1.3942587867	 0.1188526046	-0.337437
N	-0.0229729521	-0.0541842547	 0.1531783965	-0.295206
C	-1.1388505675	-0.647306308	-0.0183850431	 0.303575
N	-2.3708855547	-0.0136365268	-0.2474610615	-0.331295
C	-3.3814687258	-0.7725431935	-0.3960765392	 0.163056
O	-3.4286553208	-2.1111252595	-0.3629811411	-0.222467
N	-2.2259717869	-2.8313701604	-0.1365204056	-0.158454
C	-1.1627262125	-2.1248104266	 0.0226005017	 0.337716
C	 0.1050569662	-2.8850010293	 0.2612209551	-0.458092
H	 0.7473317537	 1.6956577438	-0.6590544361	 0.129836
H	-0.9270281293	 1.8819711042	-0.0617199915	 0.136976
H	 0.4495680325	 1.7487111573	 1.0704556917	 0.129875
H	-4.3776948461	-0.3724176934	-0.5777867576	 0.151489
H	-0.0919358759	-3.9576861968	 0.26053399	 0.141348
H	 0.8373425479	-2.6334857798	-0.5111179091	 0.154538
H	 0.5439938714	-2.5806964133	 1.2155444352	 0.154542
