14
gdb 132165	3.33021	1.33673	0.95471	1.3098	70.11	-0.2056	-0.02	0.1855	1115.662	0.102009	-477.996356	-477.98899	-477.988046	-478.028046	28.843	
N	 0.0333577718	 1.3557679062	 0.1498652874	-0.5858
C	-0.0046647998	-0.0181346938	 0.0509316948	 0.221238
C	-1.133823209	-0.7558664315	 0.0204871107	-0.053489
O	-1.1315389227	-2.1383688317	-0.0194500399	-0.203803
C	 0.0426996928	-2.7451567208	-0.0230431326	 0.398537
F	-0.1133966448	-4.0508262962	-0.0517953228	-0.042746
C	 1.2410504054	-2.1373747723	-0.0046902643	-0.441646
C	 1.3132560578	-0.6907110624	 0.0163957221	 0.300347
N	 2.3620526302	 0.0570715314	-0.0026405241	-0.569117
H	 0.9532758427	 1.7155085197	-0.0773939851	 0.270816
H	-0.7391551954	 1.8717458749	-0.2399507136	 0.246681
H	-2.1434693277	-0.3740194744	 0.0328584303	 0.128906
H	 2.1388920972	-2.7410577126	-0.0200458208	 0.118027
H	 3.2152581716	-0.5007147264	-0.0346021721	 0.212048
