17
gdb 74194	2.39029	1.61795	1.01942	1.7343	78.22	-0.25	-0.0423	0.2076	1146.0157	0.13776	-418.05669	-418.048621	-418.047677	-418.089431	30.304	
C	 0.0125833201	 1.5262767648	 0.0183919709	-0.478173
C	-0.0198299061	 0.0259121471	-0.0071031153	 0.285083
C	 0.0415127993	-0.6598133412	-1.1577672845	-0.219965
C	 0.0475272893	-2.1209708751	-1.3310048254	 0.379304
O	 0.4684787711	-2.6547853179	-2.339884518	-0.36189
N	-0.5095128453	-2.9289823278	-0.325438832	-0.347576
C	-1.3310827047	-2.5670445939	 0.742189535	 0.083949
N	-1.2513036497	-1.5525845801	 1.4959610386	-0.216632
C	-0.0933347254	-0.6723094819	 1.3357158797	-0.268367
H	 0.8575897324	 1.8851843237	 0.6195716226	 0.138547
H	 0.0923621783	 1.9538662061	-0.9834175054	 0.131799
H	-0.8946712247	 1.9171459822	 0.4958110499	 0.14544
H	 0.1602928132	-0.1361060056	-2.1009341585	 0.11243
H	-0.5941651026	-3.8842579019	-0.6501617237	 0.254711
H	-2.125096825	-3.2920147148	 0.9291329934	 0.123993
H	 0.8293474375	-1.255683706	 1.4835854785	 0.125468
H	-0.1331567675	 0.0731798824	 2.133892134	 0.111881
