20
gdb 86804	4.90014	0.69867	0.68049	2.7952	78.32	-0.2419	0.0353	0.2772	1699.2822	0.169578	-440.309342	-440.299295	-440.298351	-440.346408	35.787	
C	 0.5600535349	 1.4674899645	-0.1847463052	-0.484792
C	 0.2929173762	-0.0296809707	-0.23336884	 0.406638
O	 1.1171391718	-0.817513774	-0.6611952841	-0.373504
N	-0.9348819378	-0.4159215094	 0.232540405	-0.324327
C	-1.3743199248	-1.7866402479	 0.2565515613	 0.069631
C	-1.9523314618	-2.3643401349	 1.5771590277	-0.26707
C	-2.9816496269	-3.1423245852	 0.7323581482	 0.145616
O	-4.2693703535	-3.1728622368	 1.3014963229	-0.430722
C	-2.7071673196	-2.1659300404	-0.4476041526	-0.290767
H	 1.4872183905	 1.6393995343	 0.367567439	 0.15299
H	 0.7168148316	 1.8294928308	-1.2046641719	 0.15219
H	-0.2440648189	 2.0466398389	 0.2771159736	 0.108546
H	-1.5696700107	 0.2903673138	 0.5681275467	 0.238969
H	-0.5369211019	-2.3769497771	-0.1163300493	 0.12514
H	-1.2857099963	-2.9190654892	 2.2400625419	 0.109176
H	-2.4738205805	-1.5916416476	 2.1520032811	 0.105155
H	-2.6229875589	-4.1546068616	 0.4998647166	 0.073017
H	-4.8436021273	-3.6877104243	 0.7256851523	 0.28312
H	-3.4242267233	-1.33911653	-0.4072399454	 0.098171
H	-2.659047643	-2.5583659934	-1.4660521678	 0.102823
