18
gdb 12246	3.30253	1.52421	1.16288	4.1357	68.03	-0.2676	0.0135	0.2812	1068.2517	0.153005	-384.981696	-384.973174	-384.97223	-385.014918	30.598	
C	 0.2340803094	 1.5697898646	 0.0377957703	-0.386712
C	 0.0885574911	 0.0444782182	 0.0379187908	-0.191426
C	 0.4658284065	-0.5701713579	-1.2954313023	 0.139221
O	 1.9011754154	-0.3874019567	-1.5911369235	-0.259704
C	 2.1137094871	-1.7400978032	-1.6581756471	 0.452612
O	 3.1439137761	-2.3067053444	-1.837803422	-0.327433
C	 0.6455464063	-2.1065305804	-1.4235167352	-0.215792
C	 0.3349914047	-3.0476770186	-0.2657694858	-0.412587
H	 1.26373709	 1.8573345386	-0.1921261801	 0.142847
H	-0.4192928791	 2.0304840407	-0.7110770383	 0.117426
H	-0.0277721217	 1.9878853668	 1.0137501909	 0.118199
H	 0.7142953999	-0.3880699403	 0.8262459744	 0.10995
H	-0.9475663688	-0.2390465479	 0.2632024062	 0.105894
H	-0.116962015	-0.1246948688	-2.1082037433	 0.092559
H	 0.2010422902	-2.4889712667	-2.3478016839	 0.114811
H	 0.7818174921	-2.7087740752	 0.672328818	 0.131622
H	-0.744584846	-3.1444766018	-0.1162340965	 0.125539
H	 0.7363179618	-4.041315777	-0.4838946227	 0.142972
