23
gdb 96361	2.24794	1.64814	1.27129	1.1993	84.88	-0.2388	0.0806	0.3194	1134.2252	0.207172	-388.294839	-388.28621	-388.285266	-388.327443	34.856	
C	-0.0894869059	 1.5839222169	 0.0456012831	-0.396577
C	 0.005100439	 0.0510011985	-0.0008270182	-0.035123
C	 0.7429557318	-0.4642653031	-1.2565649123	-0.217486
C	 2.254075246	-0.200370164	-1.1673708536	-0.201424
C	 2.8003870397	-0.7171461611	 0.1646864273	-0.076302
O	 2.0863876655	-0.1706297681	 1.269180574	-0.299733
C	 0.7182514279	-0.4958651268	 1.2285128219	 0.471108
C	 0.0555749608	-0.5350317057	 2.5658726528	-0.337039
C	 0.3241804206	-1.8301459423	 1.8188943883	-0.337366
H	 0.8987661559	 2.0399058208	 0.1486655943	 0.12766
H	-0.5550418983	 1.9757989035	-0.8647375367	 0.104225
H	-0.6908016811	 1.9105432436	 0.8996906688	 0.113209
H	-1.0139970327	-0.3552878741	-0.0093372628	 0.063676
H	 0.5766842552	-1.5459017	-1.3423743221	 0.093796
H	 0.3233190531	-0.0064437503	-2.1593563868	 0.089693
H	 2.7806647131	-0.6894119743	-1.9950894659	 0.092409
H	 2.4607650613	 0.8728243711	-1.2470440742	 0.105593
H	 2.7433354027	-1.8179042589	 0.192731448	 0.084578
H	 3.8455231149	-0.4286950847	 0.309715788	 0.101033
H	 0.679729706	-0.3191650158	 3.4253045425	 0.121777
H	-0.968086986	-0.1841007916	 2.6434011077	 0.109167
H	-0.5169068643	-2.3664155666	 1.3919125834	 0.107702
H	 1.1221971948	-2.4591456173	 2.1971407424	 0.115426
