14
gdb 19463	5.30569	1.52122	1.49725	2.7196	61.9	-0.2422	-0.0437	0.1984	850.3597	0.107117	-382.48936	-382.483051	-382.482107	-382.520033	24.154	
O	-0.0136308316	-0.0575722942	-0.1800560082	-0.256985
C	 0.0255842611	 1.1248027369	 0.0559269196	 0.143706
C	 1.3009799573	 1.9288363211	 0.0375151509	-0.079978
C	 1.1818258341	 3.3360610397	-0.6535218601	-0.002734
O	 0.4745216234	 3.8009064981	 0.5425061906	-0.280767
C	 1.4519923202	 2.948829157	 1.2245245356	-0.002643
C	 2.7822701646	 3.6382704653	 0.8642474222	-0.075786
C	 2.5959250758	 3.9054942036	-0.4286550103	-0.075595
H	-0.8877310523	 1.7031855827	 0.30537968	 0.098717
H	 2.154815317	 1.2988691953	-0.2151807541	 0.096496
H	 0.655031524	 3.5054420125	-1.5913029043	 0.095693
H	 1.2092190826	 2.7114080756	 2.2590988659	 0.09576
H	 3.6144873911	 3.8328055928	 1.5234426657	 0.12205
H	 3.2278006128	 4.3872807337	-1.1591291336	 0.122067
