15
gdb 77130	2.90571	1.28244	1.10633	5.0094	62.52	-0.272	-0.0607	0.2113	1117.3745	0.11041	-494.932869	-494.924242	-494.923298	-494.967236	30.579	
C	-0.0192027554	 1.4780782831	-0.5849950922	-0.493165
C	-0.2095594971	 0.4139266183	 0.4624471001	 0.429193
O	 0.587125475	 0.2091880837	 1.3547572934	-0.323633
C	-1.4711104804	-0.445781204	 0.3832480496	-0.04732
O	-1.1090088408	-1.8245679089	 0.0766480629	-0.245616
C	-1.3942383292	-2.2663516913	 1.3598246398	 0.407192
O	-1.1793368708	-3.3364499939	 1.8174191151	-0.304111
C	-2.0082232712	-0.9115810253	 1.7852726728	-0.036728
O	-1.6204172596	-0.2953562651	 2.9557418113	-0.408317
H	 0.911335506	 2.0193249224	-0.4135773437	 0.156011
H	-0.0103219804	 1.019967044	-1.5811121383	 0.161105
H	-0.8663036132	 2.1744367529	-0.5670925934	 0.153458
H	-2.2039925061	-0.0751662909	-0.3360581767	 0.101188
H	-3.1005611337	-0.9728777628	 1.7820038162	 0.140448
H	-0.654020603	-0.2257562222	 2.9333421931	 0.310293
