19
gdb 112239	1.95821	1.41857	0.9104	2.6434	77.33	-0.2465	-0.037	0.2095	1303.7804	0.156276	-423.046657	-423.037109	-423.036165	-423.082067	34.008	
C	-0.1047145258	 1.5927406178	-0.1339836123	-0.387432
C	-0.2713629143	 0.0738731083	-0.2407895631	-0.179665
C	 0.7212319142	-0.5495235877	-1.2242741286	-0.01478
C	 2.2007549661	-0.58929883	-0.7079311314	-0.352797
C	 2.1007638201	-2.1139024454	-0.6118665877	 0.382397
O	 2.7693832241	-2.975994695	-0.1249743487	-0.284637
C	 0.7317053451	-2.1126066787	-1.3410790163	-0.233346
C	-0.3433136954	-3.0179687286	-0.7971344637	 0.144071
O	-1.4724744162	-2.6923734016	-0.5328177896	-0.242798
H	 0.9000213284	 1.8707337237	 0.2032508056	 0.114643
H	-0.272492755	 2.0770517453	-1.1026060283	 0.115795
H	-0.8203674964	 2.0155917815	 0.5771685841	 0.119656
H	-0.1426886987	-0.383841098	 0.7490043985	 0.096583
H	-1.2891057608	-0.1740446496	-0.5513872343	 0.129369
H	 0.6217517013	-0.0637129599	-2.1983900056	 0.080828
H	 2.9545205589	-0.2750836175	-1.4367515432	 0.135832
H	 2.4047011627	-0.0816734504	 0.239397973	 0.136918
H	 0.9184379569	-2.4455351796	-2.3731461756	 0.136117
H	 0.0055618249	-4.0643279046	-0.651875613	 0.103246
