16
gdb 2283	6.9546	1.43751	1.40762	3.6685	62.99	-0.2488	0.0311	0.2799	898.4806	0.13786	-325.794522	-325.78744	-325.786496	-325.826354	25.411	
O	 0.1901148224	-0.3604736652	 0.4429671086	-0.321137
C	-0.0106103693	 0.8127511417	 0.212363659	 0.150902
N	 0.9413640528	 1.7257563805	-0.1271333555	-0.290593
C	 2.3425745988	 1.4141786617	-0.2603248154	 0.087125
C	 3.0847908906	 1.7878260311	-1.572611919	-0.236767
C	 4.326685291	 2.1362494572	-0.7067283635	-0.210374
C	 3.3875668596	 2.2528264121	 0.5253126121	-0.236778
H	-1.0185575737	 1.2722471849	 0.2559355299	 0.071046
H	 0.6433307246	 2.6746917413	-0.2941403204	 0.24146
H	 2.4396816037	 0.3505742565	-0.0386002293	 0.126581
H	 3.1779830322	 1.0166716629	-2.3404580883	 0.108243
H	 2.6516816392	 2.6851611934	-2.0278925705	 0.094105
H	 5.009351901	 1.2873148854	-0.6170843299	 0.111696
H	 4.9039485292	 3.0193474769	-0.9857716651	 0.10215
H	 3.040493852	 3.2822875471	 0.6661151508	 0.094102
H	 3.7303825259	 1.8650557924	 1.4871153065	 0.108239
