20
gdb 81821	2.10815	1.64195	1.14925	4.2164	83.15	-0.2686	0.0297	0.2982	1154.4316	0.170486	-366.012742	-366.003649	-366.002705	-366.046226	34.378	
C	-0.170218516	 1.5880486422	-0.1045266887	-0.413402
C	 0.0420240831	 0.0813749637	-0.0821350104	 0.011397
C	 0.7521402227	-0.6009967	-1.2583526918	-0.108226
C	 2.2019855173	-0.1983880712	-1.3284507308	-0.341228
C	 1.7880046363	-1.240217165	-0.3286241507	 0.364198
C	 2.3496029933	-2.6309404224	-0.2777817215	-0.502394
C	 1.1294678415	-0.5469505756	 0.8877207428	-0.247266
C	 1.9635256541	 0.3584436823	 1.6654708617	 0.286168
N	 2.6276563069	 1.094328863	 2.2619407811	-0.345423
H	 0.7595902687	 2.1319242444	-0.2920212426	 0.133269
H	-0.8821782328	 1.8557164097	-0.892432473	 0.118694
H	-0.5736636164	 1.9435457021	 0.8490833362	 0.127395
H	-0.9094056671	-0.4173360974	 0.1234578059	 0.086745
H	 0.2460486441	-1.0479026905	-2.1062720775	 0.090175
H	 2.7431562998	-0.5883623018	-2.1847587652	 0.116864
H	 2.5352406624	 0.7856557101	-1.0102178445	 0.127759
H	 2.5789837756	-2.9948789127	-1.2843119824	 0.124592
H	 3.2779957252	-2.6621911	 0.3046729111	 0.134332
H	 1.644413332	-3.3340732235	 0.1803942569	 0.118267
H	 0.6708199093	-1.2701996274	 1.5670607334	 0.118086
