21
gdb 103473	2.38549	1.46763	1.11573	0.683	78.78	-0.2217	0.0648	0.2865	1193.4611	0.180299	-424.182897	-424.17325	-424.172306	-424.216868	36.577	
C	 0.0386868077	 1.4955500968	-0.2574493709	-0.400709
C	 0.0170270032	 0.0121904302	 0.134529042	-0.242262
C	-1.3727035645	-0.5892265763	 0.073065757	 0.318732
O	-2.3448924572	 0.0829203357	 0.8403032427	-0.473122
C	-1.9462579517	-1.2262802438	-1.1703476766	-0.023055
O	-0.9306169053	-1.8749546379	-1.9387310707	-0.289129
C	-0.6771073614	-2.7936202131	-0.8399587876	-0.142817
C	-1.6825715179	-2.0818041745	 0.0625725147	 0.204318
C	-2.5761956639	-2.7656339444	 1.0551155301	-0.498607
H	 1.0581513312	 1.8908483604	-0.2319167934	 0.118039
H	-0.3485940158	 1.6422452917	-1.2719421389	 0.120996
H	-0.5606856874	 2.1008949873	 0.4311416868	 0.111828
H	 0.6734628853	-0.5434236969	-0.5400034748	 0.11912
H	 0.4122875936	-0.1070805752	 1.150884222	 0.099583
H	-2.5277208008	 0.9251063561	 0.4104583068	 0.287975
H	-2.8554156647	-0.9079703152	-1.6711063179	 0.099072
H	-0.9973340205	-3.8072911146	-1.1102187952	 0.108213
H	 0.3773783548	-2.811474687	-0.540275059	 0.103238
H	-1.9945019649	-3.1647686195	 1.8952134262	 0.118189
H	-3.3076642543	-2.0645274505	 1.4601394861	 0.145212
H	-3.1114839955	-3.6033687192	 0.5943513806	 0.115188
