19
gdb 107119	3.48884	1.11419	1.07308	1.855	75.44	-0.2293	0.0626	0.2918	1216.8194	0.157418	-422.949542	-422.940834	-422.93989	-422.982768	33.536	
C	-0.1459829718	 1.5153762985	-0.0031966363	-0.503785
C	 0.1265883907	 0.0493217586	 0.0220152281	 0.42248
O	-0.7498714105	-0.8127514042	 0.768176713	-0.283141
C	 0.6637711111	-0.8683580445	 1.0237627423	-0.119435
C	 1.3678497897	-1.7259548853	-0.0791509533	 0.295426
C	 2.7638499408	-2.2449119698	 0.0654599456	-0.167841
O	 2.8512127328	-3.3278103981	 0.9839790864	-0.414708
C	 0.3596648256	-2.2348567321	-1.0822784021	-0.34432
C	 0.782176659	-0.7895527572	-1.1307097727	-0.20639
H	 0.7408596965	 2.0672956084	-0.3318056388	 0.126862
H	-0.9616648567	 1.747257362	-0.6977065768	 0.132625
H	-0.4304059484	 1.8669779596	 0.9919207067	 0.13646
H	 0.998591457	-0.7267262426	 2.0449150017	 0.107383
H	 3.1574064183	-2.5203640756	-0.9266079288	 0.086817
H	 3.4260176042	-1.4706955317	 0.4712131834	 0.107586
H	 2.2059007587	-3.9872970485	 0.707490376	 0.28256
H	 0.7781642362	-2.8516264278	-1.8727235322	 0.109166
H	-0.643271875	-2.4953142922	-0.7692519861	 0.137806
H	 1.2877815018	-0.3476584177	-1.9800781961	 0.094449
