20
gdb 67957	2.26608	1.78816	1.305	3.7104	78.55	-0.2376	0.0151	0.2526	1058.2501	0.172416	-403.189654	-403.181522	-403.180577	-403.222192	31.867	
C	-0.0621491095	 1.622640115	 0.0400402681	-0.453633
C	-0.0231231375	 0.1026162023	-0.0187399197	 0.356498
C	-1.3345608735	-0.6238657733	 0.4126282487	-0.447032
C	-0.4537178643	-1.3302939481	 1.4593048823	 0.405676
O	-0.5766371246	-2.2574357705	 2.2117262662	-0.350383
N	 0.6623897907	-0.5415475129	 1.1490155142	-0.120533
C	 1.9394612163	-1.1350406848	 0.7649502543	-0.196163
C	 1.7098549518	-1.5246388659	-0.7162914481	-0.217301
C	 0.7361972242	-0.4476449862	-1.2586382407	-0.280108
H	 0.9480455947	 2.0433602299	-0.0028458304	 0.118961
H	-0.6286262366	 2.0248338706	-0.8072997945	 0.120138
H	-0.5347927388	 1.9676752318	 0.9642523405	 0.122876
H	-2.128906162	 0.0153456786	 0.8047468475	 0.126601
H	-1.7590107917	-1.3167780056	-0.3178376462	 0.129517
H	 2.7452524958	-0.400798373	 0.8740521457	 0.109536
H	 2.1592258156	-1.9876339877	 1.4108008427	 0.137105
H	 2.6371724747	-1.578880956	-1.2923671777	 0.104284
H	 1.2427427499	-2.5144365441	-0.7536138754	 0.118975
H	 0.0575899634	-0.8483415837	-2.0161799041	 0.109503
H	 1.2952027412	 0.3666536339	-1.7308720136	 0.105485
