20
gdb 75561	2.71444	1.41944	0.99748	3.5445	84.89	-0.213	0.0024	0.2155	1212.9712	0.172669	-403.199851	-403.191298	-403.190354	-403.233091	32.621	
C	-0.1677273066	 1.5416980093	-0.0386480739	-0.458991
C	-0.0316393339	 0.042758185	-0.0394755594	 0.344492
C	-0.0258415812	-0.6704198608	-1.17577519	-0.148985
C	 0.1223588933	-2.1636375039	-1.2666669303	-0.259894
C	 0.4805508257	-2.7728675911	 0.094648005	-0.207908
C	-0.3074341063	-2.0576221088	 1.1927745551	-0.181639
N	 0.0226462928	-0.6313458663	 1.2123233658	-0.121424
C	 0.42605312	-0.0592468151	 2.3945702994	 0.141857
O	 0.8067960758	 1.0770061965	 2.5691156172	-0.334812
H	 0.7236715036	 2.031653883	 0.3546643067	 0.159323
H	-0.3491924965	 1.8828399079	-1.0606049786	 0.110962
H	-1.0018019388	 1.864073773	 0.5929351326	 0.130319
H	-0.1386806394	-0.1248783365	-2.1070354069	 0.086696
H	-0.8105750614	-2.6063012925	-1.6458041042	 0.10896
H	 0.8883788747	-2.420147548	-2.0092987115	 0.110353
H	 0.2642483333	-3.8454955527	 0.1166962051	 0.102331
H	 1.5509514412	-2.6503763733	 0.294365167	 0.113456
H	-1.3846276413	-2.1760145808	 1.0134629998	 0.114762
H	-0.0855082592	-2.4752811469	 2.177765306	 0.115344
H	 0.3597733141	-0.791838268	 3.2231242949	 0.074801
