15
gdb 15733	3.19861	1.64506	1.26505	2.9568	67.75	-0.2471	-0.0031	0.2441	968.2591	0.117079	-362.622453	-362.614242	-362.613298	-362.655804	29.044	
O	-0.601002584	-0.0665232775	 1.1669786919	-0.324848
C	-0.2261311111	 1.0400895321	 0.8619145709	 0.359537
C	 1.2406263898	 1.487979358	 1.0034140193	-0.409699
C	 1.9613862153	 1.3604340775	-0.2579595206	 0.306335
C	 2.5413137805	 1.244925928	-1.3046060273	-0.464528
N	-1.0847863094	 2.0462096927	 0.4429778831	-0.073302
C	-1.0578338283	 2.7288243944	-0.8400211265	-0.233498
C	-2.1940303669	 1.8256754711	-0.4516320955	-0.219327
H	 1.275078044	 2.5249910804	 1.3548048872	 0.146964
H	 1.6971322009	 0.8498105132	 1.7655299438	 0.158497
H	 3.0688127442	 1.1380602394	-2.2200292689	 0.20392
H	-1.1859926258	 3.8072234059	-0.804422717	 0.128754
H	-0.3556609591	 2.369018376	-1.5856887431	 0.149109
H	-2.2571945932	 0.8494198269	-0.9242363388	 0.142141
H	-3.1427908668	 2.257188932	-0.1467099685	 0.129944
