21
gdb 119107	1.89313	1.06159	0.74451	0.8584	89.81	-0.2257	0.0608	0.2865	1624.8226	0.179581	-387.043216	-387.032331	-387.031387	-387.081241	37.59	
C	-0.0714587484	 1.4085443282	 0.2996968352	-0.221435
O	-0.0844474562	 0.0086001121	 0.4313982222	-0.229105
C	-1.1933295567	-0.5886945639	-0.2029409902	-0.123352
C	-1.0752754816	-2.0959253592	-0.1009341162	 0.15015
C	-1.4773986885	-2.7337620097	 1.2197824418	-0.280235
C	-2.3742362219	-2.8825151879	 0.0265188446	-0.30619
C	 0.005040823	-2.6888786369	-0.8461245507	 0.01375
C	 0.9038336858	-3.1794695605	-1.4811276899	 0.08087
C	 1.9973206208	-3.7681715543	-2.2409379405	-0.500298
H	 0.8193205167	 1.7775132696	 0.8138911303	 0.126848
H	-0.027618331	 1.7210412091	-0.7560527405	 0.103421
H	-0.9615028338	 1.8730917154	 0.7551098502	 0.099046
H	-2.1325670584	-0.2586505515	 0.2744321374	 0.075754
H	-1.2384205593	-0.2860421379	-1.2623021171	 0.091021
H	-0.9085996816	-3.5957434647	 1.5457374352	 0.12501
H	-1.7790475449	-2.0615115525	 2.015369889	 0.120481
H	-3.3022035974	-2.3209947508	 0.0015796813	 0.11427
H	-2.4141451503	-3.8436046281	-0.471306426	 0.124565
H	 2.5177911331	-4.5381108927	-1.6600807104	 0.145171
H	 1.641844768	-4.2357893429	-3.166303153	 0.142629
H	 2.7383697826	-3.0098872313	-2.5177858328	 0.147627
