15
gdb 49415	3.31575	1.79366	1.52346	3.8626	67.33	-0.2352	-0.0358	0.1994	868.4147	0.11346	-416.748786	-416.742185	-416.741241	-416.779871	25.718	
O	-0.1197531594	-0.078705623	-0.0078422399	-0.244745
C	-0.0296087028	 1.1211215149	 0.0082972197	 0.160051
C	 1.2495364767	 1.9166220404	 0.0834080528	-0.06556
C	 1.5115395076	 2.9027609793	 1.2158921956	-0.137286
C	 2.1822440519	 2.1883479336	 2.4181124063	-0.004399
N	 2.0209468706	 0.7542098719	 2.5835545181	-0.196752
C	 2.2709315828	 0.270444068	 1.4331486336	 0.02915
N	 2.5894541704	 1.2222419327	 0.3803656244	-0.190368
C	 2.9544091278	 2.4593486204	 1.1793070131	-0.036053
H	-0.9312618141	 1.7738534631	-0.070116422	 0.085856
H	 1.3507340939	 2.4340990517	-0.8801531634	 0.125981
H	 1.0999581223	 3.8986128309	 1.3189572523	 0.107837
H	 2.3033668234	 2.7860654819	 3.3121208748	 0.111133
H	 2.1853956088	-0.7780290973	 1.1801592357	 0.145723
H	 3.8895851902	 2.9823648114	 1.0249782689	 0.109434
