16
gdb 23891	3.0675	1.47323	1.25823	2.6062	53.97	-0.2322	0.0767	0.3089	1001.2531	0.125968	-511.426416	-511.417621	-511.416677	-511.460099	31.147	
C	-0.0785408949	 1.468743404	-0.0099673618	-0.319496
N	 0.1091236451	 0.0253486226	-0.0066322065	-0.283813
C	 0.7010544676	-0.5249920118	 1.2037878373	-0.098637
C	-0.2158239538	-0.5651470017	 2.4376778207	-0.414182
C	 1.211093196	-1.9275811201	 0.8690524718	 0.294177
F	 2.1446138512	-1.9124302854	-0.0838261938	-0.067558
F	 1.7479417299	-2.522141389	 1.9489661645	-0.086316
F	 0.2036792281	-2.7134169624	 0.4403467772	-0.096279
H	 0.896920528	 1.9620291038	 0.0659302044	 0.127321
H	-0.5246401884	 1.7668851841	-0.9629003937	 0.127092
H	-0.7170943842	 1.8626267677	 0.7989404754	 0.09999
H	-0.7634500154	-0.4511868198	-0.2064054007	 0.223453
H	 1.5959493515	 0.066498806	 1.4315578274	 0.107557
H	 0.3118644234	-0.9454432232	 3.315584976	 0.134708
H	-0.5815945176	 0.4385317014	 2.6669677977	 0.124609
H	-1.0781970564	-1.2127038263	 2.2497732543	 0.127374
