13
gdb 49126	2.74062	1.37101	0.91385	3.0755	71.04	-0.2655	-0.1152	0.1503	1156.914	0.08996	-452.807227	-452.799621	-452.798676	-452.839742	27.509	
N	 0.1563501637	 1.3616046473	-0.477233289	-0.516274
C	 0.1360652316	 0.1127109789	-0.235671815	 0.338718
N	 1.168858538	-0.8176975722	-0.1666010894	-0.415286
C	 0.6997394244	-2.1027148605	 0.1293417312	 0.444437
O	 1.3755486875	-3.094187433	 0.2479549229	-0.339694
C	-0.7818680164	-1.945134702	 0.2558336126	-0.328314
C	-1.1055859715	-0.6592602991	 0.0435212988	 0.196275
C	-2.4566636958	-0.0508583062	 0.069708541	 0.088476
O	-3.4562726661	-0.690642437	 0.2980183044	-0.253893
H	 1.1017225495	 1.7103177039	-0.6440686101	 0.228583
H	 2.1459972596	-0.6173848084	-0.3083572367	 0.268711
H	-1.4471746438	-2.7650868147	 0.4833642783	 0.166373
H	-2.4815560007	 1.034789013	-0.135769789	 0.121887
