18
gdb 34071	3.7965	1.38307	1.38302	4.408	78.44	-0.2855	0.0406	0.3261	991.0788	0.151631	-364.846851	-364.840198	-364.839254	-364.877648	27.782	
N	 0.0270855573	-1.0963242016	-0.011963098	-0.346795
C	 0.0168688522	 0.059822517	-0.0008003707	 0.174038
C	 0.0035836231	 1.5074111702	 0.0133646288	 0.147695
C	-0.6866538167	 2.1844425441	 1.2342432664	-0.246583
C	-0.4466916393	 3.6234383678	 0.7974702035	-0.066638
C	 0.8592129009	 3.6435899474	 0.0248784802	-0.067074
C	 1.390303653	 2.2163132765	 0.0054049256	-0.246395
C	-0.4629683552	 3.6381354721	-0.7196953948	-0.066888
C	-0.7123367938	 2.2078745949	-1.1792480516	-0.246406
H	-1.7453832634	 1.9185883522	 1.30395416	 0.114693
H	-0.1955466141	 1.9251945653	 2.1765340251	 0.114716
H	-0.7803122635	 4.4685717473	 1.3840731254	 0.092314
H	 1.5146922315	 4.503819843	 0.026177198	 0.092324
H	 1.9856296735	 1.9584695847	 0.8860055421	 0.11466
H	 1.9666779626	 1.9756597416	-0.8925072054	 0.114661
H	-0.8090043	 4.494395059	-1.2824814883	 0.092293
H	-0.2412965698	 1.967074478	-2.1365728014	 0.1147
H	-1.7723095284	 1.9430706806	-1.231630925	 0.114685
