21
gdb 113005	2.09569	1.33832	1.12091	3.3158	78.92	-0.2421	-0.0307	0.2115	1245.5954	0.180221	-424.222845	-424.212926	-424.211982	-424.25813	35.627	
C	 0.5450370405	 1.4266957326	 0.1226853794	-0.386193
C	 0.3664659814	-0.0948215411	 0.1010736434	-0.189725
C	 0.5033875669	-0.651719858	-1.3073877999	 0.143682
O	 1.8528104192	-0.4831755587	-1.8234559323	-0.285478
C	 2.0790927819	-1.8889013701	-1.8774207075	 0.032455
C	 3.0990451257	-2.3949541878	-0.877842869	 0.141422
O	 3.5312124484	-1.7647015019	 0.0513335856	-0.23792
C	 0.5866803443	-2.1929260883	-1.514363779	-0.081996
C	 0.2437616085	-3.1471655196	-0.3784504365	-0.426008
H	 1.5238783201	 1.6967629542	-0.2829604481	 0.142987
H	-0.2219228744	 1.9270578167	-0.4793118143	 0.109142
H	 0.4788797376	 1.8167088838	 1.1423546126	 0.112371
H	 1.1199157221	-0.5596069518	 0.7446938878	 0.121813
H	-0.6214128926	-0.3694564336	 0.493882478	 0.09045
H	-0.2168450871	-0.1577390104	-1.973734899	 0.074469
H	 2.3863898217	-2.2276835237	-2.8780944725	 0.088915
H	 3.4157839822	-3.4491333176	-1.064414012	 0.072225
H	 0.0415493351	-2.487894661	-2.4143352802	 0.092048
H	 0.7897487891	-2.9166759825	 0.539972209	 0.139615
H	-0.8265374855	-3.1015370053	-0.1520973408	 0.125199
H	 0.4732418048	-4.1815996357	-0.6553560348	 0.120526
