18
gdb 70465	3.50806	0.99918	0.89674	4.3599	76.16	-0.2601	0.0361	0.2961	1306.9256	0.147165	-401.931265	-401.922577	-401.921633	-401.964997	32.516	
O	-0.1249962227	 1.4020105724	-0.0717474662	-0.459157
C	-0.0755546224	 0.0214728072	-0.0040074603	 0.378629
C	-0.3888622246	-0.8595351286	-1.1814394207	-0.350119
C	-1.2392949054	-0.9620958059	 0.0641449839	-0.100373
C	-0.4955867438	-1.7938848478	 1.1160456684	-0.248958
C	 0.6566457545	-0.7316865743	 1.1141554476	-0.044254
C	 2.1070922892	-1.1748300485	 0.8645810422	-0.373935
C	 2.6399964105	-1.9874592537	 1.9561726027	 0.262422
N	 3.0380391335	-2.6299475583	 2.8306194197	-0.307751
H	 0.4692678052	 1.7008320961	-0.7679086766	 0.289056
H	-0.8580188224	-0.3288929894	-2.0041835693	 0.118961
H	 0.2535834143	-1.6835066518	-1.4866094051	 0.105352
H	-2.3026151463	-0.7616694733	 0.0448405316	 0.101863
H	-1.0026483161	-1.8627372543	 2.0793666526	 0.119775
H	-0.2107575507	-2.8019761059	 0.7972056749	 0.106403
H	 0.6144664967	-0.137873584	 2.0307482567	 0.106135
H	 2.1787852079	-1.753924207	-0.0631288922	 0.146574
H	 2.7501303624	-0.294949523	 0.7410929002	 0.149378
