21
gdb 105458	2.78727	0.87089	0.72854	5.3548	83.34	-0.2576	0.042	0.2996	1590.1767	0.182326	-383.268597	-383.258658	-383.257714	-383.304201	36.069	
C	-0.6390678137	 1.2779136405	-0.1690193353	-0.385138
C	-0.0418947412	-0.1287412184	-0.0229731636	-0.259565
C	 0.5661974646	-0.6941157907	-1.3010100436	 0.330858
C	 1.7989909696	 0.0546746719	-1.7968194745	-0.249807
C	 2.3769608469	-0.4817800568	-3.1206199211	-0.358138
C	 3.4284022364	 0.382676875	-3.6487448095	 0.259008
N	 4.2601717983	 1.0753535598	-4.0539122057	-0.309505
C	 0.3913254676	-2.1498361906	-1.5506641444	-0.287299
N	-0.3525111461	-1.1609420592	-2.355272764	-0.344892
H	 0.1236893884	 2.0270515213	-0.4000414235	 0.128728
H	-1.3892534882	 1.3110367212	-0.9663043605	 0.121036
H	-1.12705965	 1.5848638746	 0.7606579819	 0.120458
H	 0.7225693146	-0.1226702768	 0.764835649	 0.106295
H	-0.8248821587	-0.8171784614	 0.3191263505	 0.09469
H	 1.5388811835	 1.1086222015	-1.9404959933	 0.127442
H	 2.5724197266	 0.0280856125	-1.0203903605	 0.118814
H	 2.7972709304	-1.4843085804	-2.9883494563	 0.147522
H	 1.5711989591	-0.5661081685	-3.8568196146	 0.178339
H	 1.1287353102	-2.7248555026	-2.1029966067	 0.117263
H	-0.1474227137	-2.7265185745	-0.8032019017	 0.112401
H	-1.3171130245	-1.1012231784	-2.0382875725	 0.23149
