13
gdb 21465	7.78532	1.19465	1.06107	2.8366	62.66	-0.2373	0.0048	0.2421	1034.5556	0.097482	-394.784066	-394.777225	-394.776281	-394.81593	24.367	
N	-0.0111557167	 1.3075974645	 0.2550571186	-0.430167
C	-0.0845309535	 0.0950979259	-0.0744493051	 0.107079
O	-1.0214759376	-0.6975017985	 0.5110173	-0.215077
C	-0.960882927	-2.0404727625	 0.2531950407	 0.252927
C	-2.0482741124	-2.8367170279	-0.0404332788	-0.128255
N	-1.5485660002	-4.0916922737	-0.1570879735	-0.171716
N	-0.2217341785	-4.165155908	 0.0334597829	-0.211921
C	 0.149162763	-2.9131391822	 0.2928749123	-0.095293
H	 0.7170829768	 1.7709486663	-0.2843422701	 0.235527
H	 0.5233603088	-0.4388873374	-0.8144563675	 0.102923
H	-3.0932065777	-2.6040663306	-0.1588781327	 0.14934
H	-2.0573863623	-4.9355840778	-0.3583456697	 0.282348
H	 1.1821469675	-2.682986938	 0.5055368027	 0.122288
