22
gdb 91921	2.32874	1.61903	1.08686	0.6222	82.37	-0.2167	0.0859	0.3026	1194.2336	0.194833	-404.33276	-404.323963	-404.323019	-404.365885	34.388	
C	 0.0818351141	 1.5258418846	 0.0847449618	-0.406725
C	 0.0413879124	 0.0072655209	 0.0203166814	 0.135179
C	 0.5918086204	-0.5387061038	-1.3043166029	-0.162449
N	 0.9314718864	-1.9723010459	-1.2808600476	-0.113953
C	 2.2242735282	-2.3281470275	-0.6915234689	-0.245817
C	 0.9640048504	-2.6533846632	 0.0215867986	-0.01081
C	 0.5923584498	-1.8938133564	 1.2857431801	 0.10127
C	 1.391278985	-2.344545293	 2.5010155573	-0.403172
O	 0.8007928303	-0.5004182572	 1.113071246	-0.268309
H	 1.1163944744	 1.8795006234	 0.0364956644	 0.124983
H	-0.4726703328	 1.9612926021	-0.7523936072	 0.117528
H	-0.3599042771	 1.8834699972	 1.0185653057	 0.122644
H	-1.0016756408	-0.3351193605	 0.1371670233	 0.066217
H	-0.1563406309	-0.3818793821	-2.0912329293	 0.102634
H	 1.4833834343	 0.0323319847	-1.5911806407	 0.100409
H	 2.7835332787	-3.100260168	-1.214041672	 0.107881
H	 2.8265693571	-1.5212081428	-0.2784372334	 0.115539
H	 0.5886765847	-3.6758024026	-0.007755768	 0.086728
H	-0.4822150854	-2.0652613263	 1.4797613729	 0.065548
H	 2.4593990424	-2.1721957219	 2.342747933	 0.125557
H	 1.0768315418	-1.7878924275	 3.3881647823	 0.122565
H	 1.2357527166	-3.4117844644	 2.686230773	 0.116554
