20
gdb 107736	3.24996	1.39882	1.26572	0.9364	85.66	-0.2067	-0.0421	0.1647	1094.7708	0.170735	-365.893292	-365.88527	-365.884326	-365.925829	31.769	
C	 0.0541608502	 1.4881769189	 0.1224164653	-0.376406
C	-0.1180847448	-0.0129876893	-0.1401798665	-0.261151
C	 0.6527977871	-0.4849331516	-1.3445498879	 0.33137
C	 0.1320928263	-0.2950935837	-2.842230907	-0.314602
C	 1.2224358406	-1.3302386553	-3.1412254363	 0.023681
C	 2.4293643893	-0.8036410432	-3.4288428832	-0.109823
C	 3.1823693785	-0.6456541763	-2.1138863034	-0.182154
N	 2.1254652918	-0.8467427055	-1.0788005422	-0.159499
C	 1.217215305	-1.8106205751	-1.671158148	-0.150829
H	 1.1064618418	 1.7266513876	 0.3043266201	 0.128502
H	-0.2841190979	 2.0851786539	-0.7313389481	 0.113328
H	-0.522128256	 1.8022264204	 0.9979294667	 0.111753
H	 0.2139742592	-0.5835909353	 0.7327626439	 0.114009
H	-1.1801228815	-0.2461187727	-0.2933280658	 0.095998
H	-0.9093856321	-0.6381631763	-2.8662562573	 0.108206
H	 0.2206823347	 0.6745880488	-3.3393339976	 0.104251
H	 2.5788384299	-0.0893319567	-4.2338813168	 0.100678
H	 3.9893695421	-1.355537467	-1.8886962635	 0.11725
H	 3.6094852641	 0.3633919608	-2.0703708525	 0.116587
H	 1.0349659918	-2.7993698923	-1.2639593196	 0.088848
