22
gdb 122312	4.9251	0.70645	0.68	1.8381	83.78	-0.249	0.0825	0.3316	1744.522	0.193994	-404.297532	-404.287985	-404.287041	-404.33288	34.79	
C	-0.2929767796	 1.3635305604	 0.0797309149	-0.228082
O	 0.0246104824	 0.0003982917	-0.053463559	-0.229118
C	 0.6012974346	-0.5454663843	 1.1128329569	-0.04883
C	 0.8822159343	-2.0250147866	 0.8659352726	-0.310394
C	 1.5350323387	-2.683750823	 2.0462868807	 0.354544
C	 3.0041490035	-2.5226162731	 2.4903153848	-0.292998
C	 2.9906018208	-4.0094501557	 2.9791950681	-0.235168
C	 1.5263385812	-4.1087827451	 2.5311037373	-0.096556
N	 0.7042942744	-3.0908383096	 3.1802105414	-0.356085
H	 0.600556865	 1.974735227	 0.2871687857	 0.099877
H	-0.7324683617	 1.6928097271	-0.8652162117	 0.125006
H	-1.0198452915	 1.5384157872	 0.8892455506	 0.102862
H	 1.5345295535	-0.0101505944	 1.3639148495	 0.080116
H	-0.0791120112	-0.4322304611	 1.9732404508	 0.097172
H	-0.0629492331	-2.530521111	 0.6448366254	 0.116676
H	 1.5226199238	-2.1195347622	-0.0191466956	 0.102724
H	 3.6921755646	-2.3699338893	 1.6547110013	 0.107779
H	 3.1929174993	-1.7474106196	 3.2410554473	 0.093758
H	 3.6670998536	-4.6413469716	 2.3987867639	 0.108111
H	 3.1727051111	-4.1906531884	 4.0441773596	 0.096749
H	 1.0262447509	-4.9838799967	 2.1302586911	 0.092645
H	 1.0834336656	-2.8004638915	 4.0805205144	 0.219213
