14
gdb 21170	3.33971	1.92191	1.30253	3.2354	59.77	-0.2278	0.0108	0.2386	902.5879	0.108834	-412.021852	-412.014431	-412.013487	-412.053912	26.775	
C	 0.1435224604	 1.1558373067	 0.4810465619	-0.322466
N	-0.0133659114	-0.0127136815	-0.3987627722	-0.405583
C	-1.2277376444	-0.7107634812	-0.2450701508	 0.166282
C	-1.322100177	-2.0174720419	 0.1802028711	 0.381976
O	-0.3838885958	-2.9102910208	 0.5214377133	-0.423779
N	-2.6400390454	-2.2827549216	 0.193089505	-0.240744
N	-3.3543561161	-1.1860112562	-0.2095572828	-0.135834
N	-2.4934310953	-0.2499493936	-0.4679947759	-0.232487
H	 1.1145823907	 1.6201968589	 0.2863301041	 0.117556
H	-0.6450622834	 1.9082042298	 0.3482052547	 0.13253
H	 0.1259306782	 0.8245063605	 1.5233920897	 0.12694
H	 0.112819752	 0.2721936131	-1.3647270657	 0.238704
H	 0.4630893789	-2.4556567369	 0.3959991061	 0.311598
H	-3.1150326315	-3.1350005253	 0.4413759014	 0.285308
