19
gdb 100218	2.35676	1.1812	0.9496	1.3573	83.48	-0.2579	0.0279	0.2858	1312.1816	0.154171	-385.822312	-385.811574	-385.810629	-385.857691	39.499	
C	 0.0166400603	 1.6324873053	 0.0918793514	-0.393518
C	-0.0422879912	 0.1077652713	-0.0037277524	-0.183739
C	 0.6798157157	-0.4679130409	-1.2378996442	 0.141183
O	 2.0394494116	-0.0530120108	-1.1347526122	-0.440633
C	 0.5899663425	-2.0285997053	-1.2616211635	-0.389926
C	 1.1954992205	-2.6703504771	-0.1035585735	 0.333218
C	 1.6900894707	-3.2147044573	 0.8468075025	-0.46194
C	 0.085484596	 0.0316482738	-2.4886005618	 0.326668
C	-0.3727461077	 0.4049873785	-3.5358376957	-0.472697
H	 1.0529609142	 1.9764770823	 0.1193508761	 0.135677
H	-0.4753844269	 2.1033364537	-0.7645278342	 0.122789
H	-0.4850278291	 1.9761598964	 1.0013032303	 0.10903
H	 0.4268797101	-0.3463227834	 0.8746481812	 0.123614
H	-1.0826186529	-0.2349116796	-0.0295841143	 0.100468
H	 2.4769498731	-0.2462861337	-1.9708595745	 0.2852
H	-0.4645378814	-2.3163023727	-1.3480622757	 0.139892
H	 1.0785751494	-2.3809171527	-2.1785241404	 0.12791
H	 2.1307368032	-3.6927469167	 1.686234043	 0.196145
H	-0.7821770179	 0.7527011689	-4.452426682	 0.200657
