17
gdb 78756	2.97019	1.60625	1.23602	1.4218	66.93	-0.2334	0.06	0.2934	1003.1768	0.13611	-458.913432	-458.905887	-458.904943	-458.944987	30.166	
O	-0.1147417651	 1.4012876097	-0.00189141	-0.434304
C	-0.0126076138	-0.0084635931	 0.0284691254	 0.091081
C	-1.4117955142	-0.5997079566	-0.0428153363	-0.153013
C	-1.264297103	-0.8664439934	-1.5439420456	-0.127457
C	 0.2564950936	-0.6420841901	-1.3836235297	 0.026754
O	 0.877693154	-1.9177234155	-1.2787806029	-0.264805
C	-0.0472841627	-2.779021772	-0.6097676424	-0.151992
C	-1.3740800651	-2.0186987662	-0.6040737242	 0.361098
O	-2.5581266811	-2.7470577192	-0.5883681041	-0.471939
H	 0.7763594514	 1.7585122376	-0.079617119	 0.28355
H	 0.6604460654	-0.3466236194	 0.8304723471	 0.064473
H	-2.2819988085	-0.2440563681	 0.4966009214	 0.094236
H	-1.9224501873	-0.6712719267	-2.3784908806	 0.102334
H	 0.8053894035	-0.0275750447	-2.0965643303	 0.084798
H	-0.1569560103	-3.7116677698	-1.1754922424	 0.112748
H	 0.319571	-3.0222796314	 0.3974412009	 0.092993
H	-2.7556161867	-2.9842001111	 0.3239378327	 0.289446
