12
gdb 130110	3.61543	1.78643	1.19788	2.1976	62.09	-0.2221	-0.0497	0.1724	913.3335	0.080568	-461.113512	-461.106869	-461.105925	-461.144428	25.048	
N	 0.0823322321	 1.3859006856	 0.1881098787	-0.594524
C	 0.0221696751	 0.016436771	 0.0267509537	 0.407929
N	-1.0493814856	-0.73880693	-0.042957	-0.280254
N	-0.6817375223	-2.097601251	-0.087806049	-0.349114
C	 0.6175024103	-2.0693913997	-0.0593939083	 0.554602
N	 1.7492359301	-2.8375912687	-0.0814305394	-0.369041
N	 2.8510673542	-2.0407282156	-0.023071776	-0.046855
N	 2.5029549386	-0.813409188	 0.0387159607	-0.134239
N	 1.1311722138	-0.8025179321	 0.0197920117	-0.034393
H	 0.7654836723	 1.8435384349	-0.4028300073	 0.267067
H	-0.8353222942	 1.7978426311	 0.076202882	 0.273018
H	 1.8601666556	-3.8346318675	-0.141787547	 0.305803
