13
gdb 48221	3.08691	0.74973	0.61943	3.3899	84.49	-0.2544	-0.0741	0.1802	1665.367	0.084218	-419.376861	-419.367268	-419.366324	-419.413304	32.048	
O	-0.0417556597	 0.0129515254	-0.3332035534	-0.215071
C	 0.0158011224	 1.1476020736	 0.0424603679	 0.162923
C	 1.3353792005	 1.9622458629	 0.0576779952	-0.369149
C	 1.3793273311	 2.8281617636	-1.2280448133	 0.162941
O	 1.9749236453	 2.4984557876	-2.2121595135	-0.215109
C	 1.4081039589	 2.7965577843	 1.239577599	 0.423806
C	 1.4373356309	 3.5111967338	 2.2163845332	-0.297444
C	 1.4746152673	 4.311562722	 3.3151951465	 0.301775
C	 1.507262363	 5.0222310098	 4.2904872613	-0.539444
H	-0.8698833296	 1.7085715881	 0.4045336981	 0.112008
H	 2.1573017814	 1.243812006	-0.0105137086	 0.15855
H	 0.8073912962	 3.7759425688	-1.1586075949	 0.111988
H	 1.5371979423	 5.646915854	 5.1489829924	 0.202226
