21
gdb 70916	3.43384	1.48154	1.26425	0.2611	88.45	-0.2317	0.0168	0.2485	1078.5157	0.184315	-349.8965	-349.889068	-349.888124	-349.927708	31.492	
C	 0.0728931093	 1.514358502	 0.0326022585	-0.509623
C	 0.0358144149	 0.0089805219	-0.0002489539	 0.296367
C	 0.6333678801	-0.9288868654	-1.1333684018	-0.34295
C	-0.0023559995	-1.8794232369	-0.0804216156	 0.332084
C	 0.6731864986	-0.974196395	 1.0132314965	-0.287341
C	-0.5533292731	-3.2378322114	 0.2131554436	-0.242352
C	-1.7257627534	-3.068032653	 0.8451710123	-0.04542
C	-2.1335745894	-1.5916884571	 1.0019914948	-0.353705
C	-1.2208373386	-0.9391821231	-0.0549978642	-0.003768
H	 1.1035059482	 1.8858818147	 0.0065299814	 0.116307
H	-0.4604487076	 1.9421598226	-0.8234945439	 0.116693
H	-0.3979083792	 1.896655064	 0.9451944591	 0.117242
H	 0.1466408007	-0.8833570295	-2.1122128457	 0.090039
H	 1.7236335638	-0.9278659156	-1.2249244565	 0.085992
H	 1.7661630804	-0.9966417292	 1.0540799654	 0.082337
H	 0.2459565129	-1.005795454	 2.0179316989	 0.08888
H	-0.0605704137	-4.188924352	 0.0494112868	 0.095129
H	-2.3204048223	-3.8726439354	 1.2666584464	 0.091153
H	-3.1981081011	-1.4270265354	 0.8069235383	 0.100217
H	-1.9524251088	-1.2602342452	 2.032389722	 0.112041
H	-1.7495919522	-0.8916431568	-1.0143823522	 0.060676
