15
gdb 68738	2.478	1.67711	1.36204	5.485	70.95	-0.2508	0.0168	0.2676	969.4721	0.113375	-416.753122	-416.74571	-416.744766	-416.784922	28.848	
O	 0.018896265	 1.3563941704	 0.087886318	-0.438212
C	 0.0453020771	-0.0050849549	 0.0207798562	 0.402314
C	-0.2892470873	-0.8274239067	 1.2128079508	-0.369423
C	-1.1788696591	-1.0179064675	-0.0149793478	 0.108781
C	-2.5654056657	-0.7029723083	-0.0151836371	 0.219091
N	-3.6949292516	-0.4468061151	-0.0211332999	-0.352993
C	-0.4413249512	-1.7767863537	-1.0918618585	-0.129251
N	-0.21394233	-0.8457778438	-2.2224005025	-0.333994
C	 0.7075919671	-0.8285716296	-1.0552671297	-0.156638
H	-0.2102630629	 1.6897526304	-0.7895011155	 0.308135
H	 0.3490943765	-1.6446126052	 1.5365744466	 0.125323
H	-0.7581637383	-0.2695381527	 2.0167497245	 0.153681
H	-0.4106357246	-2.8504686675	-1.2285610578	 0.11441
H	 0.2441292543	-1.3728463409	-2.9676280271	 0.236218
H	 1.764670341	-1.0364326749	-1.1671982102	 0.112556
