13
gdb 16297	3.54316	1.81411	1.47952	4.1974	59.62	-0.2793	-0.0118	0.2675	839.2614	0.09516	-398.564045	-398.557165	-398.55622	-398.595191	25.588	
O	 0.0819998935	 1.3856093379	-0.1365413919	-0.419586
C	 0.100583768	 0.004291435	 0.008991272	 0.075334
C	 0.3063951941	-0.615509015	 1.4486429427	-0.291474
C	-1.0727631232	-1.2573584031	 1.3233984791	-0.037132
O	-2.0107044316	-0.2008437192	 1.0851335786	-0.27972
C	-1.2756878098	-0.7120038114	-0.039458997	 0.287766
C	-1.9958203418	-1.2136059856	-1.1659829627	 0.188227
N	-2.5300329823	-1.6177564157	-2.108722051	-0.332029
H	-0.6211677192	 1.7216808029	 0.4341861295	 0.296025
H	 0.80778809	-0.3972692523	-0.7190077033	 0.122318
H	 1.1269313318	-1.3352527276	 1.4787015455	 0.127188
H	 0.4103271301	 0.10327583	 2.2639968756	 0.125131
H	-1.4622224296	-2.1748128459	 1.7467050229	 0.137953
