12
gdb 19638	6.25785	1.77022	1.69841	4.9509	62.33	-0.2462	-0.0099	0.2363	743.5038	0.084475	-340.265514	-340.259869	-340.258925	-340.295198	21.909	
N	 0.0846307975	-1.1231578418	-0.0485108664	-0.344113
C	 0.0297291092	 0.032968536	-0.0366163104	 0.137873
C	-0.0857597502	 1.4481999629	-0.0201980646	 0.306312
C	-0.9435930602	 2.4348234234	 0.8162738648	-0.171967
C	-0.7860740167	 3.4816611317	-0.2937831815	-0.107053
C	 0.2343624261	 3.3693312568	 0.80951004	-0.003141
N	 1.0994441873	 2.3993409723	-0.0030366695	-0.199157
C	 0.0793319592	 2.4802463158	-1.0940193229	-0.102101
H	-1.7441170479	 2.2881532417	 1.5251811928	 0.122766
H	-1.4526127609	 4.2819829732	-0.5775021753	 0.11599
H	 0.6201728132	 4.0687832146	 1.5383957408	 0.12021
H	 0.3319334235	 2.3592876734	-2.1400941277	 0.124381
