16
gdb 29363	3.37356	1.21963	0.90081	4.6392	78.77	-0.2134	-0.0323	0.1811	1235.4188	0.124172	-437.945708	-437.936906	-437.935961	-437.979274	31.825	
C	 0.0327691229	 1.5278518313	 0.038576464	-0.533013
C	 0.020587952	 0.0292543024	 0.0246987812	 0.149442
C	-0.0602017412	-0.810605791	-1.079157787	-0.13228
N	-0.0417995998	-2.0969738271	-0.663933443	-0.304567
C	 0.0514616475	-2.1496411894	 0.715587638	 0.147162
C	 0.0887043155	-3.4103216373	 1.4028056275	 0.067978
O	 0.0417003028	-4.4891071078	 0.8304674202	-0.337889
C	 0.0908749056	-0.8255625823	 1.1526077995	 0.184572
O	 0.181825034	-0.4671175063	 2.4569046628	-0.431213
H	 0.9555352325	 1.9310530922	 0.4757117314	 0.12875
H	-0.0412328691	 1.9268954283	-0.9763872084	 0.135631
H	-0.8079326741	 1.9438112085	 0.609006179	 0.128407
H	-0.1293709976	-0.5566126728	-2.12601691	 0.131991
H	-0.0860486311	-2.9338459791	-1.221405248	 0.278792
H	 0.1638427398	-3.3392277302	 2.5060878899	 0.082365
H	 0.1931492605	 0.4935946005	 2.5166231528	 0.303872
