20
gdb 78752	2.70023	1.6629	1.48297	0.5577	77.8	-0.2257	0.0849	0.3106	1011.1487	0.171538	-403.109633	-403.101576	-403.100631	-403.141752	31.808	
C	-0.3729400003	 1.5524940552	 0.0027040733	-0.420143
C	 0.0260199701	 0.0885554428	 0.0423156784	 0.058676
C	 1.0131471271	-0.5177400574	-0.9877691005	 0.047142
O	 1.9972342942	 0.425493657	-1.3888271392	-0.260493
C	 2.7318659927	 0.7866139529	-0.216170054	-0.151198
C	 2.3355691063	-0.217122617	 0.8584771307	 0.306973
C	 3.2558185014	-0.4250104543	 2.0317519802	-0.481003
C	 1.5978119967	-1.3091039209	 0.2013885813	-0.111928
N	 0.8843245791	-0.4061891537	 1.1885255104	-0.209802
H	 0.4593113179	 2.2100918257	-0.2522643537	 0.129324
H	-1.1577726418	 1.708845246	-0.7449955837	 0.118825
H	-0.7706020192	 1.8538088221	 0.9775238424	 0.12584
H	-0.8748591045	-0.5343833923	 0.0865867233	 0.082655
H	 0.6269202226	-1.0184773951	-1.8750796373	 0.082736
H	 3.805764167	 0.7116192114	-0.4321282386	 0.106129
H	 2.5198338437	 1.8231747957	 0.0764578496	 0.103021
H	 3.3709175504	 0.5026761957	 2.6031148626	 0.125146
H	 2.8476213247	-1.1819444456	 2.7049636154	 0.136205
H	 4.2494983906	-0.7443145971	 1.6995901513	 0.119212
H	 1.7217379911	-2.375951331	 0.3429784481	 0.092684
