15
gdb 101982	1.87281	1.46491	1.21749	1.0997	63.09	-0.272	-0.0821	0.1899	1097.4467	0.108198	-494.907291	-494.897675	-494.896731	-494.942683	32.448	
O	 0.2382394008	 1.4591945093	 0.2348048233	-0.41393
C	 0.1679401019	 0.0589077609	 0.1459649578	-0.115052
C	-1.3056659849	-0.4401801069	 0.0090786416	-0.072602
C	-2.0959489955	-0.090960926	 1.2754199922	 0.153407
O	-1.7600087071	 0.7630992902	 2.0583382623	-0.262062
C	-1.9872684546	 0.2506724617	-1.1793796451	 0.119031
O	-2.8242556968	-0.2969713979	-1.8501136473	-0.239845
C	-1.3407096235	-1.9516475384	-0.196568722	 0.139781
O	-1.5408730108	-2.728026829	 0.7011131216	-0.247721
H	-0.1986652216	 1.6935679894	 1.0658445935	 0.305121
H	 0.7388404305	-0.2370911517	-0.7404396961	 0.125952
H	 0.6168339228	-0.4382801134	 1.0169775775	 0.126876
H	-3.0218147433	-0.6766406282	 1.4199995496	 0.137063
H	-1.6485978154	 1.2865235216	-1.3642865783	 0.131982
H	-1.1324299627	-2.2909841716	-1.2309096606	 0.111999
