14
gdb 9813	3.20182	1.92494	1.32432	2.2706	64.87	-0.2647	-0.0669	0.1979	903.3007	0.103637	-382.496871	-382.488608	-382.487664	-382.529721	29.418	
C	-0.1345116204	 1.4109727559	-1.0217178797	-0.464492
C	-0.0977076947	 0.2917288724	-0.0123419936	 0.299373
C	 0.8818968313	-0.8134741938	-0.1251888822	-0.224977
O	 1.0566193296	 0.2143899011	 0.8372099656	-0.253131
C	-1.404596474	 0.0016317407	 0.6871803421	 0.189898
O	-2.4515720111	 0.4675606113	 0.291252053	-0.289802
C	-1.3442132683	-0.8581270195	 1.8572388171	 0.266101
C	-1.3451373948	-1.5756983906	 2.8233864912	-0.408106
H	 0.8546882032	 1.5485356063	-1.4634465297	 0.126031
H	-0.8569601559	 1.18914263	-1.8108559338	 0.143969
H	-0.4416207039	 2.3463064868	-0.5456809742	 0.141797
H	 0.647817545	-1.796774062	 0.2779092651	 0.130289
H	 1.5698734494	-0.796184842	-0.9695184114	 0.126438
H	-1.3462002153	-2.2032946267	 3.6815225804	 0.216612
