16
gdb 49684	2.27961	1.73953	1.38179	4.9969	69.62	-0.2475	-0.0353	0.2122	980.8256	0.124764	-437.907187	-437.899558	-437.898613	-437.939676	28.357	
O	 0.4270311808	 0.1577032541	 0.6231945571	-0.286106
C	 0.3079608469	 1.2923936205	 0.2338519248	 0.147341
N	 1.2857999279	 2.0168727674	-0.4253314338	-0.061832
C	 1.8885478554	 3.2792908317	-0.0943681926	-0.053226
C	 1.8340103089	 3.719199949	 1.3690889376	-0.238756
C	 2.3689368351	 2.520354589	 2.185361322	-0.355614
C	 3.1772956199	 1.6695860223	 1.1945681013	 0.446428
O	 4.0891375849	 0.9349013078	 1.4640858513	-0.310516
C	 2.7155485878	 2.0079958856	-0.2049451484	-0.161613
H	-0.6397788719	 1.8616842126	 0.2905206072	 0.092234
H	 1.9027208291	 4.0281234149	-0.8810918524	 0.115881
H	 2.4867800864	 4.5894130293	 1.4920939984	 0.125493
H	 0.8280773911	 4.030810917	 1.6651971723	 0.121442
H	 3.0119920409	 2.8165380479	 3.0156039801	 0.138225
H	 1.5692092594	 1.9012154265	 2.6044591622	 0.155684
H	 3.3507648974	 1.7570292342	-1.0474129971	 0.124935
