19
gdb 57897	3.04565	1.01893	0.9662	2.9524	73.92	-0.2519	-0.0359	0.216	1314.0173	0.157046	-460.169127	-460.159685	-460.158741	-460.203738	35.302	
C	-0.0415799651	 1.5379614741	-0.1815464182	-0.398178
C	 0.0249084396	 0.0171440444	 0.0432428075	 0.052941
O	 0.6465211074	-0.2718871757	 1.2664170031	-0.438368
C	-1.3697446761	-0.6068917057	 0.0078224899	 0.393895
O	-1.8086144211	-1.1186887107	 1.035880916	-0.40493
C	-2.1550387126	-0.5482486586	-1.2282950853	-0.192322
C	-3.1554473753	-1.6852525677	-1.4954489655	-0.327651
C	-3.6945264142	-0.3805163981	-1.0530665664	 0.15754
O	-4.2469453666	-0.1807424104	 0.1916202191	-0.41418
H	 0.9677133392	 1.9476789332	-0.097075766	 0.137484
H	-0.4382915524	 1.7915699038	-1.1689176279	 0.115787
H	-0.6680377348	 2.0066946019	 0.5828987549	 0.132711
H	 0.6030290172	-0.4339456973	-0.7808495453	 0.092255
H	-0.0324324116	-0.7131995704	 1.80167151	 0.292815
H	-1.6889682938	-0.0767095821	-2.084908607	 0.101277
H	-3.2718827173	-1.9893287588	-2.529588102	 0.128156
H	-3.1438294095	-2.4898244544	-0.7675182615	 0.141565
H	-4.1655554581	 0.2603270919	-1.7911466378	 0.122746
H	-3.693006645	-0.6527624094	 0.8357907825	 0.306457
