20
gdb 84930	2.17245	1.63048	1.09876	2.6703	81.94	-0.2187	-0.0138	0.2049	1162.6464	0.172407	-403.160657	-403.151876	-403.150932	-403.194461	33.165	
C	-0.904276984	 1.1817304904	 0.2488812394	-0.398797
C	 0.0262129778	-0.0319847017	-0.0141046203	-0.124174
C	 0.7277671885	 0.143233773	-1.3389762934	-0.068026
C	 2.0105798586	 0.2877132378	-1.6716432835	-0.063937
C	 3.2622441339	 0.3265316599	-0.824443802	-0.222042
N	 3.2140839927	-0.0996222435	 0.5635615361	-0.285136
C	 2.1785108901	 0.5140442154	 1.3955324483	-0.239159
C	 0.8714672235	-0.2548104303	 1.2373087012	 0.357787
O	 0.5270987291	-1.0626269366	 2.0731663295	-0.323747
H	-0.3282718754	 2.104070521	 0.3737581881	 0.12429
H	-1.5830259073	 1.325728687	-0.5971798118	 0.123491
H	-1.5040857477	 1.0183167959	 1.1484200175	 0.135086
H	-0.6186125078	-0.9170605052	-0.0808880316	 0.105024
H	 0.0146341255	 0.1818008095	-2.1626529028	 0.092687
H	 2.2213874847	 0.4390753581	-2.7306662262	 0.088515
H	 4.0333519774	-0.2754402875	-1.3218245457	 0.116552
H	 3.6487670398	 1.3585224871	-0.84929589	 0.120049
H	 3.1641184544	-1.1100486124	 0.6344904907	 0.230325
H	 2.4696484225	 0.4665077108	 2.4492788449	 0.120075
H	 2.0770038636	 1.5647863614	 1.1034681015	 0.111139
