15
gdb 70720	2.35032	2.00678	1.30428	2.1171	61.06	-0.2645	-0.0142	0.2504	945.3591	0.112616	-494.907511	-494.90002	-494.899075	-494.939443	28.659	
O	-0.1020609082	 1.3669687083	 0.1156756668	-0.462626
C	-0.0494985112	-0.0173491305	 0.0374996229	 0.240958
C	-0.4775388854	-0.6937836676	-1.2668785537	-0.350955
C	-1.3367366859	-0.783756313	-0.0391948594	 0.023202
O	-1.3525780161	-2.0422111435	 0.5940512266	-0.2286
C	-0.520876564	-2.0846757821	 1.7022189158	 0.001183
O	 0.8596318506	-1.8256862401	 1.3707761059	-0.227724
C	 1.0942025142	-0.6243565066	 0.7944869946	 0.389526
O	 2.1644990606	-0.0818763991	 0.8696205171	-0.351098
H	 0.8187495094	 1.6644728262	 0.1005902735	 0.301053
H	-0.7825884926	-0.0079168344	-2.0486207892	 0.136613
H	 0.0251190222	-1.6001662314	-1.5836492596	 0.141721
H	-2.2748532007	-0.2389782016	 0.0117722049	 0.125799
H	-0.8242864651	-1.3586209453	 2.4692329235	 0.118504
H	-0.5419335977	-3.0995411895	 2.0981659403	 0.142445
