12
gdb 25538	5.00092	0.96861	0.82413	2.6442	59.99	-0.2471	-0.018	0.2291	1270.9651	0.076671	-509.788645	-509.78108	-509.780135	-509.822163	26.316	
N	 0.0084005165	 1.2313084867	 0.2588149193	-0.407582
C	-0.0265634184	 0.0126732251	-0.0277891601	 0.111014
O	-1.0802538725	-0.7331045619	 0.4639738075	-0.213541
C	-1.112782287	-2.0396443084	 0.1911429799	 0.398895
C	-2.1196022349	-2.8508791468	-0.1163669404	-0.166129
O	-1.6156323781	-4.146069817	-0.1856258388	-0.20893
C	-0.2809515058	-4.0914858818	 0.0651413714	 0.522904
O	 0.480436827	-5.0001601523	 0.070309837	-0.357379
O	 0.0500400198	-2.7716317193	 0.3139344064	-0.248838
H	 0.8250800408	 1.6719253134	-0.1598487763	 0.250511
H	 0.6739089118	-0.5758110311	-0.6240418424	 0.138848
H	-3.1686508091	-2.7026895464	-0.2882668134	 0.180226
