21
gdb 106126	2.69334	1.54308	1.37671	0.537	86.12	-0.2158	0.0213	0.2371	1075.2489	0.184123	-349.935087	-349.927223	-349.926279	-349.96735	31.798	
C	 0.0756420767	 1.5240025593	 0.2095794408	-0.370585
C	-0.057681448	 0.0165241402	-0.0463182501	-0.322588
C	 0.6695400414	-0.4430197957	-1.2759804055	 0.381636
C	 1.1308275198	-1.8084900965	-1.7309681741	-0.144035
C	 0.4670660651	-1.6276937894	-3.0869818131	-0.222933
C	 0.3587073544	-0.0797879354	-2.7786086298	-0.154227
C	 1.6210431543	 0.5665868555	-3.2983967281	-0.093832
C	 2.6546411265	 0.160018744	-2.5517124072	-0.079009
C	 2.1524781863	-0.6737522392	-1.4247285036	-0.126708
H	 1.1242152648	 1.8076101804	 0.3434064807	 0.121047
H	-0.3176742889	 2.1026761181	-0.6326096434	 0.119187
H	-0.4753173273	 1.8220539025	 1.1070279995	 0.108219
H	 0.3264813557	-0.5418412466	 0.8173979371	 0.096957
H	-1.1209535693	-0.2485768024	-0.128527073	 0.095762
H	 1.1860089634	-2.7316977962	-1.1646106902	 0.080591
H	 1.0095648956	-1.9152038867	-3.9940162195	 0.088401
H	-0.5232069426	-2.0909272848	-3.0866639691	 0.099962
H	-0.5876928634	 0.3995504955	-3.0285173983	 0.063494
H	 1.6740354255	 1.1250744466	-4.2251773734	 0.09066
H	 3.7038018486	 0.3556771358	-2.7366420162	 0.09166
H	 2.7499191312	-0.838839745	-0.5342956333	 0.07634
