19
gdb 53319	5.02523	0.74307	0.72573	1.7082	86.41	-0.2271	0.0309	0.258	1651.1506	0.15709	-385.831254	-385.821759	-385.820815	-385.867863	33.97	
C	 0.524107208	 1.6396216746	-0.5699569846	-0.498234
C	 0.2163490898	 0.2405032503	-0.3153350357	 0.062205
C	-0.046455461	-0.9160107169	-0.1053195229	 0.096308
C	-0.3503739647	-2.3118095353	 0.1461661707	-0.049898
C	 0.0990792688	-2.918607436	 1.506776329	-0.375349
C	-1.3857543574	-3.1882026397	 1.7033896007	 0.47465
C	-2.0828299075	-4.415315874	 2.1898627875	-0.335491
C	-2.23917004	-3.0847130517	 2.9203157809	-0.330615
O	-1.7505293798	-2.5573448208	 0.4732702372	-0.309708
H	 1.2378581567	 2.031344924	 0.1631304876	 0.148894
H	 0.9578508515	 1.7789514404	-1.5662095253	 0.149825
H	-0.3803697049	 2.2551657389	-0.5126819419	 0.154552
H	-0.0576846508	-2.924150176	-0.7160841009	 0.102161
H	 0.7438841302	-3.7958322748	 1.432619126	 0.113779
H	 0.5345446164	-2.1918427458	 2.1936758799	 0.120943
H	-2.9291947123	-4.7645393559	 1.6080382063	 0.124595
H	-1.4950822924	-5.2001036995	 2.6558582256	 0.112139
H	-1.7577788557	-2.9585988023	 3.8850080242	 0.113239
H	-3.1865291049	-2.5672611896	 2.8131323057	 0.126003
