13
gdb 24841	2.56788	1.7788	1.19013	8.2134	69.54	-0.2318	-0.066	0.1658	979.0964	0.090982	-452.788953	-452.781699	-452.780755	-452.821081	26.599	
O	 0.0335377856	 0.0138272064	-0.6498944488	-0.319867
C	 0.0072649532	 1.1361202262	-0.1945613849	 0.281511
C	-1.2301588144	 1.8114933034	 0.2167486741	-0.196452
C	-1.4377945631	 3.1277069042	 0.4240365083	 0.021308
N	-0.5920382812	 4.1835608224	 0.1516629082	-0.297069
C	 0.6654005591	 4.1224428933	-0.4103982584	 0.0951
N	 1.4796817095	 3.1473689946	-0.4439142719	-0.246512
C	 1.3055372924	 1.8926326645	 0.1428591379	 0.270687
O	 2.14552774	 1.3925979314	 0.8464273474	-0.29245
H	-2.0639299771	 1.1451380116	 0.4102525241	 0.131227
H	-2.4030502173	 3.4598632573	 0.7913798048	 0.140107
H	-0.9997177476	 5.1043519288	 0.2101931938	 0.271959
H	 0.9629991709	 5.0694644358	-0.8630859846	 0.140453
