12
gdb 25335	4.14995	1.18301	0.92058	2.0962	65.93	-0.2693	-0.1083	0.161	1136.2177	0.077731	-472.670311	-472.663182	-472.662238	-472.702569	25.33	
O	-0.0035489033	-0.0400398692	-0.0024493534	-0.24028
C	 0.0084008059	 1.1625657372	 0.008360047	 0.103511
C	 1.2473405217	 1.9817940884	 0.0016241623	 0.299587
C	 1.2557382706	 3.3258898442	 0.0130624954	-0.304749
C	 2.5314861241	 4.0594343538	 0.0048946075	 0.412095
O	 2.607651243	 5.265008858	 0.0153240574	-0.32224
N	 3.6918700173	 3.2376018431	-0.0144659687	-0.299549
C	 3.5549862861	 1.9753847157	-0.0237501899	 0.128715
O	 2.3997514022	 1.2622698123	-0.017248234	-0.197937
H	-0.9156286347	 1.7764173931	 0.0233594028	 0.108441
H	 0.3273845656	 3.8844045598	 0.0282330029	 0.146801
H	 4.4058787614	 1.3001093837	-0.0387156893	 0.165605
