21
gdb 31509	3.1077	1.03588	0.83137	1.4407	89.19	-0.1686	0.0505	0.2192	1463.9542	0.182507	-383.316869	-383.306446	-383.305502	-383.352972	37.499	
C	-0.3802518648	 1.4343294989	 0.1144109013	-0.362716
C	 0.1554070123	-0.0015566959	-0.0396267754	-0.300449
C	 0.9035494229	-0.5031456893	 1.1549192144	 0.317259
C	 2.248907273	-0.7302375895	 1.3513484653	-0.315924
C	 2.4290640752	-1.1740085607	 2.6956145441	 0.16784
N	 3.6512101575	-1.4894394834	 3.3484850547	-0.613862
C	 1.1868788168	-1.2061870335	 3.2956004122	 0.268405
C	 0.7993575636	-1.5794413293	 4.6854982958	-0.516171
N	 0.2730304018	-0.8081073097	 2.3373249425	-0.360154
H	 0.4396804156	 2.135299329	 0.2966465859	 0.12474
H	-0.9134334941	 1.7536827302	-0.7871007958	 0.10888
H	-1.0741702509	 1.5131003337	 0.9580758714	 0.107379
H	-0.6827126789	-0.6739400755	-0.2720238924	 0.097339
H	 0.8266296466	-0.0471675305	-0.9033384113	 0.111528
H	 3.0237263518	-0.5938285308	 0.6101757002	 0.074942
H	 4.4418940329	-1.2597259103	 2.758696759	 0.232159
H	 3.7203793296	-2.476860931	 3.5709448801	 0.234719
H	 1.6909379432	-1.5664035897	 5.3188383091	 0.144089
H	 0.0774792424	-0.8724233465	 5.1133093435	 0.11591
H	 0.353936413	-2.581545993	 4.760799679	 0.116745
H	-0.7182880995	-0.7434763332	 2.4910628866	 0.247341
