17
gdb 99922	2.19255	1.34821	1.12176	3.0469	68.19	-0.2507	0.0036	0.2543	1155.4835	0.134853	-455.111555	-455.102154	-455.10121	-455.145877	34.178	
N	-0.6088949734	 1.0515322393	 0.0501725431	-0.506178
C	-0.3607327197	-0.2519155952	 0.6369254923	-0.204605
C	 1.0215455146	-0.3937869408	 1.3425804428	 0.179225
O	 2.0571854282	 0.0261368717	 0.4560788147	-0.455506
C	 1.0612949721	 0.5134741344	 2.5043923586	 0.281445
N	 1.0322559261	 1.204743712	 3.4292570587	-0.330421
C	 1.3486523222	-1.8125740286	 1.8136989241	 0.032975
C	 0.3887566579	-2.9203557077	 1.8451429364	-0.176868
O	 1.3235982087	-2.7845816877	 0.7662724512	-0.246954
H	-0.7046316314	 1.7517277687	 0.7805996148	 0.242845
H	 0.197422251	 1.3241241119	-0.5052396993	 0.238685
H	-1.1596195592	-0.4808469363	 1.3488345175	 0.121876
H	-0.385079523	-1.0142279491	-0.1505284875	 0.12462
H	 2.1915588135	-0.7060655259	-0.1603363819	 0.305103
H	 2.229436335	-1.8663934162	 2.4529430011	 0.125445
H	 0.57613847	-3.7568927191	 2.5151012612	 0.134413
H	-0.6524814027	-2.7595348815	 1.5802393023	 0.1339
