18
gdb 110817	2.28002	1.45409	1.06756	2.0619	77.67	-0.2326	0.0262	0.2588	1161.0593	0.146554	-401.848231	-401.83942	-401.838476	-401.881824	33.151	
O	-0.0595862204	 0.5819782251	-1.6160989409	-0.422035
C	-0.0148883218	 0.1336132359	-0.2654587825	-0.128222
C	-1.3457240324	-0.5368912396	-0.0154172582	 0.035325
C	-1.6439143315	-1.9713619811	-0.1749782454	-0.031821
C	-0.4889484547	-2.8647736282	 0.2663614925	-0.285528
C	-0.6064396284	-2.1733355393	 1.6592877222	-0.13993
C	 0.5418917302	-1.5387341692	 2.2781537857	 0.361937
C	 1.4917523121	-1.0373008631	 2.8200618082	-0.46792
N	-1.7521137639	-1.2865206695	 1.1927967848	-0.176977
H	 0.746638595	 1.0764317403	-1.7897180645	 0.28818
H	 0.8286538672	-0.5457645464	-0.0983010383	 0.099594
H	 0.1024730833	 0.9742897644	 0.4349219458	 0.101597
H	-2.1647810114	 0.1157642495	-0.3123472075	 0.107957
H	-2.5283298117	-2.3239730838	-0.6951551002	 0.099224
H	-0.7406577166	-3.9249288844	 0.3100293013	 0.117785
H	 0.452500367	-2.7469956152	-0.2751421924	 0.11885
H	-1.0477295588	-2.8658106922	 2.3821809009	 0.120801
H	 2.3277294168	-0.5880822631	 3.2968851483	 0.201184
