12
gdb 601	6.46428	2.88269	2.26314	4.7574	51.08	-0.2776	0.016	0.2936	564.4965	0.09686	-265.401151	-265.395097	-265.394153	-265.430631	21.255	
C	-0.0751612778	 1.5308805623	-0.0620082781	-0.398727
C	-0.0101517448	 0.0300790672	 0.0567311102	 0.014036
N	 1.287342895	-0.6030812904	-0.1804122267	-0.309799
C	 0.7067136513	-0.6628011301	 1.1778415143	-0.189761
C	 1.3942849362	 0.0755656202	 2.2097610759	 0.327669
N	 1.9171053644	 0.6643565979	 3.0563604233	-0.332554
H	 0.8302255714	 1.9910511336	 0.3397587042	 0.152524
H	-0.1713781882	 1.8225214569	-1.1125952052	 0.129546
H	-0.9387948019	 1.9244792301	 0.4831194788	 0.129367
H	-0.8930802582	-0.5023060513	-0.2951329289	 0.101019
H	 1.1848032154	-1.5096586769	-0.6287972064	 0.24577
H	 0.2930101673	-1.6063025595	 1.5235469486	 0.13091
