18
gdb 50247	3.72416	1.21847	1.04878	4.2264	78.92	-0.2399	0.0086	0.2486	1154.848	0.149655	-401.971569	-401.963949	-401.963005	-402.004415	28.739	
O	 0.0298429098	-0.0341664664	 0.7248335745	-0.331512
C	 0.038854282	 1.1611795796	 0.5109799262	 0.126378
N	 1.0574516868	 1.8285120823	-0.0763207155	-0.035639
C	 2.41233008	 1.3600708494	-0.3757158149	-0.177928
C	 2.7995880053	 2.8449490552	-0.6748870398	-0.093021
C	 2.8006689812	 3.2352004747	-2.1259796683	-0.074494
C	 1.6710916678	 3.8383910775	-2.4968436145	-0.055904
C	 0.6893977281	 4.0115810991	-1.359626315	-0.270489
C	 1.3658166043	 3.2610331704	-0.1922325556	-0.001467
H	-0.8039754741	 1.8361642326	 0.7700080803	 0.064088
H	 2.9090617528	 0.9140420322	 0.4927601914	 0.119772
H	 2.4724997115	 0.666289772	-1.2191843724	 0.123471
H	 3.6560488312	 3.2164671275	-0.1087153753	 0.087941
H	 3.6367284715	 3.0196230517	-2.782180124	 0.100571
H	 1.4556562808	 4.1868665268	-3.5010920009	 0.10075
H	 0.5300986929	 5.0713631095	-1.1210051025	 0.110951
H	-0.2968075376	 3.5899674219	-1.5863387619	 0.119144
H	 1.2978835956	 3.792885934	 0.7614308981	 0.087386
