17
gdb 24345	3.55922	1.48332	1.08616	0.8728	73.57	-0.2182	0.0157	0.2339	1066.8882	0.139302	-421.85618	-421.849329	-421.848385	-421.88746	27.258	
C	-0.0252487407	 1.4038542511	 0.0290389978	-0.078597
C	 1.4116022639	 1.9525071162	 0.0125608314	-0.33645
C	 2.1682857344	 1.2594889767	-1.0817898107	 0.190448
C	 3.3354376876	 1.5349130521	-1.7199952669	-0.136944
O	 3.6163019484	 0.5701307246	-2.638432919	-0.148257
C	 2.6051595633	-0.3400706256	-2.5829635986	-0.129286
C	 1.6903470187	 0.0275432599	-1.6496368058	 0.16237
C	 0.3842940173	-0.5698223953	-1.2092363885	-0.200034
O	-0.0366844862	-0.0152860175	 0.0291696013	-0.245705
H	-0.5510918819	 1.7127983297	 0.9363628385	 0.108912
H	-0.586010399	 1.7890446936	-0.8388994391	 0.090778
H	 1.3968997191	 3.0401964135	-0.1204629643	 0.107508
H	 1.875731593	 1.7535310834	 0.9865073784	 0.121138
H	 4.0573544561	 2.3314366532	-1.6437744919	 0.134765
H	 2.6875075498	-1.1709187385	-3.2643247384	 0.135632
H	-0.3938784515	-0.4024481946	-1.9743683151	 0.101522
H	 0.4587513876	-1.6496296626	-1.0481839494	 0.1222
