19
gdb 58851	2.5715	1.45333	1.08491	2.6456	75.81	-0.2406	-0.0253	0.2153	1167.7185	0.156752	-423.013188	-423.004036	-423.003092	-423.047294	33.908	
C	-0.0849251694	 1.5710542787	 0.2611704967	-0.399387
C	 0.0415319046	 0.0553696847	 0.0213855867	-0.114322
C	 0.8433632332	-0.6374375466	 1.1304189186	-0.39806
C	-1.325303957	-0.5431903229	-0.1423830897	 0.31903
O	-2.1630436344	-0.7552697685	 1.0264031595	-0.282591
C	-1.9518431898	-1.8622368309	 0.1542316898	-0.063103
C	-3.009728185	-1.7341770852	-0.949631126	-0.372409
C	-2.3364845097	-0.3655833035	-1.2803506453	 0.384747
O	-2.4484095903	 0.420274833	-2.1737608317	-0.304817
H	 0.9051084077	 2.0334231024	 0.3171981868	 0.112996
H	-0.6436160101	 2.0491183414	-0.548068264	 0.141583
H	-0.6075842373	 1.7690611266	 1.2025986807	 0.129553
H	 0.5595753253	-0.093363153	-0.9360851128	 0.091971
H	 0.9911204732	-1.7006401996	 0.9156775967	 0.111355
H	 1.8299045738	-0.1754710632	 1.2302063393	 0.116643
H	 0.3256489269	-0.5526577027	 2.0899561997	 0.135861
H	-1.4876663391	-2.7520777023	 0.5606179402	 0.120822
H	-2.8997562313	-2.4279767187	-1.7888394143	 0.132418
H	-4.0460758614	-1.7183761597	-0.6072851909	 0.137709
