18
gdb 37912	2.65134	2.03781	1.45747	2.3831	74.99	-0.2318	0.0336	0.2654	925.6617	0.150904	-401.92021	-401.913305	-401.91236	-401.952037	27.538	
C	-0.0903851163	 1.4048766395	-0.0929291568	-0.290659
C	 1.4274154453	 1.5891572066	-0.0188848583	-0.064544
C	 1.9410025959	 1.0545383618	 1.2865816854	-0.040657
C	 1.2025833774	 1.1536437093	 2.6259292967	-0.18765
N	 0.1434633825	 0.24183257	 2.9991293179	-0.262803
C	-0.5296126596	-0.5662870212	 2.309963304	 0.128698
O	-0.5708509324	-0.8943843621	 0.9909483648	-0.234379
C	 0.1466703497	-0.1371951869	 0.0265711296	 0.128044
C	 1.6427775162	 0.0761493766	 0.1871222916	-0.118714
H	-0.6693609226	 1.8727077422	 0.7081216806	 0.114967
H	-0.5365929046	 1.6757219956	-1.0512850495	 0.109298
H	 2.0068861431	 2.2662963114	-0.6333603404	 0.089878
H	 3.0116464033	 1.2161921522	 1.3954520665	 0.091338
H	 1.9572613898	 1.0629721544	 3.4171485798	 0.116438
H	 0.8035004046	 2.1727939534	 2.7415389102	 0.116675
H	-1.2725206994	-1.1846909376	 2.8162226636	 0.115392
H	-0.0842763989	-0.6317259039	-0.9182197139	 0.09977
H	 2.4029019662	-0.5774569513	-0.2238153317	 0.088908
