20
gdb 119646	4.38848	0.96143	0.92052	2.9579	78.06	-0.2405	0.0724	0.313	1324.8904	0.17152	-403.08627	-403.077884	-403.07694	-403.11982	31.94	
O	-0.1220905524	 1.4702611571	 0.0112219474	-0.416686
C	 0.0085480962	 0.0576788131	-0.0116410624	-0.076589
C	-1.3964361821	-0.5356621638	 0.0362531612	-0.299348
C	-1.3964822807	-2.0390733195	 0.0166066358	 0.341918
C	-1.0046792959	-2.852980722	-1.241547717	-0.279986
C	-2.02620678	-3.8474747281	-0.7291645429	-0.040309
C	-1.9652616967	-3.8669061437	 0.7639706382	-0.040324
C	-0.9043041374	-2.8849940058	 1.2170623964	-0.280002
N	-2.7692061278	-2.8066739769	 0.0626431319	-0.19422
H	 0.7588703216	 1.8546670895	-0.0162667474	 0.285678
H	 0.5270226172	-0.2796849666	-0.9239846524	 0.089967
H	 0.5968211224	-0.3019737753	 0.8483142035	 0.08999
H	-1.9013474907	-0.1797017732	 0.9418009327	 0.114031
H	-1.9709389394	-0.1566204937	-0.8169387487	 0.114023
H	-1.3575350438	-2.3619539029	-2.1529313244	 0.109427
H	 0.0389582423	-3.162391165	-1.3656053978	 0.092983
H	-2.5615390578	-4.6053916236	-1.2900863901	 0.093527
H	-2.4539097372	-4.6396951503	 1.3467853793	 0.093525
H	 0.1456482732	-3.1964051964	 1.2475584217	 0.092986
H	-1.1811910209	-2.4182286128	 2.1666434449	 0.109411
