16
gdb 38021	4.13026	1.60177	1.26547	2.7077	75.25	-0.214	-0.0107	0.2033	961.1558	0.12779	-396.932286	-396.925843	-396.924899	-396.963179	25.78	
C	 0.0111347217	 1.4722729129	 0.0829913377	-0.309751
C	 1.3270417027	 0.7287550988	 0.0123409274	-0.004064
N	 2.0054165943	 0.413493883	 1.2540628719	-0.358061
C	 1.2137738547	-0.3644038337	 1.8919888794	 0.374695
C	 1.1500359925	-1.0858711526	 3.2170059605	-0.283256
N	-0.1184918204	-1.8499512876	 3.1764267966	-0.270046
C	-0.6722097186	-1.5810975015	 2.0517093014	 0.052783
N	 0.0410728242	-0.7230840042	 1.2355241273	-0.053256
C	-0.0226870858	-0.0334270637	-0.0161011468	-0.05763
H	-0.2719471506	 1.9377732907	 1.0213849012	 0.124652
H	-0.2834181198	 2.0155619259	-0.8080880971	 0.123238
H	 1.9550778536	 0.8560435086	-0.8614773815	 0.104087
H	 1.9994529753	-1.7627920133	 3.3572760615	 0.151578
H	 1.1452763918	-0.3974429601	 4.0689907457	 0.149381
H	-1.6247399588	-1.9864417387	 1.7291494706	 0.141605
H	-0.4419773769	-0.5559570444	-0.8668154957	 0.114043
