18
gdb 67283	3.03648	1.92185	1.75345	2.3316	73.72	-0.2035	0.0642	0.2676	861.1583	0.149784	-401.853529	-401.847098	-401.846154	-401.883808	27.649	
O	-0.099479584	 1.4287989713	-0.0208243928	-0.482388
C	 0.0107825605	 0.0551110439	 0.0088612871	 0.418802
C	 0.7412527474	-0.8828187966	-1.0407861487	-0.132854
C	 1.7373243942	-1.2918086061	 0.0668227879	-0.248874
C	 0.6745553932	-0.8654055329	 1.1026050381	-0.08043
N	-0.5800485582	-1.7437368894	 1.1066712191	-0.157049
C	-0.4604251095	-2.8483389622	 0.0911827696	-0.177452
C	-0.5383639946	-1.8186090189	-1.0463864481	-0.054307
C	-1.2014900089	-0.877841132	 0.0097826542	-0.05247
H	 0.7827127462	 1.8153515643	-0.0573262087	 0.284098
H	 1.0990037593	-0.5455200827	-2.0135567099	 0.06778
H	 2.1310257165	-2.3115371058	 0.0872406921	 0.100961
H	 2.5825939368	-0.5952841473	 0.1023096341	 0.092037
H	 0.974052581	-0.5628368577	 2.1076325395	 0.074459
H	 0.4099848409	-3.5039424621	 0.1864356362	 0.101301
H	-1.3655260883	-3.4616022436	 0.147870626	 0.107377
H	-0.9607447865	-2.0714333283	-2.0207717253	 0.064322
H	-2.2558043959	-0.6099969341	 0.0833578696	 0.074687
