12
gdb 21541	3.67907	1.90715	1.25734	2.8172	61.81	-0.2364	-0.0675	0.1688	869.2942	0.085555	-410.850968	-410.844136	-410.843192	-410.882046	24.734	
N	 0.0882682578	 1.3981946026	 0.1384256683	-0.587219
C	-0.0170897911	 0.0346515308	 0.0408193577	 0.271988
C	-1.1424990355	-0.790479413	 0.0125398658	 0.206884
N	-0.589535222	-2.0447672468	-0.0243684627	-0.215538
N	 0.7289582024	-2.0083498055	-0.016068466	-0.087099
N	 1.0972848938	-0.7480800877	 0.0211951976	-0.254302
C	-2.5696417837	-0.5816726022	 0.0238991832	 0.066258
O	-3.3811659414	-1.4878436466	-0.0061389878	-0.30687
H	 1.0106169495	 1.7459552999	-0.0814491976	 0.270981
H	-0.6553040843	 1.9458098506	-0.2649641371	 0.263313
H	-1.0914073333	-2.9198010952	-0.0543620413	 0.298855
H	-2.8886208422	 0.4811158531	 0.0649791598	 0.072751
