20
gdb 87838	2.80782	1.40025	1.1958	0.9133	79.81	-0.2202	0.0793	0.2994	1130.4949	0.169811	-403.080709	-403.071986	-403.071041	-403.113567	34.119	
C	-0.2087645587	 1.3662107256	-0.0646725431	-0.313736
N	 0.0321839602	-0.0648903302	 0.0562902059	-0.148374
C	 1.4241385667	-0.5079853021	-0.0994803051	-0.325413
C	 0.7610816263	-0.5321754217	 1.2232430938	 0.31786
C	 1.2267126664	 0.2100253254	 2.5027879981	-0.331847
C	 0.8998931725	-1.0656685571	 3.2971387983	-0.107991
C	-0.5654949918	-1.4032831585	 3.1320606577	-0.347545
C	 0.3988992249	-1.7577571613	 2.0326066396	 0.334349
O	 0.6254189118	-3.0566977068	 1.6192086907	-0.457897
H	 0.6044134601	 1.9912081602	 0.3399039616	 0.100326
H	-0.338139055	 1.6207042177	-1.121622709	 0.121672
H	-1.133017282	 1.6267311581	 0.4615117512	 0.119476
H	 1.5685501581	-1.4301312246	-0.6561683621	 0.117775
H	 2.1878649976	 0.2528408311	-0.2620274376	 0.102298
H	 2.2890050469	 0.4643968214	 2.4887606803	 0.110345
H	 0.6520710111	 1.0974404146	 2.7887947514	 0.100843
H	 1.4945048629	-1.4737022236	 4.1037079697	 0.097179
H	-0.8982973301	-2.2581716055	 3.7127944233	 0.112858
H	-1.308742626	-0.6186290514	 3.0076464212	 0.106685
H	-0.179453922	-3.3803951613	 1.199883124	 0.291136
