18
gdb 17688	4.67398	1.55451	1.51351	1.8302	71.93	-0.2295	0.0881	0.3176	915.2453	0.154165	-347.722728	-347.715751	-347.714807	-347.754268	27.508	
C	-0.1029393721	 1.4214720329	-0.1319338902	-0.269637
C	 1.2795988123	 0.9087637518	 0.1623564175	-0.260402
C	 0.1186617973	-0.0544445818	 0.1121344004	-0.140412
C	-0.389547273	-0.6737337042	 1.3570204159	 0.450047
C	-0.5035816502	-0.0912271622	 2.7952481148	-0.264699
C	-0.7953204791	-1.6082477842	 2.8368212528	 0.047734
C	-1.7044381761	-1.4699292729	 1.5980024978	-0.260033
O	 0.3574916957	-1.8341844214	 1.9415960123	-0.349694
H	-0.6083556965	 1.9886875835	 0.6423165371	 0.115944
H	-0.33938692	 1.73693079	-1.1416832303	 0.115732
H	 2.0009232916	 0.86817475	-0.645633151	 0.116754
H	 1.7086070488	 1.1281446551	 1.1334489408	 0.120613
H	 0.0641076115	-0.7050887094	-0.7558258284	 0.092394
H	 0.4403289366	 0.2075438401	 3.253414978	 0.105641
H	-1.3234948362	 0.6003568615	 3.007812238	 0.092079
H	-0.8955972544	-2.2653059771	 3.7001697048	 0.092961
H	-2.6359593361	-0.9054388166	 1.6938500506	 0.091625
H	-1.8106475301	-2.3750552352	 0.9983444693	 0.103354
