17
gdb 95667	3.10373	1.30739	1.03666	4.9469	72.53	-0.2666	-0.0479	0.2187	1157.5925	0.136403	-458.997695	-458.989627	-458.988683	-459.030659	30.146	
C	 1.0202038117	 1.3797326947	 0.0256141865	-0.397731
C	-0.0334916295	 0.281528771	-0.1335624652	 0.06358
O	 0.3720852722	-0.5128498832	-1.2401032823	-0.240631
C	-0.3669174804	-1.6708700951	-1.4443772439	 0.006288
O	 0.2307038964	-2.8134450791	-0.8487750527	-0.220488
C	 0.3549247323	-2.9090926986	 0.5011453098	 0.404328
O	 0.8047626364	-3.9226762316	 0.9697793117	-0.330465
C	-0.0780532831	-1.7927723744	 1.3846746589	-0.206126
C	-0.2293708506	-0.4880450005	 1.1394112533	-0.057804
H	 1.9874566423	 0.939323101	 0.2805906913	 0.141288
H	 1.1206799689	 1.9282325831	-0.9138847995	 0.136459
H	 0.7315482706	 2.0806755581	 0.813272923	 0.123303
H	-0.9997317379	 0.7622458551	-0.3735651967	 0.093296
H	-1.4006115843	-1.5579957124	-1.0891291408	 0.106679
H	-0.3560943623	-1.8912087011	-2.5130472594	 0.133692
H	-0.2230453649	-2.1490439186	 2.3993746209	 0.128494
H	-0.529773178	 0.1423923716	 1.9752796152	 0.115837
