14
gdb 11868	5.30964	1.54088	1.30823	2.9461	65.58	-0.2466	-0.0585	0.1881	895.4116	0.107226	-382.552117	-382.545545	-382.5446	-382.583048	24.987	
O	-0.0062991283	-0.0081977616	-0.0472155356	-0.320175
C	-0.0139951398	 1.1981976573	-0.006629393	 0.373515
C	-1.2649421926	 2.0962184048	 0.0186328867	-0.434643
C	-0.7060206959	 3.5089516859	-0.0502601221	 0.410939
C	-1.3772023714	 4.6556094116	-0.6874351754	-0.242393
O	-1.3064051434	 4.5523202501	 0.7319595085	-0.270058
C	 0.7742643565	 3.3808858665	 0.0087059477	-0.111378
C	 1.1665803813	 2.1003513421	 0.0225508773	-0.193766
H	-1.9356568257	 1.8376726576	-0.8044258446	 0.137556
H	-1.8106974218	 1.9421298264	 0.9544562549	 0.154339
H	-0.7867852294	 5.4564583773	-1.1319710795	 0.118599
H	-2.3649700315	 4.5094572026	-1.1231164343	 0.123608
H	 1.4141347708	 4.2555625902	 0.0402674983	 0.128286
H	 2.1813681713	 1.7251346894	 0.0505491411	 0.12557
