19
gdb 100819	4.21546	0.77494	0.68217	1.1075	74.28	-0.2605	0.0435	0.3039	1604.6679	0.156057	-460.119134	-460.108697	-460.107752	-460.154805	38.098	
O	 0.0675355753	 1.3897760639	-0.3007745685	-0.425304
C	 0.0702917723	-0.0041588368	 0.0126083208	-0.107462
C	-1.3637083298	-0.5405594032	 0.0085708588	 0.110889
O	-2.0138196794	-0.1508492294	-1.1862252196	-0.450272
C	-1.4125181213	-2.0638985452	 0.0986755443	 0.120718
O	-0.7880234044	-2.4177977004	 1.3193208709	-0.44745
C	-2.8651425078	-2.586116568	 0.0315458722	-0.368126
C	-2.9041664026	-4.0310411461	 0.2176973221	 0.256736
C	-2.8591078334	-5.2194523906	 0.4014219989	-0.423334
H	-0.2393193776	 1.8673588213	 0.4774068514	 0.289765
H	 0.6431895482	-0.4842015498	-0.7876494793	 0.116788
H	 0.5623566994	-0.2129732415	 0.9680402472	 0.120259
H	-1.8921087158	-0.1328195034	 0.8908937276	 0.059152
H	-1.6664044683	 0.7283041822	-1.3900683086	 0.290187
H	-0.8620451677	-2.47875024	-0.7609120566	 0.081124
H	-0.913013872	-3.3672197179	 1.4389294272	 0.290116
H	-3.4551593632	-2.0953569889	 0.8158490805	 0.131656
H	-3.3011272448	-2.3008870389	-0.9306733138	 0.155874
H	-2.8595177671	-6.2717062072	 0.5450389447	 0.198684
