15
gdb 3567	5.27493	2.92865	2.74105	1.8403	59.06	-0.2439	0.0678	0.3117	574.4829	0.126962	-308.450204	-308.444961	-308.444017	-308.478871	21.405	
C	-0.0013843432	 1.4554341526	-0.0825865065	-0.288825
C	 1.3299187631	 0.7700351743	 0.0464267374	-0.068332
C	 0.0176403818	-0.0382442147	 0.0506380426	-0.056786
C	 0.4439240388	-0.690544699	-1.2832303132	 0.112774
O	 0.029708043	-0.022292551	-2.5028176713	-0.298842
C	 1.3088325882	 0.6587794436	-2.6117688104	-0.106073
C	 1.7767297226	 0.0765551388	-1.2631185724	-0.066993
H	-0.3215902438	 1.9878315133	 0.8071800918	 0.111413
H	-0.3255279025	 1.9074482942	-1.0134109494	 0.131187
H	 1.9949235175	 0.9835481874	 0.8742803936	 0.088115
H	-0.4740020352	-0.5548173672	 0.8661891998	 0.083713
H	 0.3597492798	-1.7779541175	-1.345704517	 0.076885
H	 1.874156213	 0.2953450431	-3.4789577017	 0.100733
H	 1.1978284731	 1.7471761881	-2.6831950117	 0.102459
H	 2.7392211438	-0.4301638562	-1.2207352016	 0.078573
