18
gdb 94870	2.86767	1.77935	1.39615	1.344	71.44	-0.2362	0.0367	0.2729	954.7989	0.149472	-438.965588	-438.958476	-438.957531	-438.997033	28.927	
O	 0.3197106757	 1.4423943077	 0.2188030484	-0.414483
C	 0.0948492156	 0.0622435536	-0.0207614657	-0.000428
C	 0.7166377188	-0.7437086454	 1.1964740713	-0.100808
O	-0.3177004671	-1.4745000104	 1.9073115064	-0.319869
C	-1.4965105182	-0.9123443649	 1.4291747484	 0.372359
C	-2.9607444421	-1.2698402382	 1.0729790966	-0.240159
N	-2.7447621491	 0.1245602245	 0.4180323512	-0.18562
C	-2.0590364137	 0.4977845015	 1.74516094	-0.244056
C	-1.3490263805	-0.4822769994	 0.0009712838	-0.011676
H	-0.1011124325	 1.9356543906	-0.4935043668	 0.293706
H	 0.5890762454	-0.2358518737	-0.954696043	 0.082919
H	 1.4631822769	-1.4714132316	 0.8693086892	 0.114987
H	 1.1895823408	-0.0171608583	 1.865791726	 0.127483
H	-3.136590855	-2.0722026425	 0.3530134359	 0.110573
H	-3.7162012087	-1.2454841672	 1.861318878	 0.110126
H	-2.7620823171	 0.5887008026	 2.5763933649	 0.096792
H	-1.3971964956	 1.3563377856	 1.6681404774	 0.131635
H	-1.4827094734	-1.2471522544	-0.7684531521	 0.076518
