19
gdb 78216	2.30075	1.54696	1.46051	1.766	70.51	-0.2396	0.0582	0.2978	1025.0765	0.157713	-460.124513	-460.115635	-460.114691	-460.157073	35.329	
C	-0.1577473895	 1.6071424077	-0.0037014996	-0.461434
C	 0.0364016963	 0.0989686824	 0.0042771761	 0.363767
O	-1.1522752761	-0.5639040234	 0.4259995814	-0.482936
C	 0.6568716779	-0.5707957169	-1.2337154995	-0.170333
C	 2.1143260603	-0.2361100738	-1.4027677378	 0.115067
O	 2.6968940789	 1.0087610263	-1.1448919902	-0.437523
C	 1.7534465021	-1.2344600571	-0.3511656363	-0.140467
C	 1.185941845	-0.5314293196	 0.8731760772	 0.054766
O	 2.1340170447	 0.3220994171	 1.5047971118	-0.435173
H	 0.7520859817	 2.1222185489	-0.3135389153	 0.144108
H	-0.949917479	 1.8775684761	-0.7130143305	 0.107006
H	-0.4670751762	 1.9587448817	 0.9870371977	 0.105904
H	-1.8503924769	-0.3379267217	-0.1982958056	 0.274512
H	 0.0713824193	-1.0213707604	-2.0282599577	 0.082502
H	 2.5424975738	-0.6833417246	-2.2977559837	 0.103611
H	 2.8230300563	 1.0678283612	-0.187217694	 0.298001
H	 2.129395639	-2.2503820884	-0.3505440304	 0.088374
H	 0.7337514224	-1.2203255091	 1.5935940339	 0.097472
H	 1.6934416202	 0.7985321037	 2.2164422424	 0.292776
