19
gdb 54371	3.10634	1.34707	1.25289	2.8813	80.98	-0.2358	-0.0094	0.2263	1098.6322	0.159346	-385.86683	-385.85875	-385.857806	-385.899974	30.867	
C	 0.1662157037	 1.3770799793	-0.4557632468	-0.490452
C	 0.006399558	 0.0027413415	 0.1685391511	 0.207334
O	 0.9070175322	-0.5406818806	 0.7791321533	-0.32688
C	-1.2981295204	-0.6501462953	 0.0012779878	 0.307933
C	-2.0818415925	-1.4913703283	 1.0150536191	-0.096674
C	-3.3656860724	-0.724030264	 0.6975001161	-0.227476
C	-2.7086150517	-0.3775411041	-0.6669933983	-0.150161
C	-2.5839159297	-1.7556267388	-1.3733738384	-0.227477
C	-1.5983157474	-2.1293942417	-0.2657655273	-0.096674
H	 1.1716537383	 1.7537584636	-0.2637795273	 0.139498
H	-0.0113294414	 1.3285165795	-1.536322173	 0.135646
H	-0.5748089062	 2.0719413068	-0.0440175565	 0.135638
H	-1.7021487694	-1.8081233171	 1.9771671004	 0.109402
H	-4.3120361273	-1.276641894	 0.6715218762	 0.093498
H	-3.4692254594	 0.1557588662	 1.3376708264	 0.104891
H	-3.0026924833	 0.5112670129	-1.2207656935	 0.074156
H	-3.499863326	-2.3483585812	-1.479877286	 0.0935
H	-2.080737676	-1.6764441463	-2.3403842759	 0.104892
H	-0.8597547489	-2.9196833583	-0.2542651373	 0.109403
