18
gdb 54853	3.04644	1.35568	1.24693	3.57	71.43	-0.2358	0.0271	0.2628	1065.2245	0.149791	-439.10511	-439.097218	-439.096274	-439.137949	30.425	
N	 0.7234712274	 0.2317974477	 0.9079928883	-0.538876
C	-0.1187001788	 0.1775656878	-0.1652705251	 0.38359
O	 0.031580452	 0.8615792595	-1.1604983827	-0.373026
C	-1.2696180314	-0.7956839223	-0.0761810626	-0.140541
C	-1.1290596288	-2.3207684707	-0.105617615	-0.092912
C	 0.1946361995	-2.9576455568	 0.3215770695	-0.256406
C	 0.128368599	-2.8758681645	 1.8596689514	-0.075131
O	-0.749303029	-1.7757837127	 2.1686659085	-0.270269
C	-1.6747664939	-1.6428837498	 1.1117179669	 0.044408
H	 1.4090163706	 0.9702659814	 0.9034951416	 0.252544
H	 0.4370459973	-0.1888281561	 1.7805869934	 0.271942
H	-2.0963401139	-0.4365107097	-0.6807248785	 0.115562
H	-1.7688386969	-2.8599818975	-0.7929894634	 0.104508
H	 0.2597795941	-3.9925602923	-0.0228129488	 0.112155
H	 1.0606010793	-2.4178476836	-0.0697711678	 0.131085
H	-0.2866698832	-3.7978532845	 2.2892439758	 0.10858
H	 1.0920178846	-2.6726473802	 2.333812034	 0.114902
H	-2.7127367179	-1.6850364858	 1.4261168246	 0.107887
