23
gdb 111058	3.00804	1.04255	0.90707	1.4608	86.8	-0.2629	0.0745	0.3374	1408.759	0.205701	-388.238913	-388.229389	-388.228445	-388.273535	36.121	
C	-0.0148282436	 1.5925435884	-0.014715321	-0.372125
C	 0.0256545325	 0.078909318	 0.232086376	-0.236961
C	-1.3507139679	-0.5636420544	 0.1017988092	 0.015725
C	-2.0326995427	-0.8137021651	-1.2866265545	-0.063677
C	-1.0725282476	-2.0191308389	-1.4995593273	-0.261829
C	-1.5470106597	-2.114093609	-0.0157228164	 0.351905
C	-1.1647863393	-3.1550625226	 0.9975168831	-0.225957
O	-1.5365085035	-4.4279698772	 0.4845556496	-0.420463
C	-2.9782948949	-1.8037309076	-0.5493667038	-0.253531
H	 0.9726686703	 2.0445259822	 0.1210885614	 0.109632
H	-0.3485878271	 1.8178539039	-1.033113665	 0.118048
H	-0.7062349587	 2.0883697156	 0.6757629373	 0.113056
H	 0.7481359941	-0.3794615443	-0.4507883855	 0.097571
H	 0.4057988888	-0.110143931	 1.2451669499	 0.092774
H	-2.0316440601	-0.1038070354	 0.8312979083	 0.053629
H	-2.3198198932	-0.0632972217	-2.0246792754	 0.064965
H	-1.429934119	-2.8108777561	-2.1619411785	 0.09731
H	-0.0178777967	-1.8076445425	-1.6835457114	 0.08699
H	-0.0800609308	-3.1033285171	 1.1892591852	 0.085035
H	-1.6763263547	-2.942302041	 1.9512670738	 0.08356
H	-1.2847710172	-5.0954552577	 1.1293370709	 0.287413
H	-3.6837853767	-1.3711835412	 0.1667185766	 0.080964
H	-3.4447030926	-2.5813653854	-1.1581515226	 0.095966
