19
gdb 38067	3.42686	1.43887	1.26535	1.8113	79.96	-0.2422	-0.0015	0.2407	1052.7199	0.160633	-385.863947	-385.856629	-385.855684	-385.895648	29.564	
C	-0.0581063522	 1.5542085342	-0.1039945122	-0.213233
C	 1.4853896006	 1.5488000042	 0.0567827973	-0.258342
C	 1.4002307601	 0.0915223401	 0.6147789003	 0.322021
C	-0.0378509572	 0.0069990075	 0.0072251387	-0.27598
C	 2.4409035706	-0.9231099113	 0.2137914962	-0.169839
C	 2.9753526382	-1.5638681615	 1.2578680326	-0.102122
C	 2.4001171322	-1.027847198	 2.5282120122	-0.015245
O	 2.6741962354	 0.3829044655	 2.7282518795	-0.265374
C	 1.428269307	 0.0060074826	 2.1402694706	-0.030627
H	-0.5581040838	 2.0227240632	 0.7481526236	 0.105638
H	-0.4675282544	 1.9846609939	-1.0202995031	 0.098826
H	 1.9975635969	 1.5751680886	-0.9094641515	 0.09983
H	 1.9462642278	 2.2867515427	 0.716748327	 0.115699
H	-0.8018675034	-0.4780491204	 0.6219532565	 0.098825
H	-0.0258920278	-0.4778627446	-0.9730530887	 0.101527
H	 2.7252345822	-1.0625434917	-0.8244618864	 0.09816
H	 3.7402788875	-2.3294524083	 1.2194549568	 0.103337
H	 2.3380973431	-1.6152101479	 3.4391623566	 0.095941
H	 0.5420475072	 0.2490400713	 2.7227939241	 0.090957
