23
gdb 122201	3.64572	0.72973	0.69791	2.222	82.61	-0.2443	0.0703	0.3146	1732.0652	0.203851	-425.394147	-425.383647	-425.382703	-425.430802	37.175	
C	 0.0818244907	 1.334447926	 0.2067613075	-0.228776
O	 0.0266484976	-0.0620223577	 0.0476868871	-0.226813
C	 0.6387372639	-0.5043248349	-1.1440477254	-0.060065
C	 0.4994980984	-2.021819222	-1.2131349493	-0.276334
C	 1.2541515207	-2.6773866116	-2.3721386255	 0.290401
C	 0.775383753	-2.2113430162	-3.7476892584	-0.459436
C	 2.8016966264	-2.7170871521	-2.2370490655	-0.107862
O	 2.8207484065	-4.1560867662	-2.2911289924	-0.272663
C	 1.3816769976	-4.2208118267	-2.2668423416	-0.117085
H	 1.1199832849	 1.7018346645	 0.2477013374	 0.102806
H	-0.4337255776	 1.8612782542	-0.6123991705	 0.102387
H	-0.4148142224	 1.5772953204	 1.1493572519	 0.12747
H	 0.165363196	-0.021013417	-2.0146573094	 0.087047
H	 1.7048913296	-0.2131959898	-1.1572990193	 0.0852
H	 0.8639172053	-2.4314151983	-0.2637553814	 0.109761
H	-0.5665663655	-2.2749582854	-1.2739121151	 0.104535
H	 0.9603474123	-1.1432910545	-3.9024407988	 0.11889
H	 1.2969169236	-2.7545704718	-4.5422226979	 0.123854
H	-0.2997813187	-2.3858754586	-3.870222185	 0.116523
H	 3.3736772704	-2.2664788301	-3.0579100646	 0.096557
H	 3.191617225	-2.3385452814	-1.2819311797	 0.093492
H	 1.0060563074	-4.651382774	-1.3284883144	 0.094148
H	 0.9803339049	-4.7975868966	-3.1096524497	 0.095965
