9
gdb 3897	5.90177	2.86064	1.92673	0.2386	48.24	-0.2681	-0.1008	0.1674	577.0287	0.05495	-375.30706	-375.301908	-375.300964	-375.336105	18.514	
O	-0.00013226	-0.0342171709	-0.1897216942	-0.326507
C	-0.0138625321	 1.1666475049	 0.0019439132	 0.298196
C	-1.2310349357	 1.969051346	 0.1483714029	-0.022206
N	-1.2469234448	 3.2401906665	 0.3513021968	-0.02566
O	-0.0451379043	 3.9022750956	 0.4386413874	-0.207735
N	 1.1714170761	 3.2728622148	 0.3198271375	-0.025662
C	 1.184591052	 2.0016866784	 0.1169317226	-0.022205
H	-2.2051126976	 1.4912411358	 0.0869644101	 0.165889
H	 2.1692908162	 1.5503377208	 0.0300309723	 0.165889
