20
gdb 10332	2.42639	1.56362	1.03356	3.0779	71.72	-0.2437	-0.0149	0.2288	1177.6921	0.173683	-386.155156	-386.145058	-386.144114	-386.190493	35.531	
C	 0.0092513265	 1.60793682	 0.0124906871	-0.387653
C	 0.0868567849	 0.0781547672	 0.0488426635	-0.204198
C	 0.687085777	-0.540743473	-1.233300473	-0.080502
C	 2.1604846545	-0.1775411898	-1.3158784173	 0.173287
O	 2.636660845	 0.6164264634	-2.0849333655	-0.262205
C	 0.5635081379	-2.0777610677	-1.2844126933	 0.119446
C	-0.8649044011	-2.5731656813	-1.5041913278	-0.407779
O	 1.4458138229	-2.606478538	-2.2753655665	-0.429026
H	 0.9934959826	 2.0597432035	-0.1432744048	 0.136001
H	-0.6390632008	 1.9482197938	-0.8017121169	 0.121645
H	-0.3970251286	 1.9983266463	 0.9502686322	 0.115686
H	 0.6862487134	-0.2452118674	 0.9110699317	 0.103866
H	-0.9157607266	-0.3328542947	 0.2079661787	 0.10715
H	 0.1962382494	-0.1055209145	-2.1143697594	 0.0793
H	 2.7927769883	-0.6942085052	-0.556030627	 0.073454
H	 0.9463930637	-2.4903100899	-0.3420349508	 0.092621
H	-1.5332595557	-2.2800295204	-0.6895157783	 0.123102
H	-1.274933117	-2.1680679611	-2.4374818213	 0.112141
H	-0.8681572885	-3.6640592358	-1.5747297207	 0.130665
H	 1.1688079722	-2.2644658252	-3.1334262006	 0.282998
