23
gdb 80480	2.24535	1.52038	1.324	1.3162	84.77	-0.2327	0.0757	0.3084	1147.0784	0.206078	-388.285348	-388.276179	-388.275235	-388.318747	36.015	
C	-0.1400954753	 1.5459831149	-0.0452027806	-0.41446
C	 0.0323342926	 0.043972914	-0.000062681	-0.029707
C	 1.36367984	-0.6121426493	-0.2571482514	 0.058657
O	 2.4789745098	 0.2268101989	-0.1000282484	-0.273309
C	 2.9420758813	 0.1253374441	 1.2579803691	 0.145796
C	 3.7401868021	 1.3740273724	 1.5898305285	-0.409125
C	 1.6807614627	-0.1913589056	 2.1270538428	-0.032971
C	 1.1250710492	 0.9482133976	 2.991854164	-0.404305
C	 0.717049799	-0.7827714807	 1.0901726595	-0.101012
H	 0.8035638874	 2.0583095724	 0.1496650614	 0.132424
H	-0.4740062005	 1.8484078838	-1.0440775156	 0.112558
H	-0.8884425127	 1.8958973963	 0.6729730885	 0.113448
H	-0.8082062276	-0.4985189884	-0.4297147285	 0.081372
H	 1.4927946621	-1.410017385	-0.9837010605	 0.084851
H	 3.6139637458	-0.7462833654	 1.320210293	 0.067379
H	 3.1199798177	 2.2729616698	 1.5427635602	 0.123673
H	 4.16930585	 1.3000214347	 2.593974537	 0.114331
H	 4.5610571133	 1.4896519644	 0.876799216	 0.125594
H	 1.950930036	-1.0031364726	 2.8130219777	 0.073588
H	 0.8718977268	 1.8374599203	 2.4122822302	 0.123935
H	 0.2145314966	 0.6181234899	 3.5022568439	 0.113121
H	 1.845051872	 1.2437205318	 3.7620103113	 0.110036
H	 0.2274901318	-1.7145953783	 1.3509553129	 0.084126
