17
gdb 4792	4.94097	1.36282	1.0827	1.0938	72.07	-0.177	0.0662	0.2432	1093.7528	0.142311	-363.893083	-363.884756	-363.883812	-363.925771	30.315	
C	 0.3619433253	 0.7513770245	-0.6565325678	-0.242763
O	 0.1906017053	 0.8825640734	 0.7434821017	-0.259515
C	 0.6623717197	-0.1537359972	 1.4721133656	 0.429513
C	 1.2871551615	-1.3371157481	 1.1546614462	-0.395851
C	 1.5394564451	-2.0166774683	 2.395230971	 0.29172
C	 2.2045653466	-3.3498586491	 2.5551763129	-0.498737
C	 1.0590353818	-1.2190346539	 3.4012901156	-0.18369
N	 0.5223973735	-0.0779510302	 2.8276662522	-0.335602
H	-0.1635406527	-0.1336807501	-1.0374497664	 0.125812
H	-0.0609529017	 1.6503427693	-1.107313214	 0.13262
H	 1.4248229575	 0.6730972933	-0.9186661497	 0.12581
H	 1.5391289549	-1.6873009703	 0.1668134285	 0.087343
H	 1.6568507689	-4.144335934	 2.0337753465	 0.119489
H	 3.2239878801	-3.348504695	 2.150435023	 0.119484
H	 2.2696361967	-3.6326456146	 3.6101730197	 0.115251
H	 1.04985159	-1.3586925551	 4.4700127576	 0.109554
H	 0.0944283977	 0.6940312055	 3.3069367874	 0.259561
