17
gdb 10202	3.37492	1.32187	1.00979	2.4085	65.56	-0.2666	0.0114	0.278	1165.4012	0.13962	-400.980435	-400.970778	-400.969834	-401.015739	31.929	
C	-0.7808865753	 1.0614895264	-0.4581605022	-0.249444
O	 0.1570829946	 0.397171249	-1.289430288	-0.238298
C	 1.0547553659	-0.4505603633	-0.6182577677	-0.101212
C	 0.7187000864	-1.9298238868	-0.8915901816	-0.016311
O	 1.7404779931	-2.7018137346	-0.3145738567	-0.231657
C	 1.7031304778	-4.0765648226	-0.66128249	-0.24835
C	-0.6112496583	-2.2925730878	-0.3487966098	 0.281542
N	-1.6360048237	-2.5948296689	 0.092338108	-0.335892
H	-1.4287325624	 0.3578084982	 0.0788171201	 0.137305
H	-0.2778076644	 1.712569031	 0.2711233608	 0.111941
H	-1.3977372911	 1.6790313923	-1.1147900305	 0.134233
H	 2.0658001487	-0.2810333174	-1.0050855377	 0.122879
H	 1.0696944864	-0.275725564	 0.4644758734	 0.118047
H	 0.6752045329	-2.072083087	-1.9831554488	 0.122243
H	 0.7846100235	-4.5591943318	-0.3024037056	 0.136817
H	 1.7760242528	-4.2148548309	-1.7497967469	 0.11583
H	 2.565049553	-4.5434673521	-0.1815592767	 0.140328
