19
gdb 41694	3.06238	1.79485	1.504	2.9241	72.9	-0.2286	0.0776	0.3062	932.8767	0.162683	-422.998105	-422.991474	-422.99053	-423.028946	27.404	
C	 0.0382801071	 1.4531851867	 0.3242221067	-0.075518
O	 1.399618582	 1.5876276592	-0.1386441281	-0.297177
C	 1.3843847398	 0.262986314	-0.6985022136	 0.135414
C	-0.0127311907	-0.0402121588	-0.0766762575	-0.062969
C	-1.1043863185	-0.5085065772	-1.0639126678	-0.249495
C	-0.5885283866	-0.3761619138	-2.4973923094	 0.104766
C	 0.7641817651	-1.0955799779	-2.698417692	-0.260588
C	 1.3159784751	 0.260871161	-2.2173520241	 0.061423
O	 0.0807496533	 0.9125083593	-2.6292753966	-0.295082
H	-0.0496002097	 1.671797077	 1.3952125806	 0.095052
H	-0.6454394389	 2.0960502441	-0.241737081	 0.1094
H	 2.2318635092	-0.3406130426	-0.3465501263	 0.072104
H	 0.0447292778	-0.696748221	 0.7925581101	 0.081472
H	-1.3946288904	-1.548654869	-0.8746602281	 0.099118
H	-2.0067786713	 0.1010981743	-0.939264178	 0.107763
H	-1.3689786109	-0.5148635888	-3.2501795149	 0.077238
H	 0.9737848343	-1.9837856047	-2.0961219626	 0.098785
H	 0.9828734102	-1.2897644554	-3.7490774022	 0.114197
H	 2.194937283	 0.7052234835	-2.6915079854	 0.084095
