19
gdb 99614	2.20017	1.31415	1.05072	1.5468	77.65	-0.263	0.0289	0.2919	1245.1745	0.154979	-422.956625	-422.946445	-422.9455	-422.99186	36.598	
C	 0.1926742072	 1.5669167563	-0.6856886307	-0.236242
O	-0.2292830565	 0.2262714642	-0.8402563603	-0.236497
C	 0.8048401281	-0.6668611881	-1.220276068	-0.124724
C	 1.8405501838	-0.8012037522	-0.185545268	 0.345547
C	 2.6832562147	-0.9056238391	 0.6652214348	-0.467154
C	 0.1334749729	-2.0064740938	-1.5300339203	 0.411509
C	-0.5746820919	-2.6815151599	-0.381758169	-0.470516
C	-0.2658970639	-2.2524898661	-2.9208755929	-0.230123
O	 0.9200443152	-2.8454027194	-2.3788267286	-0.278453
H	 0.9419196512	 1.6690266389	 0.1100926996	 0.123946
H	 0.617166309	 1.9641560568	-1.6205377077	 0.10609
H	-0.6937723556	 2.1480305969	-0.4227375309	 0.130177
H	 1.2883792063	-0.3158580445	-2.1464427326	 0.096836
H	 3.4333683969	-1.003558671	 1.4110536003	 0.202121
H	-1.3479561875	-2.0214996536	 0.0202248514	 0.140238
H	-1.0349054955	-3.6145345975	-0.7147229789	 0.122149
H	 0.1327005854	-2.9082711281	 0.4213460513	 0.137658
H	-1.0814752397	-2.9438509555	-3.1266173524	 0.115033
H	-0.1032665301	-1.4882426042	-3.6798253472	 0.112402
