17
gdb 58836	3.51767	1.30616	1.12635	2.119	67.02	-0.2563	0.0368	0.2931	1096.5961	0.133268	-458.861181	-458.853023	-458.852079	-458.893877	31.467	
C	-0.0379515276	 1.5585114408	 0.1922219616	-0.402225
C	 0.0365274203	 0.0363682059	 0.0235969856	-0.011249
O	 0.7007282454	-0.5852914233	 1.1094332666	-0.428797
C	-1.3343156964	-0.5616047998	-0.1409869576	 0.413212
O	-2.0975998325	-0.7859936651	 1.0530999736	-0.273698
C	-1.8703670555	-1.8865380332	 0.1608938984	-0.11811
C	-2.8890037009	-1.7528249685	-1.0414682545	-0.008304
O	-3.6804904203	-0.5864242695	-0.8302798153	-0.208718
C	-2.3615536352	-0.4231843402	-1.3451483938	-0.079217
H	 0.9668838065	 1.9618609889	 0.3386561049	 0.12787
H	-0.481349234	 2.0356293991	-0.6883250911	 0.116122
H	-0.6494586005	 1.8167935397	 1.0629018207	 0.129679
H	 0.6308402722	-0.2004524658	-0.8682944266	 0.09681
H	 0.0632791012	-0.6056730264	 1.8353509884	 0.289955
H	-1.3997039015	-2.7806055724	 0.5489862174	 0.122828
H	-3.2758238787	-2.5386731231	-1.6775159331	 0.118156
H	-2.2274989625	 0.1063870331	-2.2802293249	 0.115685
