16
gdb 82653	2.43685	1.75608	1.36978	3.2151	63.82	-0.2156	0.0597	0.2754	961.6403	0.124139	-474.928224	-474.920441	-474.919497	-474.959965	30.996	
O	 0.0798653823	 1.4496442068	 0.0660506108	-0.453708
C	 0.0429901996	 0.0539857581	 0.0223591449	 0.125147
C	 0.2741852687	-0.7111301234	 1.3600714369	-0.193636
N	-0.7398706506	-0.0340439239	 2.2403617409	-0.332329
C	-1.7616873305	-0.7738250112	 1.4655174122	-0.225016
C	-1.2968096369	-0.6822994199	-0.0215175347	 0.297566
O	-2.178088434	-0.8212230003	-1.0664538541	-0.46244
C	-0.8034626593	-1.7875493265	 0.8712551621	 0.307482
O	-0.7935101432	-3.1324229908	 0.6354975598	-0.438704
H	-0.2930421798	 1.6743409263	 0.9330446608	 0.284682
H	 0.7111862868	-0.29421341	-0.7696820331	 0.097053
H	 1.271376468	-0.8733729872	 1.7626807735	 0.081901
H	-0.6803992127	-0.4294405778	 3.1769551552	 0.220089
H	-2.8135169847	-0.8236616678	 1.7163503038	 0.10359
H	-2.6095007625	 0.0289923507	-1.2094235827	 0.294674
H	-0.8031317812	-3.5973327832	 1.4800046837	 0.293649
