17
gdb 3560	5.04331	2.94204	2.89961	0.1781	66.56	-0.2489	0.0989	0.3478	591.5789	0.152218	-272.542567	-272.537534	-272.53659	-272.570884	22.032	
C	-0.0182487197	 1.5275498397	 0.0180951949	-0.310509
C	 1.3081523454	 0.8121187082	-0.0639518544	-0.021535
C	 0.0105063557	 0.0203369448	-0.0553128251	-0.021536
C	 0.1248855349	-0.6934626714	-1.4179931254	-0.03228
C	 1.6195365782	-1.1715747823	-1.3545388981	-0.204898
C	 1.8773576432	 0.375837456	-1.4296554434	-0.03228
C	 0.6532504727	 0.4008280835	-2.385000073	-0.228527
H	-0.2619584472	 1.9376180883	 0.9939275588	 0.104649
H	-0.3927219276	 2.1323493061	-0.7990416225	 0.110491
H	 1.9771530644	 0.8313193165	 0.7889530232	 0.082024
H	-0.3042634813	-0.5607402741	 0.8041325405	 0.082024
H	-0.686251162	-1.364016503	-1.7031704814	 0.057081
H	 1.9444698549	-1.6942433746	-0.4502777873	 0.085328
H	 1.9433955294	-1.7120968889	-2.2488103401	 0.087472
H	 2.8418465829	 0.7887135048	-1.7266500356	 0.057081
H	 0.9029388725	-0.0190365983	-3.3616164755	 0.094453
H	 0.0893293034	 1.3234938649	-2.5265885955	 0.090964
