23
gdb 105531	2.42034	1.31946	1.04421	1.954	84.52	-0.2422	0.0773	0.3195	1275.217	0.205435	-388.254744	-388.245165	-388.244221	-388.289912	35.842	
C	 0.2551699096	 1.4439396055	 0.0929105361	-0.402332
C	-0.0514757022	-0.0579505414	 0.0925767917	-0.237291
C	-1.5321165766	-0.4724626695	 0.002182506	 0.275931
C	-2.487409081	 0.2957300391	 0.9549021856	-0.124843
O	-3.0958981915	 1.0028301824	-0.1415979034	-0.277101
C	-2.3516134726	 0.2381148075	-1.1103743622	-0.108664
C	-1.6224033487	-1.987341517	-0.0001232107	-0.036951
C	-1.7726390719	-2.7811642411	 1.2741556328	-0.275107
C	-2.8971431573	-2.7449861675	 0.2678757062	-0.293779
H	 1.3368986388	 1.6034483759	 0.1379111345	 0.113369
H	-0.1116815665	 1.9407764062	-0.8100378505	 0.124297
H	-0.1854567962	 1.9560801145	 0.9532393738	 0.123085
H	 0.4779230694	-0.527075063	-0.7481190877	 0.095422
H	 0.3693186932	-0.5121845767	 0.9992036604	 0.101568
H	-3.2161450278	-0.320575343	 1.4967657915	 0.093713
H	-2.0140195516	 0.9757533339	 1.6724885313	 0.097434
H	-1.7958967263	 0.8810818064	-1.8033098203	 0.095019
H	-3.0004183924	-0.4321842558	-1.6884977832	 0.09552
H	-0.9746126724	-2.4401673905	-0.7484599296	 0.081543
H	-1.204350383	-3.6974906265	 1.3883105908	 0.112493
H	-1.9119446334	-2.2314389298	 2.1998693409	 0.113408
H	-3.7926224484	-2.1888623177	 0.5232378924	 0.121956
H	-3.0891214614	-3.635612012	-0.3203397265	 0.111308
