21
gdb 118556	1.71003	1.07544	0.72979	3.4745	76.92	-0.2428	-0.0195	0.2233	1595.7305	0.178947	-461.361995	-461.35105	-461.350106	-461.399815	37.62	
C	 0.0072867025	 1.4845158232	-0.1604166911	-0.386401
C	-0.0551141267	-0.0310534041	-0.0815488611	-0.048534
O	 0.6692519588	-0.5658202906	-1.1829375249	-0.271065
C	 0.694753	-1.993021405	-1.2585832328	 0.069349
C	-0.5337864892	-2.4706281534	-2.0449219555	-0.068014
O	-0.5872141492	-1.8597949729	-3.3175800321	-0.416936
C	 2.0034927417	-2.3834151156	-1.9582387079	-0.276021
C	 3.2342742571	-1.9242247273	-1.2108131261	 0.149354
O	 4.1807124823	-2.6281282089	-0.9622813349	-0.244239
H	 1.0450214187	 1.8284091847	-0.1348686104	 0.132191
H	-0.4500169869	 1.8430787512	-1.0871384615	 0.125978
H	-0.5276136814	 1.9297775312	 0.6834623022	 0.122687
H	 0.3889515027	-0.3902998846	 0.8598854715	 0.099665
H	-1.100584279	-0.3733600996	-0.0990501538	 0.097906
H	 0.6695369784	-2.4222105517	-0.2448494638	 0.078869
H	-0.4866415038	-3.5530991929	-2.2026040405	 0.113635
H	-1.4446397827	-2.26173626	-1.4609602099	 0.090001
H	-0.4471292082	-0.9174170297	-3.1592413698	 0.286883
H	 2.0605337556	-3.4661642034	-2.0987679182	 0.121132
H	 1.9990120828	-1.9118721775	-2.9495329295	 0.137434
H	 3.2105440565	-0.8584715831	-0.8976599398	 0.086126
