17
gdb 33544	2.21231	1.67259	1.17156	5.0216	72.06	-0.2591	-0.0034	0.2556	1078.8801	0.136464	-417.965469	-417.95712	-417.956176	-417.999032	30.384	
N	-0.1597853668	-1.1828712874	-0.207445774	-0.328344
C	-0.1055613731	-0.0329102885	-0.1082264256	 0.270198
C	-0.0551730467	 1.4329438451	 0.0464828011	 0.228919
C	-0.2128631231	 1.90984127	 1.5217326147	-0.322444
C	 1.2680187907	 2.3138279317	 1.3989690697	-0.073034
O	 1.3086093028	 1.9069088256	 0.0047111741	-0.307403
C	-0.9235225615	 2.1035019438	-1.0024318266	-0.035447
C	-0.6494298081	 3.5080402011	-1.3849662403	-0.251212
N	-0.352449978	 2.4049204632	-2.317428478	-0.315141
H	-0.9155903157	 2.7360347396	 1.6290021718	 0.132356
H	-0.4388144233	 1.1299036017	 2.2473350585	 0.140432
H	 1.4947826541	 3.378271178	 1.5113804857	 0.120862
H	 1.966492222	 1.7259238277	 2.0026345925	 0.128696
H	-1.9442785416	 1.7273212469	-1.0265122207	 0.11276
H	-1.4718215104	 4.1525503455	-1.6804735653	 0.124383
H	 0.1882924996	 4.0084702713	-0.9094209674	 0.123016
H	 0.6496897292	 2.2215333549	-2.2900041001	 0.251401
