20
gdb 39416	2.34971	2.02885	1.33544	0.9927	78.72	-0.2134	0.0813	0.2947	1005.4786	0.173543	-403.09309	-403.085677	-403.084733	-403.124924	30.07	
C	 0.2059392486	 1.6634285355	 0.0444416525	-0.301328
C	 1.2934693063	 0.6783256244	-0.3047414929	-0.032203
C	 2.538648692	 0.5215293647	 0.5466150046	-0.112857
O	 2.3009703452	 0.2747749469	 1.9192091869	-0.23933
C	 1.8488520992	-1.0367770331	 2.1957957897	-0.121147
C	 0.3376194322	-1.1634685413	 2.2268871411	-0.002391
C	-0.4771670691	 0.0260338909	 2.6087823295	-0.25426
N	-0.5234741626	-0.5102232067	 1.2591565685	-0.089843
C	-0.1001072844	 0.1876950169	 0.07005924	 0.021084
H	 0.2945280009	 2.1575087011	 1.006158338	 0.121899
H	-0.2314450761	 2.2782740799	-0.734641122	 0.109708
H	 1.5187900877	 0.5834269473	-1.3653121486	 0.084227
H	 3.1611968325	-0.2867173053	 0.1284716848	 0.090853
H	 3.1336883217	 1.4416828376	 0.5109397108	 0.109099
H	 2.2754330178	-1.7477435637	 1.4708032028	 0.095704
H	 2.2381333157	-1.3101097428	 3.1851868663	 0.111558
H	 0.0074177701	-2.1593827411	 2.5287250638	 0.082195
H	-1.392380117	-0.0797990902	 3.1874682634	 0.106798
H	 0.0843694707	 0.9373833446	 2.7969840449	 0.124519
H	-0.6617169216	-0.1743231655	-0.7881174743	 0.095717
