27
gdb 118062	3.26025	0.69501	0.60406	1.4062	93.35	-0.2601	0.0735	0.3335	1995.2464	0.249551	-390.707454	-390.69533	-390.694385	-390.745252	44.049	
C	-0.0577921202	 1.6202063687	-0.1156851297	-0.377944
C	 0.0026685705	 0.0896582516	-0.1096201248	-0.175369
C	-1.3685691534	-0.5548144614	 0.1260689855	-0.165575
C	-1.3709364683	-2.0971427378	 0.1237064405	 0.007069
C	-0.7193209557	-2.6621689017	 1.3957238939	-0.407313
C	-2.8079435714	-2.6303924732	-0.0855297752	 0.131957
O	-3.3817674535	-2.0905406129	-1.2791613643	-0.428705
C	-2.9198607968	-4.1618642984	-0.0850514455	-0.200444
C	-4.3526074534	-4.6578492626	-0.3011651428	-0.377154
H	 0.9274320308	 2.0598824201	-0.3009662222	 0.107998
H	-0.7386908869	 1.9855133978	-0.8924722169	 0.114475
H	-0.4187485705	 2.0052450089	 0.8446327957	 0.112935
H	 0.4050048787	-0.2630266486	-1.0691422225	 0.089395
H	 0.7173494883	-0.2375208915	 0.6556820356	 0.0942
H	-1.7773040196	-0.2014851456	 1.0843728299	 0.083506
H	-2.0610155094	-0.2094596768	-0.6481819979	 0.109701
H	-0.7793617702	-2.435818865	-0.7436855016	 0.052661
H	-1.3506314796	-2.4721354954	 2.2724390578	 0.1136
H	-0.547957571	-3.7397184502	 1.3331543709	 0.115663
H	 0.2499952654	-2.1916188326	 1.5824058325	 0.116026
H	-3.4438064654	-2.2324829528	 0.7182376487	 0.081834
H	-2.8629941213	-2.4216821016	-2.0214740322	 0.27363
H	-2.2616333074	-4.5622899044	-0.8713726688	 0.081482
H	-2.53657621	-4.5552520892	 0.8619465752	 0.101861
H	-4.3907891259	-5.7509374247	-0.3336276866	 0.106188
H	-5.0082353184	-4.3246004771	 0.5111193261	 0.113319
H	-4.7638213651	-4.2677125735	-1.2351596511	 0.125004
