16
gdb 133629	3.66682	0.89443	0.84904	1.4845	57.36	-0.2529	0.0729	0.3258	1323.3573	0.120706	-569.376092	-569.367636	-569.366692	-569.410741	29.804	
F	 0.1712758114	 0.1216839973	-0.117849458	-0.083802
C	-0.0180734387	 1.4444761787	 0.0230059061	 0.285691
F	 1.1985871163	 2.0200258741	 0.0142618677	-0.081953
F	-0.6725720625	 1.8749020832	-1.0649843794	-0.074557
C	-0.7794802021	 1.7674962003	 1.2926994888	-0.36167
C	-0.0399046427	 1.3206042337	 2.5465173986	-0.026357
C	 1.1800870092	 2.1475413416	 3.0158069323	-0.082411
O	 0.5974646201	 2.3431271827	 4.3208381035	-0.268529
C	-0.6370312766	 1.7247820298	 3.9131436888	-0.098729
H	-0.9553611924	 2.8481867836	 1.3052132004	 0.133058
H	-1.7545382699	 1.2748823689	 1.2170661258	 0.134521
H	 0.1790720548	 0.2525162486	 2.485901804	 0.101073
H	 2.1398325019	 1.6223353973	 3.0653775259	 0.112559
H	 1.3212124519	 3.0958179801	 2.4814362596	 0.104706
H	-1.4617561072	 2.4498600323	 3.8553050261	 0.097764
H	-0.9317043436	 0.9069667778	 4.5806331497	 0.108637
