23
gdb 84847	2.43501	1.67396	1.25454	0.2083	90.64	-0.2346	0.034	0.2685	1122.8765	0.208665	-351.164115	-351.156058	-351.155114	-351.196135	33.221	
C	-1.0675109299	 1.0573590304	 0.2114188132	-0.397763
C	-0.0043955775	-0.02761602	-0.0545523394	-0.028303
C	 0.7125484926	 0.2648112783	-1.352011746	-0.044246
C	 2.0120467938	 0.3804443984	-1.6362824033	-0.063666
C	 3.2272506567	 0.2469396471	-0.7565443668	-0.260087
C	 3.0000134346	-0.0689436217	 0.7189351964	 0.003552
C	 2.0337970094	-1.2623798731	 0.9662753412	-0.250789
C	 0.8828465316	-0.238940885	 1.176411505	 0.009957
C	 1.9610079997	 0.8607849548	 1.4061844195	-0.236308
H	-0.5993441476	 2.02778526	 0.4063987383	 0.120464
H	-1.7340739685	 1.1782953871	-0.6485578688	 0.110263
H	-1.6818364984	 0.7967624545	 1.0796692956	 0.108996
H	-0.551733211	-0.9724404888	-0.211191704	 0.078385
H	 0.0243476124	 0.4058631935	-2.186037319	 0.076864
H	 2.2607611698	 0.6023619598	-2.6739778388	 0.07964
H	 3.875968293	-0.5292787856	-1.1915547111	 0.103344
H	 3.8101420182	 1.1777497366	-0.8374126508	 0.102894
H	 3.9714531354	-0.1388117009	 1.217500854	 0.058173
H	 1.9162947533	-1.9901277162	 0.157725719	 0.094182
H	 2.2755673889	-1.7991670644	 1.8877921153	 0.090814
H	 0.2339315722	-0.4390403168	 2.034947311	 0.056209
H	 2.1767646789	 1.0025414771	 2.4686844251	 0.0917
H	 1.7917361026	 1.841346925	 0.9520172244	 0.095722
