16
gdb 85481	3.19485	1.22116	0.97839	1.4694	68.95	-0.2846	-0.0086	0.276	1166.7318	0.124681	-437.952011	-437.943788	-437.942844	-437.98516	30.068	
C	 0.165364846	 1.6326959681	-0.1035129981	-0.4067
C	 0.0673881137	 0.1202951714	 0.0321292836	 0.106151
O	 0.6399250534	-0.518909805	-1.1233841632	-0.219851
C	 1.885917812	-1.0134607629	-0.8786588047	 0.427974
O	 2.555184621	-1.5219846588	-1.7257188176	-0.321607
C	 2.2293814625	-0.8009345829	 0.5929782548	-0.375605
C	 0.8605445886	-0.5012296819	 1.2276199807	-0.188136
C	 0.9039956416	 0.3336636691	 2.4204063333	 0.28163
N	 0.9385904379	 0.9952294512	 3.3673297824	-0.319244
H	 1.2070457582	 1.9680326454	-0.1166210301	 0.132926
H	-0.306346783	 1.9444704972	-1.038319759	 0.144202
H	-0.3432413491	 2.1256513531	 0.7289064251	 0.150257
H	-0.9797298262	-0.1889372012	 0.0699149283	 0.117969
H	 2.7295585671	-1.6779005174	 1.0029345503	 0.16065
H	 2.9160858257	 0.0466743196	 0.6769212305	 0.16334
H	 0.3803310106	-1.4476571449	 1.4981354537	 0.146047
