16
gdb 98873	4.32578	1.02834	0.93431	1.408	66.08	-0.2539	-0.005	0.2489	1254.6875	0.124681	-475.061395	-475.052841	-475.051897	-475.09612	29.213	
C	 0.5964018258	 1.3862614926	 0.0345829697	-0.242075
O	 0.5560366359	-0.0479978705	 0.011065555	-0.225333
C	 0.1225269784	-0.5930722324	-1.1322190123	 0.458944
O	-0.2649686747	 0.0360098263	-2.0847751888	-0.359226
C	 0.2097283352	-2.1180369057	-1.067827538	-0.109043
C	-0.6515586163	-2.8083358161	-2.1503100609	-0.124183
O	 0.3087670941	-3.5673395242	-2.9293654647	-0.213572
C	 1.5106199124	-3.2837370769	-2.3918448785	 0.130655
N	 1.601639725	-2.5244816757	-1.3787122364	-0.273463
H	 1.2659850534	 1.7621338226	-0.742724703	 0.146313
H	-0.4014516876	 1.8013168282	-0.127204156	 0.141875
H	 0.9684085012	 1.6551597217	 1.0228230243	 0.137917
H	-0.0329102144	-2.4328984472	-0.0489045697	 0.11108
H	-1.3882042592	-3.5057623505	-1.7473948962	 0.122592
H	-1.1330504281	-2.0820370193	-2.80790881	 0.148869
H	 2.349448219	-3.7599725129	-2.8873426046	 0.148651
