18
gdb 65309	2.52881	1.45673	1.11157	2.1984	73.4	-0.2523	-0.0446	0.2077	1125.4706	0.145791	-439.047957	-439.039031	-439.038087	-439.081731	32.298	
C	 0.2217597533	 1.6377023157	-0.1092132347	-0.479594
C	-0.0300801854	 0.1548641088	 0.0325294744	 0.149815
N	 1.1106925157	-0.7574345168	-0.2223201486	-0.399486
C	 0.6166054688	-0.6565062252	 1.1221495796	 0.261233
C	 1.4015355763	-0.1944167578	 2.3455416422	-0.134128
O	 0.7399444514	-1.1900269877	 3.1550672247	-0.275028
C	 0.0259115021	-1.7375772021	 2.0231354979	-0.145437
C	-1.3658207679	-0.3549725008	-0.3926198185	 0.10512
O	-1.5995404575	-1.5242683856	-0.5993338492	-0.276834
H	 1.1976904345	 1.9030460363	 0.3020856339	 0.140351
H	 0.2111638863	 1.9386043846	-1.1619944565	 0.13483
H	-0.5432558435	 2.2174800216	 0.4188746827	 0.126141
H	 0.740134459	-1.6074538136	-0.6529967429	 0.247192
H	 2.4838918375	-0.3600311104	 2.2747517191	 0.116401
H	 1.2091042165	 0.8246089579	 2.7028584752	 0.10766
H	-1.0593772191	-1.7323413591	 2.1684373264	 0.118102
H	 0.3511128633	-2.7581070995	 1.7831313922	 0.114036
H	-2.1562160215	 0.4176985635	-0.5052891378	 0.089624
