19
gdb 17690	4.60054	1.61701	1.56174	1.082	76.11	-0.2287	0.0912	0.3199	906.6245	0.167122	-327.844608	-327.837763	-327.836819	-327.875787	27.488	
C	-0.1532447138	 1.3070435067	-0.2192567006	-0.234547
C	 1.2561730468	 0.9210312466	 0.063315874	-0.234546
N	 0.1862213224	-0.0720720728	 0.1234667202	-0.174643
C	-0.2012638731	-0.5428049356	 1.4135612802	 0.4014
C	-0.2799994959	 0.1932055096	 2.8081051992	-0.269711
C	-0.7300508947	-1.2722985528	 3.0557527622	-0.040372
C	-1.5788737928	-1.1752923878	 1.7561677406	-0.258102
C	 0.4591237019	-1.7320563027	 2.1650848412	-0.258073
H	-0.6615538524	 1.9095277223	 0.530517969	 0.113619
H	-0.4883638498	 1.4663574957	-1.2399713157	 0.116545
H	 1.9673075666	 0.7937836874	-0.7476339803	 0.116542
H	 1.6858068219	 1.2666433168	 1.0011303903	 0.11361
H	 0.6662419845	 0.49512271	 3.2660152034	 0.087733
H	-1.0480717019	 0.9634609648	 2.9220408075	 0.087736
H	-1.0379266457	-1.6997505129	 4.0081733194	 0.076203
H	-2.4380578973	-0.498686535	 1.7790232298	 0.085552
H	-1.8174188003	-2.1147071408	 1.2508150754	 0.092754
H	 0.3700138702	-2.7122983794	 1.689722083	 0.092755
H	 1.4645916234	-1.5648540302	 2.5620665813	 0.085546
