14
gdb 66870	3.78795	1.83948	1.61825	2.9801	63.84	-0.2096	-0.0601	0.1494	809.8709	0.1	-436.536276	-436.530004	-436.52906	-436.566426	26.224	
O	-0.106889065	 1.4347012123	 0.0471292302	-0.45829
C	 0.0436181524	 0.0722387911	-0.03688622	 0.378136
C	 0.0228034136	-0.9219356056	 1.1171546221	-0.10714
N	 0.9185772484	-2.0480979737	 1.0181581915	-0.196531
C	 1.1800600809	-2.0183206346	-0.2345179746	 0.218357
O	 0.5253124318	-2.9163126841	-1.0951824771	-0.28123
C	-0.3431411617	-1.6875474786	-1.2919310677	 0.11079
C	-1.0375889151	-1.0010261513	-0.0462353067	-0.191158
C	 0.8330636458	-0.740926145	-1.0547314379	-0.230083
H	 0.6316434319	 1.7957517783	 0.550921051	 0.296528
H	-0.3321283312	-0.6099287359	 2.0928510116	 0.114022
H	-0.9023587222	-1.7626460974	-2.2218638212	 0.126051
H	-2.0973616076	-0.9328507957	 0.151448099	 0.112046
H	 1.4840163181	-0.3800603098	-1.84339105	 0.108504
