22
gdb 78037	2.44344	1.4483	1.27308	2.3859	82.15	-0.2138	0.0676	0.2814	1141.5211	0.193803	-404.330711	-404.321174	-404.32023	-404.364997	36.207	
C	 0.119989863	 1.5911277844	 0.2624288133	-0.321938
N	 0.1418043979	 0.1369872153	 0.1715238179	-0.119838
C	 1.2407544615	-0.6540876424	-0.3561652481	-0.08599
C	 2.6417084544	-0.0816668708	-0.4539566776	 0.124937
O	 2.7009962445	 0.8767635129	-1.5067559397	-0.43808
C	 2.9630781125	 0.4976390343	 0.9484660567	-0.279302
C	 1.9779135385	-0.1739798138	 1.9331184538	-0.274943
C	 0.839863523	-0.7543240018	 1.0876152486	 0.317711
C	 0.0339788246	-1.889443756	 1.6743806829	-0.467193
H	 0.8000530986	 2.0222807408	 1.0089522518	 0.100773
H	 0.3738305959	 2.0192026465	-0.709769738	 0.141411
H	-0.8955941392	 1.9052864607	 0.5277663982	 0.114578
H	 0.9570881079	-1.3955598142	-1.1008768844	 0.080667
H	 3.3241159223	-0.917585703	-0.6794557531	 0.064607
H	 3.6085030004	 1.1901633827	-1.5742635899	 0.281717
H	 4.0048281455	 0.3190446976	 1.2313719024	 0.094218
H	 2.8245566473	 1.5810239427	 0.9122469123	 0.112123
H	 2.4631764263	-0.9959532608	 2.4707613177	 0.101447
H	 1.6119126445	 0.521479912	 2.6981722326	 0.10162
H	-0.4752418639	-1.5722782392	 2.5924281934	 0.11503
H	-0.7286968262	-2.220335437	 0.9657271697	 0.127052
H	 0.6751209209	-2.7413191308	 1.9283263495	 0.109394
