17
gdb 8561	4.02954	2.02474	1.72066	3.2768	68.89	-0.2483	0.0263	0.2746	804.275	0.145194	-363.869679	-363.863395	-363.862451	-363.90011	25.494	
N	-0.0411114326	 1.1990375282	-0.5168920635	-0.529464
C	-0.0079236981	 0.0360519986	-0.0208895031	 0.39416
C	-1.2861769854	-0.7601827301	 0.2178223484	-0.283673
C	-0.9891204168	-2.1333946432	 0.8235345335	-0.032425
C	 0.0235506413	-1.9468751708	 1.9919063933	-0.243202
C	 1.0973695081	-1.8876872446	 0.8810181476	 0.124246
C	 0.176360519	-2.7833215463	 0.0206441235	-0.243199
O	 1.1726724474	-0.5648849531	 0.3255636096	-0.259975
H	 0.9067011881	 1.5721482806	-0.6017245107	 0.21757
H	-1.9355109545	-0.1696693327	 0.8726107261	 0.133257
H	-1.8105165609	-0.8534973402	-0.7389701172	 0.133258
H	-1.8982802665	-2.7114134444	 0.9983216012	 0.071859
H	-0.0767103937	-1.0717922178	 2.6392811762	 0.108527
H	 0.1273167242	-2.8496647977	 2.5984049769	 0.107364
H	 2.1279627632	-2.1781968044	 1.0841775028	 0.085807
H	 0.3082783187	-3.8402213699	 0.2639496072	 0.107364
H	 0.2102765087	-2.6426845122	-1.0628628717	 0.108525
