12
gdb 875	6.52191	2.21118	1.66614	2.0293	52.69	-0.1916	0.0354	0.227	693.7941	0.090593	-360.534222	-360.527751	-360.526806	-360.564276	23.908	
N	 0.0153723674	 1.3536753983	-0.0046909677	-0.597247
C	-0.1116016068	-0.0312086546	-0.0218800052	 0.27972
C	-1.1863660953	-0.8552961244	-0.0301837151	-0.164075
C	-0.7067832483	-2.211718296	-0.0476759901	-0.291228
C	 0.6460080229	-2.1048471772	-0.0489871887	 0.411222
O	 1.60600712	-3.045764858	-0.0625834523	-0.425304
O	 1.0526011567	-0.8181488638	-0.0338621515	-0.221766
H	 0.4945723891	 1.7178315774	-0.8222805545	 0.242752
H	 0.495428185	 1.697410593	 0.8212059936	 0.242762
H	-2.2137477869	-0.5269481164	-0.0242986992	 0.108657
H	-1.2779336572	-3.1243108152	-0.0578609973	 0.108619
H	 2.4610583736	-2.599903413	-0.0584905421	 0.305889
