17
gdb 114303	2.39879	1.41762	1.07846	2.7366	72.15	-0.2566	0.0065	0.2631	1133.493	0.136377	-417.958516	-417.950076	-417.949132	-417.991952	30.959	
O	-0.1828025713	 1.5442833183	-0.0537576509	-0.423245
C	 0.0545151226	 0.1498849632	 0.0842614393	-0.121114
C	-1.301024632	-0.5261067495	-0.0198381669	 0.02337
C	-2.041058835	-0.6543435233	-1.3785908208	-0.195443
N	-2.3068441059	-2.1296542917	-1.1506145984	-0.139531
C	-0.986533074	-2.8024955761	-1.1125723662	-0.152513
C	 0.1066446261	-2.4226275339	-1.9708111246	 0.311521
N	 0.9788822532	-2.1470046868	-2.6795156877	-0.34905
C	-1.4369597879	-2.0427139156	 0.0870158816	-0.08396
H	 0.6646373239	 1.9858366459	-0.1600441387	 0.292846
H	 0.7365293717	-0.2166379175	-0.6925211249	 0.121756
H	 0.5045538618	-0.0876891829	 1.062918259	 0.088993
H	-1.9643410255	-0.0559602824	 0.7116865926	 0.106549
H	-2.9892813847	-0.1203524465	-1.429879016	 0.12781
H	-1.4592873463	-0.4478708758	-2.2805930065	 0.136167
H	-1.100409805	-3.8808246776	-1.0367595942	 0.144899
H	-1.6814229018	-2.5901196377	 0.9927024534	 0.110945
