20
gdb 66429	2.73375	1.58873	1.25901	1.826	83.56	-0.202	0.0789	0.2809	1105.1236	0.16871	-365.914724	-365.905894	-365.90495	-365.947449	34.177	
C	 0.0418350489	 1.4954481236	 0.0407442789	-0.522472
C	-0.0220776775	 0.0112046629	-0.0730539086	 0.371494
C	 0.8610731064	-0.9882399037	-0.7331612995	-0.185549
N	 0.8131805882	-0.9149980309	 0.7757307313	-0.251092
C	-0.3380177888	-1.9273032003	 0.7409439328	 0.336747
C	-0.6271496722	-2.8924973937	 1.8366046149	-0.520659
C	-1.2012820227	-0.9987368394	-0.0837201291	-0.295491
C	-0.2841349333	-2.0348384717	-0.7660701487	 0.296478
C	-0.6279034799	-3.141056093	-1.7070038768	-0.528755
H	 1.084249569	 1.8186338515	 0.1247758192	 0.132794
H	-0.4001145832	 1.980739763	-0.8367855663	 0.120162
H	-0.4937224724	 1.8455655208	 0.9304640014	 0.125055
H	 1.7902529568	-0.8826963064	-1.2836515999	 0.087245
H	-0.8512539734	-2.3675461508	 2.7719930655	 0.129131
H	-1.4906232043	-3.5168906717	 1.5832595753	 0.121028
H	 0.2301201247	-3.551277223	 2.0153478389	 0.128353
H	-2.2763400324	-0.8955720258	-0.1521664142	 0.086189
H	-0.8286410866	-2.7641817456	-2.7169375788	 0.12309
H	 0.1832661599	-3.8753573369	-1.7795921453	 0.123865
H	-1.5252164172	-3.6716360588	-1.369704571	 0.122386
