21
gdb 61062	2.86506	1.1076	0.84386	2.8764	85.	-0.2414	-0.0198	0.2217	1388.8818	0.181927	-387.116239	-387.106913	-387.105969	-387.151156	34.248	
C	-0.0719665135	 1.5496947062	 0.0449324844	-0.41669
C	-0.0437113615	 0.0117195792	 0.0208732563	-0.070029
C	-1.4688955448	-0.5036243364	-0.00695836	 0.164283
O	-1.959947681	-1.2563495797	 0.7942347432	-0.25636
C	 0.7186968654	-0.5383065005	-1.2099627566	-0.019457
C	 2.2038948695	-0.0861744239	-1.2925736145	-0.231254
C	 2.9750087068	-1.2899552557	-1.8902054563	-0.261979
C	 2.0520995578	-2.4521620441	-1.6127741441	-0.078665
C	 0.8366716667	-2.0497775965	-1.2488322249	-0.06765
H	 0.9419962257	 1.9574318091	 0.061338457	 0.130601
H	-0.5774094515	 1.9476395525	-0.8427788569	 0.120066
H	-0.5990414321	 1.9222923149	 0.9284698522	 0.127457
H	 0.4234736967	-0.3743412678	 0.9336030476	 0.093082
H	-2.0659794319	-0.1205091862	-0.8712428342	 0.065869
H	 0.1754339353	-0.1952265026	-2.106583009	 0.077327
H	 2.3369700004	 0.8324467432	-1.8687420581	 0.10003
H	 2.5724480605	 0.1083368486	-0.2789240178	 0.106639
H	 3.1358808578	-1.173641685	-2.9714716214	 0.107698
H	 3.9686604822	-1.4129717447	-1.445218013	 0.105364
H	 2.3558696853	-3.4854422606	-1.7399102168	 0.095494
H	-0.000261784	-2.7023437299	-1.0256308373	 0.108176
