19
gdb 49933	5.23955	0.68924	0.64566	2.5141	83.1	-0.2476	-0.025	0.2226	1691.6835	0.157083	-385.856978	-385.847596	-385.846652	-385.892223	34.107	
O	 0.0228732579	-0.1058602144	 0.0080830494	-0.249804
C	 0.1058560314	 1.0852158924	 0.1634614463	 0.159309
C	 1.3565792881	 1.9018439867	 0.009612557	-0.061039
C	 1.2665565052	 3.1639942221	-0.905389359	-0.276578
C	 2.0956115993	 3.9482938622	 0.1455971591	 0.051763
C	 1.7195036184	 5.4061386376	 0.4299140594	-0.378349
C	 2.4674734107	 5.9718333799	 1.5469755242	 0.299675
C	 3.0996399758	 6.404798581	 2.4731729656	-0.443686
C	 1.7239399147	 2.86066189	 1.1865282143	-0.249738
H	-0.7902981431	 1.6907972963	 0.4473056594	 0.062169
H	 2.1840023182	 1.245643001	-0.2674947337	 0.093947
H	 1.6607876894	 3.0729181411	-1.9193048055	 0.114941
H	 0.236914424	 3.536995795	-0.9613487462	 0.104505
H	 3.1623510819	 3.8912201277	-0.0914509072	 0.091203
H	 1.8894469547	 6.0096174766	-0.4719067254	 0.132393
H	 0.6429683853	 5.4684778559	 0.6401662403	 0.124964
H	 3.6512648478	 6.8012248002	 3.2892110757	 0.197569
H	 0.8326795361	 3.1447753059	 1.757996643	 0.107132
H	 2.4919929641	 2.5226286427	 1.8833824935	 0.119624
