23
gdb 75603	2.24123	1.46556	1.03984	1.5845	87.53	-0.2301	0.0159	0.246	1255.142	0.207364	-388.294847	-388.285866	-388.284922	-388.328088	35.227	
C	 0.1194043889	 1.5594775884	-0.0591697157	-0.477107
C	 0.085477293	 0.0554166273	 0.0066896189	 0.342643
C	 0.0377326461	-0.6981968344	-1.096886109	-0.162013
C	-0.0462844718	-2.206957034	-1.1224706875	-0.12889
O	-1.3646894205	-2.7294035124	-0.9766518489	-0.242837
C	-1.8689123274	-2.8260090611	 0.3449146278	-0.066072
C	-2.3597357391	-1.5006012663	 0.9673067247	-0.193054
C	-1.3925371224	-0.7743578352	 1.9205663473	-0.193097
C	 0.0433832275	-0.5549950649	 1.3884818438	-0.297921
H	 1.0236544605	 1.9524610322	 0.423561149	 0.123125
H	 0.0959079397	 1.9230107255	-1.089793497	 0.120868
H	-0.7315512832	 2.0006851417	 0.4760510007	 0.124909
H	 0.0165614702	-0.2044048601	-2.0662815108	 0.078389
H	 0.293718199	-2.5728443469	-2.0962687599	 0.102313
H	 0.6126712629	-2.6530170949	-0.3614307871	 0.090538
H	-2.7176679122	-3.511834523	 0.2555426117	 0.103851
H	-1.1296130728	-3.3148023108	 1.0023400811	 0.080336
H	-2.6473819976	-0.8449632161	 0.1396184461	 0.113327
H	-3.2788884568	-1.7060442761	 1.5297388261	 0.091579
H	-1.8367042749	 0.1931001423	 2.1862168328	 0.097408
H	-1.3169917711	-1.3373807841	 2.859582804	 0.095345
H	 0.5653867488	-1.516997009	 1.3858160751	 0.103952
H	 0.5827884132	 0.0836739717	 2.0979341066	 0.092409
