15
gdb 124008	3.70501	1.60051	1.13754	3.9199	74.3	-0.2132	-0.0316	0.1816	1001.5789	0.115899	-416.80118	-416.794472	-416.793528	-416.832588	26.177	
C	-0.0311454073	 1.5066609751	 0.0274640303	-0.232364
N	 1.2726161544	 2.1790317834	-0.1198075414	-0.430049
C	 2.2307566515	 1.4460877192	-0.8356630592	 0.09545
C	 3.4006696513	 1.7769015951	-1.4379105203	-0.01055
O	 3.9631682345	 0.672948627	-1.982536455	-0.177215
N	 3.1404696001	-0.42650568	-1.7572698101	-0.239419
C	 2.1243748498	 0.0398602559	-1.0690295031	 0.364904
C	 1.0020287546	-0.7069755162	-0.5367256515	-0.146057
C	 0.0021231601	-0.0088687115	 0.0154869892	-0.084238
H	-0.4918593584	 1.8642568544	 0.9534557689	 0.118255
H	-0.6997340212	 1.8402891664	-0.7831226924	 0.129821
H	 1.6255434059	 2.5166998106	 0.7652613859	 0.242285
H	 3.9566410749	 2.6938572761	-1.5477622782	 0.146284
H	 1.0068201118	-1.789767254	-0.5822337969	 0.11584
H	-0.8636601021	-0.5160259314	 0.4315543638	 0.107053
