20
gdb 16241	2.70894	2.17976	1.40163	1.7733	74.	-0.252	0.0774	0.3293	950.4471	0.177906	-349.006351	-348.99857	-348.997625	-349.03871	30.281	
C	-0.5279180959	 1.3896275982	 0.0028696725	-0.421061
C	 0.0905533926	-0.0062250918	-0.0282358517	-0.022259
C	 1.1101621607	-0.2348533613	-1.1626335541	-0.215355
C	 1.917795372	-1.4576672891	-0.6960430937	-0.217811
C	 2.1168678628	-1.1926713535	 0.8074698732	-0.283728
C	 0.8524896096	-0.4404259904	 1.237697208	 0.437624
C	 0.7503092964	 0.2180528852	 2.5458514016	-0.251456
O	 0.0650218604	-1.0110322892	 2.2920057361	-0.280071
H	 0.2357606976	 2.1597426455	 0.1590061089	 0.112248
H	-1.0343094643	 1.6087420407	-0.9430354493	 0.113127
H	-1.2717186738	 1.4817059856	 0.800766206	 0.122686
H	-0.7175703238	-0.7409457968	-0.1479804659	 0.089772
H	 0.6291695723	-0.3756641221	-2.1349002608	 0.095733
H	 1.7706094295	 0.6387270236	-1.2499115739	 0.093858
H	 1.3272559752	-2.3695337616	-0.8442989336	 0.103934
H	 2.8590472038	-1.5867641742	-1.2367749373	 0.095058
H	 2.2547626765	-2.095414002	 1.4075783428	 0.11244
H	 2.9959639878	-0.5551229402	 0.9607097148	 0.102266
H	 1.5863437652	 0.1520749715	 3.2433414523	 0.104397
H	 0.1136760655	 1.091041482	 2.6794362441	 0.1086
