19
gdb 88241	3.11017	0.77307	0.66561	0.6491	90.67	-0.2314	0.0374	0.2689	1711.4397	0.15666	-348.682286	-348.672195	-348.671251	-348.719191	36.259	
C	-0.8315826383	 0.9672338206	 0.7718702226	-0.4088
C	 0.051585452	-0.0571182979	 0.0994983788	 0.017114
C	 1.4256725472	 0.3018730839	-0.3854386282	-0.287381
C	 1.2752693265	-0.6334618072	 0.8086078533	-0.187845
C	 1.6455536224	-0.1958467524	 2.1231112002	 0.097193
C	 1.9545040362	 0.1638076276	 3.230524232	 0.071287
C	 2.3325346287	 0.6058694374	 4.5744769369	-0.492264
C	 1.6800313336	 1.8526336015	 4.9815829438	 0.319098
C	 1.1518803141	 2.8752354659	 5.3235294714	-0.447914
H	-0.2477690041	 1.6329764424	 1.4133091897	 0.135765
H	-1.3515792472	 1.5795808189	 0.0270973356	 0.114675
H	-1.5887466936	 0.4853034295	 1.3994921677	 0.120423
H	-0.4816952058	-0.7844425906	-0.5071721728	 0.088736
H	 1.7896255281	-0.125658421	-1.3131630864	 0.114137
H	 1.7884641962	 1.3016869057	-0.1739245092	 0.123863
H	 1.4772669071	-1.6825450588	 0.6111304488	 0.106692
H	 2.0916714364	-0.1801557449	 5.3040325768	 0.15855
H	 3.4224642509	 0.7363279417	 4.6323184195	 0.15793
H	 0.6824465593	 3.7790694678	 5.6234431195	 0.19874
