19
gdb 50710	3.15594	1.18794	0.90295	2.8166	77.81	-0.2425	-0.0279	0.2146	1272.6608	0.159105	-423.03585	-423.027313	-423.026369	-423.069536	31.728	
O	-0.9212573405	 1.098887795	 0.0591503245	-0.248455
C	 0.2275055547	 0.7429960572	 0.0489464258	 0.146029
C	 1.4239107296	 1.6910787267	 0.0629388799	 0.01853
C	 1.1460196472	 2.9401105303	 0.9057003542	-0.247655
C	 2.1888716457	 4.0262153776	 0.8158637076	-0.075663
C	 3.5139954238	 3.8772501245	 0.846123628	-0.054134
C	 4.2863597875	 2.5857581817	 0.9814401606	-0.2536
C	 3.797073376	 1.4125358161	 0.1282561589	-0.071421
O	 2.5217731634	 0.917475753	 0.4985883602	-0.261223
H	 0.5219485489	-0.3286421334	 0.0124741454	 0.094963
H	 1.5817729111	 2.0016457121	-0.9876151786	 0.095628
H	 0.1700848406	 3.3228031381	 0.5930219155	 0.127986
H	 1.0254263822	 2.6210720815	 1.9510452666	 0.122184
H	 1.7985162527	 5.0397521188	 0.7551811692	 0.09111
H	 4.1196044116	 4.7800882677	 0.8075889313	 0.089433
H	 5.3363127371	 2.7636714801	 0.7201038778	 0.103875
H	 4.2872428794	 2.2633955984	 2.0329047301	 0.122766
H	 3.7930140067	 1.6990236438	-0.9355000371	 0.092664
H	 4.4833678622	 0.5680001208	 0.2491595901	 0.106984
