16
gdb 70967	4.30252	1.23557	1.12658	4.9723	73.83	-0.2539	-0.0062	0.2477	1090.3033	0.123677	-400.694171	-400.686594	-400.68565	-400.726005	29.38	
C	-0.0811595664	 1.495977021	 0.0381275301	-0.507315
C	 0.0309998229	 0.0037736341	-0.027381632	 0.26667
C	 0.9439820523	-0.8360147344	-0.9254699169	-0.310014
C	 0.099313747	-2.0460842634	-0.4343227841	 0.327305
O	 0.4444855804	-2.1550807401	 0.9751972484	-0.320087
C	-0.2830496558	-0.9363927426	 1.1538524438	 0.058077
C	-1.0804521027	-1.0454786595	-0.100313401	-0.234785
C	 0.0282611469	-3.2970032493	-1.1463773299	 0.183529
N	-0.044913287	-4.2794601767	-1.7504091596	-0.334199
H	 0.8502325685	 1.9433155996	 0.402530802	 0.133696
H	-0.2981452034	 1.9247505453	-0.9461954313	 0.129482
H	-0.884059602	 1.8022984875	 0.7172238891	 0.126517
H	 0.7687717417	-0.6250702413	-1.982867064	 0.123776
H	 2.0143399713	-0.8917052935	-0.7066823602	 0.116809
H	-0.5354094432	-0.6202392939	 2.1566889106	 0.121306
H	-2.1333369103	-1.0246744829	-0.343824415	 0.119235
