14
gdb 123958	3.60565	1.66548	1.17549	4.3073	63.3	-0.2354	-0.0043	0.231	962.8358	0.103507	-473.799151	-473.792811	-473.791867	-473.829951	24.822	
C	-0.0088533886	 1.4129386115	 0.0129658222	-0.112244
C	 1.4178221271	 1.9576829995	 0.0309543336	-0.104329
O	 2.1397380634	 1.5249965326	 1.1960370558	-0.259394
C	 1.9221756772	 0.2199626287	 1.4410532309	 0.388899
N	 2.6495740442	-0.4898294335	 2.2638810997	-0.242073
O	 2.0715358478	-1.7612354876	 2.2272874376	-0.175964
C	 1.0141462373	-1.7665338632	 1.3857687595	-0.050581
C	 0.8642690585	-0.5306162755	 0.8509655476	 0.148654
O	-0.0256829523	-0.0195441341	-0.0375298228	-0.276387
H	-0.5498477659	 1.7555648429	 0.9052358087	 0.127389
H	-0.5343949467	 1.7594496732	-0.8794077508	 0.132522
H	 1.9548632047	 1.6338721489	-0.8696484321	 0.130692
H	 1.4079369741	 3.0488128187	 0.0678706808	 0.135377
H	 0.4882619394	-2.7000923721	 1.2753192694	 0.157439
