23
gdb 116454	2.57258	1.2746	1.00345	1.7325	81.56	-0.2446	0.0771	0.3217	1300.2201	0.206887	-425.445543	-425.436262	-425.435318	-425.479309	35.989	
C	-0.0242421196	 1.5412324989	-0.0515236665	-0.387561
C	-0.0072657614	 0.0140245098	 0.0468037409	-0.185885
C	-1.3999820633	-0.6069257398	 0.0080705024	 0.099104
O	-2.007737641	-0.253998435	-1.2390375642	-0.272554
C	-3.3853836043	-0.6102300005	-1.2891439819	-0.068416
C	-3.5821799503	-2.122070484	-1.1591091904	-0.212654
C	-2.8565986452	-2.6508925583	 0.0877577184	-0.223456
C	-1.4046345132	-2.141472514	 0.1212014278	 0.134712
O	-0.6293950558	-2.7165186408	-0.9244568691	-0.44791
H	 0.9920628639	 1.9461667101	-0.0361904821	 0.109981
H	-0.5080296548	 1.8632394573	-0.976939793	 0.13207
H	-0.5730952854	 1.9874491147	 0.7858190309	 0.107519
H	 0.5890335941	-0.4156285371	-0.764590019	 0.107273
H	 0.4724349434	-0.3010583837	 0.9817532312	 0.095749
H	-2.0064014151	-0.190936414	 0.8324725717	 0.05968
H	-3.9286908326	-0.0868047476	-0.4842310424	 0.0884
H	-3.7620392556	-0.2369229919	-2.2460633175	 0.106262
H	-4.6517647851	-2.3558177063	-1.120014465	 0.097336
H	-3.1817035911	-2.6143072964	-2.0531725647	 0.105919
H	-3.3728832452	-2.3089731406	 0.9948875615	 0.090565
H	-2.8582883312	-3.7449200088	 0.1041104474	 0.104192
H	-0.9245746428	-2.4441015262	 1.0589541312	 0.075754
H	-0.8289924184	-2.2036482357	-1.7176368576	 0.28392
