16
gdb 52753	2.38484	0.88787	0.67018	3.3624	83.45	-0.2629	0.0007	0.2637	1655.5615	0.119941	-400.670674	-400.660148	-400.659204	-400.708866	35.027	
C	-0.0059415209	 1.4952695629	 0.0129711972	-0.502721
C	-0.0093559527	 0.0413050266	-0.0143678202	 0.167514
C	-0.0246711377	-1.160416623	-0.0410975448	 0.033299
C	-0.0096965964	-2.6191682605	-0.0656994392	-0.267585
O	-1.36011504	-3.08729036	 0.1319892749	-0.179074
C	-1.4809912393	-4.3769350165	 0.5216143922	 0.143581
N	-2.6276174759	-4.8802359634	 0.662930998	-0.437352
C	 0.5562675067	-3.1455204336	-1.3143934548	 0.357035
C	 1.0211391985	-3.6049437794	-2.3215080032	-0.457117
H	 0.596957377	 1.8761262903	 0.8440783846	 0.153914
H	 0.4019936514	 1.9067100536	-0.9163166737	 0.156618
H	-1.0231668235	 1.8831126837	 0.1321772987	 0.161416
H	 0.6068521169	-2.98090134	 0.7724987887	 0.135362
H	-0.5194389183	-4.8796368541	 0.6918861195	 0.094375
H	-2.5480721431	-5.8451243576	 0.9773669329	 0.230953
H	 1.4276676674	-4.001044939	-3.2195795508	 0.209781
