17
gdb 49759	2.93158	1.53808	1.23663	3.4543	73.06	-0.2429	-0.0163	0.2267	1026.9028	0.136486	-421.821066	-421.813513	-421.812569	-421.853733	28.178	
O	-0.7339727934	 1.012860597	-0.6169900175	-0.246195
C	 0.0529167285	 1.1614936221	 0.2806399877	 0.168815
C	 1.3707943008	 1.9111230231	 0.1499903748	-0.174144
C	 1.5058816562	 2.7278159222	-1.1148986525	-0.054718
C	 1.8332846748	 3.9967387742	-0.873329263	-0.094203
C	 1.9537126504	 4.2934295289	 0.5955562803	-0.121103
C	 0.6707319953	 4.8393468459	 1.2746257678	-0.074051
O	 0.3082152364	 3.5166235264	 1.7314667328	-0.287852
C	 1.5595271733	 2.9557959528	 1.2742401473	 0.097013
H	-0.1256946947	 0.7175718156	 1.2845898341	 0.085058
H	 2.1539067747	 1.1368488771	 0.219418737	 0.102195
H	 1.3264203503	 2.2968208596	-2.0916380409	 0.116926
H	 1.9738122409	 4.7578489094	-1.6330658307	 0.102623
H	 2.8891328896	 4.776398857	 0.8865273352	 0.086177
H	 0.8502996138	 5.5188717401	 2.1172896495	 0.101768
H	-0.087887663	 5.2684648802	 0.6115534172	 0.113298
H	 2.1662174059	 2.6005233683	 2.1133120908	 0.078392
