22
gdb 76715	3.067	0.76667	0.71354	2.8936	84.35	-0.2235	-0.0202	0.2033	1676.9064	0.191147	-404.328914	-404.318216	-404.317272	-404.365963	37.625	
C	 0.0249233437	 1.4036200441	 0.5055447377	-0.414622
C	 0.286164378	-0.0817140513	 0.3690059315	-0.00432
C	 0.4837807893	-0.7707147977	-0.9456955397	-0.002017
C	 0.4298586999	-0.0540947485	-2.2785477143	-0.41945
N	 1.5938604049	-0.6442828451	 0.0106771296	-0.107943
C	 2.7243338263	 0.2299174127	-0.2674406605	-0.14882
C	 3.8543347522	-0.5817711749	-0.9225988404	-0.266511
C	 5.1413390318	 0.2035451073	-0.9976787981	 0.155407
O	 5.7612830741	 0.4277447989	-2.0053517783	-0.237205
H	 0.43513342	 1.7822722574	 1.448421027	 0.124699
H	 0.449891064	 1.9991667394	-0.3041432307	 0.120451
H	-1.0543779312	 1.5891184556	 0.5216707471	 0.12435
H	-0.2033241333	-0.6607306509	 1.1530017757	 0.08742
H	 0.1239628065	-1.7976062183	-1.0144396734	 0.088007
H	 0.7138695098	 0.9982317102	-2.224417887	 0.122985
H	 1.0859140975	-0.5403938277	-3.0089505547	 0.128613
H	-0.5898417831	-0.0981544056	-2.675866488	 0.125498
H	 2.4921039181	 1.0965611929	-0.9033343526	 0.096996
H	 3.0750703001	 0.6301866794	 0.6926427272	 0.106027
H	 4.0291354493	-1.4710274291	-0.3019587166	 0.130462
H	 3.580132216	-0.9119921072	-1.9280516268	 0.121087
H	 5.5005626162	 0.5848763882	-0.0114881444	 0.068886
