17
gdb 78857	3.33155	1.58458	1.37337	0.8018	69.63	-0.2204	0.0736	0.294	953.6217	0.136534	-421.768107	-421.760993	-421.760049	-421.799154	29.513	
O	 0.0061050987	 1.434211535	 0.0481423379	-0.435728
C	 0.0634300289	 0.0199806545	-0.0200953903	 0.135491
C	 0.6209975515	-0.6374810962	 1.2329923882	-0.115815
C	-0.5046204478	-0.9057740106	 2.2248530201	-0.088738
C	 0.0784033451	-2.036493929	 1.4043043562	-0.179403
C	-1.2262369087	-2.0502910405	 0.5395199607	 0.395756
O	-1.8744875774	-3.1703962703	 0.0734959943	-0.46605
C	-1.7946706346	-0.9309112491	 1.3638981806	-0.159198
C	-1.2903664894	-0.6669763322	-0.064869019	-0.204294
H	-0.5261946023	 1.6545744151	 0.8216917641	 0.279461
H	 0.6687178692	-0.2025937826	-0.9055779659	 0.086428
H	 1.611236076	-0.3869659647	 1.5951418995	 0.091714
H	-0.4400000689	-0.7324111683	 3.2899887808	 0.090516
H	 0.6477881889	-2.8980046214	 1.7255243006	 0.09391
H	-1.4771438825	-3.4251077784	-0.7674674002	 0.286185
H	-2.8093967522	-0.75061933	 1.68899842	 0.096505
H	-2.0154624445	-0.4610672414	-0.8427601876	 0.093261
