23
gdb 122576	4.26992	0.74609	0.69412	0.8032	88.04	-0.2325	0.0321	0.2646	1730.6159	0.205815	-388.300717	-388.291004	-388.29006	-388.336378	35.48	
C	-0.0259960283	 1.379991456	-0.2390392185	-0.384386
C	-0.0573444542	-0.1375050175	-0.1675275884	-0.027865
O	-1.3917858911	-0.5530743385	 0.0331800762	-0.243852
C	-1.5398386435	-1.9546967915	 0.1010748248	-0.056828
C	-3.019269169	-2.2982937828	 0.260894966	-0.005858
C	-3.8442347222	-1.8309935282	-0.9729406776	-0.25595
C	-4.0764053064	-3.1040788744	-1.7490065106	-0.055583
C	-3.7364485341	-4.187619387	-1.0541305127	-0.054711
C	-3.2093762419	-3.8417130507	 0.318290539	-0.276056
H	 0.9974672261	 1.7343245392	-0.3944833451	 0.113066
H	-0.6469824086	 1.7377335717	-1.0653346741	 0.12517
H	-0.4077410655	 1.8156657254	 0.6886950255	 0.125862
H	 0.3424532699	-0.5772871317	-1.0974550507	 0.083863
H	 0.5821420407	-0.4988586033	 0.6562569872	 0.083062
H	-1.1419784088	-2.4284368856	-0.8142257784	 0.086227
H	-0.9645933896	-2.3584920003	 0.9521194212	 0.081359
H	-3.3730121868	-1.8158576008	 1.1761070958	 0.076135
H	-4.7988295458	-1.3768300667	-0.6741367892	 0.100372
H	-3.3090200772	-1.0628754922	-1.5410414066	 0.112444
H	-4.4987531039	-3.1096870916	-2.7482057031	 0.08675
H	-3.8403291463	-5.2117040227	-1.39599293	 0.087026
H	-2.2728264411	-4.3638267916	 0.5554812513	 0.0963
H	-3.9228371624	-4.1358999852	 1.0999944081	 0.103453
