16
gdb 49432	3.50423	1.60192	1.32109	4.1151	77.39	-0.2076	-0.0603	0.1473	957.5085	0.124226	-400.637559	-400.630674	-400.62973	-400.668791	27.355	
O	 0.7192415509	-0.0074157796	 0.7926453485	-0.308172
C	 0.4526603733	 1.1373041615	 0.4994843296	 0.138406
N	 1.0846407788	 1.8553561833	-0.4811112659	-0.087219
C	 1.4193119962	 3.3169529596	-0.458999292	-0.038575
C	 2.9393477891	 3.7296227127	-0.0741177005	-0.061576
C	 3.9833245213	 2.7746305601	 0.5466021194	-0.260017
C	 3.4173426519	 1.4206308953	 0.086395829	-0.121797
C	 2.4951242392	 1.6921789174	-0.8587485404	 0.094953
C	 2.5573997089	 3.1367253027	-1.3833752337	-0.136495
H	-0.3694197	 1.7174562504	 0.9640288759	 0.081689
H	 0.6316353126	 4.0631640349	-0.4700602084	 0.1207
H	 3.0465007097	 4.8079951567	 0.0359461017	 0.090159
H	 4.996242677	 3.0515607909	 0.219594442	 0.117208
H	 3.9961967322	 2.7636385784	 1.6431355529	 0.124495
H	 3.2878867403	 0.6050934613	 0.7878314481	 0.13934
H	 2.7101175787	 3.4671348944	-2.4020793364	 0.106902
