20
gdb 31141	1.86154	1.81356	0.98279	1.958	83.93	-0.1741	0.0566	0.2306	1240.5337	0.171423	-399.350774	-399.340577	-399.339633	-399.385758	37.018	
C	-0.4005599566	 1.3641118295	 0.0317343754	-0.321905
N	 0.1589301115	 0.0121023133	 0.0989919419	-0.38854
C	 0.7596619099	-0.4601248577	-1.0973622447	 0.117949
C	 0.1218071671	-1.1962496999	-2.0780150648	 0.290629
C	-1.2941376855	-1.6559350801	-2.1486628838	-0.509538
N	 1.0555650178	-1.4805799629	-3.0408214847	-0.317392
C	 2.2828133531	-0.9440480708	-2.6981813448	-0.17985
C	 2.1286070622	-0.3008524072	-1.4923380845	 0.171386
N	 3.1132733798	 0.3186963849	-0.6858143844	-0.615936
H	 0.3201059051	 2.1446430214	-0.2689222419	 0.087268
H	-1.2207497331	 1.3824035201	-0.6922536437	 0.123048
H	-0.8093406176	 1.6357224361	 1.0105400143	 0.110503
H	 0.835827445	-0.0381396193	 0.8534756572	 0.224733
H	-1.8924102231	-1.0937613111	-2.8781453742	 0.119181
H	-1.3664119064	-2.7171006517	-2.4167956523	 0.116125
H	-1.7531932564	-1.5223602199	-1.1657174308	 0.149382
H	 0.8739568441	-2.0092714253	-3.874648227	 0.251933
H	 3.148725095	-1.0766930363	-3.3266518909	 0.099604
H	 4.0189180472	 0.3222518977	-1.139619859	 0.234192
H	 2.872303381	 1.2807512991	-0.4709853873	 0.23723
