14
gdb 27678	2.93951	1.30585	0.90927	3.9588	73.29	-0.2269	-0.0203	0.2066	1188.8116	0.102154	-432.939118	-432.930933	-432.929989	-432.971994	29.759	
C	 0.0283566118	 1.490420522	 0.1041366512	-0.497691
C	 0.0462402834	 0.0043913764	 0.0025810094	 0.203184
C	-0.0649509391	-0.7710163577	-1.1347310969	 0.142853
N	 0.0111971475	-2.0979565206	-0.6891676431	-0.385961
C	 0.1585688778	-2.0308699618	 0.6490976489	 0.458244
O	 0.2607223703	-3.151329519	 1.367686826	-0.414956
N	 0.1852824232	-0.8014086651	 1.108973853	-0.398698
C	-0.2225526096	-0.4267730273	-2.4880476662	 0.20159
N	-0.3527998182	-0.1435525043	-3.6060699336	-0.355437
H	 0.9578336393	 1.8573598081	 0.5518764441	 0.145097
H	-0.0899136449	 1.9492651199	-0.879850828	 0.144741
H	-0.7931855738	 1.823070544	 0.7470208277	 0.145094
H	-0.0366900476	-2.9307462959	-1.2521029956	 0.288846
H	 0.3578121899	-2.8812201387	 2.2904004532	 0.323095
