19
gdb 38403	4.17347	1.31006	1.2026	2.7817	79.22	-0.2225	0.0828	0.3052	1071.7554	0.161285	-381.968971	-381.961794	-381.96085	-382.000455	29.422	
C	-0.0000682766	 1.5634453616	-0.0622218329	-0.29884
C	 1.529774197	 1.5164442344	-0.1341093295	-0.036622
N	 1.9758305917	 0.8333453061	 1.1076851272	-0.33908
C	 1.5279659292	 0.0305429347	-0.0593781674	-0.157752
C	-0.0008724666	-0.0008554148	 0.0061467039	 0.439904
C	-0.7166764545	-0.8651887983	 1.0980594252	-0.298831
C	-1.4086136632	-1.6384579412	-0.0293657727	-0.036627
N	-2.1855264876	-0.6315991593	-0.7976631658	-0.339082
C	-0.7351825773	-0.810052203	-1.0655730901	-0.157757
H	-0.407953546	 2.0916584928	 0.8026466194	 0.106846
H	-0.4782551022	 1.9253169217	-0.9750333489	 0.107253
H	 2.1979639044	 2.1846808895	-0.663441027	 0.089599
H	 2.9961659598	 0.8265721605	 1.092776259	 0.224532
H	 2.1857353516	-0.7024521074	-0.5129988825	 0.084113
H	-0.0018092368	-1.4586523644	 1.672165815	 0.107255
H	-1.3883745405	-0.3366370043	 1.7783779913	 0.106847
H	-1.6915680575	-2.6837628365	-0.0513595547	 0.089599
H	-2.6826336323	-1.1370353707	-1.531673619	 0.224531
H	-0.3824716824	-1.0662308813	-2.0583884806	 0.084112
