17
gdb 57018	2.4634	1.35454	0.91474	4.1171	73.76	-0.2652	0.0061	0.2713	1240.351	0.13414	-421.817159	-421.808118	-421.807173	-421.851428	32.684	
C	-0.1380907262	 1.6145606634	-0.0058403858	-0.393943
C	-0.0528567908	 0.074202127	 0.0034758774	-0.191548
C	-1.3864450819	-0.5224553774	 0.0138821875	 0.338901
C	-2.4957206252	-0.9834038671	 0.004970536	-0.450517
C	 0.7624657568	-0.4390282954	-1.1985552915	-0.182551
C	 2.2806959542	-0.1743586639	-1.2136076558	-0.108157
O	 2.5439704762	-1.6125394623	-1.2163438943	-0.238386
C	 1.2019280286	-1.9116233253	-1.1759096927	 0.454837
O	 0.7003752858	-2.9860140747	-1.1331145598	-0.311886
H	 0.8613823758	 2.0596312187	 0.0225320733	 0.117828
H	-0.6498511797	 1.9656762196	-0.9066757868	 0.132123
H	-0.6976426473	 1.9701777696	 0.8624919438	 0.136894
H	 0.4709184364	-0.2347683983	 0.9192013102	 0.117072
H	-3.4660313115	-1.4150832016	 0.004866588	 0.2027
H	 0.2560355703	-0.1796326929	-2.1320612733	 0.124063
H	 2.6892192628	 0.2981996272	-2.108622331	 0.127736
H	 2.692983916	 0.2889052131	-0.3136210351	 0.124832
