18
gdb 16742	4.2404	1.44643	1.3742	2.9804	71.26	-0.2464	-0.0176	0.2288	961.3338	0.15488	-347.813468	-347.80608	-347.805136	-347.845836	27.745	
O	-0.6351104504	 0.5794995879	 0.02177319	-0.254229
C	-0.1088686628	 1.6622201056	 0.0530975337	 0.155164
C	 1.385270228	 1.8944434114	-0.003152163	-0.070358
C	 1.7965168387	 2.7776815648	-1.2272013189	-0.257056
C	 2.2126053879	 4.133190695	-0.6768407035	-0.017631
C	 1.2168584916	 4.8892483293	 0.1672131593	-0.290826
C	 2.2818383903	 4.0514090516	 0.8300648651	-0.017647
C	 1.9110455025	 2.6423723914	 1.2665523042	-0.256984
H	-0.7278180538	 2.5873688394	 0.1285248244	 0.071847
H	 1.8337421194	 0.901264075	-0.0774340923	 0.097616
H	 2.6417618675	 2.3082911414	-1.740002419	 0.112866
H	 0.9881866356	 2.8525034554	-1.9648854707	 0.109144
H	 2.9403890241	 4.7058019102	-1.2410678098	 0.085585
H	 1.3285426508	 5.9667146506	 0.2205417499	 0.113806
H	 0.1832358479	 4.5582662649	 0.196774643	 0.110982
H	 3.061012505	 4.5632963656	 1.3839297976	 0.085596
H	 1.1739456865	 2.6330368016	 2.0787945142	 0.109226
H	 2.7972788713	 2.1244684287	 1.6461477557	 0.112899
