19
gdb 96053	3.23124	0.99077	0.821	1.9397	72.35	-0.253	-0.0262	0.2268	1388.8873	0.157687	-460.172369	-460.163047	-460.162103	-460.208058	32.629	
C	-0.0070165595	 1.6097577828	-0.2398715422	-0.400858
C	-0.0189119239	 0.1078988135	 0.0176465793	 0.11852
O	 0.6038262854	-0.5654120929	-1.085588572	-0.274478
C	 1.7652089567	-1.2194143193	-0.6137059409	 0.021224
O	 2.0840105036	-0.6535040528	 0.6315630416	-0.252616
C	 0.8169232991	-0.3846859915	 1.2270879869	 0.070101
C	 0.9994207244	 0.5713668964	 2.400731163	-0.312361
C	 1.8286017489	-0.0439213321	 3.5123766636	 0.155842
O	 1.4967216269	-0.0655373686	 4.6695856224	-0.239474
H	 1.0174717126	 1.9913582743	-0.2782996507	 0.127266
H	-0.480044458	 1.8133971754	-1.2040324371	 0.130897
H	-0.5605166156	 2.1521271816	 0.5332607027	 0.116738
H	-1.0524510659	-0.2493398821	 0.1039286335	 0.086793
H	 1.5708296785	-2.3021709136	-0.5121290613	 0.088805
H	 2.5991672196	-1.0509661589	-1.3025573369	 0.119014
H	 0.3782776102	-1.3303188282	 1.5882284741	 0.084328
H	 1.5245104295	 1.4674561575	 2.0471706179	 0.133658
H	 0.0327753707	 0.871033046	 2.8147056004	 0.12678
H	 2.7925686268	-0.4828060177	 3.1772679157	 0.09982
