22
gdb 57624	2.99503	0.92273	0.88419	4.1845	86.39	-0.2867	0.0442	0.3309	1450.6921	0.193011	-367.224294	-367.214186	-367.213241	-367.259259	37.8	
C	-0.087714501	 1.5465387331	-0.0916897636	-0.402499
C	 0.0063424121	 0.0104488285	 0.037824509	 0.079035
C	 0.8954600923	-0.3684941595	 1.2440320218	-0.407672
C	-1.4018995742	-0.653466078	 0.1386835661	-0.217043
C	-2.238885909	-0.2344197504	 1.3297374768	 0.006087
C	-3.1899946817	 0.9369884536	 1.2479116833	-0.253326
C	-3.729683974	-0.4690811855	 1.2983707193	-0.280768
C	 0.6429993752	-0.5182051849	-1.1816417425	 0.266425
N	 1.1346420063	-0.9367099902	-2.1407615978	-0.345892
H	 0.9069207534	 1.9849237686	-0.2097636263	 0.13003
H	-0.6902900738	 1.8334928997	-0.9577854348	 0.128698
H	-0.5490128017	 1.9663965322	 0.8048296448	 0.131975
H	 0.483588145	 0.0556729751	 2.1634998286	 0.12524
H	 0.9612627251	-1.4539056377	 1.3600788432	 0.131452
H	 1.908226049	 0.0222592291	 1.1152080466	 0.133447
H	-1.953792949	-0.4336192057	-0.7829867217	 0.109648
H	-1.2582613196	-1.740824318	 0.1580831955	 0.115614
H	-1.7718743595	-0.3938566718	 2.2972994208	 0.088366
H	-3.3099067697	 1.5682175794	 2.121609064	 0.114134
H	-3.2591877213	 1.4693766575	 0.305191972	 0.115141
H	-4.1564883023	-0.8802111516	 0.3893335329	 0.116597
H	-4.2159833615	-0.8042884633	 2.2074440819	 0.115311
