13
gdb 133351	2.45727	1.81413	1.04459	2.8658	67.94	-0.2159	-0.0578	0.158	1024.12	0.089552	-494.00051	-493.993182	-493.992238	-494.032205	28.236	
N	 0.0641191465	 1.3681927169	 0.0007967592	-0.58975
C	-0.0021273794	-0.0076727935	 0.027259252	 0.221273
C	-1.1361968824	-0.7460629129	 0.058989796	 0.007162
O	-1.1753519668	-2.1038953183	 0.1429402986	-0.232541
N	-0.0163777017	-2.8279015235	 0.2081821636	-0.132517
C	 1.0779192867	-2.1585477651	 0.1729825491	 0.289056
F	 2.185462502	-2.8867160888	 0.2283708049	-0.054022
C	 1.2668925148	-0.7185822924	 0.0691481343	 0.15676
N	 2.3852528232	-0.0881642971	 0.0063055547	-0.564748
H	 0.9825811036	 1.7006537111	-0.2646105248	 0.275961
H	-0.7040996948	 1.8627846965	-0.4241280942	 0.25342
H	-2.1413826705	-0.3462179299	 0.0275799655	 0.138117
H	 3.1713633688	-0.7370356531	 0.040749311	 0.231831
