16
gdb 53629	17.39011	0.40683	0.40048	5.6856	94.81	-0.2621	-0.0407	0.2215	2562.6904	0.122158	-363.583821	-363.573509	-363.572565	-363.622101	33.961	
C	-0.0180371982	 1.4912254462	 0.0076436823	-0.497303
C	 0.0030684571	 0.0363664108	 0.0565593725	 0.111441
C	 0.0371253508	-1.1662714349	 0.1006281961	 0.025774
C	 0.0391075878	-2.6220960268	 0.1451506011	-0.347349
C	-1.3699515837	-3.2091437691	-0.1514276239	-0.365647
C	-1.3883394999	-4.6604405291	-0.111612142	 0.058715
C	-1.3744552456	-5.8682333114	-0.0719702035	 0.07695
C	-1.3670198646	-7.2325494003	-0.0290314102	 0.206592
N	-1.3598595599	-8.3937924529	 0.0077014172	-0.337177
H	 0.6709871747	 1.8733017915	-0.7533754703	 0.152362
H	-1.0189473706	 1.865213287	-0.2339057898	 0.151055
H	 0.2747245731	 1.9255312623	 0.9697039148	 0.152335
H	 0.7510834419	-3.0275182254	-0.5829714815	 0.146542
H	 0.3692028478	-2.9756968115	 1.1287369706	 0.14654
H	-2.0870866522	-2.8129404097	 0.5767075692	 0.159586
H	-1.7048519086	-2.8647862367	-1.1366690927	 0.159585
