19
gdb 55795	4.29392	0.92791	0.87219	3.9333	75.89	-0.2333	-0.0161	0.2171	1379.8932	0.157266	-422.972005	-422.963253	-422.962309	-423.006936	32.146	
C	 0.0388776673	 1.5229207984	-0.1009149266	-0.474296
C	 0.0129015472	 0.0374098459	 0.2096812698	 0.388822
O	 0.9664490253	-0.5351126769	 0.6849428771	-0.288461
C	-1.2922027914	-0.6940613153	-0.1007427528	-0.377016
C	-1.1436627376	-2.2062912419	-0.0838783216	 0.067733
C	-0.9207723392	-3.0289928368	 1.214369846	 0.054394
C	-2.3949929931	-2.8149921752	 1.6365536243	-0.232614
C	-2.3392650636	-3.1789531501	 0.132697925	 0.012833
O	-1.3576987965	-4.235037418	 0.4655876243	-0.310321
H	 0.9528833618	 1.9698683892	 0.2916586612	 0.14509
H	-0.0006166823	 1.6739034594	-1.1862095584	 0.14358
H	-0.8374578114	 2.0271467543	 0.3207222974	 0.135526
H	-2.0349125588	-0.3374131841	 0.624748736	 0.125964
H	-1.6644264231	-0.356716349	-1.0772710811	 0.11911
H	-0.4835095029	-2.55212429	-0.8824875794	 0.090629
H	-0.023105053	-3.109696982	 1.8241663573	 0.107217
H	-2.8021433373	-3.598577412	 2.275996167	 0.110838
H	-2.7276306264	-1.8190395154	 1.9373219777	 0.091068
H	-3.1497554949	-3.4440494505	-0.5480251033	 0.089902
