19
gdb 56289	4.21016	0.6033	0.58212	5.1764	77.39	-0.2391	-0.0254	0.2137	1912.1901	0.157282	-419.233937	-419.223466	-419.222521	-419.271285	35.593	
C	 0.3979955231	 1.2834768036	-0.312385974	-0.476676
C	 0.2963365672	-0.2253154805	-0.2286622614	 0.381037
O	 1.1477128949	-0.9109743449	 0.290805567	-0.299475
C	-0.9706890564	-0.8676419089	-0.8125222118	-0.273603
N	-0.9334192387	-2.3159548348	-0.8925429942	-0.281126
C	-0.1389836515	-2.8155999301	-2.0122791438	-0.134166
C	-0.2175934615	-4.3521199251	-2.0399136317	-0.344185
C	 0.4904494475	-4.9233976596	-3.1817731676	 0.255859
N	 1.0508460419	-5.3579183661	-4.094087301	-0.304854
H	 1.2267492817	 1.6391494952	 0.3008004619	 0.149571
H	 0.5683008265	 1.5803496585	-1.3542661482	 0.148932
H	-0.5366068138	 1.7588281938	 0.0040895656	 0.139347
H	-1.807884549	-0.5515340128	-0.1714851894	 0.130026
H	-1.1810782437	-0.4414503325	-1.8012130242	 0.124388
H	-0.51031257	-2.6514680198	-0.0296173263	 0.22736
H	-0.5671405615	-2.4217974439	-2.9409890829	 0.12249
H	 0.9169474372	-2.5067488736	-1.9804377318	 0.120054
H	 0.2119576051	-4.7666530353	-1.1199573396	 0.153635
H	-1.267488069	-4.6613930633	-2.0703687268	 0.161384
