14
gdb 44039	3.46285	1.77268	1.52161	4.3902	66.88	-0.2451	-0.0049	0.2402	858.0061	0.10083	-436.539283	-436.532985	-436.532041	-436.569776	25.585	
O	-0.0772625822	 0.0732781653	-0.4233237158	-0.325196
C	-0.0153832865	 1.2140736023	-0.0857113983	 0.377104
N	-0.979064587	 2.1791958179	 0.2114782528	-0.387407
C	-0.0588172617	 3.1966009673	 0.6403676634	 0.223687
C	 0.605847001	 3.3907641684	 2.0169589172	-0.302903
C	 1.8063940838	 3.370040596	 1.0461845306	-0.14253
C	 0.999416352	 4.0828621199	-0.1275442756	 0.031827
O	 1.305541809	 3.1033866041	-1.1272678207	-0.317188
C	 1.1019462716	 2.3203316025	 0.1001973173	 0.14716
H	-1.9876273739	 2.1133292712	 0.1860847932	 0.260584
H	 0.4091340927	 4.3278954942	 2.542433176	 0.109488
H	 0.5425627178	 2.540066988	 2.7009804762	 0.11506
H	 2.8714331647	 3.4724690724	 1.2561834359	 0.104703
H	 0.9865033385	 5.1369040403	-0.4154529623	 0.105609
