17
gdb 85181	2.2682	1.71269	1.16204	4.2633	67.69	-0.2753	0.008	0.2832	1071.6484	0.135164	-458.968446	-458.960123	-458.959178	-459.001752	30.385	
C	 0.3620378289	 1.502218287	-0.2134773822	-0.415313
C	 0.0075658611	 0.0623198718	 0.0821137081	 0.129436
O	 0.7445919611	-0.8724311736	-0.7919614192	-0.250388
C	 1.342658613	-1.4894029307	 0.2664662218	 0.469265
O	 2.1326323205	-2.3794127286	 0.2485975875	-0.334326
C	 0.624753293	-0.6411017788	 1.3243031048	-0.260975
C	 1.4849939848	 0.1336510081	 2.2867031803	 0.055203
C	 2.7777174706	-0.389336436	 2.7529662357	-0.18274
O	 2.7105434581	 0.6605932598	 1.7805116539	-0.227959
H	 1.433890244	 1.6738832028	-0.1005301319	 0.163724
H	 0.0659901637	 1.7571637351	-1.2350261884	 0.135269
H	-0.1749577519	 2.16778808	 0.4708336131	 0.123439
H	-1.0634033334	-0.1227107204	-0.0380378848	 0.099836
H	-0.1074098537	-1.2335091881	 1.8825713964	 0.119755
H	 0.9423323518	 0.8179926494	 2.9408345141	 0.101546
H	 3.150611614	-0.0899451126	 3.7305767421	 0.120539
H	 3.1275951743	-1.3456819653	 2.3726098988	 0.153688
