23
gdb 79149	4.14747	1.16616	1.08602	0.0706	89.8	-0.2825	0.097	0.3795	1246.5736	0.207607	-351.130787	-351.122641	-351.121697	-351.162997	33.208	
C	-0.1990038269	 1.5830102638	-0.0299752594	-0.434773
C	 0.0085601169	 0.0762760902	 0.0207644039	 0.039724
C	 1.2357424955	-0.5934802202	-0.6565664276	-0.080062
C	 2.1560753483	-0.1290724376	 0.5221116361	-0.00226
C	 3.2228960165	-1.1951812002	 0.7709624051	-0.263291
C	 2.3768086818	-2.4884311735	 0.566613288	 0.007248
C	 2.3557131715	-3.4318404451	 1.7709671369	-0.403279
C	 1.0238733942	-1.8423668151	 0.2572392328	 0.005884
C	 0.8097554725	-0.5900418182	 1.1731380428	-0.069965
H	 0.7149862387	 2.1460961755	 0.1773268191	 0.114792
H	-0.5597067043	 1.8899362261	-1.0183490511	 0.11309
H	-0.952923215	 1.894293829	 0.702091209	 0.113036
H	-0.9375143195	-0.4348676824	-0.1983667851	 0.05593
H	 1.4922098447	-0.6038785398	-1.7193660283	 0.056599
H	 2.458913962	 0.9157965716	 0.5919711932	 0.057696
H	 4.0585587508	-1.1181607983	 0.0673884706	 0.092344
H	 3.6408281923	-1.1319574831	 1.7822737358	 0.091337
H	 2.7320883702	-3.0458030366	-0.3091277878	 0.06383
H	 2.0092445046	-2.9133000522	 2.6723141778	 0.112614
H	 1.6872861646	-4.2830075919	 1.5996532187	 0.10886
H	 3.3541932472	-3.8301234531	 1.9807808931	 0.110703
H	 0.1706561173	-2.4964915609	 0.0594589486	 0.051833
H	 0.566787436	-0.591193758	 2.2387271079	 0.05811
