13
gdb 130699	5.78017	1.04671	0.88623	2.8232	79.55	-0.2376	-0.0744	0.1633	1201.8803	0.090333	-415.613706	-415.606447	-415.605503	-415.645514	27.558	
O	-0.0260351573	-0.0936056334	 0.0035302492	-0.385511
C	 0.0301999631	 1.1212546733	 0.0087556214	 0.441566
N	-1.1481670175	 1.8897820235	 0.0281369658	-0.272803
N	-1.2941398284	 3.2121378714	 0.036528707	-0.232264
C	-0.1899710184	 3.9250745262	 0.0253545225	 0.170141
C	 1.109309774	 3.3055231916	 0.0050665092	-0.129335
C	 1.2203826418	 1.957145177	-0.0029926463	-0.212538
C	-0.3122589008	 5.344341943	 0.0339094856	 0.254881
C	-0.3584436306	 6.5465539832	 0.0403745904	-0.388855
H	-2.0149460214	 1.3660372204	 0.03707935	 0.279971
H	 1.9847353911	 3.9454505489	-0.0034409684	 0.132293
H	 2.1763728388	 1.4480085905	-0.018185543	 0.137125
H	-0.4183918744	 7.6070672643	 0.0462958065	 0.205329
