19
gdb 111069	2.39533	1.34164	1.01609	3.3603	71.8	-0.2411	0.0625	0.3036	1209.2044	0.15798	-460.076805	-460.067756	-460.066812	-460.111154	33.595	
O	 0.3272796879	 0.3401509642	 1.0320354643	-0.416414
C	-0.1481176901	 0.3526046832	-0.3100917405	-0.13928
C	-1.4248570029	-0.462947946	-0.3200451399	-0.002281
C	-1.9744412967	-1.2055822252	-1.5707637037	 0.011358
C	-0.8487900637	-2.2593934936	-1.4798072164	-0.270072
C	-1.415487383	-1.9966480271	-0.0595663235	 0.397106
C	-1.224694307	-2.7732847099	 1.2076000759	-0.195578
O	-1.4849052646	-4.1505742499	 1.0073047625	-0.416099
O	-2.7883715478	-2.0441411202	-0.6599638054	-0.359199
H	 1.1074056218	 0.9005212758	 1.0827861831	 0.29045
H	-0.3714475976	 1.3777805597	-0.6452756907	 0.092807
H	 0.6043392511	-0.0568218733	-0.9983490153	 0.090081
H	-2.2168586968	 0.0348750509	 0.2446934532	 0.091132
H	-2.4763821869	-0.798771391	-2.4488805431	 0.094617
H	-1.1026905312	-3.2343727511	-1.8946091682	 0.11202
H	 0.1792467767	-1.9667082155	-1.6991317614	 0.097896
H	-0.1871311302	-2.6776856182	 1.5418112363	 0.126705
H	-1.8690035763	-2.3415993945	 1.9895755092	 0.10085
H	-2.3462893327	-4.2061926384	 0.5770893938	 0.293902
