14
gdb 10574	2.69284	1.92713	1.3026	1.7928	71.2	-0.2599	-0.004	0.2559	946.8785	0.102762	-345.310787	-345.302355	-345.301411	-345.34327	30.975	
C	-0.0667882554	 1.5354860848	-0.0695198503	-0.432061
C	-0.0293171952	 0.0380962184	 0.0623699334	 0.048023
O	 1.216139335	-0.6149756472	-0.1412779999	-0.274153
C	 0.6529976126	-0.6675231421	 1.19114819	 0.068614
C	 1.3550014507	 0.0846275401	 2.2044921877	 0.289062
C	 1.926785048	 0.6979914847	 3.0648162484	-0.451847
C	 0.1613614942	-1.9598257628	 1.6099670117	 0.267169
C	-0.2587387192	-3.0284807405	 1.9625586966	-0.437229
H	 0.7665522335	 1.9985933044	 0.4618305268	 0.144074
H	-0.0092007675	 1.8154468097	-1.1264596365	 0.135345
H	-1.0065192009	 1.9268231928	 0.3333062151	 0.130363
H	-0.8785955926	-0.4982958446	-0.3641316063	 0.104697
H	 2.4392794095	 1.2363834939	 3.8237199482	 0.204314
H	-0.6227348128	-3.9762238818	 2.2749093549	 0.20363
