18
gdb 53970	2.92467	1.04806	0.9986	5.7541	72.56	-0.2505	0.0035	0.254	1255.2736	0.146491	-435.312703	-435.30248	-435.301536	-435.348541	37.01	
C	 0.4220269881	 1.3880108353	 0.376068998	-0.460362
C	 0.1591441747	-0.110080172	 0.1967295688	 0.146211
N	 0.4648954266	-0.8048566934	 1.4463025535	-0.511148
C	-1.3408004348	-0.3795940409	-0.1325443556	-0.339303
C	-2.2538303622	 0.1840121506	 0.8571115604	 0.279398
N	-2.9853932123	 0.6558978886	 1.6168570099	-0.318117
C	 0.9384385443	-0.7682559273	-0.9795934295	 0.379964
N	 1.437209333	 0.0461181968	-1.9460259733	-0.531804
O	 1.0485226167	-1.9806817472	-1.0257064997	-0.377135
H	 1.4910780275	 1.585778209	 0.5085866371	 0.121936
H	 0.0601135663	 1.9742901165	-0.4748253113	 0.120708
H	-0.1026114263	 1.7435240959	 1.2658304729	 0.168523
H	 0.5748225748	-1.7946299656	 1.2332474544	 0.246467
H	 1.3624751081	-0.4900509553	 1.8043089242	 0.229025
H	-1.5927163614	 0.0329374987	-1.1165094568	 0.145976
H	-1.4886874362	-1.4624454649	-0.1907160475	 0.167561
H	 1.4244273949	 1.0469825712	-1.8743815317	 0.265287
H	 1.9544073583	-0.3787347063	-2.6994330037	 0.266815
