19
gdb 72668	2.30059	1.51007	1.44169	2.0137	81.79	-0.2432	0.0194	0.2626	1062.8215	0.157354	-385.82927	-385.820444	-385.8195	-385.862587	33.811	
C	-0.2750936185	 1.5296260025	 0.0813415582	-0.495754
C	-0.0341629311	 0.0425263717	 0.004147137	 0.227514
C	-1.2604475149	-0.9178374215	-0.0203309586	-0.280656
C	-0.6772433432	-1.7287705251	 1.1762187051	-0.275556
C	 0.5897576795	-0.8357205054	 1.1607569564	 0.237262
O	 1.5915699497	-1.3526479338	 0.2483046823	-0.32916
C	 1.1513402174	-0.484141915	-0.821613191	-0.120271
C	 1.1281357005	-0.3282432958	 2.3968768178	 0.260137
C	 1.5480630951	 0.1192232358	 3.4317870041	-0.425305
H	 0.6503909888	 2.0720082918	 0.3002772271	 0.127546
H	-0.6725201533	 1.9078913163	-0.8685145476	 0.120612
H	-1.0006871084	 1.7745693508	 0.8640308141	 0.122801
H	-2.2025715637	-0.4162588301	 0.2127153388	 0.105031
H	-1.3895603804	-1.4723571887	-0.9533893632	 0.103186
H	-1.2595955712	-1.6299015213	 2.0947697889	 0.112262
H	-0.4561473587	-2.782908884	 0.9992434527	 0.116654
H	 0.9095195689	-1.0410623037	-1.7353024884	 0.098783
H	 1.9110442534	 0.2745076921	-1.0537859671	 0.100458
H	 1.9296495801	 0.5046083535	 4.3449091237	 0.194455
