17
gdb 101074	2.73534	1.14728	0.94033	1.6482	69.09	-0.2655	-0.0069	0.2586	1247.8884	0.135499	-455.114589	-455.105395	-455.104451	-455.148833	33.537	
N	-0.4808625671	 1.4194475193	-0.2238931854	-0.52717
C	-0.0410201002	 0.0347664091	-0.0243865955	-0.086509
C	-1.2724945971	-0.7888808599	 0.3960267679	-0.06484
O	-1.9144640283	-0.1720185115	 1.4833379267	-0.424376
C	 0.6824144768	-0.5188939287	-1.2551425585	 0.221486
C	 0.4360267263	-1.8479222932	-1.8548670291	-0.209473
O	-0.1149931616	-0.6685745469	-2.4376727318	-0.250899
C	 1.9801943784	 0.098967597	-1.4914440927	 0.267206
N	 3.0061556925	 0.6136656938	-1.6271782076	-0.325504
H	 0.3001743589	 2.0661880868	-0.1982667989	 0.254881
H	-0.927810231	 1.5141122994	-1.1324184704	 0.250109
H	 0.6641443934	 0.0328897487	 0.8137735584	 0.113709
H	-1.9449103937	-0.9000843125	-0.4716585637	 0.098424
H	-0.9683293991	-1.7898748008	 0.7186811892	 0.108194
H	-1.8831041654	 0.7758498787	 1.2823919194	 0.289257
H	 1.2292440731	-2.3247541014	-2.4265625693	 0.143976
H	-0.279415696	-2.5175886378	-1.3852544787	 0.14153
