13
gdb 8787	4.63734	1.33551	1.04373	0.9805	63.8	-0.2521	-0.0913	0.1609	1063.0539	0.09316	-398.603161	-398.594499	-398.593555	-398.63705	29.186	
C	-0.0635151032	 1.4486779039	 0.0711771963	-0.335852
N	 0.1470841785	 0.0198283391	-0.0270031097	-0.319851
C	 0.5923132164	-0.5839764306	-1.1483393673	 0.342973
O	 0.8738248627	-0.0482336198	-2.2038564441	-0.367055
C	 0.7196714124	-2.1112787645	-0.9574377525	 0.11991
O	 0.4380695151	-2.6433553196	 0.0967589815	-0.300596
C	 1.1904237781	-2.8405136949	-2.1084594347	 0.31176
C	 1.5804597815	-3.4847708665	-3.0469783594	-0.38176
H	 0.56763766	 1.8884998975	 0.8508685299	 0.135124
H	 0.199695118	 1.8885827708	-0.8917966115	 0.171277
H	-1.1102720318	 1.6793108739	 0.2966520052	 0.135124
H	-0.0363566535	-0.5882969279	 0.7581729903	 0.267945
H	 1.9258990258	-4.0448733915	-3.882146774	 0.221
