18
gdb 11899	4.73621	1.46053	1.24133	1.8345	74.12	-0.2338	0.029	0.2628	1015.0536	0.153448	-347.805675	-347.798056	-347.797111	-347.837683	29.092	
C	-0.0702969036	 1.4918997831	 0.0437847869	-0.491466
C	 0.0102358672	-0.000688297	-0.0052459548	 0.334395
C	-0.0454902046	-0.7790679617	-1.0894437021	-0.167323
C	 0.0501182846	-2.2490168107	-0.7708456633	-0.338723
C	 0.354428107	-2.2502580739	 0.732027618	 0.431959
C	 0.290329212	-3.4456600683	 1.5760848934	-0.247848
O	 1.5503693932	-2.9238016735	 1.1453381013	-0.267302
C	 0.1534312005	-0.8257578048	 1.2560484567	-0.38359
H	 0.8304825855	 1.9227549766	 0.4993039103	 0.127176
H	-0.185802772	 1.922400136	-0.9546663463	 0.123226
H	-0.9171274703	 1.8242324715	 0.6582463383	 0.123504
H	-0.1612809172	-0.4105738822	-2.1033633218	 0.085431
H	-0.8846094204	-2.7794827933	-1.0004330281	 0.107692
H	 0.8491407292	-2.7656111854	-1.3155308544	 0.121936
H	 0.0816052786	-3.3472972897	 2.6416323099	 0.106993
H	 0.0054534735	-4.4033989659	 1.1399504745	 0.107614
H	 1.0086414142	-0.5252381944	 1.8735581413	 0.119801
H	-0.7400054975	-0.7404977964	 1.8909960902	 0.106527
