19
gdb 113742	2.92072	1.0762	0.86335	1.8575	78.82	-0.2421	0.0315	0.2737	1358.4394	0.156106	-422.954224	-422.944235	-422.943291	-422.989176	36.534	
C	 0.2582228094	 0.9717239783	 0.2546987227	-0.251157
O	-0.152003164	-0.1011343205	-0.5830527724	-0.237303
C	-1.39396917	-0.6144477046	-0.2303694472	 0.110376
C	-1.7110142736	-1.9890928507	-0.7221122659	-0.327725
C	-1.4876451148	-1.7568065638	 0.7606773476	-0.054012
C	-0.2254685265	-2.2962566075	 1.4099981549	-0.088473
O	 0.1685775652	-1.5230936535	 2.547506473	-0.416129
C	-0.3717006423	-3.7123805212	 1.7634083276	 0.314327
C	-0.5227961461	-4.8597956329	 2.0893315266	-0.443778
H	 1.2299904665	 1.3071562953	-0.1143907386	 0.125065
H	-0.4516282584	 1.810611515	 0.1970172893	 0.102888
H	 0.3492020906	 0.6476247204	 1.2978775106	 0.137995
H	-2.1955516663	 0.1260537247	-0.2080315572	 0.084486
H	-2.7114196129	-2.2085093586	-1.076265954	 0.116424
H	-0.9181838453	-2.4971503624	-1.261222632	 0.13
H	-2.3652875992	-1.7877645798	 1.4017640476	 0.085306
H	 0.5998465691	-2.1796721497	 0.699858829	 0.130511
H	-0.4534467391	-1.7154598813	 3.2580789163	 0.282661
H	-0.6376221423	-5.8786014673	 2.3665328523	 0.198538
