20
gdb 102297	2.1354	1.07679	0.92141	4.3142	76.32	-0.2817	0.016	0.2977	1406.5422	0.168066	-440.291041	-440.280396	-440.279452	-440.327657	37.561	
C	-0.4209309142	 1.5203892022	 0.3203497336	-0.392748
C	-0.1534021409	 0.0709316392	-0.0625171856	 0.136375
C	 0.9843051445	-0.5498886947	 0.7475838035	-0.396512
O	-1.3932804466	-0.6278591684	 0.1602258453	-0.277441
C	-1.5422019847	-1.8939297645	-0.4433124323	-0.04776
C	-2.9118086071	-2.4142122504	 0.0226459855	-0.066345
O	-3.9461416959	-1.5331680941	-0.3301570912	-0.408588
C	-1.4711914898	-1.8061385036	-1.9194406929	 0.281153
N	-1.3853138012	-1.7417689502	-3.069857028	-0.326068
H	 0.4716464078	 2.1292404462	 0.1516950733	 0.123442
H	-1.2388406727	 1.9300735767	-0.2777240091	 0.128764
H	-0.6938120055	 1.5928884472	 1.3780009611	 0.125051
H	 0.0857325356	 0.0183431412	-1.1339973367	 0.10353
H	 0.7484534676	-0.5276109003	 1.8162091221	 0.12616
H	 1.17892675	-1.5866228172	 0.4572685005	 0.120983
H	 1.9091362306	 0.0117639728	 0.584988893	 0.12683
H	-0.7630259673	-2.5985028806	-0.115788194	 0.114294
H	-3.1221506083	-3.3782330724	-0.4489914685	 0.129062
H	-2.8434063593	-2.5648060888	 1.110965803	 0.103993
H	-3.6761385024	-0.6596657203	-0.0218616626	 0.295824
