17
gdb 42417	4.15865	0.82183	0.78514	3.6406	76.21	-0.2472	-0.0587	0.1886	1481.3927	0.133406	-421.781251	-421.772017	-421.771073	-421.817125	32.24	
O	-0.1298852902	-0.2827650367	-0.0320666577	-0.285604
C	-0.0109267738	 0.9208812582	 0.0253887106	 0.243805
C	 1.3150216534	 1.639155673	-0.2001974824	-0.333685
C	 2.5235047856	 0.7476613413	 0.0265590455	 0.173189
C	 3.9232793196	 1.3707025642	-0.1711349277	-0.311937
C	 4.1545120663	 0.9510437634	 1.294249736	-0.057049
O	 2.7819877925	 0.530077796	 1.4350903984	-0.292575
C	-1.1497876872	 1.7872989434	 0.2823310104	 0.254095
C	-2.0787026752	 2.5242493532	 0.4903159168	-0.400443
H	 1.3074794509	 1.9969972985	-1.2407215597	 0.137893
H	 1.3679009598	 2.5291630801	 0.4356302869	 0.127337
H	 2.3773215291	-0.207337845	-0.4908735024	 0.098519
H	 4.5594202389	 0.9009878655	-0.9224054202	 0.113597
H	 3.9116298577	 2.4509396295	-0.3333657553	 0.108646
H	 4.8528790055	 0.115177696	 1.4292247211	 0.104073
H	 4.4152046156	 1.7470848017	 2.0010149764	 0.105046
H	-2.9113476084	 3.1577384777	 0.6788377234	 0.215093
