14
gdb 12164	4.0299	1.45825	1.13114	1.6718	65.12	-0.2497	-0.0364	0.2133	993.8711	0.104349	-382.504408	-382.496305	-382.49536	-382.53705	29.238	
O	 0.6128760664	 0.7957350842	 0.7109970025	-0.42064
C	 0.2520974705	-0.2910106842	-0.07202811	 0.062519
C	-1.2610152871	-0.7676680225	-0.198954605	-0.230656
C	-1.0095968376	-1.0461170007	-1.7240759605	-0.347357
C	 0.214030333	-0.1326615359	-1.5955466964	 0.325589
O	 0.7545441832	 0.6535241223	-2.320498547	-0.296149
C	-1.6920656487	-1.8621505628	 0.6391329902	 0.303592
C	-2.0248162787	-2.786449237	 1.3326274494	-0.431439
H	 0.6062943665	 1.5803446397	 0.149178183	 0.298107
H	 0.8518530046	-1.1629545599	 0.2173773232	 0.127354
H	-1.9131804988	 0.1034290174	-0.0825987511	 0.119317
H	-0.7369342437	-2.088474577	-1.9086191483	 0.146298
H	-1.777693586	-0.7368633574	-2.4336305391	 0.142866
H	-2.3255912336	-3.5970321662	 1.9491725491	 0.2006
