19
gdb 68656	4.38114	0.92446	0.88706	3.2462	77.25	-0.2392	-0.0236	0.2157	1364.231	0.156313	-422.980209	-422.971198	-422.970254	-423.014672	33.33	
C	-0.0336665038	 1.407994224	 0.0827168038	-0.508949
C	 0.1181138945	-0.0783679599	 0.0159670546	 0.406798
C	 0.6687632071	-0.9721959834	-1.1294993265	-0.302741
C	 0.0069586209	-1.8761219141	-0.0619827888	 0.402934
C	-0.3372024474	-3.3402887497	-0.1205746587	-0.414992
C	-1.1376482194	-3.7919703101	 1.0877725346	 0.157614
O	-0.8818431255	-4.7694347836	 1.7423749767	-0.241267
C	 0.7196092694	-1.0640412549	 1.0511811116	-0.292068
O	-1.1218408823	-0.9107465026	 0.006294794	-0.375877
H	 0.9495863339	 1.8887176538	 0.0799047099	 0.128788
H	-0.6015240807	 1.7751016283	-0.7773843017	 0.134979
H	-0.5592662027	 1.6994438303	 0.9969572559	 0.13569
H	 0.1253791837	-0.8999179724	-2.0732273877	 0.104121
H	 1.7523984734	-1.0344437699	-1.2606144107	 0.094919
H	-0.9537328633	-3.5122391689	-1.0143298638	 0.134718
H	 0.5656670675	-3.9523161286	-0.2012103777	 0.129285
H	-2.0053343078	-3.1415273722	 1.3287836709	 0.101968
H	 1.8079177429	-1.1357539447	 1.1247600903	 0.096366
H	 0.2249745497	-1.0715065415	 2.0240089831	 0.107715
