19
gdb 102968	2.18955	0.86867	0.65027	2.1914	73.93	-0.2557	-0.045	0.2107	1682.6303	0.153895	-460.167488	-460.156676	-460.155732	-460.205589	35.883	
C	-0.081759463	 1.5101451452	-0.1211037245	-0.39038
C	 0.0505802454	-0.0144081581	-0.1233901002	-0.197696
C	 0.8666935654	-0.5380183678	-1.3135071762	 0.050055
O	 2.1786676555	-0.011422174	-1.2199976826	-0.258512
C	 2.9355646482	-0.1091246413	-2.4043863896	-0.159563
C	 4.2767675325	 0.5647963393	-2.1636702398	 0.140287
O	 5.1658205437	 0.5792429453	-2.9711741441	-0.231748
C	 0.900427305	-2.064036583	-1.2675390172	 0.131993
O	 0.0275493231	-2.7732271396	-1.6918964169	-0.239633
H	 0.9017920684	 1.9847768451	-0.0909786835	 0.133729
H	-0.601846647	 1.8619958283	-1.0186286095	 0.118357
H	-0.6516923542	 1.846071619	 0.749821233	 0.121181
H	 0.5316252958	-0.3527047997	 0.8025708439	 0.11241
H	-0.9346090593	-0.4905979476	-0.1663735312	 0.124712
H	 0.3858494234	-0.2286592313	-2.2546862549	 0.094102
H	 3.1132141273	-1.1517807135	-2.712413816	 0.131787
H	 2.4355203993	 0.3948034008	-3.2483064618	 0.131501
H	 4.3580540517	 1.0522685506	-1.1673774494	 0.099242
H	 1.8061556888	-2.4706879576	-0.7590247894	 0.088177
