15
gdb 50476	4.70679	0.97041	0.84657	3.752	63.53	-0.2812	-0.0601	0.2211	1271.323	0.112252	-494.942661	-494.934464	-494.93352	-494.977009	28.219	
O	 0.1253579996	-0.1236885321	-0.005914451	-0.225011
C	 0.0647656179	 1.0758607751	 0.0060529083	 0.148298
C	 1.2714874517	 1.9972472491	 0.0006663634	-0.143061
C	 1.2298611049	 2.9244990287	-1.2123007544	-0.079126
O	 2.2540927995	 3.9211723488	-1.1533011724	-0.253901
C	 2.7175030018	 4.4348905957	 0.0078656308	 0.476872
O	 3.5172115486	 5.3187988551	 0.0071844658	-0.349938
O	 2.2813574612	 3.8983183989	 1.1692519698	-0.253942
C	 1.2593320178	 2.8996476759	 1.2329059889	-0.079067
H	-0.9163541278	 1.6056787509	 0.0225336748	 0.088587
H	 2.1756699902	 1.3829848092	-0.0164877062	 0.127527
H	 1.4031164362	 2.3822648195	-2.1443159094	 0.147266
H	 0.2538742915	 3.4241360546	-1.2813300083	 0.124106
H	 0.2851564014	 3.3969482568	 1.3359683424	 0.124107
H	 1.4555258254	 2.3386544138	 2.1491409075	 0.147282
