18
gdb 84388	2.16224	1.73831	1.12844	3.8647	76.56	-0.2651	-0.0054	0.2597	1104.3507	0.147837	-401.97455	-401.965875	-401.964931	-402.00788	32.696	
C	-0.0468370621	 1.6116740914	-0.0790550936	-0.411342
C	 0.065284708	 0.085806958	-0.0247228547	-0.037428
C	 0.8025195747	-0.5428745201	-1.1897000724	-0.052155
C	 1.5697965694	-1.5659030014	-0.8250022194	-0.126784
C	 1.4924317717	-1.8359790003	 0.6612280852	 0.097848
O	 2.6958780211	-2.2085228539	 1.2860946066	-0.421946
C	 0.832315639	-0.5096594655	 1.20513281	-0.227337
C	 1.889215987	 0.3831671728	 1.6786889597	 0.287176
N	 2.7537890336	 1.0623431571	 2.0376532747	-0.340207
H	 0.9385155909	 2.083461715	-0.1219754937	 0.146004
H	-0.6099438477	 1.9145281134	-0.9674959236	 0.11846
H	-0.5714335703	 2.0030340256	 0.7981224619	 0.1245
H	-0.9542286913	-0.325151385	 0.0097836971	 0.098964
H	 0.6573008914	-0.1923774456	-2.2060078509	 0.105942
H	 2.1568366003	-2.1995307952	-1.4794200857	 0.111033
H	 0.8100475671	-2.6712896343	 0.8632991332	 0.107992
H	 3.3320052877	-1.490074637	 1.1781212601	 0.29422
H	 0.1641461496	-0.7120162551	 2.0465275254	 0.125061
