23
gdb 89368	2.81213	1.50102	1.34487	0.1921	89.23	-0.2315	0.0229	0.2544	1109.12	0.207698	-351.17827	-351.170039	-351.169095	-351.210194	34.313	
C	-0.1819866137	 1.54966951	 0.0064554427	-0.414412
C	 0.0442146357	 0.0391052012	 0.0040029505	 0.05624
C	 0.9106364489	-0.4926000518	-1.1817832242	-0.250469
C	 2.027848299	-1.3467634773	-0.4802557432	 0.302021
C	 2.7571684706	-2.3262902318	-1.383244876	-0.491707
C	 1.2151518273	-1.9181613037	 0.7117565633	-0.242904
C	 0.815219756	-0.5280607551	 1.2523767398	-0.073622
C	 2.1783335107	 0.1451237716	 1.2932794144	-0.089116
C	 2.889308085	-0.3328583508	 0.2680076852	-0.105737
H	 0.7695231522	 2.0909593063	 0.0206320387	 0.116039
H	-0.7304086203	 1.8655091118	-0.8877015291	 0.109814
H	-0.7639008354	 1.8651461672	 0.8801753529	 0.105715
H	-0.9343862289	-0.4547506417	-0.0214153158	 0.066033
H	 0.3200175176	-1.1191922113	-1.8590043316	 0.088502
H	 1.342562306	 0.3171466302	-1.777841942	 0.090545
H	 3.2802098072	-1.8066571789	-2.1943920325	 0.111619
H	 3.5022271736	-2.902843071	-0.8241819597	 0.113394
H	 2.0594009985	-3.0352553555	-1.8425732347	 0.110118
H	 0.36059324	-2.5287612665	 0.3973249244	 0.080896
H	 1.8367341515	-2.4870189841	 1.4089027338	 0.088655
H	 0.2352862551	-0.4961195865	 2.1764230548	 0.051519
H	 2.4589717407	 0.9410360335	 1.9719609449	 0.090614
H	 3.8674842027	-0.0073649258	-0.0676999765	 0.086243
