19
gdb 99824	1.98937	1.48357	1.09886	5.1159	76.3	-0.2574	-0.0343	0.2231	1202.3694	0.155974	-419.225895	-419.215103	-419.214159	-419.262742	37.644	
C	-0.0463259232	 1.4815125872	 0.1228608136	-0.337547
N	 0.0949280859	 0.0246819201	 0.0446363135	-0.302745
C	 0.7058778027	-0.505001758	-1.1799900933	-0.025358
C	-0.1119160605	-0.1049922431	-2.4276797719	-0.426257
C	 2.0987525791	-0.0199070391	-1.346087384	 0.297315
N	 3.1508047931	 0.4518217134	-1.4257014568	-0.344597
C	 0.7232240532	-2.0622891093	-1.0630142886	 0.374684
C	-0.6172778245	-2.735085723	-0.8521491648	-0.485941
O	 1.7567680136	-2.6743443198	-1.1489376744	-0.278961
H	 0.8858100039	 2.0302821656	-0.0788149952	 0.132842
H	-0.811461558	 1.8251932459	-0.57800027	 0.133333
H	-0.3864338083	 1.7352244293	 1.1298510198	 0.132232
H	 0.6466053309	-0.2904213407	 0.8370800782	 0.237803
H	-0.0263866676	 0.96565127	-2.6218850886	 0.148875
H	 0.2612431731	-0.6345855646	-3.3077889778	 0.148198
H	-1.1645005276	-0.3518336286	-2.2733326767	 0.138346
H	-1.1418988811	-2.8075282293	-1.8119868778	 0.151715
H	-0.4515329774	-3.7451421862	-0.4757892551	 0.149457
H	-1.2454569675	-2.1565374198	-0.17292442	 0.156604
