23
gdb 37041	2.6521	1.64842	1.35436	0.4586	88.26	-0.2259	0.0825	0.3084	1079.3609	0.209363	-351.149628	-351.141982	-351.141038	-351.181197	32.33	
C	 0.0236166718	 1.4180068504	 0.1138729197	-0.372235
C	 1.358807239	 0.7413627331	-0.0410297652	 0.322273
C	 1.7749987508	 0.1430156158	 1.3123355409	-0.29373
C	 0.4584814747	-0.7082877492	 1.3214154502	-0.290545
C	 0.0658592298	-0.0831914431	-0.0257673489	 0.319789
C	-0.456448111	-0.7841697228	-1.2635552465	-0.317124
C	 0.6437131855	-0.8640372129	-2.3484803661	-0.180467
C	 1.3923936742	 0.4681475003	-2.5396480428	-0.198261
C	 2.2029130091	 0.8687084731	-1.2842556551	-0.305965
H	-0.2463253339	 1.8737746371	 1.0649886988	 0.095667
H	-0.3482965902	 1.956361348	-0.752327784	 0.104888
H	 2.6701325103	-0.4814017473	 1.2450491805	 0.096075
H	 1.9116208765	 0.8535539522	 2.1350840932	 0.090036
H	 0.6637513329	-1.7799754583	 1.2495422038	 0.09669
H	-0.236334823	-0.5458492775	 2.1533418835	 0.089698
H	-0.8001405029	-1.7937925063	-1.0109865687	 0.095444
H	-1.3289004233	-0.2575620056	-1.6704035969	 0.095981
H	 1.3728484206	-1.6365030939	-2.0674856166	 0.091069
H	 0.202111587	-1.1843177038	-3.2987846786	 0.089386
H	 2.0724309032	 0.3927414387	-3.3949897691	 0.093379
H	 0.6730549837	 1.2584128142	-2.7935529263	 0.09531
H	 2.6217359178	 1.876034753	-1.4065579196	 0.091216
H	 3.0595558774	 0.1864372748	-1.195834926	 0.091427
