18
gdb 74789	2.833	1.73192	1.53082	2.2376	75.54	-0.2352	0.0019	0.2371	952.8066	0.150644	-401.968822	-401.961745	-401.960801	-402.000006	28.525	
C	-0.0301553127	 1.4966828879	 0.0622002671	-0.511221
C	-0.0737934427	 0.0060360623	-0.0084054728	 0.33689
C	-0.0541779089	-0.7951273798	-1.0807703983	-0.170309
C	 0.0591725666	-2.2494582985	-0.6344722948	-0.026337
C	-0.6312337751	-2.1861945113	 0.743149026	-0.249292
C	 0.016968108	-0.8872778482	 1.2247507614	 0.022211
O	 1.4329081802	-1.1541750095	 1.4801724956	-0.247519
C	 2.0180586722	-1.9819199685	 0.575387128	 0.12537
N	 1.4961300286	-2.5509629556	-0.4320798243	-0.266794
H	 0.8820698926	 1.8367610981	 0.5681523174	 0.139865
H	-0.0525784185	 1.9454579312	-0.934441845	 0.128359
H	-0.8753397413	 1.8967966341	 0.6365934498	 0.125988
H	 0.0027102631	-0.4769895407	-2.1154698794	 0.101254
H	-0.3587681144	-2.979385609	-1.3287803306	 0.072355
H	-1.7128206307	-2.0631672012	 0.6508672795	 0.106733
H	-0.4094505526	-3.0452485548	 1.3812161464	 0.10991
H	-0.3611336094	-0.4651333367	 2.1565705025	 0.080278
H	 3.0708711349	-2.1177797197	 0.8171019214	 0.122257
