17
gdb 93190	2.88274	1.41509	0.98814	6.2776	72.34	-0.2548	-0.0349	0.2199	1169.9929	0.137083	-455.187425	-455.179081	-455.178137	-455.2207	31.108	
C	-0.2601355819	 1.4728418493	 0.035118441	-0.413307
C	 0.0204302986	-0.0267340643	-0.0370306924	 0.035462
C	 0.8538707224	-0.390350505	-1.2561243949	-0.082736
O	 1.1630089214	-1.7844694157	-1.272139198	-0.258717
C	 1.6913784495	-2.3402743107	-0.1391965267	 0.281573
N	 2.2067943981	-3.4922409082	-0.1369687372	-0.464241
C	 1.5854403188	-1.565302282	 1.1751482054	 0.356693
O	 2.1655349954	-1.9155267859	 2.1774094269	-0.337172
N	 0.7758439892	-0.4630633302	 1.1284653581	-0.344948
H	 0.6729877224	 2.0438548684	 0.0660569717	 0.135679
H	-0.8417036792	 1.7965773549	-0.8327270295	 0.133281
H	-0.8397875271	 1.7146020002	 0.9315146275	 0.131198
H	-0.9361912205	-0.5681722541	-0.1008325225	 0.101184
H	 0.3050736556	-0.1987484032	-2.1806097534	 0.127207
H	 1.7808842789	 0.1992569577	-1.2644795352	 0.118192
H	 2.1870391061	-3.8822566662	-1.0825519649	 0.228825
H	 0.6238191723	-0.0123474349	 2.0197940643	 0.251828
