21
gdb 111979	2.18742	1.49616	1.20871	2.495	80.	-0.2513	0.0003	0.2516	1163.8782	0.182039	-424.224658	-424.215183	-424.214239	-424.258884	35.46	
C	 0.2790153307	 0.8043604567	-0.7872937098	-0.236656
O	-0.0172888928	-0.4902718887	-0.3131167232	-0.25055
C	-1.3316795763	-0.6292272573	 0.2409444656	 0.059494
C	-2.3948217461	-0.6320037013	-0.8453339086	-0.087757
C	-2.7153473058	-1.8793899523	-1.1896029375	-0.091938
C	-1.9148617229	-2.8929605655	-0.3935635486	 0.090451
O	-0.8368913276	-3.4142404152	-1.1669091896	-0.436074
C	-1.4547832839	-2.0528313499	 0.8286718821	-0.0464
C	-0.2294724874	-2.5819644639	 1.5661259087	-0.39343
H	 1.3265848796	 0.802974199	-1.0986272004	 0.129137
H	-0.3433165163	 1.087766197	-1.6482485124	 0.108572
H	 0.1451585009	 1.5611539298	 0.0010532955	 0.10605
H	-1.4802501865	 0.1568017944	 0.996708486	 0.061586
H	-2.782140461	 0.2717789051	-1.3020539366	 0.099094
H	-3.395263133	-2.1681518658	-1.9834274167	 0.102023
H	-2.4979508132	-3.768783756	-0.0927727573	 0.078618
H	-0.2958632591	-2.653942268	-1.4180126864	 0.28192
H	-2.3057142581	-2.0180909201	 1.5200616138	 0.079311
H	 0.6325900966	-2.6588517784	 0.9030739516	 0.130828
H	 0.038955691	-1.9237795749	 2.3989351609	 0.105354
H	-0.4319205589	-3.5775986249	 1.9738666629	 0.110367
