17
gdb 125934	3.84893	1.3782	1.15828	1.9688	74.15	-0.2033	0.0046	0.2079	1065.4846	0.1397	-414.1903	-414.182837	-414.181893	-414.222199	28.871	
C	 0.231714276	 1.4762282236	 0.0850582477	-0.394107
C	-0.0348617515	-0.0257002252	-0.0363193437	 0.034788
C	 0.6636022933	-0.6448166519	-1.3085499233	-0.36431
C	 1.8720213551	-1.2698359758	-0.6883982616	 0.302039
N	 3.0249980738	-1.8289167898	-1.0230240198	-0.310255
N	 3.5298253641	-2.1678482726	 0.1675578749	-0.114563
N	 2.7900790208	-1.86612964	 1.2633964236	-0.343868
C	 1.7345340142	-1.2993101696	 0.7022089497	 0.364288
N	 0.5201634951	-0.7832703146	 1.1322525396	-0.404896
H	 1.3080616769	 1.6796710669	 0.0945933321	 0.130707
H	-0.2122722897	 2.0175481317	-0.7568061869	 0.122177
H	-0.2025228834	 1.8800858948	 1.0062226577	 0.115452
H	-1.1142289232	-0.1985147059	-0.0785976782	 0.088377
H	 0.0174809978	-1.3919897065	-1.7831271681	 0.126393
H	 0.8779834543	 0.1253465779	-2.0548938819	 0.122557
H	 4.4374098533	-2.5912626797	 0.2535031422	 0.286157
H	 0.5236838933	-0.2696409735	 2.003732716	 0.239064
