21
gdb 80446	2.42685	1.41717	1.19603	1.7873	84.77	-0.2174	0.0154	0.2328	1177.8799	0.181723	-387.097505	-387.088371	-387.087427	-387.130611	35.592	
C	 0.1038780635	 1.4765711564	 0.1188985294	-0.4882
C	 0.0392097711	-0.016763071	 0.0450727348	 0.295938
C	-0.0156252433	-0.7796460665	-1.0563307919	-0.269131
C	-0.0264943147	-2.2451233234	-0.761462454	 0.265899
C	-0.844685987	-3.177490079	-1.623500331	-0.486065
C	 1.2265388447	-2.7310205343	-0.0526614378	 0.089675
O	 2.4292157262	-2.0258046139	-0.0452203359	-0.430815
C	 0.0360488637	-2.312265287	 0.7752570146	-0.153033
C	 0.0330045558	-0.8782508192	 1.2981057066	-0.320003
H	 1.0163245361	 1.8147955307	 0.6259276694	 0.128328
H	 0.0794955458	 1.932473053	-0.8746160088	 0.124499
H	-0.737164026	 1.8769738372	 0.6995785695	 0.127435
H	-0.0321854668	-0.3957801861	-2.0721240552	 0.087089
H	-0.4894676484	-3.175394227	-2.6609597176	 0.117691
H	-0.7839794069	-4.2073948637	-1.2580460796	 0.116108
H	-1.9022729547	-2.8888359338	-1.6323972077	 0.116704
H	 1.4211739724	-3.7984602182	-0.1099898028	 0.096435
H	 2.2413604345	-1.1399554938	-0.3821834401	 0.279237
H	-0.5077108527	-3.0751637567	 1.3223180371	 0.079845
H	 0.9119050617	-0.673337859	 1.9251967631	 0.116622
H	-0.847766525	-0.6655255347	 1.9180561178	 0.105743
