21
gdb 113415	4.34035	0.82056	0.7693	2.8928	84.33	-0.2404	-0.0194	0.221	1550.2734	0.180436	-387.091348	-387.081962	-387.081018	-387.126363	35.202	
C	 0.471665687	 1.5564783376	 0.2838947452	-0.371685
C	-0.1300416624	 0.202799226	-0.11122252	-0.198177
C	 0.5558833922	-0.4181101187	-1.3105693781	-0.045224
C	 1.8094187345	-1.2500641487	-1.1348253466	-0.351079
C	 0.5223980805	-1.8988928134	-1.5578022472	 0.332566
C	-0.2779657903	-2.9578499372	-0.7718406361	-0.424126
C	-0.5359475575	-3.6634044775	-2.1180508133	 0.409438
O	-1.1201096339	-4.6588645367	-2.4303065918	-0.287936
C	 0.2528467281	-2.598134823	-2.9046574873	-0.42609
H	 1.5341819446	 1.4571147249	 0.5288037757	 0.119339
H	 0.3874010389	 2.2796168116	-0.5346929203	 0.115237
H	-0.0387175662	 1.9786489677	 1.1550375777	 0.112199
H	-0.0675582446	-0.4879948731	 0.7392611965	 0.096665
H	-1.200416362	 0.326760635	-0.3240129328	 0.097399
H	 0.5290361547	 0.1992648916	-2.2074686056	 0.081154
H	 2.6057221905	-1.1589499287	-1.8670055614	 0.111551
H	 2.1555785699	-1.4286229197	-0.1202730869	 0.110754
H	 0.2857958383	-3.5648425049	-0.0556959121	 0.129227
H	-1.1931922928	-2.6084317174	-0.2816125934	 0.130526
H	-0.3570927823	-2.0415404526	-3.6247768723	 0.128597
H	 1.127947403	-2.9976349228	-3.4286177299	 0.129664
