20
gdb 106760	2.03555	1.54189	1.08856	2.2518	75.85	-0.224	0.0649	0.2889	1191.1621	0.16933	-440.235244	-440.225498	-440.224554	-440.270187	36.155	
C	-0.1303445585	 1.5129377254	 0.089308543	-0.508338
C	 0.1432702711	 0.0421990341	 0.0224873747	 0.279499
C	 0.6805661409	-0.7429380571	-1.1841191786	-0.30203
C	 1.3607374039	-1.7434603095	-0.1827979792	 0.080691
O	 2.7737112544	-1.7063217384	-0.1716080043	-0.444477
C	 0.8101477904	-0.8993490477	 0.9759563947	 0.265772
C	 1.4640140182	-0.6847234015	 2.3043102037	-0.206775
O	 1.266033116	-1.7630035577	 3.2130760178	-0.412427
N	-0.6623178634	-0.9446032827	 0.7877248393	-0.41083
H	 0.7074702512	 2.0891337256	-0.317419086	 0.126448
H	-1.025434802	 1.7708854209	-0.4894490233	 0.129604
H	-0.2967033531	 1.8412729467	 1.1210148704	 0.119439
H	-0.0715532322	-1.1443439663	-1.8683404669	 0.098701
H	 1.4473872534	-0.1923398236	-1.7357984058	 0.098516
H	 0.9801120831	-2.7726528603	-0.2186374246	 0.07147
H	 3.0927255579	-2.1212274273	-0.9792164451	 0.286678
H	 2.5335484557	-0.4878322689	 2.1471786297	 0.11267
H	 1.0318996609	 0.1965050773	 2.7922523476	 0.101165
H	 1.7115387285	-2.5332311046	 2.8455656574	 0.288965
H	-1.0747239965	-0.4569252543	 1.5842975055	 0.225261
