17
gdb 65338	4.02541	1.04572	0.96356	0.667	76.19	-0.2487	0.0308	0.2795	1238.0934	0.13282	-421.749294	-421.740268	-421.739324	-421.783042	33.758	
O	-0.1293962342	 1.602199304	-0.1414020877	-0.469428
C	 0.0777068919	 0.2341186807	 0.0191748791	 0.384605
C	-0.1800665613	-0.4029623104	 1.3494700467	-0.345716
C	-1.1404281836	-0.6769799637	 0.1890122557	-0.277869
C	-2.4261224225	-0.053331342	 0.1505306986	 0.277608
C	-3.4673995606	 0.5491854073	 0.079134565	-0.417747
C	 1.2017889019	-0.2513789697	-0.8467415928	 0.019576
C	 2.5509820184	-0.478087518	-0.3149175398	-0.170217
O	 1.6704178077	-1.5736875289	-0.5940582256	-0.235704
H	-1.0734176712	 1.7490315632	-0.2942736952	 0.290403
H	 0.4422689926	-1.2363979186	 1.6536715466	 0.136096
H	-0.5331730653	 0.2498376447	 2.1384666383	 0.128935
H	-1.0673575066	-1.6603751589	-0.2641234436	 0.132947
H	-4.4093666671	 1.0384289461	 0.0424041	 0.20251
H	 1.0960914217	 0.0079732789	-1.9006061813	 0.101527
H	 3.4123727996	-0.3963249974	-0.9748238376	 0.121253
H	 2.7430933585	-0.2950266673	 0.7404280136	 0.12122
