13
gdb 21934	5.05883	1.43858	1.14903	4.3077	56.08	-0.2208	0.01	0.2307	962.0047	0.097019	-431.954171	-431.946822	-431.945878	-431.986171	26.2	
O	 0.3842911503	 0.2927564022	 0.9640413557	-0.422429
C	-0.1453473579	 0.2401726259	-0.3534862491	-0.185769
C	-1.4923209901	-0.3936173469	-0.2642810831	 0.405692
N	-2.516748871	-0.0852335645	-0.9975706	-0.273386
N	-3.4893171317	-0.9757722178	-0.5986876319	-0.297542
C	-3.0978818702	-1.8277795664	 0.4160384149	 0.457833
O	-3.7241658963	-2.6831506787	 1.0003974491	-0.419306
N	-1.7630361762	-1.4351766642	 0.5862353077	-0.38061
H	 1.3055900669	 0.5624417385	 0.9075404143	 0.300369
H	-0.2600606925	 1.2315868199	-0.8104230307	 0.131827
H	 0.5012400134	-0.3617604843	-1.0119407049	 0.117659
H	-4.414197365	-0.920141495	-0.9865970531	 0.281351
H	-1.1616484198	-1.7671175087	 1.320382591	 0.284309
