17
gdb 128553	3.94988	1.2395	0.96075	1.8144	77.44	-0.2022	0.0322	0.2345	1208.4032	0.137797	-417.972119	-417.964195	-417.963251	-418.0053	28.873	
C	 0.0215740854	 1.4238510624	 0.0893719741	-0.249228
O	-0.0623766704	 0.0128356271	 0.0266391337	-0.264068
C	 0.5120970469	-0.556182231	-1.06212618	 0.088223
C	 0.5680479166	-1.9099505908	-1.3556216717	 0.291015
C	 0.3892417742	-3.4188759294	-1.2613739155	-0.384257
C	 1.1719299415	-3.4645738405	-2.6393214766	-0.164031
N	 1.227047826	-2.0010830424	-2.5238338555	 0.090326
N	 1.6330245954	-0.8607211058	-3.0702753562	-0.308666
C	 1.190895891	 0.0408250868	-2.1652066441	-0.116619
H	 1.0659577349	 1.7630886735	 0.1163325951	 0.121831
H	-0.481183087	 1.8944426831	-0.7664006234	 0.121825
H	-0.4789532943	 1.724760698	 1.0112486968	 0.131962
H	 0.9047954547	-3.9121138403	-0.4341943507	 0.131458
H	-0.6387641726	-3.7843682449	-1.3150972297	 0.131478
H	 2.1509051379	-3.9497255228	-2.6125785948	 0.13495
H	 0.5982035517	-3.8212125546	-3.4984936424	 0.134944
H	 1.3751388084	 1.0901200818	-2.3361635391	 0.108859
