25
gdb 122207	2.47868	0.79008	0.67567	1.2828	89.35	-0.2607	0.0796	0.3403	1789.4844	0.227429	-389.480872	-389.469817	-389.468872	-389.517879	40.455	
C	 0.5950068535	-0.106837791	 1.3489875149	-0.381317
C	 0.0238156937	-0.1939023707	-0.0718138182	-0.253793
C	-1.3982580296	-0.7378634367	-0.1425280639	 0.408634
C	-2.4823971483	 0.0732806912	 0.5572632224	-0.281628
C	-2.6781207534	 1.48425511	-0.0123608232	-0.166642
C	-3.8396359779	 2.224238842	 0.6372992436	-0.074179
O	-3.9153311231	 3.5188812594	 0.0580834619	-0.422456
C	-1.797133714	-1.4612652925	-1.4074567077	-0.311439
C	-1.5530348478	-2.2411278895	-0.1360529776	-0.316867
H	 1.6367286053	 0.2283919683	 1.3304776475	 0.110323
H	 0.0357869599	 0.6000738847	 1.9701515506	 0.116581
H	 0.5641492588	-1.0820958041	 1.8464836846	 0.116065
H	 0.0662967228	 0.795750884	-0.544159838	 0.099893
H	 0.6705855611	-0.8410519143	-0.6768682752	 0.089926
H	-3.4292730942	-0.4774914808	 0.4816934852	 0.087922
H	-2.2603326544	 0.1393318248	 1.6309655982	 0.095316
H	-1.7733652254	 2.0873096477	 0.1246438406	 0.107917
H	-2.8575002156	 1.4318022226	-1.0928877819	 0.106896
H	-4.7748464145	 1.661710414	 0.4784356659	 0.081358
H	-3.6806519395	 2.2849109124	 1.7270488389	 0.081592
H	-4.6495721369	 3.9877067153	 0.4649854768	 0.283939
H	-2.8209196774	-1.3617185818	-1.7538778531	 0.105493
H	-1.0676602318	-1.5440767268	-2.2065117896	 0.106176
H	-0.6548167282	-2.8474668692	-0.0755800104	 0.105819
H	-2.4097692931	-2.670940699	 0.3727286376	 0.104469
