17
gdb 1813	3.84077	2.08703	1.97516	2.2253	59.92	-0.2543	0.0608	0.315	761.9289	0.146589	-346.838572	-346.830649	-346.829705	-346.870101	30.003	
C	 0.0724374264	 1.4517875082	-0.2597852409	-0.408626
C	 0.0192185289	-0.029973183	 0.1305850449	 0.096276
O	 0.563660204	-0.2331875007	 1.4269344186	-0.44049
C	-1.3907070882	-0.595148108	 0.0765737826	 0.398442
O	-2.2254901245	-0.053107161	 1.0784000286	-0.478207
C	-2.0170519224	-1.0121504556	-1.2257476231	-0.331204
C	-1.6130905703	-2.0484991127	-0.1912306923	-0.299924
H	 1.0961988453	 1.8226932466	-0.1683987932	 0.127617
H	-0.2672312014	 1.6070782341	-1.28937507	 0.111792
H	-0.5559720885	 2.0535543554	 0.4073821778	 0.100051
H	 0.6502804083	-0.602289687	-0.5601968347	 0.079628
H	-0.1541052844	-0.0388923711	 2.0433518007	 0.283021
H	-2.5091681329	 0.821376529	 0.7893127129	 0.286917
H	-3.0778256051	-0.8220520294	-1.3477919629	 0.114444
H	-1.4317088119	-0.929164185	-2.135690519	 0.11457
H	-0.7483347752	-2.6722503225	-0.3872871443	 0.121688
H	-2.4099415081	-2.5277180774	 0.3651070941	 0.124006
