19
gdb 109245	2.60806	1.36886	1.02713	1.1299	76.76	-0.2261	0.0208	0.2469	1192.1667	0.158881	-423.013835	-423.005134	-423.004189	-423.046938	33.623	
O	 0.1867182869	 1.3318641098	 0.0120918055	-0.410448
C	 0.017023975	-0.070666955	-0.0836363562	-0.177602
C	-1.4135223565	-0.5158618621	-0.0387779448	 0.222057
C	-2.5071543887	 0.2503249806	-0.100142149	-0.19052
C	-3.7855446874	-0.5528372513	 0.0283723922	-0.274444
C	-3.2954306334	-1.9962593416	 0.0959172354	-0.085044
C	-2.5282488261	-2.5525632218	-1.0884117241	-0.343805
C	-1.781656791	-1.9673073429	 0.0881441474	 0.300492
O	-1.0291287869	-2.7874427502	 0.9339800261	-0.464816
H	-0.2297031263	 1.6109849041	 0.8346659886	 0.282701
H	 0.4760945974	-0.3610126763	-1.0388690848	 0.118438
H	 0.5775345425	-0.6042967817	 0.7016687903	 0.10303
H	-2.4981912755	 1.3214907079	-0.2638891467	 0.097553
H	-4.3495728699	-0.2730772469	 0.9282413254	 0.108512
H	-4.4605747273	-0.3850463477	-0.821102607	 0.110634
H	-3.8101895742	-2.7123675215	 0.7245833515	 0.096033
H	-2.5252238268	-3.6350974375	-1.1739916182	 0.109285
H	-2.5263009525	-2.0131969742	-2.030724975	 0.112756
H	-0.3658241991	-3.2398039017	 0.4029082035	 0.285188
