17
gdb 78061	2.35884	1.31495	1.19051	3.4157	74.48	-0.2511	-0.0438	0.2073	1127.8553	0.134177	-421.823608	-421.815101	-421.814157	-421.857133	31.172	
C	-0.2725720062	 1.6311826523	-0.011690174	-0.426355
C	 0.0303441865	 0.1397349134	-0.0572426723	-0.101407
C	 0.5652876785	-0.5744772413	-1.3123104347	-0.094674
C	 2.0076153948	-0.2668675946	-1.6293948843	-0.109506
C	 2.7342109212	 1.0098831763	-1.3670137149	 0.145279
O	 3.4368482963	 1.5431503258	-2.1882952176	-0.259431
C	 1.6801258358	-1.2651300778	-0.5126782721	-0.204477
C	 1.2132353404	-0.5156736748	 0.7152565495	 0.383494
O	 1.5205836171	-0.5402864905	 1.8715941964	-0.307947
H	 0.5438931564	 2.2403728279	-0.4066952822	 0.128719
H	-1.1699764823	 1.8627450816	-0.5941488438	 0.127539
H	-0.4537602287	 1.9415538349	 1.0220921955	 0.14151
H	-0.8533159826	-0.413371818	 0.2914814765	 0.118138
H	-0.0567560609	-1.0271131742	-2.0739392688	 0.115297
H	 2.3533392447	-0.7418668112	-2.5438822625	 0.124014
H	 2.6215859653	 1.4326813372	-0.3460830528	 0.095386
H	 2.0685015635	-2.2750582569	-0.551985878	 0.12442
