20
gdb 102669	2.19354	1.19956	1.12511	2.4091	75.01	-0.2454	0.0136	0.259	1256.9768	0.170052	-477.413318	-477.403571	-477.402627	-477.448021	35.306	
C	-0.0958904415	 0.0131531804	 0.6159485352	-0.325099
N	 0.3012347323	-0.9998397036	-0.3448479118	-0.256058
C	 0.6795137185	-0.6106689756	-1.4893490343	 0.179496
O	 1.0721822073	-1.3528722459	-2.5213421937	-0.251842
C	 1.3487114538	-2.7828213429	-2.4856082415	 0.077087
C	 2.8085831282	-3.0200402479	-2.0810832783	-0.059815
O	 3.1000141817	-2.6787585908	-0.748223433	-0.421137
C	 0.3465014789	-3.6484846125	-1.7078862979	-0.107139
O	 0.5375921501	-3.6700645835	-0.308913357	-0.424423
H	 0.5524787442	-0.0381861196	 1.497353111	 0.138247
H	-0.0480300759	 1.0347641856	 0.2117257577	 0.10947
H	-1.1204584418	-0.177717962	 0.9532591863	 0.132684
H	 0.6953652391	 0.4443894696	-1.7856930289	 0.109832
H	 1.2498364421	-3.0541627449	-3.5434684778	 0.09896
H	 3.0346414956	-4.078586686	-2.3014966101	 0.08644
H	 3.4554715026	-2.4089929412	-2.7194461479	 0.110799
H	 2.4461980854	-3.1535206942	-0.2120189271	 0.287924
H	-0.6764958527	-3.3431625952	-1.9751957385	 0.101889
H	 0.4824391515	-4.675595211	-2.0662326085	 0.115592
H	 0.3577392707	-2.7360784487	-0.0394336037	 0.297094
