17
gdb 88298	3.2286	1.08133	1.01199	1.9042	70.84	-0.2472	-0.0389	0.2083	1224.6471	0.134607	-458.937222	-458.928842	-458.927898	-458.97079	31.261	
O	-0.4425174804	 1.6330122964	 0.6283080952	-0.416803
C	-0.4214298282	 0.5691605045	-0.2458396493	 0.15105
C	-0.0870106203	-0.8082096162	 0.1767135786	-0.326667
C	-1.543880316	-0.5116931833	-0.2112265921	-0.211034
C	-2.5177139021	-0.3734854456	 0.8785941271	 0.398312
O	-2.2187271954	 0.0515599074	 1.9892107655	-0.386414
C	-3.9547982498	-0.7152735967	 0.6026013267	-0.010748
C	-4.6548963825	-0.1371741203	-0.5635060642	-0.175987
O	-4.2582670213	-1.500832261	-0.5508406331	-0.21733
H	-0.8593245254	 1.3212583669	 1.4503652082	 0.306023
H	-0.131749684	 0.8914229449	-1.2407033764	 0.11948
H	 0.4654287185	-1.4563642748	-0.4942208182	 0.126653
H	 0.0838467798	-0.9715269899	 1.2359622011	 0.139575
H	-1.9130239639	-0.9134935955	-1.1456525635	 0.115259
H	-4.5320442896	-0.9382117382	 1.4977859561	 0.121229
H	-5.7251471949	 0.0467734744	-0.4899639995	 0.135028
H	-4.1098912345	 0.506479157	-1.2516724822	 0.132375
