17
gdb 41358	2.91652	1.90309	1.70357	1.2609	66.04	-0.2543	0.045	0.2993	857.5102	0.138887	-458.892452	-458.886249	-458.885305	-458.922736	26.066	
C	 0.0511684178	 1.5244916118	 0.2450198851	-0.172207
O	 1.4734862489	 1.4391639702	-0.1337863953	-0.354812
C	 1.1412910061	 0.2631091021	-0.8975863584	 0.349973
C	 0.5720600666	 0.5942817613	-2.3115912068	-0.124341
O	-0.6902994814	-0.1026838248	-2.3433841161	-0.249159
C	-0.6724674086	-0.8752527788	-1.1729344173	 0.157193
O	 0.416781729	-1.8409484725	-1.2373343694	-0.298966
C	 1.6918533462	-1.1514636102	-0.973409852	-0.151384
C	-0.1165521498	 0.0155227889	-0.0727839894	-0.060391
H	-0.0584882302	 1.8099886215	 1.292760686	 0.123142
H	-0.4953553951	 2.2201888007	-0.3985795423	 0.123985
H	 0.4082126843	 1.6657856217	-2.452312899	 0.115918
H	 1.2210044134	 0.2238468236	-3.1128307206	 0.107984
H	-1.6020383752	-1.4326750219	-1.0820830557	 0.098748
H	 2.3680430191	-1.3637417258	-1.8068932262	 0.111551
H	 2.1281611214	-1.5051169417	-0.0333266225	 0.113165
H	 0.0992659076	-0.5708490361	 0.8212571998	 0.109599
