16
gdb 57177	2.76912	1.25494	0.93105	4.2689	68.28	-0.2477	-0.0909	0.1568	1229.6275	0.120694	-475.065371	-475.055558	-475.054614	-475.101078	33.391	
C	-0.3332439882	 1.3349123951	-0.1376678548	-0.33797
N	-0.086452943	-0.1110228783	-0.0445633189	-0.178517
C	 0.1676224116	-0.7120227181	 1.2219370549	 0.404992
C	-0.0119488741	 0.1903209631	 2.4309299397	-0.506755
O	 0.5251104216	-1.8558587693	 1.3286945299	-0.289655
C	-0.0708953976	-0.8941086362	-1.2021620002	 0.31696
O	-0.2619925338	-2.0851815812	-1.2509392834	-0.281411
C	 0.317851967	-0.2337269142	-2.5409430531	 0.088051
O	 0.8907334783	 0.8125477109	-2.6820493155	-0.237607
H	 0.5822990982	 1.9177159811	-0.0057871179	 0.149309
H	-0.7482547405	 1.5766437495	-1.1120467132	 0.155877
H	-1.0625920364	 1.6314614162	 0.6175434265	 0.137474
H	-1.0532445983	 0.5104906417	 2.5397057384	 0.150048
H	 0.2756646157	-0.3897968243	 3.30665042	 0.157979
H	 0.6069548956	 1.0901670907	 2.3720964059	 0.146553
H	 0.082881844	-0.9229744967	-3.3766552883	 0.124672
