19
gdb 122768	5.9148	0.53376	0.49559	3.6786	80.97	-0.2557	-0.0569	0.1988	2152.1223	0.155019	-422.9945	-422.983758	-422.982814	-423.031901	36.44	
C	 0.0017314294	 1.4121442239	-0.019398775	-0.227616
O	 0.0063513147	 0.0057100411	-0.0058294169	-0.22884
C	 0.6473344857	-0.5535443641	-1.1293623591	-0.060103
C	 0.5933459043	-2.0704516603	-1.0083649209	-0.198248
C	 1.2681112521	-2.7641398511	-2.1896712737	-0.310657
C	 1.2315217824	-4.2802888939	-2.0993186557	 0.225833
O	 0.7194515217	-4.8834675989	-1.1822899842	-0.284136
C	 1.8647302225	-4.9797366894	-3.2082861435	 0.247645
C	 2.3926724739	-5.5410718287	-4.1330082228	-0.389423
H	 1.0231407149	 1.8258097661	-0.0198002608	 0.102128
H	-0.5282225499	 1.8122501155	-0.8988674304	 0.102119
H	-0.5132975804	 1.7467986462	 0.8843131341	 0.128217
H	 0.151996664	-0.2215800822	-2.0597598441	 0.081601
H	 1.6950573734	-0.2068805253	-1.1867767417	 0.081591
H	 1.0728480638	-2.3749823251	-0.0732006435	 0.125035
H	-0.4507064223	-2.3894702414	-0.934941884	 0.125018
H	 0.8048641103	-2.4798401067	-3.1452559336	 0.13283
H	 2.3216173368	-2.4654607516	-2.28724239	 0.132857
H	 2.8554554428	-6.0537248241	-4.9412511242	 0.214151
