17
gdb 125549	4.83487	1.28067	1.03725	3.7374	75.33	-0.2114	0.0353	0.2468	1140.9743	0.139954	-414.222449	-414.214906	-414.213962	-414.254592	28.205	
C	-0.0510776205	 1.4011271572	-0.0207314578	-0.482424
C	 0.0098018652	-0.0883272713	 0.0037171994	 0.339547
N	-0.091461707	-0.8163007817	-1.1025001245	-0.33016
N	-0.0411864325	-2.0826309995	-0.5915930317	 0.035331
C	 0.1385545059	-3.407653269	-1.1412187599	-0.173045
C	-0.0040801438	-4.2432283624	 0.1676105741	-0.179831
N	 0.3898755252	-3.3010775936	 1.2442046983	-0.41358
C	 0.1548170308	-2.0346303115	 0.7353251597	 0.450542
N	 0.1708067541	-0.7986445591	 1.1802320479	-0.427159
H	 0.8438161584	 1.831274295	 0.4398623823	 0.136139
H	-0.1306279724	 1.7561492316	-1.0495589783	 0.136368
H	-0.9135645372	 1.7646939272	 0.5477670081	 0.134476
H	-0.6193401061	-3.6621338051	-1.8849370372	 0.136659
H	 1.1316164626	-3.5178773114	-1.5942253314	 0.131336
H	-1.0454043763	-4.5706518356	 0.2847625109	 0.120522
H	 0.6405525205	-5.1242555918	 0.165342824	 0.128449
H	 0.0181455433	-3.4917961192	 2.1639579961	 0.256831
