18
gdb 133768	1.99451	1.59653	1.2032	2.0672	64.35	-0.2969	0.0852	0.3821	1101.0474	0.143236	-533.459492	-533.450436	-533.449492	-533.493718	33.676	
C	-1.6947110355	-0.8129680394	-0.5082772432	-0.38407
C	-0.2771116399	-0.3633303254	-0.1299557628	-0.277719
C	 0.7991215173	-0.6591433002	-1.1681570688	 0.192431
C	 2.1913393118	-1.0132645149	-0.6966299188	-0.316067
C	 1.318061749	-2.0689484276	-1.3215872107	-0.302973
C	 0.7224578778	 0.1686322217	-2.4249589119	 0.254916
F	 0.7347993131	 1.4848768102	-2.1479969139	-0.08286
F	 1.7508679035	-0.0712336185	-3.2585131967	-0.085124
F	-0.4031859809	-0.0686319626	-3.1255390763	-0.082109
H	-2.072364116	-0.2744329148	-1.3794605258	 0.13431
H	-1.7188014128	-1.8825034198	-0.741789096	 0.117007
H	-2.3822126932	-0.6355374132	 0.3242890717	 0.112617
H	-0.2712499794	 0.7112347575	 0.0857964332	 0.115808
H	 0.0211850325	-0.8623887596	 0.7989075607	 0.099701
H	 3.0347013781	-0.6523663742	-1.2720074984	 0.133161
H	 2.3514218788	-1.0388966259	 0.375261319	 0.118684
H	 0.8766878598	-2.8239482536	-0.6805275936	 0.119848
H	 1.5779505959	-2.4151534796	-2.3146687678	 0.132442
