19
gdb 8544	3.88047	2.23759	1.84491	1.6211	73.89	-0.2185	0.078	0.2964	802.1846	0.167382	-327.882546	-327.875881	-327.874937	-327.912779	27.427	
C	 0.0169684811	 1.5125587662	 0.0235446504	-0.48419
C	 0.0194384325	 0.0039310281	 0.009759395	 0.381362
C	 0.4752591981	-0.7238236295	-1.2773022963	-0.292853
C	-0.7184867659	-1.6764676535	-1.0845056084	 0.01732
C	-0.500045276	-2.7757848396	-0.0279485379	-0.238474
C	-0.7673449307	-1.6961212412	 1.0376015847	 0.017323
C	 0.4158530029	-0.7477215568	 1.3027401222	-0.292872
N	-1.3321483642	-0.7446649982	-0.0282973272	-0.193977
H	 1.0436374484	 1.8987209974	 0.0498090995	 0.113588
H	-0.4742287954	 1.9114284621	-0.8699248482	 0.118817
H	-0.5135003397	 1.8953299887	 0.9014660532	 0.118781
H	 0.3471632784	-0.0884579657	-2.1584965197	 0.10292
H	 1.4812478968	-1.1544684409	-1.2991202922	 0.094103
H	-1.3148056511	-1.9267330574	-1.9644845495	 0.06974
H	-1.3010807459	-3.5192635991	-0.0532673453	 0.107776
H	 0.4633771982	-3.2951277963	-0.0105798499	 0.093869
H	-1.4034220367	-1.9623784654	 1.8844221861	 0.06974
H	 1.4199551955	-1.1791248432	 1.3628686872	 0.094103
H	 0.2470542236	-0.1287335356	 2.1887197863	 0.102921
