15
gdb 54721	4.59309	1.23266	1.13152	3.1329	65.15	-0.24	0.0366	0.2765	1051.4383	0.112434	-453.857411	-453.85023	-453.849286	-453.889445	27.85	
N	-0.0889960259	 1.3474507769	-0.1696202596	-0.543271
C	-0.0427137225	-0.0288237811	-0.0764325884	 0.408503
O	 0.8512765149	-0.7063380982	-0.5423002374	-0.375932
N	-1.1246737005	-0.5704014544	 0.636721227	-0.165982
C	-2.5391367079	-0.3986485576	 0.1693827599	-0.094168
C	-2.4670204529	-1.5779168442	-0.865161575	 0.094155
O	-3.6265257646	-2.2655002334	-0.3211168021	-0.326117
C	-2.9706798499	-1.7261394543	 0.8588998891	 0.085466
C	-1.5253648594	-1.9705969395	 0.3272214114	-0.057906
H	 0.7791476985	 1.7697630854	-0.4608375212	 0.26306
H	-0.5951402021	 1.8483763114	 0.543768339	 0.257261
H	-3.0554298923	 0.5583401555	 0.1120310227	 0.103398
H	-2.3022838761	-1.5822590841	-1.9416203462	 0.11948
H	-3.4023032585	-1.9013666963	 1.8424569995	 0.111498
H	-0.8663567707	-2.826255196	 0.4448534412	 0.120554
