13
gdb 2455	5.63966	2.52408	2.04049	2.9125	52.91	-0.249	-0.0218	0.2272	626.3895	0.10212	-344.466563	-344.460884	-344.45994	-344.49621	21.457	
O	-0.0019088663	 0.0198088897	-0.2675520287	-0.295341
C	-0.0132076371	 1.1804944379	 0.0393428567	 0.393127
C	-1.2793732939	 2.0284252183	 0.2722997839	-0.346906
C	-0.7683760631	 3.3166445101	 0.8692972769	 0.044065
O	-0.0117197942	 3.1100803081	 2.0687502086	-0.256548
C	 0.7069256916	 3.3362113689	 0.8496112276	 0.044064
C	 1.2357936817	 2.0617822819	 0.2387407925	-0.346905
H	-1.7819138717	 2.1949438087	-0.6888220333	 0.132284
H	-1.9782378002	 1.492997097	 0.9208825378	 0.146527
H	-1.3642785981	 4.2246726233	 0.8414329443	 0.103411
H	 1.2775851793	 4.2597116088	 0.8061807333	 0.103411
H	 1.9656579272	 1.5453029754	 0.8682660707	 0.146527
H	 1.7079298445	 2.241223322	-0.7353836303	 0.132284
