18
gdb 72354	2.40229	1.67577	1.28913	3.7684	77.58	-0.2449	-0.0066	0.2384	1045.5707	0.147264	-401.9579	-401.949701	-401.948757	-401.990528	31.106	
C	-0.161092811	 1.641044643	 0.0926029833	-0.473627
C	 0.039169384	 0.1462774085	 0.1058592597	 0.282036
C	-1.0908162784	-0.7709506306	-0.3916597934	-0.32558
C	-0.9569857989	-2.0189993955	 0.452562046	-0.074776
C	 0.0354281968	-1.9281591428	 1.3399468311	-0.06074
C	 0.7443240087	-0.6183426279	 1.2167683824	-0.115908
N	 1.3937250805	-0.3496268605	-0.0564323276	-0.100748
C	 1.8983386219	-1.2593253823	-0.9611562741	 0.15136
O	 2.5502277511	-2.2351539807	-0.6810904851	-0.299715
H	 0.7036112419	 2.1503582983	 0.5247644537	 0.133231
H	-0.2925217802	 2.0092119388	-0.9312578655	 0.126361
H	-1.0535990449	 1.9166055164	 0.6638018521	 0.124818
H	-2.0672015843	-0.2882799891	-0.2561631389	 0.117445
H	-1.0036087489	-0.9841474143	-1.4653937287	 0.120671
H	-1.5855897598	-2.8888698117	 0.3008431261	 0.106146
H	 0.331513363	-2.6918924449	 2.0472740124	 0.112589
H	 1.1825469343	-0.1305777172	 2.0827287389	 0.101767
H	 1.6988829541	-0.9431877475	-2.0057010926	 0.074669
