16
gdb 4927	4.6964	1.48576	1.14487	2.668	68.56	-0.1869	0.0353	0.2222	1030.7271	0.130806	-379.9601	-379.951836	-379.950892	-379.99376	28.937	
C	-0.0574452715	 1.4056171198	-0.0333614354	-0.22938
O	-0.0021827029	-0.0146076405	 0.002784257	-0.277455
C	-1.1927632952	-0.6489414517	 0.020148208	 0.369578
C	-1.3669440034	-2.0096506039	 0.0542490302	-0.231583
N	-2.7451972174	-2.1702733626	 0.0601251198	-0.277526
C	-3.3175016982	-0.9386796027	 0.0298057977	 0.349376
C	-4.7926185631	-0.7121436707	 0.0264461833	-0.495663
N	-2.3922641961	 0.0068681299	 0.0054259018	-0.382885
H	 0.9805405727	 1.7434241298	-0.0438619441	 0.119757
H	-0.5762255406	 1.7628635036	-0.9292922534	 0.126312
H	-0.572961632	 1.8081505389	 0.8450965909	 0.126295
H	-0.6794956835	-2.835928432	 0.0737137143	 0.125525
H	-3.2318603191	-3.0501616116	 0.0827460109	 0.260763
H	-5.2720064043	-1.1169737787	 0.925529266	 0.130619
H	-4.9797927557	 0.3617318301	-0.0072925713	 0.155921
H	-5.2766245795	-1.1736287276	-0.8423047557	 0.130346
