20
gdb 73138	2.42137	1.76456	1.52931	0.765	76.68	-0.2304	0.0763	0.3067	984.3885	0.1728	-403.114003	-403.106467	-403.105522	-403.145467	31.243	
O	 0.2853924965	 1.4007755953	-0.1271689626	-0.486784
C	-0.0128061403	 0.0302973895	 0.0149023618	 0.431784
C	-1.4006527858	-0.1949667036	 0.6639934105	-0.265269
C	-0.7591668476	-1.1945572857	 1.6705450324	-0.246334
C	 0.6609836152	-0.7829776325	 1.1726536302	-0.069192
C	 1.6093196889	-1.7977830028	 0.5065581554	-0.197423
N	 1.3741326026	-1.789586696	-0.9596941409	-0.099467
C	 0.0199801573	-2.2060979071	-1.3379588759	-0.254776
C	 0.3419618198	-0.760963136	-1.240117308	-0.119735
H	 1.1700121045	 1.4822061187	-0.501300327	 0.277068
H	-1.7467114928	 0.7219615599	 1.1452138881	 0.115512
H	-2.1896774358	-0.5717088327	 0.010092931	 0.10125
H	-0.9566822035	-0.9830881199	 2.7234572301	 0.102613
H	-1.0082031072	-2.2432930316	 1.4901213786	 0.1023
H	 1.1778360855	-0.1446363982	 1.8919183769	 0.07858
H	 2.6527127658	-1.5058994431	 0.6656120744	 0.105875
H	 1.4932217219	-2.8155115021	 0.8950314419	 0.106657
H	-0.0565408794	-2.6706405107	-2.317664684	 0.11532
H	-0.6223605102	-2.6545779457	-0.5854538995	 0.113333
H	 0.4626970246	-0.1780021857	-2.1504337534	 0.088688
