19
gdb 67326	3.26207	1.29812	1.0975	3.1281	81.05	-0.2398	-0.0217	0.2181	1145.2406	0.158373	-385.828981	-385.820943	-385.819998	-385.861651	31.034	
C	-0.108468725	 1.4417871498	 0.0370508644	-0.521705
C	-0.0571432988	-0.0616235731	 0.0167912055	 0.342047
C	 0.8382991951	-0.9748183176	-0.899812323	-0.076293
C	 2.0089028274	-0.9637326536	 0.1015896348	-0.279012
C	 0.7480003976	-1.0129147889	 0.9858246075	-0.090078
C	-0.0036475159	-1.9528219784	-0.0181977122	-0.060595
C	-1.2617071905	-1.049912859	-0.0965308719	-0.15376
C	-2.2358855147	-1.0953461585	 1.0386945517	 0.14647
O	-3.4365993759	-1.0758958446	 0.9154859933	-0.262204
H	 0.8987340761	 1.8683175593	 0.09738585	 0.125564
H	-0.5843473881	 1.829365659	-0.8701368578	 0.128274
H	-0.6802218203	 1.8086032668	 0.8962383181	 0.127951
H	 0.8539310891	-0.9560507803	-1.9909573878	 0.074775
H	 2.6506285561	-1.8502713113	 0.114414596	 0.097123
H	 2.6153443511	-0.0539284771	 0.1496026662	 0.097134
H	 0.6828912309	-1.03749355	 2.0740252309	 0.079104
H	 0.0417991886	-3.0420835151	-0.0397150724	 0.081375
H	-1.7960217371	-1.0419972278	-1.0521664634	 0.078591
H	-1.7723589756	-1.1469256795	 2.0516833999	 0.065239
