16
gdb 74352	3.52332	1.12643	0.85871	5.5872	82.67	-0.2013	-0.0376	0.1638	1294.4074	0.123613	-437.937447	-437.928588	-437.927644	-437.971566	31.786	
C	-0.0137263541	 1.5601590187	 0.0124138876	-0.51679
C	 0.0079470119	 0.0623802702	-0.0242497254	 0.205215
C	-0.0071103949	-0.8013344514	-1.1479546322	-0.328176
C	 0.0379772651	-2.0971058185	-0.6949036648	 0.24653
O	 0.081905859	-2.0776653649	 0.6885238245	-0.186855
C	 0.0646708689	-0.7916917379	 1.0617944331	 0.311325
N	 0.1646936063	-0.5488129701	 2.4079326324	-0.593865
H	-0.1258595812	-1.317229609	 2.9959977532	 0.271332
H	-0.1981811012	 0.3431001922	 2.7093398674	 0.26522
C	 0.0373827543	-3.3574616663	-1.386990067	 0.056754
O	 0.0726567482	-4.4606895146	-0.8776453348	-0.309166
H	 0.9581931061	 1.9843807437	 0.2929429274	 0.137002
H	-0.2766534912	 1.9664742168	-0.9675945964	 0.136023
H	-0.7526837004	 1.9436594829	 0.72741603	 0.119383
H	-0.0510632071	-0.5038972078	-2.18592446	 0.123385
H	-0.0014211098	-3.2222389441	-2.4918912251	 0.062682
