17
gdb 28203	4.67966	1.2197	0.98682	0.7445	76.93	-0.1843	0.0217	0.206	1186.0286	0.137216	-421.847936	-421.840108	-421.839163	-421.880583	29.035	
C	 0.076161051	 1.4431714074	-0.1581738149	-0.489558
C	-0.0694581565	-0.02781243	-0.0047836635	 0.370251
C	-1.1495269875	-0.8255349503	 0.2790286352	-0.459707
C	-0.628461622	-2.1519324088	 0.2494546406	 0.356101
C	 0.6820678183	-2.0725426989	-0.0453439391	 0.201607
C	 1.3534682761	-3.3989358544	 0.0292824628	-0.377902
C	 0.0530962204	-4.2750998773	 0.1586559069	-0.086718
O	-1.0814682366	-3.41410717	 0.4884238394	-0.29022
O	 1.06648805	-0.7761166635	-0.1965821964	-0.227247
H	 0.8277827906	 1.8474093891	 0.5295428939	 0.137426
H	 0.382927901	 1.7166798652	-1.1746828864	 0.137439
H	-0.8775825053	 1.9323464854	 0.0521102672	 0.135311
H	-2.15506385	-0.48788327	 0.4709351055	 0.115508
H	 1.9292568806	-3.6888878519	-0.8561009383	 0.119621
H	 2.0147298035	-3.5055409715	 0.9002304641	 0.11769
H	-0.1721077646	-4.7631402232	-0.7953908081	 0.119025
H	 0.1246364211	-5.0351911172	 0.938724171	 0.121375
