15
gdb 125642	3.52447	1.58571	1.10113	2.0277	72.68	-0.2227	0.0066	0.2293	1033.6961	0.115913	-413.00159	-412.994063	-412.993119	-413.033465	28.023	
C	-0.0166778823	 1.5105244338	-0.0957062225	-0.499007
C	 0.0041360401	 0.02154186	 0.0261912754	 0.193617
N	-0.0059128939	-0.7404152783	-1.0584646401	-0.278107
N	 0.0182267496	-2.0501779661	-0.6276759403	-0.372746
C	 0.0437983424	-2.0919995982	 0.7218007936	 0.50708
C	 0.0363455277	-0.7863402869	 1.2050998455	 0.132656
C	 0.0612078171	-0.9542082964	 2.6174740528	-0.168436
N	 0.0823128131	-2.2344074865	 2.9545435662	-0.214754
N	 0.0713163755	-2.9406357361	 1.7726520721	-0.367203
H	 0.8690503905	 1.9587058437	 0.3681769122	 0.131082
H	-0.0412416118	 1.7973999625	-1.1487160126	 0.143036
H	-0.8939255197	 1.936960862	 0.4034343402	 0.131024
H	 0.016003673	-2.7866755079	-1.3088771033	 0.272437
H	 0.0654798081	-0.2092666592	 3.39944571	 0.116196
H	 0.0835260507	-3.9436208464	 1.8061843508	 0.273126
