20
gdb 22864	3.09479	1.16156	0.89256	0.7941	84.91	-0.2301	0.0125	0.2426	1327.8297	0.169509	-403.136612	-403.127147	-403.126203	-403.170764	35.528	
C	-0.0578840527	 1.5961828584	 0.0368031407	-0.391906
C	 0.018986415	 0.0593790054	 0.0070779139	-0.175033
C	 0.7548002171	-0.5167025523	-1.1935974127	 0.343037
C	 0.3168612961	-0.2196498117	-2.5933362512	-0.495312
C	 1.7764406124	-1.2937579096	-0.8240719957	-0.191996
C	 1.9336694928	-1.4041340715	 0.6697533501	-0.349535
C	 0.8091231631	-0.5230408761	 1.1722001539	 0.392584
N	 0.5083811838	-0.2476707581	 2.3759367877	-0.225439
O	 1.3792192371	-0.8904240459	 3.2775487433	-0.393863
H	 0.9424205341	 2.0371874324	-0.0222445526	 0.116289
H	-0.6512659606	 1.978119391	-0.7997908419	 0.11067
H	-0.5217180472	 1.9281082632	 0.9688125315	 0.135114
H	-1.0118416635	-0.3257473223	 0.0309528898	 0.09543
H	 0.3699339573	 0.8533921689	-2.8141564874	 0.129643
H	 0.9366533558	-0.7451525533	-3.3248175538	 0.123764
H	-0.7271637825	-0.5187567251	-2.7538802683	 0.124617
H	 2.4319292826	-1.812754356	-1.5156010009	 0.087266
H	 1.8291171975	-2.4309497272	 1.0467307234	 0.129727
H	 2.9063917237	-1.055475304	 1.042257465	 0.13062
H	 1.0415908782	-0.595433206	 4.1297878453	 0.30432
