17
gdb 123424	4.94803	0.9839	0.90132	3.1496	73.73	-0.2863	-0.0209	0.2654	1293.3908	0.138277	-414.161067	-414.153339	-414.152395	-414.1949	27.897	
C	-0.0623985151	 1.5440081673	-0.2648978946	-0.18236
C	-0.1242444711	 0.0352150327	-0.2292327951	 0.01632
C	-0.1409475944	-0.6859970151	 1.0934830803	-0.247907
C	-1.3884484596	-0.6340216645	 0.2504743832	-0.27174
N	 1.2918295397	 2.0547226111	-0.0639421175	 0.156728
N	 1.8550203237	 2.1835068268	 1.131681083	-0.244704
C	 3.0671519963	 2.6124721098	 0.8008163147	 0.078003
N	 3.2332716077	 2.7361461992	-0.5341449105	-0.209776
N	 2.0927642127	 2.3748677994	-1.0716904744	-0.128699
H	-0.3888471527	 1.9357164322	-1.2307890117	 0.150253
H	-0.6837358187	 1.9790471719	 0.5215826984	 0.137573
H	 0.4068536075	-0.445730771	-1.0449962808	 0.106686
H	 0.3956333291	-1.6249254282	 1.1651371692	 0.121882
H	-0.1049137356	-0.0838573635	 1.9945420091	 0.132363
H	-2.2032332579	-0.0005472088	 0.5860287437	 0.117153
H	-1.7113427961	-1.5337244831	-0.260418201	 0.122635
H	 3.8310653046	 2.843050064	 1.5253979039	 0.145589
