17
gdb 74891	2.78273	1.58856	1.12549	3.2496	75.51	-0.2463	-0.0597	0.1865	1078.9188	0.135938	-421.84826	-421.840336	-421.839392	-421.880862	30.026	
C	-0.0022432769	 1.4857333924	-0.1696889241	-0.474285
C	-0.0141843135	-0.0069873621	-0.0080249216	 0.199753
C	-1.1320963225	-0.7511612176	-0.036013181	-0.144805
C	-1.1214492315	-2.2297771582	 0.0308860852	-0.002503
O	-0.3259539258	-2.9150737361	-0.964831768	-0.251759
C	 0.1317385937	-2.9214363357	 0.3819049263	 0.041927
C	 1.3554913467	-2.0973623642	 0.6858867057	-0.36556
C	 1.315159188	-0.6609367758	 0.1612399577	 0.324997
O	 2.3451399656	-0.0520821144	-0.0450625453	-0.31684
H	 0.6058072334	 1.7681867591	-1.0347811936	 0.151673
H	-1.0131149766	 1.8791742278	-0.2999438358	 0.117237
H	 0.45839044	 1.97096863	 0.6973894851	 0.138147
H	-2.1006040447	-0.2687489129	-0.1445478431	 0.103794
H	-2.0726121032	-2.7154074896	 0.2368836875	 0.09876
H	 0.0722711369	-3.8921113799	 0.8751466305	 0.099689
H	 1.4773647592	-2.0331521336	 1.776427213	 0.135605
H	 2.2633944911	-2.5717915893	 0.3013193915	 0.14417
