15
gdb 27419	2.60842	1.74209	1.2063	2.295	76.9	-0.2425	-0.0819	0.1606	1020.9684	0.113525	-412.999992	-412.992253	-412.991309	-413.032296	28.563	
C	 0.0188264554	 1.4341680635	-0.2293963456	-0.441806
C	-0.1479067264	-0.0235281532	 0.0932449238	 0.339756
N	-1.2859880703	-0.589193253	-0.1236021114	-0.247244
C	-1.4693614338	-1.952945581	 0.0720194463	 0.288229
N	-2.4255887091	-2.4299784553	 0.7610154388	-0.477115
C	-0.4619047116	-2.7461017613	-0.7022548764	-0.056269
N	 0.7898240776	-2.7077472528	-0.4391031785	-0.170898
C	 1.2938630305	-1.8247727882	 0.4973986246	 0.073171
N	 0.965931938	-0.5965956333	 0.6995181972	-0.255505
H	 0.8701619758	 1.5750003053	-0.9038369224	 0.141339
H	-0.8876791229	 1.8278566522	-0.687720355	 0.145499
H	 0.2460294754	 1.9893144133	 0.6860293037	 0.153148
H	-2.4289172431	-3.4507493472	 0.7080211405	 0.223559
H	-0.8018604496	-3.3838802913	-1.5217420724	 0.146377
H	 2.155093374	-2.2105246878	 1.0423499268	 0.137757
