18
gdb 36352	5.12095	0.82388	0.78159	5.2758	77.25	-0.2772	0.0304	0.3076	1465.025	0.146969	-401.935253	-401.926616	-401.925671	-401.969465	31.598	
N	-0.1186973738	-1.0185888897	-0.3959193358	-0.299116
C	-0.0790517085	 0.0873766664	-0.0648123484	 0.266697
C	-0.0158920392	 1.4829848943	 0.3698245197	-0.368341
C	 1.3983272277	 2.0384911096	 0.3364161234	-0.052401
O	 1.870211974	 2.4868742304	-0.9365936217	-0.277161
C	 1.6604082166	 3.4574223097	 0.0768947828	 0.451321
C	 0.6793248361	 4.632212126	-0.0036431323	-0.313634
C	 1.6419142572	 5.4137640659	 0.9419452259	-0.212243
C	 2.7500254309	 4.3504198323	 0.6733540245	-0.312325
H	-0.6611308202	 2.0867899238	-0.2752584577	 0.161598
H	-0.4147783183	 1.5467923731	 1.3898281841	 0.155327
H	 2.1268158562	 1.4676427715	 0.9134048098	 0.112586
H	 0.6498167756	 5.0519021996	-1.0131638514	 0.124293
H	-0.3461879348	 4.4703505695	 0.3384398536	 0.105594
H	 1.873002461	 6.4412916604	 0.6588998654	 0.112473
H	 1.3005403209	 5.4040023775	 1.9792699053	 0.111253
H	 3.3086494852	 3.9647022928	 1.5291291575	 0.11061
H	 3.4583785034	 4.6702679569	-0.0962599445	 0.123468
