12
gdb 130678	5.43086	1.32106	1.06258	1.3443	62.68	-0.2132	-0.0133	0.1998	1001.21	0.080006	-468.822896	-468.816215	-468.815271	-468.854049	25.093	
O	-0.025039036	-0.0473026978	 0.0034268029	-0.394972
C	-0.0066913489	 1.1588412625	 0.0096734322	 0.440149
N	-1.136966872	 2.0236246323	 0.0295456496	-0.483965
C	-0.6858572615	 3.3124176495	 0.0308034443	 0.510636
C	 0.6741336195	 3.3407392237	 0.0125917054	 0.188458
N	 1.099151996	 2.0112106561	-0.0007521146	-0.496391
C	 0.9662315137	 4.7171461666	 0.0159781787	-0.077262
N	-0.140195173	 5.4458276772	 0.0351876211	-0.164448
O	-1.2302106789	 4.5158410922	 0.0446479243	-0.231483
H	-2.079683775	 1.6750947764	 0.040648603	 0.288969
H	 2.0358060194	 1.649313544	-0.0145026012	 0.27792
H	 1.9135822268	 5.2358185272	 0.0059858442	 0.142389
