20
gdb 90986	2.66707	1.85444	1.34408	2.3284	77.88	-0.2309	0.0733	0.3042	1009.389	0.171797	-403.090692	-403.082929	-403.081985	-403.122411	31.484	
C	-0.0892154636	 1.5439286047	-0.0709001941	-0.405859
C	 0.0278869222	 0.0303421883	 0.0346985245	 0.08234
O	 0.8699853372	-0.4796911278	-1.025579114	-0.294495
C	 1.8585706773	-1.187349385	-0.3286401425	 0.158503
C	 1.2621787235	-1.9529265705	 0.8831751676	-0.132676
N	 2.5774609202	-1.7717363387	 1.5921721211	-0.341303
C	 2.2984287495	-0.4346441239	 0.9576346859	-0.128855
C	 0.7522733763	-0.5109044853	 1.2710752594	 0.308816
C	 0.1882526198	-0.2056310417	 2.636773441	-0.512809
H	 0.8829271353	 2.0244231976	 0.0776669479	 0.119163
H	-0.4585060936	 1.8223087949	-1.0618045523	 0.129943
H	-0.789500862	 1.934102264	 0.6749498665	 0.115008
H	-0.9680486388	-0.4261889138	-0.0645743206	 0.076185
H	 2.586725917	-1.6515848559	-0.9889653814	 0.100522
H	 0.7089135344	-2.8939541454	 0.8958400561	 0.075434
H	 2.4177356344	-1.7123757717	 2.6009680518	 0.208013
H	 2.9755188546	 0.4153985496	 1.0577159492	 0.076455
H	 0.1694134099	 0.872177274	 2.828847364	 0.127434
H	-0.8380556253	-0.5783622946	 2.730866647	 0.124186
H	 0.7807578517	-0.6699632589	 3.4329215331	 0.113996
