17
gdb 106083	3.06228	1.48374	1.32823	3.0424	73.67	-0.2246	-0.0566	0.168	1008.7855	0.135761	-417.855987	-417.848274	-417.847329	-417.888282	29.812	
O	 0.2199458055	 1.2309808709	-0.5357421702	-0.409263
C	 0.1331302058	-0.0807871695	 0.0154154762	-0.231056
C	-1.2794138708	-0.5638378804	 0.0885090905	 0.258055
C	-1.9311747208	-1.8976284114	 0.2097391051	-0.132155
C	-2.6476337225	-1.8828582067	 1.5776528752	-0.185351
N	-3.2298197922	-0.5112977531	 1.585337185	-0.15808
C	-2.5626877937	 0.117911731	 0.702335347	 0.068207
N	-3.233953861	 0.3662239126	-0.5867101865	-0.340174
C	-2.3029420918	-0.8482066244	-0.934874006	-0.065577
H	-0.0502585418	 1.8544252829	 0.1459481647	 0.291078
H	 0.7082542169	-0.7299825187	-0.6546324629	 0.119555
H	 0.6144746464	-0.1286881325	 1.0034070239	 0.104149
H	-1.4446898218	-2.7985206834	-0.1605622742	 0.093763
H	-3.4990738547	-2.5668344373	 1.648923257	 0.131616
H	-1.9528418485	-2.1231155177	 2.3966568259	 0.109705
H	-2.7492074457	 1.1192810028	-1.0888164421	 0.229202
H	-2.1915706293	-1.106019485	-1.9842263187	 0.116327
