16
gdb 90288	3.44037	1.40753	1.25523	4.9251	75.22	-0.2364	-0.031	0.2054	1021.2638	0.125067	-437.86433	-437.856904	-437.85596	-437.896168	28.888	
O	-0.2606660956	 1.4210114952	 0.0857455426	-0.410942
C	-0.0241276955	 0.0438445609	 0.0342692577	 0.070604
C	 0.1380992063	-0.6416848891	 1.4603727638	-0.35084
C	-1.3610361702	-0.8046858487	 1.3855158182	 0.209473
C	-2.4817022779	-0.275413198	 1.8773601803	-0.275578
C	-3.3446897015	 0.0828537782	 0.7305203437	 0.415252
N	-4.5084522932	 0.5736306369	 0.7738188228	-0.546003
O	-2.627331671	-0.1345454138	-0.4471487075	-0.252518
C	-1.4000291	-0.7326382065	-0.1014822475	 0.07291
H	 0.5481494189	 1.8598143462	 0.367864057	 0.293097
H	 0.7397272303	-0.2258137911	-0.7066709601	 0.079845
H	 0.7058721981	-1.574232383	 1.3970891831	 0.122606
H	 0.5339529025	-0.0178582548	 2.2639450106	 0.121271
H	-2.7235648909	 0.0302916833	 2.8844273946	 0.124959
H	-4.8372135936	 0.8034869771	-0.1647920169	 0.224608
H	-1.2628721267	-1.6605085429	-0.6658127324	 0.101254
