20
gdb 99336	5.27077	0.62125	0.59715	3.5066	83.19	-0.2462	0.0273	0.2735	1902.5135	0.168421	-403.156826	-403.145959	-403.145015	-403.194507	37.849	
C	 0.6032104866	 1.0980313223	-0.4264156233	-0.367089
C	-0.2505692738	 0.1071495989	 0.3665247194	-0.296676
C	 0.5450883532	-0.5693193608	 1.4810141726	 0.416338
O	 1.4534169237	-0.012342831	 2.0744462275	-0.378679
N	 0.1462119971	-1.8367086489	 1.7978690534	-0.31537
C	 0.7734650822	-2.5911266894	 2.8677909539	-0.159137
C	 2.123380338	-3.2161640635	 2.4438135327	-0.341357
C	 2.717867711	-4.0084057583	 3.5110520892	 0.29269
C	 3.1732216153	-4.6577830126	 4.4143292373	-0.439704
H	 1.3816186291	 0.5807067696	-0.9954939587	 0.120509
H	-0.0115539474	 1.6670049774	-1.1291688251	 0.109293
H	 1.0977968523	 1.7911437782	 0.256839761	 0.14745
H	-1.084631839	 0.6351185133	 0.8474728854	 0.131139
H	-0.7018146831	-0.6431576404	-0.2935326849	 0.095518
H	-0.5659955532	-2.2799697796	 1.2425807643	 0.245505
H	 0.9468453988	-1.9172072836	 3.7100014908	 0.147733
H	 0.0839040842	-3.3745789988	 3.1923695879	 0.114538
H	 1.971568719	-3.8394265358	 1.5535796946	 0.121083
H	 2.7952453225	-2.4010750312	 2.1543520513	 0.160713
H	 3.5940062434	-5.2295784358	 5.2037290707	 0.195504
