21
gdb 94699	3.06503	1.45907	1.32585	1.2456	77.89	-0.232	0.0891	0.3211	1081.1568	0.182782	-424.222594	-424.214224	-424.21328	-424.254899	33.362	
C	-0.1916724356	 1.5587268397	 0.0873330037	-0.402959
C	 0.0464632485	 0.0527451695	 0.0063666484	 0.138811
O	 0.7807055205	-0.3020563971	-1.1759046652	-0.291726
C	 2.1935046996	-0.4035329084	-1.0222997404	-0.098635
C	 2.5658921586	-0.8903906945	 0.3784288192	 0.378616
C	 4.0276951668	-1.2133632649	 0.5666351072	-0.477242
C	 1.4560167834	-1.8358701448	 0.8984930368	-0.294758
C	 0.7789140213	-0.4951927785	 1.2323941207	 0.069985
O	 2.0831115733	 0.1492419962	 1.2972711912	-0.331937
H	 0.749001412	 2.0832860744	 0.2708006575	 0.134512
H	-0.6268262394	 1.9196427033	-0.8479707421	 0.120659
H	-0.8823187977	 1.7962480481	 0.9042009337	 0.108107
H	-0.9147337957	-0.4691846016	-0.094478844	 0.079614
H	 2.5321980582	-1.1050316856	-1.793733402	 0.101409
H	 2.6852099779	 0.5663028024	-1.1927168108	 0.097702
H	 4.6551543354	-0.364146338	 0.275387632	 0.127673
H	 4.2300591381	-1.4435885847	 1.6159295128	 0.127596
H	 4.3140543402	-2.0762293693	-0.043507595	 0.122248
H	 0.9660780028	-2.5016065374	 0.1861839128	 0.110667
H	 1.7706221967	-2.3756075484	 1.7931013391	 0.103422
H	 0.2073483351	-0.3800361004	 2.1574035244	 0.076237
