17
gdb 106859	2.6769	1.32717	1.06383	2.5541	77.73	-0.2277	0.015	0.2427	1174.8283	0.132808	-421.728253	-421.719317	-421.718373	-421.762091	32.987	
C	-0.323888573	 1.2914490241	-0.0556874491	-0.254519
O	 0.2650425722	 0.0075670243	 0.1141535393	-0.272383
C	 0.7836207546	-0.5251489488	-1.0330536931	 0.28819
C	-0.0571890745	-1.0270231278	-2.1828833276	-0.397258
C	 0.8709198382	-1.9855711342	-1.4588500178	 0.232605
O	 2.2096588514	-1.8107947996	-1.9527339116	-0.319075
C	 2.248012397	-0.443412451	-1.4605041498	-0.14623
C	 0.4909326247	-3.2093085272	-0.8521116766	 0.249236
C	 0.1688613426	-4.2473693585	-0.336607848	-0.430945
H	 0.4197238294	 2.0418658885	-0.3562158435	 0.116165
H	-1.1240958462	 1.2665122865	-0.8066583704	 0.118844
H	-0.7433169144	 1.5736400117	 0.9117265338	 0.136152
H	-1.1061747348	-1.1556575017	-1.9361800089	 0.135217
H	 0.1647029395	-0.7662955985	-3.2143362217	 0.120411
H	 2.5228173403	 0.2720956075	-2.2433818007	 0.106475
H	 2.9284579087	-0.3573769864	-0.6063294031	 0.121543
H	-0.1119720357	-5.164003039	 0.1199983887	 0.195572
