21
gdb 114545	2.6117	1.45305	1.13468	2.8527	77.84	-0.2423	0.0755	0.3178	1151.4796	0.18342	-424.20666	-424.19827	-424.197326	-424.23935	33.407	
C	 0.0416317861	 1.5395364049	 0.0632165982	-0.5061
C	 0.021878028	 0.029280559	 0.0647036936	 0.271524
C	 0.756153302	-0.83936626	-1.0174583895	-0.270946
C	 0.5206263235	-1.9346335756	 0.0464964106	 0.107608
C	 0.790520547	-0.8514265862	 1.1130484615	-0.278001
O	-0.9129155364	-2.0737348988	 0.0616714176	-0.312035
C	-1.3464576398	-0.6854122428	 0.04197261	 0.093395
C	-2.3125075505	-0.4524144654	 1.1977126025	-0.087045
O	-3.3547001434	-1.4087074764	 1.1708506137	-0.42289
H	 1.0670982471	 1.9202461739	 0.0239145074	 0.119352
H	-0.4964812326	 1.9393517825	-0.8040634229	 0.122039
H	-0.4301316001	 1.9480050284	 0.9637426348	 0.125246
H	 0.2743706207	-0.9730906242	-1.9894818508	 0.100125
H	 1.8058467253	-0.5624432313	-1.1344760075	 0.09925
H	 0.9850463866	-2.9190409812	 0.0341393747	 0.08075
H	 1.8431046395	-0.5702596002	 1.1852827263	 0.100223
H	 0.3630925114	-1.0013391726	 2.1061567221	 0.100795
H	-1.879929702	-0.4995214302	-0.900461653	 0.077775
H	-1.776219181	-0.4731044433	 2.158978271	 0.082658
H	-2.7810611223	 0.5333236729	 1.0995840245	 0.104134
H	-2.916864199	-2.2636928534	 1.0743428452	 0.292144
