17
gdb 51360	3.4506	1.32338	1.14722	5.218	73.47	-0.2163	0.0418	0.2581	1087.8073	0.136054	-417.893764	-417.886109	-417.885164	-417.926339	29.425	
N	-0.1795071037	 1.151578451	 0.0042830463	-0.452374
C	-0.5735330224	-0.0159216719	 0.2784995942	 0.151414
O	-0.7868509631	-0.8995240256	-0.7170492062	-0.176747
C	-1.0673410721	-2.2274962406	-0.3710512583	 0.101764
C	-1.868156361	-2.7968790985	 0.7701788219	-0.143749
C	-3.2508035504	-2.1434756843	 1.0420849493	-0.059615
N	-3.4102952489	-0.9507962796	 0.1750370091	-0.320123
C	-3.6510488161	-2.3129183918	-0.364346878	-0.050458
C	-2.3007033669	-2.9931757351	-0.7131683328	-0.104767
H	-0.0786638097	 1.6862613531	 0.864718769	 0.221628
H	-0.7725482424	-0.4280395644	 1.2738263134	 0.08745
H	-0.1850211348	-2.8462219132	-0.5427928536	 0.110421
H	-1.4379441728	-3.526627563	 1.4456143978	 0.0996
H	-3.816146107	-2.2698686766	 1.9555379115	 0.100611
H	-4.3263340577	-0.5522666196	 0.382350764	 0.233606
H	-4.6038615187	-2.5912613997	-0.793427137	 0.102904
H	-2.2558199122	-3.8965296205	-1.3089452007	 0.098435
