15
gdb 74716	2.36233	1.80265	1.48964	2.9496	66.9	-0.2269	-0.0131	0.2137	930.906	0.112506	-453.938847	-453.930788	-453.929844	-453.971135	30.648	
N	-0.0090926911	 1.2611844806	 0.0933630969	-0.618026
C	 0.0019964635	-0.0852638692	-0.0283333825	 0.384177
N	-1.0162160443	-0.8923558881	-0.0306321765	-0.294891
C	-0.3254346455	-2.2126092489	-0.0226853848	-0.121824
C	 0.8377800808	-2.0218983947	-1.0374187203	-0.280098
C	 1.2758000911	-0.8975209094	-0.0222034504	 0.18158
O	 2.4774697363	-0.2209862351	-0.0080041385	-0.485026
C	 0.7669850506	-1.9452945382	 1.058761458	 0.37547
O	 1.1722689528	-2.3522007352	 2.0982075855	-0.311
H	 0.8222220715	 1.7650112847	-0.1669571161	 0.271897
H	-0.8930442114	 1.7365972221	 0.0055742337	 0.266239
H	-0.98453082	-3.0747040814	-0.0240626353	 0.096841
H	 1.5409896821	-2.8583598982	-1.0930087064	 0.111675
H	 0.5371884864	-1.6685033307	-2.0260731979	 0.119436
H	 3.0873725372	-0.6882216183	 0.5746288146	 0.303549
