17
gdb 5081	3.2245	1.94719	1.23257	0.6786	71.26	-0.1739	0.0586	0.2325	970.7644	0.14111	-363.90716	-363.898166	-363.897222	-363.940783	32.073	
C	 0.0044427299	 1.5118171441	 0.0077518464	-0.50256
C	 0.0086873744	 0.0140391566	-0.003589319	 0.216348
C	-0.0386843911	-0.7946476856	-1.1092765615	-0.192327
N	-0.0162052165	-2.1104657434	-0.6779815232	-0.304585
C	 0.0455880653	-2.127534888	 0.6837575213	 0.308389
O	 0.0767149016	-3.3426204362	 1.2948644452	-0.43779
C	 0.0632768421	-0.8364585735	 1.1584557303	 0.055376
C	 0.1261210321	-0.4013664629	 2.5906639598	-0.514654
H	 0.9049764362	 1.9215188572	 0.4827419016	 0.118163
H	-0.0414424585	 1.912109892	-1.0093628188	 0.116872
H	-0.8536081866	 1.9159975267	 0.559880079	 0.118182
H	-0.0872164273	-0.5555176284	-2.1589920634	 0.11
H	-0.0365535915	-2.9333922079	-1.2531900054	 0.261851
H	 0.1215424441	-3.198358709	 2.2449461785	 0.30277
H	 1.017130902	 0.2028425715	 2.8030071144	 0.126454
H	-0.7438211847	 0.201314741	 2.880508714	 0.126508
H	 0.1569986084	-1.2557558841	 3.2785472608	 0.091004
