20
gdb 113540	3.11387	1.02254	0.90955	1.2867	75.41	-0.246	0.0591	0.3051	1347.2073	0.170061	-440.23342	-440.224046	-440.223102	-440.268133	34.367	
C	-0.358346672	 1.4180704086	 0.2908137521	-0.392857
C	 0.1338259115	 0.0245344339	-0.0400062381	 0.086879
O	 1.4207479167	 0.0278938168	-0.7206487361	-0.296902
C	 2.0461706523	-0.76836352	 0.3036668401	-0.15004
C	 0.7422310061	-0.8119211776	 1.091954335	 0.259485
N	 0.5465253087	-0.5545335719	 2.5130304172	-0.384851
C	 0.1928588912	-1.8814840484	 1.9466040128	-0.118458
C	-1.2817717781	-2.2004030099	 2.0193921634	-0.063255
O	-1.6928282396	-2.4296496153	 3.3549039466	-0.419072
H	 0.3561682939	 1.9418146785	 0.9312178427	 0.122322
H	-0.495493547	 1.993143582	-0.629915782	 0.12535
H	-1.3177062744	 1.3694568272	 0.8156392744	 0.12352
H	-0.6086095678	-0.5169169123	-0.642697798	 0.0794
H	 2.4079560542	-1.7318294082	-0.0790193019	 0.106644
H	 2.879081131	-0.2411394735	 0.7898002401	 0.102553
H	 1.4340947932	-0.5968521349	 3.0086719926	 0.234509
H	 0.8559953548	-2.7120804835	 2.1856078675	 0.093038
H	-1.8562131617	-1.3822335573	 1.5580489564	 0.090057
H	-1.5029784977	-3.1174197246	 1.4632086132	 0.111246
H	-1.4362039955	-1.6413624396	 3.848395352	 0.290432
