20
gdb 116975	4.06667	0.50436	0.47483	3.8906	87.7	-0.2584	0.0205	0.2788	2355.0512	0.16861	-403.120341	-403.10943	-403.108486	-403.159921	36.626	
C	 0.282045419	 1.3370301509	-0.4062939144	-0.382676
C	 0.5162891221	-0.1563426395	-0.1721800066	-0.15628
C	-0.0902889412	-1.0257511348	-1.2928308503	-0.336867
C	 0.1216437919	-2.4546771256	-1.0964636988	 0.006494
C	 0.3127545664	-3.6285974862	-0.9049755494	 0.13873
C	 0.5507796481	-5.0520591202	-0.6960658618	-0.240356
O	 1.8017594853	-5.5079425511	-1.2286429319	-0.171403
C	 1.8801925582	-5.568616522	-2.5748015104	 0.13716
N	 2.9541490116	-5.9382277427	-3.1235659978	-0.438105
H	 0.7326821502	 1.6673814625	-1.3488280596	 0.117819
H	-0.7877014876	 1.5702149064	-0.4510198896	 0.116391
H	 0.7193164908	 1.9349276338	 0.3986398007	 0.118158
H	 1.5895054567	-0.3654082032	-0.1053775264	 0.115374
H	 0.0819220855	-0.4615490719	 0.7862510088	 0.110283
H	-1.1675577035	-0.8250743516	-1.3690269115	 0.129562
H	 0.3385684772	-0.7266177842	-2.2587729865	 0.131852
H	 0.60477796	-5.2839803701	 0.3712170143	 0.151402
H	-0.2724252556	-5.6456953806	-1.1180184611	 0.132815
H	 0.9511285794	-5.2787554405	-3.0835189861	 0.091204
H	 2.8419980556	-5.9424472795	-4.1352924216	 0.228442
