23
gdb 121125	3.75777	0.80216	0.77291	1.5901	83.03	-0.2471	0.0846	0.3317	1623.0748	0.205513	-425.428792	-425.418866	-425.417921	-425.46457	36.04	
C	-0.3520548559	 1.4034051248	 0.3029834422	-0.228422
O	-0.1342937517	 0.0257793127	 0.1180196542	-0.234088
C	-1.3297419936	-0.7048575895	-0.0509957283	-0.063949
C	-0.9860420857	-2.1843306319	-0.18586409	-0.006387
C	-0.408107537	-2.7529863966	 1.1283223232	-0.094558
O	-1.5203352983	-3.2819821372	 1.8311078423	-0.258883
C	-2.3167658849	-3.9518328353	 0.8587243225	 0.170175
C	-3.7020900329	-4.1948083908	 1.4302680807	-0.408443
C	-2.2597022399	-3.0453633664	-0.39535426	-0.278878
H	 0.6249603282	 1.8769369418	 0.4273765006	 0.126306
H	-0.8585149373	 1.8576208623	-0.5637168478	 0.102461
H	-0.9617127937	 1.6048897277	 1.1981398155	 0.104852
H	-1.9987982	-0.5588818191	 0.8153912811	 0.091788
H	-1.8718779588	-0.3532040509	-0.9458627352	 0.082688
H	-0.2727215688	-2.294850818	-1.0072990499	 0.079235
H	 0.3287714284	-3.5452882146	 0.9176828059	 0.080492
H	 0.0673493782	-1.991036781	 1.7491986762	 0.116817
H	-1.8439993159	-4.9208323357	 0.6188107966	 0.059681
H	-4.1825159895	-3.2433819777	 1.6797987833	 0.119497
H	-4.3291539785	-4.7220780618	 0.7045536223	 0.114181
H	-3.6441764221	-4.8001368354	 2.3391446338	 0.125188
H	-3.1529839953	-2.4121076123	-0.4460121602	 0.098375
H	-2.2240857352	-3.6303290753	-1.317481559	 0.101873
