27
gdb 100035	2.75851	0.98997	0.91794	0.0642	96.11	-0.2594	0.0745	0.3338	1505.6751	0.250279	-353.551982	-353.540674	-353.53973	-353.588351	43.03	
C	-0.8400251967	 1.7500086028	 1.9795217289	-0.408891
C	-0.5243984934	 0.3258350733	 1.5074591977	-0.162119
C	-1.7099079664	-0.5273260489	 0.968319703	 0.239934
C	-2.7713463969	-0.6950366258	 2.0693749066	-0.431172
C	-2.3578335942	 0.1597891388	-0.2516215205	-0.407487
C	-1.082375362	-1.8431920115	 0.4822093731	 0.026297
C	-0.746966508	-3.0375620264	 1.3440666741	-0.32407
C	-1.7219768673	-3.1895600432	 0.1976213048	-0.016394
C	-3.1656934043	-3.5837280694	 0.4365539804	-0.413258
H	 0.0780292007	 2.2474023008	 2.308974291	 0.111051
H	-1.2721006199	 2.3620796342	 1.1817245289	 0.116235
H	-1.5349624693	 1.7641338953	 2.8246709582	 0.116194
H	 0.2362573811	 0.3836164061	 0.7178244404	 0.08662
H	-0.0577363155	-0.2284843929	 2.3317042618	 0.09423
H	-3.1084944203	 0.2835610913	 2.4230066579	 0.111819
H	-3.6557148595	-1.2200937125	 1.7032983492	 0.116483
H	-2.3821194531	-1.2388911192	 2.9360054367	 0.10854
H	-1.6167743075	 0.3555134537	-1.034937397	 0.104365
H	-3.1371151102	-0.4763749284	-0.6831739574	 0.113494
H	-2.8212560824	 1.1143724079	 0.016929867	 0.107941
H	-0.3033351531	-1.6189921353	-0.2459466825	 0.074629
H	 0.2421738869	-3.4788066573	 1.2772231865	 0.103138
H	-1.1741847128	-3.0751812042	 2.3416734714	 0.1074
H	-1.3101362001	-3.6670817022	-0.6892434682	 0.079005
H	-3.5214873143	-3.2903707722	 1.4258668534	 0.119877
H	-3.839655624	-3.1445909197	-0.308040869	 0.113475
H	-3.2686818775	-4.6727223452	 0.3671744435	 0.112665
