16
gdb 76454	2.28249	1.35017	1.22648	2.6872	72.26	-0.2701	-0.0598	0.2103	1101.7127	0.122162	-437.896966	-437.887981	-437.887036	-437.930334	32.841	
C	 0.0769053401	 1.5579761726	 0.0516333487	-0.435477
C	 0.1294868274	 0.0483289442	 0.0309671142	-0.093114
C	 1.3497332081	-0.7279747624	-0.2488769722	 0.118565
O	 2.5845895769	-0.1801277339	-0.4254012809	-0.40018
C	 0.7191438222	-0.7767897009	 1.2299838952	-0.041368
C	 1.5328371909	-0.1202273191	 2.2677655437	 0.116391
O	 2.289185803	 0.8110739311	 2.0518890309	-0.312521
C	 0.0027581871	-1.9507971786	 1.6295562381	 0.221108
N	-0.5787664451	-2.9015078437	 1.9434714855	-0.332459
H	 0.9824881695	 2.004303045	 0.461194431	 0.154257
H	-0.0542087083	 1.9220033077	-0.9724028259	 0.140993
H	-0.7726814083	 1.9049297309	 0.6461611016	 0.137912
H	-0.7824647203	-0.4253877435	-0.3225873227	 0.13227
H	 1.2501550568	-1.6685654544	-0.7810880909	 0.148529
H	 2.7310846707	 0.4878712929	 0.2703909188	 0.319506
H	 1.4446664294	-0.5529237977	 3.281528775	 0.125588
