19
gdb 88018	2.79841	1.32291	1.12115	1.2855	76.07	-0.2501	0.0654	0.3155	1150.4217	0.157805	-422.97004	-422.96143	-422.960486	-423.003513	32.945	
O	 0.0409005878	 1.3253558535	 0.053859835	-0.422582
C	-0.0174264981	-0.0675638996	 0.1552077195	 0.019746
C	-0.7546437132	-0.7090735355	 1.3049018346	-0.381837
C	-1.3615970689	-0.67422512	-0.0767090772	 0.28469
C	-2.6554833672	 0.038391892	-0.4994959614	-0.313345
C	-3.1300650085	-1.2885412734	-1.1800348945	-0.325687
C	-1.7419149557	-1.8818076192	-0.9067110008	 0.391683
C	-0.9126146251	-2.7557896221	-1.7381024858	-0.269425
O	-1.5051637235	-3.2229401789	-0.5149346156	-0.273214
H	 0.6507366841	 1.6479475266	 0.7256556356	 0.289365
H	 0.8514500838	-0.595170264	-0.2421294501	 0.083899
H	-0.4035658415	-1.6678192316	 1.673291782	 0.125451
H	-1.1875616853	-0.0483150936	 2.0496471513	 0.113832
H	-3.2873042054	 0.4027507515	 0.3128981312	 0.10568
H	-2.4809523848	 0.8560761429	-1.2019958027	 0.119695
H	-3.910220582	-1.8075915299	-0.6176035562	 0.119331
H	-3.4331804006	-1.2204034542	-2.2271916211	 0.107129
H	-1.3250118912	-3.1854821813	-2.6506275015	 0.113727
H	 0.1724343653	-2.6580404432	-1.7230648522	 0.111861
