23
gdb 110709	2.47959	1.3572	1.10926	0.2473	90.12	-0.2206	0.0173	0.2379	1251.4449	0.206431	-351.127895	-351.119072	-351.118128	-351.161121	35.101	
C	 0.575408793	 0.7114526144	 0.9911143902	-0.376496
C	 0.2240475248	-0.781233986	 0.9930641171	-0.219092
C	-1.2191552701	-1.041396459	 0.5857270945	 0.06738
C	-1.7305536962	-0.8215851652	-0.8903808325	-0.098423
C	-0.8461367124	-1.8104280533	-1.6576305765	-0.089323
C	-0.8620450107	-2.9021795183	-0.885209214	-0.087524
C	-1.7553969756	-2.490973278	 0.2911986439	-0.114177
C	-2.9237044061	-1.7896864691	-0.513033464	 0.062101
C	-4.1318379795	-1.240403512	 0.2359086026	-0.438095
H	 1.6065359741	 0.8775283398	 1.3184130284	 0.109477
H	 0.4722451206	 1.1402177079	-0.0116683471	 0.115105
H	-0.081216124	 1.2788089955	 1.660674119	 0.109884
H	 0.9057789573	-1.322311066	 0.3296743802	 0.098164
H	 0.3797166181	-1.1899537029	 2.0007630499	 0.088112
H	-1.8745456401	-0.5259276509	 1.2947285995	 0.064743
H	-1.8999133904	 0.1703699453	-1.3114028627	 0.05206
H	-0.3515873494	-1.6336648733	-2.6023158546	 0.094375
H	-0.3853296124	-3.8619035297	-1.0263484002	 0.094713
H	-1.9460460067	-3.2144049905	 1.0855562474	 0.050555
H	-3.2694780042	-2.385529522	-1.3627828581	 0.06514
H	-3.8761849773	-0.6283240518	 1.1042853549	 0.118935
H	-4.7427386573	-0.6242829181	-0.4338178828	 0.116191
H	-4.7649101556	-2.0634575967	 0.5866943848	 0.116193
