18
gdb 28445	2.99854	1.37529	0.95394	1.4964	83.35	-0.2188	-0.0124	0.2064	1218.5956	0.148226	-402.038	-402.029464	-402.02852	-402.071006	32.344	
C	-0.0395396946	 1.5271319301	-0.0077061554	-0.502463
C	 0.0004169803	 0.0204370396	-0.0204598073	 0.229308
C	-0.0209842906	-0.6975892687	-1.2192300828	-0.132991
C	 0.0160163581	-2.0821173461	-1.2230155067	-0.224708
C	 0.0750018928	-2.7155927171	 0.0178274371	 0.425233
O	 0.1128202625	-4.0661610163	 0.0678322815	-0.422155
N	 0.0968768513	-2.0654745685	 1.1748150634	-0.417388
C	 0.0607347534	-0.7246162881	 1.1672610399	 0.253008
C	 0.0882874702	-0.0514749934	 2.5148786135	-0.481028
H	 0.8477542742	 1.9568977465	 0.4725668051	 0.12946
H	-0.0892595919	 1.9240747557	-1.0252213135	 0.121177
H	-0.9090163912	 1.9097343224	 0.5401536416	 0.129387
H	-0.0674331943	-0.1592976456	-2.1618270954	 0.098815
H	 0.0006567994	-2.6637818383	-2.13594093	 0.106413
H	 0.1506649944	-4.2912174041	 1.0076485233	 0.293978
H	 0.9505848331	 0.6189822726	 2.610555074	 0.129147
H	-0.8055934549	 0.5633992047	 2.673914871	 0.129307
H	 0.1402040978	-0.8050328054	 3.3014390508	 0.135502
