21
gdb 111442	2.76036	1.4419	1.1447	1.7357	80.01	-0.2467	0.0724	0.3191	1133.6598	0.18476	-387.06207	-387.054089	-387.053145	-387.094501	32.346	
O	 0.1356815833	 1.393771266	-0.0428293519	-0.425055
C	 0.0699461929	-0.02185087	 0.0419752865	-0.066855
C	-1.3700694437	-0.5462953986	 0.0265427911	-0.028098
C	-2.1776457177	-0.1420048344	-1.2191691471	-0.067155
C	-1.7539222923	-0.6080246371	-2.5962718058	-0.309687
C	-2.7889886148	-1.3888876255	-1.8250667799	-0.039086
C	-2.3696952086	-2.5802295022	-0.9817752499	-0.038006
C	-0.9166565483	-2.9809048564	-0.9183556679	-0.302137
C	-1.4917277535	-2.073030924	 0.1453225521	-0.057617
H	-0.2365962813	 1.6425682274	-0.8953266701	 0.284404
H	 0.6522024951	-0.4947195912	-0.7636610898	 0.081232
H	 0.554995877	-0.2885894235	 0.9869480418	 0.106227
H	-1.8782690661	-0.103961544	 0.8920165162	 0.081452
H	-2.7471234077	 0.7796662667	-1.1622489563	 0.087592
H	-2.1073774478	-0.0207588047	-3.4378880464	 0.108949
H	-0.7677223095	-1.0284968039	-2.7527148308	 0.113333
H	-3.8069299242	-1.3871970568	-2.1975607428	 0.083353
H	-3.1188850617	-3.3443268754	-0.8091945565	 0.082739
H	-0.7006038699	-4.0003930327	-0.6153713678	 0.108586
H	-0.217691841	-2.5983430402	-1.6523005378	 0.111793
H	-1.5768956803	-2.4831850798	 1.1461207132	 0.084035
