18
gdb 30708	3.08714	1.17355	0.87207	2.8451	76.75	-0.1789	0.0413	0.2203	1297.0261	0.146696	-439.113231	-439.103413	-439.102469	-439.148121	35.224	
C	-0.0562488383	 1.5291302632	 0.1251342031	-0.538045
C	 0.0239373877	 0.0359120477	 0.0249956719	 0.049644
C	 0.0777627232	-0.7460473974	-1.1161074304	 0.261455
C	 0.1097846517	-0.3910582232	-2.5642559958	-0.200854
O	-0.5512117672	-1.4298643385	-3.2881814965	-0.424756
N	 0.1771256925	-2.0540922655	-0.73343166	-0.294984
C	 0.1555485899	-2.1530955718	 0.6410294559	-0.18315
C	 0.0779910513	-0.8701228657	 1.1276164001	 0.250752
O	 0.0516724788	-0.5485962559	 2.4568200724	-0.450741
H	 0.8968528967	 1.9884593916	 0.4208353571	 0.124163
H	-0.3443743409	 1.9803778006	-0.8289283783	 0.126157
H	-0.8081008283	 1.845683749	 0.8607194393	 0.117653
H	-0.3793898278	 0.5826880853	-2.7168319959	 0.101618
H	 1.1478334128	-0.2880818383	-2.924186509	 0.09921
H	-0.3492979266	-1.3153044555	-4.2215581295	 0.289925
H	 0.0932243893	-2.8142080611	-1.3854378937	 0.263987
H	 0.1876691759	-3.1003515055	 1.1511546705	 0.115567
H	 0.0238077593	 0.409289481	 2.534784549	 0.292399
