14
gdb 16639	3.24121	2.41022	1.61169	3.1042	56.39	-0.27	-0.0065	0.2635	772.3636	0.107996	-419.695514	-419.688959	-419.688015	-419.726313	25.027	
O	 0.161784483	 1.3008852274	 0.3939302517	-0.428261
C	-0.0520344634	-0.0590663416	 0.0907249256	-0.020722
C	-1.499869993	-0.4371801154	-0.0912124001	-0.071429
C	-2.2412103115	 0.2130941248	-1.2447165525	-0.311204
C	-1.5640700272	-1.1072394404	-1.4390087025	 0.082746
O	-0.2861283003	-1.0637233651	-2.0628651083	-0.20851
C	 0.5876257006	-0.3927952337	-1.2728548757	 0.399256
O	 1.6849507784	-0.0652983389	-1.623352198	-0.345014
H	 1.0632880959	 1.5028891667	 0.1081709836	 0.297687
H	 0.4114030539	-0.7111839799	 0.8488381292	 0.101194
H	-2.0593759138	-0.8191001333	 0.7523256507	 0.108519
H	-3.3237102862	 0.2200711889	-1.1898954032	 0.129553
H	-1.7992187317	 1.0868412043	-1.711284424	 0.144218
H	-2.0920325348	-2.0266895739	-1.6517610463	 0.121968
