19
gdb 88794	2.73166	1.36883	1.05625	4.168	76.67	-0.2448	0.0379	0.2826	1178.3907	0.159996	-419.202031	-419.1932	-419.192256	-419.235933	32.641	
C	 0.1443053692	 1.5143051092	-0.3397266165	-0.426877
C	-0.0465892033	 0.0722078562	 0.0610219578	 0.005806
N	 1.1140922101	-0.8378884848	-0.0064020392	-0.334413
C	 0.4876199677	-0.5663213209	 1.2968503751	-0.035777
C	 1.3314720381	 0.0876892878	 2.3638798778	-0.179034
C	 2.3078188048	-0.8686336411	 3.1270466618	-0.170383
N	 3.3954453409	 0.0095574336	 2.7032099252	-0.310717
C	 2.6247337539	 0.8781296197	 1.9796216334	 0.445907
O	 2.8942658699	 1.8703040223	 1.3558134154	-0.360733
H	 1.0897925283	 1.9145295877	 0.0290115635	 0.179992
H	 0.1293841573	 1.6038085751	-1.4316083116	 0.112975
H	-0.6757042753	 2.1258780029	 0.0541678154	 0.105895
H	-0.9953658999	-0.3529825706	-0.2694642344	 0.078085
H	 0.8391797577	-1.7502734888	-0.3583957818	 0.227739
H	-0.1462504327	-1.3518289104	 1.7126381653	 0.080807
H	 0.704282631	 0.670125233	 3.0465566968	 0.10606
H	 2.1679044618	-0.9231702237	 4.2113605457	 0.109965
H	 2.3607937336	-1.8789067005	 2.7081074674	 0.113065
H	 4.393618407	-0.0310153567	 2.8424220431	 0.251637
