18
gdb 69691	3.00014	1.36309	1.2462	1.767	76.72	-0.2254	-0.0312	0.1942	1082.1829	0.145673	-401.86219	-401.8538	-401.852856	-401.895756	31.513	
C	 0.2544713914	 1.4092315016	 0.4069745787	-0.479133
C	 0.0035145549	-0.0568392622	 0.2208531183	 0.340822
C	-0.8361360955	-0.8754418347	 1.1191165892	-0.298494
N	 0.6256230443	-1.0959619137	 1.1323836767	-0.173936
C	 1.0517223818	-1.8390895174	-0.1047298923	-0.033664
C	 0.0508848833	-2.1930232388	-1.1987203741	-0.106944
C	-1.338274268	-2.7623353252	-1.1940709077	 0.111036
O	-2.3439712374	-2.1630876209	-1.4790562751	-0.246464
C	 0.5158531613	-0.7806379603	-1.0498615205	-0.16605
H	 1.2730422251	 1.6753595985	 0.1034019028	 0.124312
H	-0.4443819514	 1.9990020363	-0.1977822155	 0.128979
H	 0.1272725583	 1.6934541707	 1.4550258875	 0.129977
H	-1.1717760755	-0.3885590066	 2.0314114912	 0.122949
H	-1.5095275429	-1.6441983189	 0.7674210048	 0.138177
H	 2.0182296299	-2.3257818	-0.0654271365	 0.108287
H	 0.6181324048	-2.7192808532	-1.9725265987	 0.121268
H	-1.3666049188	-3.8528764311	-0.9643498733	 0.07807
H	 1.0321414742	-0.242538024	-1.8347269756	 0.100805
