13
gdb 4712	4.90416	1.51645	1.15933	5.2676	69.6	-0.2077	-0.0399	0.1678	954.3639	0.096207	-398.643887	-398.63693	-398.635985	-398.675033	25.802	
N	 0.1067381893	 1.33042884	 0.1505264698	-0.592174
C	-0.0635004099	-0.0245229216	 0.0491616512	 0.401313
C	-1.1853151114	-0.826108732	 0.0165216238	-0.256784
C	-0.6926625377	-2.1527579526	-0.0138001487	-0.201808
C	 0.6781534528	-2.0879786699	-0.0000957927	 0.242317
O	 1.0588273424	-0.7564443903	 0.0386179813	-0.185663
C	 1.6876155332	-3.1134816352	-0.0251445549	 0.054953
O	 2.8902433317	-2.9407884733	-0.0172235312	-0.305365
H	 1.0102802415	 1.6662385137	-0.150502168	 0.272744
H	-0.6631663887	 1.8902291662	-0.1811209515	 0.26814
H	-2.2112094391	-0.4959299681	 0.0194811702	 0.110801
H	-1.2742305288	-3.0620585477	-0.0447249909	 0.126526
H	 1.2404931747	-4.1329265891	-0.0549912085	 0.065
