18
gdb 59331	3.4544	1.13018	0.90073	3.2028	77.13	-0.2422	-0.0326	0.2096	1281.1944	0.147262	-439.106873	-439.098132	-439.097187	-439.140463	32.762	
C	-0.0091934301	 1.5353996008	-0.0484853694	-0.41871
C	 0.0032304907	 0.0140352965	 0.0363191783	 0.118567
O	 0.6749508149	-0.462533612	 1.1966787943	-0.430987
C	-1.4203625764	-0.5835256196	 0.0046373386	 0.034991
O	-2.1068974659	-0.1776795785	-1.1823371822	-0.229586
C	-2.5187566842	-1.2775635308	-1.8905164209	 0.386184
N	-3.1476161129	-1.1223398546	-2.9792026472	-0.524493
C	-2.08482574	-2.4725396694	-1.1413574743	-0.196008
C	-1.448586541	-2.0835379753	-0.0374150757	-0.082653
H	 1.0134297449	 1.9219512521	-0.0412495028	 0.126792
H	-0.5111672583	 1.8657891274	-0.9606762506	 0.153679
H	-0.5485067013	 1.9659571639	 0.8056919335	 0.107165
H	 0.5563364367	-0.4002268618	-0.8142966137	 0.102156
H	 0.3932419677	 0.0771521798	 1.9435476009	 0.283325
H	-1.9754139636	-0.1946134651	 0.8739830488	 0.092487
H	-3.3805826184	-2.0303544286	-3.3767574299	 0.220893
H	-2.2735618698	-3.4804685416	-1.4838515296	 0.120286
H	-0.9893314529	-2.6943018732	 0.726643882	 0.135912
