21
gdb 41970	2.41043	2.02753	1.60927	1.314	80.13	-0.2361	0.0772	0.3133	951.1413	0.187391	-387.095351	-387.088474	-387.08753	-387.126304	29.002	
C	-0.0526126308	 1.5131097223	-0.1919484382	-0.229122
C	 1.4053441505	 1.9779414814	 0.0483663618	-0.191761
C	 2.0603926805	 0.893035171	 0.9440832243	-0.032133
C	 1.8711118272	 1.1973185895	 2.4336088179	-0.084107
O	 0.4950461476	 1.3083617946	 2.7606504603	-0.245178
C	-0.1967893854	 0.0767461771	 2.6388529139	-0.108155
C	 0.0478835766	-0.6489260835	 1.329847767	-0.038846
C	-0.0058748947	-0.0106348037	-0.0413721085	-0.047915
C	 1.3274049477	-0.4051312237	 0.5637729886	-0.08679
H	-0.7363528007	 1.9758171754	 0.5244081868	 0.11306
H	-0.4009459627	 1.7873686765	-1.1922631412	 0.089827
H	 1.9346820711	 2.0089493547	-0.9103081585	 0.092797
H	 1.4684404005	 2.9786551008	 0.4876144094	 0.093618
H	 3.1332602948	 0.8061923962	 0.7435476886	 0.066097
H	 2.3507290272	 0.4170265925	 3.0491884513	 0.079952
H	 2.3190870579	 2.160945555	 2.6976026015	 0.100408
H	 0.096888301	-0.5946636622	 3.4652981506	 0.086674
H	-1.2578952225	 0.3164958172	 2.7708177668	 0.106355
H	-0.2938388694	-1.6811008864	 1.361801774	 0.080959
H	-0.4398392911	-0.61413562	-0.8314917168	 0.077679
H	 1.9013274547	-1.2465038348	 0.1924375404	 0.076582
