17
gdb 121721	5.1515	0.66873	0.60347	7.1375	69.63	-0.2462	-0.0034	0.2428	1762.4072	0.134735	-492.329527	-492.319405	-492.31846	-492.36684	34.181	
O	 0.0297486156	 1.4031320998	-0.3326417688	-0.426739
C	 0.0057011139	 0.0130010277	-0.0215759884	-0.091248
C	-1.4501277843	-0.3676218544	 0.1883102163	-0.125332
N	-2.2155875188	-0.0469094838	-1.0031018621	-0.381462
C	-3.374951088	-0.7195548543	-1.2922895496	 0.532972
O	-3.7817817517	-1.6722360467	-0.6723114861	-0.360603
N	-4.0194134335	-0.1886432466	-2.4378297337	-0.392315
C	-5.2699157647	-0.5282839774	-2.9316243613	 0.167622
O	-6.058521258	-1.2932083867	-2.4497743782	-0.2586
H	 0.9296889219	 1.6517611309	-0.5614905008	 0.295142
H	 0.4302263094	-0.5828837746	-0.8427129292	 0.100644
H	 0.5749792344	-0.2041733251	 0.8938518927	 0.100771
H	-1.5499919047	-1.4378498916	 0.3784526196	 0.146938
H	-1.8414248868	 0.1644961185	 1.0666439823	 0.119693
H	-2.0428297588	 0.8706866378	-1.3836774587	 0.248325
H	-3.5097843517	 0.4882058811	-2.9860352422	 0.247965
H	-5.4624912843	 0.0324400056	-3.8708891519	 0.076228
