18
gdb 59291	2.59906	1.52671	1.01081	5.1758	75.02	-0.2386	-0.0163	0.2222	1154.5308	0.148641	-435.294383	-435.285831	-435.284887	-435.327576	32.414	
C	 0.02501207	 1.5574190335	-0.0248284685	-0.388331
C	 0.0031656243	 0.0393145731	 0.0727252035	 0.146066
O	 0.5826153529	-0.3332200816	 1.3026338575	-0.443557
C	-1.4407756615	-0.5247053264	-0.0127091854	-0.080628
N	-2.1379091359	-0.1592854981	-1.2556271112	-0.240081
C	-2.4902385519	-1.2549440254	-1.8013100521	 0.058517
N	-2.1525348044	-2.4146249763	-1.1056236094	-0.346561
C	-1.4403146044	-2.0520790476	 0.0301654928	 0.397027
N	-0.8596827855	-2.7667048853	 0.9114263014	-0.567249
H	 1.0563389995	 1.9129183747	 0.0486354647	 0.119362
H	-0.4064124577	 1.8897522684	-0.9711060951	 0.13148
H	-0.545824547	 1.997180181	 0.7992720095	 0.117505
H	 0.5695995416	-0.3841068843	-0.7760459928	 0.058441
H	 0.4073817121	-1.2811554562	 1.4335278323	 0.297592
H	-1.9920415074	-0.1234920767	 0.8463979452	 0.125936
H	-3.0282599592	-1.3346273891	-2.7404783779	 0.140335
H	-2.2808407048	-3.3564744	-1.4369023585	 0.260913
H	-0.9398992506	-3.7679274437	 0.7344186741	 0.213231
