19
gdb 113502	3.56773	0.98225	0.87129	2.7485	78.15	-0.2481	0.0226	0.2707	1385.4536	0.159226	-419.207411	-419.198149	-419.197205	-419.242098	33.376	
C	 0.2561462729	 1.5252856307	 0.1626584454	-0.375906
C	-0.244963817	 0.1095358413	-0.1440477502	-0.185326
C	 0.4474568964	-0.4936287442	-1.3445061011	-0.074058
N	 1.7749205321	-1.0918677596	-1.1080399731	-0.380557
C	 0.6664054936	-1.9491665658	-1.4962842723	 0.180203
C	 0.1335930436	-3.1822681516	-0.7405533206	-0.23446
N	 0.0416071356	-3.8230127072	-2.0630657339	-0.35165
C	 0.5583594034	-2.7664416051	-2.7794102214	 0.383965
O	 0.8259588179	-2.594064195	-3.9396949272	-0.376691
H	 1.3321346802	 1.5161701754	 0.3610610859	 0.131997
H	 0.0743298054	 2.2015735166	-0.6798621624	 0.11532
H	-0.2487754205	 1.9417103052	 1.0392948088	 0.113826
H	-0.0763063341	-0.5388759513	 0.7228582206	 0.103993
H	-1.3269099495	 0.1245450694	-0.3280013345	 0.10049
H	 0.3160866446	 0.0492182487	-2.2809290411	 0.103672
H	 2.3866575799	-0.9511823587	-1.910450119	 0.247397
H	 0.8596747227	-3.6441400051	-0.0652477739	 0.124946
H	-0.8286601112	-3.0567865691	-0.234453168	 0.117186
H	-0.250238716	-4.7455880045	-2.3448994119	 0.255653
