18
gdb 112174	2.45183	1.25634	1.03425	1.0965	69.46	-0.2701	0.013	0.283	1212.1394	0.145443	-476.213912	-476.204263	-476.203319	-476.248438	35.129	
C	-0.2194023141	 1.5926054291	 0.1656369354	-0.451724
C	-0.103466486	 0.0848106791	-0.0047423168	 0.216104
O	-1.3325798933	-0.5668656757	 0.2534093881	-0.467232
C	 0.5398974355	-0.4964189981	-1.2931662913	 0.096779
C	 1.1097590157	 0.3963701723	-2.3746247651	-0.085104
O	 1.8834514263	-0.3541963919	-3.2905175915	-0.41616
O	 1.6361955623	-1.0688276388	-0.4798676211	-0.290639
C	 1.0829170206	-0.5849338742	 0.6823177186	 0.403991
N	 1.4247201908	-0.7009515144	 1.8821301105	-0.556732
H	 0.7141194797	 2.1099023107	-0.0711302501	 0.128396
H	-1.0178051895	 1.9825945384	-0.471843293	 0.13232
H	-0.4656948972	 1.8182865312	 1.2080019307	 0.134582
H	-1.475671213	-0.5434668537	 1.2071664492	 0.2943
H	-0.0541878643	-1.306376302	-1.7218861282	 0.116073
H	 0.2918229654	 0.8482828765	-2.9460264834	 0.123915
H	 1.6974628113	 1.2098685027	-1.9242991841	 0.094698
H	 2.5782740742	-0.7873162668	-2.7813566047	 0.295189
H	 2.2658812355	-1.2700068442	 1.9908416067	 0.231243
