20
gdb 82130	3.12262	1.12401	0.95972	2.0347	78.79	-0.2359	-0.0267	0.2092	1266.6155	0.169835	-403.109649	-403.100608	-403.099664	-403.14427	33.254	
C	-0.7005029995	 1.5078383016	 0.2069095707	-0.412896
C	-0.2612885725	 0.0666450504	 0.0142502679	 0.052665
C	 0.5176489965	-0.3979538151	-1.2669301064	-0.038472
C	 0.8613547661	 0.5827378265	-2.3985000123	-0.296479
C	-0.3373197083	 0.8445029746	-3.28210435	 0.1598
O	-0.8651439132	 1.915547377	-3.4373153761	-0.237256
C	 1.6276399305	-0.8321885445	-0.3129105066	-0.049037
C	 2.0733621958	 0.2690725246	 0.5606362606	-0.245078
N	 0.8359558196	-0.4443831312	 0.9247670903	-0.136293
H	 0.1102640054	 2.2275412609	 0.0669667452	 0.119464
H	-1.4894892578	 1.7655486542	-0.5062638607	 0.137283
H	-1.0956019438	 1.64010105	 1.2192668572	 0.129134
H	-1.1234270094	-0.5858776173	 0.1767479491	 0.08909
H	 0.0226446818	-1.2730309868	-1.7003322632	 0.084924
H	 1.2373819253	 1.5374626477	-2.024359001	 0.119267
H	 1.6422305463	 0.1251908708	-3.0231405883	 0.119375
H	-0.7326316747	-0.0660416961	-3.7931478163	 0.072845
H	 2.1588606035	-1.7772172017	-0.3726497486	 0.095059
H	 2.8867482854	 0.0584114707	 1.2482005768	 0.123939
H	 2.0347737531	 1.3001774036	 0.2218392216	 0.112667
