21
gdb 72131	2.11068	1.96259	1.71498	1.7741	81.62	-0.2334	0.0852	0.3186	980.1496	0.183092	-387.061847	-387.053925	-387.052981	-387.093521	32.531	
C	 0.0111248731	 1.5557491177	-0.0572743055	-0.512906
C	-0.0050732375	 0.0496277642	-0.0663410394	 0.286185
C	 0.4678729328	-0.8234144857	-1.2405237606	-0.299579
C	-0.2378477761	-1.9395702949	-0.4432904032	 0.041114
O	 0.618504291	-2.0723016979	 0.701852394	-0.272003
C	 0.3755869631	-0.7666568385	 1.2482842951	 0.041115
C	-1.1204678777	-0.848676893	 1.6150573109	-0.299579
C	-1.2961458601	-0.8729750806	 0.0875991861	 0.286187
C	-2.6082856387	-0.6833551908	-0.6272996773	-0.512906
H	 1.0397124664	 1.9351802161	-0.0791872235	 0.122127
H	-0.5095966094	 1.9651117329	-0.9300700357	 0.118345
H	-0.4690203077	 1.9654187436	 0.8384457741	 0.117009
H	-0.0533328817	-0.5531546189	-2.163350664	 0.095988
H	 1.5367376665	-0.9574890961	-1.4277860682	 0.095744
H	-0.5045391641	-2.9134882171	-0.8524771984	 0.071973
H	 1.1639522839	-0.4753499085	 1.9416057518	 0.071973
H	-1.4300231163	-1.7081655931	 2.2158654391	 0.095744
H	-1.5148853365	 0.0791377437	 2.0392024294	 0.095987
H	-3.1056583944	 0.2396353884	-0.3091635276	 0.118346
H	-2.479359413	-0.6336418383	-1.7143090338	 0.117009
H	-3.2911665937	-1.5151371733	-0.4169363734	 0.122127
