21
gdb 35960	2.98511	1.15695	0.892	1.3211	84.76	-0.2467	0.0536	0.3003	1329.1156	0.183433	-387.060022	-387.051029	-387.050085	-387.094121	34.314	
C	 0.2034840686	-1.2697835539	 0.180381342	-0.447293
C	 0.0687718679	-0.0793416383	 0.0763665468	 0.310552
C	-0.0576300514	 1.3730515056	-0.017946442	-0.188742
C	-0.8741733697	 1.9256503534	 1.1782114943	-0.2002
C	-1.5212680505	 3.3065575379	 0.9730735449	-0.213396
C	-0.6385978013	 4.4241840672	 0.365554065	-0.194253
C	 0.8773643327	 4.2574973009	 0.502165832	-0.074275
O	 1.408514144	 3.345110601	-0.447138386	-0.24338
C	 1.3670537356	 1.9844050185	-0.0966168077	-0.078408
H	 0.3088710281	-2.3234245359	 0.2589548395	 0.193333
H	-0.5746064178	 1.6199245094	-0.9556264505	 0.108811
H	-1.6687661956	 1.2128237404	 1.4190339604	 0.110063
H	-0.2140008211	 1.9399699611	 2.0541764939	 0.103995
H	-2.4111512582	 3.1891003435	 0.3436637968	 0.103553
H	-1.8957300878	 3.6309611885	 1.9509655431	 0.100216
H	-0.8350958362	 4.517160825	-0.7083587323	 0.110808
H	-0.9239915137	 5.3849130968	 0.8104001601	 0.094732
H	 1.3633200457	 5.2148774343	 0.2855952139	 0.105091
H	 1.1689774413	 3.9658286599	 1.5239289142	 0.087756
H	 1.8707684512	 1.8105272357	 0.8689219435	 0.094098
H	 1.9369435281	 1.4621718391	-0.869874332	 0.116939
