18
gdb 8773	2.30094	1.73531	1.07702	4.1695	69.15	-0.2513	-0.0358	0.2154	1104.1337	0.149444	-384.961364	-384.951504	-384.95056	-384.997625	33.188	
C	 0.0692662546	 1.5437253145	 0.0174900852	-0.422711
C	 0.0097946014	 0.0051946852	 0.0171879339	-0.070647
C	 0.7343091115	-0.4946217047	 1.2584436529	 0.164485
O	 1.7475227853	-1.1427496935	 1.2502176687	-0.24711
C	-1.4414160449	-0.5467770177	-0.0016193555	-0.070651
C	-2.2522545778	-0.0685639932	-1.2199310716	-0.422765
C	-1.4125094517	-2.0680090294	-0.0218886835	 0.164516
O	-1.9160444101	-2.7775106225	 0.8086614442	-0.247126
H	 1.107154905	 1.8859777227	 0.0688071576	 0.137186
H	-0.3718021324	 1.9589472482	-0.8912344457	 0.133603
H	-0.4676120891	 1.9610273347	 0.8766775271	 0.127284
H	 0.5599103415	-0.3836245617	-0.8479140008	 0.098626
H	 0.2516886958	-0.1911781569	 2.217831219	 0.079361
H	-1.9560113822	-0.2527730638	 0.920858541	 0.098618
H	-1.7638355805	-0.3543980779	-2.1581876554	 0.12729
H	-3.2525663437	-0.5116250315	-1.2110655161	 0.137121
H	-2.3710070611	 1.0170752256	-1.2173956034	 0.133618
H	-0.8854814814	-2.4994330782	-0.9059487176	 0.079302
