20
gdb 32974	2.75756	1.29923	0.95962	2.1023	82.97	-0.1906	0.0491	0.2396	1279.3512	0.170706	-403.17521	-403.165738	-403.164794	-403.210433	34.279	
C	 0.1659984668	 1.217904489	-1.1134006455	-0.376629
C	-0.0914519031	 0.2645774396	 0.0442677456	-0.067441
O	 0.954684335	-0.7120810192	 0.2064182578	-0.285176
C	 0.9382879105	-1.7539023023	-0.6624423708	 0.339933
C	 1.4630102331	-1.8977516513	-1.9272824888	-0.267989
C	 1.2036675118	-3.2379829067	-2.3304218152	-0.155474
C	 0.5395610574	-3.8606382052	-1.3016898211	-0.108639
N	 0.3761663432	-2.9547002176	-0.277798518	-0.035035
C	-0.2701614864	-3.2107344217	 0.991349638	-0.345245
H	 1.1267584949	 1.7252746466	-0.9865257362	 0.126571
H	 0.176261377	 0.6813719033	-2.0657367857	 0.135122
H	-0.6237342625	 1.9755227662	-1.1553719602	 0.114208
H	-0.1145297647	 0.8068519058	 0.9943408662	 0.10834
H	-1.0546823416	-0.2477160477	-0.0797184621	 0.09962
H	 1.9923831647	-1.1353950916	-2.4759166283	 0.095957
H	 1.4851061262	-3.6942037443	-3.2670193177	 0.091859
H	 0.1748261582	-4.8704039721	-1.1996555698	 0.108632
H	 0.0435025275	-2.4462183113	 1.703219589	 0.154319
H	-1.362972931	-3.1867512448	 0.9049864436	 0.129947
H	 0.0277886931	-4.1915886247	 1.371518699	 0.137119
