17
gdb 92011	2.68561	1.60515	1.29002	4.1338	67.1	-0.2525	-0.0222	0.2303	1003.9283	0.135871	-458.961101	-458.953329	-458.952384	-458.993605	29.618	
O	 0.0716589479	 1.4671866146	-0.034665977	-0.433034
C	 0.1236946516	 0.0548306942	 0.0532866327	 0.094956
C	 0.622590903	-0.4328569609	 1.4380829593	-0.269522
C	-0.6471730414	-0.5527828062	 2.2569184962	 0.037359
O	-1.5225064237	 0.5804572674	 2.0919487341	-0.268691
C	-1.8031095294	-0.6242752729	 1.3528135939	 0.053645
C	-1.3028849104	-0.5688165709	-0.0775976185	-0.166003
C	-2.1797788945	 0.1949866806	-1.0490876507	 0.162512
O	-3.2812660907	 0.6035990495	-0.7878221789	-0.245643
H	-0.489421723	 1.7548497937	 0.7001068184	 0.295179
H	 0.7824695326	-0.2695575666	-0.7550866703	 0.092308
H	 1.1070413491	-1.4142693926	 1.3670589898	 0.109014
H	 1.3453663735	 0.2745099369	 1.8541229564	 0.125398
H	-0.6467498262	-0.9927510102	 3.2501961151	 0.105614
H	-2.7393035176	-1.1110832975	 1.6046382063	 0.115395
H	-1.2138064675	-1.5968825895	-0.4633050145	 0.104496
H	-1.7326949435	 0.3391978005	-2.0567206624	 0.087016
