19
gdb 65271	2.84892	1.51378	1.27689	0.2888	70.18	-0.2475	0.0894	0.3369	1060.2141	0.158823	-460.142761	-460.134107	-460.133163	-460.176693	31.687	
C	-0.0159711283	 1.5218617005	-0.1009606474	-0.470454
C	-0.1622413126	 0.020999502	-0.0183970522	 0.368136
C	 0.9983128146	-0.8691809133	-0.14872246	-0.22092
O	 0.4176349838	-0.6041586487	 1.1359581418	-0.278558
C	-1.5495078679	-0.5142574599	-0.3815220138	 0.140886
O	-1.6165751281	-1.9178159268	-0.2864448793	-0.266117
C	-2.232418423	-2.2564981687	 0.9576649579	-0.08828
C	-2.6202254736	-0.8999329638	 1.5779000539	-0.111308
O	-2.5403528134	 0.0056010729	 0.4784225316	-0.255397
H	 0.9794604872	 1.8275181095	 0.228989551	 0.12706
H	-0.1652923313	 1.8707506576	-1.1287727374	 0.121719
H	-0.7638435441	 2.008427115	 0.5312287481	 0.14199
H	 0.8561420159	-1.8821498435	-0.515008321	 0.126738
H	 1.983833024	-0.4334163996	-0.30732437	 0.109544
H	-1.8073691471	-0.2122029897	-1.4050773224	 0.093019
H	-3.1043705267	-2.8869034696	 0.7507763787	 0.107155
H	-1.5290571907	-2.8082327422	 1.5881805418	 0.117476
H	-3.6431789742	-0.8741097723	 1.9605935054	 0.114357
H	-1.9242956845	-0.6129289393	 2.3734144333	 0.122952
