14
gdb 3125	5.41043	2.25869	1.86487	3.1305	59.07	-0.2489	-0.0278	0.2211	688.6995	0.113991	-324.545574	-324.539374	-324.53843	-324.575624	22.954	
O	-0.5229738475	 0.650139749	 0.6705374332	-0.267755
C	 0.2216213423	 0.9333061591	-0.2378245442	 0.085619
C	 1.3533802839	 1.8668003517	-0.1100431631	 0.240048
C	 1.7812613283	 2.6322187672	 1.147211405	-0.303703
C	 2.0955484934	 3.8795842052	 0.2576042125	-0.235093
C	 1.6650776096	 3.0848509784	-0.9843629517	-0.072108
N	 2.3946138454	 1.8506526557	-1.1391245433	-0.346821
H	 0.098309002	 0.5171852164	-1.2612077253	 0.082603
H	 0.9464352429	 2.7978435932	 1.8292825492	 0.136431
H	 2.6117460201	 2.18908015	 1.7049146845	 0.105023
H	 1.4370525778	 4.7225440529	 0.4757732745	 0.120452
H	 3.1300094759	 4.2375293551	 0.2407910881	 0.106793
H	 1.1155960739	 3.4606142667	-1.8402344722	 0.112241
H	 3.3289053918	 1.8780121892	-0.7338980872	 0.236271
