13
gdb 21049	3.70845	1.89548	1.26552	1.8303	57.9	-0.2098	0.0044	0.2142	894.3614	0.095968	-431.91801	-431.910449	-431.909505	-431.949929	26.919	
C	 0.0786303046	 1.3125946241	 0.0087774794	-0.305753
N	-0.0206139606	-0.1269312566	 0.001510794	 0.132666
N	 0.0321302019	-0.8376421413	-1.1301021392	-0.32751
C	 0.1004508918	-2.094689839	-0.7143098941	 0.306353
O	 0.1388414134	-3.1640308136	-1.5318385574	-0.425287
C	 0.1078760967	-2.1023146621	 0.6946866022	 0.306337
O	 0.1548157111	-3.1804395931	 1.5001469609	-0.42529
N	 0.0440035563	-0.8498448406	 1.1247541379	-0.327482
H	 1.1235436613	 1.6445147647	 0.0041831134	 0.14089
H	-0.4237833778	 1.6963867236	-0.8798747127	 0.154312
H	-0.4127999545	 1.6864709573	 0.9077272153	 0.154339
H	 0.122981968	-2.8350917946	-2.4388174457	 0.308213
H	 0.1485295478	-2.8613352288	 2.4107487058	 0.308212
