19
gdb 41473	3.19654	1.64321	1.33678	2.1598	74.2	-0.2435	0.0649	0.3084	996.4665	0.161421	-422.996149	-422.989072	-422.988127	-423.027556	28.452	
C	 0.1428994668	 1.5663550874	 0.4226521248	-0.236457
C	 1.5893668144	 1.5467575679	-0.1761748375	-0.339233
C	 1.3701812109	 0.0857664165	-0.6118428257	 0.295847
C	 1.8323439532	-0.5748172045	-1.8916943689	-0.1961
O	 1.5514982405	-1.9590583509	-1.7066530345	-0.252313
C	 1.8427816603	-2.2674575986	-0.3447250312	-0.103645
C	 1.4779089761	-1.0254985517	 0.4679366318	 0.063431
O	 0.0744346672	-0.9213167577	 0.8027979545	-0.308045
C	-0.1099897529	 0.1424977213	-0.1497954064	 0.080388
H	 0.0884403053	 1.5920140472	 1.5128471206	 0.115359
H	-0.5046444325	 2.3465572538	 0.0160812361	 0.104929
H	 1.6975685968	 2.2249467309	-1.0276431234	 0.107811
H	 2.4179472972	 1.7312216089	 0.5129289635	 0.102582
H	 1.2945434875	-0.244143853	-2.7851886311	 0.111489
H	 2.9114984452	-0.4021642537	-2.0526863704	 0.088446
H	 1.2609746742	-3.1475217931	-0.0602371074	 0.122493
H	 2.9162448085	-2.4863865396	-0.2177317791	 0.086864
H	 2.12022618	-0.8729184404	 1.3419855344	 0.076047
H	-0.9799419886	-0.0163034207	-0.79194334	 0.080109
