18
gdb 29811	2.52548	1.31347	0.87351	4.667	86.61	-0.2194	-0.0402	0.1791	1313.137	0.147246	-402.006743	-401.997504	-401.996559	-402.041343	32.646	
C	-0.0865386788	 1.4385478725	 0.0353855769	-0.344298
N	-0.0263348861	-0.0120166565	 0.0289866513	-0.060411
C	-0.0513321755	-0.783497002	-1.0923492989	-0.169405
C	 0.0227296256	-2.1253476184	-0.7418912375	 0.26821
C	 0.0231215797	-3.2894820371	-1.6875290945	-0.498802
C	 0.0958447461	-2.1554813432	 0.6645036285	-0.311597
C	 0.0650338676	-0.8461344633	 1.1337948696	 0.213445
C	 0.1148439455	-0.3697437217	 2.5002003038	 0.067168
O	 0.194854079	-1.0891692302	 3.4768403844	-0.291333
H	 0.8096858159	 1.8711103143	 0.4897935764	 0.150004
H	-0.1537806653	 1.7873308622	-0.9962994355	 0.143717
H	-0.9647324238	 1.79707237	 0.5804104642	 0.150001
H	-0.1203159198	-0.3272255179	-2.0690391851	 0.125519
H	 0.9359891139	-3.8877944771	-1.5912432528	 0.132072
H	-0.822009409	-3.9615041338	-1.5012134817	 0.132072
H	-0.0441217849	-2.955185309	-2.7268955471	 0.119348
H	 0.1647304992	-3.0240725029	 1.3018487247	 0.124013
H	 0.0744818808	 0.7371456141	 2.6181143033	 0.050276
