19
gdb 68262	2.35135	1.50092	1.43839	3.5034	80.43	-0.2515	0.0254	0.2769	1054.1619	0.159013	-382.026787	-382.018128	-382.017184	-382.059539	33.397	
C	 0.0268608661	 1.4840998161	 0.0569144251	-0.520407
C	 0.0390342578	-0.012758459	-0.0316713469	 0.303768
C	 0.6785198661	-0.9399073114	-1.1085412039	-0.299017
C	 0.0944223262	-1.8491770759	-0.0000241217	-0.057543
N	 0.6234120347	-0.9035201617	 1.0629674213	-0.366
C	-1.2134335412	-0.9838628589	 0.0013463458	 0.195537
C	-2.1114868514	-0.9925184632	 1.2379523835	-0.477622
C	-2.0201790399	-1.0211020956	-1.2143158546	 0.214697
N	-2.6963430249	-1.0405972686	-2.1526102578	-0.353882
H	 1.0472358117	 1.8816574294	 0.0503255392	 0.128502
H	-0.5100845468	 1.9124254633	-0.7952018915	 0.142414
H	-0.4619141833	 1.8130305938	 0.9789616129	 0.138244
H	 0.2349611309	-0.9710077916	-2.1067617737	 0.13141
H	 1.7705645914	-0.9080709034	-1.1521462997	 0.095572
H	 0.1550644924	-2.9323520665	 0.1083274138	 0.095875
H	 1.6447672484	-0.8748982886	 0.9921814809	 0.209603
H	-1.4972513841	-0.9700498337	 2.1370957852	 0.155836
H	-2.7791128898	-0.1254730578	 1.2324438855	 0.130762
H	-2.7371553545	-1.8899933469	 1.2486415665	 0.132253
