14
gdb 128664	5.57816	0.97896	0.83721	4.152	69.01	-0.2527	-0.0597	0.1931	1294.2805	0.101511	-470.032048	-470.02411	-470.023166	-470.06523	27.474	
C	-0.0037667701	 1.3725303639	-0.0057683296	-0.235085
O	 0.026013029	-0.0575204458	-0.0457200494	-0.241592
C	 0.6230344377	-0.6100572672	-1.0913490754	 0.487602
N	 0.695293151	-1.9214191386	-1.2041847684	-0.317697
N	 1.3686790552	-2.0543761768	-2.3894473295	-0.020176
C	 1.7046179239	-3.2888428557	-2.9675604445	 0.193471
O	 1.4466545309	-4.3577735634	-2.5010442215	-0.244746
C	 1.6506789401	-0.8202240133	-2.9000438974	 0.035201
N	 1.1976365647	 0.1186047679	-2.1119085185	-0.353906
H	 1.0088710382	 1.7846181217	 0.0111588321	 0.141869
H	-0.5386176993	 1.7770478585	-0.869358177	 0.141955
H	-0.5290306039	 1.6248725745	 0.9153043195	 0.141886
H	 2.2435599205	-3.1266429176	-3.9192513457	 0.105442
H	 2.1785457722	-0.678409418	-3.8318568047	 0.165777
