19
gdb 38792	2.64591	2.34311	1.91495	1.4257	76.24	-0.2377	0.0733	0.311	830.5518	0.163331	-385.853842	-385.848045	-385.847101	-385.883544	26.049	
C	-0.0229436262	 1.5646980984	 0.1091672306	-0.258687
C	 1.5341126398	 1.5475903811	-0.0099398266	 0.083753
O	 2.0534828521	 1.7881722346	-1.305414926	-0.255534
C	 1.845492782	 0.6501320912	-2.1224146135	 0.083753
C	 0.3757046444	 0.4157170374	-2.5953592	-0.258688
C	 0.1742650877	-0.5879129979	-1.4351482554	-0.044778
C	-0.0371568954	 0.0214433445	-0.0008196386	-0.044778
C	 1.5151891804	-0.0003467711	 0.2203428253	-0.056698
C	 1.7224624886	-0.5977491392	-1.1858529311	-0.056695
H	-0.3230945549	 1.8813421232	 1.1130474208	 0.098543
H	-0.5713139432	 2.160970748	-0.6244905372	 0.101139
H	 2.08057253	 2.1894596089	 0.6836432642	 0.077471
H	 2.6091466688	 0.6660089284	-2.90232023	 0.077471
H	-0.2706298786	 1.2943476884	-2.6643861398	 0.101139
H	 0.3655498176	-0.1034782973	-3.5589262474	 0.098544
H	-0.4012144753	-1.4915520594	-1.637347045	 0.064034
H	-0.7355578642	-0.5279174202	 0.6308949388	 0.064034
H	 2.0155370731	-0.4205046164	 1.0910529263	 0.062989
H	 2.3744642333	-1.4550097628	-1.3440140055	 0.062989
