14
gdb 99441	3.38501	0.75428	0.63175	3.1001	85.52	-0.267	-0.0483	0.2187	1680.6168	0.097561	-399.47772	-399.468113	-399.467169	-399.512972	33.033	
C	 0.1539052065	 1.4031105781	 0.0910085863	-0.246206
O	-0.1632048861	 0.0303975965	-0.0965347746	-0.226051
C	 0.5427726436	-0.5688555091	-1.1586232048	-0.241085
C	 1.9972607887	-0.6735215992	-0.8578903049	 0.28684
N	 3.1260107354	-0.7123423176	-0.6165021788	-0.320377
C	-0.0185897898	-1.8876325925	-1.4331258072	 0.351696
C	-0.4823627137	-2.9705384688	-1.6996170919	-0.100111
C	-1.0043143504	-4.1928122087	-1.9885346956	 0.287866
C	-1.4681709485	-5.2764796667	-2.2469652326	-0.548621
H	 1.2070278825	 1.5422250319	 0.3673015497	 0.140415
H	-0.0594526731	 1.988514578	-0.8151621591	 0.118124
H	-0.481807639	 1.7544875639	 0.9046612759	 0.147319
H	 0.457254847	 0.0498437256	-2.0705035225	 0.14701
H	-1.874554673	-6.2319405914	-2.47115991	 0.203179
