21
gdb 52673	2.67691	1.01128	0.8184	1.5612	86.89	-0.2415	0.0565	0.298	1486.8329	0.17934	-387.055245	-387.044488	-387.043544	-387.092413	38.81	
C	 0.1002069475	 1.5025177622	 0.2522340542	-0.499465
C	 0.0322119444	 0.0540425538	 0.1136923656	 0.056705
C	-0.0194281413	-1.145237946	 0.0087419181	 0.068189
C	-0.1154816004	-2.5985857983	-0.1193466785	-0.21391
C	-1.5823364411	-3.0297369409	-0.3377040811	-0.402183
C	 0.7973574798	-3.1694684272	-1.2159340452	 0.424966
O	 0.8035199774	-4.5756879864	-1.2344450097	-0.466577
C	 0.9825783378	-2.4586627742	-2.53118306	-0.323931
C	 2.122035816	-2.5516599587	-1.5305752099	-0.306305
H	 0.7501930694	 1.9457790719	-0.5102822454	 0.147853
H	-0.8899235015	 1.960095379	 0.1483008048	 0.147195
H	 0.4967369526	 1.7908632662	 1.2321009385	 0.148197
H	 0.2285803881	-3.052172177	 0.821068107	 0.10994
H	-2.2174862994	-2.6549062604	 0.468391329	 0.12558
H	-1.9646019602	-2.6343743506	-1.2838737482	 0.122719
H	-1.6622459153	-4.1208994156	-0.3499831299	 0.108494
H	 0.0065968155	-4.8708895569	-1.687235586	 0.282372
H	 1.0470334222	-3.0771417726	-3.419641924	 0.107362
H	 0.5062331866	-1.4944571993	-2.6680914656	 0.121242
H	 2.4082096999	-1.6498545117	-1.0029549782	 0.12348
H	 2.9270440821	-3.2416770172	-1.7541213254	 0.118077
