16
gdb 14346	5.01199	1.57733	1.3438	2.5965	67.13	-0.2431	0.0032	0.2463	908.5793	0.131161	-383.695797	-383.688886	-383.687942	-383.726817	26.636	
O	-0.0018998382	 1.4516762434	 0.0273770519	-0.424519
C	 0.04814799	 0.0338624277	-0.0377611786	 0.094914
C	-1.4129502347	-0.5124108788	-0.0883445323	-0.264183
C	-1.2711994126	-1.784221771	-0.9351812553	 0.105271
O	-2.0376212248	-2.005848703	-2.1720059967	-0.307323
C	-0.8005227598	-2.1234312409	-2.9439310927	-0.154608
C	-0.0699795869	-1.5112197554	-1.7766270675	 0.193013
C	 0.6472802592	-0.4780047983	-1.3578404674	-0.244465
H	 0.8640279217	 1.7739753055	 0.2953097965	 0.284631
H	 0.5815675426	-0.3588121655	 0.8425550621	 0.074122
H	-1.8514621083	-0.6621323583	 0.9012909647	 0.09817
H	-2.0095176606	 0.2250062224	-0.6337633367	 0.134297
H	-1.2846299053	-2.7050955264	-0.3375561741	 0.079803
H	-0.5737501808	-3.1750166536	-3.1635033299	 0.108171
H	-0.8235197228	-1.5488452237	-3.8756621806	 0.122573
H	 1.4390431013	 0.0519977462	-1.8743251433	 0.100134
