20
gdb 106146	2.48165	1.54178	1.23171	1.9478	78.93	-0.2154	0.0729	0.2883	1114.271	0.170893	-403.072913	-403.064402	-403.063458	-403.105906	33.08	
C	 0.0872281339	 1.4534507324	 0.2675078072	-0.381814
C	-0.0226586384	-0.0256998408	-0.1259165398	-0.330266
C	-1.4130553698	-0.5537792777	-0.0442475872	 0.351481
C	-2.397379235	-0.8722687373	 1.0605174514	-0.208116
C	-3.3992352905	 0.0626972119	 0.4204847748	-0.180841
N	-2.6285803687	-0.0607523177	-0.8843824595	-0.205393
C	-2.8811870155	-1.5112457872	-1.2567570597	-0.239231
C	-2.0483110935	-1.9054544129	-0.0501872452	 0.299826
O	-1.412157249	-3.0966219178	 0.2283345325	-0.466405
H	 1.1160653023	 1.8110842544	 0.1643153435	 0.110609
H	-0.5529513494	 2.0684817174	-0.3719516947	 0.134921
H	-0.2231986927	 1.6083550774	 1.3059458067	 0.114962
H	 0.352357733	-0.1640183588	-1.1485242576	 0.109544
H	 0.6130624915	-0.6428626965	 0.5209902099	 0.113621
H	-2.1856528183	-1.0958695183	 2.1000030355	 0.086528
H	-4.4522421816	-0.2350847278	 0.35115516	 0.09241
H	-3.3358214468	 1.0915246172	 0.7856593786	 0.10864
H	-3.94013318	-1.7888606197	-1.3200989922	 0.090261
H	-2.3806946878	-1.7392968621	-2.2016514721	 0.111234
H	-2.0190263037	-3.6636886358	 0.717041188	 0.288031
