21
gdb 98412	2.20712	1.24273	1.03084	1.3488	79.21	-0.2416	-0.0198	0.2219	1315.4363	0.178274	-424.241261	-424.23058	-424.229636	-424.277213	38.182	
C	 0.3671275452	 1.5650673382	-0.0346510758	-0.383676
C	 0.7201657154	 0.0840044133	 0.0650394381	-0.276425
C	 0.3246301507	-0.5397001721	 1.3904434542	 0.294519
O	-0.3193746644	 0.050878486	 2.2295655276	-0.315372
C	 0.7003384854	-1.9949141662	 1.6270979496	 0.294439
C	-0.4645887853	-2.8704809839	 2.0361082766	-0.466215
O	 1.6355472924	-2.5669328741	 0.6999730511	-0.293825
C	 2.0759661235	-2.3436794687	 2.0446124086	 0.050301
C	 3.1982994397	-1.3659526431	 2.2814277385	-0.43234
H	 0.900450125	 2.1477510818	 0.7217300315	 0.126433
H	 0.6301880122	 1.9585541663	-1.0203145443	 0.110858
H	-0.7012745369	 1.7237979206	 0.1306334245	 0.133236
H	 0.2143444463	-0.5032749466	-0.716051128	 0.131739
H	 1.7831543436	-0.1061005867	-0.1161891145	 0.134222
H	-1.1981276498	-2.9395947331	 1.2257566677	 0.127606
H	-0.1218399732	-3.8801020076	 2.2742938802	 0.124964
H	-0.9616300218	-2.4371110277	 2.9071875097	 0.149666
H	 2.1630094794	-3.2661539786	 2.6235862455	 0.092813
H	 3.056385607	-0.4265450573	 1.7443401298	 0.129567
H	 3.2753812025	-1.1413163284	 3.3503156659	 0.134015
H	 4.1498232032	-1.8028618722	 1.9609189034	 0.133475
