17
gdb 28790	3.17239	1.64363	1.10863	5.0348	74.35	-0.1945	0.0441	0.2386	1067.0711	0.138847	-418.047512	-418.039895	-418.038951	-418.079793	28.236	
C	 0.0079325264	 1.5079153928	 0.0768182823	-0.49967
C	-0.0161024186	 0.0217584906	-0.001847982	 0.236717
C	-0.1147831256	-0.8519437204	-1.0540111876	-0.165918
N	-0.0798278544	-2.1883290167	-0.6492584958	-0.393043
C	 0.0427169296	-2.0878712626	 0.6367961794	 0.477077
O	 0.0566196627	-3.0099106161	 1.6268109255	-0.26803
C	 0.3605417944	-2.2890181339	 2.8395357747	-0.099207
C	 0.0628018484	-0.7864675101	 2.5518812096	-0.208344
N	 0.1139694963	-0.8159563673	 1.1071364202	-0.099914
H	 0.9434642629	 1.8877164689	 0.5070938022	 0.126105
H	-0.0876143734	 1.9274203434	-0.927623125	 0.141725
H	-0.8150441123	 1.9099095666	 0.6815371299	 0.12516
H	-0.1954761345	-0.5982359266	-2.1006049109	 0.105233
H	-0.2495229108	-2.7016664776	 3.644015028	 0.133946
H	 1.4201611098	-2.4353531007	 3.0764457771	 0.128491
H	-0.9246409679	-0.4771515693	 2.9169412223	 0.128531
H	 0.8188413371	-0.132529741	 2.99465987	 0.131139
