16
gdb 26437	4.29823	1.11987	0.89346	5.0704	74.64	-0.2091	0.0001	0.2092	1232.6238	0.125916	-434.127287	-434.11903	-434.118086	-434.161004	29.863	
C	-1.3443735084	 0.5058525476	 0.3824497987	-0.375529
N	-0.0673601607	-0.0988079233	 0.0396234263	-0.200077
C	 0.997864263	 0.0177568339	 0.9180474893	 0.156764
O	 0.9326648188	 0.603695148	 1.9751269999	-0.335098
C	 0.0811218816	-0.7887056603	-1.1618445667	 0.528987
N	 1.1761315243	-1.3728935673	-1.5870498604	-0.346159
C	 0.8417531954	-1.9173271237	-2.8101680805	-0.078964
C	-0.4607808904	-1.6581233706	-3.1203338235	-0.118711
N	-0.9489219236	-0.9252634389	-2.0464314524	-0.334774
H	-1.6347528467	 1.2621836877	-0.3561483615	 0.131997
H	-2.1339409663	-0.251325278	 0.4548399366	 0.131888
H	-1.2180101572	 0.9840906503	 1.3531318281	 0.183889
H	 1.8964483529	-0.4841047417	 0.5340963719	 0.140697
H	 1.5681064991	-2.4643506023	-3.3908299891	 0.11492
H	-1.0814939828	-1.9060444149	-3.9639540612	 0.132108
H	-1.882929009	-0.5681195565	-1.9478126254	 0.268063
