16
gdb 127315	4.54023	0.96265	0.80118	4.8578	76.3	-0.2279	0.0052	0.2331	1381.7483	0.125033	-434.082309	-434.073718	-434.072774	-434.116998	29.854	
C	-0.0957561352	 1.3746673684	 0.1051175704	-0.317256
N	-0.0017507436	-0.0639989171	 0.0055105199	 0.052063
C	 0.2309643215	-0.8158924413	-1.0948621093	-0.001001
C	 0.2246894602	-2.1386642916	-0.7019383865	-0.367793
C	-0.0271295336	-2.0657646561	 0.6805169759	 0.479981
O	-0.1390607627	-3.1543986268	 1.487047663	-0.220138
C	-0.0169773482	-2.984596715	 2.834031911	 0.114395
N	-0.2559339813	-3.9666870235	 3.5857979182	-0.434165
N	-0.1723867631	-0.821026725	 1.1159368648	-0.370108
H	 0.0592686703	 1.8052544559	-0.8855100326	 0.140443
H	-1.0821620331	 1.6672964419	 0.4755353991	 0.151852
H	 0.6658735204	 1.760277713	 0.7887307227	 0.149221
H	 0.3817185055	-0.3617481347	-2.061725026	 0.138355
H	 0.3788458047	-3.0180190568	-1.3029241534	 0.121703
H	 0.2961239046	-1.9764809204	 3.1129016727	 0.129803
H	-0.0973901964	-3.6999330411	 4.55574059	 0.232645
