20
gdb 121317	2.71307	1.12425	0.92834	4.3751	75.65	-0.2333	0.0114	0.2446	1346.3335	0.172058	-440.322112	-440.313041	-440.312097	-440.356587	33.035	
C	 0.2482799084	 1.5134529108	-0.0975614875	-0.390641
C	 0.145825606	-0.005413877	-0.0072857501	-0.114527
N	 0.5860988714	-0.6255226117	-1.2605731778	-0.309957
C	 0.510014593	-2.0866249777	-1.2784509768	-0.103594
C	 0.8620379539	-2.6318342541	-2.6642935565	-0.268188
C	 2.3952691108	-2.680913381	-2.6115402635	-0.065404
O	 2.7158518687	-2.9487920542	-1.2361283651	-0.217564
C	 1.676123414	-2.6242060509	-0.4258979075	 0.465077
O	 1.7281632898	-2.7391372204	 0.7650430371	-0.345722
H	 1.2755477164	 1.8192343216	-0.3151962542	 0.128484
H	-0.3975300003	 1.9102359869	-0.8902566138	 0.107278
H	-0.0616707503	 1.9769863008	 0.8434096638	 0.119875
H	 0.7843226962	-0.3803812529	 0.7975273584	 0.14071
H	-0.8874025865	-0.2992754468	 0.2548582312	 0.079367
H	 0.0192647901	-0.2659000201	-2.0231930786	 0.213921
H	-0.4388229968	-2.4809702853	-0.8823778767	 0.082053
H	 0.4526635061	-3.6391077617	-2.7854047054	 0.120175
H	 0.4885344145	-2.0108696548	-3.4826594173	 0.108449
H	 2.8337862847	-3.4766936804	-3.2167859624	 0.122389
H	 2.84227739	-1.7223882012	-2.8926278972	 0.127817
