21
gdb 79241	2.34529	1.62112	1.3686	1.3377	82.02	-0.2302	0.0672	0.2974	1079.6935	0.181505	-387.043685	-387.034799	-387.033855	-387.076446	35.082	
C	-0.0130809075	 1.5603735311	 0.0093430522	-0.42607
C	 0.1370582361	 0.0433149997	 0.0026341731	 0.00647
C	 1.2141051844	-0.6363050011	-0.8418741645	-0.175721
C	 2.5003152767	-0.7313250673	 0.0384942534	-0.115727
C	 2.177054796	-0.1055766592	 1.3916916704	-0.275107
C	 0.7521120457	-0.7146676146	 1.2304595816	 0.22527
C	-0.088032961	-1.0708299763	 2.4280289002	-0.507946
C	 1.3999275305	-1.7345600511	 0.1700564162	 0.335816
O	 1.4597214082	-3.1029378369	 0.0941715061	-0.453653
H	 0.9445046798	 2.0694826748	 0.1470808201	 0.119444
H	-0.432384091	 1.9083030219	-0.9413941886	 0.111986
H	-0.6905396439	 1.8885917511	 0.8062057021	 0.111
H	-0.8338986247	-0.4169303125	-0.2234637021	 0.057598
H	 1.2941318001	-0.6978093007	-1.920527179	 0.079469
H	 3.464431567	-0.8734064487	-0.4325000012	 0.085943
H	 2.7256151925	-0.6064653793	 2.1952446737	 0.098177
H	 2.2600341928	 0.9788528409	 1.5201096254	 0.085931
H	-0.3830582425	-0.1728251954	 2.9847207699	 0.118696
H	-1.0065224534	-1.5924696302	 2.1346752917	 0.108245
H	 0.4589121227	-1.7224433023	 3.1180231565	 0.121574
H	 0.6185106315	-3.4285187638	-0.2455727275	 0.288603
