18
gdb 69204	2.61686	1.69244	1.21695	4.429	78.15	-0.2414	-0.0402	0.2012	1051.9244	0.148327	-401.966292	-401.958338	-401.957394	-401.998835	30.774	
C	-0.125963667	 1.4401328792	 0.1682040418	-0.456484
C	-0.0258579017	-0.0499306683	-0.0899026481	 0.31182
C	 0.8965804175	-0.5368420435	-1.1713339107	-0.288603
N	 1.2745667359	-0.6317915361	 0.2334310032	-0.131825
C	 1.3848741934	-1.8656794565	 0.8939568957	 0.359001
O	 2.3437270585	-2.5925563176	 0.7525957693	-0.340419
C	 0.2380043441	-2.2052656067	 1.7725852805	-0.145874
C	-0.9910462215	-1.7776259888	 1.4729751705	-0.051892
C	-1.2661052589	-0.8591240859	 0.3069664526	-0.360113
H	 0.819147732	 1.9367443032	-0.0643371533	 0.131536
H	-0.917188496	 1.8873335525	-0.4436319312	 0.119795
H	-0.3610247036	 1.6336654906	 1.2206229525	 0.126323
H	 0.6525039467	-1.4654391541	-1.6824462666	 0.126661
H	 1.4578118214	 0.1778026529	-1.7678287742	 0.123215
H	 0.4317597312	-2.9179076495	 2.5661183527	 0.116506
H	-1.8487635529	-2.1257225735	 2.0438156869	 0.109179
H	-2.0766632249	-0.1705024827	 0.5682436031	 0.121411
H	-1.6487639542	-1.4529489153	-0.5338182445	 0.129762
