14
gdb 44903	4.36673	1.18653	1.12568	1.4842	66.13	-0.2872	-0.0251	0.2621	1049.5943	0.102732	-436.708644	-436.701897	-436.700953	-436.739998	25.868	
O	-0.014773949	 0.0649231658	 0.0387570078	-0.329827
C	 0.0537258653	 1.2522830545	 0.0166931008	 0.452955
O	-1.0370960897	 2.1017405441	 0.0469697212	-0.239531
C	-0.4084463175	 3.40577058	-0.0154361587	 0.098717
C	 0.6598215136	 3.2231242585	-1.1143078288	-0.264444
C	 1.2288564116	 2.2222027932	-0.0486034516	-0.187533
C	 0.7280830353	 3.2480570572	 1.0500357475	-0.175867
C	 1.5818077112	 4.4029010237	 1.2554456146	 0.275453
N	 2.2572280573	 5.3257542985	 1.4253964884	-0.317466
H	-1.1603602323	 4.1890945284	 0.0157970704	 0.125095
H	 0.3222248268	 2.8154255795	-2.0679086707	 0.136334
H	 1.2978502166	 4.0955738281	-1.2553373768	 0.153541
H	 2.2287826947	 1.8005677408	-0.0606565838	 0.125638
H	 0.4151670564	 2.8285800478	 2.0092288697	 0.146934
