17
gdb 33111	6.55862	0.78622	0.70878	1.1512	72.2	-0.203	0.0347	0.2377	1560.8347	0.136019	-455.166146	-455.157155	-455.15621	-455.200639	31.98	
C	 0.0170193849	 1.3848526719	-0.011072837	-0.221334
O	 0.009610917	-0.0218234444	 0.0156326371	-0.234053
C	 0.6282490746	-0.5915101365	-1.1149307655	-0.170464
C	 0.5636846021	-2.0762868463	-1.0042703872	 0.230876
C	 0.0110968061	-2.8361238962	-0.0376803192	-0.119061
O	 0.2087403552	-4.1650997209	-0.3891345209	-0.185828
C	 0.8773932596	-4.0960180151	-1.5577235937	 0.451333
N	 1.1536649427	-5.2866858153	-2.1821233259	-0.589391
N	 1.1280661679	-2.8962220822	-1.9841036043	-0.393452
H	 1.0421121205	 1.787797523	-0.0323888946	 0.105464
H	-0.5240360912	 1.7798918739	-0.8855660684	 0.106051
H	-0.4799244174	 1.7315674532	 0.8980331451	 0.127371
H	 0.1311266501	-0.2632126962	-2.0446203953	 0.105381
H	 1.6807558855	-0.2675051093	-1.1956026352	 0.103995
H	-0.5085156551	-2.6498722653	 0.8830264998	 0.148964
H	 1.2886049431	-6.0685074654	-1.5579572646	 0.264038
H	 1.8736592544	-5.2025140388	-2.8841350803	 0.27011
