15
gdb 17728	4.53794	2.62441	2.10879	1.2236	63.25	-0.2288	0.0508	0.2797	664.4964	0.120457	-362.518522	-362.51323	-362.512286	-362.547508	22.524	
C	-0.0071159215	 1.5003287529	 0.0106672086	-0.153851
C	 1.5610273568	 1.7901596115	-0.1052445657	-0.371645
C	 1.8975593128	 0.3230818919	-0.1079587579	 0.468493
O	 2.9288400136	-0.7027041322	-0.1665570122	-0.399021
C	 1.6260010234	-1.4494042707	-0.062921087	 0.007614
C	 0.996608237	-0.4245500484	 0.8994431971	-0.064469
N	-0.179091075	-0.0103596303	 0.044814548	-0.176311
C	 0.8644624679	-0.4514361896	-0.9555184755	-0.06447
H	-0.4304110349	 1.9260983745	 0.9233253491	 0.116428
H	-0.5563569136	 1.9004710093	-0.8446831784	 0.116428
H	 1.824359562	 2.3159528794	-1.0255210378	 0.117805
H	 1.9510518132	 2.3417208443	 0.7528770987	 0.117805
H	 1.6943358537	-2.5351394098	-0.052054018	 0.104758
H	 1.0081422039	-0.3805944339	 1.9880575518	 0.090218
H	 0.7214968905	-0.4389134589	-2.0355880109	 0.090218
