21
gdb 90061	2.49142	1.72769	1.45794	1.5143	84.07	-0.2205	0.0648	0.2853	1020.9046	0.18233	-386.964634	-386.956507	-386.955563	-386.996444	33.599	
C	-0.0979287482	 1.5092908158	-0.0912345157	-0.478484
C	 0.0202985107	-0.0115722461	-0.0598084955	 0.335652
C	-1.33475086	-0.6298183115	 0.5109503576	 0.030663
O	-1.8924306124	-1.7389766712	-0.1557196911	-0.418918
C	-0.5695982359	-0.9051323116	 1.894469365	-0.38374
C	 0.7247305765	-0.7930597426	 1.0702874248	 0.273441
C	 2.0909590823	-0.1910130006	 0.6171750414	-0.325503
C	 1.3060116624	-0.6498696373	-0.7067334802	-0.134138
C	 0.9970760684	-1.9512774438	 0.048052078	-0.249778
H	 0.846882473	 2.0040016514	-0.3283256068	 0.116386
H	-0.8166322212	 1.7980338579	-0.8681853225	 0.118214
H	-0.4652955206	 1.928045607	 0.8539870792	 0.110131
H	-2.0903362802	 0.1617398806	 0.6077622621	 0.069015
H	-2.6654054204	-2.0260900463	 0.3419431981	 0.285024
H	-0.7424651591	-0.0885694704	 2.6016180368	 0.103873
H	-0.767131326	-1.8616875122	 2.3879276657	 0.095854
H	 2.2467616461	 0.8769568474	 0.7732507274	 0.097374
H	 3.0022327776	-0.7563214752	 0.8364549534	 0.09055
H	 1.6824301046	-0.5474953791	-1.7304678679	 0.061995
H	 1.8535239923	-2.5868638931	 0.2909875635	 0.076546
H	 0.1438000199	-2.5308990992	-0.2922780532	 0.125845
