19
gdb 104863	2.18889	1.2647	1.20901	1.1769	66.55	-0.2452	0.0532	0.2985	1165.4812	0.157789	-497.261756	-497.252096	-497.251152	-497.296737	35.304	
O	-0.206494998	 1.4794805108	-0.5255719712	-0.43548
C	-0.1842940294	 0.075636926	-0.2807037775	-0.108036
C	-1.5882178045	-0.4722590288	-0.042291199	 0.310973
C	-2.3892360773	 0.4081745954	 0.924167322	-0.127379
O	-1.6185542829	 0.8900171165	 2.0089202315	-0.426041
O	-2.3303279111	-0.58790643	-1.2935920017	-0.33299
C	-2.2324310747	-2.030031483	-1.2746767791	-0.08879
C	-1.6384905447	-2.0199243104	 0.1393620039	 0.005982
O	-0.4270123438	-2.7281079224	 0.2364787715	-0.419979
H	-0.7498137297	 1.6186591976	-1.3099549065	 0.295386
H	 0.2947323191	-0.4697004129	-1.1022602856	 0.110396
H	 0.4233951906	-0.0678195166	 0.6164500944	 0.114152
H	-2.8290764409	 1.2257936394	 0.3365656871	 0.099469
H	-3.220003908	-0.1653495984	 1.3492100358	 0.104833
H	-1.0305357809	 1.5580477126	 1.6348775683	 0.297711
H	-3.207226062	-2.5085953176	-1.4122184776	 0.109917
H	-1.5249307722	-2.4129176647	-2.0203828814	 0.112767
H	-2.3468190957	-2.3248945945	 0.9194016872	 0.083005
H	-0.1591897539	-2.7503687692	 1.160526218	 0.294104
