14
gdb 131455	3.13795	1.10094	0.88319	1.6241	64.27	-0.2514	-0.0309	0.2204	1237.9509	0.099918	-473.82399	-473.81589	-473.814945	-473.8583	28.522	
O	 0.0366157681	 1.2988814161	 0.2326758714	-0.419426
C	 0.050726218	-0.0341450169	 0.0726448672	 0.401684
N	 0.0753120991	-0.6032209124	-1.106186143	-0.247823
O	 0.085224265	-1.9748251621	-0.8374119366	-0.169983
C	 0.0618137891	-2.1550549762	 0.4902193278	 0.017319
C	 0.0435786411	-0.968783082	 1.1528558183	 0.03507
C	 0.0017818129	-0.6758725835	 2.6205385566	-0.402311
C	-1.395194224	-0.2758677945	 3.0853189861	 0.161792
O	-1.9371006361	-0.7283051178	 4.0577071116	-0.229257
H	 0.0560592397	 1.7060649586	-0.6439676118	 0.317391
H	 0.0693918712	-3.1810263779	 0.8263720003	 0.161721
H	 0.3305754785	-1.5297814969	 3.2171615085	 0.134756
H	 0.6678077031	 0.1693888664	 2.843513441	 0.145758
H	-1.8881381058	 0.488300359	 2.4443411425	 0.093309
