19
gdb 66320	4.84629	0.64237	0.61726	5.2746	73.82	-0.253	0.0132	0.2662	1790.7174	0.156317	-460.164114	-460.15409	-460.153145	-460.200645	35.14	
O	 0.0724922355	 1.4181077755	-0.2201245367	-0.474941
C	 0.0662586748	 0.0171587617	-0.080173445	 0.436308
C	 1.2902197324	-0.5508853709	-0.7603276074	-0.238389
C	 2.5816587052	-0.0263806888	-0.1362879944	-0.088888
O	 3.7177192203	-0.6376326408	-0.7631298629	-0.17586
C	 4.4904036329	 0.1259594399	-1.5557788644	 0.166887
O	 5.4391980647	-0.3010936523	-2.1421494003	-0.277095
C	-0.455139472	-0.608418087	 1.1877229228	-0.330392
C	-1.2345594183	-0.7342103669	-0.1145681762	-0.335104
H	-0.664086606	 1.7872369263	 0.2762824788	 0.284463
H	 1.2755740976	-1.6430005065	-0.6977461368	 0.116553
H	 1.2695965606	-0.2840318323	-1.8236522828	 0.116304
H	 2.635033176	 1.0636048771	-0.227014926	 0.130892
H	 2.6345600751	-0.2832795006	 0.9257368953	 0.123
H	 4.1526890346	 1.1807874831	-1.5944876129	 0.077925
H	 0.0378523571	-1.4902738087	 1.5834150786	 0.121989
H	-0.8558208778	 0.0510841315	 1.9518169231	 0.111227
H	-2.144739024	-0.1504560982	-0.2115907775	 0.112846
H	-1.2736208988	-1.700661632	-0.6058358551	 0.122276
