18
gdb 86494	2.43626	1.28407	0.9731	2.9481	74.05	-0.235	-0.0398	0.1952	1241.3878	0.144755	-439.069896	-439.060405	-439.059461	-439.105492	32.944	
C	-0.4386080593	 1.5407726574	 0.2102307527	-0.325917
N	-0.1839787953	 0.1183469513	 0.1361457012	-0.067431
C	-1.253557884	-0.8151997981	 0.5281408282	-0.221488
C	-0.1882483526	-1.7531058239	 1.1648002742	 0.084669
C	 0.7418265674	-0.4818228784	 1.1039660907	-0.212737
C	-0.4650028601	-2.2811959211	 2.5550602081	 0.089878
O	-1.3156974758	-1.8297934196	 3.2804764677	-0.25695
C	 0.2995269359	-2.8183806887	 0.2122234569	 0.125062
O	 0.4538990405	-3.9780596901	 0.5015093634	-0.257808
H	 0.4740728912	 2.0932399452	-0.0362293484	 0.126731
H	-1.204156251	 1.8143867205	-0.5229705664	 0.129349
H	-0.7837098788	 1.8678872519	 1.2082573406	 0.102619
H	-1.9234813636	-0.4373747363	 1.3138242935	 0.125797
H	-1.8459730178	-1.2148737719	-0.3020876778	 0.113865
H	 1.7668532075	-0.6289334981	 0.7451205525	 0.118428
H	 0.7684684655	 0.0276880248	 2.0803394124	 0.112885
H	 0.1948297031	-3.1089224704	 2.8800459429	 0.111377
H	 0.5146095172	-2.4377913247	-0.8107054523	 0.10167
