19
gdb 61201	3.39973	0.78665	0.75369	3.1423	78.44	-0.2443	-0.0238	0.2205	1557.1684	0.154439	-422.996873	-422.985991	-422.985047	-423.033931	37.987	
C	-0.1286334236	 1.5648357325	 0.0979410596	-0.434138
C	 0.0052878869	 0.0328643135	 0.0071573795	-0.061829
C	-1.3853720628	-0.5788296575	 0.060571108	 0.142491
O	-1.8369457891	-1.1595831204	 1.014277062	-0.251741
C	 0.7247795822	-0.4468513459	-1.2805333428	 0.109445
O	 0.0980908193	 0.0506625252	-2.4513343788	-0.425591
C	 2.2380364438	-0.1353372246	-1.2497579532	-0.411026
C	 2.9528390006	-0.6674059819	-2.4021374046	 0.308636
C	 3.5380976243	-1.1148219467	-3.3510948699	-0.426683
H	 0.8478926296	 2.0582126066	 0.0810434527	 0.12659
H	-0.7267735989	 1.9584162576	-0.7304167388	 0.127706
H	-0.6241990502	 1.8487451264	 1.0301807537	 0.141301
H	 0.547497573	-0.3422065414	 0.8821410879	 0.094115
H	-1.9801249665	-0.4381655043	-0.8685988768	 0.095331
H	 0.6152662739	-1.5354693712	-1.3491695235	 0.112622
H	 0.3756876293	 0.9629931661	-2.5848093453	 0.287305
H	 2.3867921447	 0.9519345683	-1.1947176105	 0.126244
H	 2.6633014955	-0.5456395716	-0.3252739921	 0.140289
H	 4.0546681083	-1.5103332408	-4.1902412272	 0.198934
