23
gdb 88974	3.20986	0.83055	0.74684	1.2264	86.14	-0.25	0.0812	0.3312	1623.8647	0.204774	-388.25921	-388.249208	-388.248264	-388.294833	37.574	
C	-0.0127085328	 1.5109685443	-0.2009307964	-0.402327
C	 0.1720690678	 0.0139355188	-0.0735836353	-0.006838
C	 1.549879122	-0.5972925798	 0.0313555359	-0.288372
C	 0.6071845254	-0.6557248208	 1.2116741743	 0.021287
C	 0.8856308849	 0.1113351375	 2.4909087991	-0.235513
C	 1.7035402851	-0.6918474145	 3.4849590498	-0.0028
C	 3.2192533561	-0.715436053	 3.4084330198	-0.320202
C	 2.5194408771	-0.0098020883	 4.5441404813	 0.081854
O	 2.4819531882	 1.3900121425	 4.568628054	-0.417832
H	 0.7409384755	 2.0661655252	 0.3644814128	 0.11709
H	 0.0691664774	 1.8237634057	-1.2480085724	 0.112581
H	-0.9974277862	 1.8265326226	 0.162552654	 0.114457
H	-0.5432490023	-0.5593283571	-0.658941967	 0.077318
H	 1.7698402211	-1.5071747265	-0.5168305302	 0.10305
H	 2.3894800546	 0.0885420309	 0.1002165585	 0.102568
H	 0.1520042475	-1.6285724465	 1.388372886	 0.073221
H	 1.4056999345	 1.0491907704	 2.2800128174	 0.105679
H	-0.0655428953	 0.3936907995	 2.9632549836	 0.097256
H	 1.2360763815	-1.6237780957	 3.7951000915	 0.081643
H	 3.7505124386	-1.6401403828	 3.6069401329	 0.106435
H	 3.6783938352	-0.0802187817	 2.6577645922	 0.110695
H	 2.5550854932	-0.4761360747	 5.5290379946	 0.081884
H	 3.3676512308	 1.705196984	 4.7753033435	 0.286866
