19
gdb 103487	3.54859	1.11935	1.10074	0.8247	70.98	-0.2466	0.0648	0.3114	1183.1351	0.158325	-460.128377	-460.119393	-460.118449	-460.162304	32.954	
C	-0.0741368175	 1.6306322134	 0.1402723508	-0.474163
C	-0.0334285444	 0.1209092062	 0.0771244863	 0.222529
C	-1.2895464553	-0.5508271943	-0.4530151518	-0.130208
O	-1.5241538981	-0.3065781764	-1.8313818536	-0.415876
C	 1.2572704514	-0.6083994152	-0.2547302929	 0.018481
O	 2.4530614319	 0.136341511	-0.1624834099	-0.256977
C	 2.8215773652	 0.081000469	 1.2035554831	 0.018478
O	 1.61827859	 0.0275448302	 1.9523635315	-0.256353
C	 0.7098227862	-0.6810409218	 1.1388256082	-0.008623
H	 0.8315569566	 2.0370975628	 0.5895909912	 0.142036
H	-0.1655092027	 2.0628174648	-0.8629140956	 0.112567
H	-0.9287810714	 1.9675912377	 0.7380189463	 0.116285
H	-1.2032790104	-1.6395132851	-0.3635068894	 0.103957
H	-2.151551928	-0.2437416981	 0.1609083433	 0.093694
H	-1.6807896878	 0.6360039209	-1.9434829155	 0.286771
H	 1.2775624825	-1.4281389132	-0.965176042	 0.110031
H	 3.4353054444	-0.81456803	 1.4012038001	 0.094234
H	 3.3687780863	 0.9900983727	 1.4673465829	 0.122046
H	 0.2787744011	-1.5661897846	 1.596501007	 0.101088
