14
gdb 129614	3.34876	1.3107	0.97808	3.0077	67.83	-0.2289	-0.0006	0.2283	1116.5061	0.10279	-429.05958	-429.051529	-429.050585	-429.092694	29.12	
N	-0.1283130859	 1.3086416133	-0.4651621503	-0.614178
C	-0.0945192519	-0.0420614909	-0.1683909418	 0.291262
C	-1.0804345419	-1.0048281705	-0.0227346999	 0.265742
C	-2.5701497152	-0.9136001959	-0.1919417938	-0.449018
C	-2.9506608775	 0.0709013204	-1.206120421	 0.265595
N	-3.1930419109	 0.8898256104	-1.985613613	-0.321424
N	-0.4899236929	-2.175728341	 0.3525240022	-0.247695
N	 0.7893553823	-2.0147073309	 0.4553564444	-0.12801
N	 1.0410906143	-0.7128098454	 0.1415061601	-0.231806
H	 0.6752243241	 1.645053883	-0.9794527902	 0.257822
H	-0.9843563617	 1.5918286793	-0.9273026919	 0.281479
H	-2.9524780038	-1.8985076892	-0.4792261797	 0.182521
H	-3.0751087111	-0.6439496203	 0.7455329422	 0.169352
H	 1.987364812	-0.3692764424	 0.1764942528	 0.278359
