20
gdb 85361	2.88595	1.33319	1.06539	5.5982	85.05	-0.2041	-0.0225	0.1816	1188.3868	0.171583	-403.189932	-403.180935	-403.179991	-403.223595	33.753	
C	-0.2219556904	 1.3895065351	 0.0803691782	-0.393394
C	 0.0357650466	-0.1233983986	-0.0307559423	 0.001094
C	 0.845125651	-0.479721452	-1.2846260715	-0.332641
C	 2.3293934861	-0.0953154198	-1.1837652058	 0.365553
O	 2.9692385309	 0.2114499521	-2.1760843429	-0.364073
C	 2.8819386721	-0.2300384622	 0.1496268955	-0.26631
C	 2.0832926903	-0.538046511	 1.2078270866	 0.044218
N	 0.7300105409	-0.6343938904	 1.1624561053	-0.033698
C	-0.0486086569	-0.8322527218	 2.3678296029	-0.341565
H	 0.7198439704	 1.9431775118	 0.1314527017	 0.142607
H	-0.7756982069	 1.7389996398	-0.7961442001	 0.126317
H	-0.8136180578	 1.6311282099	 0.9681678328	 0.114982
H	-0.9308015061	-0.6389954431	-0.0764582447	 0.086321
H	 0.8108369167	-1.5652382103	-1.4470035439	 0.120731
H	 0.4135078012	-0.0037837703	-2.1679505682	 0.120755
H	 3.9523813172	-0.1452519544	 0.2837418803	 0.093688
H	 2.5159853056	-0.7296482128	 2.18654248	 0.115795
H	 0.5830780048	-1.2654114688	 3.1462045678	 0.138037
H	-0.4751218058	 0.10440788	 2.7544242571	 0.128247
H	-0.8752589198	-1.5254490133	 2.1758135611	 0.133338
