19
gdb 109990	2.41891	1.26695	0.93977	2.37	76.84	-0.2534	0.0424	0.2958	1259.625	0.158205	-422.97229	-422.963034	-422.96209	-423.00622	35.255	
O	 0.221615603	 1.2414370772	-0.4695745781	-0.429813
C	 0.1633353137	-0.1672469539	-0.3487612635	-0.0783
C	-1.2360464368	-0.6222886814	 0.057207318	-0.074753
C	-2.287187697	-0.4718818887	-1.0880493949	 0.134406
O	-2.0306068633	 0.4585972594	-2.1278247678	-0.435052
C	-2.1686035864	-1.9820818224	-1.3917942905	-0.282538
C	-1.4984424629	-2.1723679227	 0.0089899114	-0.193261
C	-0.3777519267	-3.0835027039	 0.1171514883	 0.323066
C	 0.5594496457	-3.8337959376	 0.193761335	-0.452029
H	-0.4794490258	 1.4842521572	-1.0886626364	 0.287121
H	 0.4793734961	-0.6695121607	-1.2795429761	 0.072778
H	 0.8901588468	-0.4564919001	 0.4160073201	 0.120241
H	-1.5005172735	-0.1369291559	 0.9997493489	 0.084973
H	-3.2720676797	-0.2094718073	-0.6922380399	 0.098787
H	-1.4059390101	 0.0585307643	-2.7416688899	 0.29043
H	-3.0825806342	-2.5420953904	-1.5966735048	 0.116784
H	-1.4488935809	-2.1764169357	-2.1935039954	 0.109441
H	-2.2569709575	-2.4367257825	 0.7524002051	 0.110448
H	 1.3840943295	-4.4987075749	 0.2671377504	 0.19727
