20
gdb 76696	2.82456	1.13036	0.93857	2.9615	79.35	-0.2538	0.0096	0.2633	1310.9575	0.169055	-403.1363	-403.126249	-403.125305	-403.171812	35.802	
C	 1.0983724394	 1.9064490637	-0.1598433898	-0.414151
C	 0.5660955236	 0.5107103336	 0.0854167563	-0.04725
C	 0.5296276777	-0.5434514994	-1.0150536931	-0.071234
C	 1.029759215	-0.2764969053	-2.4195775032	-0.402117
C	 1.4796035153	-0.6959327134	 0.1375837088	 0.094006
O	 2.8485398313	-0.5536660896	-0.1586774433	-0.229305
C	 3.6864800144	-0.5715344702	 0.9677159736	-0.199454
C	 3.5534517785	 0.6065617715	 1.8483561526	 0.263812
N	 3.4593367757	 1.5238620484	 2.5444109058	-0.307972
H	 2.0284641427	 1.8920051243	-0.7316539848	 0.12515
H	 0.3702303299	 2.5093585419	-0.7131791583	 0.113145
H	 1.307302503	 2.4104836406	 0.7878763381	 0.142168
H	-0.2679024274	 0.4742463883	 0.7821963252	 0.086985
H	-0.3254632941	-1.2140801679	-0.9800394449	 0.087396
H	 1.9494337024	 0.3101392055	-2.4251891287	 0.133132
H	 1.2406367319	-1.2188043066	-2.9362647732	 0.118572
H	 0.2767832604	 0.2624651842	-3.0041969369	 0.117959
H	 1.2864917444	-1.4735109034	 0.877133959	 0.086463
H	 3.5172859484	-1.4704950577	 1.5806905424	 0.141924
H	 4.7145602574	-0.6106387283	 0.5952977443	 0.16077
