20
gdb 85230	2.66626	1.5227	1.11989	2.2315	79.34	-0.2371	-0.0196	0.2175	1145.5812	0.170409	-403.164791	-403.156001	-403.155057	-403.197851	33.82	
C	-0.0042404734	 1.5711787649	 0.0077982069	-0.396113
C	 0.025996119	 0.0488963231	 0.0349719716	 0.05843
C	 0.5895167285	-0.6329619983	-1.2281805605	-0.376302
C	 1.2890687754	-1.8875934267	-0.6855744425	 0.377593
O	 1.5272754237	-2.9010745666	-1.2924046896	-0.325558
C	 1.5527765634	-1.6621048122	 0.7793346739	 0.212947
C	 1.6833025553	-2.8577511254	 1.6839623817	-0.481077
C	 2.2471277633	-0.3589742892	 1.0434558864	-0.288382
N	 0.8025869209	-0.4608319438	 1.2072729156	-0.137752
H	 0.9951744884	 1.9868123805	-0.1599762568	 0.11566
H	-0.6544345878	 1.9282840027	-0.7966776548	 0.120583
H	-0.3813714238	 1.963443984	 0.9565130669	 0.130447
H	-0.9938501118	-0.3183702247	 0.1990216812	 0.092444
H	-0.1778743051	-0.9155005087	-1.9508781309	 0.134837
H	 1.3174353034	-0.010393183	-1.7624525216	 0.127783
H	 2.4909071078	-3.5054933189	 1.330812642	 0.138589
H	 1.8976125395	-2.5482052333	 2.7094654864	 0.124257
H	 0.7612640128	-3.4472688482	 1.687152302	 0.129191
H	 2.8079782298	-0.2627423526	 1.9690179862	 0.125599
H	 2.6603182107	 0.2004820564	 0.2077365959	 0.116825
