18
gdb 10650	2.20567	1.94076	1.24214	2.8739	69.12	-0.2477	-0.0223	0.2253	1026.5131	0.151668	-384.937598	-384.928552	-384.927608	-384.971268	32.345	
C	-0.0947841526	 1.3651062591	-0.1707039628	-0.419739
C	 0.1835881306	-0.1070528419	 0.0364806122	-0.022016
C	 1.5640829663	-0.6671079989	 0.0272418004	-0.325844
C	 0.7743927755	-0.6664791652	 1.3380858653	 0.194068
C	 1.2171135279	 0.2182675963	 2.4825864151	-0.159438
O	 2.2418781528	-0.3944696956	 3.2545313801	-0.416059
C	 0.2209121117	-1.9888538951	 1.7514867728	 0.10271
O	-0.0877733191	-2.8704419062	 0.9834825539	-0.277402
H	 0.7195756475	 1.9990673148	 0.1896266306	 0.120773
H	-0.2189449327	 1.5709773058	-1.2393765931	 0.129019
H	-1.014942218	 1.6760428537	 0.3349316694	 0.12642
H	-0.5690066684	-0.7724324385	-0.3782051467	 0.115065
H	 1.7252926703	-1.6354693684	-0.4331174465	 0.139685
H	 2.3952401975	 0.0297572277	-0.0392769557	 0.111371
H	 1.529027337	 1.2050547846	 2.1145904117	 0.092231
H	 0.3899617526	 0.3818569997	 3.1831965503	 0.116439
H	 2.9655252893	-0.6090287462	 2.6558124521	 0.284124
H	 0.0963138716	-2.1156583556	 2.848156361	 0.088594
