18
gdb 106489	2.73069	1.61515	1.25101	2.0028	70.94	-0.2274	-0.0254	0.202	1028.2865	0.149299	-439.059303	-439.051686	-439.050742	-439.09139	29.956	
O	 0.06320371	 1.4443724329	-0.0031446163	-0.424322
C	 0.0710101364	 0.0298065029	 0.0553205592	-0.193498
C	-1.3291991194	-0.5352808151	-0.0165202319	 0.185108
C	-2.2698397555	-0.5592343465	-1.2661787003	-0.220937
N	-3.0753499428	-1.6080552487	-0.5189195209	-0.127329
C	-1.7407097082	-2.0394029776	 0.0605090032	-0.240825
C	-3.5988568426	-0.7852484659	 0.6075856679	-0.282494
C	-2.3373328136	 0.0206145254	 0.981005044	 0.408555
O	-2.1756164689	 0.8807090222	 1.8108127207	-0.359652
H	-0.4431661683	 1.740734781	 0.7650194893	 0.299082
H	 0.6734205318	-0.3188396751	-0.7907916708	 0.109185
H	 0.5586710057	-0.3381269414	 0.9735789324	 0.095243
H	-2.8182748029	 0.3446392191	-1.5425258323	 0.120986
H	-1.7955602964	-1.0004836121	-2.1458580599	 0.121554
H	-1.2047584441	-2.6679895914	-0.6546787583	 0.122311
H	-1.7904307152	-2.5326551874	 1.0355724612	 0.114388
H	-4.4201505722	-0.1401397155	 0.2830914252	 0.137205
H	-3.952567894	-1.4135375567	 1.4299953775	 0.135441
