19
gdb 117293	4.82658	0.67326	0.60218	5.8391	74.89	-0.2455	-0.0026	0.2429	1846.5651	0.157813	-456.419962	-456.409496	-456.408552	-456.457124	36.47	
C	 0.0964266766	 1.6336646165	-0.0850526627	-0.389107
C	-0.0946844387	 0.1159900559	-0.0487342243	-0.155039
C	 0.7384268379	-0.6070625597	-1.1069590735	-0.323433
C	 0.5868313091	-2.1267951481	-1.0429174048	 0.433258
O	-0.0135136569	-2.7012403373	-0.1714169942	-0.307094
N	 1.215529405	-2.7733474752	-2.1134304978	-0.407684
C	 1.4250089526	-4.1594872659	-2.2599440448	 0.46249
N	 1.9087856256	-4.4648378229	-3.5266464872	-0.566668
O	 1.2692085111	-4.9767243111	-1.3902348854	-0.330092
H	 1.1424272238	 1.9093861006	 0.0910838509	 0.113634
H	-0.1959677811	 2.0530154168	-1.0546701034	 0.110917
H	-0.5089792888	 2.1236591492	 0.6832286325	 0.118917
H	 0.1705905234	-0.2788827506	 0.9367380496	 0.123889
H	-1.15066867	-0.136012929	-0.1935273438	 0.113621
H	 0.4696176176	-0.2610450726	-2.1150944361	 0.109982
H	 1.804898767	-0.3685318377	-0.9851675917	 0.125649
H	 1.6573638497	-2.1790114648	-2.7981324851	 0.249004
H	 1.5695173238	-3.924492836	-4.3085606907	 0.250782
H	 1.9400703126	-5.4593678981	-3.6961555877	 0.266973
