17
gdb 5314	4.57762	1.63878	1.24816	1.2822	72.61	-0.177	0.0382	0.2152	972.6128	0.142581	-363.87875	-363.870863	-363.869919	-363.91105	29.024	
C	 0.0306617994	 1.3845027616	-0.0535330511	-0.328282
N	 0.0079000512	-0.0445421613	-0.2984185671	-0.159408
C	 1.1846803383	-0.7702716527	 0.1643604239	-0.341463
C	-1.221922414	-0.6467836957	-0.1151019808	 0.455071
C	-2.4691263614	-0.1622445365	 0.1706895367	-0.307164
C	-3.3474826689	-1.2990109426	 0.1303131325	-0.167567
C	-2.5798638934	-2.3750570571	-0.15730788	-0.032699
O	-1.269825325	-1.9894705734	-0.3150810443	-0.19826
H	 0.9938740179	 1.7861091234	-0.378981969	 0.124384
H	-0.7581636908	 1.8704858935	-0.634161759	 0.136048
H	-0.111939622	 1.6432397901	 1.0096619168	 0.109189
H	 1.3016372744	-0.7354347281	 1.2605393713	 0.108963
H	 1.1172219988	-1.813415578	-0.1435495066	 0.151094
H	 2.0757852704	-0.3293012763	-0.2913857923	 0.121753
H	-2.7320746798	 0.8574781268	 0.3947763865	 0.098307
H	-4.4122869862	-1.301981593	 0.3049068667	 0.104073
H	-2.7672399589	-3.4284070304	-0.2740228941	 0.125962
