22
gdb 99871	1.78768	1.50423	1.21623	3.6533	82.36	-0.2313	0.0309	0.2622	1214.3158	0.19257	-400.518487	-400.507454	-400.50651	-400.554145	40.25	
C	 0.029388002	 1.500311759	 0.162224078	-0.33794
N	-0.0418130775	 0.0500801726	 0.0132550193	-0.083162
C	 0.8379095396	-0.6040630517	 0.9775715697	-0.34394
C	-1.4166562767	-0.4929045954	-0.0572943906	 0.091599
C	-2.3245438211	-0.1331068488	 1.1438598222	-0.423938
C	-2.0936833865	-0.02911603	-1.3948755369	-0.174498
N	-1.3665353381	-0.330819266	-2.6131123438	-0.506429
C	-1.3312326743	-1.965035436	-0.1494138302	 0.287098
N	-1.3256525285	-3.1162953364	-0.2531684103	-0.358021
H	 1.0693138914	 1.8104061056	 0.0224570721	 0.1291
H	-0.5676783166	 2.0080346288	-0.5975270305	 0.128934
H	-0.2931345139	 1.8618755903	 1.1538686463	 0.104925
H	 0.5662071098	-0.4084998194	 2.0300947198	 0.100288
H	 0.844183316	-1.6838504061	 0.8184009061	 0.15345
H	 1.8568007238	-0.2342569066	 0.8272399103	 0.124183
H	-2.5051322371	 0.9447366286	 1.1682893798	 0.127342
H	-3.2903759462	-0.637889706	 1.0585271755	 0.138064
H	-1.870855535	-0.4318134306	 2.0920605641	 0.135507
H	-3.0852456053	-0.4890376843	-1.4444348449	 0.120421
H	-2.2587306671	 1.0514944617	-1.3272027304	 0.111734
H	-0.388960752	-0.0850308576	-2.4778663718	 0.233993
H	-1.3820752268	-1.3327254817	-2.7827340438	 0.241291
