16
gdb 21201	6.65466	1.30203	1.11161	1.2335	69.54	-0.2005	0.0101	0.2106	1066.9302	0.132161	-376.102542	-376.094421	-376.093476	-376.135822	28.102	
C	 0.0275130197	 1.356440422	 0.2025147349	-0.327183
N	-0.0354132256	-0.0534860122	-0.1379684961	-0.371759
C	-1.2551144052	-0.6974022033	-0.0650368158	 0.370784
N	-1.3431040876	-2.026092293	 0.0580139706	-0.35249
N	-2.6619115216	-2.2539191559	 0.0373354244	 0.158671
C	-3.2027020036	-3.590128179	 0.1391347184	-0.30781
N	-3.4280604308	-1.1854703286	-0.0813647439	-0.222683
C	-2.5607489549	-0.1704916049	-0.1469460602	-0.13771
H	 1.0621113459	 1.6959520346	 0.1167453754	 0.128365
H	-0.5685975366	 1.9393039271	-0.5076027196	 0.135361
H	-0.3340111275	 1.5849828865	 1.2175324565	 0.114811
H	 0.7163673311	-0.6134082019	 0.2369079467	 0.244571
H	-2.8788738185	-4.0580862793	 1.072772332	 0.146483
H	-4.2881564045	-3.5042304101	 0.1216596362	 0.159672
H	-2.8625976896	-4.2020981203	-0.7009623729	 0.147478
H	-2.9006335706	 0.8466915283	-0.2458061065	 0.113439
