19
gdb 110342	2.79969	1.26083	1.08608	2.9782	76.81	-0.2341	-0.0073	0.2268	1207.496	0.157511	-423.007423	-422.99832	-422.997375	-423.041567	33.256	
C	-0.4354603935	 0.9498414926	-0.0102174381	-0.242189
O	 0.5656799958	-0.0440965364	 0.1230586899	-0.237373
C	 0.9344585078	-0.6140248513	-1.0865424268	 0.123207
C	 1.4784786516	-1.9803930627	-1.1196361038	-0.130639
C	 0.0882348138	-1.6695726056	-1.7957114085	-0.254091
C	-0.5351342843	-2.5911687818	-0.7928150069	 0.432341
O	-1.6156374024	-3.1079765713	-0.7205047701	-0.334759
C	 0.7989225544	-2.862602925	-0.0502840743	-0.111023
C	 1.176417976	-4.3416014385	-0.0633402321	-0.412569
H	-0.0948135166	 1.7796495611	-0.6470861986	 0.108884
H	-1.3587441993	 0.5352697761	-0.4368253745	 0.126193
H	-0.6403509701	 1.3317170341	 0.9917566036	 0.134193
H	 1.3780618042	 0.0935029191	-1.7914413149	 0.098631
H	 2.4000105379	-2.2367705707	-1.6274168474	 0.106571
H	-0.1937772182	-1.5629889799	-2.8366140393	 0.106524
H	 0.8522099937	-2.4512811474	 0.9605380441	 0.109359
H	 1.1479842576	-4.7525927762	-1.0782110688	 0.119951
H	 2.1839437112	-4.4925777033	 0.3367760845	 0.118654
H	 0.4736439603	-4.913350323	 0.5486748822	 0.138135
