21
gdb 101434	2.81138	1.06271	0.85638	0.7436	74.68	-0.245	0.057	0.302	1395.9362	0.181043	-461.335783	-461.325629	-461.324685	-461.371626	36.549	
C	-0.2873238004	 1.5266095426	-0.1351148375	-0.410079
C	 0.0453798292	 0.0409713202	-0.1049848289	-0.048012
C	 1.3909499833	-0.4047593859	-0.72307778	-0.077679
O	 1.8426547676	-0.9597570322	 0.5311860798	-0.301718
C	 0.6140355248	-0.5893400269	 1.1969722207	 0.133266
C	 0.8703563096	 0.2983917143	 2.4058116478	 0.123269
O	-0.3940053696	 0.6280240056	 2.9580358022	-0.453601
C	 1.7317027581	-0.4100688729	 3.446415836	-0.112302
O	 1.7966508457	 0.4743711252	 4.5649013743	-0.437243
H	 0.5750795991	 2.1403400057	 0.1441387197	 0.117833
H	-0.5934160698	 1.8289873132	-1.1423084212	 0.109044
H	-1.1001514079	 1.7576032957	 0.5581924631	 0.140833
H	-0.8025729739	-0.5328507333	-0.4868929827	 0.081718
H	 1.3349401318	-1.1674280971	-1.5093922677	 0.098987
H	 2.04245136	 0.4101381363	-1.0655377443	 0.097891
H	 0.0592507246	-1.4765233748	 1.5334155769	 0.074242
H	 1.4076233508	 1.2076865863	 2.0924706949	 0.071272
H	-0.2072006899	 0.9584868531	 3.8460708471	 0.292015
H	 1.2559213379	-1.3620168659	 3.7259259043	 0.091655
H	 2.7256896269	-0.6196423843	 3.0314684861	 0.114437
H	 2.1627825921	-0.0036217551	 5.3137520393	 0.294172
