18
gdb 74604	3.41974	1.75625	1.35674	2.1051	80.89	-0.2207	0.0041	0.2248	969.0422	0.148485	-364.680263	-364.673456	-364.672512	-364.711089	28.242	
C	-0.1125162167	 1.4788021086	-0.0018976216	-0.509009
C	 0.0072480734	-0.0050697459	-0.0209010734	 0.160446
C	-0.0459784719	-0.8843922451	-1.0394530353	-0.185623
C	 0.1439853063	-2.3038786165	-0.4474242394	-0.145398
C	-0.6241664026	-2.2342008573	 0.893025332	 0.018273
N	 0.4666366354	-2.7933503204	 1.8409556969	-0.205391
C	 0.4491376372	-1.4498797813	 2.5959574516	-0.274869
C	 0.2308979226	-0.9664084031	 1.1497545753	 0.200172
C	 1.1914792052	-2.0846696337	 0.6690087559	 0.018265
H	 0.7891535154	 1.9469799266	 0.4130869173	 0.129898
H	-0.2710781935	 1.8800609417	-1.0069043879	 0.127488
H	-0.9486130453	 1.8039539521	 0.6302362734	 0.129867
H	-0.1935887236	-0.6645372463	-2.0885553998	 0.101893
H	 0.132140129	-3.1641346229	-1.1176270483	 0.066051
H	-1.6871674289	-2.3759643608	 1.103820488	 0.078342
H	-0.38234819	-1.3600536457	 3.3021154473	 0.105627
H	 1.400832487	-1.2131932105	 3.0821182552	 0.105626
H	 2.2824488012	-2.0490532593	 0.6140571228	 0.078341
