19
gdb 38155	2.26367	1.94022	1.31604	0.4877	89.09	-0.1998	-0.0332	0.1666	1027.4627	0.161989	-348.742637	-348.735187	-348.734243	-348.774126	30.394	
C	 0.0557526075	 1.3874901894	-0.3013368347	-0.31832
C	 1.3775159161	 0.700619161	-0.0478968719	-0.063253
C	 2.2253408997	 0.9196438361	 1.1528523434	-0.042837
C	 1.9272809877	 1.3642656209	 2.3799354952	-0.105451
C	 0.633922379	 1.7566823766	 2.9554868132	-0.109214
C	-0.5077832642	 1.0558024685	 2.9620819456	-0.109212
C	-0.7480045539	-0.2780545694	 2.3953860903	-0.105451
C	-0.4967172344	-0.7513886499	 1.1685724583	-0.042837
C	 0.072199567	-0.1006980989	-0.0403572649	-0.063253
H	-0.3358430419	 2.0326588583	 0.4717972594	 0.136031
H	-0.151540558	 1.7156334293	-1.3139466195	 0.111969
H	 1.9723155585	 0.5253170178	-0.9391513918	 0.086436
H	 3.2766046739	 0.7047616298	 0.9707824805	 0.087071
H	 2.769202428	 1.5036507087	 3.0582096871	 0.090612
H	 0.6441666478	 2.6994801325	 3.502720743	 0.091797
H	-1.3485215581	 1.4761914483	 3.5142324214	 0.091796
H	-1.2476208525	-0.962215599	 3.0814057971	 0.090612
H	-0.7823893362	-1.7869911581	 0.9942221315	 0.087071
H	-0.048136386	-0.7150099521	-0.9274831531	 0.086436
