15
gdb 24934	4.67557	1.27125	1.012	2.3233	71.69	-0.2226	-0.025	0.1976	1092.6505	0.114323	-420.679543	-420.672749	-420.671805	-420.711039	26.426	
O	-0.0411718794	 0.0635812802	 0.0054902154	-0.28985
C	-0.026277666	 1.2623470903	 0.0106897699	 0.405013
C	-1.3004976419	 2.1633106497	 0.0329877355	-0.471514
C	-0.662386785	 3.5013275519	 0.0307773642	 0.323936
C	 0.6935289351	 3.525449368	 0.0121932251	 0.240853
C	 1.2586367168	 2.140215535	-0.0024053981	-0.469263
C	 1.0644572981	 4.909178363	 0.0139679113	-0.358554
C	-0.1120646232	 5.596302096	 0.0338845879	-0.011611
O	-1.1880525913	 4.7453889344	 0.04426322	-0.198156
H	-1.9249160653	 1.940518165	-0.8411182222	 0.145786
H	-1.9002855969	 1.9317396186	 0.9219415948	 0.14581
H	 1.8770426075	 1.8843850155	 0.8668961457	 0.140407
H	 1.853165804	 1.8930840159	-0.8906650093	 0.140378
H	 2.051548185	 5.3440319533	 0.0024698235	 0.1178
H	-0.3562474876	 6.6452942831	 0.0426470864	 0.138964
