17
gdb 86865	2.873	1.2351	0.9839	2.3991	68.24	-0.2696	-0.0488	0.2208	1203.4221	0.13482	-459.02301	-459.014391	-459.013447	-459.057101	30.892	
C	-0.6497438137	 1.1593335284	 0.0956868195	-0.405257
C	 0.2222480217	-0.0923336921	 0.041718233	-0.136069
C	 1.1115101598	-0.2655121974	-1.1970891998	-0.25871
C	 2.3071661769	-1.0491869727	-0.6361896523	 0.002632
O	 2.392517722	-0.7224627675	 0.7597572766	-0.233197
C	 1.2218686472	-0.1591845088	 1.1971345438	 0.442098
O	 1.0762924417	 0.1963778082	 2.328070059	-0.331354
C	 2.1751439455	-2.5650922696	-0.7759651754	 0.132805
O	 1.6496446828	-3.1044261027	-1.7132122618	-0.229544
H	-0.0482761186	 2.0614529259	-0.0555935269	 0.125996
H	-1.4217757726	 1.1300428755	-0.6780164558	 0.123025
H	-1.1333838557	 1.2379402788	 1.0722800923	 0.146989
H	-0.4167003672	-0.9797419833	 0.1566798207	 0.123457
H	 0.6415475269	-0.8147858354	-2.0140995011	 0.142919
H	 1.4389072681	 0.708593588	-1.5721427425	 0.117539
H	 3.259746258	-0.7619859668	-1.0978123742	 0.128132
H	 2.6221750871	-3.1337619785	 0.0678591348	 0.108538
