14
gdb 54895	2.87407	1.54476	1.04352	4.3357	64.51	-0.259	-0.0294	0.2296	1068.2634	0.10198	-470.07925	-470.071425	-470.070481	-470.112185	28.526	
N	-0.024955681	 1.3424121156	 0.2709326198	-0.556749
C	 0.106964094	 0.0192889111	-0.0947785928	 0.455662
O	 1.1284133667	-0.4821187924	-0.4837104691	-0.326328
N	-1.1217012244	-0.6939212244	-0.0225210738	-0.207526
C	-2.4158544339	-0.165693221	-0.1612823708	 0.076518
N	-3.3790322054	-0.9969629859	-0.1331931616	-0.252898
C	-2.7730518535	-2.3145178435	 0.0521967682	-0.292148
C	-1.2561998768	-2.1078351795	 0.1143715222	 0.40414
O	-0.3787328288	-2.9052188201	 0.2727434098	-0.315383
H	 0.8560298044	 1.8324221593	 0.3175568492	 0.275447
H	-0.6917577777	 1.5895457208	 0.9856473656	 0.26552
H	-2.5341792923	 0.9013042189	-0.3139729158	 0.152085
H	-3.1294851636	-2.7869894548	 0.9737808366	 0.159469
H	-3.0359425776	-2.9852600241	-0.7728612676	 0.162192
