18
gdb 128095	3.12855	1.22654	0.89487	3.3414	76.34	-0.1875	0.0538	0.2413	1283.3498	0.147635	-435.286605	-435.276683	-435.275739	-435.322085	34.916	
C	 0.2255738684	 1.4280553698	-0.0841276741	-0.339229
N	-0.1283651424	 0.0269609087	 0.0699961862	-0.384114
C	 0.579319948	-0.7561256164	 0.966338554	 0.39753
C	 0.6763482127	-2.1399318485	 1.0454927707	 0.010578
C	 0.0798611833	-3.1690274557	 0.138137801	-0.534196
C	 1.4734756832	-2.3337184173	 2.1964603962	 0.371084
O	 1.8411304983	-3.5456791124	 2.6715683837	-0.437086
N	 1.8513863018	-1.2157877721	 2.7906131482	-0.367089
N	 1.2977776221	-0.241516112	 1.9948250787	-0.291441
H	 1.2896192387	 1.5932885992	-0.3147174488	 0.121498
H	-0.3762392592	 1.858902783	-0.8867049664	 0.135168
H	-0.0165594497	 1.9813359235	 0.8309172511	 0.131297
H	-0.2922138566	-0.4510197361	-0.8039214598	 0.24665
H	 0.3596116929	-3.0144507643	-0.9130708877	 0.108722
H	 0.4333709159	-4.1636389836	 0.4209939729	 0.144683
H	-1.0167525471	-3.1861110086	 0.1814837987	 0.122266
H	 2.3865391611	-3.3839312936	 3.451328571	 0.298701
H	 1.3755672687	 0.7170142365	 2.2794464343	 0.264979
