15
gdb 37144	3.35565	1.70417	1.69577	1.3727	62.45	-0.2553	0.0462	0.3015	847.5174	0.11321	-457.666988	-457.660614	-457.65967	-457.697586	25.493	
C	 0.0158010789	 1.5565940716	 0.146525123	-0.149709
O	 1.3921133768	 1.9397821566	 0.037406737	-0.25975
C	 2.0988392179	 1.0187847601	-0.8024021512	-0.149709
C	 1.3292682733	-0.2700508788	-0.6872857331	 0.219013
O	 0.9929079207	-0.6715823746	 0.6410928089	-0.267626
C	 0.0141787584	 0.0694855925	-0.0881962303	 0.219013
C	-0.6763140265	-0.856535551	-1.0876538814	-0.051025
O	-0.3237303768	-0.4014463805	-2.4022234592	-0.229275
C	 0.6326612485	-1.1944939116	-1.6839578405	-0.051025
H	-0.3252700478	 1.8712271506	 1.1365748323	 0.125049
H	-0.6080617657	 2.0389724066	-0.6204016413	 0.113882
H	 2.1013114583	 1.3394541149	-1.8546545819	 0.113882
H	 3.128559844	 0.9794989468	-0.4368149801	 0.125049
H	-1.5733020033	-1.4531612386	-0.9848033417	 0.121116
H	 0.9753699733	-2.1111907547	-2.1458512406	 0.121116
