20
gdb 103908	3.25805	0.92551	0.82553	4.4851	78.84	-0.2341	0.0353	0.2694	1458.2487	0.168539	-440.287473	-440.277332	-440.276388	-440.323208	36.327	
C	 0.1283038473	 1.1903112374	-0.3291437877	-0.248438
O	-0.1103267499	-0.0366071499	 0.3382942215	-0.292354
C	-1.4017883669	-0.5645930841	 0.1719160819	 0.385494
C	-2.4909154823	 0.1440488572	 0.9440670606	-0.456626
C	-1.6942493777	-1.2235097851	-1.1617414311	-0.35979
C	-1.3982696242	-2.0634951113	 0.0701294989	-0.005317
N	-0.1412545298	-2.7288459997	 0.1998530595	-0.279272
C	-0.0321766205	-4.0778756922	 0.3046808507	 0.151674
O	-0.9558341406	-4.8616422672	 0.2308398015	-0.329418
H	 1.1837204178	 1.4297516911	-0.1812234932	 0.130372
H	-0.0765660315	 1.1104637533	-1.4052671985	 0.114512
H	-0.4780184421	 2.0069861969	 0.0838132011	 0.117359
H	-2.6605924637	 1.1579388749	 0.5659730933	 0.121
H	-3.4353768662	-0.4001870815	 0.8598974065	 0.127009
H	-2.2250449193	 0.2111081832	 2.0037910427	 0.130387
H	-2.7078908316	-1.2077478673	-1.5477963843	 0.119538
H	-0.9136190576	-1.1833427708	-1.9134095816	 0.118352
H	-2.2137972856	-2.6217281581	 0.5146237363	 0.126366
H	 0.6666786869	-2.1411478995	 0.3413899126	 0.258036
H	 1.0182834675	-4.3903904672	 0.4704015595	 0.071117
