21
gdb 99692	1.70297	1.17408	0.74562	2.7752	88.08	-0.2336	-0.012	0.2216	1595.3544	0.178006	-387.098015	-387.086328	-387.085384	-387.137787	39.374	
C	 0.2865810401	 1.6079409964	-0.2799915412	-0.394922
C	 0.2620850257	 0.0801176232	-0.2286970405	-0.161267
C	-1.1428568997	-0.495751083	 0.0425813251	-0.257732
C	-2.1009398348	-0.180931282	-1.0157651321	 0.096932
C	-2.865155872	 0.074075733	-1.9118852446	 0.027862
C	-3.7958359556	 0.386893287	-2.9876338623	-0.498524
C	-1.0922520283	-2.0195315458	 0.327810344	 0.382903
C	-2.4220248608	-2.7350716282	 0.454942333	-0.475459
O	-0.0383551036	-2.5905619624	 0.4682778951	-0.291504
H	 1.2988608713	 1.9724246418	-0.4790024079	 0.114269
H	-0.3716598042	 1.9897628836	-1.0661928602	 0.125582
H	-0.041911304	 2.0436477999	 0.670771812	 0.109869
H	 0.6323219158	-0.3380328561	-1.1705492114	 0.109651
H	 0.9293081969	-0.2911944011	 0.5537968099	 0.115408
H	-1.5194394983	-0.0542463765	 0.9818166672	 0.117456
H	-4.6295618107	-0.3236503486	-3.0115830444	 0.14809
H	-4.2199969921	 1.3900016006	-2.8686851078	 0.149834
H	-3.3018874222	 0.3494011337	-3.9647371384	 0.150844
H	-3.109260363	-2.1765521911	 1.0988095113	 0.135118
H	-2.8970501762	-2.7997651891	-0.5288617634	 0.156852
H	-2.2603076645	-3.7379063355	 0.8517143866	 0.138738
