19
gdb 2795	3.94983	1.9899	1.50464	1.3193	67.2	-0.2605	0.0782	0.3387	869.3186	0.171526	-310.905299	-310.897339	-310.896395	-310.937185	29.452	
C	-0.5660010502	 1.4008683754	-0.0860434544	-0.413517
C	 0.080155456	 0.0220156632	-0.0388394463	 0.039412
C	 1.4894290481	-0.1816087716	-0.6638610349	-0.226974
C	 1.8315938334	-1.1480841019	 0.5020895128	-0.213782
C	 0.6312394336	-0.5676173713	 1.3033667766	 0.013219
C	 1.0452079536	 0.4583269054	 2.345400968	-0.085155
O	 1.7002109732	-0.2421676989	 3.3954565606	-0.423611
H	 0.0898621818	 2.1733142145	 0.3294551518	 0.111564
H	-0.7896374591	 1.6848294436	-1.1206223791	 0.112664
H	-1.5085006909	 1.4259351248	 0.4726242377	 0.113125
H	-0.611346562	-0.7091693512	-0.4726861055	 0.071795
H	 1.5363435086	-0.5739082477	-1.6830478033	 0.091099
H	 2.0845770921	 0.7367672021	-0.6255015575	 0.094619
H	 1.6758619528	-2.1951459562	 0.2294984393	 0.09623
H	 2.8136897665	-1.0551567112	 0.9706613852	 0.103573
H	-0.0124583345	-1.3035768044	 1.794521755	 0.068516
H	 1.7159757888	 1.2106731113	 1.8989684648	 0.080168
H	 0.1580290201	 0.99422578	 2.7194680607	 0.082996
H	 1.9937430281	 0.4007445741	 4.0473969787	 0.284058
