18
gdb 81553	4.25621	1.18582	1.05001	1.0699	71.42	-0.2519	0.0593	0.3112	1137.3808	0.148651	-438.979138	-438.971645	-438.9707	-439.01136	29.314	
O	 0.1080915824	 1.4467672525	-0.1557176993	-0.455085
C	 0.0690041889	 0.0663056372	-0.0541357581	 0.223181
C	-0.0035822296	-0.5901206252	 1.3612978046	-0.17222
N	-1.4082870334	 0.0058819125	 1.4405475125	-0.369531
C	-1.3147979567	-0.6485319136	 0.0629771014	-0.172219
C	-0.5795796147	-1.8529149382	 0.6872352854	 0.361598
C	 0.1977943584	-2.9595106079	-0.0480821263	-0.17175
O	-0.4969273315	-3.9783681103	 0.699395288	-0.273506
C	-1.2691217958	-3.0075483308	 1.435571014	-0.173819
H	-0.543820866	 1.7630118094	 0.4884425821	 0.292131
H	 0.7856261361	-0.3578416481	-0.7587922766	 0.093233
H	 0.7001415217	-0.5154651462	 2.1923606062	 0.087581
H	-1.9971893299	-0.5563560733	 2.060594641	 0.218875
H	-2.1545877503	-0.6426358884	-0.6342921385	 0.087581
H	 0.0120911547	-3.0417121822	-1.1269663985	 0.107047
H	 1.2808919667	-2.9851931253	 0.1293230889	 0.107048
H	-1.0778151312	-3.0664542621	 2.5153969745	 0.104929
H	-2.3468618098	-3.1229878897	 1.2588140588	 0.104929
