13
gdb 101967	1.81281	1.52523	1.2955	3.989	64.06	-0.3067	-0.085	0.2218	1068.3726	0.08517	-452.73533	-452.725745	-452.724801	-452.770461	31.644	
C	 0.0510928025	 1.4479939882	-0.0250744448	-0.272379
O	-0.0128436008	 0.0212113317	 0.0725467787	-0.25075
C	-1.2954304517	-0.5345417218	 0.1152369839	-0.014463
C	-1.038736922	-2.0868716572	 0.1629318698	 0.157938
O	-1.7108545655	-2.8519599357	 0.777754348	-0.194303
C	-2.0741990705	-0.1032518102	 1.2937094884	 0.310372
N	-2.6406335363	 0.257566951	 2.2322868875	-0.3122
C	-2.0636392785	-0.2616529197	-1.1237186194	 0.281107
N	-2.6131421374	-0.0810930397	-2.1237424615	-0.308759
H	 1.1128377749	 1.6920990708	-0.0571431249	 0.157426
H	-0.4370898263	 1.7997451658	-0.9411371903	 0.150484
H	-0.411209562	 1.9225403156	 0.847468846	 0.152985
H	-0.1535155162	-2.3552785389	-0.4438538814	 0.142543
