15
gdb 97492	9.47025	0.39117	0.38578	1.9504	91.78	-0.2442	-0.0417	0.2025	2656.3994	0.109121	-420.576651	-420.566446	-420.565502	-420.614924	33.47	
O	 0.203112338	 1.1152765945	-0.8203600389	-0.395612
C	 0.0709234662	 0.0649030534	 0.124872121	-0.22631
C	-1.2777419106	-0.4911382753	 0.1969120048	 0.301992
C	-2.413903392	-0.9064343003	 0.258749309	-0.246298
C	-3.6842867496	-1.3840453876	 0.3267364179	-0.179133
C	-4.8194175295	-1.8004889733	 0.3898374908	 0.246649
C	-6.1593330363	-2.3538598345	 0.4475921603	-0.448343
C	-6.2356830775	-3.7764486901	-0.123989108	 0.172233
O	-6.9372720204	-4.6332453098	 0.3365820617	-0.224234
H	-0.4653003397	 1.777875849	-0.6159051946	 0.291269
H	 0.7774891202	-0.7115215049	-0.1900024795	 0.150132
H	 0.3814407756	 0.3843944	 1.132955986	 0.127583
H	-6.5593147814	-2.3733189426	 1.4670356621	 0.163223
H	-6.846539184	-1.7375250091	-0.1532759233	 0.164347
H	-5.5967166689	-3.9468855694	-1.0164314493	 0.102502
