16
gdb 84319	3.24607	1.45708	1.11432	2.3509	71.17	-0.2449	-0.0592	0.1857	1051.143	0.126176	-437.884884	-437.877483	-437.876539	-437.916862	28.815	
O	-0.164757395	 1.465412547	 0.4144061346	-0.434395
C	 0.0355252144	 0.1293837055	-0.033147072	 0.072813
C	 0.9983380161	-0.5861277733	 0.8837297798	-0.065607
C	 0.8224337994	-1.8100083708	 1.3924583695	-0.176926
C	-0.3604554272	-2.6382581921	 1.0816696633	 0.438982
O	-0.4141338601	-3.8259081913	 1.331822073	-0.341193
C	-1.503149341	-1.9347580172	 0.4056832489	-0.167467
N	-2.0122266457	-0.7199216246	 1.0956205675	-0.344271
C	-1.2996579914	-0.5801025117	-0.1780916592	-0.075802
H	-0.6972473718	 1.3891592875	 1.2176429743	 0.29332
H	 0.5027333099	 0.224776922	-1.0218232625	 0.105511
H	 1.8882121851	-0.010117172	 1.1266810217	 0.119721
H	 1.5656659331	-2.2755331535	 2.0321556487	 0.11603
H	-2.228223995	-2.6055012841	-0.0448301608	 0.10882
H	-3.0163521057	-0.6558673489	 0.9510818859	 0.246944
H	-1.8764787952	-0.3138413024	-1.0595482326	 0.103519
