15
gdb 45346	2.54929	1.88886	1.18374	6.3238	66.41	-0.2617	-0.0106	0.251	988.2176	0.115065	-454.002652	-453.995509	-453.994565	-454.034639	26.863	
O	-0.1098446969	-0.0335410709	 0.1587733494	-0.293775
C	-0.1280514065	 1.149923184	 0.0395223103	 0.399017
C	-1.2035452899	 2.2476799229	-0.1307058638	-0.399462
C	-0.0321870458	 3.2570256725	-0.0155941446	 0.036649
C	 0.2378397743	 4.028092985	 1.2946184029	-0.200677
N	 1.5865098066	 3.5636570436	 1.6130786494	-0.338054
C	 1.8843836454	 2.3198363317	 1.0789958209	 0.421647
O	 2.7591694039	 1.5681492491	 1.4105289458	-0.354701
N	 0.9176193113	 2.1235194562	 0.0447642936	-0.171149
H	-1.7336251086	 2.2303200692	-1.0847287972	 0.145457
H	-1.9281864134	 2.2674688557	 0.6864484254	 0.143181
H	 0.1235262453	 3.8876570384	-0.8936720716	 0.106931
H	 0.2115966397	 5.1108875269	 1.1489461806	 0.127896
H	-0.4852497206	 3.7687213891	 2.0818180962	 0.114427
H	 2.0362770252	 3.8012634567	 2.4833550628	 0.262613
