22
gdb 59542	2.64883	1.14024	1.06998	1.4117	81.59	-0.2222	0.0627	0.2848	1285.4137	0.193447	-404.297938	-404.288345	-404.287401	-404.332292	36.438	
C	 0.4923939756	 1.2811105148	 0.5864131176	-0.404299
C	 0.4441479795	-0.2339852918	 0.3844370205	 0.104776
O	 1.1073134351	-0.9249009211	 1.4427800335	-0.432189
C	-0.988841674	-0.7464472597	 0.2382125856	 0.019905
C	-1.8926403595	-0.4194547867	-0.9816799114	-0.212583
N	-2.2900404655	-1.8653159263	-1.1524851004	-0.157552
C	-1.0658585161	-2.6274679232	-1.4787555171	 0.037477
C	-0.0025334406	-2.2014086602	-2.4661089866	-0.427955
C	-1.2575469215	-2.2180994383	-0.0700725277	-0.082458
H	 1.5251725535	 1.6151002964	 0.7170855743	 0.125158
H	 0.060949379	 1.8114917839	-0.2691494168	 0.119693
H	-0.0774181235	 1.5714049879	 1.4785680038	 0.105552
H	 1.0267210908	-0.4926689026	-0.5048693163	 0.089105
H	 0.6578233574	-0.6978937018	 2.2648645502	 0.274678
H	-1.5290340812	-0.4748994986	 1.1548311016	 0.069887
H	-2.7738141624	 0.1758601124	-0.7371225442	 0.110437
H	-1.4097048003	 0.0245315345	-1.8581373432	 0.100651
H	-1.3486263102	-3.6697789374	-1.6279041755	 0.095396
H	 0.2784722845	-1.1506639985	-2.3945897989	 0.123098
H	 0.9039342464	-2.7968340287	-2.315068471	 0.129177
H	-0.3533049825	-2.3812007061	-3.4884564839	 0.123475
H	-1.4810988244	-2.9575007288	 0.6935675158	 0.088571
