16
gdb 2866	6.2489	1.33991	1.27851	1.4757	56.97	-0.2542	0.0648	0.319	947.205	0.137167	-362.870426	-362.86265	-362.861706	-362.902952	27.619	
O	-0.0727763428	 1.2518350838	-0.7329527036	-0.42034
C	 0.0580343311	 0.1546429142	 0.1554371781	-0.066921
C	-1.2657118743	-0.5568874154	 0.3198515491	-0.037366
N	-1.708954841	-1.3332303544	-0.8586373104	-0.362095
C	-1.4571676403	-2.0283153051	 0.4225508994	-0.037318
C	-0.3614362985	-3.0690693862	 0.380639957	-0.066939
O	-0.7835985018	-4.2082162573	-0.3503486308	-0.420332
H	-0.410106827	 0.8850191517	-1.5587227494	 0.288599
H	 0.8322025038	-0.5436827805	-0.1889643099	 0.09295
H	 0.3851895235	 0.5704924417	 1.1143013847	 0.111314
H	-2.0238610048	 0.0548376108	 0.8068322178	 0.094046
H	-2.7068120742	-1.2137445071	-1.0069574843	 0.23746
H	-2.3373230735	-2.3543284802	 0.9749960642	 0.094048
H	 0.5584652545	-2.645097169	-0.0431815153	 0.092971
H	-0.1332589983	-3.4185723956	 1.3931439866	 0.111326
H	-1.0308389364	-3.8849874614	-1.2247748631	 0.288596
