20
gdb 53495	4.17111	0.65244	0.6352	3.5269	85.	-0.2369	0.0302	0.2671	1837.5319	0.167869	-403.170808	-403.15921	-403.158266	-403.21058	38.952	
C	 0.0266182185	 1.4889642915	 0.0581658804	-0.498661
C	-0.0095529885	 0.0329473686	 0.052917473	 0.102052
C	-0.0220639248	-1.1716563618	 0.0488584207	 0.024873
C	-0.0585170888	-2.6292474874	 0.0510560859	-0.352668
C	-1.4796709599	-3.2081613878	-0.1556384908	-0.080877
C	-2.0761608878	-2.7934947182	-1.5107743002	-0.387149
C	-1.3995453751	-4.7357059817	-0.0921520695	 0.41219
N	-2.3728190373	-5.342124975	 0.6470197518	-0.530964
O	-0.5391005719	-5.3662796894	-0.6780796928	-0.37419
H	 0.7719263421	 1.8656707126	 0.7676369909	 0.147018
H	 0.2816734686	 1.8867770326	-0.9304468289	 0.14656
H	-0.9428096914	 1.9123823843	 0.3440653114	 0.144038
H	 0.5879887915	-3.0386878887	-0.7332177018	 0.150071
H	 0.3468822197	-3.0055164428	 0.9989352604	 0.125847
H	-2.1261023696	-2.8350807138	 0.6479000207	 0.073193
H	-1.4737341506	-3.2045547252	-2.3263767327	 0.137928
H	-3.0995616274	-3.1645254251	-1.6235301727	 0.111076
H	-2.0894757568	-1.7044422911	-1.5998527405	 0.13124
H	-3.0873326431	-4.8252913882	 1.1273286791	 0.258595
H	-2.3912613076	-6.3484324135	 0.6819477058	 0.259827
