20
gdb 39210	2.64636	1.89555	1.43657	2.2635	77.53	-0.2222	0.0794	0.3015	971.1141	0.174528	-403.103016	-403.096134	-403.09519	-403.133852	29.016	
C	 0.0769154884	 1.5784096134	 0.0631361579	-0.263892
C	 1.2987722565	 0.7357459213	-0.0378719668	 0.005556
C	 2.3508398551	 0.6105531141	 1.0384686673	 0.080385
C	 1.9079315693	 0.5873292858	 2.5165315228	-0.291966
C	 1.8833719542	-0.9417430077	 2.3040725042	 0.112479
C	 0.5244824052	-1.5383407796	 1.9171250046	-0.207667
C	-0.4736314532	-0.5427373501	 1.3083162712	-0.161119
N	-0.0266525296	 0.1228734192	 0.0747008373	-0.081155
O	 2.7370727166	-0.7912227596	 1.1368711992	-0.291286
H	-0.0950534353	 2.1056077876	 1.0016961209	 0.104125
H	-0.3179186351	 2.0879123234	-0.812939981	 0.11433
H	 1.7337343022	 0.591271059	-1.0275475292	 0.097021
H	 3.2127127009	 1.2415176429	 0.7936010749	 0.07893
H	 2.7242110869	 0.8939226105	 3.1723440965	 0.111476
H	 0.9949394988	 1.1018960768	 2.8139235687	 0.102734
H	 2.3755255959	-1.5577789802	 3.0636448103	 0.076674
H	 0.7182532154	-2.3595297961	 1.2176861446	 0.12145
H	 0.0500127935	-1.9763361169	 2.8047763525	 0.095822
H	-1.3929224538	-1.0856644394	 1.0580799584	 0.106399
H	-0.7589399318	 0.1908313354	 2.0768155355	 0.089704
