21
gdb 40267	2.71053	1.46711	1.11967	1.7793	83.45	-0.237	0.0204	0.2574	1156.6692	0.184182	-387.084614	-387.076373	-387.075429	-387.117721	32.381	
C	-0.0069312431	 1.5391531725	 0.0812002591	-0.23486
O	 1.1981392831	 0.7703927172	 0.1056810595	-0.277667
C	-0.0513512485	 0.0711201466	-0.0149461635	 0.435974
C	-0.4484669167	-0.7254027425	 1.2146725209	-0.267795
C	 0.3802580221	-1.9956207273	 1.4549679336	-0.187199
C	 0.1726139941	-3.1149930934	 0.4200003504	-0.24696
C	 0.7506187726	-2.8475366914	-0.9504369569	-0.046295
C	 0.5612728768	-1.7656971644	-1.7045537891	-0.041165
C	-0.2920456099	-0.557883238	-1.3796637862	-0.33354
H	-0.2698329729	 2.0285857947	 1.0188130009	 0.107211
H	-0.1556025451	 2.1473249591	-0.8108215667	 0.106926
H	-0.3513344961	-0.0728299819	 2.088808408	 0.097996
H	-1.5121963655	-0.9899303242	 1.1339250852	 0.092991
H	 1.4415012936	-1.7254174869	 1.4942309434	 0.116117
H	 0.1161532368	-2.3878270057	 2.4441586071	 0.090281
H	 0.6163812355	-4.0361837942	 0.8117215296	 0.09932
H	-0.9057010171	-3.3216860767	 0.3335163689	 0.103313
H	 1.3818244463	-3.6346839088	-1.3571553766	 0.084718
H	 1.0471000407	-1.7357835371	-2.67673805	 0.086523
H	-1.3575743057	-0.8251046167	-1.4499634449	 0.10962
H	-0.1203727109	 0.2078748391	-2.1412780227	 0.104492
