20
gdb 94169	2.45885	1.4132	1.17404	3.04	74.92	-0.239	0.0365	0.2755	1150.0267	0.169641	-440.317003	-440.307147	-440.306202	-440.352128	36.894	
C	 0.5124198042	 1.6057784701	-0.0814026596	-0.428825
C	 0.0055427829	 0.1902930452	 0.1725052167	-0.010598
C	 0.5416317852	-0.8809665368	-0.82057413	-0.221912
C	 1.5699193438	-1.344270186	 0.2446836152	-0.266635
C	 0.7631516827	-0.5657640568	 1.3282739283	 0.288077
O	 1.4860795402	 0.1994785288	 2.2729340759	-0.49762
C	-0.1852542775	-1.4969186414	 2.0881803168	 0.38755
N	-0.0798085557	-1.4508105795	 3.4381891894	-0.537833
O	-0.9649896884	-2.2230237621	 1.4944865918	-0.387185
H	 1.5929258445	 1.629874264	-0.2747780218	 0.100073
H	 0.0249606379	 2.0288446957	-0.9655689648	 0.123768
H	 0.3057100901	 2.2660736596	 0.7668432475	 0.12387
H	-1.0796794815	 0.1963305448	 0.2948086807	 0.087905
H	-0.2014153662	-1.6512430683	-1.0239284294	 0.131802
H	 0.9496433449	-0.5039566258	-1.7621175916	 0.087713
H	 1.6947790343	-2.4172402984	 0.3987573108	 0.116145
H	 2.5568720898	-0.8904240542	 0.106198085	 0.087197
H	 2.1345376705	 0.7323667185	 1.8043072455	 0.283085
H	 0.5708253628	-0.8217109416	 3.8753090083	 0.274929
H	-0.6848546545	-2.0361205657	 3.9887528054	 0.258492
