19
gdb 53011	4.22397	0.88246	0.82516	1.3056	85.85	-0.2169	0.0553	0.2722	1470.006	0.159123	-385.857863	-385.848901	-385.847957	-385.893272	32.743	
C	 0.0546004938	 1.5134816492	-0.229653716	-0.507501
C	 0.0203271315	 0.0644695367	-0.0943631875	 0.257918
C	-0.0110819572	-1.1356684929	 0.0170425488	-0.199592
C	-0.0331164152	-2.5595319275	 0.156795459	 0.151529
C	-0.4569197135	-3.4463574893	-1.021582606	-0.368007
C	-1.3140090073	-3.3778029376	 0.2084555347	 0.087861
O	-1.2130209222	-4.3852989218	 1.1714080271	-0.254283
C	 0.1716242594	-4.575034419	 1.4696004099	-0.101893
C	 0.8752474515	-3.2296480761	 1.1902491198	-0.305501
H	 0.8683374783	 1.9463584552	 0.3631149925	 0.147317
H	 0.2111456731	 1.8150535886	-1.2715990073	 0.145906
H	-0.8805609508	 1.9724856908	 0.1110428036	 0.145802
H	-0.8157062465	-2.9253660275	-1.9015246557	 0.124915
H	 0.1130214124	-4.3461007533	-1.2277600132	 0.116812
H	-2.2988834108	-2.9284134975	 0.1804316006	 0.113409
H	 0.2468794503	-4.8972217619	 2.5113131831	 0.114883
H	 0.5872687403	-5.3731161526	 0.8393872786	 0.101301
H	 1.9014228507	-3.3711074375	 0.8395924232	 0.11028
H	 0.9059152923	-2.6035883461	 2.0866165548	 0.118844
