23
gdb 64194	2.40031	1.4258	1.34397	1.4616	85.	-0.2341	0.0798	0.3139	1148.4225	0.204819	-388.274958	-388.265565	-388.264621	-388.308873	36.334	
C	-0.5696261441	 1.4033363701	 0.2344804591	-0.461525
C	-0.0108296813	-0.0008483693	 0.0289127293	 0.257962
C	-1.1122566637	-0.9587102766	-0.43858725	-0.421812
C	 1.2759505076	-0.1177400538	-0.849573615	-0.26315
C	 1.8689973592	-1.113443375	 0.1818560004	-0.300895
C	 0.8112117088	-0.6411110449	 1.2017518289	 0.442093
C	 1.2411423418	 0.1633936656	 2.451377679	-0.35968
C	 0.5660460543	-0.9719557368	 3.2409677856	-0.072968
O	 0.167025601	-1.6347404019	 2.0248975077	-0.314487
H	 0.206879289	 2.1112661608	 0.5420387934	 0.108402
H	-1.0079139618	 1.7816876333	-0.6963273426	 0.11296
H	-1.3589174185	 1.4136283021	 0.995669096	 0.113033
H	-1.561262714	-0.5931596597	-1.368760103	 0.104096
H	-0.7271113657	-1.9660229806	-0.6213376892	 0.117373
H	-1.8991942522	-1.0453274687	 0.3162037603	 0.120581
H	 1.1373490313	-0.4834579886	-1.8699923889	 0.096168
H	 1.8337341976	 0.8223139042	-0.8903588621	 0.094499
H	 1.6956864187	-2.1567398477	-0.0942732527	 0.114881
H	 2.91898101	-0.9966798782	 0.4631458444	 0.092536
H	 2.3196565263	 0.2625902806	 2.5890218744	 0.107034
H	 0.7752327338	 1.1429399773	 2.5650571347	 0.111353
H	 1.2364728068	-1.5956426849	 3.8448350225	 0.100786
H	-0.297041115	-0.6854160073	 3.8537846378	 0.100761
