15
gdb 1171	4.15926	1.89126	1.76673	5.7183	57.27	-0.271	0.0247	0.2957	777.5164	0.124491	-341.841438	-341.833463	-341.832519	-341.873087	28.987	
C	 0.1344057607	 1.572642172	-0.0338420607	-0.416617
C	 0.013369659	 0.0371537415	-0.0267012291	 0.227349
O	 0.6358226193	-0.5082701511	 1.1179523507	-0.453121
C	-1.4743312641	-0.4264047353	-0.0586090247	-0.197666
N	-2.0584167077	-0.1875060615	 1.2625326903	-0.528839
C	 0.6914945986	-0.5101814568	-1.2196926675	 0.281183
N	 1.1865178273	-0.9187836585	-2.1800494473	-0.338313
H	 1.1853944231	 1.8585528451	 0.0402246103	 0.148216
H	-0.2884917935	 2.0060012145	-0.9451738949	 0.12688
H	-0.3909637302	 1.9804671288	 0.8350082936	 0.117514
H	-0.0761444481	-0.5135354504	 1.7818649713	 0.29056
H	-2.0007991836	 0.0671396789	-0.8858156407	 0.112942
H	-1.4855270031	-1.5025686502	-0.2479284646	 0.134988
H	-2.4644642524	 0.7384500548	 1.3324530293	 0.245015
H	-2.7930356453	-0.854969952	 1.461712444	 0.249909
