17
gdb 22352	2.44062	1.36979	0.92136	2.7203	73.85	-0.2588	-0.0139	0.245	1233.813	0.135008	-455.130912	-455.122113	-455.121169	-455.165197	32.295	
C	-0.2098664606	 1.6065983928	 0.1240594238	-0.390272
C	 0.0955136213	 0.1194402711	 0.0128055093	 0.047841
O	 0.9701208948	-0.1260810007	-1.1062119776	-0.252505
C	 2.0849099839	-0.8433233705	-0.7654347173	 0.406188
N	 2.9836590813	-1.1938225239	-1.5773634964	-0.535111
C	 2.0789274819	-1.1463730674	 0.7164286035	-0.416503
C	 0.8345176758	-0.4668167203	 1.2009845251	 0.371309
N	 0.3881404118	-0.3389682691	 2.3824174193	-0.225533
O	 1.2315128826	-0.9626026623	 3.311212412	-0.384472
H	 0.7097055666	 2.1773198688	 0.2802563617	 0.127434
H	-0.6962123037	 1.9638534383	-0.7872780527	 0.129588
H	-0.8747634013	 1.7772108022	 0.9745712057	 0.141438
H	-0.8322796628	-0.4380120119	-0.1708520963	 0.114193
H	 2.759540387	-0.8727158681	-2.5208019215	 0.223581
H	 2.0572325189	-2.2257068158	 0.9007045774	 0.164567
H	 2.9789267138	-0.7681119818	 1.2097129139	 0.166665
H	 0.7880509988	-0.7848115416	 4.1479725902	 0.311592
