18
gdb 2577	2.91128	2.65812	1.76506	2.2564	63.32	-0.246	0.0656	0.3116	793.4395	0.160118	-326.950279	-326.942327	-326.941383	-326.982336	29.25	
C	 0.0807210463	 0.620493106	 0.9330702955	-0.378657
C	 0.3159853491	-0.7332494471	 0.2479149302	-0.266151
C	 0.6715073516	-0.6391786186	-1.2271809059	 0.324424
C	 1.9719302323	 0.0684354328	-1.5869138009	-0.110807
O	 1.830183419	 1.4776560585	-1.5485367968	-0.417121
C	 0.1472540592	-1.6710146964	-2.1578030853	-0.289185
N	-0.3958992463	-0.298327493	-2.1962568941	-0.359206
H	 0.9546457582	 1.2689240331	 0.8462123252	 0.14626
H	-0.7623425316	 1.1514076697	 0.477320009	 0.109067
H	-0.1495606288	 0.4786901738	 1.9935017669	 0.107865
H	 1.1209770868	-1.2708384901	 0.7662433494	 0.103276
H	-0.580963538	-1.3577142843	 0.3539062625	 0.087774
H	 2.7603067732	-0.1877351651	-0.8710570807	 0.104413
H	 2.3037238352	-0.2637747221	-2.5822215258	 0.088162
H	 1.0535421994	 1.6656234653	-2.0913400455	 0.290287
H	 0.7195511713	-1.9602931673	-3.0351975289	 0.117889
H	-0.476181858	-2.4609802757	-1.7468334306	 0.111154
H	-1.2970477587	-0.2738018094	-1.7245563741	 0.230557
