18
gdb 10980	2.89463	2.41349	1.75526	1.0735	71.72	-0.2259	0.0146	0.2405	821.819	0.153827	-347.769856	-347.762526	-347.761581	-347.800743	29.608	
C	-0.1787845295	 1.5349265077	 0.0257246014	-0.434659
C	 0.0182670102	 0.0252284106	 0.0289672826	 0.030962
C	 1.1862812275	-0.6041277812	-0.8352348055	-0.091299
C	 2.1528490478	-0.208668524	 0.3332168461	-0.287441
C	 0.8863575265	-0.6104250336	 1.1735413655	 0.374624
O	 0.6605082853	-0.2001449444	 2.4844837561	-0.493803
C	 0.7756497698	-2.0999832733	 0.7971811477	-0.167603
C	 0.9747583248	-2.0910062154	-0.5234719622	-0.082252
H	 0.7526703591	 2.0989733217	 0.1156416161	 0.117332
H	-0.6715191778	 1.8504705284	-0.9005389386	 0.112488
H	-0.822769566	 1.8282818716	 0.8613412107	 0.130053
H	-0.9456081527	-0.4730313256	-0.1103688985	 0.067983
H	 1.3693320662	-0.2987018833	-1.8638002684	 0.062555
H	 3.0519995837	-0.8165722056	 0.4580789603	 0.08667
H	 2.3931395212	 0.8552790932	 0.3804114727	 0.098445
H	 1.2884153168	-0.6506767687	 3.0592568053	 0.27893
H	 0.5552016507	-2.9101556027	 1.4787340278	 0.096866
H	 0.9727727166	-2.9043134156	-1.2355990992	 0.100149
