18
gdb 119946	2.5705	0.95805	0.86034	3.6805	73.08	-0.2647	0.0216	0.2863	1398.7594	0.146438	-439.074093	-439.064338	-439.063394	-439.109404	34.667	
O	 0.2068068011	 1.3478480952	-0.028053113	-0.416826
C	 0.0185909105	-0.0340714866	 0.2204801338	-0.059739
C	-1.3163093451	-0.5485706202	-0.332272687	-0.232364
C	-1.4582151047	-2.0454058672	-0.1604470857	-0.061344
C	-1.9190187026	-2.6345307161	 1.1342675952	 0.093647
O	-2.224506138	-1.7368378725	 2.146570005	-0.402425
C	-2.8357485257	-2.7178814462	-0.092609649	-0.263474
C	-4.0323562005	-1.9303280196	-0.0993193396	 0.295208
N	-5.0094261101	-1.3099313263	-0.0807539226	-0.344572
H	-0.4641653655	 1.8292122303	 0.4666918896	 0.2849
H	 0.8534363993	-0.5402204979	-0.2779219591	 0.10656
H	 0.0865683541	-0.2680956098	 1.2933216712	 0.106743
H	-2.1374678965	-0.0379824996	 0.1798493755	 0.123184
H	-1.3854882422	-0.2889788057	-1.3943808454	 0.115934
H	-0.7237929543	-2.6372959124	-0.7003467385	 0.107812
H	-1.4830723202	-3.5783267282	 1.4602412533	 0.106397
H	-3.0338070932	-2.0193004296	 2.5872935907	 0.304706
H	-2.9383839564	-3.6868161377	-0.5697321044	 0.135655
