19
gdb 66354	2.35509	1.46303	1.34332	1.6988	76.44	-0.2574	0.0357	0.2931	1082.484	0.158703	-422.996874	-422.988259	-422.987315	-423.029564	33.628	
C	 0.0087722233	 1.5091546418	 0.0645677271	-0.424028
C	-0.030879592	-0.0193264007	-0.0129626842	 0.161621
C	 0.701832162	-0.5467668895	-1.2696338274	-0.222317
C	 0.9470390221	-2.0514515414	-1.1438729384	-0.102659
O	 1.6135902337	-2.3384863525	 0.078934328	-0.23381
C	 0.8660986187	-1.8788750008	 1.171148622	 0.008003
O	 0.6725365072	-0.4833149463	 1.1522065143	-0.263712
C	-1.4300703243	-0.4863419452	 0.0060929854	 0.368573
C	-2.5761305577	-0.8500409611	 0.0149606478	-0.520615
H	 1.0493150796	 1.8430199843	 0.0902018807	 0.126457
H	-0.4903882325	 1.9481822672	-0.8031099934	 0.124095
H	-0.4939336869	 1.8511934954	 0.9718293268	 0.135149
H	 0.122914422	-0.3207179415	-2.1703931263	 0.107055
H	 1.6648954973	-0.0302322277	-1.3350526742	 0.111329
H	-0.0080490027	-2.5985280465	-1.1910162088	 0.1037
H	 1.5922229042	-2.417525419	-1.9464301541	 0.112341
H	-0.1111151213	-2.391143626	 1.2052125974	 0.089718
H	 1.4422218957	-2.095974091	 2.072546393	 0.117421
H	-3.5892797283	-1.1692277896	 0.0291736344	 0.20168
