17
gdb 1083	4.63514	1.37628	1.36228	1.3077	69.1	-0.2426	0.0502	0.2928	1005.3115	0.144474	-309.69928	-309.689948	-309.689004	-309.734317	32.465	
C	-0.0100132819	 1.4606717183	 0.0236542378	-0.497527
C	 0.0103924057	 0.0049470577	 0.0166008782	-0.00511
C	 0.034848267	-1.1980892951	 0.0235604896	 0.175901
C	 0.0373623012	-2.6651503193	-0.0141834442	 0.155387
C	-1.4097001219	-3.193745565	 0.0173300564	-0.402238
C	 0.7761672837	-3.1567722334	-1.2738886002	-0.402293
O	 0.7384657596	-3.1009820475	 1.160228295	-0.453767
H	 1.0049588991	 1.8729596845	 0.0199093932	 0.149504
H	-0.5303458948	 1.8536763415	-0.8568544666	 0.146771
H	-0.5226724363	 1.8474018959	 0.9112315419	 0.149459
H	-1.9813629691	-2.8315158174	-0.8416166494	 0.122526
H	-1.4089723563	-4.2900744028	-0.0102424243	 0.099955
H	-1.9052179531	-2.866234404	 0.9337636203	 0.131887
H	 1.8094186327	-2.8034012418	-1.2605422004	 0.131889
H	 0.7791468209	-4.2530668058	-1.3028296253	 0.099959
H	 0.2906848477	-2.7930864236	-2.1837413747	 0.122544
H	 0.743804726	-4.0647539024	 1.1403356227	 0.275153
