14
gdb 28652	6.00001	1.03996	0.88694	4.1421	85.77	-0.221	-0.0377	0.1832	1230.0973	0.101963	-395.745726	-395.738038	-395.737094	-395.777716	29.462	
N	-0.016359733	 1.4138691029	 0.1281635319	-0.594963
C	 0.0019005773	 0.0332662585	 0.0430214188	 0.283673
C	-1.1697069601	-0.7373872939	 0.0339492027	-0.062124
N	-1.1615534711	-2.0621885626	 0.0105437177	-0.269894
C	 0.0382825204	-2.6638892041	-0.0050730015	 0.163735
N	 1.2214141439	-2.0297891754	-0.0037927492	-0.269894
C	 1.1938314681	-0.7052505803	 0.01973157	-0.062125
C	 0.0575967312	-4.0950198013	-0.0285891188	 0.255248
C	 0.0738318792	-5.2974505036	-0.0481095269	-0.362803
H	 0.8140999703	 1.8879403163	-0.1943557137	 0.258137
H	-0.8632475275	 1.865125554	-0.1842054883	 0.258136
H	-2.1454627485	-0.2520609488	 0.0463710772	 0.105337
H	 2.1561120024	-0.1935770366	 0.0204954596	 0.105337
H	 0.0882303674	-6.3590571151	-0.0649349195	 0.192198
