18
gdb 78952	2.47842	2.15549	1.57726	2.1956	73.26	-0.2277	0.0639	0.2916	904.4885	0.148303	-401.859724	-401.852521	-401.851576	-401.890857	29.518	
C	-0.0016565152	 1.4938133864	 0.027321726	-0.509446
C	 0.0388022914	-0.0052199387	-0.042382554	 0.308107
C	-1.1725073831	-0.8429321397	 0.4137441627	-0.164731
C	-0.5466542939	-2.2597113509	 0.370893547	-0.117452
C	-0.3940602978	-1.3813106831	 1.5735171731	-0.021907
N	 0.8875225089	-0.7986273098	 0.9906718828	-0.22441
C	 0.8655845494	-1.8895099603	-0.1040549183	-0.063006
C	 0.731491219	-0.7951017631	-1.1780225818	 0.108458
O	 0.067875522	-1.0437905026	-2.3841383606	-0.440717
H	 1.002847234	 1.9125101561	-0.085710233	 0.127622
H	-0.6340333458	 1.8953386595	-0.7729301128	 0.123778
H	-0.4084727531	 1.834234272	 0.9853146482	 0.123254
H	-2.2350485191	-0.6598088519	 0.3157854044	 0.091167
H	-1.1293942539	-3.1622311234	 0.2405542531	 0.094651
H	-0.6145200645	-1.5118621523	 2.6252068762	 0.098942
H	 1.6535802667	-2.6418534298	-0.1063011864	 0.076374
H	 1.7036254225	-0.3560571646	-1.4200110884	 0.102968
H	-0.7827631974	-1.4425332338	-2.1654366982	 0.286348
