18
gdb 36466	2.79908	1.0833	0.84167	3.8407	82.07	-0.2701	0.0191	0.2892	1349.7223	0.147031	-364.786101	-364.77709	-364.776146	-364.820368	33.133	
C	-0.0678911157	-1.1376030454	-0.2975653924	-0.416474
C	-0.0625672985	 0.0637009635	-0.2584595323	 0.287889
C	-0.018383149	 1.519745542	-0.205699297	-0.384988
C	 1.3817661057	 2.0350765614	 0.1638590116	-0.00445
C	 2.4457574393	 1.8608486222	-0.9569809276	-0.225912
C	 2.2625917724	 3.3500233322	-1.3523288451	-0.229262
C	 1.5608498711	 3.5911530329	 0.0219775714	-0.15848
C	 0.3825778071	 4.439899431	 0.0608046791	 0.277042
N	-0.5684027423	 5.0984306398	 0.0767910133	-0.337006
H	-0.0912751024	-2.1986148687	-0.3323022177	 0.197706
H	-0.3275319716	 1.9320278226	-1.1750489208	 0.139497
H	-0.749211245	 1.8908734757	 0.5232415078	 0.150484
H	 1.6581648832	 1.6434157797	 1.1447794617	 0.095864
H	 3.4403676302	 1.6577457879	-0.5530343066	 0.112151
H	 2.2204989557	 1.110942119	-1.7173507207	 0.121917
H	 3.1581710074	 3.9433091825	-1.5421274668	 0.118436
H	 1.5712709813	 3.4837737129	-2.1864665102	 0.128362
H	 2.2777894309	 3.9539798588	 0.7637249121	 0.127225
