17
gdb 15135	9.70878	0.71066	0.69189	2.5209	68.08	-0.2622	0.0221	0.2843	1579.454	0.140877	-400.967637	-400.958859	-400.957915	-401.002888	29.468	
N	-0.0391390467	 1.2200414526	-0.0044329549	-0.437748
C	-0.1185046673	-0.0194436982	-0.2287086871	 0.127062
O	-1.1349573524	-0.7346448788	 0.2887496503	-0.183327
C	-1.0846338057	-2.1487081291	 0.100779034	-0.06804
C	-2.4744059188	-2.7072047645	 0.3819417373	-0.235622
C	-2.5004570483	-4.2106064327	 0.2616037769	 0.089528
C	-3.6305622936	-4.9296687677	-0.3368768617	-0.177891
O	-2.4165532149	-4.7424086264	-1.0660503736	-0.236368
H	 0.7701817777	 1.6072411321	-0.4851829301	 0.228872
H	 0.5737699359	-0.6180570327	-0.8379002235	 0.084811
H	-0.783771648	-2.3904623637	-0.9265155823	 0.125745
H	-0.3442862053	-2.5863046061	 0.7853324554	 0.108444
H	-2.7816530024	-2.4120400037	 1.3920352915	 0.121936
H	-3.1866262261	-2.2647968617	-0.3215838992	 0.120115
H	-1.88769852	-4.7512553881	 0.9861390714	 0.095428
H	-3.8423927051	-5.9543563232	-0.0352728092	 0.118638
H	-4.487813839	-4.3668999281	-0.7040708953	 0.118418
