24
gdb 58116	2.82423	0.99667	0.89998	4.1197	89.22	-0.3089	0.0332	0.3421	1435.0866	0.214995	-368.444988	-368.433836	-368.432892	-368.480937	41.541	
C	 0.1205900093	 1.529107735	-0.0857919413	-0.415228
C	-0.0093722737	 0.0028663309	 0.059476259	 0.033709
C	 0.8241520273	-0.4544602746	 1.2697534576	-0.412806
C	-1.4942960939	-0.4963219343	 0.0694785648	 0.261711
C	-2.2567020581	-0.0569481511	 1.3328189488	-0.427902
C	-2.2344448049	 0.0217290017	-1.1799896682	-0.43296
C	-1.4689038778	-2.0562791609	 0.0050548087	-0.369127
C	-2.7948345623	-2.6674565783	-0.0629245848	 0.272362
N	-3.8469807235	-3.1440318171	-0.1127831607	-0.32528
H	 1.1782617935	 1.8103767635	-0.1052604107	 0.115174
H	-0.332748556	 1.9025185563	-1.0063506038	 0.119467
H	-0.3387826633	 2.0571184687	 0.7565998924	 0.119242
H	 0.4472279189	-0.4421271479	-0.8372238324	 0.07081
H	 1.8643611159	-0.1392918205	 1.1412905998	 0.118037
H	 0.4634557169	-0.0060452018	 2.2010469212	 0.122778
H	 0.8345410417	-1.5397085096	 1.4019362024	 0.112729
H	-2.2768809089	 1.0325096745	 1.4234013883	 0.119163
H	-3.2938407317	-0.402994761	 1.2931298571	 0.1387
H	-1.8084534085	-0.4633007432	 2.2443866556	 0.115958
H	-1.6711826462	-0.1943965305	-2.095216201	 0.110516
H	-3.2175209185	-0.449127452	-1.2720383665	 0.139923
H	-2.3940588149	 1.1012352683	-1.1304200121	 0.121458
H	-0.8991886132	-2.3815774936	-0.8737823867	 0.143523
H	-0.9634426678	-2.4706507426	 0.8822412024	 0.148046
