17
gdb 15981	3.8032	1.6137	1.26482	2.1537	72.62	-0.2416	0.0298	0.2714	998.0894	0.141802	-363.842125	-363.834092	-363.833148	-363.874985	28.792	
C	 0.0944121947	 1.378804623	-0.0170059144	-0.339023
N	 0.2831663921	-0.0638435023	-0.0657349631	-0.346404
C	 0.5693349354	-0.6830361365	 0.9814501912	 0.435071
O	 0.758834192	-0.2355535595	 2.2884630987	-0.28353
C	 1.035105581	-1.5935069403	 2.7565013642	-0.146541
C	 0.8322031314	-2.105274795	 1.3339208491	 0.174475
C	 0.1260221477	-3.3240008922	 0.8119472804	-0.314459
C	 1.5908811428	-3.1229631993	 0.5307050963	-0.314464
H	 0.8032570997	 1.8579182543	-0.7017014862	 0.12514
H	-0.9109909651	 1.6225853432	-0.3782498565	 0.125106
H	 0.2231697	 1.8133547077	 0.98114587	 0.126142
H	 2.0472007517	-1.667898349	 3.1645919048	 0.119384
H	 0.2975993105	-1.90808475	 3.5005004359	 0.119382
H	-0.1587060964	-4.0853174886	 1.5307536642	 0.120294
H	-0.5795093838	-3.1684017753	 0.0033531772	 0.139569
H	 1.8874039384	-2.8298473709	-0.4702780886	 0.139566
H	 2.3049613978	-3.7471975291	 1.0577497768	 0.120293
