20
gdb 109250	3.52681	1.21224	1.05065	2.5364	80.27	-0.2067	0.0266	0.2333	1192.4134	0.172912	-403.109952	-403.101972	-403.101027	-403.142495	31.378	
O	 0.0367367278	 1.4093964182	-0.0208778022	-0.41314
C	-0.0141499935	-0.0031982646	-0.0051895927	-0.188266
C	-1.4346019881	-0.4760194849	 0.0201920656	 0.320264
C	-2.5106050944	 0.3120364695	 0.0232349653	-0.169889
C	-3.8800016171	-0.3413169556	 0.050845351	-0.219852
N	-3.8226738379	-1.8197385418	 0.0711989691	-0.122266
C	-2.7958295785	-2.2403559789	 1.0957875221	-0.168427
C	-1.6876261751	-1.9749049584	 0.0447967056	-0.128594
C	-2.8234453207	-2.2697340293	-0.9681297914	-0.168446
H	 0.9598890173	 1.6753405503	-0.0455052264	 0.290257
H	 0.4898254689	-0.4346010696	-0.8898764591	 0.09388
H	 0.515062355	-0.4159094299	 0.8736976404	 0.093797
H	-2.4274576362	 1.3930419282	 0.0070304355	 0.103656
H	-4.4485185157	-0.0114956864	 0.9308612578	 0.109788
H	-4.4719995333	-0.0365552952	-0.8227006251	 0.109754
H	-2.781396078	-1.6516471425	 2.0166753786	 0.102799
H	-2.9336898486	-3.3005835913	 1.3302819604	 0.099608
H	-0.7746306877	-2.5780935295	 0.041149447	 0.052741
H	-2.9671154072	-3.3361450762	-1.1686411612	 0.099607
H	-2.8339402669	-1.7074543222	-1.9054505502	 0.10273
