24
gdb 59460	2.66275	1.06167	0.8465	1.541	87.04	-0.2248	0.0703	0.2952	1482.7825	0.214758	-405.525238	-405.514404	-405.51346	-405.560667	40.654	
C	-1.5726945153	-0.4794330177	 0.7010523448	-0.396883
C	-0.3393606276	 0.4166074786	 0.5576522335	 0.112811
O	-0.7077157707	 1.7974262922	 0.593233779	-0.422523
C	 0.6939217072	 0.0869942068	 1.6194474442	-0.01376
C	 1.6780736277	-1.0158887943	 1.415254698	-0.261468
N	 2.1257356046	 0.3643086812	 1.5203900475	-0.082527
C	 2.7123548781	 0.9963763357	 0.3329856516	 0.079012
C	 2.5819907941	 2.5159040648	 0.453808392	-0.398255
C	 4.1753239075	 0.5559681295	 0.2355940497	-0.383318
H	-2.0079215835	-0.3823157845	 1.7034291673	 0.10823
H	-2.332593482	-0.190112867	-0.0295804162	 0.125045
H	-1.317562901	-1.5324943108	 0.5487801087	 0.120902
H	 0.0887701804	 0.2748115349	-0.4392639284	 0.092971
H	-1.0462501392	 1.9868276674	 1.4758478094	 0.276915
H	 0.3071564752	 0.2361965665	 2.6312337048	 0.077037
H	 1.9512517568	-1.6844802812	 2.2279141378	 0.110789
H	 1.6902957901	-1.479342389	 0.4272940494	 0.102506
H	 2.2011780229	 0.6713486322	-0.5902248197	 0.056601
H	 3.0902706916	 2.8659497916	 1.3583292407	 0.113936
H	 3.0383351829	 3.0085673717	-0.4107415893	 0.103693
H	 1.530671558	 2.8075585068	 0.5058433553	 0.138699
H	 4.2568776997	-0.5316989484	 0.1416226556	 0.108974
H	 4.6555843459	 1.0090352063	-0.6371658972	 0.108958
H	 4.7238295265	 0.8602759964	 1.1325751415	 0.121655
