16
gdb 125542	5.13787	1.31421	1.06035	3.1445	78.28	-0.2285	-0.0365	0.192	1102.9416	0.127241	-396.9735	-396.966335	-396.965391	-397.005249	27.085	
C	-0.0166319813	 1.4153166109	-0.0440006472	-0.484167
C	 0.0053507828	-0.0750336684	 0.0142110533	 0.328101
N	-0.0414462985	-0.8262590622	-1.090561954	-0.324283
N	 0.0011170028	-2.0695876735	-0.5691685137	 0.054958
C	-0.0093084232	-3.4162253474	-1.0943842334	-0.234712
C	 0.0664238512	-4.2137928009	 0.1972030444	-0.095205
C	 0.1108971668	-3.3970808684	 1.2654827097	-0.194003
C	 0.0690902794	-2.0240967361	 0.7779171416	 0.378396
N	 0.0744721586	-0.7710674517	 1.1964505448	-0.401723
H	 0.8835998574	 1.834157697	 0.4167531735	 0.13776
H	-0.073399258	 1.749974428	-1.081095197	 0.137355
H	-0.8761392779	 1.8116990593	 0.5058000798	 0.137757
H	-0.9237777357	-3.6229919867	-1.662492323	 0.151895
H	 0.8472047163	-3.601492309	-1.7530338408	 0.151874
H	 0.0802054366	-5.294440584	 0.2042460879	 0.123854
H	 0.1675239828	-3.6812223669	 2.3056719044	 0.132143
