19
gdb 53457	3.83157	0.53311	0.48191	1.6096	89.48	-0.2452	0.0367	0.2819	2293.0433	0.15531	-385.835842	-385.824371	-385.823427	-385.875799	38.462	
C	 0.0842129357	 1.5303749079	 0.0221822521	-0.496153
C	 0.0486497298	 0.0752330814	 0.0430906607	 0.0684
C	 0.0134855887	-1.1267837494	 0.0592757424	 0.084986
C	-0.0240356449	-2.5908522925	 0.0801285055	-0.499353
C	-1.3782542915	-3.1487734051	 0.0282220628	 0.041081
C	-2.4914450035	-3.6039203948	-0.0293016843	 0.09019
C	-3.8425801347	-4.1751174416	-0.0438086966	-0.014025
C	-3.8066563381	-5.7088809869	 0.0263332064	-0.382365
O	-4.6607474865	-3.6246069119	 0.9871050635	-0.414445
H	 0.6551174843	 1.903071178	-0.8353599968	 0.147843
H	-0.9261230816	 1.948407067	-0.0453470147	 0.152215
H	 0.5488294802	 1.9313064967	 0.9297102569	 0.147567
H	 0.5577097531	-2.9860058707	-0.7647920323	 0.157743
H	 0.4865553196	-2.959399086	 0.981116241	 0.154768
H	-4.3428790841	-3.8791846681	-0.9740584669	 0.116996
H	-3.3086817987	-6.0381311375	 0.9440622812	 0.115183
H	-4.8287266952	-6.0965154057	 0.0219948615	 0.124412
H	-3.2609742377	-6.125803317	-0.8252603675	 0.123072
H	-4.1668338048	-3.693026444	 1.8116491951	 0.281886
