18
gdb 67388	2.80291	1.59117	1.45355	2.8694	75.88	-0.2181	-0.0132	0.2049	988.2647	0.148667	-401.933662	-401.926241	-401.925297	-401.965326	29.526	
C	-0.0333791257	 1.5004028182	 0.0072603172	-0.504902
C	 0.0018955337	 0.0069175422	-0.0298801962	 0.343989
C	 0.5350352088	-1.0126262275	-0.98813094	-0.129849
C	 1.2384308534	-1.7004719532	 0.1637133129	-0.191394
N	 0.4848788842	-0.8215829568	 1.1380476369	-0.163688
C	-0.6974381857	-1.5506241612	 1.6221815438	-0.298836
C	-1.5647222357	-1.8135826999	 0.3725411881	 0.401083
O	-2.5356902051	-2.5235786492	 0.2955795681	-0.32976
C	-0.9829665449	-0.9330754534	-0.6907365495	-0.214085
H	 0.9502700849	 1.9081861164	 0.2599920705	 0.134132
H	-0.3352562529	 1.9017017821	-0.9649062617	 0.126814
H	-0.7490025702	 1.8579682684	 0.7559777633	 0.130311
H	 0.8857021553	-0.8821313494	-2.0055444798	 0.100214
H	 1.0878004651	-2.7771778162	 0.3016770766	 0.109355
H	 2.308175396	-1.4770433419	 0.2070309376	 0.116771
H	-0.426521866	-2.4730076798	 2.1417103318	 0.13132
H	-1.2635035964	-0.9237934772	 2.32253492	 0.129889
H	-1.6077543187	-0.6107638017	-1.5145071896	 0.108635
