19
gdb 99324	4.16644	0.79832	0.74252	3.0048	72.54	-0.268	0.0056	0.2736	1564.1808	0.157945	-460.178574	-460.168985	-460.168041	-460.214299	34.016	
O	 0.0204526969	 0.8559698893	 0.8564322414	-0.420041
C	-0.1272965524	-0.1758423781	-0.0766835578	-0.141415
C	-1.5257672387	-0.7656545747	-0.0135657259	 0.419767
O	-2.3620716825	-0.3546354118	 0.7594764008	-0.378115
O	-1.6951993041	-1.7484098392	-0.8990478516	-0.241007
C	-2.9924010657	-2.4029224017	-0.9348239601	-0.104166
C	-3.0010181568	-3.652443259	-0.1008412518	 0.005042
C	-3.2743170163	-3.5720231206	 1.3813776512	-0.25603
C	-4.3169884112	-4.1420284737	 0.456719473	-0.27201
H	-0.8348288706	 0.9215492793	 1.3067290072	 0.296085
H	 0.0487830714	 0.1807052029	-1.1025489122	 0.124787
H	 0.5938265136	-0.9874143608	 0.1024845586	 0.124938
H	-3.7505875149	-1.6947689519	-0.5929917823	 0.134091
H	-3.1526770451	-2.6260537799	-1.9927090765	 0.120552
H	-2.3000433879	-4.4141174649	-0.429500647	 0.093291
H	-2.7379197798	-4.2534842683	 2.0319508907	 0.116027
H	-3.4473797952	-2.5881830637	 1.8011441935	 0.141747
H	-5.2037843517	-3.5474476349	 0.263304004	 0.118096
H	-4.4955422592	-5.2111107285	 0.4678386648	 0.118362
