21
gdb 89589	4.09545	0.98469	0.94907	2.1831	78.13	-0.2389	0.072	0.3109	1310.5236	0.183201	-424.215775	-424.207068	-424.206124	-424.249756	33.101	
O	 0.0997657131	 1.4572864225	 0.1931283891	-0.430764
C	 0.0891747097	 0.0533003801	 0.0828780858	 0.147456
C	 0.2761799591	-0.8021400067	 1.3670040496	-0.312869
C	-0.9250090417	-1.6833091546	 0.8977134514	 0.321154
C	-1.3236205357	-0.5418182304	-0.0749650252	-0.317798
C	-0.5082244015	-3.0223109387	 0.2688223143	-0.29111
C	-0.5099524701	-3.9463929456	 1.4885605334	-0.064077
O	-1.5595478876	-3.4780463044	 2.3335639537	-0.265002
C	-1.9359787976	-2.1578593218	 1.9435850677	-0.122951
H	 1.0113315588	 1.7468607504	 0.3012740411	 0.281672
H	 0.7570054279	-0.2860040316	-0.7216794744	 0.066077
H	 1.2396688137	-1.2953092287	 1.5264663991	 0.0916
H	 0.0217646515	-0.2100815304	 2.2511024982	 0.103875
H	-2.0563148455	 0.1345022103	 0.3766592734	 0.112404
H	-1.6598157658	-0.8171409232	-1.0778252023	 0.098006
H	-1.2631870858	-3.346679911	-0.4571320671	 0.103689
H	 0.4592585933	-2.988161387	-0.2396225812	 0.098954
H	-0.7011095913	-4.995671543	 1.2394957996	 0.102038
H	 0.452544255	-3.8957371063	 2.021777387	 0.089628
H	-1.9571536843	-1.5105593473	 2.8289141713	 0.09768
H	-2.9512162454	-2.1778744226	 1.5167551255	 0.090338
