22
gdb 63586	3.03998	1.22655	1.04419	1.1139	82.25	-0.2364	0.0747	0.3111	1249.7376	0.194259	-404.336295	-404.327022	-404.326078	-404.370354	35.333	
C	-0.0809727238	 1.527423795	 0.0076454922	-0.437094
C	-0.0495010131	 0.0126042975	 0.0742902401	 0.268514
C	-1.2622894136	-0.6518378952	-0.5489164606	-0.463709
N	 1.2836280626	-0.5889813069	-0.1665305731	-0.411582
C	 0.681076981	-0.6738502133	 1.1772275652	 0.263883
C	 1.3978837857	 0.0410609297	 2.3236009182	-0.286348
C	 1.7321162189	-1.124506174	 3.2594219951	-0.089857
O	 0.6278008959	-2.0142932988	 3.1330120694	-0.249133
C	 0.2533520116	-2.0305544009	 1.7660175642	-0.150336
H	 0.8360116225	 1.961330861	 0.4097504571	 0.127272
H	-0.1831716075	 1.8612988408	-1.0311071222	 0.11661
H	-0.9318294865	 1.9260781837	 0.5718572362	 0.113077
H	-1.3604775849	-0.3538964325	-1.5992449613	 0.12201
H	-1.1990565473	-1.7433188782	-0.516499494	 0.114873
H	-2.1845895797	-0.3542774359	-0.0369158788	 0.123904
H	 1.1780546956	-1.4809433949	-0.6488031638	 0.215941
H	 2.2780401791	 0.5822897749	 1.9729590961	 0.116483
H	 0.7252632783	 0.7448279965	 2.8255283829	 0.106748
H	 2.6682641777	-1.6176381036	 2.9497163256	 0.092392
H	 1.818034364	-0.8485233356	 4.3131734113	 0.108427
H	-0.8246062521	-2.2133606986	 1.7207525133	 0.110112
H	 0.7617470456	-2.8519532007	 1.2315641369	 0.08781
