15
gdb 9188	6.68682	0.89116	0.83899	4.6866	64.29	-0.2604	0.0201	0.2805	1328.6783	0.118347	-396.026952	-396.017698	-396.016754	-396.06238	30.576	
C	-0.0135339824	 1.3885395011	-0.3346450314	-0.324549
N	-0.0592217403	 0.0139515039	 0.1334847257	-0.365365
C	-1.2359501557	-0.6919363005	 0.0906990665	 0.520318
O	-2.3151252063	-0.1987241383	-0.1882642291	-0.402418
N	-1.0942203218	-2.0364417609	 0.4096608705	-0.37068
C	-2.2761057694	-2.8595373735	 0.5331191514	-0.280134
C	-2.1322433104	-4.1421024043	-0.1685898791	 0.259642
N	-2.0082971207	-5.1619093687	-0.6967028671	-0.30284
H	 0.7292944498	 1.9511851738	 0.2373864484	 0.1254
H	 0.2303154671	 1.4622357147	-1.4021753174	 0.127464
H	-0.9983963048	 1.8282277818	-0.1779564524	 0.170663
H	 0.8013391354	-0.5091818303	 0.100453313	 0.241539
H	-0.2572775182	-2.3484441127	 0.8748702073	 0.249244
H	-2.5403678777	-3.0657814351	 1.5792669414	 0.151791
H	-3.0989200847	-2.2839517011	 0.0978951823	 0.199927
