19
gdb 58694	3.12805	1.01065	0.85379	1.4992	71.85	-0.2528	-0.0305	0.2223	1362.7539	0.15591	-460.148619	-460.138884	-460.13794	-460.183795	35.358	
C	 0.0686452505	 1.528233946	 0.3437445469	-0.413622
C	-0.0212709882	 0.0585678656	-0.0832011344	 0.068289
O	 0.87086011	-0.738425157	 0.6750693579	-0.430939
C	-1.446093622	-0.505031101	 0.0231717725	 0.356694
C	-2.5475460864	 0.2871968204	-0.6654607905	-0.370605
C	-3.9342767494	-0.3078327685	-0.5150118299	 0.147704
O	-4.7125291247	-0.4430241131	-1.4238681425	-0.243056
C	-1.6111110496	-1.9415540116	 0.2796271839	-0.232771
O	-1.7558694762	-0.9807455533	 1.3454917846	-0.284672
H	 1.1191627227	 1.8272726862	 0.3612888875	 0.132617
H	-0.4637018481	 2.1930743849	-0.3428305604	 0.119614
H	-0.3450342556	 1.6663752716	 1.3491071959	 0.12357
H	 0.3060236931	-0.0371747154	-1.1260860859	 0.099284
H	 0.4656252983	-0.8296457664	 1.5485864935	 0.289411
H	-2.5885650462	 1.2921064092	-0.2224393212	 0.13704
H	-2.3297536797	 0.4049976851	-1.7317325409	 0.132525
H	-4.199129597	-0.5948001492	 0.5246938486	 0.103664
H	-2.5329468684	-2.4410276568	-0.0142623745	 0.127178
H	-0.7301955631	-2.5719441467	 0.351313419	 0.138075
