21
gdb 113579	3.6246	0.96797	0.90859	1.5168	79.07	-0.2407	0.087	0.3277	1393.7785	0.182275	-424.211849	-424.202706	-424.201762	-424.246675	33.602	
C	-0.1058019211	 1.5155883937	 0.1673061321	-0.372558
C	 0.3146681232	 0.0627975686	-0.0869969308	-0.203458
C	 0.8639899594	-0.609569413	 1.1539959593	-0.059613
C	-0.0749679017	-1.2422645765	 2.1750010312	-0.370173
C	 0.8326503558	-2.103286176	 1.3658729641	 0.377171
C	 0.4085342011	-3.126957209	 0.3105260408	-0.160614
O	 1.4773637094	-4.0726677173	 0.2948724535	-0.253417
C	 2.5209819148	-3.5149154352	 1.0630194352	 0.014872
O	 1.9143988364	-2.7081456225	 2.0414616087	-0.266093
H	 0.7449102843	 2.1180907203	 0.5034231852	 0.116865
H	-0.5050916011	 1.9780831271	-0.7406150807	 0.111629
H	-0.876594051	 1.5707736689	 0.9429357771	 0.119942
H	-0.5484202487	-0.5024624289	-0.4611827999	 0.094689
H	 1.0670426317	 0.0331268571	-0.886152603	 0.100087
H	 1.7392461673	-0.1291726803	 1.5855307214	 0.093586
H	 0.1572010784	-1.1342404034	 3.2286727821	 0.126273
H	-1.1362806469	-1.265843997	 1.9433519691	 0.113225
H	-0.5133161944	-3.6538459098	 0.5805456915	 0.112825
H	 0.2782396643	-2.6740798628	-0.6802957162	 0.10668
H	 3.0795885389	-4.3165864578	 1.5538715349	 0.118035
H	 3.1936119399	-2.9132541661	 0.4240231843	 0.080046
