18
gdb 16702	3.59827	1.81707	1.58786	1.6008	66.38	-0.252	0.0834	0.3354	879.4793	0.155141	-384.917048	-384.910002	-384.909058	-384.947896	28.248	
C	-0.1704006373	 1.5193977567	 0.0194481344	-0.418509
C	 0.0698901108	 0.0109165306	 0.0415126253	 0.035424
C	 1.0000771324	-0.5540728239	-1.0901733197	-0.249474
C	 2.0209654611	-1.2627104463	-0.1867724725	 0.02919
O	 1.1636818895	-1.9103801687	 0.8206145138	-0.330688
C	 0.8872673595	-0.5247744161	 1.2339221001	 0.011925
C	 2.3695974916	-0.2087374774	 0.8957282393	 0.191759
O	 3.296002574	-0.6261529286	 1.8579178124	-0.455543
H	 0.7673803357	 2.0845381368	 0.0245189497	 0.119316
H	-0.7247662812	 1.8107575449	-0.8783905857	 0.121655
H	-0.7566426147	 1.8390789178	 0.8879322522	 0.118165
H	-0.8930636887	-0.5085705145	 0.0272917175	 0.084644
H	 0.4872744695	-1.2528991913	-1.7539335729	 0.110484
H	 1.4560215619	 0.2334550237	-1.6988589137	 0.101185
H	 2.7701794558	-1.9231573695	-0.6243086045	 0.08149
H	 0.4846301167	-0.4341866763	 2.2438015313	 0.079066
H	 2.6507020471	 0.7996340194	 0.5844001328	 0.08333
H	 3.0251274364	-1.5177469573	 2.1154478001	 0.28658
