12
gdb 130524	4.16451	1.70128	1.20785	1.761	68.42	-0.2732	-0.0864	0.1868	904.9685	0.080641	-431.686647	-431.680942	-431.679998	-431.716678	22.466	
O	-0.0509565979	 1.3162348631	 0.0096768905	-0.248315
N	 1.3422628995	 1.7743253494	-0.0008202028	 0.00961
N	 2.1014238039	 0.7886725131	-0.0138882904	-0.185722
C	 1.3654376683	-0.391022435	-0.0135282314	 0.275582
C	 0.0241435937	-0.0161110099	 0.0014029522	 0.320275
C	-0.9762338813	-0.9911926123	 0.005388797	-0.085595
N	-0.6383122581	-2.2742102607	-0.0051382922	-0.258648
C	 0.6633828307	-2.6288743274	-0.0195706527	 0.018864
C	 1.7254689153	-1.7349194242	-0.0246116786	-0.248534
H	-2.0311881946	-0.736908204	 0.0168893979	 0.140761
H	 0.8542388325	-3.6975166269	-0.0274964688	 0.126583
H	 2.7572526881	-2.0619642252	-0.0363357907	 0.135139
