16
gdb 47663	2.31325	1.91282	1.33335	1.4745	65.83	-0.2621	-0.0251	0.237	967.4724	0.124953	-475.03122	-475.023537	-475.022593	-475.063526	28.67	
O	 0.0907688591	-0.0213205885	-0.0054083703	-0.303579
C	-0.0310492091	 1.1701952142	 0.0080710268	 0.382947
C	-1.3634020742	 1.9215262393	 0.0307564346	-0.176092
O	-1.3561179456	 2.8903073625	-1.0188638398	-0.224029
C	-1.1264043774	 2.3408559168	-2.2656529444	 0.097896
N	-0.0363376484	 2.3422926175	-2.8938798316	-0.203413
C	 1.1745712953	 2.917883579	-2.3078008308	-0.153291
C	 1.8099999034	 2.0188230514	-1.2413917193	-0.09946
O	 0.9997472408	 2.0550491466	-0.0558149417	-0.228882
H	-2.1807578404	 1.2001583265	-0.0815695226	 0.132205
H	-1.4876947163	 2.4778625657	 0.9629445061	 0.14816
H	-2.0144971541	 1.8937916991	-2.7190167994	 0.121301
H	 1.8999053708	 3.0568929937	-3.1161497938	 0.113424
H	 0.975445927	 3.8938929075	-1.8498456655	 0.128856
H	 1.9193739985	 0.9864917545	-1.5878048721	 0.139255
H	 2.7894417206	 2.4098306944	-0.9574224263	 0.124703
