19
gdb 96908	3.04999	1.18172	0.9573	2.7067	80.07	-0.2262	0.0226	0.2488	1282.1949	0.157382	-419.170942	-419.16122	-419.160276	-419.206074	34.964	
C	-0.1326669564	 1.3616994361	-0.442471137	-0.332417
N	-0.0940477293	-0.0883905928	-0.3324325666	-0.328285
C	-1.0345190853	-0.668856175	 0.2758785676	 0.360317
N	-2.2179924322	-0.3006433786	 0.9223000143	-0.404283
C	-2.7680015006	-1.6556115379	 0.8136409183	 0.367666
C	-3.8094231206	-2.2821028678	 1.6723262448	-0.339073
C	-4.0568575386	-2.058393413	 0.1828530586	-0.319168
C	-1.3592662683	-2.1566623281	 0.4041395087	-0.047252
O	-1.2335076942	-2.9218814783	-0.7608686514	-0.431112
H	 0.4520462796	 1.6760837748	-1.3114088815	 0.126795
H	-1.1494808955	 1.7717919441	-0.5537258394	 0.091566
H	 0.3173007179	 1.8301827631	 0.442612747	 0.128483
H	-2.7324830732	 0.552398024	 0.7459172081	 0.24227
H	-3.645259128	-3.2956845201	 2.0242821909	 0.123589
H	-4.3469576635	-1.6474016308	 2.3697467262	 0.115403
H	-4.7644695707	-1.2835347001	-0.0960446424	 0.11057
H	-4.0336501443	-2.9128202706	-0.4853974795	 0.134914
H	-0.841740322	-2.6548912568	 1.2323472894	 0.10382
H	-0.8456308348	-2.346899162	-1.4313994662	 0.296198
