15
gdb 24467	3.95332	1.66706	1.1726	5.9683	84.56	-0.193	-0.0324	0.1606	974.6018	0.118156	-379.74297	-379.736926	-379.735982	-379.773133	25.1	
N	-0.0075058635	 1.3392648639	 0.0099686459	-0.299506
C	 1.1383150285	 2.0945084122	 0.0026789466	-0.006681
C	 2.3669398991	 1.4927623856	-0.0129953893	-0.240431
C	 2.4357286862	 0.0853241927	-0.0215235799	 0.293951
N	 3.5023612619	-0.7084440231	-0.0366194562	-0.366013
C	 2.9852856975	-1.9830056434	-0.0385177022	-0.033969
C	 1.6022249834	-2.0458646305	-0.0250689309	-0.326622
C	 1.1843730696	-0.6897750634	-0.0132881161	 0.257052
C	-0.0111581911	-0.0201416928	 0.0024371482	-0.115139
H	-0.8933034374	 1.8191951668	 0.0215220317	 0.271333
H	 0.9907543708	 3.1654586093	 0.0101238144	 0.131556
H	 3.2679358844	 2.0939671476	-0.0186792877	 0.116929
H	 3.6634137647	-2.8286806384	-0.050014979	 0.093246
H	 0.9805411943	-2.9282356452	-0.0237838905	 0.087535
H	-0.9871391285	-0.4907299314	 0.009592245	 0.136761
