13
gdb 20623	3.33033	1.95627	1.24186	5.1307	63.9	-0.2701	-0.08	0.19	905.7458	0.094884	-398.60535	-398.598122	-398.597177	-398.637413	25.019	
C	-0.0136732926	 1.5357233528	 0.0627617545	-0.514978
C	 0.0124325095	 0.041647331	 0.0019246896	 0.084224
C	 0.001148256	-0.797942931	-1.0831930203	 0.260328
O	 0.036946365	-2.0858974385	-0.6753247718	-0.192731
N	 0.0727051868	-2.1207308575	 0.6984886696	-0.11195
C	 0.0582868552	-0.8700799495	 1.0936851056	-0.0211
C	-0.0416178895	-0.5249949242	-2.5229286291	 0.077835
O	-0.0458375913	-1.3695518107	-3.3853227952	-0.254118
H	 0.8883005546	 1.9237458313	 0.5481527398	 0.150452
H	-0.0768525497	 1.9839901149	-0.9306140493	 0.142567
H	-0.8718498923	 1.8884729594	 0.6444899016	 0.149919
H	 0.0807959237	-0.6520020722	 2.1524035899	 0.14213
H	-0.0703906954	 0.5583178741	-2.763709235	 0.087421
