21
gdb 40826	3.60034	1.16141	0.99677	1.6795	79.06	-0.2575	0.0907	0.3482	1263.7813	0.184363	-424.219484	-424.21133	-424.210386	-424.252399	31.902	
C	-0.2037882478	 1.3776778002	-0.1826095451	-0.247561
C	 1.2098392293	 0.9778215806	 0.159965974	-0.270121
C	 0.1301101393	-0.0681558604	 0.0703969857	-0.030531
C	-0.3646856074	-0.7644723472	 1.3097898309	 0.202934
O	-0.3861488258	 0.1437119091	 2.3872379323	-0.252831
C	-0.8409024279	-0.4661758333	 3.5875611274	-0.076185
C	-2.2271520353	-1.0801704538	 3.3828574041	-0.205872
C	-2.1760297669	-1.9903182867	 2.1537807939	-0.077477
O	-1.647722404	-1.2862454399	 1.0387217185	-0.252408
H	-0.7722823561	 1.8936507113	 0.5809635195	 0.125835
H	-0.4286157343	 1.6737710989	-1.2009429381	 0.106012
H	 1.9626285626	 0.9990688112	-0.6201710929	 0.105744
H	 1.5688151425	 1.2334704003	 1.1497351964	 0.122964
H	 0.14613343	-0.7307564506	-0.7885462588	 0.091828
H	 0.3035937647	-1.6085149431	 1.5796715989	 0.049932
H	-0.1259172574	-1.2453776343	 3.9030138115	 0.088851
H	-0.8464959167	 0.3164539916	 4.3506476816	 0.110589
H	-2.5339195783	-1.6438202985	 4.2710878873	 0.097196
H	-2.956781938	-0.2816317852	 3.2129533533	 0.114911
H	-1.5540118425	-2.8771375054	 2.3678855371	 0.08606
H	-3.16984199	-2.338501115	 1.8604958825	 0.110132
