21
gdb 121660	5.95097	0.5778	0.5548	3.8042	81.16	-0.2429	-0.0081	0.2348	2013.3048	0.180621	-424.232301	-424.22198	-424.221036	-424.269073	36.33	
O	 0.0134614092	 1.4161971486	-0.0001076261	-0.419378
C	 0.0379199167	-0.0021716054	-0.0199942612	-0.077589
C	-1.4017074788	-0.4953176606	 0.0280590534	-0.162627
C	-1.4966172159	-2.0184652565	 0.0112747784	-0.319432
C	-2.9231098214	-2.5479648738	 0.0569452871	 0.380178
O	-3.8860453379	-1.8100359729	 0.1020559197	-0.3311
C	-3.0734901681	-4.0332422498	 0.043168103	-0.101936
C	-4.2393516441	-4.6242745798	 0.8238285227	-0.246989
C	-4.2946030312	-4.6048986933	-0.6639422877	-0.247
H	 0.9204731081	 1.7339116568	-0.0289020798	 0.284909
H	 0.5324622848	-0.3797065629	-0.9311490216	 0.080305
H	 0.5997531907	-0.4034100637	 0.840606576	 0.080302
H	-1.8864370435	-0.1018817961	 0.9269264354	 0.121282
H	-1.9528576693	-0.078562108	-0.8206145759	 0.121358
H	-1.0156111059	-2.4389841511	-0.8845163853	 0.120637
H	-0.9511706475	-2.4622430323	 0.8575459718	 0.120631
H	-2.1569764862	-4.6113902151	 0.0016444057	 0.084617
H	-4.0667089647	-5.5655724396	 1.3326681395	 0.117023
H	-4.8548812112	-3.9073193243	 1.3548181455	 0.138892
H	-4.9470909901	-3.8749129563	-1.1289543344	 0.138898
H	-4.1611693837	-5.5324630338	-1.2085354561	 0.117021
