23
gdb 101166	2.41217	1.07416	0.89247	2.0313	81.91	-0.2298	0.0511	0.2809	1435.8979	0.203547	-425.406565	-425.395808	-425.394864	-425.442771	39.716	
C	-0.0707065908	 1.5505014902	 0.2014589769	-0.391244
C	-0.1746330335	 0.0220725737	 0.2002536473	-0.170586
C	-1.5569505708	-0.5269744279	-0.2046146755	 0.041853
C	-1.9592109307	-0.1629395159	-1.6419699066	-0.401763
C	-1.5944088545	-2.0371242406	-0.0328922921	-0.086775
C	-1.8407658176	-2.6935631272	 1.3050678557	 0.002177
O	-2.1410460457	-1.8245835124	 2.373966912	-0.424817
C	-2.8956247584	-2.7771104235	 0.2250317218	 0.070746
O	-4.0771583599	-2.0601229745	 0.4267161103	-0.431101
H	 0.9095579175	 1.8742062916	 0.565789793	 0.108648
H	-0.2031508501	 1.9733149694	-0.7990716666	 0.116286
H	-0.8298079317	 1.9967268923	 0.8540894276	 0.113212
H	 0.5883291884	-0.3967959285	-0.4712084109	 0.084663
H	 0.0592753019	-0.3528987533	 1.2033309764	 0.10471
H	-2.297318828	-0.0861128377	 0.4719356389	 0.072792
H	-2.9503219031	-0.564480348	-1.8703770105	 0.129363
H	-1.9926722735	 0.9200282348	-1.7916637528	 0.109652
H	-1.248002743	-0.5784008897	-2.3665438212	 0.103829
H	-0.8811671842	-2.5686360937	-0.6611476039	 0.082162
H	-1.2560571184	-3.5682864047	 1.5826025702	 0.089414
H	-2.544876462	-2.3503383437	 3.0733328618	 0.296433
H	-3.0803847117	-3.7192771564	-0.2823213898	 0.096451
H	-3.95842394	-1.5802097745	 1.2582189578	 0.283895
