19
gdb 61247	3.30249	0.84376	0.80453	3.3643	76.57	-0.2582	0.0283	0.2864	1488.0697	0.158034	-419.198791	-419.188849	-419.187905	-419.234487	35.44	
C	 0.504040311	 1.5738635671	-0.4010722465	-0.422923
C	 0.1819521807	 0.1506132559	-0.031123598	 0.079419
O	 1.2814351977	-0.7522386756	 0.1817970982	-0.271258
C	 0.4203263632	-0.4616835219	 1.2840092098	 0.072573
C	 1.040910208	 0.2417517573	 2.4744875509	-0.013506
N	-0.0144218421	 0.573803547	 3.4231024776	-0.518468
C	 2.188406104	-0.6547601983	 3.0339474891	-0.343607
C	 2.8211005246	-0.0456239856	 4.1981698242	 0.250758
N	 3.2826975436	 0.4740354647	 5.122042517	-0.30958
H	 1.3419694487	 1.9687420168	 0.1764084057	 0.131685
H	 0.7698175239	 1.6336028853	-1.4613749959	 0.133282
H	-0.3688194328	 2.2138879412	-0.2356301481	 0.134469
H	-0.622559247	-0.2930398631	-0.6212295974	 0.095119
H	-0.2286002296	-1.2958559661	 1.5698165191	 0.085894
H	 1.4966953202	 1.1804838453	 2.1483077755	 0.105617
H	-0.4285781696	-0.2715620772	 3.8079263307	 0.228403
H	 0.3694795685	 1.0916020643	 4.2082142172	 0.25057
H	 1.7884259752	-1.6353526132	 3.3207400296	 0.141952
H	 2.9349309417	-0.825029964	 2.2512257412	 0.169601
