22
gdb 6803	6.16852	0.69561	0.65172	1.7693	76.17	-0.2544	0.0765	0.3309	1780.6561	0.197398	-387.338854	-387.328243	-387.327299	-387.375158	36.959	
C	-0.1195031581	 1.4644300889	 0.4732340923	-0.382408
C	-0.3267148421	-0.0412073354	 0.6536188494	-0.183591
C	-1.376125308	-0.6015557763	-0.2963724192	-0.02573
O	-1.5082320601	-1.9886384678	-0.0657992076	-0.248533
C	-2.4497492051	-2.6138152978	-0.906910417	-0.064173
C	-2.5064187104	-4.10659166	-0.5719763665	 0.108895
C	-2.9319293337	-4.3653208218	 0.8699535111	-0.39661
O	-3.3433243008	-4.7732095887	-1.5109512421	-0.430232
H	 0.6396744901	 1.8420882985	 1.1640433631	 0.11769
H	 0.2096166912	 1.7034576882	-0.5441166645	 0.11687
H	-1.0445877853	 2.0207959013	 0.6608060967	 0.116046
H	 0.6143363506	-0.5778250764	 0.4870968843	 0.107229
H	-0.6346573197	-0.2626411598	 1.6820243157	 0.10541
H	-2.3450477399	-0.0949405528	-0.1407025436	 0.081723
H	-1.0835235249	-0.4151727004	-1.3444760876	 0.084173
H	-3.4525726967	-2.1655601291	-0.7717739068	 0.067714
H	-2.1782914226	-2.4937746136	-1.9677040281	 0.093948
H	-1.5064238676	-4.5243846603	-0.735323813	 0.09867
H	-3.94453751	-3.9786689528	 1.0474377736	 0.099024
H	-2.9317950334	-5.4375679169	 1.0833775149	 0.120378
H	-2.2558219889	-3.8594272382	 1.5633898573	 0.136425
H	-4.2549033346	-4.5328804091	-1.3114030525	 0.27708
