12
gdb 879	6.70299	2.129	1.61579	0.4363	51.65	-0.1637	0.0726	0.2363	700.6426	0.09023	-360.536972	-360.53016	-360.529215	-360.567257	25.03	
O	 0.0341268529	 1.3409249121	 0.2115363828	-0.43929
C	 0.0592819431	-0.0015723438	-0.0096314892	 0.364305
C	 0.0816174054	-0.7836089193	-1.1295188384	-0.282157
C	 0.1022910761	-2.156318337	-0.6800859507	-0.282156
C	 0.0911994146	-2.1250643701	 0.6856107841	 0.364303
O	 0.100888449	-3.077017792	 1.6579987482	-0.43929
N	 0.0647928052	-0.8139802558	 1.1000263177	-0.332459
H	 0.0329555196	 1.782842398	-0.6424997193	 0.305043
H	 0.0833909735	-0.4397884445	-2.1520130261	 0.083496
H	 0.1226664612	-3.0379803895	-1.3013482459	 0.083496
H	 0.1146122464	-3.9382959457	 1.2305858234	 0.305044
H	 0.0524302531	-0.5014837725	 2.0550579633	 0.269664
