19
gdb 76722	3.35193	0.90905	0.81519	5.7679	73.08	-0.2616	0.0177	0.2792	1437.7533	0.157244	-460.163753	-460.153876	-460.152932	-460.199281	34.933	
C	 0.0397124216	 1.4017170128	-0.3771725754	-0.419633
C	 0.1138548642	-0.05222168	 0.0417520259	-0.068215
C	 1.4445716356	-0.7228738628	 0.3093529585	 0.067298
O	 2.6097035898	 0.0552719717	 0.3249276236	-0.411994
C	 0.4886944867	-0.4891234447	 1.4506022087	-0.060808
C	 0.814303096	 0.5014339192	 2.5407850213	-0.114427
O	 1.3988708593	-0.1618956899	 3.6779365697	-0.185713
C	 2.7339242067	-0.355207774	 3.6552739401	 0.153543
O	 3.3109246372	-0.9122771387	 4.5421139127	-0.282306
H	 0.8967625715	 1.9742287958	-0.015465876	 0.128825
H	 0.0255368939	 1.483608486	-1.4696363904	 0.119031
H	-0.8711989581	 1.8799502143	-0.002695321	 0.12604
H	-0.6302284932	-0.6852954892	-0.4349960265	 0.093222
H	 1.5914415643	-1.7468534304	-0.0307786786	 0.096424
H	 2.8704345062	 0.234687717	-0.584506865	 0.296118
H	-0.0265441569	-1.3680566861	 1.8270497165	 0.10605
H	 1.4851299835	 1.2866191841	 2.1833663514	 0.12734
H	-0.0930262121	 0.9699888039	 2.9297226168	 0.12471
H	 3.2151968537	 0.0512968411	 2.7477480176	 0.104495
