23
gdb 108210	2.94081	1.3301	1.21919	1.2875	84.03	-0.2608	0.0759	0.3367	1154.5031	0.209102	-388.314204	-388.305944	-388.305	-388.346681	33.517	
O	-0.085376938	 1.4249881312	 0.0118208589	-0.428503
C	-0.0322858822	 0.0018450402	-0.0042901716	-0.176638
C	-1.4506380936	-0.5266856187	 0.0129198569	 0.35949
C	-2.2605916444	-0.1537133307	 1.2822888565	-0.229299
C	-3.4229874598	-1.1968543133	 1.2920672062	-0.215964
C	-3.1505847713	-2.036876243	 0.0241358912	-0.001322
C	-3.463445511	-1.1699426619	-1.2160411509	-0.215965
C	-2.3009645056	-0.1268654366	-1.2213912056	-0.229299
C	-1.6077946833	-2.065739283	-0.0010563443	-0.271187
H	 0.8157899844	 1.7598481029	 0.0011846025	 0.2862
H	 0.4890863408	-0.3614605049	-0.905609842	 0.078019
H	 0.5177575295	-0.3805186759	 0.8717472677	 0.07802
H	-1.63429544	-0.2516082915	 2.1755642486	 0.086734
H	-2.6097846642	 0.8805205546	 1.2485512781	 0.105082
H	-3.3823871181	-1.8224264561	 2.1893998476	 0.090165
H	-4.412605447	-0.7303353605	 1.2698696681	 0.090651
H	-3.6496436148	-3.0082971357	 0.0217638927	 0.051048
H	-3.4520450446	-1.7761056308	-2.1274299843	 0.090165
H	-4.4516637125	-0.7043353669	-1.1519203933	 0.090651
H	-2.648515627	 0.9062929188	-1.1542646593	 0.105083
H	-1.7038230029	-0.2053968351	-2.1362828039	 0.086738
H	-1.1978024869	-2.5325133094	-0.903419106	 0.085065
H	-1.1690849774	-2.5516191739	 0.8773995662	 0.085064
