20
gdb 55823	3.69043	0.97595	0.91867	4.0535	78.81	-0.2342	0.0395	0.2737	1336.3179	0.171525	-403.153607	-403.144651	-403.143707	-403.188365	33.672	
N	 0.2464203413	 0.0875088132	 1.0511909358	-0.509416
C	-0.141066597	 0.0538050464	-0.2576970414	 0.378205
O	 0.2412818858	 0.8685980295	-1.0742979438	-0.36485
C	-1.1404071227	-1.0506469349	-0.6146271501	-0.319529
C	-0.9783625278	-2.3600302229	 0.1343006525	-0.022892
C	-1.5229034116	-2.6670104615	 1.5139166694	-0.075555
C	-2.9071233236	-2.0386989352	 1.7357920912	-0.233271
C	-3.4386202226	-2.8015702795	 0.4794997804	-0.22814
C	-2.0446035123	-3.4118865457	 0.2769096292	-0.08972
H	 0.9274078112	 0.7765287346	 1.3245392361	 0.256697
H	 0.0092718521	-0.6525496654	 1.6884703305	 0.26411
H	-2.1407652939	-0.6314096783	-0.4590434639	 0.127767
H	-1.0409817758	-1.2098491382	-1.6919169451	 0.12913
H	 0.0017545239	-2.8112406202	-0.013369198	 0.095375
H	-0.8815699988	-3.0443245461	 2.3034680237	 0.084397
H	-3.3809837155	-2.3864138586	 2.6558663139	 0.107735
H	-2.9556930095	-0.9450136659	 1.7180134947	 0.102009
H	-4.1864522324	-3.5513186633	 0.7450978894	 0.106983
H	-3.834408339	-2.2003812957	-0.3449838538	 0.102572
H	-1.8561898518	-4.4368341924	-0.0203013208	 0.088392
