20
gdb 14991	4.20534	1.34718	1.09165	1.4286	76.92	-0.2329	0.032	0.2648	1116.4072	0.178835	-349.020029	-349.011985	-349.01104	-349.052371	30.745	
O	-0.0330431934	 1.4478408695	 0.0060507443	-0.422852
C	 0.0284110258	 0.0283018603	-0.0026542293	-0.091912
C	-1.4025439904	-0.5146053806	 0.0377315449	-0.006593
C	-1.4222552765	-2.037351463	-0.1708158565	-0.213698
C	-2.8034345538	-2.6229594422	 0.1469943826	-0.211152
C	-3.1891484045	-2.3602656883	 1.6098326713	-0.235523
C	-2.868930884	-0.9484813816	 2.0286574838	-0.070912
C	-2.093945868	-0.1256093381	 1.3229112082	-0.03879
H	 0.8615722167	 1.7885594205	 0.093015438	 0.286609
H	 0.5332851209	-0.3395356467	-0.9108473652	 0.081574
H	 0.5886127702	-0.3518465753	 0.8667575765	 0.085571
H	-1.9285230262	-0.0327476128	-0.8013298064	 0.088394
H	-1.1274356369	-2.2794102584	-1.198312955	 0.090034
H	-0.674951831	-2.5012177726	 0.4887226413	 0.092638
H	-3.5483990282	-2.1581674927	-0.5115272385	 0.099527
H	-2.8227893144	-3.6974364282	-0.0647044674	 0.088864
H	-4.2575286869	-2.5605516516	 1.7617188753	 0.0993
H	-2.6651273261	-3.0665625453	 2.2718049393	 0.103346
H	-3.3091805744	-0.6014524485	 2.9612306381	 0.079531
H	-1.914295129	 0.8895070455	 1.6651619148	 0.096043
