12
gdb 23710	5.98716	1.55336	1.23451	3.1182	60.69	-0.2243	-0.0485	0.1758	873.6521	0.085514	-418.860531	-418.8543	-418.853356	-418.890806	23.901	
N	-0.0079957807	 1.3773905638	 0.1765131044	-0.56898
C	-0.0092476918	 0.0009464915	 0.0659454696	 0.36688
C	-1.2024221044	-0.7446056862	 0.0397317079	-0.071874
N	-1.1952960621	-2.0721922591	-0.0131319644	-0.272917
C	-0.0165441068	-2.6547423791	-0.0339466868	 0.29305
F	 0.0067524542	-3.9850655247	-0.0842951724	-0.073662
C	 1.1774602258	-1.9446980515	-0.0108851746	-0.1388
N	 1.1787785082	-0.6144918062	 0.0342383359	-0.291774
H	 0.8721464135	 1.8064387839	-0.0679769834	 0.260225
H	-0.8161455765	 1.8630470071	-0.1796370619	 0.256369
H	-2.1720871531	-0.2530949138	 0.0626640374	 0.112348
H	 2.1343577638	-2.4572925656	-0.0353560218	 0.129135
