22
gdb 103879	2.33137	1.25375	1.00559	0.9263	88.16	-0.2246	0.0396	0.2642	1307.4958	0.191173	-367.150287	-367.139845	-367.138901	-367.185429	39.06	
C	-0.0438171336	 0.8465370861	-0.6168302614	-0.388004
C	 0.2225094163	-0.5432555502	-0.0198418559	-0.256541
C	 0.8690532355	-0.532038128	 1.36125802	 0.345513
C	 0.0741401515	 0.1838739801	 2.440119474	-0.440284
C	 1.7116666242	-1.7010164932	 1.7634208233	-0.304167
N	 2.3227947852	-0.394896953	 1.5448134761	-0.124981
C	 3.2747849879	-0.1784917474	 0.4496204081	-0.285767
C	 3.3663324752	-1.1749551854	-0.6236198441	 0.300744
C	 3.4846836576	-2.010303733	-1.4815476331	-0.464219
H	 0.8782348961	 1.4283622536	-0.717724227	 0.117393
H	-0.4854396593	 0.7548845561	-1.6138760278	 0.114612
H	-0.736530791	 1.4300546183	-0.003212955	 0.119709
H	-0.7312153796	-1.0810987187	 0.0657563979	 0.096602
H	 0.8388473747	-1.1226071842	-0.7109096367	 0.118951
H	-0.9328242956	-0.2409541211	 2.526324066	 0.109871
H	 0.5750928085	 0.0911664901	 3.4063580431	 0.121906
H	-0.029107139	 1.2514493506	 2.2209810014	 0.117873
H	 1.7148248961	-2.0581512167	 2.7914659251	 0.104264
H	 1.8819356309	-2.4709654307	 1.0132316956	 0.117447
H	 3.0728288818	 0.8081070286	 0.0165339968	 0.13807
H	 4.2677146577	-0.1054708519	 0.9128869493	 0.141126
H	 3.5828788587	-2.73819432	-2.2487696958	 0.199883
