23
gdb 96143	2.37997	1.61837	1.2058	1.4186	84.22	-0.257	0.0762	0.3332	1131.3222	0.209216	-388.293932	-388.285909	-388.284965	-388.325846	33.427	
O	-0.084446666	 1.4412863014	 0.0496184543	-0.444208
C	-0.0030244451	 0.0169681517	-0.0059579532	 0.124675
C	 0.9047986589	-0.5018071366	 1.1228965082	-0.221493
C	 0.9315599305	-2.0263297629	 1.3054642574	-0.209336
C	-0.336384592	-2.6333291638	 1.9362134487	-0.201129
C	-1.6744865794	-2.2358317137	 1.29380945	 0.015425
C	-1.6084524974	-2.010865732	-0.2458798747	-0.252618
C	-1.4488403732	-0.4865315863	 0.0163278295	 0.021459
C	-2.0416123498	-0.7277987603	 1.4320938526	-0.231748
H	 0.8107024234	 1.7861072543	 0.1312577696	 0.276444
H	 0.4361380459	-0.2924617792	-0.9715895677	 0.057489
H	 1.9249747657	-0.1509281048	 0.9131095975	 0.079701
H	 0.6028589453	-0.0156218727	 2.0584991004	 0.104347
H	 1.1282220267	-2.5011777151	 0.3357312987	 0.098623
H	 1.7854334185	-2.2915093377	 1.9395465053	 0.092937
H	-0.2377996692	-3.7259582024	 1.9043928943	 0.091449
H	-0.3728164172	-2.3632759318	 3.0006068887	 0.09332
H	-2.4480709385	-2.929760071	 1.6359194884	 0.059387
H	-0.8219476624	-2.5215826028	-0.8095994862	 0.08915
H	-2.5663995618	-2.2278526107	-0.7259029262	 0.094792
H	-2.0229359221	 0.1715976501	-0.6403743408	 0.073689
H	-3.1250250576	-0.5803622188	 1.4390629879	 0.092422
H	-1.6161645832	-0.1686169947	 2.269574127	 0.095221
