18
gdb 52154	4.08076	0.93114	0.87557	5.4022	73.78	-0.2461	0.0109	0.2569	1344.5652	0.148237	-439.014024	-439.006	-439.005055	-439.047881	29.455	
O	 0.374433637	 0.4365283772	 1.535945577	-0.274929
C	 0.4441652787	 1.5959045798	 1.2620749994	 0.183653
O	 0.6452664629	 2.0266213141	-0.0030642773	-0.179945
C	 0.7605534128	 3.4435417442	-0.2001099666	-0.16115
C	 2.1963655927	 3.8794205837	 0.0173803778	 0.082611
C	 2.6762399155	 5.3525627134	 0.0061281345	-0.086028
C	 2.0055016477	 5.4673875516	 1.3908951776	-0.180301
N	 2.6777571928	 4.0804080747	 1.4772610862	-0.153196
C	 3.8713978779	 4.795008918	 0.8125497767	-0.16435
H	 0.3447357349	 2.4221528442	 1.9894920148	 0.088674
H	 0.4731656825	 3.6149747949	-1.2412285545	 0.132299
H	 0.0418694601	 3.9670996682	 0.437235327	 0.116111
H	 2.841259423	 3.1721853586	-0.5154552606	 0.093753
H	 2.6779755582	 6.0667507562	-0.8245521806	 0.072363
H	 2.4247975911	 6.1858179463	 2.0995276438	 0.110155
H	 0.9175776211	 5.4555104495	 1.4652238117	 0.102033
H	 4.5639872539	 4.1137900234	 0.3119759697	 0.110342
H	 4.3943081473	 5.4767016417	 1.4873510635	 0.107903
