22
gdb 58518	2.62156	1.27218	1.20497	1.906	80.72	-0.2272	0.0647	0.2919	1187.0672	0.193123	-404.300019	-404.290566	-404.289622	-404.333727	36.733	
C	 0.1204348585	 1.4999185037	-0.1261687985	-0.422665
C	 0.0244041263	-0.0085907271	 0.1128601142	 0.078248
O	 0.6589887258	-0.3849306797	 1.3340254395	-0.438676
C	-1.4098151531	-0.5650531	 0.0406200736	 0.331642
C	-2.3153491423	-0.0103047913	 1.1437892085	-0.479052
C	-2.1205336449	-0.5562632943	-1.3476149814	-0.23019
N	-2.376496755	-2.0410473719	-1.3044866258	-0.131728
C	-1.0399299227	-2.6611966593	-1.3049493669	-0.253755
C	-1.5321438306	-2.0948599597	-0.0364651381	-0.05709
H	 1.1691476195	 1.8090567771	-0.1295379089	 0.126584
H	-0.3252776187	 1.7831026037	-1.0852877884	 0.121826
H	-0.3944856392	 2.0656763171	 0.6589587704	 0.11148
H	 0.6169510998	-0.5115150097	-0.659450486	 0.082
H	 0.3192518022	 0.1858567565	 2.0309955536	 0.279085
H	-2.4508379811	 1.0723857155	 1.0545925667	 0.116334
H	-3.3050479213	-0.4739003613	 1.0930663594	 0.132726
H	-1.9060636876	-0.2269608364	 2.136950045	 0.110573
H	-3.0626773728	-0.0036889189	-1.3608529762	 0.107218
H	-1.5171226495	-0.2479637423	-2.2096054147	 0.096195
H	-1.0751745567	-3.7415455346	-1.4095494442	 0.120823
H	-0.2352455267	-2.1843906634	-1.8606652951	 0.109471
H	-1.81448709	-2.7259559336	 0.801229373	 0.088951
