15
gdb 27481	2.08563	1.83431	0.9819	4.0774	72.43	-0.2492	-0.0406	0.2086	1137.1559	0.113555	-454.021437	-454.013538	-454.012593	-454.054107	29.423	
C	 0.0643253721	 1.5054834887	-0.0258700769	-0.472966
C	-0.0881149477	 0.0267126652	 0.0928941457	 0.403326
C	-1.2288209806	-0.6698985689	-0.0057645471	-0.351482
C	-1.2262847284	-2.1232846057	 0.1340840188	 0.45293
O	-2.1955574008	-2.8483555279	 0.0631595096	-0.368826
N	 0.0480389198	-2.6434312018	 0.3688081697	-0.39895
C	 1.2294703076	-1.9429816784	 0.472388112	 0.462498
N	 2.3353275917	-2.5129518329	 0.6868087133	-0.557931
O	 1.1173606706	-0.5748111051	 0.3251785377	-0.266457
H	 0.4963107412	 1.9169511467	 0.8925118457	 0.155031
H	 0.7484498458	 1.7516875339	-0.8448247386	 0.155005
H	-0.9003460418	 1.9791039143	-0.2109536162	 0.146454
H	-2.1732474747	-0.1792433339	-0.1897444564	 0.128995
H	 0.1216662803	-3.6455591162	 0.475407611	 0.279388
H	 3.091095985	-1.833995748	 0.7310894218	 0.232986
