11
gdb 23728	5.81857	1.56227	1.23159	4.7398	56.22	-0.2387	-0.0716	0.1671	852.1059	0.073433	-438.734862	-438.728878	-438.727934	-438.76522	22.351	
F	 0.0174499647	-0.0182427543	 0.0027246498	-0.071935
C	-0.0348768914	 1.3154672398	 0.0107210654	 0.180523
C	-1.2162373117	 1.9833926515	 0.0298857134	-0.067559
N	-1.1743359973	 3.3382569667	 0.0367534619	-0.332442
C	 0.0160955048	 4.1104788425	 0.0253485244	 0.450718
O	-0.0574737943	 5.3177376926	 0.032844193	-0.376747
N	 1.2013518158	 3.3809688856	 0.0057895675	-0.306322
C	 1.1607517697	 2.0794058758	-0.0007901055	-0.052459
H	-2.1828388105	 1.4952155198	 0.0398992628	 0.158615
H	-2.0278916158	 3.8788171421	 0.0508909093	 0.277701
H	 2.1103697261	 1.5426193679	-0.016211182	 0.139907
