18
gdb 103442	2.41686	1.57353	1.31576	2.7111	66.55	-0.2385	0.0647	0.3032	1028.6955	0.147948	-476.164208	-476.155898	-476.154954	-476.19674	32.846	
O	-0.0222469119	 1.4285937993	-0.0547100044	-0.439676
C	 0.0372762133	 0.0089915211	-0.1787246076	-0.141745
C	-1.3757270822	-0.5402136964	-0.053399062	 0.39258
O	-2.189854151	-0.0569016205	-1.0975405212	-0.498791
C	-1.6031462453	-2.0418093247	 0.1374905774	-0.113219
N	-0.9143869959	-2.3993251116	 1.4058877895	-0.368551
C	-2.2880258248	-1.8356670272	 1.4429187689	-0.087915
C	-2.06054416	-0.3228026192	 1.3701471811	 0.061232
O	-1.2956092806	 0.2611518145	 2.4006793249	-0.443548
H	-0.2735226414	 1.5942574971	 0.8646303064	 0.296108
H	 0.4349373944	-0.2050887242	-1.1761990713	 0.111598
H	 0.7048129411	-0.4414008442	 0.5642513119	 0.102052
H	-1.9510448248	 0.8760396511	-1.1910108046	 0.285516
H	-1.7918817873	-2.7767754062	-0.634298483	 0.105294
H	-0.987940765	-3.4077960495	 1.5253814893	 0.240134
H	-3.1010973324	-2.3816520111	 1.9047762723	 0.100084
H	-2.9765955788	 0.2575465454	 1.2498231056	 0.101307
H	-0.6365410873	-0.4056993136	 2.6402902567	 0.297539
