23
gdb 59274	2.9392	1.28263	0.99936	0.2016	90.38	-0.2243	0.0219	0.2462	1280.7549	0.20637	-351.15954	-351.150573	-351.149629	-351.193087	35.43	
C	 0.0276976778	 1.5991412221	 0.0832251966	-0.393908
C	 0.0588993225	 0.0640513074	 0.0670800816	 0.040328
C	 0.7771065014	-0.4673680976	 1.3156106039	-0.38933
C	-1.3624553539	-0.5378566401	-0.0528450517	-0.021866
C	-2.1229765966	-0.163430818	-1.3161804807	-0.101837
C	-2.6429739389	-1.2247592067	-1.9369833508	-0.08544
C	-2.2806793161	-2.4983165909	-1.2511020219	-0.088738
C	-0.7966413068	-2.813523533	-1.237584502	-0.280825
C	-1.4175485634	-2.0734180216	-0.0771894185	-0.0532
H	 1.0381334094	 2.0070425629	 0.1922141192	 0.108564
H	-0.3969943849	 2.0137853086	-0.8354271671	 0.112618
H	-0.5697571995	 1.9702422733	 0.9250936888	 0.109929
H	 0.6304838257	-0.2550449932	-0.8147161427	 0.07107
H	 0.8746048016	-1.556339644	 1.290942565	 0.118152
H	 1.7827506135	-0.0421238096	 1.3999019271	 0.106203
H	 0.2280536003	-0.1991112144	 2.2269500147	 0.107386
H	-1.9270246982	-0.1798205078	 0.8242024581	 0.072011
H	-2.2111163844	 0.8598932919	-1.6617048886	 0.092276
H	-3.2310640809	-1.193099365	-2.8476560052	 0.091755
H	-2.9935326303	-3.3131267628	-1.1874750033	 0.083118
H	-0.5027719311	-3.8425373341	-1.0561636469	 0.106077
H	-0.1638501961	-2.2794331324	-1.938494911	 0.111999
H	-1.482965991	-2.6004117951	 0.8670142053	 0.083656
