16
gdb 22969	2.89729	1.1738	0.95519	1.7106	76.3	-0.2452	-0.0414	0.2038	1235.8008	0.122158	-437.782844	-437.773867	-437.772923	-437.81743	32.166	
O	-0.077697432	 1.3674952106	-0.1338582128	-0.376616
N	 0.079419508	-0.0049875541	-0.0795302342	-0.17042
C	-1.040284138	-0.6341321021	 0.0096509632	 0.168261
C	-2.3234483824	-0.0175142075	 0.032850836	 0.373166
C	-3.4252389428	 0.4657045134	 0.073382601	-0.476281
C	-0.9475551662	-2.135475912	 0.0900093272	 0.0684
C	-1.7614389462	-2.8565719101	 1.1936601122	-0.311568
C	-2.4529331339	-3.5725120446	 0.0181304722	-0.057796
O	-1.7124976721	-2.7919010351	-0.9467389566	-0.288513
H	 0.8316368356	 1.67963557	-0.2078738612	 0.313699
H	-4.3918556316	 0.9059002331	 0.0952392743	 0.207947
H	 0.113477664	-2.404517284	 0.0468970524	 0.09589
H	-1.177087416	-3.4812608924	 1.8697506594	 0.115977
H	-2.411561535	-2.1982898767	 1.7708931272	 0.124198
H	-2.2360568031	-4.6435928501	-0.075468062	 0.103057
H	-3.5328780183	-3.4150769183	-0.0761671982	 0.110599
