15
gdb 53203	3.16902	1.04764	0.85293	2.2393	75.42	-0.2401	-0.0203	0.2198	1345.8491	0.112355	-416.825489	-416.816732	-416.815788	-416.860836	30.257	
C	-0.0145016352	 1.5099314758	-0.03126063	-0.498206
C	 0.0270036034	 0.0571099568	 0.0335204109	 0.055499
C	 0.0665385541	-1.1438483344	 0.0856074189	 0.132423
C	 0.0870082721	-2.596188591	 0.1443285558	-0.292339
N	 0.5517822872	-3.1205125639	 1.4509025141	-0.227747
C	-0.3761275731	-3.8921006763	 1.8628928441	 0.069464
N	-1.4873704324	-4.0198811003	 1.0378100364	-0.33348
C	-1.3189458006	-3.2236131816	-0.0897471569	 0.415169
O	-2.0859080101	-3.0926313702	-1.004979462	-0.345521
H	 0.6542461688	 1.8922837836	-0.8099791599	 0.151561
H	-1.0256362161	 1.866991368	-0.2547805892	 0.153243
H	 0.2937837455	 1.9553535827	 0.9208291788	 0.152534
H	 0.7527267212	-2.9924074666	-0.6358611884	 0.149811
H	-0.3383484858	-4.44194108	 2.7980071606	 0.145055
H	-2.3156158292	-4.5628895426	 1.2214510467	 0.272535
