14
gdb 49846	2.19768	1.60046	1.04467	6.3346	65.55	-0.2641	-0.0576	0.2065	1097.3924	0.098874	-473.864289	-473.855915	-473.854971	-473.898216	28.688	
O	-0.0745866764	-0.0580743209	 0.242233563	-0.226462
C	-0.028523695	 1.1235428615	 0.0279722615	 0.151782
C	 1.2472553232	 1.9380900303	 0.037501638	-0.087166
C	 1.4292292159	 2.8795923412	 1.2732618765	-0.410405
C	 2.679170875	 2.0333354377	 1.5953715503	 0.453497
O	 3.5213844411	 2.0375374381	 2.4356289724	-0.300244
N	 2.4517780693	 1.2157576657	 0.4647517299	-0.115727
C	 3.041529004	 0.060135388	-0.0373533025	 0.163314
O	 4.0058224834	-0.4712551789	 0.440595701	-0.263219
H	-0.940914333	 1.7187454589	-0.1979105224	 0.099576
H	 1.3520289329	 2.4574578906	-0.9229921751	 0.12505
H	 1.6313083318	 3.9269048202	 1.0470626371	 0.154802
H	 0.6465726038	 2.8087549437	 2.0315354814	 0.155761
H	 2.511093374	-0.3025245863	-0.9370846008	 0.099439
