23
gdb 89564	4.1483	1.01188	0.96447	0.1499	90.55	-0.2335	0.0305	0.264	1353.0185	0.206708	-351.164949	-351.15631	-351.155366	-351.198258	34.354	
C	-0.01051771	 1.5994872634	-0.0003585114	-0.409418
C	 0.0526371228	 0.0804743886	 0.0286862428	 0.064849
C	 1.0686301914	-0.6469978976	-0.8947075006	-0.279085
C	 1.3638953016	-1.6525668029	 0.2631476799	 0.374196
C	 0.7279803068	-0.6239623294	 1.2387880933	-0.301198
C	 0.5835368104	-2.9862163107	 0.0990090265	-0.313245
C	 1.6501560688	-3.9648241426	-0.3301570422	-0.062917
C	 2.8745097512	-3.4790273665	-0.1322849938	-0.058394
C	 2.8334189383	-2.0904468253	 0.4586781224	-0.342289
H	 0.9833993882	 2.0355739009	 0.1542152865	 0.108362
H	-0.3879840263	 1.9656002431	-0.9620241802	 0.111873
H	-0.6695717134	 1.9878067816	 0.7846211046	 0.11171
H	-0.9503212018	-0.3336285344	-0.1246176696	 0.069093
H	 0.7043978123	-1.058304537	-1.840539391	 0.09265
H	 1.9366088583	-0.0111732333	-1.1033042987	 0.087758
H	 1.4895919659	 0.0184524971	 1.6958375692	 0.089645
H	 0.0832049744	-1.0143887288	 2.0320976032	 0.087959
H	 0.1306247467	-3.3056103488	 1.0500687697	 0.099736
H	-0.2418286121	-2.9031254759	-0.6185549118	 0.097868
H	 1.419515363	-4.9540042809	-0.7106533714	 0.086957
H	 3.8002448642	-4.0099053607	-0.3261343248	 0.087461
H	 3.5352663226	-1.3936398216	-0.0155184341	 0.095682
H	 3.1029233867	-2.1157886583	 1.5261043613	 0.100745
