16
gdb 34482	3.65837	1.50825	1.23195	4.9378	83.38	-0.2336	-0.0775	0.1561	995.0452	0.125751	-363.532498	-363.525712	-363.524768	-363.563621	27.187	
N	-0.2929744548	-0.8766288003	 0.6221593553	-0.351652
C	-0.1914914976	 0.2079720477	 0.2204879765	 0.243499
C	-0.0377640478	 1.5098216259	-0.3134220049	 0.079096
C	-1.0726186586	 2.3794499777	-0.4692167125	 0.008266
C	-1.8890600152	 2.7248858879	 0.7729849346	-0.265627
C	-0.8297832494	 3.8987435984	 0.834910765	-0.068813
C	 0.6180306667	 3.6882017954	 0.2278854455	-0.042787
C	 1.246651792	 2.3154650916	-0.063629552	-0.307489
C	-0.5764627801	 3.8224350248	-0.6437464593	-0.109378
H	-2.8764973732	 3.1663360746	 0.6072487971	 0.121924
H	-1.9285358088	 1.9681350249	 1.5596066093	 0.130648
H	-1.0028185885	 4.8055448114	 1.4088379462	 0.105618
H	 1.2652929081	 4.5454993983	 0.3999011401	 0.093401
H	 1.7786942351	 1.8613343683	 0.7791465481	 0.135001
H	 1.9540630632	 2.3846354376	-0.8999850606	 0.123956
H	-0.801457581	 4.5148875257	-1.4431979782	 0.104338
