25
gdb 117725	3.61203	0.72871	0.71018	1.9137	87.24	-0.2492	0.0777	0.3269	1771.1383	0.224922	-426.61138	-426.599368	-426.598424	-426.648867	42.185	
C	 0.0171267891	 1.3949291868	-0.0468531212	-0.225889
O	 0.0071416788	-0.0101414151	-0.0070986016	-0.239277
C	 0.6425017634	-0.5982917695	-1.1214130871	-0.065728
C	 0.5878675358	-2.1287894304	-0.9949622497	 0.200992
C	 1.3239690895	-2.5744771409	 0.2813632611	-0.405309
C	-0.8776754326	-2.5984602392	-0.9602967044	-0.405302
C	 1.2919715616	-2.707005154	-2.2324147075	-0.065728
O	 1.2724799209	-4.1166389247	-2.1703430444	-0.239278
C	 1.9008798266	-4.7241236802	-3.2712420822	-0.225889
H	 1.0429480304	 1.7973612823	-0.0560780173	 0.102349
H	-0.5087664384	 1.7836167048	-0.9338251662	 0.102335
H	-0.4937631785	 1.7524727888	 0.8506137645	 0.12629
H	 0.144230464	-0.27565126	-2.0531593182	 0.078338
H	 1.6921933416	-0.2587711725	-1.1794695523	 0.078317
H	 0.8488450503	-2.1441314666	 1.1656066269	 0.124797
H	 1.3161566177	-3.6633540088	 0.3656697116	 0.124801
H	 2.3696177817	-2.2449415041	 0.2663025376	 0.098458
H	-1.4112220757	-2.2854288273	-1.8655847714	 0.098475
H	-0.9277675399	-3.6878463655	-0.9006136174	 0.124806
H	-1.3955655813	-2.1692250177	-0.0998455557	 0.124812
H	 0.7867485878	-2.3632125888	-3.152775789	 0.078339
H	 2.3350710525	-2.3461466805	-2.2797302989	 0.078316
H	 2.9632329745	-4.4406080957	-3.3445756973	 0.102345
H	 1.8335544875	-5.8059601887	-3.1319949817	 0.12629
H	 1.4111090028	-4.4569399024	-4.2215537582	 0.102339
