17
gdb 26518	3.89913	1.46649	1.2259	4.0737	78.88	-0.2145	0.0167	0.2312	1029.539	0.138046	-380.843198	-380.83603	-380.835085	-380.874659	28.169	
C	 0.0899008695	 1.6071137295	 0.0845211831	-0.491894
C	 0.0714554793	 0.1095771209	 0.0107901202	 0.175779
C	-0.9322096154	-0.7786120292	 0.7402713458	-0.318506
C	 0.5400323435	-0.9395641221	 1.0254799875	-0.067719
N	 1.1900365231	-1.6616527845	-0.0853179228	-0.001791
C	 1.523857343	-2.8214843167	-0.7226746688	-0.027979
N	 1.4140251215	-2.6631432113	-2.0284458805	-0.25979
C	 0.8760189615	-1.4041995332	-2.2458776238	-0.20759
C	 0.7440448143	-0.7712972859	-1.0368128557	 0.194945
H	 1.10104895	 1.9981363213	-0.0649158922	 0.132724
H	-0.5557790531	 2.0432690794	-0.6858980539	 0.133108
H	-0.2736642514	 1.9565480716	 1.0558212169	 0.121874
H	-1.5040190947	-0.2892459615	 1.5260054166	 0.121
H	-1.4640447546	-1.5616515916	 0.2089061635	 0.134486
H	 1.0191231413	-0.8258090995	 1.9882840226	 0.121943
H	 1.9144632984	-3.6961081522	-0.2256691755	 0.131322
H	 0.6685599336	-1.054129815	-3.2446279832	 0.108086
