19
gdb 112067	2.04115	1.52683	0.95301	0.9126	82.33	-0.2412	0.0218	0.263	1239.421	0.158666	-385.859491	-385.850394	-385.84945	-385.893444	34.183	
O	-0.0654401313	 1.4402356637	-0.3151779488	-0.42708
C	 0.015357722	 0.0276002753	-0.4537324327	-0.086143
C	-1.3010261827	-0.5486803596	 0.0779385431	-0.04436
C	-2.4873105268	-0.0756639705	-0.7328352395	-0.059742
C	-3.0081350045	-1.039773522	-1.4885085727	-0.077061
C	-2.2881938641	-2.354119803	-1.3193121505	-0.262103
C	-1.4271805758	-2.1087649222	-0.0401385962	-0.198888
C	-0.1783599208	-2.8563715519	-0.0099948328	 0.323645
C	 0.8454955884	-3.4876601492	 0.0074853248	-0.467655
H	 0.7578301991	 1.819633146	-0.6351766061	 0.286883
H	 0.1520372571	-0.2649055906	-1.506604373	 0.089578
H	 0.8578235187	-0.3850109911	 0.1186695892	 0.098242
H	-1.3768574358	-0.2402132965	 1.1271144828	 0.088386
H	-2.806502618	 0.9588818374	-0.715402807	 0.108006
H	-3.831194486	-0.9156073011	-2.1837341774	 0.093693
H	-2.9588732938	-3.2101923933	-1.1906714878	 0.110818
H	-1.657734855	-2.5805295347	-2.1888004656	 0.117463
H	-2.0326098789	-2.4301581358	 0.815653097	 0.113771
H	 1.7485441382	-4.045730311	 0.0266501731	 0.192549
