18
gdb 62269	2.83866	1.70395	1.34847	1.7552	80.46	-0.2405	0.0382	0.2787	994.8861	0.147082	-364.708452	-364.700674	-364.69973	-364.740198	31.348	
C	-0.0973257014	 1.4973886465	 0.0288813209	-0.452118
C	 0.0174642752	-0.0341937012	 0.0156959641	 0.145495
C	-1.2922210576	-0.6494055769	 0.1898324823	 0.256223
C	-2.3821384724	-1.1383458902	 0.3329918892	-0.444404
C	 0.9048993532	-0.5208369084	-1.1483003435	-0.067336
C	 2.1340596292	-0.4282199575	-0.3308999524	-0.069947
C	 1.1929155742	-0.5437177863	 0.9288294196	-0.119139
C	 1.2237740861	-2.0517610029	 0.6488307358	-0.16549
N	 1.6492636305	-1.7675134748	-0.7655855189	-0.15426
H	 0.8914486711	 1.956765609	-0.0640271706	 0.120745
H	-0.7196570899	 1.847989494	-0.7997999909	 0.127309
H	-0.556856608	 1.8391826372	 0.9607884287	 0.127132
H	-3.3413222523	-1.5775716815	 0.4549910945	 0.192325
H	 0.7546208338	-0.3507861753	-2.2066865062	 0.101364
H	 3.1266869351	-0.0413574031	-0.5158608365	 0.099027
H	 1.3268795	-0.1104880829	 1.9186202347	 0.077928
H	 2.0464582374	-2.5661296747	 1.1513539395	 0.108033
H	 0.2948131257	-2.6190679311	 0.7592633597	 0.117115
