20
gdb 121471	2.73901	0.79936	0.70419	2.6345	85.72	-0.2469	0.0239	0.2708	1706.4312	0.167122	-403.114085	-403.103312	-403.102367	-403.151081	37.957	
C	 0.2419514963	 1.1224066288	 0.975437137	-0.375859
C	-0.2390089816	-0.1111745648	 0.223428195	-0.070034
O	 0.7775581049	-1.114879031	 0.1479133136	-0.202779
C	 0.8357363863	-1.9873387709	 1.1708068956	 0.129947
N	 1.7767227688	-2.8227389335	 1.2314057157	-0.251556
C	 1.8292127018	-3.7908366242	 2.3249381501	-0.082836
C	 3.2042064021	-3.6830003267	 3.0120691886	-0.368955
C	 0.745463976	-3.7147416767	 3.3163108524	 0.320113
C	-0.1382008346	-3.6388671505	 4.1293541917	-0.498773
H	 1.1507054245	 1.5199126617	 0.515360864	 0.137771
H	-0.5277358055	 1.9007411076	 0.9559551507	 0.120716
H	 0.4619605193	 0.8852190902	 2.0209894081	 0.127704
H	-1.1425859216	-0.5290768431	 0.6868276382	 0.109461
H	-0.479946524	 0.1336257089	-0.8145103299	 0.122224
H	 0.0117956577	-1.9090906609	 1.8918490558	 0.093534
H	 1.7763197346	-4.783983784	 1.8564189256	 0.118159
H	 3.303369614	-2.7137869532	 3.5081166777	 0.124116
H	 3.3260188326	-4.4725931398	 3.7582235517	 0.11925
H	 3.9891957606	-3.7703555214	 2.2573909647	 0.129618
H	-0.9141927521	-3.5913575064	 4.8530414538	 0.198179
