29
gdb 117978	2.48983	0.84709	0.7642	0.0574	99.34	-0.2901	0.076	0.3661	1755.8735	0.272397	-354.776936	-354.764653	-354.763709	-354.81411	46.221	
C	 0.038765452	 1.6174069084	-0.0153045965	-0.380358
C	 0.0044102832	 0.0914778615	-0.1414086294	-0.172191
C	-1.3619858153	-0.5057855112	 0.223248915	-0.179368
C	-1.4292714412	-2.0472434072	 0.1204402314	 0.042204
C	-0.7014259092	-2.6832681127	 1.3187012581	-0.418882
C	-2.8826224032	-2.5970396675	-0.090249234	 0.263128
C	-3.405691459	-2.1619554159	-1.4754016046	-0.411156
C	-2.8751539009	-4.139528262	-0.0678754798	-0.411695
C	-3.8527107219	-2.0900332203	 0.9948531598	-0.406808
H	 1.0181064055	 2.020221576	-0.2926232922	 0.10933
H	-0.7097404782	 2.085908904	-0.6643565042	 0.112101
H	-0.1725743254	 1.9347739407	 1.0120387386	 0.112683
H	 0.2569092865	-0.1960841171	-1.170772372	 0.093479
H	 0.7886151185	-0.3386171219	 0.4932097477	 0.097213
H	-1.6266824755	-0.1975940064	 1.2439475504	 0.090021
H	-2.1109241355	-0.0467650488	-0.4313631367	 0.089961
H	-0.872812528	-2.3358679662	-0.7842003098	 0.060639
H	-1.249776825	-2.5235659622	 2.2539701829	 0.113241
H	-0.558517044	-3.7590658037	 1.1934620625	 0.113788
H	 0.2908389244	-2.2413332609	 1.4483331965	 0.111834
H	-2.7507613051	-2.5257366319	-2.2753850373	 0.106117
H	-4.4052134549	-2.5736129455	-1.6536462773	 0.106148
H	-3.4821321704	-1.0755913196	-1.5743835734	 0.111418
H	-2.6453334794	-4.5371771629	 0.9243204428	 0.111456
H	-3.8577225529	-4.5284204377	-0.3563595229	 0.104452
H	-2.1392038263	-4.5444080553	-0.7723012321	 0.105296
H	-3.9618683285	-1.0017161159	 0.9678012499	 0.110849
H	-4.8481406977	-2.5233767194	 0.8479940907	 0.105736
H	-3.5208592727	-2.3695096582	 1.999951936	 0.109363
