19
gdb 74092	2.53586	1.54248	1.12457	4.2905	83.05	-0.2303	-0.0418	0.1885	1134.3324	0.158852	-385.92664	-385.918091	-385.917147	-385.959359	32.967	
C	-0.0155956444	 1.4757913365	 0.0523293452	-0.499681
C	-0.0253706559	-0.0162040524	-0.0207995601	 0.277513
C	 0.0152019703	-0.7769267694	-1.1288375511	-0.322143
C	-0.0055901046	-2.2204634106	-0.7818051913	 0.407618
O	-0.0647097103	-3.1606423447	-1.5420653033	-0.34537
C	 0.0352667123	-2.2872324333	 0.7301020827	-0.204425
C	 1.2525417811	-1.654485893	 1.3926516849	-0.317017
C	-0.0316514769	-0.8665133648	 1.22858336	 0.251915
C	-0.8412049914	-0.441583841	 2.4317260801	-0.491356
H	 0.8409521813	 1.8314774273	 0.6386268598	 0.139218
H	 0.0321776228	 1.9275595846	-0.9408695259	 0.134797
H	-0.9135753748	 1.8502831806	 0.5585720654	 0.13987
H	 0.0772450563	-0.4245394445	-2.1508159513	 0.10727
H	-0.4562610259	-3.1118114798	 1.2311129019	 0.105662
H	 1.4995147763	-2.0151052683	 2.3869722802	 0.118778
H	 2.1063626607	-1.3978780451	 0.7747231667	 0.12385
H	-0.4883297357	 0.5128343855	 2.8379356108	 0.122681
H	-1.9010301662	-0.3278811381	 2.1784534593	 0.126591
H	-0.7676598551	-1.1862810695	 3.2294667158	 0.12423
