15
gdb 2480	5.53978	2.4637	2.28634	1.9142	61.49	-0.2247	0.0101	0.2348	648.5974	0.125896	-308.473229	-308.467332	-308.466388	-308.502667	23.054	
C	-0.0434706816	 1.4571896026	 0.0473584879	-0.518255
C	-0.0118081263	-0.0284181345	-0.0158627532	 0.365329
C	-0.0576826815	-0.9013202918	-1.0270474531	-0.200484
C	 0.0284388498	-2.2458336204	-0.2832957873	 0.029686
C	-1.0095158586	-2.0410089228	 0.8611650636	-0.214577
C	 0.0967115031	-0.9945876727	 1.1902904368	-0.027714
O	 1.0777035396	-1.9703407654	 0.7086712695	-0.284537
H	 0.8647937121	 1.8544525072	 0.5183100226	 0.134284
H	-0.1296028735	 1.8991919259	-0.9491385114	 0.129127
H	-0.8882559821	 1.8149308674	 0.6500723487	 0.12855
H	-0.1342767146	-0.742537846	-2.0928272369	 0.10318
H	 0.1564432056	-3.1760810729	-0.8349595059	 0.078986
H	-2.0117214387	-1.6899312173	 0.6057814191	 0.094735
H	-1.0286979931	-2.870667779	 1.5721201389	 0.105696
H	 0.2939494098	-0.6017677405	 2.1879133307	 0.075993
