14
gdb 44763	2.7363	1.72442	1.26024	5.7459	66.53	-0.2589	-0.0452	0.2137	962.8644	0.101209	-436.682118	-436.675041	-436.674096	-436.713748	27.027	
O	-0.0158228862	 0.0452526891	-0.0629196547	-0.29093
C	-0.0226290526	 1.2366374704	-0.023020726	 0.420243
C	-1.188668523	 2.2442810526	 0.0583911958	-0.34085
C	-0.3187706516	 3.5114573957	 0.0379325733	 0.060479
C	 0.7067417642	 3.2692606517	-1.0916721488	-0.277537
C	 1.1778270373	 2.2364698724	-0.0306344771	 0.191006
O	 0.7271846779	 3.1584574794	 1.0135884029	-0.312194
C	 2.5236407929	 1.7323875161	 0.0762473634	 0.188715
N	 3.5990540252	 1.3146967477	 0.1321885445	-0.322255
H	-1.8783995894	 2.1328878611	-0.7823620521	 0.14058
H	-1.7404365305	 2.1340716533	 0.994532778	 0.154097
H	-0.7795404314	 4.4791144734	 0.2210284226	 0.111992
H	 0.3652108049	 2.9049524012	-2.0629562716	 0.128907
H	 1.4246214122	 4.0830888859	-1.18845603	 0.147747
