20
gdb 103212	3.45182	1.31475	1.1365	1.9453	78.97	-0.2302	0.0671	0.2973	1133.8475	0.170683	-403.040926	-403.032623	-403.031679	-403.073521	32.593	
C	-0.1405919409	 1.6183741706	 0.0332827629	-0.475224
C	-0.0693798431	 0.0963208918	 0.0250732735	 0.299605
C	-1.4297414172	-0.5348268031	-0.2791176113	-0.138337
O	-1.9262623363	-0.1526262357	-1.5596894776	-0.422828
C	 1.148909761	-0.5571170457	-0.6688903924	-0.05323
C	 2.1382842689	-0.2377090935	 0.493280473	-0.077842
C	 2.5270904431	-1.7090416918	 0.5425659855	-0.191084
N	 1.0437284379	-1.8307117596	 0.2178652022	-0.16971
C	 0.7596268956	-0.5980071854	 1.1266885958	-0.060268
H	 0.8420354966	 2.0819349852	 0.1569102233	 0.110914
H	-0.5775589483	 1.9730036247	-0.9041031225	 0.135363
H	-0.7830640096	 1.9692067346	 0.8492085782	 0.115549
H	-1.3673136134	-1.6246828266	-0.1834787993	 0.117388
H	-2.1703174725	-0.1729308082	 0.4437806748	 0.101744
H	-1.4163846059	-0.6298265082	-2.2214823615	 0.284689
H	 1.390441556	-0.6487975452	-1.7316242494	 0.073206
H	 2.7421838845	 0.6618542025	 0.6450751481	 0.070404
H	 3.1789988522	-2.0996716951	-0.2461311318	 0.100249
H	 2.797358406	-2.1415698907	 1.5117224512	 0.101222
H	 0.5338520554	-0.7408369907	 2.1865029471	 0.078189
