21
gdb 97930	5.57118	0.52257	0.5072	1.225	89.32	-0.2392	0.0377	0.2769	2214.0923	0.18034	-387.041064	-387.030317	-387.029372	-387.079142	37.605	
C	 0.2335256565	 1.4795588774	-0.3553591646	-0.40378
C	-0.032972308	 0.0527179856	 0.0748437625	-0.007802
C	 1.0810666396	-0.9667174706	 0.1397810408	-0.283673
C	 0.4054262442	-0.509837479	 1.4086934744	 0.02033
C	 1.1571801724	 0.3201615836	 2.4418120752	-0.38556
C	 1.9084539285	-0.4989945412	 3.389569755	 0.05593
C	 2.5098575443	-1.1898772251	 4.1706182694	 0.119461
C	 3.26234504	-2.0215477294	 5.1000170509	-0.215252
O	 2.5290030012	-2.1769561415	 6.3108774844	-0.410163
H	 1.223934075	 1.8255445586	-0.0455609093	 0.114975
H	 0.1888216589	 1.5667040717	-1.4465237936	 0.116996
H	-0.5067267146	 2.1713985483	 0.0624931569	 0.116682
H	-0.9893079238	-0.3293591587	-0.2744212089	 0.083315
H	 0.9019649346	-1.9745938336	-0.2182032039	 0.108947
H	 2.0905753577	-0.6077316651	-0.0400815672	 0.108078
H	-0.2780105823	-1.2222152878	 1.8620630969	 0.092591
H	 1.844193908	 1.0148783271	 1.9442922624	 0.124308
H	 0.4486648091	 0.9483551598	 2.9991699014	 0.131221
H	 3.4616659159	-2.9987394346	 4.6298437439	 0.113164
H	 4.2436731081	-1.5555536977	 5.2888271079	 0.112701
H	 3.0576313446	-2.7300966678	 6.8951405554	 0.28753
