16
gdb 47769	2.0282	1.71637	1.24523	3.6692	69.38	-0.2679	-0.0472	0.2208	1044.2774	0.12531	-437.917752	-437.90982	-437.908876	-437.950659	29.141	
O	 0.0289280424	-0.0380373671	-0.1070416776	-0.292268
C	-0.0242012718	 1.1586587272	 0.0009176973	 0.391767
C	-1.2976339906	 1.9753221526	 0.0329017307	-0.31421
C	-1.2334368338	 3.070982064	-1.0545166256	-0.091133
O	-0.0637210233	 3.8594476558	-0.9300674066	-0.225411
C	 1.1123367991	 3.109476216	-1.0951812137	-0.102571
C	 1.2587793352	 2.0292804537	 0.0178805158	-0.251944
C	 1.4452062264	 2.645266866	 1.3288754481	 0.273275
N	 1.5806994857	 3.1244542775	 2.3721332349	-0.317783
H	-2.1565542951	 1.3169070056	-0.1138144035	 0.132544
H	-1.3798340887	 2.4616459768	 1.0118897204	 0.157044
H	-1.2751815797	 2.6063032653	-2.0525786864	 0.108585
H	-2.0797411025	 3.7546464032	-0.9599604037	 0.131859
H	 1.1244680075	 2.594471923	-2.0691752513	 0.112744
H	 1.9495481241	 3.809580846	-1.0580330492	 0.141726
H	 2.1072474851	 1.3735569344	-0.1986128996	 0.145776
