18
gdb 30208	3.74702	1.32737	1.12977	2.0838	77.97	-0.1885	0.0283	0.2168	1105.2664	0.15052	-401.972335	-401.964942	-401.963998	-402.004071	29.638	
C	 0.2453595649	 1.4781515268	 0.0666635373	-0.39353
C	-0.070480809	-0.0172319238	-0.039139936	 0.034103
C	 0.6068549106	-0.6727242551	-1.2908951462	-0.370871
C	 1.8529658051	-1.2593477852	-0.6955061443	 0.241401
C	 3.0636523353	-1.7992745034	-0.9714392226	-0.16269
O	 3.6884121284	-2.1536441438	 0.1859458924	-0.164556
C	 2.846834982	-1.8352082119	 1.234110144	-0.150997
C	 1.7151579711	-1.285238371	 0.7258349769	 0.23248
N	 0.4671403812	-0.7891544516	 1.1180816318	-0.417606
H	 1.3276996718	 1.6461988335	 0.0684622653	 0.130134
H	-0.1868920342	 2.028498097	-0.7758326259	 0.117276
H	-0.1694000935	 1.9032298172	 0.9875162405	 0.110668
H	-1.1563174277	-0.1525883869	-0.0772317781	 0.080396
H	-0.0395043107	-1.4522978563	-1.7108441195	 0.119368
H	 0.7804486932	 0.0659710588	-2.0786172717	 0.112593
H	 3.6166011478	-1.9940303862	-1.8756105737	 0.13096
H	 3.2215818937	-2.0556039072	 2.2178734762	 0.122786
H	 0.44370196	-0.2802069308	 1.9921125436	 0.228085
