17
gdb 34052	3.14372	1.3649	1.17534	4.1079	73.15	-0.2504	0.0131	0.2635	1071.9202	0.137924	-417.986335	-417.978724	-417.97778	-418.018493	29.133	
N	 0.0134294674	-1.1428980909	 0.0727052494	-0.334588
C	 0.0213280329	 0.0112346181	 0.0053046382	 0.254995
C	-0.0342185772	 1.4558513994	-0.0680166156	 0.136061
C	 0.4410697292	 2.1604003973	-1.296786937	-0.264593
N	 1.2751602789	 2.1396640603	-0.1038184592	-0.119748
C	 1.4198878227	 3.4016559669	 0.6493395361	-0.162069
C	 0.2362692109	 3.7120525462	 1.5666694893	-0.091311
O	-0.9935886129	 3.4598862979	 0.9008411891	-0.237532
C	-1.1820633783	 2.0746225033	 0.7360046635	-0.169328
H	 0.8132994841	 1.5879629672	-2.1414226287	 0.135336
H	-0.0842964997	 3.0815808572	-1.5408132714	 0.133437
H	 2.3375912952	 3.3359910648	 1.2443685219	 0.120834
H	 1.5554340526	 4.2132689711	-0.073098045	 0.119804
H	 0.2882643277	 3.1064841864	 2.485025513	 0.105444
H	 0.2368335056	 4.7665145494	 1.8543650673	 0.12166
H	-2.1316082544	 1.9319076091	 0.2126755457	 0.1356
H	-1.2484072648	 1.5730132464	 1.7142552033	 0.115997
