19
gdb 114403	3.26687	1.09063	1.06276	3.6246	75.91	-0.2334	-0.0331	0.2004	1241.951	0.158201	-423.010149	-423.001588	-423.000644	-423.043951	31.967	
C	-0.3594210444	 1.3975852679	 0.2758556181	-0.381848
C	-0.0888044706	-0.096335199	 0.061850505	-0.203301
C	 0.869137748	-0.6524953965	 1.0968722899	 0.166386
O	 0.3408226349	-0.5967698574	 2.4575369236	-0.312193
C	 0.7526176253	-1.9554071962	 2.7242517151	-0.000469
C	 1.1492067422	-2.1651118851	 1.2269128574	-0.129937
C	-0.0616041903	-3.1174181517	 1.0221493727	-0.374002
C	-0.4467356701	-2.910180839	 2.5056040234	 0.411931
O	-1.3159235288	-3.332890276	 3.2065491595	-0.285022
H	 0.5625645293	 1.9830321083	 0.191451428	 0.115083
H	-1.0685219514	 1.7788653405	-0.4643267684	 0.11517
H	-0.7781747092	 1.5713410123	 1.2710376384	 0.142176
H	-1.0341709084	-0.6479622632	 0.0994243013	 0.105994
H	 0.3447737857	-0.2671154588	-0.9325444547	 0.100385
H	 1.8127068996	-0.0869949132	 1.0626570528	 0.077984
H	 1.3943445236	-2.0547293589	 3.603748903	 0.093135
H	 2.1219203668	-2.5289100107	 0.9036909006	 0.087098
H	-0.8145375886	-2.8574638245	 0.2749348705	 0.134058
H	 0.2434968064	-4.155064619	 0.8484604039	 0.137371
